data_PCOD9466992
_publ_section_title
;
Structure prediction by ZEFSAII (Michael W. Deem and Ramdas Pophale) SiO2 
 PCOD9466992
Probable space group: P N M A
;
_chemical_formula_sum "Si O2"
_cell_formula_units_Z 64
_cell_length_a 12.560099
_cell_length_b 15.239582
_cell_length_c 15.908288
_cell_angle_alpha 90.000000
_cell_angle_beta 90.000000
_cell_angle_gamma 90.000000
_cell_volume 3045.015884
_symmetry_space_group_name_H-M "P N M A"
_symmetry_group_IT_number 62
_symmetry_cell_setting 'orthorhombic'
loop_
_space_group_symop_operation_xyz
x,y,z
1/2-x,-y,1/2+z
1/2+x,1/2-y,1/2-z
-x,1/2+y,-z
-x,-y,-z
1/2+x,y,1/2-z
1/2-x,1/2+y,1/2+z
x,1/2-y,z
loop_
_atom_site_type_symbol
_atom_site_label
_atom_site_fract_x
_atom_site_fract_y
_atom_site_fract_z
Si Si1 0.201824 0.919691 0.823815
Si Si2 0.626710 0.934719 0.149245
Si Si3 0.336639 0.519219 0.571972
Si Si4 0.511678 0.647264 0.992858
Si Si5 0.176902 0.847300 0.650496
Si Si6 0.834308 0.652296 0.083786
Si Si7 0.257706 0.650400 0.998479
Si Si8 0.985437 0.943140 0.187087
O O1 0.178650 0.851227 0.750445
O O2 0.194693 0.870876 0.912627
O O3 0.314254 0.972112 0.833322
O O4 0.116743 0.994841 0.800774
O O5 0.726051 0.868425 0.135002
O O6 0.550467 0.921807 0.228978
O O7 0.560006 0.918407 0.063097
O O8 0.261966 0.580263 0.626787
O O9 0.345386 0.574681 0.485516
O O10 0.279970 0.426152 0.559303
O O11 0.443414 0.497132 0.620850
O O12 0.534145 0.750000 0.017151
O O13 0.570343 0.632697 0.903259
O O14 0.384798 0.640631 0.986021
O O15 0.209380 0.750000 0.623770
O O16 0.829007 0.750000 0.047969
O O17 0.936271 0.642122 0.143223
O O18 0.237059 0.750000 0.026064
#
# Coordination Sequence:
#
# PCOD9466992 Si02
#       8
#     8   8   8   8   8   8   8   8
#     4  11  24  43  64  97 137 173 216 276 335 400
#     4  11  22  42  68  96 132 174 223 278 332 391
#     4  12  23  44  69  95 137 173 226 272 325 410
#     4  10  23  41  68 101 130 174 231 276 333 396
#     4  11  23  41  70 102 133 173 223 275 330 397
#     4  11  24  44  69  97 132 178 228 277 335 398
#     4  11  25  44  68 100 135 174 222 280 336 395
#     4  11  26  43  65  99 134 180 223 271 342 397
#
# _framework density 21.017952999999999
#
# number of rings (size 3 to 8) (size 9 to 14) (size 15 to 20)
#    0.000    1.000    5.000    1.500    3.500    2.500 
#    0.000    3.125    0.000    0.000    0.000    0.000 
#    0.000    0.000    0.000    0.000    0.000    0.000 
#
# Total GULP energy -357133.528497 kJ/mol
# GULP energy per Si atom -5580.211383 kJ/mol
# Density = 2.097011 g / cm^3
# Si number density = 21.017953 Si / 1000 Ang^3
#
#
#
# Elastic Constant Matrix: (Units=GPa)
#
#
# Indices 1 2 3 4 5 6 
#
# 1 102.2744 44.0691 4.2842 0.0000 0.0000 0.0000
# 2 44.0691 120.7843 14.0270 0.0000 0.0000 0.0000
# 3 4.2842 14.0270 70.1392 0.0000 0.0000 0.0000
# 4 0.0000 0.0000 0.0000 23.7512 0.0000 0.0000
# 5 0.0000 0.0000 0.0000 0.0000 -277.9589 0.0000
# 6 0.0000 0.0000 0.0000 0.0000 0.0000 18.0503
#
#
#
# Elastic Compliance Matrix: (Units=1/GPa)
#
#
# Indices 1 2 3 4 5 6 
#
# 1 0.011603 -0.004250 0.000141 0.000000 0.000000 0.000000
# 2 -0.004250 0.010033 -0.001747 0.000000 0.000000 0.000000
# 3 0.000141 -0.001747 0.014598 0.000000 0.000000 0.000000
# 4 0.000000 0.000000 0.000000 0.042103 0.000000 0.000000
# 5 0.000000 0.000000 0.000000 0.000000 -0.003598 0.000000
# 6 0.000000 0.000000 0.000000 0.000000 0.000000 0.055401
#
#
# Mechanical properties :
#
#
# Convention : Reuss Voigt Hill
#
# Bulk Modulus (GPa) = 40.77845 46.43985 43.60915
# Shear Modulus (GPa) = 33.32776 -31.84365 0.74206
#
# Velocity S-wave (km/s) = 3.98638 -3.89661 0.59483
# Velocity P-wave (km/s) = 6.37434 1.37787 4.61144
#
# Compressibility (1/GPa) = 0.02452276
#
# Stress axis : x y z
#
# Youngs Moduli (GPa) = 86.18527 99.67446 68.50210
#
# Poissons Ratio (x) = 0.42360 -0.00967
# Poissons Ratio (y) = 0.36627 0.11966
# Poissons Ratio (z) = -0.01217 0.17411
#
# Static dielectric constant tensor:
#      x y z
#    x 1.748700 0.000000 0.000000 
#    y 0.000000 1.797870 0.000000 
#    z 0.000000 0.000000 1.837620 
# 
# From -- ./inp_files/23236.got.cif
#   From: 2010.05.17/outbox.cif.g08.bks.cpg/sg62_12_cif.got.tgz:23236.got - 2010.06.03 15:25:27.
