data_PCOD9466545
_publ_section_title
;
Structure prediction by ZEFSAII (Michael W. Deem and Ramdas Pophale) SiO2 
 PCOD9466545
Probable space group: P N M A
;
_chemical_formula_sum "Si O2"
_cell_formula_units_Z 40
_cell_length_a 10.283239
_cell_length_b 22.681360
_cell_length_c 9.286915
_cell_angle_alpha 90.000000
_cell_angle_beta 90.000000
_cell_angle_gamma 90.000000
_cell_volume 2166.060048
_symmetry_space_group_name_H-M "P N M A"
_symmetry_group_IT_number 62
_symmetry_cell_setting 'orthorhombic'
loop_
_space_group_symop_operation_xyz
x,y,z
1/2-x,-y,1/2+z
1/2+x,1/2-y,1/2-z
-x,1/2+y,-z
-x,-y,-z
1/2+x,y,1/2-z
1/2-x,1/2+y,1/2+z
x,1/2-y,z
loop_
_atom_site_type_symbol
_atom_site_label
_atom_site_fract_x
_atom_site_fract_y
_atom_site_fract_z
Si Si1 0.895037 0.631146 0.803555
Si Si2 0.826134 0.540875 0.566870
Si Si3 0.955012 0.433692 0.960273
Si Si4 0.069186 0.579966 0.378616
Si Si5 0.621514 0.818807 0.899349
O O1 0.868052 0.570571 0.716548
O O2 0.759030 0.664355 0.825740
O O3 0.002258 0.665337 0.708151
O O4 0.956757 0.612704 0.954842
O O5 0.690946 0.568379 0.520796
O O6 0.824606 0.470492 0.584205
O O7 0.935471 0.557107 0.450392
O O8 0.950504 0.419785 0.791550
O O9 0.000000 0.500000 0.000000
O O10 0.105253 0.640025 0.459663
O O11 0.618737 0.750000 0.934050
#
# Coordination Sequence:
#
# PCOD9466545 Si02
#       5
#     8   8   8   8   8
#     4  11  22  42  68  94 124 168 213 263 319 372
#     4  10  22  39  59  97 128 160 207 261 321 388
#     4  12  23  35  65  96 129 161 203 259 328 389
#     4  10  24  38  63  92 131 166 204 263 329 373
#     4  11  24  45  66  91 127 172 220 260 308 385
#
# _framework density 18.466709999999999
#
# number of rings (size 3 to 8) (size 9 to 14) (size 15 to 20)
#    0.000    1.200    4.000    1.800    5.600    0.000 
#    0.000    2.000    0.000    0.000    0.000    0.000 
#    0.000    0.000    0.000    0.000    0.000    0.000 
#
# Total GULP energy -223508.591663 kJ/mol
# GULP energy per Si atom -5587.714792 kJ/mol
# Density = 1.842468 g / cm^3
# Si number density = 18.466710 Si / 1000 Ang^3
#
#
#
# Elastic Constant Matrix: (Units=GPa)
#
#
# Indices 1 2 3 4 5 6 
#
# 1 101.3184 35.1621 44.9671 0.0000 0.0000 0.0000
# 2 35.1621 142.6877 55.8850 0.0000 0.0000 0.0000
# 3 44.9671 55.8850 146.9346 0.0000 0.0000 0.0000
# 4 0.0000 0.0000 0.0000 14.7947 0.0000 0.0000
# 5 0.0000 0.0000 0.0000 0.0000 17.3391 0.0000
# 6 0.0000 0.0000 0.0000 0.0000 0.0000 11.2813
#
#
#
# Elastic Compliance Matrix: (Units=1/GPa)
#
#
# Indices 1 2 3 4 5 6 
#
# 1 0.011783 -0.001752 -0.002939 0.000000 0.000000 0.000000
# 2 -0.001752 0.008496 -0.002695 0.000000 0.000000 0.000000
# 3 -0.002939 -0.002695 0.008730 0.000000 0.000000 0.000000
# 4 0.000000 0.000000 0.000000 0.067592 0.000000 0.000000
# 5 0.000000 0.000000 0.000000 0.000000 0.057673 0.000000
# 6 0.000000 0.000000 0.000000 0.000000 0.000000 0.088642
#
#
# Mechanical properties :
#
#
# Convention : Reuss Voigt Hill
#
# Bulk Modulus (GPa) = 70.24849 73.66324 71.95586
# Shear Modulus (GPa) = 19.05245 25.67815 22.36530
#
# Velocity S-wave (km/s) = 3.21552 3.73300 3.48388
# Velocity P-wave (km/s) = 7.20481 7.65224 7.43189
#
# Compressibility (1/GPa) = 0.01423518
#
# Stress axis : x y z
#
# Youngs Moduli (GPa) = 84.87118 117.70754 114.54352
#
# Poissons Ratio (x) = 0.20626 0.33669
# Poissons Ratio (y) = 0.14872 0.30869
# Poissons Ratio (z) = 0.24947 0.31722
#
# Static dielectric constant tensor:
#      x y z
#    x 1.652900 0.000000 0.000000 
#    y 0.000000 1.615270 0.000000 
#    z 0.000000 0.000000 1.628880 
# 
# From -- ./inp_files/4277.got.cif
#   From: 2010.05.17/outbox.cif.g08.bks.cpg/sg62_3_cif.got.tgz:4277.got - 2010.06.03 15:25:27.
