data_PCOD9466651
_publ_section_title
;
Structure prediction by ZEFSAII (Michael W. Deem and Ramdas Pophale) SiO2 
 PCOD9466651
Probable space group: P N M A
;
_chemical_formula_sum "Si O2"
_cell_formula_units_Z 48
_cell_length_a 9.735723
_cell_length_b 7.676496
_cell_length_c 28.308560
_cell_angle_alpha 90.000000
_cell_angle_beta 90.000000
_cell_angle_gamma 90.000000
_cell_volume 2115.675296
_symmetry_space_group_name_H-M "P N M A"
_symmetry_group_IT_number 62
_symmetry_cell_setting 'orthorhombic'
loop_
_space_group_symop_operation_xyz
x,y,z
1/2-x,-y,1/2+z
1/2+x,1/2-y,1/2-z
-x,1/2+y,-z
-x,-y,-z
1/2+x,y,1/2-z
1/2-x,1/2+y,1/2+z
x,1/2-y,z
loop_
_atom_site_type_symbol
_atom_site_label
_atom_site_fract_x
_atom_site_fract_y
_atom_site_fract_z
Si Si1 0.844026 0.458858 0.010950
Si Si2 0.195095 0.540979 0.883243
Si Si3 0.002001 0.539620 0.195970
Si Si4 0.408492 0.541891 0.045714
Si Si5 0.197739 0.048356 0.723766
Si Si6 0.016961 0.050039 0.353211
O O1 0.827143 0.250000 0.012661
O O2 0.805329 0.526485 0.063100
O O3 0.742442 0.520316 0.969855
O O4 0.000000 0.500000 0.000000
O O5 0.211221 0.750000 0.885514
O O6 0.328665 0.474521 0.854771
O O7 0.054972 0.502349 0.855834
O O8 0.006274 0.750000 0.199388
O O9 0.153872 0.473510 0.209466
O O10 0.887425 0.470491 0.232600
O O11 0.408540 0.750000 0.053719
O O12 0.465812 0.456348 0.092805
O O13 0.500000 0.500000 0.000000
O O14 0.223269 0.250000 0.736162
O O15 0.092975 0.042297 0.679869
O O16 0.022681 0.250000 0.336866
#
# Coordination Sequence:
#
# PCOD9466651 Si02
#       6
#     8   8   8   8   8   8
#     4  10  23  41  59  85 122 160 201 248 294 349
#     4  10  22  41  60  85 122 158 198 247 296 353
#     4  10  22  40  64  90 120 155 197 245 299 359
#     4  11  22  40  63  89 122 159 203 249 295 351
#     4  10  22  41  63  91 121 153 196 246 297 357
#     4  11  23  40  62  89 121 159 202 246 298 355
#
# _framework density 22.687792000000002
#
# number of rings (size 3 to 8) (size 9 to 14) (size 15 to 20)
#    0.000    1.667    1.667    2.000    2.333    6.000 
#    0.000    0.000    0.000    0.000    0.000    0.000 
#    0.000    0.000    0.000    0.000    0.000    0.000 
#
# Total GULP energy -268315.297162 kJ/mol
# GULP energy per Si atom -5589.902024 kJ/mol
# Density = 2.263615 g / cm^3
# Si number density = 22.687792 Si / 1000 Ang^3
#
#
#
# Elastic Constant Matrix: (Units=GPa)
#
#
# Indices 1 2 3 4 5 6 
#
# 1 131.4881 -0.5548 5.9568 0.0000 0.0000 0.0000
# 2 -0.5548 50.1729 -9.8038 0.0000 0.0000 0.0000
# 3 5.9568 -9.8038 60.1695 0.0000 0.0000 0.0000
# 4 0.0000 0.0000 0.0000 16.2826 0.0000 0.0000
# 5 0.0000 0.0000 0.0000 0.0000 39.4087 0.0000
# 6 0.0000 0.0000 0.0000 0.0000 0.0000 23.1121
#
#
#
# Elastic Compliance Matrix: (Units=1/GPa)
#
#
# Indices 1 2 3 4 5 6 
#
# 1 0.007640 -0.000065 -0.000767 0.000000 0.000000 0.000000
# 2 -0.000065 0.020587 0.003361 0.000000 0.000000 0.000000
# 3 -0.000767 0.003361 0.017243 0.000000 0.000000 0.000000
# 4 0.000000 0.000000 0.000000 0.061415 0.000000 0.000000
# 5 0.000000 0.000000 0.000000 0.000000 0.025375 0.000000
# 6 0.000000 0.000000 0.000000 0.000000 0.000000 0.043267
#
#
# Mechanical properties :
#
#
# Convention : Reuss Voigt Hill
#
# Bulk Modulus (GPa) = 19.79137 25.89185 22.84161
# Shear Modulus (GPa) = 26.69329 32.17618 29.43474
#
# Velocity S-wave (km/s) = 3.43381 3.77001 3.60583
# Velocity P-wave (km/s) = 4.94608 5.51250 5.23695
#
# Compressibility (1/GPa) = 0.05052707
#
# Stress axis : x y z
#
# Youngs Moduli (GPa) = 130.89482 48.57415 57.99368
#
# Poissons Ratio (x) = 0.00318 0.04448
# Poissons Ratio (y) = 0.00856 -0.19491
# Poissons Ratio (z) = 0.10039 -0.16325
#
# Static dielectric constant tensor:
#      x y z
#    x 1.853800 0.000000 0.000000 
#    y 0.000000 1.864100 0.000000 
#    z 0.000000 0.000000 1.813280 
# 
# From -- ./inp_files/31977.got.cif
#   From: 2010.05.17/outbox.cif.g08.bks.cpg/sg62_16_cif.got.tgz:31977.got - 2010.06.03 15:25:27.
