data_PCOD9466419
_publ_section_title
;
Structure prediction by ZEFSAII (Michael W. Deem and Ramdas Pophale) SiO2 
 PCOD9466419
Probable space group: P N M A
;
_chemical_formula_sum "Si O2"
_cell_formula_units_Z 40
_cell_length_a 12.843917
_cell_length_b 22.969123
_cell_length_c 5.809338
_cell_angle_alpha 90.000000
_cell_angle_beta 90.000000
_cell_angle_gamma 90.000000
_cell_volume 1713.833191
_symmetry_space_group_name_H-M "P N M A"
_symmetry_group_IT_number 62
_symmetry_cell_setting 'orthorhombic'
loop_
_space_group_symop_operation_xyz
x,y,z
1/2-x,-y,1/2+z
1/2+x,1/2-y,1/2-z
-x,1/2+y,-z
-x,-y,-z
1/2+x,y,1/2-z
1/2-x,1/2+y,1/2+z
x,1/2-y,z
loop_
_atom_site_type_symbol
_atom_site_label
_atom_site_fract_x
_atom_site_fract_y
_atom_site_fract_z
Si Si1 0.975871 0.182508 0.689792
Si Si2 0.199814 0.186027 0.436574
Si Si3 0.055328 0.490106 0.251489
Si Si4 0.699606 0.901091 0.237225
Si Si5 0.389361 0.873960 0.556627
O O1 0.944584 0.250000 0.706758
O O2 0.084211 0.182179 0.548660
O O3 0.884000 0.140286 0.605075
O O4 0.012211 0.153222 0.930163
O O5 0.241848 0.250000 0.488591
O O6 0.273192 0.135696 0.534102
O O7 0.177281 0.177249 0.169435
O O8 0.149581 0.535917 0.240371
O O9 0.083797 0.422304 0.243843
O O10 0.000000 0.500000 0.500000
O O11 0.000000 0.500000 0.000000
O O12 0.810931 0.905678 0.116138
#
# Coordination Sequence:
#
# PCOD9466419 Si02
#       5
#     8   8   8   8   8
#     4  10  21  43  68  98 140 187 236 297 366 438
#     4  10  23  42  67 101 139 183 242 301 363 441
#     4  12  28  48  76 104 145 194 247 298 366 441
#     4  11  25  42  69 102 140 186 239 304 368 433
#     4  11  25  42  70 101 143 186 244 303 366 436
#
# _framework density 23.339496
#
# number of rings (size 3 to 8) (size 9 to 14) (size 15 to 20)
#    0.000    1.200    2.000    2.400    8.400    4.000 
#    0.000    2.000    0.000    0.000    0.000    0.000 
#    0.000    0.000    0.000    0.000    0.000    0.000 
#
# Total GULP energy -223335.963345 kJ/mol
# GULP energy per Si atom -5583.399084 kJ/mol
# Density = 2.328637 g / cm^3
# Si number density = 23.339496 Si / 1000 Ang^3
#
#
#
# Elastic Constant Matrix: (Units=GPa)
#
#
# Indices 1 2 3 4 5 6 
#
# 1 52.1932 -8.1158 12.5996 0.0000 0.0000 0.0000
# 2 -8.1158 111.2502 10.7861 0.0000 0.0000 0.0000
# 3 12.5996 10.7861 70.9044 0.0000 0.0000 0.0000
# 4 0.0000 0.0000 0.0000 28.0125 0.0000 0.0000
# 5 0.0000 0.0000 0.0000 0.0000 22.1492 0.0000
# 6 0.0000 0.0000 0.0000 0.0000 0.0000 41.7867
#
#
#
# Elastic Compliance Matrix: (Units=1/GPa)
#
#
# Indices 1 2 3 4 5 6 
#
# 1 0.020393 0.001867 -0.003908 0.000000 0.000000 0.000000
# 2 0.001867 0.009294 -0.001746 0.000000 0.000000 0.000000
# 3 -0.003908 -0.001746 0.015063 0.000000 0.000000 0.000000
# 4 0.000000 0.000000 0.000000 0.035698 0.000000 0.000000
# 5 0.000000 0.000000 0.000000 0.000000 0.045148 0.000000
# 6 0.000000 0.000000 0.000000 0.000000 0.000000 0.023931
#
#
# Mechanical properties :
#
#
# Convention : Reuss Voigt Hill
#
# Bulk Modulus (GPa) = 26.89815 29.43195 28.16505
# Shear Modulus (GPa) = 29.49948 32.99486 31.24717
#
# Velocity S-wave (km/s) = 3.55904 3.76399 3.66295
# Velocity P-wave (km/s) = 5.33280 5.61497 5.47570
#
# Compressibility (1/GPa) = 0.03717728
#
# Stress axis : x y z
#
# Youngs Moduli (GPa) = 49.03603 107.59450 66.38585
#
# Poissons Ratio (x) = -0.20083 0.25942
# Poissons Ratio (y) = -0.09153 0.11588
# Poissons Ratio (z) = 0.19162 0.18781
#
# Static dielectric constant tensor:
#      x y z
#    x 1.887000 0.000000 0.000000 
#    y 0.000000 1.884350 0.000000 
#    z 0.000000 0.000000 1.988340 
# 
# From -- ./inp_files/618.got.cif
#   From: 2010.05.17/outbox.cif.g08.bks.cpg/sg62_1_cif.got.tgz:618.got - 2010.06.03 15:25:27.
