data_PCOD9466363
_publ_section_title
;
Structure prediction by ZEFSAII (Michael W. Deem and Ramdas Pophale) SiO2 
 PCOD9466363
Probable space group: P N M A
;
_chemical_formula_sum "Si O2"
_cell_formula_units_Z 64
_cell_length_a 12.949384
_cell_length_b 17.945299
_cell_length_c 11.493825
_cell_angle_alpha 90.000000
_cell_angle_beta 90.000000
_cell_angle_gamma 90.000000
_cell_volume 2670.941579
_symmetry_space_group_name_H-M "P N M A"
_symmetry_group_IT_number 62
_symmetry_cell_setting 'orthorhombic'
loop_
_space_group_symop_operation_xyz
x,y,z
1/2-x,-y,1/2+z
1/2+x,1/2-y,1/2-z
-x,1/2+y,-z
-x,-y,-z
1/2+x,y,1/2-z
1/2-x,1/2+y,1/2+z
x,1/2-y,z
loop_
_atom_site_type_symbol
_atom_site_label
_atom_site_fract_x
_atom_site_fract_y
_atom_site_fract_z
Si Si1 0.969126 0.165287 0.821001
Si Si2 0.743029 0.165721 0.062922
Si Si3 0.619030 0.552928 0.153510
Si Si4 0.533256 0.166456 0.923614
Si Si5 0.165776 0.509227 0.937653
Si Si6 0.915011 0.874622 0.942431
Si Si7 0.532791 0.568231 0.759882
Si Si8 0.289375 0.331470 0.167952
O O1 0.927347 0.250000 0.819464
O O2 0.054446 0.162638 0.715872
O O3 0.887233 0.104931 0.770134
O O4 0.023551 0.150886 0.943803
O O5 0.780113 0.250000 0.034715
O O6 0.633162 0.155667 0.001418
O O7 0.738859 0.161867 0.202929
O O8 0.811553 0.094682 0.029067
O O9 0.729666 0.530258 0.105476
O O10 0.554606 0.477767 0.175490
O O11 0.553776 0.604208 0.065215
O O12 0.493767 0.250000 0.946342
O O13 0.376296 0.105889 0.167666
O O14 0.113832 0.461369 0.038165
O O15 0.804256 0.837587 0.921992
O O16 0.982761 0.870032 0.825919
O O17 0.589855 0.511568 0.672225
O O18 0.337698 0.250000 0.159964
#
# Coordination Sequence:
#
# PCOD9466363 Si02
#       8
#     8   8   8   8   8   8   8   8
#     4   9  20  41  68  98 139 182 222 281 358 418
#     4   9  19  40  65  94 136 181 231 283 344 419
#     4  10  21  41  67  95 136 175 228 286 346 422
#     4   8  17  37  65  94 134 177 221 280 352 419
#     4  11  23  39  67 103 132 178 234 290 340 416
#     4  12  24  44  71 103 143 181 237 291 346 416
#     4  11  23  44  67  93 137 186 223 287 344 412
#     4  10  24  44  67 101 137 183 240 282 338 414
#
# _framework density 23.961587999999999
#
# number of rings (size 3 to 8) (size 9 to 14) (size 15 to 20)
#    0.750    1.250    1.250    2.250    1.750    1.500 
#    4.500    3.125    0.000    0.000    0.000    0.000 
#    0.000    0.000    0.000    0.000    0.000    0.000 
#
# Total GULP energy -357666.934160 kJ/mol
# GULP energy per Si atom -5588.545846 kJ/mol
# Density = 2.390705 g / cm^3
# Si number density = 23.961588 Si / 1000 Ang^3
#
#
#
# Elastic Constant Matrix: (Units=GPa)
#
#
# Indices 1 2 3 4 5 6 
#
# 1 96.0467 19.8508 47.4763 0.0000 0.0000 0.0000
# 2 19.8508 105.9434 20.0255 0.0000 0.0000 0.0000
# 3 47.4763 20.0255 107.9717 0.0000 0.0000 0.0000
# 4 0.0000 0.0000 0.0000 -17.8712 0.0000 0.0000
# 5 0.0000 0.0000 0.0000 0.0000 45.0378 0.0000
# 6 0.0000 0.0000 0.0000 0.0000 0.0000 -54.8082
#
#
#
# Elastic Compliance Matrix: (Units=1/GPa)
#
#
# Indices 1 2 3 4 5 6 
#
# 1 0.013518 -0.001461 -0.005673 0.000000 0.000000 0.000000
# 2 -0.001461 0.009940 -0.001201 0.000000 0.000000 0.000000
# 3 -0.005673 -0.001201 0.011979 0.000000 0.000000 0.000000
# 4 0.000000 0.000000 0.000000 -0.055956 0.000000 0.000000
# 5 0.000000 0.000000 0.000000 0.000000 0.022204 0.000000
# 6 0.000000 0.000000 0.000000 0.000000 0.000000 -0.018245
#
#
# Mechanical properties :
#
#
# Convention : Reuss Voigt Hill
#
# Bulk Modulus (GPa) = 53.28579 53.85189 53.56884
# Shear Modulus (GPa) = 785.69845 9.31227 397.50536
#
# Velocity S-wave (km/s) = 18.12763 1.97352 12.89391
# Velocity P-wave (km/s) = 21.45773 5.26461 15.62291
#
# Compressibility (1/GPa) = 0.01876673
#
# Stress axis : x y z
#
# Youngs Moduli (GPa) = 73.97742 100.60624 83.47973
#
# Poissons Ratio (x) = 0.14694 0.47358
# Poissons Ratio (y) = 0.10805 0.10029
# Poissons Ratio (z) = 0.41967 0.12086
#
# Static dielectric constant tensor:
#      x y z
#    x 1.870000 0.000000 0.000000 
#    y 0.000000 1.943950 0.000000 
#    z 0.000000 0.000000 1.931430 
# 
# From -- ./inp_files/13613.got.cif
#   From: 2010.05.17/outbox.cif.g08.bks.cpg/sg62_7_cif.got.tgz:13613.got - 2010.06.03 15:25:27.
