data_PCOD9466819
_publ_section_title
;
Structure prediction by ZEFSAII (Michael W. Deem and Ramdas Pophale) SiO2 
 PCOD9466819
Probable space group: P N M A
;
_chemical_formula_sum "Si O2"
_cell_formula_units_Z 48
_cell_length_a 13.703762
_cell_length_b 13.150869
_cell_length_c 11.326232
_cell_angle_alpha 90.000000
_cell_angle_beta 90.000000
_cell_angle_gamma 90.000000
_cell_volume 2041.172517
_symmetry_space_group_name_H-M "P N M A"
_symmetry_group_IT_number 62
_symmetry_cell_setting 'orthorhombic'
loop_
_space_group_symop_operation_xyz
x,y,z
1/2-x,-y,1/2+z
1/2+x,1/2-y,1/2-z
-x,1/2+y,-z
-x,-y,-z
1/2+x,y,1/2-z
1/2-x,1/2+y,1/2+z
x,1/2-y,z
loop_
_atom_site_type_symbol
_atom_site_label
_atom_site_fract_x
_atom_site_fract_y
_atom_site_fract_z
Si Si1 0.930331 0.455327 0.898713
Si Si2 0.100840 0.576890 0.663752
Si Si3 0.294493 0.073029 0.404006
Si Si4 0.984281 0.863616 0.324919
Si Si5 0.199980 0.862809 0.439302
Si Si6 0.105770 0.360960 0.279635
O O1 0.989859 0.381419 0.812964
O O2 0.894160 0.547727 0.815115
O O3 0.841141 0.405126 0.969379
O O4 0.000000 0.500000 0.000000
O O5 0.130473 0.595046 0.798701
O O6 0.180944 0.623322 0.578427
O O7 0.085404 0.456834 0.639773
O O8 0.994979 0.626470 0.648749
O O9 0.195103 0.127533 0.368853
O O10 0.269340 0.952827 0.398749
O O11 0.948278 0.750000 0.347869
O O12 0.090870 0.876029 0.385989
O O13 0.234813 0.750000 0.410318
O O14 0.107934 0.250000 0.222478
#
# Coordination Sequence:
#
# PCOD9466819 Si02
#       6
#     8   8   8   8   8   8
#     4  11  22  45  66  95 141 182 217 286 340 401
#     4  11  23  46  69  96 141 180 226 291 340 402
#     4  12  24  42  70 100 136 177 228 285 343 405
#     4  10  22  42  68  98 132 177 223 274 345 409
#     4  11  24  43  70 100 133 176 228 282 343 409
#     4  11  25  45  70 103 135 182 237 277 342 414
#
# _framework density 23.515896000000001
#
# number of rings (size 3 to 8) (size 9 to 14) (size 15 to 20)
#    0.000    1.000    6.667    2.000    0.000    5.333 
#    0.000    0.000    0.000    0.000    0.000    0.000 
#    0.000    0.000    0.000    0.000    0.000    0.000 
#
# Total GULP energy -268725.011083 kJ/mol
# GULP energy per Si atom -5598.437731 kJ/mol
# Density = 2.346237 g / cm^3
# Si number density = 23.515896 Si / 1000 Ang^3
#
#
#
# Elastic Constant Matrix: (Units=GPa)
#
#
# Indices 1 2 3 4 5 6 
#
# 1 71.5551 0.0057 -3.3858 0.0000 0.0000 0.0000
# 2 0.0057 91.3621 -5.7879 0.0000 0.0000 0.0000
# 3 -3.3858 -5.7879 63.9679 0.0000 0.0000 0.0000
# 4 0.0000 0.0000 0.0000 8.5318 0.0000 0.0000
# 5 0.0000 0.0000 0.0000 0.0000 29.6052 0.0000
# 6 0.0000 0.0000 0.0000 0.0000 0.0000 -6.2138
#
#
#
# Elastic Compliance Matrix: (Units=1/GPa)
#
#
# Indices 1 2 3 4 5 6 
#
# 1 0.014011 0.000046 0.000746 0.000000 0.000000 0.000000
# 2 0.000046 0.011009 0.000999 0.000000 0.000000 0.000000
# 3 0.000746 0.000999 0.015763 0.000000 0.000000 0.000000
# 4 0.000000 0.000000 0.000000 0.117209 0.000000 0.000000
# 5 0.000000 0.000000 0.000000 0.000000 0.033778 0.000000
# 6 0.000000 0.000000 0.000000 0.000000 0.000000 -0.160933
#
#
# Mechanical properties :
#
#
# Convention : Reuss Voigt Hill
#
# Bulk Modulus (GPa) = 22.54119 23.17214 22.85666
# Shear Modulus (GPa) = 118.92785 22.12151 70.52468
#
# Velocity S-wave (km/s) = 7.11921 3.07042 5.48227
# Velocity P-wave (km/s) = 8.78544 4.73763 7.05794
#
# Compressibility (1/GPa) = 0.04436323
#
# Stress axis : x y z
#
# Youngs Moduli (GPa) = 71.37492 90.83714 63.44110
#
# Poissons Ratio (x) = -0.00421 -0.04731
# Poissons Ratio (y) = -0.00331 -0.06335
# Poissons Ratio (z) = -0.05323 -0.09070
#
# Static dielectric constant tensor:
#      x y z
#    x 1.897350 0.000000 0.000000 
#    y 0.000000 1.878070 0.000000 
#    z 0.000000 0.000000 1.901670 
# 
# From -- ./inp_files/13291.got.cif
#   From: 2010.05.17/outbox.cif.g08.bks.cpg/sg62_7_cif.got.tgz:13291.got - 2010.06.03 15:25:27.
