data_PCOD9466969
_publ_section_title
;
Structure prediction by ZEFSAII (Michael W. Deem and Ramdas Pophale) SiO2 
 PCOD9466969
Probable space group: P N M A
;
_chemical_formula_sum "Si O2"
_cell_formula_units_Z 56
_cell_length_a 20.612784
_cell_length_b 7.841969
_cell_length_c 14.735237
_cell_angle_alpha 90.000000
_cell_angle_beta 90.000000
_cell_angle_gamma 90.000000
_cell_volume 2381.874631
_symmetry_space_group_name_H-M "P N M A"
_symmetry_group_IT_number 62
_symmetry_cell_setting 'orthorhombic'
loop_
_space_group_symop_operation_xyz
x,y,z
1/2-x,-y,1/2+z
1/2+x,1/2-y,1/2-z
-x,1/2+y,-z
-x,-y,-z
1/2+x,y,1/2-z
1/2-x,1/2+y,1/2+z
x,1/2-y,z
loop_
_atom_site_type_symbol
_atom_site_label
_atom_site_fract_x
_atom_site_fract_y
_atom_site_fract_z
Si Si1 0.356818 0.554589 0.614594
Si Si2 0.665875 0.947771 0.101530
Si Si3 0.481531 0.960188 0.709451
Si Si4 0.521061 0.441393 0.098411
Si Si5 0.786533 0.945295 0.407204
Si Si6 0.205672 0.042260 0.794407
Si Si7 0.909394 0.050145 0.072050
O O1 0.338818 0.750000 0.635145
O O2 0.407915 0.487821 0.687880
O O3 0.291424 0.450755 0.601212
O O4 0.395535 0.548747 0.519912
O O5 0.651826 0.750000 0.121288
O O6 0.722955 0.008120 0.168929
O O7 0.598914 0.048860 0.104958
O O8 0.692495 0.959832 0.998177
O O9 0.481450 0.750000 0.709185
O O10 0.503019 0.025684 0.808154
O O11 0.529640 0.013716 0.629985
O O12 0.496908 0.250000 0.103556
O O13 0.500000 0.500000 0.000000
O O14 0.808633 0.750000 0.417007
O O15 0.808624 0.012516 0.308828
O O16 0.204030 0.250000 0.796831
O O17 0.152833 0.971154 0.863197
O O18 0.918202 0.250000 0.050482
#
# Coordination Sequence:
#
# PCOD9466969 Si02
#       7
#     8   8   8   8   8   8   8
#     4  11  21  39  63  91 126 164 204 253 314 371
#     4  11  23  42  65  91 125 165 204 253 313 369
#     4   9  22  41  62  89 123 164 207 254 311 372
#     4  11  24  44  66  92 125 163 212 262 310 371
#     4  11  23  39  62  93 125 160 206 256 307 369
#     4  10  23  41  61  90 127 162 205 258 312 369
#     4  11  22  38  62  92 124 162 208 254 307 372
#
# _framework density 23.510892999999999
#
# number of rings (size 3 to 8) (size 9 to 14) (size 15 to 20)
#    0.000    1.429    1.429    3.429    2.000    1.714 
#    0.000    6.429    0.000    0.000    0.000    0.000 
#    0.000    0.000    0.000    0.000    0.000    0.000 
#
# Total GULP energy -313280.790016 kJ/mol
# GULP energy per Si atom -5594.299822 kJ/mol
# Density = 2.345738 g / cm^3
# Si number density = 23.510893 Si / 1000 Ang^3
#
#
#
# Elastic Constant Matrix: (Units=GPa)
#
#
# Indices 1 2 3 4 5 6 
#
# 1 37.8927 -17.1711 -9.4550 0.0000 0.0000 0.0000
# 2 -17.1711 42.2103 -2.5527 0.0000 0.0000 0.0000
# 3 -9.4550 -2.5527 107.7620 0.0000 0.0000 0.0000
# 4 0.0000 0.0000 0.0000 9.9454 0.0000 0.0000
# 5 0.0000 0.0000 0.0000 0.0000 34.5953 0.0000
# 6 0.0000 0.0000 0.0000 0.0000 0.0000 17.3545
#
#
#
# Elastic Compliance Matrix: (Units=1/GPa)
#
#
# Indices 1 2 3 4 5 6 
#
# 1 0.033462 0.013810 0.003263 0.000000 0.000000 0.000000
# 2 0.013810 0.029424 0.001909 0.000000 0.000000 0.000000
# 3 0.003263 0.001909 0.009611 0.000000 0.000000 0.000000
# 4 0.000000 0.000000 0.000000 0.100549 0.000000 0.000000
# 5 0.000000 0.000000 0.000000 0.000000 0.028906 0.000000
# 6 0.000000 0.000000 0.000000 0.000000 0.000000 0.057622
#
#
# Mechanical properties :
#
#
# Convention : Reuss Voigt Hill
#
# Bulk Modulus (GPa) = 9.05299 14.38973 11.72136
# Shear Modulus (GPa) = 19.34752 26.84863 23.09807
#
# Velocity S-wave (km/s) = 2.87177 3.38296 3.13779
# Velocity P-wave (km/s) = 3.85421 4.62526 4.25723
#
# Compressibility (1/GPa) = 0.11046079
#
# Stress axis : x y z
#
# Youngs Moduli (GPa) = 29.88429 33.98575 104.04499
#
# Poissons Ratio (x) = -0.46934 -0.33951
# Poissons Ratio (y) = -0.41270 -0.19859
# Poissons Ratio (z) = -0.09752 -0.06487
#
# Static dielectric constant tensor:
#      x y z
#    x 1.866230 0.000000 0.000000 
#    y 0.000000 1.855930 0.000000 
#    z 0.000000 0.000000 1.909690 
# 
# From -- ./inp_files/20262.got.cif
#   From: 2010.05.17/outbox.cif.g08.bks.cpg/sg62_11_cif.got.tgz:20262.got - 2010.06.03 15:25:27.
