data_PCOD9466014
_publ_section_title
;
Structure prediction by ZEFSAII (Michael W. Deem and Ramdas Pophale) SiO2 
 PCOD9466014
Probable space group: P N M A
;
_chemical_formula_sum "Si O2"
_cell_formula_units_Z 48
_cell_length_a 14.785112
_cell_length_b 25.542688
_cell_length_c 5.119453
_cell_angle_alpha 90.000000
_cell_angle_beta 90.000000
_cell_angle_gamma 90.000000
_cell_volume 1933.369119
_symmetry_space_group_name_H-M "P N M A"
_symmetry_group_IT_number 62
_symmetry_cell_setting 'orthorhombic'
loop_
_space_group_symop_operation_xyz
x,y,z
1/2-x,-y,1/2+z
1/2+x,1/2-y,1/2-z
-x,1/2+y,-z
-x,-y,-z
1/2+x,y,1/2-z
1/2-x,1/2+y,1/2+z
x,1/2-y,z
loop_
_atom_site_type_symbol
_atom_site_label
_atom_site_fract_x
_atom_site_fract_y
_atom_site_fract_z
Si Si1 0.462281 0.306499 0.722076
Si Si2 0.655432 0.189784 0.929282
Si Si3 0.590651 0.091326 0.285914
Si Si4 0.907368 0.364011 0.267327
Si Si5 0.194169 0.992762 0.371335
Si Si6 0.755882 0.115009 0.594261
O O1 0.431028 0.250000 0.814433
O O2 0.571064 0.306375 0.727547
O O3 0.425533 0.318589 0.437937
O O4 0.432603 0.347428 0.938538
O O5 0.669393 0.250000 0.027823
O O6 0.739814 0.165822 0.770022
O O7 0.620777 0.144834 0.132036
O O8 0.482730 0.093876 0.318275
O O9 0.654241 0.093368 0.542391
O O10 0.617900 0.036661 0.151130
O O11 0.802449 0.375052 0.313625
O O12 0.271684 0.010418 0.167974
O O13 0.183861 0.932074 0.287229
#
# Coordination Sequence:
#
# PCOD9466014 Si02
#       6
#     8   8   8   8   8   8
#     4  10  22  42  61  86 126 170 210 257 317 376
#     4  10  21  39  64  90 124 168 212 262 318 383
#     4  10  22  43  63  91 133 167 214 260 325 375
#     4  11  24  38  65  92 126 166 211 266 313 379
#     4  10  21  38  68  90 126 171 208 263 317 378
#     4  11  23  40  63  96 127 164 222 257 321 379
#
# _framework density 24.827127999999998
#
# number of rings (size 3 to 8) (size 9 to 14) (size 15 to 20)
#    0.000    1.667    3.333    0.500    2.333    3.333 
#    0.000    0.000    0.000    8.000    0.000    0.000 
#    0.000    0.000    0.000    0.000    0.000    0.000 
#
# Total GULP energy -267748.912888 kJ/mol
# GULP energy per Si atom -5578.102352 kJ/mol
# Density = 2.477062 g / cm^3
# Si number density = 24.827128 Si / 1000 Ang^3
#
#
#
# Elastic Constant Matrix: (Units=GPa)
#
#
# Indices 1 2 3 4 5 6 
#
# 1 79.1299 6.3846 14.1650 0.0000 0.0000 0.0000
# 2 6.3846 117.6107 16.9983 0.0000 0.0000 0.0000
# 3 14.1650 16.9983 62.7787 0.0000 0.0000 0.0000
# 4 0.0000 0.0000 0.0000 23.4167 0.0000 0.0000
# 5 0.0000 0.0000 0.0000 0.0000 38.1684 0.0000
# 6 0.0000 0.0000 0.0000 0.0000 0.0000 21.2824
#
#
#
# Elastic Compliance Matrix: (Units=1/GPa)
#
#
# Indices 1 2 3 4 5 6 
#
# 1 0.013179 -0.000297 -0.002893 0.000000 0.000000 0.000000
# 2 -0.000297 0.008856 -0.002331 0.000000 0.000000 0.000000
# 3 -0.002893 -0.002331 0.017213 0.000000 0.000000 0.000000
# 4 0.000000 0.000000 0.000000 0.042705 0.000000 0.000000
# 5 0.000000 0.000000 0.000000 0.000000 0.026200 0.000000
# 6 0.000000 0.000000 0.000000 0.000000 0.000000 0.046987
#
#
# Mechanical properties :
#
#
# Convention : Reuss Voigt Hill
#
# Bulk Modulus (GPa) = 35.45423 37.17946 36.31684
# Shear Modulus (GPa) = 28.47648 31.37158 29.92403
#
# Velocity S-wave (km/s) = 3.39040 3.55857 3.47550
# Velocity P-wave (km/s) = 5.44407 5.64734 5.54663
#
# Compressibility (1/GPa) = 0.02820538
#
# Stress axis : x y z
#
# Youngs Moduli (GPa) = 75.87627 112.92252 58.09611
#
# Poissons Ratio (x) = 0.03357 0.16808
# Poissons Ratio (y) = 0.02256 0.13541
# Poissons Ratio (z) = 0.21953 0.26319
#
# Static dielectric constant tensor:
#      x y z
#    x 2.079200 0.000000 0.000000 
#    y 0.000000 2.075800 0.000000 
#    z 0.000000 0.000000 1.954950 
# 
# From -- ./inp_files/1133.got.cif
#   From: 2010.05.17/outbox.cif.g08.bks.cpg/sg62_1_cif.got.tgz:1133.got - 2010.06.03 15:25:27.
