data_PCOD9466202
_publ_section_title
;
Structure prediction by ZEFSAII (Michael W. Deem and Ramdas Pophale) SiO2 
 PCOD9466202
Probable space group: P N M A
;
_chemical_formula_sum "Si O2"
_cell_formula_units_Z 56
_cell_length_a 21.161125
_cell_length_b 7.703444
_cell_length_c 14.876049
_cell_angle_alpha 90.000000
_cell_angle_beta 90.000000
_cell_angle_gamma 90.000000
_cell_volume 2424.997430
_symmetry_space_group_name_H-M "P N M A"
_symmetry_group_IT_number 62
_symmetry_cell_setting 'orthorhombic'
loop_
_space_group_symop_operation_xyz
x,y,z
1/2-x,-y,1/2+z
1/2+x,1/2-y,1/2-z
-x,1/2+y,-z
-x,-y,-z
1/2+x,y,1/2-z
1/2-x,1/2+y,1/2+z
x,1/2-y,z
loop_
_atom_site_type_symbol
_atom_site_label
_atom_site_fract_x
_atom_site_fract_y
_atom_site_fract_z
Si Si1 0.776495 0.049480 0.606957
Si Si2 0.489855 0.462710 0.286361
Si Si3 0.176250 0.538883 0.585418
Si Si4 0.295360 0.044745 0.697831
Si Si5 0.092472 0.049665 0.071681
Si Si6 0.865763 0.051981 0.119670
Si Si7 0.031905 0.958057 0.594177
O O1 0.796869 0.250000 0.605866
O O2 0.798629 0.974974 0.511882
O O3 0.801720 0.974111 0.700799
O O4 0.700582 0.043746 0.612694
O O5 0.491634 0.250000 0.289733
O O6 0.538886 0.521971 0.361819
O O7 0.418872 0.515792 0.312779
O O8 0.503489 0.519235 0.184517
O O9 0.177876 0.750000 0.586549
O O10 0.224254 0.479201 0.662150
O O11 0.104344 0.480708 0.596632
O O12 0.309326 0.250000 0.697581
O O13 0.342660 0.957432 0.627921
O O14 0.077989 0.250000 0.049405
O O15 0.102155 0.952152 0.978549
O O16 0.850882 0.250000 0.145326
O O17 0.034222 0.750000 0.600196
O O18 0.000000 0.000000 0.500000
#
# Coordination Sequence:
#
# PCOD9466202 Si02
#       7
#     8   8   8   8   8   8   8
#     4  10  22  38  58  86 122 157 192 240 299 356
#     4   9  21  39  59  85 119 158 200 242 293 356
#     4  10  21  40  63  85 119 162 195 240 304 356
#     4  11  23  38  59  90 122 154 201 251 291 353
#     4  11  22  38  59  85 121 160 195 244 304 355
#     4  11  21  38  63  91 118 153 200 247 295 355
#     4  10  22  41  63  88 119 158 202 246 292 353
#
# _framework density 23.092808999999999
#
# number of rings (size 3 to 8) (size 9 to 14) (size 15 to 20)
#    0.000    1.714    1.429    2.571    2.000    2.857 
#    0.000    4.286    0.000    0.000    0.000    0.000 
#    0.000    0.000    0.000    0.000    0.000    0.000 
#
# Total GULP energy -313167.887250 kJ/mol
# GULP energy per Si atom -5592.283701 kJ/mol
# Density = 2.304025 g / cm^3
# Si number density = 23.092809 Si / 1000 Ang^3
#
#
#
# Elastic Constant Matrix: (Units=GPa)
#
#
# Indices 1 2 3 4 5 6 
#
# 1 47.2571 -10.8949 -2.9813 0.0000 0.0000 0.0000
# 2 -10.8949 46.3516 -6.2488 0.0000 0.0000 0.0000
# 3 -2.9813 -6.2488 120.2507 0.0000 0.0000 0.0000
# 4 0.0000 0.0000 0.0000 1.8641 0.0000 0.0000
# 5 0.0000 0.0000 0.0000 0.0000 24.4596 0.0000
# 6 0.0000 0.0000 0.0000 0.0000 0.0000 13.7021
#
#
#
# Elastic Compliance Matrix: (Units=1/GPa)
#
#
# Indices 1 2 3 4 5 6 
#
# 1 0.022457 0.005391 0.000837 0.000000 0.000000 0.000000
# 2 0.005391 0.023021 0.001330 0.000000 0.000000 0.000000
# 3 0.000837 0.001330 0.008406 0.000000 0.000000 0.000000
# 4 0.000000 0.000000 0.000000 0.536447 0.000000 0.000000
# 5 0.000000 0.000000 0.000000 0.000000 0.040884 0.000000
# 6 0.000000 0.000000 0.000000 0.000000 0.000000 0.072981
#
#
# Mechanical properties :
#
#
# Convention : Reuss Voigt Hill
#
# Bulk Modulus (GPa) = 14.49295 19.28996 16.89146
# Shear Modulus (GPa) = 7.02169 23.60413 15.31291
#
# Velocity S-wave (km/s) = 1.74564 3.20056 2.57787
# Velocity P-wave (km/s) = 3.21754 4.69356 4.02381
#
# Compressibility (1/GPa) = 0.06899905
#
# Stress axis : x y z
#
# Youngs Moduli (GPa) = 44.53049 43.43915 118.96521
#
# Poissons Ratio (x) = -0.23419 -0.09956
# Poissons Ratio (y) = -0.24007 -0.15821
# Poissons Ratio (z) = -0.03727 -0.05777
#
# Static dielectric constant tensor:
#      x y z
#    x 1.833330 0.000000 0.000000 
#    y 0.000000 1.855630 0.000000 
#    z 0.000000 0.000000 1.870190 
# 
# From -- ./inp_files/20388.got.cif
#   From: 2010.05.17/outbox.cif.g08.bks.cpg/sg62_11_cif.got.tgz:20388.got - 2010.06.03 15:25:27.
