data_PCOD9466020
_publ_section_title
;
Structure prediction by ZEFSAII (Michael W. Deem and Ramdas Pophale) SiO2 
 PCOD9466020
Probable space group: P N M A
;
_chemical_formula_sum "Si O2"
_cell_formula_units_Z 64
_cell_length_a 17.862745
_cell_length_b 8.600669
_cell_length_c 22.427118
_cell_angle_alpha 90.000000
_cell_angle_beta 90.000000
_cell_angle_gamma 90.000000
_cell_volume 3445.513061
_symmetry_space_group_name_H-M "P N M A"
_symmetry_group_IT_number 62
_symmetry_cell_setting 'orthorhombic'
loop_
_space_group_symop_operation_xyz
x,y,z
1/2-x,-y,1/2+z
1/2+x,1/2-y,1/2-z
-x,1/2+y,-z
-x,-y,-z
1/2+x,y,1/2-z
1/2-x,1/2+y,1/2+z
x,1/2-y,z
loop_
_atom_site_type_symbol
_atom_site_label
_atom_site_fract_x
_atom_site_fract_y
_atom_site_fract_z
Si Si1 0.163303 0.936479 0.220976
Si Si2 0.927172 0.562791 0.427809
Si Si3 0.638068 0.064950 0.472223
Si Si4 0.965546 0.436637 0.867031
Si Si5 0.124881 0.563345 0.894321
Si Si6 0.734183 0.062587 0.890849
Si Si7 0.285533 0.937362 0.847254
Si Si8 0.084685 0.062991 0.434299
O O1 0.162451 0.750000 0.228150
O O2 0.084697 0.982914 0.190177
O O3 0.225663 0.975531 0.171186
O O4 0.184031 0.011614 0.283318
O O5 0.933280 0.750000 0.426606
O O6 0.852514 0.517334 0.392745
O O7 0.914171 0.512803 0.496631
O O8 0.005883 0.493147 0.407554
O O9 0.633309 0.250000 0.477180
O O10 0.575532 0.005119 0.425544
O O11 0.627970 0.989426 0.536810
O O12 0.717130 0.014234 0.443195
O O13 0.962796 0.250000 0.871604
O O14 0.050217 0.493999 0.865325
O O15 0.121197 0.750000 0.892206
O O16 0.201357 0.509988 0.862147
O O17 0.738862 0.250000 0.899236
O O18 0.284619 0.750000 0.849631
O O19 0.344008 0.993479 0.897452
O O20 0.085800 0.250000 0.434209
#
# Coordination Sequence:
#
# PCOD9466020 Si02
#       8
#     8   8   8   8   8   8   8   8
#     4   9  20  38  58  77 104 142 184 228 272 321
#     4   9  17  32  55  80 107 138 176 220 270 326
#     4  11  21  33  55  87 118 148 180 223 276 330
#     4  10  21  39  59  82 112 147 184 227 275 327
#     4  11  22  37  57  83 113 147 184 226 276 331
#     4   9  18  35  56  79 109 146 184 225 273 325
#     4  10  22  39  57  77 108 148 185 226 276 325
#     4   9  18  33  52  77 108 140 173 218 271 324
#
# _framework density 18.574884000000001
#
# number of rings (size 3 to 8) (size 9 to 14) (size 15 to 20)
#    0.000    2.250    0.000    3.750    0.000    6.500 
#    2.250    2.500    0.000    0.000    0.000    0.000 
#    0.000    0.000    0.000    0.000    0.000    0.000 
#
# Total GULP energy -357260.007264 kJ/mol
# GULP energy per Si atom -5582.187614 kJ/mol
# Density = 1.853261 g / cm^3
# Si number density = 18.574884 Si / 1000 Ang^3
#
#
#
# Elastic Constant Matrix: (Units=GPa)
#
#
# Indices 1 2 3 4 5 6 
#
# 1 134.4214 8.6069 38.5692 0.0000 0.0000 0.0000
# 2 8.6069 18.7421 4.7914 0.0000 0.0000 0.0000
# 3 38.5692 4.7914 63.0648 0.0000 0.0000 0.0000
# 4 0.0000 0.0000 0.0000 28.0867 0.0000 0.0000
# 5 0.0000 0.0000 0.0000 0.0000 5.8329 0.0000
# 6 0.0000 0.0000 0.0000 0.0000 0.0000 31.5329
#
#
#
# Elastic Compliance Matrix: (Units=1/GPa)
#
#
# Indices 1 2 3 4 5 6 
#
# 1 0.009168 -0.002832 -0.005392 0.000000 0.000000 0.000000
# 2 -0.002832 0.055287 -0.002469 0.000000 0.000000 0.000000
# 3 -0.005392 -0.002469 0.019342 0.000000 0.000000 0.000000
# 4 0.000000 0.000000 0.000000 0.035604 0.000000 0.000000
# 5 0.000000 0.000000 0.000000 0.000000 0.171443 0.000000
# 6 0.000000 0.000000 0.000000 0.000000 0.000000 0.031713
#
#
# Mechanical properties :
#
#
# Convention : Reuss Voigt Hill
#
# Bulk Modulus (GPa) = 16.02241 35.57371 25.79806
# Shear Modulus (GPa) = 13.70825 24.04123 18.87474
#
# Velocity S-wave (km/s) = 2.71956 3.60152 3.19116
# Velocity P-wave (km/s) = 4.30185 6.04051 5.24374
#
# Compressibility (1/GPa) = 0.06241258
#
# Stress axis : x y z
#
# Youngs Moduli (GPa) = 109.07992 18.08736 51.70193
#
# Poissons Ratio (x) = 0.05122 0.27875
# Poissons Ratio (y) = 0.30888 0.12764
# Poissons Ratio (z) = 0.58811 0.04465
#
# Static dielectric constant tensor:
#      x y z
#    x 1.652570 0.000000 0.000000 
#    y 0.000000 1.633630 0.000000 
#    z 0.000000 0.000000 1.615640 
# 
# From -- ./inp_files/27694.got.cif
#   From: 2010.05.17/outbox.cif.g08.bks.cpg/sg62_14_cif.got.tgz:27694.got - 2010.06.03 15:25:27.
