data_PCOD9466531
_publ_section_title
;
Structure prediction by ZEFSAII (Michael W. Deem and Ramdas Pophale) SiO2 
 PCOD9466531
Probable space group: P N M A
;
_chemical_formula_sum "Si O2"
_cell_formula_units_Z 40
_cell_length_a 11.247208
_cell_length_b 12.767081
_cell_length_c 13.960801
_cell_angle_alpha 90.000000
_cell_angle_beta 90.000000
_cell_angle_gamma 90.000000
_cell_volume 2004.687476
_symmetry_space_group_name_H-M "P N M A"
_symmetry_group_IT_number 62
_symmetry_cell_setting 'orthorhombic'
loop_
_space_group_symop_operation_xyz
x,y,z
1/2-x,-y,1/2+z
1/2+x,1/2-y,1/2-z
-x,1/2+y,-z
-x,-y,-z
1/2+x,y,1/2-z
1/2-x,1/2+y,1/2+z
x,1/2-y,z
loop_
_atom_site_type_symbol
_atom_site_label
_atom_site_fract_x
_atom_site_fract_y
_atom_site_fract_z
Si Si1 0.232827 0.250000 0.765337
Si Si2 0.017175 0.750000 0.328492
Si Si3 0.428134 0.126139 0.414737
Si Si4 0.603463 0.948971 0.058932
Si Si5 0.680427 0.477652 0.426852
Si Si6 0.766889 0.987899 0.211685
O O1 0.376870 0.250000 0.746356
O O2 0.211716 0.364404 0.813458
O O3 0.121879 0.250000 0.693502
O O4 0.048013 0.650352 0.390557
O O5 0.407821 0.250000 0.407447
O O6 0.567461 0.098353 0.418988
O O7 0.373165 0.060592 0.325296
O O8 0.366475 0.076766 0.510236
O O9 0.655753 0.019493 0.144946
O O10 0.712902 0.928234 0.987895
O O11 0.500000 0.000000 0.000000
O O12 0.731579 0.506468 0.322471
#
# Coordination Sequence:
#
# PCOD9466531 Si02
#       6
#     4   4   8   8   8   8
#     4  10  22  38  68 104 132 166 230 286 356 406
#     4  10  22  40  66 100 128 180 218 290 344 406
#     4  10  24  45  66  98 136 182 227 279 348 411
#     4  10  22  42  61  95 134 167 219 280 341 398
#     4  10  23  42  68  96 134 178 229 279 333 419
#     4  10  23  42  68 101 129 177 227 284 342 413
#
# _framework density 19.953233999999998
#
# number of rings (size 3 to 8) (size 9 to 14) (size 15 to 20)
#    0.000    2.000    0.000    1.200   11.200    0.800 
#   18.000    0.000    0.000    0.000    0.000    0.000 
#    0.000    0.000    0.000    0.000    0.000    0.000 
#
# Total GULP energy -222847.387697 kJ/mol
# GULP energy per Si atom -5571.184692 kJ/mol
# Density = 1.990782 g / cm^3
# Si number density = 19.953234 Si / 1000 Ang^3
#
#
#
# Elastic Constant Matrix: (Units=GPa)
#
#
# Indices 1 2 3 4 5 6 
#
# 1 108.8818 25.4615 66.6530 0.0000 0.0000 0.0000
# 2 25.4615 87.5222 25.7961 0.0000 0.0000 0.0000
# 3 66.6530 25.7961 133.8726 0.0000 0.0000 0.0000
# 4 0.0000 0.0000 0.0000 22.4078 0.0000 0.0000
# 5 0.0000 0.0000 0.0000 0.0000 42.7665 0.0000
# 6 0.0000 0.0000 0.0000 0.0000 0.0000 22.0468
#
#
#
# Elastic Compliance Matrix: (Units=1/GPa)
#
#
# Indices 1 2 3 4 5 6 
#
# 1 0.013556 -0.002072 -0.006350 0.000000 0.000000 0.000000
# 2 -0.002072 0.012430 -0.001364 0.000000 0.000000 0.000000
# 3 -0.006350 -0.001364 0.010894 0.000000 0.000000 0.000000
# 4 0.000000 0.000000 0.000000 0.044627 0.000000 0.000000
# 5 0.000000 0.000000 0.000000 0.000000 0.023383 0.000000
# 6 0.000000 0.000000 0.000000 0.000000 0.000000 0.045358
#
#
# Mechanical properties :
#
#
# Convention : Reuss Voigt Hill
#
# Bulk Modulus (GPa) = 57.77292 62.89974 60.33633
# Shear Modulus (GPa) = 28.47545 31.60196 30.03871
#
# Velocity S-wave (km/s) = 3.78181 3.98402 3.88423
# Velocity P-wave (km/s) = 6.93444 7.26328 7.10076
#
# Compressibility (1/GPa) = 0.01730915
#
# Stress axis : x y z
#
# Youngs Moduli (GPa) = 73.76771 80.44817 91.79246
#
# Poissons Ratio (x) = 0.16669 0.58289
# Poissons Ratio (y) = 0.15285 0.12517
# Poissons Ratio (z) = 0.46843 0.10970
#
# Static dielectric constant tensor:
#      x y z
#    x 1.761500 0.000000 0.000000 
#    y 0.000000 1.660750 0.000000 
#    z 0.000000 0.000000 1.747820 
# 
# From -- ./inp_files/17826.got.cif
#   From: 2010.05.17/outbox.cif.g08.bks.cpg/sg62_9_cif.got.tgz:17826.got - 2010.06.03 15:25:27.
