data_PCOD9466214
_publ_section_title
;
Structure prediction by ZEFSAII (Michael W. Deem and Ramdas Pophale) SiO2 
 PCOD9466214
Probable space group: P N M A
;
_chemical_formula_sum "Si O2"
_cell_formula_units_Z 56
_cell_length_a 9.411923
_cell_length_b 13.055377
_cell_length_c 21.565999
_cell_angle_alpha 90.000000
_cell_angle_beta 90.000000
_cell_angle_gamma 90.000000
_cell_volume 2649.948072
_symmetry_space_group_name_H-M "P N M A"
_symmetry_group_IT_number 62
_symmetry_cell_setting 'orthorhombic'
loop_
_space_group_symop_operation_xyz
x,y,z
1/2-x,-y,1/2+z
1/2+x,1/2-y,1/2-z
-x,1/2+y,-z
-x,-y,-z
1/2+x,y,1/2-z
1/2-x,1/2+y,1/2+z
x,1/2-y,z
loop_
_atom_site_type_symbol
_atom_site_label
_atom_site_fract_x
_atom_site_fract_y
_atom_site_fract_z
Si Si1 0.859034 0.531072 0.535127
Si Si2 0.156123 0.129740 0.690539
Si Si3 0.886657 0.870550 0.016474
Si Si4 0.027304 0.366740 0.127845
Si Si5 0.305098 0.632959 0.845624
Si Si6 0.401669 0.485071 0.741445
Si Si7 0.190701 0.631476 0.067975
O O1 0.747472 0.437202 0.537174
O O2 0.894582 0.576807 0.601553
O O3 0.776120 0.616038 0.495180
O O4 0.000000 0.500000 0.500000
O O5 0.115355 0.250000 0.688913
O O6 0.038258 0.058996 0.722801
O O7 0.300083 0.111188 0.728972
O O8 0.206184 0.091571 0.622274
O O9 0.863733 0.750000 0.028227
O O10 0.914402 0.880728 0.942208
O O11 0.029463 0.903686 0.053491
O O12 0.069970 0.250000 0.147219
O O13 0.856091 0.368074 0.129145
O O14 0.068856 0.453413 0.177594
O O15 0.348558 0.750000 0.835624
O O16 0.321078 0.566750 0.784316
O O17 0.173211 0.750000 0.083846
#
# Coordination Sequence:
#
# PCOD9466214 Si02
#       7
#     8   8   8   8   8   8   8
#     4  12  24  39  62  97 134 169 206 264 335 396
#     4  11  25  41  64  93 129 174 221 274 330 392
#     4  10  22  41  69  98 127 169 222 269 322 395
#     4  10  21  41  69 100 130 168 222 275 323 391
#     4  11  24  42  66  97 130 172 217 271 332 387
#     4  12  23  44  64  95 132 175 222 269 332 392
#     4  10  21  40  63  89 121 165 217 270 323 384
#
# _framework density 21.132489
#
# number of rings (size 3 to 8) (size 9 to 14) (size 15 to 20)
#    0.000    1.143    2.857    3.429    2.000    1.143 
#    0.000    2.857    0.000    0.000    0.000    0.000 
#    0.000    0.000    0.000    0.000    0.000    0.000 
#
# Total GULP energy -312724.714718 kJ/mol
# GULP energy per Si atom -5584.369906 kJ/mol
# Density = 2.108439 g / cm^3
# Si number density = 21.132489 Si / 1000 Ang^3
#
#
#
# Elastic Constant Matrix: (Units=GPa)
#
#
# Indices 1 2 3 4 5 6 
#
# 1 51.9020 10.6350 -8.1073 0.0000 0.0000 0.0000
# 2 10.6350 95.3286 25.3818 0.0000 0.0000 0.0000
# 3 -8.1073 25.3818 69.5129 0.0000 0.0000 0.0000
# 4 0.0000 0.0000 0.0000 28.7368 0.0000 0.0000
# 5 0.0000 0.0000 0.0000 0.0000 19.6711 0.0000
# 6 0.0000 0.0000 0.0000 0.0000 0.0000 17.4275
#
#
#
# Elastic Compliance Matrix: (Units=1/GPa)
#
#
# Indices 1 2 3 4 5 6 
#
# 1 0.020488 -0.003237 0.003571 0.000000 0.000000 0.000000
# 2 -0.003237 0.012131 -0.004807 0.000000 0.000000 0.000000
# 3 0.003571 -0.004807 0.016558 0.000000 0.000000 0.000000
# 4 0.000000 0.000000 0.000000 0.034799 0.000000 0.000000
# 5 0.000000 0.000000 0.000000 0.000000 0.050836 0.000000
# 6 0.000000 0.000000 0.000000 0.000000 0.000000 0.057381
#
#
# Mechanical properties :
#
#
# Convention : Reuss Voigt Hill
#
# Bulk Modulus (GPa) = 24.85570 30.28472 27.57021
# Shear Modulus (GPa) = 23.30489 25.75600 24.53044
#
# Velocity S-wave (km/s) = 3.32444 3.49490 3.41074
# Velocity P-wave (km/s) = 5.15008 5.53604 5.34654
#
# Compressibility (1/GPa) = 0.04023222
#
# Stress axis : x y z
#
# Youngs Moduli (GPa) = 48.80878 82.43350 60.39544
#
# Poissons Ratio (x) = 0.26680 -0.21569
# Poissons Ratio (y) = 0.15797 0.29032
# Poissons Ratio (z) = -0.17431 0.39626
#
# Static dielectric constant tensor:
#      x y z
#    x 1.746910 0.000000 0.000000 
#    y 0.000000 1.784460 0.000000 
#    z 0.000000 0.000000 1.773940 
# 
# From -- ./inp_files/26001.got.cif
#   From: 2010.05.17/outbox.cif.g08.bks.cpg/sg62_14_cif.got.tgz:26001.got - 2010.06.03 15:25:27.
