data_PCOD9466399
_publ_section_title
;
Structure prediction by ZEFSAII (Michael W. Deem and Ramdas Pophale) SiO2 
 PCOD9466399
Probable space group: P N M A
;
_chemical_formula_sum "Si O2"
_cell_formula_units_Z 48
_cell_length_a 15.251327
_cell_length_b 18.970629
_cell_length_c 8.041987
_cell_angle_alpha 90.000000
_cell_angle_beta 90.000000
_cell_angle_gamma 90.000000
_cell_volume 2326.766114
_symmetry_space_group_name_H-M "P N M A"
_symmetry_group_IT_number 62
_symmetry_cell_setting 'orthorhombic'
loop_
_space_group_symop_operation_xyz
x,y,z
1/2-x,-y,1/2+z
1/2+x,1/2-y,1/2-z
-x,1/2+y,-z
-x,-y,-z
1/2+x,y,1/2-z
1/2-x,1/2+y,1/2+z
x,1/2-y,z
loop_
_atom_site_type_symbol
_atom_site_label
_atom_site_fract_x
_atom_site_fract_y
_atom_site_fract_z
Si Si1 0.096420 0.671746 0.927701
Si Si2 0.270147 0.596828 0.989471
Si Si3 0.256830 0.556084 0.601534
Si Si4 0.450319 0.926694 0.464197
Si Si5 0.873780 0.326962 0.465184
Si Si6 0.561511 0.167605 0.861817
O O1 0.086132 0.750000 0.996999
O O2 0.175462 0.632486 0.022213
O O3 0.121782 0.676144 0.734745
O O4 0.006060 0.630137 0.933531
O O5 0.267917 0.577731 0.793810
O O6 0.277189 0.523513 0.087698
O O7 0.351533 0.646644 0.035132
O O8 0.351554 0.561929 0.519735
O O9 0.191386 0.608575 0.504245
O O10 0.448734 0.890734 0.282762
O O11 0.500000 0.000000 0.500000
O O12 0.841499 0.250000 0.525355
O O13 0.971608 0.337097 0.533368
O O14 0.569574 0.250000 0.806309
#
# Coordination Sequence:
#
# PCOD9466399 Si02
#       6
#     8   8   8   8   8   8
#     4  10  21  42  67  92 126 170 214 268 328 386
#     4  11  23  41  67  97 131 172 219 272 328 394
#     4  11  24  41  65  97 133 174 218 272 334 388
#     4  12  25  41  62  95 133 169 215 267 322 389
#     4   9  22  42  66  94 126 167 219 269 323 391
#     4  11  25  44  67  97 131 172 222 272 329 392
#
# _framework density 20.629490000000001
#
# number of rings (size 3 to 8) (size 9 to 14) (size 15 to 20)
#    0.000    1.333    1.667    3.000    4.667    4.000 
#    0.000    1.667    0.000    0.000    0.000    0.000 
#    0.000    0.000    0.000    0.000    0.000    0.000 
#
# Total GULP energy -268078.987769 kJ/mol
# GULP energy per Si atom -5584.978912 kJ/mol
# Density = 2.058254 g / cm^3
# Si number density = 20.629490 Si / 1000 Ang^3
#
#
#
# Elastic Constant Matrix: (Units=GPa)
#
#
# Indices 1 2 3 4 5 6 
#
# 1 113.5326 60.7718 3.3019 0.0000 0.0000 0.0000
# 2 60.7718 150.2967 25.5212 0.0000 0.0000 0.0000
# 3 3.3019 25.5212 47.7455 0.0000 0.0000 0.0000
# 4 0.0000 0.0000 0.0000 23.9095 0.0000 0.0000
# 5 0.0000 0.0000 0.0000 0.0000 25.2674 0.0000
# 6 0.0000 0.0000 0.0000 0.0000 0.0000 42.7187
#
#
#
# Elastic Compliance Matrix: (Units=1/GPa)
#
#
# Indices 1 2 3 4 5 6 
#
# 1 0.011386 -0.004917 0.001841 0.000000 0.000000 0.000000
# 2 -0.004917 0.009441 -0.004706 0.000000 0.000000 0.000000
# 3 0.001841 -0.004706 0.023333 0.000000 0.000000 0.000000
# 4 0.000000 0.000000 0.000000 0.041824 0.000000 0.000000
# 5 0.000000 0.000000 0.000000 0.000000 0.039577 0.000000
# 6 0.000000 0.000000 0.000000 0.000000 0.000000 0.023409
#
#
# Mechanical properties :
#
#
# Convention : Reuss Voigt Hill
#
# Bulk Modulus (GPa) = 34.97091 54.52940 44.75016
# Shear Modulus (GPa) = 28.72479 33.17778 30.95128
#
# Velocity S-wave (km/s) = 3.73555 4.01467 3.87763
# Velocity P-wave (km/s) = 5.96612 6.92678 6.46432
#
# Compressibility (1/GPa) = 0.02859519
#
# Stress axis : x y z
#
# Youngs Moduli (GPa) = 87.82543 105.92524 42.85826
#
# Poissons Ratio (x) = 0.52078 -0.07888
# Poissons Ratio (y) = 0.43179 0.20170
# Poissons Ratio (z) = -0.16165 0.49851
#
# Static dielectric constant tensor:
#      x y z
#    x 1.696520 0.000000 0.000000 
#    y 0.000000 1.765720 0.000000 
#    z 0.000000 0.000000 1.758660 
# 
# From -- ./inp_files/6516.got.cif
#   From: 2010.05.17/outbox.cif.g08.bks.cpg/sg62_4_cif.got.tgz:6516.got - 2010.06.03 15:25:27.
