data_PCOD9466297
_publ_section_title
;
Structure prediction by ZEFSAII (Michael W. Deem and Ramdas Pophale) SiO2 
 PCOD9466297
Probable space group: P N M A
;
_chemical_formula_sum "Si O2"
_cell_formula_units_Z 48
_cell_length_a 16.281229
_cell_length_b 16.597370
_cell_length_c 7.271552
_cell_angle_alpha 90.000000
_cell_angle_beta 90.000000
_cell_angle_gamma 90.000000
_cell_volume 1964.959370
_symmetry_space_group_name_H-M "P N M A"
_symmetry_group_IT_number 62
_symmetry_cell_setting 'orthorhombic'
loop_
_space_group_symop_operation_xyz
x,y,z
1/2-x,-y,1/2+z
1/2+x,1/2-y,1/2-z
-x,1/2+y,-z
-x,-y,-z
1/2+x,y,1/2-z
1/2-x,1/2+y,1/2+z
x,1/2-y,z
loop_
_atom_site_type_symbol
_atom_site_label
_atom_site_fract_x
_atom_site_fract_y
_atom_site_fract_z
Si Si1 0.817586 0.159807 0.378125
Si Si2 0.043721 0.842376 0.320250
Si Si3 0.139492 0.154154 0.544170
Si Si4 0.901372 0.414298 0.054520
Si Si5 0.930667 0.842511 0.833624
Si Si6 0.182018 0.085482 0.893814
O O1 0.782154 0.250000 0.397629
O O2 0.900247 0.157041 0.499132
O O3 0.839867 0.143492 0.167290
O O4 0.760326 0.094545 0.476275
O O5 0.041093 0.750000 0.250679
O O6 0.952352 0.865337 0.381220
O O7 0.082999 0.894193 0.157795
O O8 0.154356 0.250000 0.557182
O O9 0.131395 0.132934 0.329801
O O10 0.199017 0.107328 0.682034
O O11 0.864569 0.501921 0.084967
O O12 0.990554 0.399294 0.147379
O O13 0.956734 0.750000 0.797378
O O14 0.880825 0.848615 0.022161
#
# Coordination Sequence:
#
# PCOD9466297 Si02
#       6
#     8   8   8   8   8   8
#     4  11  25  46  67  93 132 183 227 272 331 406
#     4  10  21  40  69  95 125 171 227 269 322 402
#     4  10  21  40  68  98 129 174 223 270 324 398
#     4  12  25  41  68  99 133 175 223 274 342 400
#     4  11  22  42  69  98 131 175 228 272 328 405
#     4  12  27  41  65 101 142 169 216 291 344 384
#
# _framework density 24.427987999999999
#
# number of rings (size 3 to 8) (size 9 to 14) (size 15 to 20)
#    0.000    1.000    3.333    3.500    2.333    3.333 
#    0.000    1.667    0.000    0.000    0.000    0.000 
#    0.000    0.000    0.000    0.000    0.000    0.000 
#
# Total GULP energy -268783.975282 kJ/mol
# GULP energy per Si atom -5599.666152 kJ/mol
# Density = 2.437239 g / cm^3
# Si number density = 24.427988 Si / 1000 Ang^3
#
#
#
# Elastic Constant Matrix: (Units=GPa)
#
#
# Indices 1 2 3 4 5 6 
#
# 1 38.9560 -7.4021 -5.0211 0.0000 0.0000 0.0000
# 2 -7.4021 52.9915 20.6401 0.0000 0.0000 0.0000
# 3 -5.0211 20.6401 115.7785 0.0000 0.0000 0.0000
# 4 0.0000 0.0000 0.0000 3.0155 0.0000 0.0000
# 5 0.0000 0.0000 0.0000 0.0000 36.1361 0.0000
# 6 0.0000 0.0000 0.0000 0.0000 0.0000 24.2524
#
#
#
# Elastic Compliance Matrix: (Units=1/GPa)
#
#
# Indices 1 2 3 4 5 6 
#
# 1 0.026399 0.003484 0.000524 0.000000 0.000000 0.000000
# 2 0.003484 0.020739 -0.003546 0.000000 0.000000 0.000000
# 3 0.000524 -0.003546 0.009292 0.000000 0.000000 0.000000
# 4 0.000000 0.000000 0.000000 0.331617 0.000000 0.000000
# 5 0.000000 0.000000 0.000000 0.000000 0.027673 0.000000
# 6 0.000000 0.000000 0.000000 0.000000 0.000000 0.041233
#
#
# Mechanical properties :
#
#
# Convention : Reuss Voigt Hill
#
# Bulk Modulus (GPa) = 17.43591 24.90665 21.17128
# Shear Modulus (GPa) = 10.52303 25.98141 18.25222
#
# Velocity S-wave (km/s) = 2.07777 3.26481 2.73643
# Velocity P-wave (km/s) = 3.59296 4.94268 4.32085
#
# Compressibility (1/GPa) = 0.05735289
#
# Stress axis : x y z
#
# Youngs Moduli (GPa) = 37.87965 48.21899 107.61876
#
# Poissons Ratio (x) = -0.16797 -0.05638
# Poissons Ratio (y) = -0.13196 0.38162
# Poissons Ratio (z) = -0.01984 0.17099
#
# Static dielectric constant tensor:
#      x y z
#    x 1.963580 0.000000 0.000000 
#    y 0.000000 1.910650 0.000000 
#    z 0.000000 0.000000 1.920280 
# 
# From -- ./inp_files/7831.got.cif
#   From: 2010.05.17/outbox.cif.g08.bks.cpg/sg62_4_cif.got.tgz:7831.got - 2010.06.03 15:25:27.
