data_PCOD9466418
_publ_section_title
;
Structure prediction by ZEFSAII (Michael W. Deem and Ramdas Pophale) SiO2 
 PCOD9466418
Probable space group: P N M A
;
_chemical_formula_sum "Si O2"
_cell_formula_units_Z 36
_cell_length_a 9.338133
_cell_length_b 14.282459
_cell_length_c 9.757225
_cell_angle_alpha 90.000000
_cell_angle_beta 90.000000
_cell_angle_gamma 90.000000
_cell_volume 1301.335751
_symmetry_space_group_name_H-M "P N M A"
_symmetry_group_IT_number 62
_symmetry_cell_setting 'orthorhombic'
loop_
_space_group_symop_operation_xyz
x,y,z
1/2-x,-y,1/2+z
1/2+x,1/2-y,1/2-z
-x,1/2+y,-z
-x,-y,-z
1/2+x,y,1/2-z
1/2-x,1/2+y,1/2+z
x,1/2-y,z
loop_
_atom_site_type_symbol
_atom_site_label
_atom_site_fract_x
_atom_site_fract_y
_atom_site_fract_z
Si Si1 0.299267 0.415687 0.794463
Si Si2 0.972698 0.750000 0.939976
Si Si3 0.319083 0.750000 0.844824
Si Si4 0.175040 0.750000 0.109129
Si Si5 0.961462 0.395426 0.454083
Si Si6 0.953260 0.452334 0.172105
O O1 0.259222 0.341118 0.677587
O O2 0.414220 0.484895 0.723200
O O3 0.174785 0.477378 0.862734
O O4 0.373115 0.358893 0.918314
O O5 0.995155 0.869269 0.923279
O O6 0.851002 0.750000 0.815192
O O7 0.001870 0.750000 0.108503
O O8 0.400309 0.662812 0.913022
O O9 0.173049 0.750000 0.935349
O O10 0.885582 0.400783 0.307298
O O11 0.000000 0.500000 0.500000
#
# Coordination Sequence:
#
# PCOD9466418 Si02
#       6
#     8   4   4   4   8   8
#     4  11  24  42  70 106 142 182 234 297 360 417
#     4  10  26  42  68  98 136 192 242 286 350 429
#     4  10  21  43  67  92 134 188 236 275 349 436
#     4  12  25  41  71 104 144 180 236 313 355 411
#     4   9  19  39  65  92 129 178 221 269 345 420
#     4  10  24  42  70 100 140 187 240 289 349 427
#
# _framework density 27.663883999999999
#
# number of rings (size 3 to 8) (size 9 to 14) (size 15 to 20)
#    0.000    1.778    0.000    3.333   12.444    1.778 
#    0.000    0.000    0.000    0.000    0.000    0.000 
#    0.000    0.000    0.000    0.000    0.000    0.000 
#
# Total GULP energy -200638.009258 kJ/mol
# GULP energy per Si atom -5573.278035 kJ/mol
# Density = 2.760092 g / cm^3
# Si number density = 27.663884 Si / 1000 Ang^3
#
#
#
# Elastic Constant Matrix: (Units=GPa)
#
#
# Indices 1 2 3 4 5 6 
#
# 1 96.8453 48.6767 6.9824 0.0000 0.0000 0.0000
# 2 48.6767 163.5831 9.9472 0.0000 0.0000 0.0000
# 3 6.9824 9.9472 94.0781 0.0000 0.0000 0.0000
# 4 0.0000 0.0000 0.0000 0.2505 0.0000 0.0000
# 5 0.0000 0.0000 0.0000 0.0000 38.3334 0.0000
# 6 0.0000 0.0000 0.0000 0.0000 0.0000 31.3998
#
#
#
# Elastic Compliance Matrix: (Units=1/GPa)
#
#
# Indices 1 2 3 4 5 6 
#
# 1 0.012167 -0.003589 -0.000524 0.000000 0.000000 0.000000
# 2 -0.003589 0.007211 -0.000496 0.000000 0.000000 0.000000
# 3 -0.000524 -0.000496 0.010721 0.000000 0.000000 0.000000
# 4 0.000000 0.000000 0.000000 3.992214 0.000000 0.000000
# 5 0.000000 0.000000 0.000000 0.000000 0.026087 0.000000
# 6 0.000000 0.000000 0.000000 0.000000 0.000000 0.031847
#
#
# Mechanical properties :
#
#
# Convention : Reuss Voigt Hill
#
# Bulk Modulus (GPa) = 47.88733 53.96879 50.92806
# Shear Modulus (GPa) = 1.22058 33.25674 17.23866
#
# Velocity S-wave (km/s) = 0.66496 3.47100 2.49900
# Velocity P-wave (km/s) = 4.23528 5.96782 5.17457
#
# Compressibility (1/GPa) = 0.02088235
#
# Stress axis : x y z
#
# Youngs Moduli (GPa) = 82.18765 138.67414 93.27676
#
# Poissons Ratio (x) = 0.49766 0.04884
# Poissons Ratio (y) = 0.29495 0.04628
# Poissons Ratio (z) = 0.04303 0.06880
#
# Static dielectric constant tensor:
#      x y z
#    x 2.254810 0.000000 0.000000 
#    y 0.000000 2.123570 0.000000 
#    z 0.000000 0.000000 2.234250 
# 
# From -- ./inp_files/12013.got.cif
#   From: 2010.05.17/outbox.cif.g08.bks.cpg/sg62_7_cif.got.tgz:12013.got - 2010.06.03 15:25:27.
