data_PCOD9466575
_publ_section_title
;
Structure prediction by ZEFSAII (Michael W. Deem and Ramdas Pophale) SiO2 
 PCOD9466575
Probable space group: P N M A
;
_chemical_formula_sum "Si O2"
_cell_formula_units_Z 64
_cell_length_a 14.210288
_cell_length_b 17.148563
_cell_length_c 11.442722
_cell_angle_alpha 90.000000
_cell_angle_beta 90.000000
_cell_angle_gamma 90.000000
_cell_volume 2788.431371
_symmetry_space_group_name_H-M "P N M A"
_symmetry_group_IT_number 62
_symmetry_cell_setting 'orthorhombic'
loop_
_space_group_symop_operation_xyz
x,y,z
1/2-x,-y,1/2+z
1/2+x,1/2-y,1/2-z
-x,1/2+y,-z
-x,-y,-z
1/2+x,y,1/2-z
1/2-x,1/2+y,1/2+z
x,1/2-y,z
loop_
_atom_site_type_symbol
_atom_site_label
_atom_site_fract_x
_atom_site_fract_y
_atom_site_fract_z
Si Si1 0.323486 0.339184 0.040681
Si Si2 0.526815 0.837885 0.167739
Si Si3 0.277201 0.981288 0.465498
Si Si4 0.530583 0.664141 0.555174
Si Si5 0.410569 0.611155 0.757919
Si Si6 0.578082 0.066723 0.995378
Si Si7 0.312732 0.095727 0.283042
Si Si8 0.931203 0.048470 0.862950
O O1 0.298861 0.250000 0.070496
O O2 0.355309 0.384901 0.157425
O O3 0.404069 0.337819 0.943463
O O4 0.239390 0.390337 0.985182
O O5 0.503355 0.750000 0.199998
O O6 0.580482 0.883095 0.269808
O O7 0.436267 0.886054 0.123700
O O8 0.176977 0.024036 0.483411
O O9 0.314431 0.009244 0.339169
O O10 0.342516 0.016854 0.565541
O O11 0.534321 0.750000 0.500212
O O12 0.455258 0.664474 0.659447
O O13 0.630472 0.645480 0.619903
O O14 0.509313 0.592887 0.464988
O O15 0.434828 0.623314 0.893008
O O16 0.297234 0.613678 0.760017
O O17 0.453865 0.526893 0.716792
O O18 0.500000 0.000000 0.000000
#
# Coordination Sequence:
#
# PCOD9466575 Si02
#       8
#     8   8   8   8   8   8   8   8
#     4  11  21  35  61  96 127 162 211 275 331 375
#     4  11  23  40  65  95 129 167 214 277 338 386
#     4  10  22  39  64  93 125 176 220 260 326 405
#     4  11  25  41  63  97 132 173 216 268 333 388
#     4  11  22  40  68  95 124 168 221 266 319 390
#     4  11  20  38  65  96 124 161 217 273 324 390
#     4  10  22  41  63  93 130 168 218 270 319 392
#     4  11  22  44  64  91 130 178 223 260 322 399
#
# _framework density 22.951972999999999
#
# number of rings (size 3 to 8) (size 9 to 14) (size 15 to 20)
#    0.000    1.250    3.750    2.625    0.000    2.500 
#    0.000    8.750    0.000    1.500    0.000    0.000 
#    0.000    0.000    0.000    0.000    0.000    0.000 
#
# Total GULP energy -357346.505576 kJ/mol
# GULP energy per Si atom -5583.539150 kJ/mol
# Density = 2.289973 g / cm^3
# Si number density = 22.951973 Si / 1000 Ang^3
#
#
#
# Elastic Constant Matrix: (Units=GPa)
#
#
# Indices 1 2 3 4 5 6 
#
# 1 59.3091 7.2412 20.4534 0.0000 0.0000 0.0000
# 2 7.2412 121.0989 32.7223 0.0000 0.0000 0.0000
# 3 20.4534 32.7223 103.3802 0.0000 0.0000 0.0000
# 4 0.0000 0.0000 0.0000 26.1217 0.0000 0.0000
# 5 0.0000 0.0000 0.0000 0.0000 22.7863 0.0000
# 6 0.0000 0.0000 0.0000 0.0000 0.0000 16.0863
#
#
#
# Elastic Compliance Matrix: (Units=1/GPa)
#
#
# Indices 1 2 3 4 5 6 
#
# 1 0.018097 -0.000125 -0.003541 0.000000 0.000000 0.000000
# 2 -0.000125 0.009031 -0.002834 0.000000 0.000000 0.000000
# 3 -0.003541 -0.002834 0.011271 0.000000 0.000000 0.000000
# 4 0.000000 0.000000 0.000000 0.038282 0.000000 0.000000
# 5 0.000000 0.000000 0.000000 0.000000 0.043886 0.000000
# 6 0.000000 0.000000 0.000000 0.000000 0.000000 0.062165
#
#
# Mechanical properties :
#
#
# Convention : Reuss Voigt Hill
#
# Bulk Modulus (GPa) = 39.37178 44.95801 42.16490
# Shear Modulus (GPa) = 24.48607 27.89028 26.18817
#
# Velocity S-wave (km/s) = 3.26979 3.48969 3.38153
# Velocity P-wave (km/s) = 5.60773 5.98896 5.80148
#
# Compressibility (1/GPa) = 0.02539890
#
# Stress axis : x y z
#
# Youngs Moduli (GPa) = 55.25710 110.73082 88.72717
#
# Poissons Ratio (x) = 0.01388 0.31416
# Poissons Ratio (y) = 0.00693 0.25143
# Poissons Ratio (z) = 0.19565 0.31378
#
# Static dielectric constant tensor:
#      x y z
#    x 1.909230 0.000000 0.000000 
#    y 0.000000 1.880150 0.000000 
#    z 0.000000 0.000000 1.897070 
# 
# From -- ./inp_files/13572.got.cif
#   From: 2010.05.17/outbox.cif.g08.bks.cpg/sg62_7_cif.got.tgz:13572.got - 2010.06.03 15:25:27.
