data_PCOD9466970
_publ_section_title
;
Structure prediction by ZEFSAII (Michael W. Deem and Ramdas Pophale) SiO2 
 PCOD9466970
Probable space group: P N M A
;
_chemical_formula_sum "Si O2"
_cell_formula_units_Z 48
_cell_length_a 18.123324
_cell_length_b 8.716280
_cell_length_c 15.681261
_cell_angle_alpha 90.000000
_cell_angle_beta 90.000000
_cell_angle_gamma 90.000000
_cell_volume 2477.136913
_symmetry_space_group_name_H-M "P N M A"
_symmetry_group_IT_number 62
_symmetry_cell_setting 'orthorhombic'
loop_
_space_group_symop_operation_xyz
x,y,z
1/2-x,-y,1/2+z
1/2+x,1/2-y,1/2-z
-x,1/2+y,-z
-x,-y,-z
1/2+x,y,1/2-z
1/2-x,1/2+y,1/2+z
x,1/2-y,z
loop_
_atom_site_type_symbol
_atom_site_label
_atom_site_fract_x
_atom_site_fract_y
_atom_site_fract_z
Si Si1 0.040566 0.933902 0.254647
Si Si2 0.287203 0.434731 0.066138
Si Si3 0.044619 0.434251 0.920096
Si Si4 0.958708 0.433116 0.418149
Si Si5 0.791627 0.433691 0.099871
Si Si6 0.711890 0.934817 0.265622
O O1 0.037565 0.750000 0.265992
O O2 0.126483 0.977753 0.249821
O O3 0.999987 0.971015 0.166224
O O4 0.998782 0.010071 0.333146
O O5 0.281798 0.250000 0.062914
O O6 0.372654 0.478262 0.080366
O O7 0.240023 0.498389 0.145002
O O8 0.257685 0.504007 0.977983
O O9 0.050734 0.250000 0.927088
O O10 0.125437 0.507253 0.914823
O O11 0.000000 0.500000 0.000000
O O12 0.961785 0.250000 0.421919
O O13 0.000000 0.500000 0.500000
O O14 0.790136 0.250000 0.101614
O O15 0.760544 0.499841 0.188449
O O16 0.717153 0.750000 0.267364
#
# Coordination Sequence:
#
# PCOD9466970 Si02
#       6
#     8   8   8   8   8   8
#     4  10  23  41  62  89 122 158 200 247 301 362
#     4  11  24  42  63  91 123 159 205 257 308 365
#     4  11  23  41  65  93 125 163 205 255 309 365
#     4  11  24  40  62  90 121 157 200 248 302 361
#     4  12  25  41  62  91 125 165 209 253 305 367
#     4  11  23  41  64  92 124 160 203 254 308 368
#
# _framework density 19.377208
#
# number of rings (size 3 to 8) (size 9 to 14) (size 15 to 20)
#    0.000    1.000    0.000    6.500    0.000   13.333 
#    0.000    0.000    0.000    0.000    0.000    0.000 
#    0.000    0.000    0.000    0.000    0.000    0.000 
#
# Total GULP energy -268707.668612 kJ/mol
# GULP energy per Si atom -5598.076429 kJ/mol
# Density = 1.933310 g / cm^3
# Si number density = 19.377208 Si / 1000 Ang^3
#
#
#
# Elastic Constant Matrix: (Units=GPa)
#
#
# Indices 1 2 3 4 5 6 
#
# 1 81.7565 28.4095 -13.2016 0.0000 0.0000 0.0000
# 2 28.4095 63.9636 25.8096 0.0000 0.0000 0.0000
# 3 -13.2016 25.8096 70.4171 0.0000 0.0000 0.0000
# 4 0.0000 0.0000 0.0000 42.9879 0.0000 0.0000
# 5 0.0000 0.0000 0.0000 0.0000 45.5877 0.0000
# 6 0.0000 0.0000 0.0000 0.0000 0.0000 29.9111
#
#
#
# Elastic Compliance Matrix: (Units=1/GPa)
#
#
# Indices 1 2 3 4 5 6 
#
# 1 0.016949 -0.010339 0.006967 0.000000 0.000000 0.000000
# 2 -0.010339 0.024654 -0.010975 0.000000 0.000000 0.000000
# 3 0.006967 -0.010975 0.019530 0.000000 0.000000 0.000000
# 4 0.000000 0.000000 0.000000 0.023262 0.000000 0.000000
# 5 0.000000 0.000000 0.000000 0.000000 0.021936 0.000000
# 6 0.000000 0.000000 0.000000 0.000000 0.000000 0.033432
#
#
# Mechanical properties :
#
#
# Convention : Reuss Voigt Hill
#
# Bulk Modulus (GPa) = 30.82644 33.13023 31.97833
# Shear Modulus (GPa) = 27.89069 35.37199 31.63134
#
# Velocity S-wave (km/s) = 3.79800 4.27716 4.04468
# Velocity P-wave (km/s) = 5.93095 6.44412 6.19286
#
# Compressibility (1/GPa) = 0.03243969
#
# Stress axis : x y z
#
# Youngs Moduli (GPa) = 58.99961 40.56056 51.20368
#
# Poissons Ratio (x) = 0.41937 -0.35675
# Poissons Ratio (y) = 0.61002 0.56195
# Poissons Ratio (z) = -0.41106 0.44515
#
# Static dielectric constant tensor:
#      x y z
#    x 1.653600 0.000000 0.000000 
#    y 0.000000 1.650890 0.000000 
#    z 0.000000 0.000000 1.627870 
# 
# From -- ./inp_files/19648.got.cif
#   From: 2010.05.17/outbox.cif.g08.bks.cpg/sg62_10_cif.got.tgz:19648.got - 2010.06.03 15:25:27.
