data_PCOD9466224
_publ_section_title
;
Structure prediction by ZEFSAII (Michael W. Deem and Ramdas Pophale) SiO2 
 PCOD9466224
Probable space group: P N M A
;
_chemical_formula_sum "Si O2"
_cell_formula_units_Z 64
_cell_length_a 15.432388
_cell_length_b 18.624032
_cell_length_c 10.236698
_cell_angle_alpha 90.000000
_cell_angle_beta 90.000000
_cell_angle_gamma 90.000000
_cell_volume 2942.163030
_symmetry_space_group_name_H-M "P N M A"
_symmetry_group_IT_number 62
_symmetry_cell_setting 'orthorhombic'
loop_
_space_group_symop_operation_xyz
x,y,z
1/2-x,-y,1/2+z
1/2+x,1/2-y,1/2-z
-x,1/2+y,-z
-x,-y,-z
1/2+x,y,1/2-z
1/2-x,1/2+y,1/2+z
x,1/2-y,z
loop_
_atom_site_type_symbol
_atom_site_label
_atom_site_fract_x
_atom_site_fract_y
_atom_site_fract_z
Si Si1 0.939732 0.089956 0.071144
Si Si2 0.323875 0.668195 0.194220
Si Si3 0.835312 0.071312 0.804173
Si Si4 0.769324 0.042678 0.437731
Si Si5 0.401769 0.929188 0.399767
Si Si6 0.639214 0.169021 0.116449
Si Si7 0.676881 0.668560 0.768515
Si Si8 0.578361 0.482440 0.095700
O O1 0.878326 0.085605 0.943699
O O2 0.034014 0.101825 0.010186
O O3 0.899166 0.146060 0.169963
O O4 0.934320 0.009758 0.131499
O O5 0.330591 0.750000 0.238748
O O6 0.228089 0.637085 0.224560
O O7 0.391346 0.619295 0.273115
O O8 0.341445 0.666574 0.039135
O O9 0.907406 0.044679 0.703300
O O10 0.772689 0.002171 0.820009
O O11 0.691866 0.064365 0.533024
O O12 0.818691 0.111582 0.384640
O O13 0.834036 0.990210 0.511191
O O14 0.604818 0.250000 0.145261
O O15 0.579853 0.099528 0.148611
O O16 0.730818 0.162242 0.192299
O O17 0.667125 0.750000 0.812813
O O18 0.500000 0.500000 0.000000
#
# Coordination Sequence:
#
# PCOD9466224 Si02
#       8
#     8   8   8   8   8   8   8   8
#     4  10  22  38  65  94 121 155 211 266 314 366
#     4  11  21  36  62  88 121 166 208 258 313 366
#     4  11  21  39  63  91 119 160 214 262 310 376
#     4  11  22  40  64  88 123 164 214 255 304 387
#     4  10  22  39  63  92 123 158 204 268 311 371
#     4  10  21  40  63  93 126 166 212 255 317 384
#     4  11  22  40  65  90 126 170 209 258 318 377
#     4  12  25  40  67  96 127 168 211 266 319 372
#
# _framework density 21.752704000000001
#
# number of rings (size 3 to 8) (size 9 to 14) (size 15 to 20)
#    0.000    1.250    5.000    1.500    1.750    3.000 
#    0.000    1.250    0.000    0.000    0.000    0.000 
#    0.000    0.000    0.000    0.000    0.000    0.000 
#
# Total GULP energy -357965.682160 kJ/mol
# GULP energy per Si atom -5593.213784 kJ/mol
# Density = 2.170319 g / cm^3
# Si number density = 21.752704 Si / 1000 Ang^3
#
#
#
# Elastic Constant Matrix: (Units=GPa)
#
#
# Indices 1 2 3 4 5 6 
#
# 1 58.9801 3.3807 -7.9627 0.0000 0.0000 0.0000
# 2 3.3807 84.4321 9.2777 0.0000 0.0000 0.0000
# 3 -7.9627 9.2777 35.9315 0.0000 0.0000 0.0000
# 4 0.0000 0.0000 0.0000 21.9553 0.0000 0.0000
# 5 0.0000 0.0000 0.0000 0.0000 28.6464 0.0000
# 6 0.0000 0.0000 0.0000 0.0000 0.0000 22.5175
#
#
#
# Elastic Compliance Matrix: (Units=1/GPa)
#
#
# Indices 1 2 3 4 5 6 
#
# 1 0.017589 -0.001166 0.004199 0.000000 0.000000 0.000000
# 2 -0.001166 0.012267 -0.003426 0.000000 0.000000 0.000000
# 3 0.004199 -0.003426 0.029646 0.000000 0.000000 0.000000
# 4 0.000000 0.000000 0.000000 0.045547 0.000000 0.000000
# 5 0.000000 0.000000 0.000000 0.000000 0.034908 0.000000
# 6 0.000000 0.000000 0.000000 0.000000 0.000000 0.044410
#
#
# Mechanical properties :
#
#
# Convention : Reuss Voigt Hill
#
# Bulk Modulus (GPa) = 17.03112 20.97058 19.00085
# Shear Modulus (GPa) = 24.42314 26.26703 25.34509
#
# Velocity S-wave (km/s) = 3.35440 3.47872 3.41713
# Velocity P-wave (km/s) = 4.78007 5.07905 4.93183
#
# Compressibility (1/GPa) = 0.05871603
#
# Stress axis : x y z
#
# Youngs Moduli (GPa) = 56.85514 81.51996 33.73165
#
# Poissons Ratio (x) = 0.09502 -0.14163
# Poissons Ratio (y) = 0.06627 0.11556
# Poissons Ratio (z) = -0.23872 0.27926
#
# Static dielectric constant tensor:
#      x y z
#    x 1.802800 0.000000 0.000000 
#    y 0.000000 1.787830 0.000000 
#    z 0.000000 0.000000 1.819130 
# 
# From -- ./inp_files/13590.got.cif
#   From: 2010.05.17/outbox.cif.g08.bks.cpg/sg62_7_cif.got.tgz:13590.got - 2010.06.03 15:25:27.
