data_PCOD9466167
_publ_section_title
;
Structure prediction by ZEFSAII (Michael W. Deem and Ramdas Pophale) SiO2 
 PCOD9466167
Probable space group: P N M A
;
_chemical_formula_sum "Si O2"
_cell_formula_units_Z 56
_cell_length_a 5.383292
_cell_length_b 30.668203
_cell_length_c 14.417188
_cell_angle_alpha 90.000000
_cell_angle_beta 90.000000
_cell_angle_gamma 90.000000
_cell_volume 2380.218511
_symmetry_space_group_name_H-M "P N M A"
_symmetry_group_IT_number 62
_symmetry_cell_setting 'orthorhombic'
loop_
_space_group_symop_operation_xyz
x,y,z
1/2-x,-y,1/2+z
1/2+x,1/2-y,1/2-z
-x,1/2+y,-z
-x,-y,-z
1/2+x,y,1/2-z
1/2-x,1/2+y,1/2+z
x,1/2-y,z
loop_
_atom_site_type_symbol
_atom_site_label
_atom_site_fract_x
_atom_site_fract_y
_atom_site_fract_z
Si Si1 0.834382 0.815331 0.200167
Si Si2 0.687991 0.087344 0.776991
Si Si3 0.382228 0.623176 0.650014
Si Si4 0.244935 0.250000 0.423482
Si Si5 0.245163 0.250000 0.961608
Si Si6 0.276755 0.443610 0.535968
Si Si7 0.882751 0.843010 0.641860
Si Si8 0.722645 0.958233 0.925107
O O1 0.600294 0.800608 0.261700
O O2 0.830515 0.867920 0.216259
O O3 0.794364 0.793142 0.101385
O O4 0.429823 0.063643 0.760648
O O5 0.724792 0.093084 0.886905
O O6 0.416418 0.643291 0.751426
O O7 0.648589 0.630141 0.602160
O O8 0.295301 0.573377 0.658763
O O9 0.152824 0.647142 0.599258
O O10 0.524027 0.250000 0.462950
O O11 0.194467 0.293276 0.365430
O O12 0.025843 0.250000 0.500419
O O13 0.246393 0.490488 0.588211
O O14 0.558286 0.444724 0.498099
O O15 0.052039 0.446730 0.462015
#
# Coordination Sequence:
#
# PCOD9466167 Si02
#       8
#     8   8   8   4   4   8   8   8
#     4  10  21  41  64  88 125 171 210 263 320 376
#     4  10  21  40  58  94 125 172 215 258 317 373
#     4  10  21  42  65  95 125 173 207 261 317 379
#     4  12  26  45  63 102 124 166 212 264 324 380
#     4  12  24  43  67  94 132 162 216 268 320 382
#     4  10  21  40  64  94 135 170 211 269 313 372
#     4  10  23  43  65  93 131 162 212 258 322 380
#     4  10  21  40  65  97 131 168 213 263 321 366
#
# _framework density 23.527251
#
# number of rings (size 3 to 8) (size 9 to 14) (size 15 to 20)
#    0.000    1.714    0.000    3.857    0.000    2.286 
#   36.000    0.000    0.000    0.000    0.000    0.000 
#    0.000    0.000    0.000    0.000    0.000    0.000 
#
# Total GULP energy -312527.947940 kJ/mol
# GULP energy per Si atom -5580.856213 kJ/mol
# Density = 2.347370 g / cm^3
# Si number density = 23.527251 Si / 1000 Ang^3
#
#
#
# Elastic Constant Matrix: (Units=GPa)
#
#
# Indices 1 2 3 4 5 6 
#
# 1 153.0999 9.7956 -11.8752 0.0000 0.0000 0.0000
# 2 9.7956 85.0271 17.2955 0.0000 0.0000 0.0000
# 3 -11.8752 17.2955 40.1501 0.0000 0.0000 0.0000
# 4 0.0000 0.0000 0.0000 56.1805 0.0000 0.0000
# 5 0.0000 0.0000 0.0000 0.0000 32.3492 0.0000
# 6 0.0000 0.0000 0.0000 0.0000 0.0000 30.2067
#
#
#
# Elastic Compliance Matrix: (Units=1/GPa)
#
#
# Indices 1 2 3 4 5 6 
#
# 1 0.006816 -0.001310 0.002580 0.000000 0.000000 0.000000
# 2 -0.001310 0.013142 -0.006049 0.000000 0.000000 0.000000
# 3 0.002580 -0.006049 0.028275 0.000000 0.000000 0.000000
# 4 0.000000 0.000000 0.000000 0.017800 0.000000 0.000000
# 5 0.000000 0.000000 0.000000 0.000000 0.030913 0.000000
# 6 0.000000 0.000000 0.000000 0.000000 0.000000 0.033105
#
#
# Mechanical properties :
#
#
# Convention : Reuss Voigt Hill
#
# Bulk Modulus (GPa) = 25.85586 34.30100 30.07843
# Shear Modulus (GPa) = 32.78686 41.28469 37.03577
#
# Velocity S-wave (km/s) = 3.73710 4.19353 3.97188
# Velocity P-wave (km/s) = 5.44379 6.16916 5.81779
#
# Compressibility (1/GPa) = 0.03867595
#
# Stress axis : x y z
#
# Youngs Moduli (GPa) = 146.72153 76.09033 35.36653
#
# Poissons Ratio (x) = 0.09968 -0.09125
# Poissons Ratio (y) = 0.19221 0.21392
# Poissons Ratio (z) = -0.37857 0.46025
#
# Static dielectric constant tensor:
#      x y z
#    x 1.973010 0.000000 0.000000 
#    y 0.000000 1.926590 0.000000 
#    z 0.000000 0.000000 1.310970 
# 
# From -- ./inp_files/16305.got.cif
#   From: 2010.05.17/outbox.cif.g08.bks.cpg/sg62_9_cif.got.tgz:16305.got - 2010.06.03 15:25:27.
