data_PCOD9466956
_publ_section_title
;
Structure prediction by ZEFSAII (Michael W. Deem and Ramdas Pophale) SiO2 
 PCOD9466956
Probable space group: P N M A
;
_chemical_formula_sum "Si O2"
_cell_formula_units_Z 40
_cell_length_a 9.827542
_cell_length_b 18.770666
_cell_length_c 9.873125
_cell_angle_alpha 90.000000
_cell_angle_beta 90.000000
_cell_angle_gamma 90.000000
_cell_volume 1821.290516
_symmetry_space_group_name_H-M "P N M A"
_symmetry_group_IT_number 62
_symmetry_cell_setting 'orthorhombic'
loop_
_space_group_symop_operation_xyz
x,y,z
1/2-x,-y,1/2+z
1/2+x,1/2-y,1/2-z
-x,1/2+y,-z
-x,-y,-z
1/2+x,y,1/2-z
1/2-x,1/2+y,1/2+z
x,1/2-y,z
loop_
_atom_site_type_symbol
_atom_site_label
_atom_site_fract_x
_atom_site_fract_y
_atom_site_fract_z
Si Si1 0.573012 0.666594 0.779167
Si Si2 0.685241 0.550859 0.382573
Si Si3 0.394972 0.886031 0.306399
Si Si4 0.843985 0.886588 0.906087
Si Si5 0.364975 0.829599 0.020956
O O1 0.568067 0.750000 0.744779
O O2 0.487949 0.624455 0.666929
O O3 0.726280 0.643792 0.810256
O O4 0.487677 0.656547 0.918575
O O5 0.783501 0.558746 0.251742
O O6 0.535971 0.576254 0.341943
O O7 0.682079 0.470140 0.429683
O O8 0.753382 0.607753 0.485039
O O9 0.343681 0.851384 0.445480
O O10 0.413867 0.834753 0.177368
O O11 0.310953 0.750000 0.994988
#
# Coordination Sequence:
#
# PCOD9466956 Si02
#       5
#     8   8   8   8   8
#     4  11  26  45  64  95 133 177 218 271 337 394
#     4  10  23  40  68  99 132 168 223 268 335 374
#     4  10  23  41  66 100 127 175 220 271 327 389
#     4  12  25  42  70  96 136 171 224 277 323 403
#     4   9  23  42  65  92 131 170 217 268 324 390
#
# _framework density 21.962447000000001
#
# number of rings (size 3 to 8) (size 9 to 14) (size 15 to 20)
#    1.200    0.400    0.000    3.600    5.600    3.200 
#    0.000    0.000    0.000    0.000    0.000    0.000 
#    0.000    0.000    0.000    0.000    0.000    0.000 
#
# Total GULP energy -223412.196775 kJ/mol
# GULP energy per Si atom -5585.304919 kJ/mol
# Density = 2.191246 g / cm^3
# Si number density = 21.962447 Si / 1000 Ang^3
#
#
#
# Elastic Constant Matrix: (Units=GPa)
#
#
# Indices 1 2 3 4 5 6 
#
# 1 86.2042 -7.7460 -2.8496 0.0000 0.0000 0.0000
# 2 -7.7460 64.2728 -19.9495 0.0000 0.0000 0.0000
# 3 -2.8496 -19.9495 88.9789 0.0000 0.0000 0.0000
# 4 0.0000 0.0000 0.0000 3.6943 0.0000 0.0000
# 5 0.0000 0.0000 0.0000 0.0000 38.4944 0.0000
# 6 0.0000 0.0000 0.0000 0.0000 0.0000 120.2972
#
#
#
# Elastic Compliance Matrix: (Units=1/GPa)
#
#
# Indices 1 2 3 4 5 6 
#
# 1 0.011773 0.001651 0.000747 0.000000 0.000000 0.000000
# 2 0.001651 0.016954 0.003854 0.000000 0.000000 0.000000
# 3 0.000747 0.003854 0.012127 0.000000 0.000000 0.000000
# 4 0.000000 0.000000 0.000000 0.270691 0.000000 0.000000
# 5 0.000000 0.000000 0.000000 0.000000 0.025978 0.000000
# 6 0.000000 0.000000 0.000000 0.000000 0.000000 0.008313
#
#
# Mechanical properties :
#
#
# Convention : Reuss Voigt Hill
#
# Bulk Modulus (GPa) = 18.74137 19.81841 19.27989
# Shear Modulus (GPa) = 14.24027 50.49725 32.36876
#
# Velocity S-wave (km/s) = 2.54912 4.80026 3.84321
# Velocity P-wave (km/s) = 4.14920 6.30608 5.33772
#
# Compressibility (1/GPa) = 0.05335790
#
# Stress axis : x y z
#
# Youngs Moduli (GPa) = 84.93727 58.98356 82.46314
#
# Poissons Ratio (x) = -0.09737 -0.06161
# Poissons Ratio (y) = -0.14022 -0.31781
# Poissons Ratio (z) = -0.06346 -0.22732
#
# Static dielectric constant tensor:
#      x y z
#    x 1.769260 0.000000 0.000000 
#    y 0.000000 1.769130 0.000000 
#    z 0.000000 0.000000 1.860430 
# 
# From -- ./inp_files/11064.got.cif
#   From: 2010.05.17/outbox.cif.g08.bks.cpg/sg62_6_cif.got.tgz:11064.got - 2010.06.03 15:25:27.
