data_PCOD9466411
_publ_section_title
;
Structure prediction by ZEFSAII (Michael W. Deem and Ramdas Pophale) SiO2 
 PCOD9466411
Probable space group: P N M A
;
_chemical_formula_sum "Si O2"
_cell_formula_units_Z 32
_cell_length_a 5.382276
_cell_length_b 11.989766
_cell_length_c 19.917417
_cell_angle_alpha 90.000000
_cell_angle_beta 90.000000
_cell_angle_gamma 90.000000
_cell_volume 1285.315331
_symmetry_space_group_name_H-M "P N M A"
_symmetry_group_IT_number 62
_symmetry_cell_setting 'orthorhombic'
loop_
_space_group_symop_operation_xyz
x,y,z
1/2-x,-y,1/2+z
1/2+x,1/2-y,1/2-z
-x,1/2+y,-z
-x,-y,-z
1/2+x,y,1/2-z
1/2-x,1/2+y,1/2+z
x,1/2-y,z
loop_
_atom_site_type_symbol
_atom_site_label
_atom_site_fract_x
_atom_site_fract_y
_atom_site_fract_z
Si Si1 0.179681 0.250000 0.209014
Si Si2 0.983984 0.445133 0.610637
Si Si3 0.776112 0.621939 0.981036
Si Si4 0.358217 0.125814 0.378459
Si Si5 0.838099 0.750000 0.295504
O O1 0.948165 0.250000 0.260466
O O2 0.111012 0.357218 0.163823
O O3 0.795514 0.384635 0.558731
O O4 0.809285 0.530337 0.651481
O O5 0.135881 0.527797 0.561767
O O6 0.131662 0.358242 0.655920
O O7 0.715565 0.750000 0.961396
O O8 0.060739 0.607022 0.955753
O O9 0.246797 0.250000 0.376322
O O10 0.578011 0.750000 0.254860
#
# Coordination Sequence:
#
# PCOD9466411 Si02
#       5
#     4   8   8   8   4
#     4  10  24  39  61  96 136 178 228 286 348 422
#     4  11  23  44  73 102 143 195 243 307 367 442
#     4  10  21  42  72 110 140 179 246 318 387 422
#     4   9  22  38  67 102 140 176 239 307 371 435
#     4  12  32  55  73 106 154 210 256 290 356 464
#
# _framework density 24.896614
#
# number of rings (size 3 to 8) (size 9 to 14) (size 15 to 20)
#    0.750    1.000    1.250    1.500    7.000    2.000 
#    0.000    0.000    0.000    0.000    0.000    0.000 
#    0.000    0.000    0.000    0.000    0.000    0.000 
#
# Total GULP energy -178566.759992 kJ/mol
# GULP energy per Si atom -5580.211250 kJ/mol
# Density = 2.483995 g / cm^3
# Si number density = 24.896614 Si / 1000 Ang^3
#
#
#
# Elastic Constant Matrix: (Units=GPa)
#
#
# Indices 1 2 3 4 5 6 
#
# 1 70.5423 22.4687 28.6965 0.0000 0.0000 0.0000
# 2 22.4687 132.6853 21.5389 0.0000 0.0000 0.0000
# 3 28.6965 21.5389 78.0535 0.0000 0.0000 0.0000
# 4 0.0000 0.0000 0.0000 33.5961 0.0000 0.0000
# 5 0.0000 0.0000 0.0000 0.0000 53.3682 0.0000
# 6 0.0000 0.0000 0.0000 0.0000 0.0000 20.3279
#
#
#
# Elastic Compliance Matrix: (Units=1/GPa)
#
#
# Indices 1 2 3 4 5 6 
#
# 1 0.017146 -0.001968 -0.005761 0.000000 0.000000 0.000000
# 2 -0.001968 0.008116 -0.001516 0.000000 0.000000 0.000000
# 3 -0.005761 -0.001516 0.015348 0.000000 0.000000 0.000000
# 4 0.000000 0.000000 0.000000 0.029765 0.000000 0.000000
# 5 0.000000 0.000000 0.000000 0.000000 0.018738 0.000000
# 6 0.000000 0.000000 0.000000 0.000000 0.000000 0.049193
#
#
# Mechanical properties :
#
#
# Convention : Reuss Voigt Hill
#
# Bulk Modulus (GPa) = 45.20741 47.40992 46.30866
# Shear Modulus (GPa) = 30.45617 35.36358 32.90988
#
# Velocity S-wave (km/s) = 3.50137 3.77293 3.63969
# Velocity P-wave (km/s) = 5.87738 6.16961 6.02527
#
# Compressibility (1/GPa) = 0.02212027
#
# Stress axis : x y z
#
# Youngs Moduli (GPa) = 58.32163 123.21283 65.15517
#
# Poissons Ratio (x) = 0.24253 0.37534
# Poissons Ratio (y) = 0.11480 0.09877
# Poissons Ratio (z) = 0.33597 0.18678
#
# Static dielectric constant tensor:
#      x y z
#    x 2.083950 0.000000 0.000000 
#    y 0.000000 2.016340 0.000000 
#    z 0.000000 0.000000 2.108930 
# 
# From -- ./inp_files/25135.got.cif
#   From: 2010.05.17/outbox.cif.g08.bks.cpg/sg62_13_cif.got.tgz:25135.got - 2010.06.03 15:25:27.
