data_PCOD9466286
_publ_section_title
;
Structure prediction by ZEFSAII (Michael W. Deem and Ramdas Pophale) SiO2 
 PCOD9466286
Probable space group: P N M A
;
_chemical_formula_sum "Si O2"
_cell_formula_units_Z 64
_cell_length_a 24.036931
_cell_length_b 13.681692
_cell_length_c 9.702709
_cell_angle_alpha 90.000000
_cell_angle_beta 90.000000
_cell_angle_gamma 90.000000
_cell_volume 3190.889997
_symmetry_space_group_name_H-M "P N M A"
_symmetry_group_IT_number 62
_symmetry_cell_setting 'orthorhombic'
loop_
_space_group_symop_operation_xyz
x,y,z
1/2-x,-y,1/2+z
1/2+x,1/2-y,1/2-z
-x,1/2+y,-z
-x,-y,-z
1/2+x,y,1/2-z
1/2-x,1/2+y,1/2+z
x,1/2-y,z
loop_
_atom_site_type_symbol
_atom_site_label
_atom_site_fract_x
_atom_site_fract_y
_atom_site_fract_z
Si Si1 0.363788 0.477914 0.736667
Si Si2 0.673781 0.019295 0.569634
Si Si3 0.980380 0.364965 0.371936
Si Si4 0.285063 0.136753 0.924691
Si Si5 0.100177 0.366911 0.457756
Si Si6 0.356760 0.134452 0.194640
Si Si7 0.590843 0.136082 0.738944
Si Si8 0.011275 0.993457 0.159741
O O1 0.333379 0.498061 0.592011
O O2 0.333450 0.391838 0.818082
O O3 0.368171 0.569757 0.843100
O O4 0.427561 0.457340 0.696565
O O5 0.734547 0.062404 0.597591
O O6 0.629840 0.101950 0.615209
O O7 0.657704 0.929099 0.670622
O O8 0.978144 0.250000 0.392922
O O9 0.915910 0.397104 0.375471
O O10 0.034303 0.398101 0.459606
O O11 0.001023 0.398963 0.221907
O O12 0.268158 0.250000 0.907687
O O13 0.309994 0.124466 0.077991
O O14 0.102882 0.250000 0.427896
O O15 0.120578 0.382685 0.613778
O O16 0.361787 0.250000 0.229784
O O17 0.578496 0.250000 0.733408
O O18 0.534281 0.076144 0.727151
O O19 0.000000 0.000000 0.000000
#
# Coordination Sequence:
#
# PCOD9466286 Si02
#       8
#     8   8   8   8   8   8   8   8
#     4  11  24  39  67  94 131 167 209 269 321 383
#     4  12  23  45  64  91 128 167 216 263 321 375
#     4   9  18  34  59  87 121 158 197 249 304 374
#     4  11  26  44  64  91 122 168 220 268 317 371
#     4   9  21  38  60  96 129 166 210 254 314 379
#     4  10  21  40  67  92 121 163 209 256 315 381
#     4  11  23  38  62  90 128 175 216 261 318 384
#     4  11  21  38  57  95 132 164 204 258 326 391
#
# _framework density 20.057099000000001
#
# number of rings (size 3 to 8) (size 9 to 14) (size 15 to 20)
#    0.000    1.500    2.500    1.875    1.750    3.500 
#    0.000    0.625    0.000    0.000    0.000    0.000 
#    0.000    0.000    0.000    0.000    0.000    0.000 
#
# Total GULP energy -357136.825435 kJ/mol
# GULP energy per Si atom -5580.262897 kJ/mol
# Density = 2.001145 g / cm^3
# Si number density = 20.057099 Si / 1000 Ang^3
#
#
#
# Elastic Constant Matrix: (Units=GPa)
#
#
# Indices 1 2 3 4 5 6 
#
# 1 67.6609 7.8367 -7.0497 0.0000 0.0000 0.0000
# 2 7.8367 68.1827 22.2720 0.0000 0.0000 0.0000
# 3 -7.0497 22.2720 102.9712 0.0000 0.0000 0.0000
# 4 0.0000 0.0000 0.0000 14.5529 0.0000 0.0000
# 5 0.0000 0.0000 0.0000 0.0000 22.1793 0.0000
# 6 0.0000 0.0000 0.0000 0.0000 0.0000 23.9877
#
#
#
# Elastic Compliance Matrix: (Units=1/GPa)
#
#
# Indices 1 2 3 4 5 6 
#
# 1 0.015199 -0.002245 0.001526 0.000000 0.000000 0.000000
# 2 -0.002245 0.016113 -0.003639 0.000000 0.000000 0.000000
# 3 0.001526 -0.003639 0.010603 0.000000 0.000000 0.000000
# 4 0.000000 0.000000 0.000000 0.068715 0.000000 0.000000
# 5 0.000000 0.000000 0.000000 0.000000 0.045087 0.000000
# 6 0.000000 0.000000 0.000000 0.000000 0.000000 0.041688
#
#
# Mechanical properties :
#
#
# Convention : Reuss Voigt Hill
#
# Bulk Modulus (GPa) = 30.12172 31.65922 30.89047
# Shear Modulus (GPa) = 23.02158 26.52768 24.77463
#
# Velocity S-wave (km/s) = 3.39160 3.64071 3.51836
# Velocity P-wave (km/s) = 5.51252 5.78722 5.65154
#
# Compressibility (1/GPa) = 0.03319863
#
# Stress axis : x y z
#
# Youngs Moduli (GPa) = 65.79522 62.06085 94.31275
#
# Poissons Ratio (x) = 0.13935 -0.14394
# Poissons Ratio (y) = 0.14774 0.34320
# Poissons Ratio (z) = -0.10042 0.22583
#
# Static dielectric constant tensor:
#      x y z
#    x 1.732290 0.000000 0.000000 
#    y 0.000000 1.716480 0.000000 
#    z 0.000000 0.000000 1.703120 
# 
# From -- ./inp_files/9520.got.cif
#   From: 2010.05.17/outbox.cif.g08.bks.cpg/sg62_5_cif.got.tgz:9520.got - 2010.06.03 15:25:27.
