data_PCOD9466433
_publ_section_title
;
Structure prediction by ZEFSAII (Michael W. Deem and Ramdas Pophale) SiO2 
 PCOD9466433
Probable space group: P N M A
;
_chemical_formula_sum "Si O2"
_cell_formula_units_Z 36
_cell_length_a 11.628097
_cell_length_b 14.544605
_cell_length_c 11.005187
_cell_angle_alpha 90.000000
_cell_angle_beta 90.000000
_cell_angle_gamma 90.000000
_cell_volume 1861.264112
_symmetry_space_group_name_H-M "P N M A"
_symmetry_group_IT_number 62
_symmetry_cell_setting 'orthorhombic'
loop_
_space_group_symop_operation_xyz
x,y,z
1/2-x,-y,1/2+z
1/2+x,1/2-y,1/2-z
-x,1/2+y,-z
-x,-y,-z
1/2+x,y,1/2-z
1/2-x,1/2+y,1/2+z
x,1/2-y,z
loop_
_atom_site_type_symbol
_atom_site_label
_atom_site_fract_x
_atom_site_fract_y
_atom_site_fract_z
Si Si1 0.678898 0.552055 0.941118
Si Si2 0.409456 0.434226 0.565634
Si Si3 0.351978 0.250000 0.145517
Si Si4 0.426913 0.750000 0.020006
Si Si5 0.163236 0.750000 0.934574
Si Si6 0.512975 0.929578 0.160139
O O1 0.788590 0.487851 0.930428
O O2 0.704828 0.656737 0.904835
O O3 0.577112 0.512782 0.855424
O O4 0.623733 0.549537 0.075869
O O5 0.500000 0.500000 0.500000
O O6 0.392776 0.340515 0.492152
O O7 0.451232 0.414662 0.702225
O O8 0.349875 0.250000 0.290008
O O9 0.480947 0.250000 0.089668
O O10 0.453596 0.840097 0.100349
O O11 0.297955 0.750000 0.971232
#
# Coordination Sequence:
#
# PCOD9466433 Si02
#       6
#     8   8   4   4   4   8
#     4  10  23  42  67  96 128 185 216 276 338 392
#     4  12  27  41  67 103 136 175 223 281 338 395
#     4  10  24  40  68 100 131 172 226 277 329 405
#     4  10  21  45  71  94 125 186 221 272 340 390
#     4  12  25  43  67 100 136 176 223 283 337 401
#     4  10  22  43  68  92 133 170 231 269 332 407
#
# _framework density 19.341694
#
# number of rings (size 3 to 8) (size 9 to 14) (size 15 to 20)
#    0.000    1.333    2.222    2.000    6.222    2.667 
#    0.000    0.000    0.000    0.000    0.000    0.000 
#    0.000    0.000    0.000    0.000    0.000    0.000 
#
# Total GULP energy -201346.343136 kJ/mol
# GULP energy per Si atom -5592.953976 kJ/mol
# Density = 1.929767 g / cm^3
# Si number density = 19.341694 Si / 1000 Ang^3
#
#
#
# Elastic Constant Matrix: (Units=GPa)
#
#
# Indices 1 2 3 4 5 6 
#
# 1 78.4186 49.6719 63.5572 0.0000 0.0000 0.0000
# 2 49.6719 145.3565 40.1826 0.0000 0.0000 0.0000
# 3 63.5572 40.1826 124.7351 0.0000 0.0000 0.0000
# 4 0.0000 0.0000 0.0000 19.3218 0.0000 0.0000
# 5 0.0000 0.0000 0.0000 0.0000 7.9182 0.0000
# 6 0.0000 0.0000 0.0000 0.0000 0.0000 33.6214
#
#
#
# Elastic Compliance Matrix: (Units=1/GPa)
#
#
# Indices 1 2 3 4 5 6 
#
# 1 0.025255 -0.005569 -0.011075 0.000000 0.000000 0.000000
# 2 -0.005569 0.008780 0.000009 0.000000 0.000000 0.000000
# 3 -0.011075 0.000009 0.013657 0.000000 0.000000 0.000000
# 4 0.000000 0.000000 0.000000 0.051755 0.000000 0.000000
# 5 0.000000 0.000000 0.000000 0.000000 0.126291 0.000000
# 6 0.000000 0.000000 0.000000 0.000000 0.000000 0.029743
#
#
# Mechanical properties :
#
#
# Convention : Reuss Voigt Hill
#
# Bulk Modulus (GPa) = 69.33024 72.81483 71.07253
# Shear Modulus (GPa) = 17.03240 25.17884 21.10562
#
# Velocity S-wave (km/s) = 2.97072 3.61195 3.30691
# Velocity P-wave (km/s) = 6.90577 7.42450 7.16983
#
# Compressibility (1/GPa) = 0.01442372
#
# Stress axis : x y z
#
# Youngs Moduli (GPa) = 39.59565 113.89315 73.22279
#
# Poissons Ratio (x) = 0.63426 0.81091
# Poissons Ratio (y) = 0.22050 -0.00067
# Poissons Ratio (z) = 0.43850 -0.00104
#
# Static dielectric constant tensor:
#      x y z
#    x 1.652510 0.000000 0.000000 
#    y 0.000000 1.679220 0.000000 
#    z 0.000000 0.000000 1.688880 
# 
# From -- ./inp_files/12017.got.cif
#   From: 2010.05.17/outbox.cif.g08.bks.cpg/sg62_7_cif.got.tgz:12017.got - 2010.06.03 15:25:27.
