data_PCOD9466883
_publ_section_title
;
Structure prediction by ZEFSAII (Michael W. Deem and Ramdas Pophale) SiO2 
 PCOD9466883
Probable space group: P N M A
;
_chemical_formula_sum "Si O2"
_cell_formula_units_Z 32
_cell_length_a 10.607845
_cell_length_b 12.720849
_cell_length_c 9.376639
_cell_angle_alpha 90.000000
_cell_angle_beta 90.000000
_cell_angle_gamma 90.000000
_cell_volume 1265.291116
_symmetry_space_group_name_H-M "P N M A"
_symmetry_group_IT_number 62
_symmetry_cell_setting 'orthorhombic'
loop_
_space_group_symop_operation_xyz
x,y,z
1/2-x,-y,1/2+z
1/2+x,1/2-y,1/2-z
-x,1/2+y,-z
-x,-y,-z
1/2+x,y,1/2-z
1/2-x,1/2+y,1/2+z
x,1/2-y,z
loop_
_atom_site_type_symbol
_atom_site_label
_atom_site_fract_x
_atom_site_fract_y
_atom_site_fract_z
Si Si1 0.174867 0.877545 0.156023
Si Si2 0.749774 0.365404 0.279381
Si Si3 0.018935 0.876364 0.898805
Si Si4 0.142883 0.534667 0.476202
O O1 0.196375 0.750000 0.158388
O O2 0.169672 0.924055 0.315838
O O3 0.043763 0.895898 0.066265
O O4 0.278927 0.940056 0.058796
O O5 0.728444 0.250000 0.216732
O O6 0.820248 0.365471 0.429276
O O7 0.610778 0.404644 0.321734
O O8 0.857572 0.417585 0.182538
O O9 0.020919 0.750000 0.885554
O O10 0.000000 0.500000 0.500000
#
# Coordination Sequence:
#
# PCOD9466883 Si02
#       4
#     8   8   8   8
#     4  11  27  52  79 115 163 215 274 340 409 486
#     4  10  22  43  73 111 156 208 267 333 404 479
#     4   9  21  42  73 108 153 208 261 328 400 471
#     4  12  29  47  78 117 157 212 271 332 407 491
#
# _framework density 25.290620000000001
#
# number of rings (size 3 to 8) (size 9 to 14) (size 15 to 20)
#    0.000    1.500    0.000    2.250   10.500    3.000 
#    0.000    1.250    0.000    0.000    0.000    0.000 
#    0.000    0.000    0.000    0.000    0.000    0.000 
#
# Total GULP energy -178240.791108 kJ/mol
# GULP energy per Si atom -5570.024722 kJ/mol
# Density = 2.523306 g / cm^3
# Si number density = 25.290620 Si / 1000 Ang^3
#
#
#
# Elastic Constant Matrix: (Units=GPa)
#
#
# Indices 1 2 3 4 5 6 
#
# 1 188.7299 49.5999 93.0125 0.0000 0.0000 0.0000
# 2 49.5999 136.5295 48.3061 0.0000 0.0000 0.0000
# 3 93.0125 48.3061 210.3883 0.0000 0.0000 0.0000
# 4 0.0000 0.0000 0.0000 42.5610 0.0000 0.0000
# 5 0.0000 0.0000 0.0000 0.0000 30.9926 0.0000
# 6 0.0000 0.0000 0.0000 0.0000 0.0000 28.9520
#
#
#
# Elastic Compliance Matrix: (Units=1/GPa)
#
#
# Indices 1 2 3 4 5 6 
#
# 1 0.007080 -0.001594 -0.002764 0.000000 0.000000 0.000000
# 2 -0.001594 0.008331 -0.001208 0.000000 0.000000 0.000000
# 3 -0.002764 -0.001208 0.006252 0.000000 0.000000 0.000000
# 4 0.000000 0.000000 0.000000 0.023496 0.000000 0.000000
# 5 0.000000 0.000000 0.000000 0.000000 0.032266 0.000000
# 6 0.000000 0.000000 0.000000 0.000000 0.000000 0.034540
#
#
# Mechanical properties :
#
#
# Convention : Reuss Voigt Hill
#
# Bulk Modulus (GPa) = 94.95845 101.94274 98.45060
# Shear Modulus (GPa) = 39.49235 43.48309 41.48772
#
# Velocity S-wave (km/s) = 3.95592 4.15099 4.05463
# Velocity P-wave (km/s) = 7.64815 7.96055 7.80591
#
# Compressibility (1/GPa) = 0.01053092
#
# Stress axis : x y z
#
# Youngs Moduli (GPa) = 141.24973 120.03397 159.93807
#
# Poissons Ratio (x) = 0.19134 0.44205
# Poissons Ratio (y) = 0.22516 0.19322
# Poissons Ratio (z) = 0.39040 0.14501
#
# Static dielectric constant tensor:
#      x y z
#    x 2.012820 0.000000 0.000000 
#    y 0.000000 2.040140 0.000000 
#    z 0.000000 0.000000 2.103170 
# 
# From -- ./inp_files/4824.got.cif
#   From: 2010.05.17/outbox.cif.g08.bks.cpg/sg62_3_cif.got.tgz:4824.got - 2010.06.03 15:25:27.
