data_PCOD9466766
_publ_section_title
;
Structure prediction by ZEFSAII (Michael W. Deem and Ramdas Pophale) SiO2 
 PCOD9466766
Probable space group: P N M A
;
_chemical_formula_sum "Si O2"
_cell_formula_units_Z 48
_cell_length_a 16.116000
_cell_length_b 23.921518
_cell_length_c 5.278579
_cell_angle_alpha 90.000000
_cell_angle_beta 90.000000
_cell_angle_gamma 90.000000
_cell_volume 2034.993469
_symmetry_space_group_name_H-M "P N M A"
_symmetry_group_IT_number 62
_symmetry_cell_setting 'orthorhombic'
loop_
_space_group_symop_operation_xyz
x,y,z
1/2-x,-y,1/2+z
1/2+x,1/2-y,1/2-z
-x,1/2+y,-z
-x,-y,-z
1/2+x,y,1/2-z
1/2-x,1/2+y,1/2+z
x,1/2-y,z
loop_
_atom_site_type_symbol
_atom_site_label
_atom_site_fract_x
_atom_site_fract_y
_atom_site_fract_z
Si Si1 0.734650 0.463041 0.945734
Si Si2 0.422307 0.426790 0.947313
Si Si3 0.759727 0.750000 0.627966
Si Si4 0.977223 0.862187 0.083491
Si Si5 0.071362 0.460059 0.257274
Si Si6 0.371849 0.750000 0.376115
Si Si7 0.839998 0.135467 0.148588
O O1 0.763449 0.505667 0.174214
O O2 0.640944 0.447082 0.030994
O O3 0.788410 0.406807 0.971572
O O4 0.474754 0.458917 0.162052
O O5 0.346365 0.395981 0.079799
O O6 0.487813 0.381673 0.852417
O O7 0.411221 0.473481 0.728380
O O8 0.814976 0.750000 0.374069
O O9 0.704298 0.805461 0.643414
O O10 0.816862 0.750000 0.873540
O O11 0.927376 0.805594 0.110219
O O12 0.924708 0.912609 0.956073
O O13 0.064292 0.855616 0.932274
#
# Coordination Sequence:
#
# PCOD9466766 Si02
#       7
#     8   8   4   8   8   4   8
#     4  12  26  42  70 108 151 194 243 310 378 451
#     4  10  22  42  71 107 143 195 245 307 380 457
#     4  12  31  53  76 112 150 198 254 324 377 460
#     4  11  25  45  76 102 147 198 252 312 367 468
#     4  10  22  41  68 109 147 194 242 308 379 456
#     4  12  31  51  78 110 144 208 260 314 389 448
#     4  11  26  46  74 109 150 199 254 313 386 444
#
# _framework density 23.587298000000001
#
# number of rings (size 3 to 8) (size 9 to 14) (size 15 to 20)
#    0.000    1.000    1.667    3.000   11.667    0.667 
#    0.000    0.000    0.000    0.000    0.000    0.000 
#    0.000    0.000    0.000    0.000    0.000    0.000 
#
# Total GULP energy -268243.347610 kJ/mol
# GULP energy per Si atom -5588.403075 kJ/mol
# Density = 2.353361 g / cm^3
# Si number density = 23.587298 Si / 1000 Ang^3
#
#
#
# Elastic Constant Matrix: (Units=GPa)
#
#
# Indices 1 2 3 4 5 6 
#
# 1 113.7905 88.0806 46.9173 0.0000 0.0000 0.0000
# 2 88.0806 219.0313 56.0441 0.0000 0.0000 0.0000
# 3 46.9173 56.0441 111.5795 0.0000 0.0000 0.0000
# 4 0.0000 0.0000 0.0000 26.5384 0.0000 0.0000
# 5 0.0000 0.0000 0.0000 0.0000 44.3623 0.0000
# 6 0.0000 0.0000 0.0000 0.0000 0.0000 48.8091
#
#
#
# Elastic Compliance Matrix: (Units=1/GPa)
#
#
# Indices 1 2 3 4 5 6 
#
# 1 0.013839 -0.004677 -0.003470 0.000000 0.000000 0.000000
# 2 -0.004677 0.006820 -0.001459 0.000000 0.000000 0.000000
# 3 -0.003470 -0.001459 0.011154 0.000000 0.000000 0.000000
# 4 0.000000 0.000000 0.000000 0.037681 0.000000 0.000000
# 5 0.000000 0.000000 0.000000 0.000000 0.022542 0.000000
# 6 0.000000 0.000000 0.000000 0.000000 0.000000 0.020488
#
#
# Mechanical properties :
#
#
# Convention : Reuss Voigt Hill
#
# Bulk Modulus (GPa) = 79.35790 91.83170 85.59480
# Shear Modulus (GPa) = 36.78199 40.83261 38.80730
#
# Velocity S-wave (km/s) = 3.95321 4.16520 4.06058
# Velocity P-wave (km/s) = 7.38610 7.88346 7.63883
#
# Compressibility (1/GPa) = 0.01260114
#
# Stress axis : x y z
#
# Youngs Moduli (GPa) = 72.25759 146.63248 89.65516
#
# Poissons Ratio (x) = 0.68587 0.31109
# Poissons Ratio (y) = 0.33798 0.13077
# Poissons Ratio (z) = 0.25072 0.21388
#
# Static dielectric constant tensor:
#      x y z
#    x 1.941380 0.000000 0.000000 
#    y 0.000000 1.875120 0.000000 
#    z 0.000000 0.000000 1.981340 
# 
# From -- ./inp_files/1739.got.cif
#   From: 2010.05.17/outbox.cif.g08.bks.cpg/sg62_1_cif.got.tgz:1739.got - 2010.06.03 15:25:27.
