data_PCOD9466659
_publ_section_title
;
Structure prediction by ZEFSAII (Michael W. Deem and Ramdas Pophale) SiO2 
 PCOD9466659
Probable space group: P N M A
;
_chemical_formula_sum "Si O2"
_cell_formula_units_Z 64
_cell_length_a 13.262827
_cell_length_b 28.354729
_cell_length_c 8.395127
_cell_angle_alpha 90.000000
_cell_angle_beta 90.000000
_cell_angle_gamma 90.000000
_cell_volume 3157.103910
_symmetry_space_group_name_H-M "P N M A"
_symmetry_group_IT_number 62
_symmetry_cell_setting 'orthorhombic'
loop_
_space_group_symop_operation_xyz
x,y,z
1/2-x,-y,1/2+z
1/2+x,1/2-y,1/2-z
-x,1/2+y,-z
-x,-y,-z
1/2+x,y,1/2-z
1/2-x,1/2+y,1/2+z
x,1/2-y,z
loop_
_atom_site_type_symbol
_atom_site_label
_atom_site_fract_x
_atom_site_fract_y
_atom_site_fract_z
Si Si1 0.439823 0.303540 0.349962
Si Si2 0.860191 0.363580 0.732316
Si Si3 0.502955 0.102132 0.508752
Si Si4 0.735474 0.194294 0.977257
Si Si5 0.207091 0.436964 0.848432
Si Si6 0.499361 0.055923 0.172633
Si Si7 0.010849 0.340840 0.475090
Si Si8 0.170200 0.488161 0.525800
O O1 0.461184 0.250000 0.403776
O O2 0.503141 0.344174 0.440112
O O3 0.321871 0.313299 0.388121
O O4 0.464583 0.309025 0.164726
O O5 0.786728 0.327514 0.821007
O O6 0.793376 0.397996 0.625694
O O7 0.947558 0.336858 0.636708
O O8 0.913363 0.396453 0.864379
O O9 0.602803 0.085721 0.597609
O O10 0.488616 0.068087 0.358016
O O11 0.719129 0.250000 0.962631
O O12 0.628692 0.170157 0.008452
O O13 0.201248 0.451077 0.661901
O O14 0.238138 0.482213 0.952757
O O15 0.496334 0.105403 0.080444
O O16 0.409814 0.022451 0.114004
O O17 0.606202 0.033516 0.120666
#
# Coordination Sequence:
#
# PCOD9466659 Si02
#       8
#     8   8   8   8   8   8   8   8
#     4   9  21  42  67  96 126 165 215 268 322 396
#     4  11  23  41  62  91 131 167 212 268 323 389
#     4  10  23  41  64  90 127 174 207 264 331 384
#     4  10  22  40  64  95 127 166 211 259 326 397
#     4  12  25  41  63  94 127 171 221 265 334 381
#     4  10  22  42  62  90 124 167 216 270 323 380
#     4  11  21  41  67  92 130 169 212 265 329 386
#     4  11  24  40  63  92 127 167 222 276 311 396
#
# _framework density 20.271744000000002
#
# number of rings (size 3 to 8) (size 9 to 14) (size 15 to 20)
#    0.000    1.500    1.250    3.375    3.500    3.500 
#    6.750    3.125    0.000    0.000    0.000    0.000 
#    0.000    0.000    0.000    0.000    0.000    0.000 
#
# Total GULP energy -357585.053514 kJ/mol
# GULP energy per Si atom -5587.266461 kJ/mol
# Density = 2.022560 g / cm^3
# Si number density = 20.271744 Si / 1000 Ang^3
#
#
#
# Elastic Constant Matrix: (Units=GPa)
#
#
# Indices 1 2 3 4 5 6 
#
# 1 79.4562 24.3311 14.6435 0.0000 0.0000 0.0000
# 2 24.3311 41.1639 -9.2826 0.0000 0.0000 0.0000
# 3 14.6435 -9.2826 46.9774 0.0000 0.0000 0.0000
# 4 0.0000 0.0000 0.0000 17.2467 0.0000 0.0000
# 5 0.0000 0.0000 0.0000 0.0000 25.1689 0.0000
# 6 0.0000 0.0000 0.0000 0.0000 0.0000 32.5957
#
#
#
# Elastic Compliance Matrix: (Units=1/GPa)
#
#
# Indices 1 2 3 4 5 6 
#
# 1 0.017842 -0.012351 -0.008002 0.000000 0.000000 0.000000
# 2 -0.012351 0.033975 0.010563 0.000000 0.000000 0.000000
# 3 -0.008002 0.010563 0.025869 0.000000 0.000000 0.000000
# 4 0.000000 0.000000 0.000000 0.057982 0.000000 0.000000
# 5 0.000000 0.000000 0.000000 0.000000 0.039732 0.000000
# 6 0.000000 0.000000 0.000000 0.000000 0.000000 0.030679
#
#
# Mechanical properties :
#
#
# Convention : Reuss Voigt Hill
#
# Bulk Modulus (GPa) = 17.20958 25.22017 21.21487
# Shear Modulus (GPa) = 20.40591 24.19597 22.30094
#
# Velocity S-wave (km/s) = 3.17617 3.45857 3.32037
# Velocity P-wave (km/s) = 4.68600 5.33076 5.01875
#
# Compressibility (1/GPa) = 0.05810717
#
# Stress axis : x y z
#
# Youngs Moduli (GPa) = 56.04637 29.43304 38.65699
#
# Poissons Ratio (x) = 0.36352 0.30934
# Poissons Ratio (y) = 0.69221 -0.40835
# Poissons Ratio (z) = 0.44849 -0.31091
#
# Static dielectric constant tensor:
#      x y z
#    x 1.679330 0.000000 0.000000 
#    y 0.000000 1.722620 0.000000 
#    z 0.000000 0.000000 1.736860 
# 
# From -- ./inp_files/5546.got.cif
#   From: 2010.05.17/outbox.cif.g08.bks.cpg/sg62_3_cif.got.tgz:5546.got - 2010.06.03 15:25:27.
