data_PCOD9466519
_publ_section_title
;
Structure prediction by ZEFSAII (Michael W. Deem and Ramdas Pophale) SiO2 
 PCOD9466519
Probable space group: P N M A
;
_chemical_formula_sum "Si O2"
_cell_formula_units_Z 56
_cell_length_a 19.725860
_cell_length_b 20.382802
_cell_length_c 7.112166
_cell_angle_alpha 90.000000
_cell_angle_beta 90.000000
_cell_angle_gamma 90.000000
_cell_volume 2859.576483
_symmetry_space_group_name_H-M "P N M A"
_symmetry_group_IT_number 62
_symmetry_cell_setting 'orthorhombic'
loop_
_space_group_symop_operation_xyz
x,y,z
1/2-x,-y,1/2+z
1/2+x,1/2-y,1/2-z
-x,1/2+y,-z
-x,-y,-z
1/2+x,y,1/2-z
1/2-x,1/2+y,1/2+z
x,1/2-y,z
loop_
_atom_site_type_symbol
_atom_site_label
_atom_site_fract_x
_atom_site_fract_y
_atom_site_fract_z
Si Si1 0.679562 0.029921 0.171073
Si Si2 0.355920 0.597467 0.217230
Si Si3 0.244839 0.900290 0.486294
Si Si4 0.508933 0.325442 0.875182
Si Si5 0.480812 0.174530 0.447779
Si Si6 0.612055 0.828165 0.872333
Si Si7 0.063447 0.044485 0.054952
O O1 0.718373 0.074216 0.324602
O O2 0.606218 0.019188 0.267932
O O3 0.826968 0.935894 0.468838
O O4 0.718409 0.962611 0.132306
O O5 0.298950 0.633295 0.344830
O O6 0.419108 0.640407 0.147692
O O7 0.388336 0.547605 0.370825
O O8 0.180085 0.859823 0.552999
O O9 0.520862 0.250000 0.927968
O O10 0.474127 0.327464 0.671154
O O11 0.454516 0.354269 0.018468
O O12 0.501183 0.250000 0.397343
O O13 0.410120 0.160572 0.343086
O O14 0.536142 0.118398 0.403464
O O15 0.616459 0.750000 0.903231
O O16 0.000000 0.000000 0.000000
#
# Coordination Sequence:
#
# PCOD9466519 Si02
#       7
#     8   8   8   8   8   8   8
#     4  11  23  40  56  83 117 163 197 242 308 349
#     4  10  22  40  58  86 119 160 199 241 303 355
#     4  11  24  39  59  82 123 163 201 246 292 365
#     4   9  19  38  63  89 117 150 194 250 302 354
#     4   9  19  37  57  84 121 151 184 241 305 359
#     4  10  22  38  61  90 117 157 201 246 302 355
#     4  10  23  36  60  96 116 146 205 252 299 362
#
# _framework density 19.583321000000002
#
# number of rings (size 3 to 8) (size 9 to 14) (size 15 to 20)
#    0.000    2.000    1.429    0.857    6.000    2.286 
#    0.000    2.857    0.000    0.000    0.000    0.000 
#    0.000    0.000    0.000    0.000    0.000    0.000 
#
# Total GULP energy -312298.472714 kJ/mol
# GULP energy per Si atom -5576.758441 kJ/mol
# Density = 1.953875 g / cm^3
# Si number density = 19.583321 Si / 1000 Ang^3
#
#
#
# Elastic Constant Matrix: (Units=GPa)
#
#
# Indices 1 2 3 4 5 6 
#
# 1 93.5691 34.1231 38.7786 0.0000 0.0000 0.0000
# 2 34.1231 35.4742 25.2084 0.0000 0.0000 0.0000
# 3 38.7786 25.2084 92.2901 0.0000 0.0000 0.0000
# 4 0.0000 0.0000 0.0000 16.3004 0.0000 0.0000
# 5 0.0000 0.0000 0.0000 0.0000 36.9080 0.0000
# 6 0.0000 0.0000 0.0000 0.0000 0.0000 23.0472
#
#
#
# Elastic Compliance Matrix: (Units=1/GPa)
#
#
# Indices 1 2 3 4 5 6 
#
# 1 0.017269 -0.014214 -0.003374 0.000000 0.000000 0.000000
# 2 -0.014214 0.046678 -0.006777 0.000000 0.000000 0.000000
# 3 -0.003374 -0.006777 0.014104 0.000000 0.000000 0.000000
# 4 0.000000 0.000000 0.000000 0.061348 0.000000 0.000000
# 5 0.000000 0.000000 0.000000 0.000000 0.027094 0.000000
# 6 0.000000 0.000000 0.000000 0.000000 0.000000 0.043389
#
#
# Mechanical properties :
#
#
# Convention : Reuss Voigt Hill
#
# Bulk Modulus (GPa) = 34.10488 46.39486 40.24987
# Shear Modulus (GPa) = 18.62981 23.46601 21.04791
#
# Velocity S-wave (km/s) = 3.08768 3.46535 3.28195
# Velocity P-wave (km/s) = 5.49224 6.30508 5.91264
#
# Compressibility (1/GPa) = 0.02932132
#
# Stress axis : x y z
#
# Youngs Moduli (GPa) = 57.90700 21.42330 70.90104
#
# Poissons Ratio (x) = 0.30451 0.23920
# Poissons Ratio (y) = 0.82309 0.48052
# Poissons Ratio (z) = 0.19536 0.14519
#
# Static dielectric constant tensor:
#      x y z
#    x 1.706220 0.000000 0.000000 
#    y 0.000000 1.704140 0.000000 
#    z 0.000000 0.000000 1.703870 
# 
# From -- ./inp_files/8043.got.cif
#   From: 2010.05.17/outbox.cif.g08.bks.cpg/sg62_5_cif.got.tgz:8043.got - 2010.06.03 15:25:27.
