data_PCOD9466971
_publ_section_title
;
Structure prediction by ZEFSAII (Michael W. Deem and Ramdas Pophale) SiO2 
 PCOD9466971
Probable space group: P N M A
;
_chemical_formula_sum "Si O2"
_cell_formula_units_Z 48
_cell_length_a 31.403065
_cell_length_b 8.732525
_cell_length_c 9.090059
_cell_angle_alpha 90.000000
_cell_angle_beta 90.000000
_cell_angle_gamma 90.000000
_cell_volume 2492.749156
_symmetry_space_group_name_H-M "P N M A"
_symmetry_group_IT_number 62
_symmetry_cell_setting 'orthorhombic'
loop_
_space_group_symop_operation_xyz
x,y,z
1/2-x,-y,1/2+z
1/2+x,1/2-y,1/2-z
-x,1/2+y,-z
-x,-y,-z
1/2+x,y,1/2-z
1/2-x,1/2+y,1/2+z
x,1/2-y,z
loop_
_atom_site_type_symbol
_atom_site_label
_atom_site_fract_x
_atom_site_fract_y
_atom_site_fract_z
Si Si1 0.210803 0.567432 0.423829
Si Si2 0.459796 0.566180 0.912609
Si Si3 0.122916 0.432995 0.924355
Si Si4 0.627963 0.066249 0.921045
Si Si5 0.040664 0.932741 0.084642
Si Si6 0.706115 0.932791 0.422069
O O1 0.216493 0.750000 0.436951
O O2 0.167464 0.516616 0.502817
O O3 0.208419 0.528855 0.250923
O O4 0.250610 0.484572 0.499265
O O5 0.463083 0.750000 0.905113
O O6 0.458510 0.497789 0.749605
O O7 0.500000 0.500000 0.000000
O O8 0.416188 0.527634 0.998185
O O9 0.117591 0.250000 0.937557
O O10 0.125110 0.471709 0.751460
O O11 0.083162 0.514656 0.000827
O O12 0.166248 0.484531 0.002715
O O13 0.634309 0.250000 0.933070
O O14 0.037949 0.750000 0.088572
O O15 0.000000 0.000000 0.000000
O O16 0.700834 0.750000 0.435586
#
# Coordination Sequence:
#
# PCOD9466971 Si02
#       6
#     8   8   8   8   8   8
#     4  11  24  40  61  89 120 157 202 251 302 360
#     4  11  23  41  65  93 126 165 207 255 311 368
#     4  11  23  41  64  92 124 159 203 252 304 364
#     4  10  23  41  62  89 122 159 200 248 302 364
#     4  12  25  42  64  92 125 163 208 256 309 368
#     4  11  24  41  61  89 123 159 202 250 303 364
#
# _framework density 19.255849000000001
#
# number of rings (size 3 to 8) (size 9 to 14) (size 15 to 20)
#    0.000    1.000    0.000    6.500    0.000   13.333 
#    0.000    0.000    0.000    0.000    0.000    0.000 
#    0.000    0.000    0.000    0.000    0.000    0.000 
#
# Total GULP energy -268719.421113 kJ/mol
# GULP energy per Si atom -5598.321273 kJ/mol
# Density = 1.921202 g / cm^3
# Si number density = 19.255849 Si / 1000 Ang^3
#
#
#
# Elastic Constant Matrix: (Units=GPa)
#
#
# Indices 1 2 3 4 5 6 
#
# 1 153.5039 60.9521 80.6261 0.0000 0.0000 0.0000
# 2 60.9521 82.7055 72.2652 0.0000 0.0000 0.0000
# 3 80.6261 72.2652 177.9461 0.0000 0.0000 0.0000
# 4 0.0000 0.0000 0.0000 34.3605 0.0000 0.0000
# 5 0.0000 0.0000 0.0000 0.0000 42.7189 0.0000
# 6 0.0000 0.0000 0.0000 0.0000 0.0000 41.6381
#
#
#
# Elastic Compliance Matrix: (Units=1/GPa)
#
#
# Indices 1 2 3 4 5 6 
#
# 1 0.009798 -0.005180 -0.002336 0.000000 0.000000 0.000000
# 2 -0.005180 0.021480 -0.006376 0.000000 0.000000 0.000000
# 3 -0.002336 -0.006376 0.009267 0.000000 0.000000 0.000000
# 4 0.000000 0.000000 0.000000 0.029103 0.000000 0.000000
# 5 0.000000 0.000000 0.000000 0.000000 0.023409 0.000000
# 6 0.000000 0.000000 0.000000 0.000000 0.000000 0.024016
#
#
# Mechanical properties :
#
#
# Convention : Reuss Voigt Hill
#
# Bulk Modulus (GPa) = 78.36061 93.53802 85.94932
# Shear Modulus (GPa) = 33.53185 37.09762 35.31473
#
# Velocity S-wave (km/s) = 4.17752 4.39403 4.28714
# Velocity P-wave (km/s) = 8.00323 8.62700 8.32096
#
# Compressibility (1/GPa) = 0.01276151
#
# Stress axis : x y z
#
# Youngs Moduli (GPa) = 102.05918 46.55512 107.90515
#
# Poissons Ratio (x) = 0.24116 0.25205
# Poissons Ratio (y) = 0.52868 0.68801
# Poissons Ratio (z) = 0.23839 0.29684
#
# Static dielectric constant tensor:
#      x y z
#    x 1.623410 0.000000 0.000000 
#    y 0.000000 1.645260 0.000000 
#    z 0.000000 0.000000 1.638240 
# 
# From -- ./inp_files/10237.got.cif
#   From: 2010.05.17/outbox.cif.g08.bks.cpg/sg62_6_cif.got.tgz:10237.got - 2010.06.03 15:25:27.
