data_PCOD9466384
_publ_section_title
;
Structure prediction by ZEFSAII (Michael W. Deem and Ramdas Pophale) SiO2 
 PCOD9466384
Probable space group: P N M A
;
_chemical_formula_sum "Si O2"
_cell_formula_units_Z 40
_cell_length_a 12.686911
_cell_length_b 8.497751
_cell_length_c 19.220607
_cell_angle_alpha 90.000000
_cell_angle_beta 90.000000
_cell_angle_gamma 90.000000
_cell_volume 2072.177689
_symmetry_space_group_name_H-M "P N M A"
_symmetry_group_IT_number 62
_symmetry_cell_setting 'orthorhombic'
loop_
_space_group_symop_operation_xyz
x,y,z
1/2-x,-y,1/2+z
1/2+x,1/2-y,1/2-z
-x,1/2+y,-z
-x,-y,-z
1/2+x,y,1/2-z
1/2-x,1/2+y,1/2+z
x,1/2-y,z
loop_
_atom_site_type_symbol
_atom_site_label
_atom_site_fract_x
_atom_site_fract_y
_atom_site_fract_z
Si Si1 0.399250 0.561272 0.185176
Si Si2 0.958092 0.438703 0.164080
Si Si3 0.180132 0.940353 0.113907
Si Si4 0.943476 0.561014 0.569685
Si Si5 0.296076 0.441673 0.454247
O O1 0.401153 0.750000 0.185046
O O2 0.414370 0.499996 0.262887
O O3 0.287829 0.509723 0.151839
O O4 0.492698 0.500630 0.135798
O O5 0.956811 0.250000 0.164806
O O6 0.076463 0.496678 0.151230
O O7 0.883889 0.494543 0.100502
O O8 0.177512 0.750000 0.114523
O O9 0.182285 0.992980 0.033299
O O10 0.945772 0.750000 0.569212
O O11 0.821422 0.509791 0.568212
O O12 0.000000 0.500000 0.500000
O O13 0.297135 0.250000 0.454723
#
# Coordination Sequence:
#
# PCOD9466384 Si02
#       5
#     8   8   8   8   8
#     4  11  24  42  62  89 125 166 207 254 311 366
#     4  11  24  40  62  92 125 161 205 257 312 369
#     4  10  21  42  65  87 123 163 204 254 308 370
#     4  11  21  39  64  93 124 161 205 253 307 365
#     4   9  20  40  64  90 122 158 200 254 308 363
#
# _framework density 19.303362
#
# number of rings (size 3 to 8) (size 9 to 14) (size 15 to 20)
#    0.000    1.600    2.000    2.400    2.800    1.600 
#    0.000    4.000    0.000    0.000    0.000    0.000 
#    0.000    0.000    0.000    0.000    0.000    0.000 
#
# Total GULP energy -223600.283695 kJ/mol
# GULP energy per Si atom -5590.007092 kJ/mol
# Density = 1.925943 g / cm^3
# Si number density = 19.303362 Si / 1000 Ang^3
#
#
#
# Elastic Constant Matrix: (Units=GPa)
#
#
# Indices 1 2 3 4 5 6 
#
# 1 73.1520 22.6351 55.9496 0.0000 0.0000 0.0000
# 2 22.6351 32.0031 26.9588 0.0000 0.0000 0.0000
# 3 55.9496 26.9588 164.2159 0.0000 0.0000 0.0000
# 4 0.0000 0.0000 0.0000 32.7206 0.0000 0.0000
# 5 0.0000 0.0000 0.0000 0.0000 33.6580 0.0000
# 6 0.0000 0.0000 0.0000 0.0000 0.0000 17.7303
#
#
#
# Elastic Compliance Matrix: (Units=1/GPa)
#
#
# Indices 1 2 3 4 5 6 
#
# 1 0.021039 -0.010261 -0.005484 0.000000 0.000000 0.000000
# 2 -0.010261 0.041266 -0.003278 0.000000 0.000000 0.000000
# 3 -0.005484 -0.003278 0.008496 0.000000 0.000000 0.000000
# 4 0.000000 0.000000 0.000000 0.030562 0.000000 0.000000
# 5 0.000000 0.000000 0.000000 0.000000 0.029711 0.000000
# 6 0.000000 0.000000 0.000000 0.000000 0.000000 0.056401
#
#
# Mechanical properties :
#
#
# Convention : Reuss Voigt Hill
#
# Bulk Modulus (GPa) = 30.52985 53.38422 41.95704
# Shear Modulus (GPa) = 21.14700 27.74362 24.44531
#
# Velocity S-wave (km/s) = 3.31344 3.79521 3.56248
# Velocity P-wave (km/s) = 5.52165 6.84984 6.22129
#
# Compressibility (1/GPa) = 0.03275483
#
# Stress axis : x y z
#
# Youngs Moduli (GPa) = 47.52970 24.23284 117.70093
#
# Poissons Ratio (x) = 0.24866 0.64544
# Poissons Ratio (y) = 0.48772 0.38588
# Poissons Ratio (z) = 0.26064 0.07945
#
# Static dielectric constant tensor:
#      x y z
#    x 1.648010 0.000000 0.000000 
#    y 0.000000 1.661900 0.000000 
#    z 0.000000 0.000000 1.644230 
# 
# From -- ./inp_files/22764.got.cif
#   From: 2010.05.17/outbox.cif.g08.bks.cpg/sg62_12_cif.got.tgz:22764.got - 2010.06.03 15:25:27.
