data_PCOD9466566
_publ_section_title
;
Structure prediction by ZEFSAII (Michael W. Deem and Ramdas Pophale) SiO2 
 PCOD9466566
Probable space group: P N M A
;
_chemical_formula_sum "Si O2"
_cell_formula_units_Z 40
_cell_length_a 8.087874
_cell_length_b 24.677524
_cell_length_c 9.663395
_cell_angle_alpha 90.000000
_cell_angle_beta 90.000000
_cell_angle_gamma 90.000000
_cell_volume 1928.704491
_symmetry_space_group_name_H-M "P N M A"
_symmetry_group_IT_number 62
_symmetry_cell_setting 'orthorhombic'
loop_
_space_group_symop_operation_xyz
x,y,z
1/2-x,-y,1/2+z
1/2+x,1/2-y,1/2-z
-x,1/2+y,-z
-x,-y,-z
1/2+x,y,1/2-z
1/2-x,1/2+y,1/2+z
x,1/2-y,z
loop_
_atom_site_type_symbol
_atom_site_label
_atom_site_fract_x
_atom_site_fract_y
_atom_site_fract_z
Si Si1 0.420805 0.372474 0.384631
Si Si2 0.266007 0.917388 0.153399
Si Si3 0.377930 0.528642 0.608474
Si Si4 0.245548 0.813744 0.638895
Si Si5 0.133914 0.895258 0.435563
O O1 0.339744 0.392404 0.527290
O O2 0.508777 0.426049 0.317694
O O3 0.569953 0.330376 0.406714
O O4 0.293001 0.344399 0.282254
O O5 0.235609 0.885421 0.294752
O O6 0.454947 0.916644 0.106677
O O7 0.206019 0.978811 0.186822
O O8 0.500000 0.500000 0.500000
O O9 0.238233 0.561988 0.526330
O O10 0.225065 0.750000 0.652348
O O11 0.124799 0.840983 0.526515
#
# Coordination Sequence:
#
# PCOD9466566 Si02
#       5
#     8   8   8   8   8
#     4  10  22  39  62  90 120 155 203 249 303 375
#     4  11  22  40  61  91 126 161 200 250 308 373
#     4   9  20  36  58  89 124 159 194 240 301 365
#     4  11  23  42  63  88 119 159 207 262 313 362
#     4  11  23  39  62  90 124 162 207 253 304 369
#
# _framework density 20.739311000000001
#
# number of rings (size 3 to 8) (size 9 to 14) (size 15 to 20)
#    0.000    1.600    0.000    6.000    0.000   11.200 
#    0.000    6.000    0.000    0.000    0.000    0.000 
#    0.000    0.000    0.000    0.000    0.000    0.000 
#
# Total GULP energy -223538.799344 kJ/mol
# GULP energy per Si atom -5588.469984 kJ/mol
# Density = 2.069211 g / cm^3
# Si number density = 20.739311 Si / 1000 Ang^3
#
#
#
# Elastic Constant Matrix: (Units=GPa)
#
#
# Indices 1 2 3 4 5 6 
#
# 1 71.9623 21.1697 5.7369 0.0000 0.0000 0.0000
# 2 21.1697 133.5337 42.0547 0.0000 0.0000 0.0000
# 3 5.7369 42.0547 84.6802 0.0000 0.0000 0.0000
# 4 0.0000 0.0000 0.0000 22.0076 0.0000 0.0000
# 5 0.0000 0.0000 0.0000 0.0000 29.0927 0.0000
# 6 0.0000 0.0000 0.0000 0.0000 0.0000 19.1198
#
#
#
# Elastic Compliance Matrix: (Units=1/GPa)
#
#
# Indices 1 2 3 4 5 6 
#
# 1 0.014579 -0.002371 0.000190 0.000000 0.000000 0.000000
# 2 -0.002371 0.009263 -0.004440 0.000000 0.000000 0.000000
# 3 0.000190 -0.004440 0.014001 0.000000 0.000000 0.000000
# 4 0.000000 0.000000 0.000000 0.045439 0.000000 0.000000
# 5 0.000000 0.000000 0.000000 0.000000 0.034373 0.000000
# 6 0.000000 0.000000 0.000000 0.000000 0.000000 0.052302
#
#
# Mechanical properties :
#
#
# Convention : Reuss Voigt Hill
#
# Bulk Modulus (GPa) = 40.64872 47.56653 44.10763
# Shear Modulus (GPa) = 26.12363 28.79169 27.45766
#
# Velocity S-wave (km/s) = 3.55296 3.72999 3.64255
# Velocity P-wave (km/s) = 6.03935 6.44481 6.24537
#
# Compressibility (1/GPa) = 0.02460102
#
# Stress axis : x y z
#
# Youngs Moduli (GPa) = 68.59401 107.95863 71.42305
#
# Poissons Ratio (x) = 0.25597 -0.01356
# Poissons Ratio (y) = 0.16264 0.31709
# Poissons Ratio (z) = -0.01302 0.47929
#
# Static dielectric constant tensor:
#      x y z
#    x 1.780790 0.000000 0.000000 
#    y 0.000000 1.741380 0.000000 
#    z 0.000000 0.000000 1.741940 
# 
# From -- ./inp_files/4301.got.cif
#   From: 2010.05.17/outbox.cif.g08.bks.cpg/sg62_3_cif.got.tgz:4301.got - 2010.06.03 15:25:27.
