data_PCOD9466157
_publ_section_title
;
Structure prediction by ZEFSAII (Michael W. Deem and Ramdas Pophale) SiO2 
 PCOD9466157
Probable space group: P N M A
;
_chemical_formula_sum "Si O2"
_cell_formula_units_Z 32
_cell_length_a 16.109687
_cell_length_b 14.587954
_cell_length_c 6.417890
_cell_angle_alpha 90.000000
_cell_angle_beta 90.000000
_cell_angle_gamma 90.000000
_cell_volume 1508.251469
_symmetry_space_group_name_H-M "P N M A"
_symmetry_group_IT_number 62
_symmetry_cell_setting 'orthorhombic'
loop_
_space_group_symop_operation_xyz
x,y,z
1/2-x,-y,1/2+z
1/2+x,1/2-y,1/2-z
-x,1/2+y,-z
-x,-y,-z
1/2+x,y,1/2-z
1/2-x,1/2+y,1/2+z
x,1/2-y,z
loop_
_atom_site_type_symbol
_atom_site_label
_atom_site_fract_x
_atom_site_fract_y
_atom_site_fract_z
Si Si1 0.836026 0.250000 0.730100
Si Si2 0.049345 0.750000 0.638232
Si Si3 0.903868 0.395517 0.025473
Si Si4 0.808095 0.750000 0.881838
Si Si5 0.094640 0.102358 0.880508
Si Si6 0.871495 0.750000 0.471322
O O1 0.919691 0.250000 0.595890
O O2 0.842044 0.340668 0.872908
O O3 0.766703 0.250000 0.549797
O O4 0.951307 0.750000 0.619248
O O5 0.082176 0.836377 0.766814
O O6 0.994826 0.396776 0.913294
O O7 0.879146 0.497157 0.094418
O O8 0.795110 0.750000 0.633413
O O9 0.860579 0.659973 0.939564
O O10 0.120485 0.160053 0.674909
#
# Coordination Sequence:
#
# PCOD9466157 Si02
#       6
#     4   4   8   4   8   4
#     4  11  23  41  61  91 137 170 210 279 336 383
#     4  11  19  36  60  92 127 172 213 269 327 381
#     4  10  21  39  66  95 127 167 228 269 322 388
#     4  11  23  41  61  91 135 175 216 271 338 396
#     4  10  21  39  66  95 125 172 222 273 314 399
#     4  11  19  36  64  96 133 171 217 267 327 396
#
# _framework density 21.216622000000001
#
# number of rings (size 3 to 8) (size 9 to 14) (size 15 to 20)
#    0.000    1.500    5.000    1.500    0.000    7.000 
#    4.500    0.000    0.000    0.000    0.000    0.000 
#    0.000    0.000    0.000    0.000    0.000    0.000 
#
# Total GULP energy -178586.479904 kJ/mol
# GULP energy per Si atom -5580.827497 kJ/mol
# Density = 2.116833 g / cm^3
# Si number density = 21.216622 Si / 1000 Ang^3
#
#
#
# Elastic Constant Matrix: (Units=GPa)
#
#
# Indices 1 2 3 4 5 6 
#
# 1 64.3202 30.3587 28.6227 0.0000 0.0000 0.0000
# 2 30.3587 221.5078 90.9576 0.0000 0.0000 0.0000
# 3 28.6227 90.9576 132.6535 0.0000 0.0000 0.0000
# 4 0.0000 0.0000 0.0000 -9.0997 0.0000 0.0000
# 5 0.0000 0.0000 0.0000 0.0000 46.7487 0.0000
# 6 0.0000 0.0000 0.0000 0.0000 0.0000 0.2791
#
#
#
# Elastic Compliance Matrix: (Units=1/GPa)
#
#
# Indices 1 2 3 4 5 6 
#
# 1 0.017415 -0.001175 -0.002952 0.000000 0.000000 0.000000
# 2 -0.001175 0.006363 -0.004110 0.000000 0.000000 0.000000
# 3 -0.002952 -0.004110 0.010993 0.000000 0.000000 0.000000
# 4 0.000000 0.000000 0.000000 -0.109894 0.000000 0.000000
# 5 0.000000 0.000000 0.000000 0.000000 0.021391 0.000000
# 6 0.000000 0.000000 0.000000 0.000000 0.000000 3.583015
#
#
# Mechanical properties :
#
#
# Convention : Reuss Voigt Hill
#
# Bulk Modulus (GPa) = 54.64842 79.81773 67.23307
# Shear Modulus (GPa) = 1.40771 25.48846 13.44809
#
# Velocity S-wave (km/s) = 0.81544 3.46980 2.52036
# Velocity P-wave (km/s) = 5.16719 7.33176 6.34250
#
# Compressibility (1/GPa) = 0.01829879
#
# Stress axis : x y z
#
# Youngs Moduli (GPa) = 57.42048 157.15895 90.96459
#
# Poissons Ratio (x) = 0.18459 0.26856
# Poissons Ratio (y) = 0.06744 0.37382
# Poissons Ratio (z) = 0.16953 0.64585
#
# Static dielectric constant tensor:
#      x y z
#    x 1.855510 0.000000 0.000000 
#    y 0.000000 1.731640 0.000000 
#    z 0.000000 0.000000 1.772790 
# 
# From -- ./inp_files/1484.got.cif
#   From: 2010.05.17/outbox.cif.g08.bks.cpg/sg62_1_cif.got.tgz:1484.got - 2010.06.03 15:25:27.
