data_PCOD9466872
_publ_section_title
;
Structure prediction by ZEFSAII (Michael W. Deem and Ramdas Pophale) SiO2 
 PCOD9466872
Probable space group: P N M A
;
_chemical_formula_sum "Si O2"
_cell_formula_units_Z 48
_cell_length_a 5.115975
_cell_length_b 14.192588
_cell_length_c 26.783768
_cell_angle_alpha 90.000000
_cell_angle_beta 90.000000
_cell_angle_gamma 90.000000
_cell_volume 1944.740612
_symmetry_space_group_name_H-M "P N M A"
_symmetry_group_IT_number 62
_symmetry_cell_setting 'orthorhombic'
loop_
_space_group_symop_operation_xyz
x,y,z
1/2-x,-y,1/2+z
1/2+x,1/2-y,1/2-z
-x,1/2+y,-z
-x,-y,-z
1/2+x,y,1/2-z
1/2-x,1/2+y,1/2+z
x,1/2-y,z
loop_
_atom_site_type_symbol
_atom_site_label
_atom_site_fract_x
_atom_site_fract_y
_atom_site_fract_z
Si Si1 0.204359 0.750000 0.417966
Si Si2 0.354657 0.444466 0.864851
Si Si3 0.696189 0.750000 0.486886
Si Si4 0.447882 0.579920 0.958474
Si Si5 0.703887 0.141963 0.786482
Si Si6 0.229588 0.750000 0.588538
Si Si7 0.412287 0.436003 0.283060
Si Si8 0.278768 0.250000 0.343620
O O1 0.238255 0.655190 0.386373
O O2 0.418837 0.750000 0.461037
O O3 0.920954 0.750000 0.444223
O O4 0.381552 0.520469 0.908957
O O5 0.618489 0.420108 0.834098
O O6 0.160134 0.488287 0.824760
O O7 0.742741 0.845584 0.518309
O O8 0.672393 0.654428 0.942190
O O9 0.500000 0.500000 0.000000
O O10 0.464060 0.131961 0.746878
O O11 0.704905 0.250000 0.804748
O O12 0.514318 0.750000 0.611603
O O13 0.011058 0.750000 0.633048
O O14 0.705002 0.441478 0.262398
O O15 0.342799 0.338823 0.309734
#
# Coordination Sequence:
#
# PCOD9466872 Si02
#       8
#     4   8   4   8   8   4   8   4
#     4  12  28  49  76 106 151 193 252 309 373 448
#     4  12  25  48  74 112 145 200 250 306 376 451
#     4  11  28  52  70 111 150 190 249 314 374 445
#     4  11  25  50  79 110 151 198 252 318 383 451
#     4  10  22  43  68  98 141 186 233 294 359 428
#     4  11  26  49  76 111 147 200 246 317 376 451
#     4  12  27  47  74 111 151 195 249 307 370 448
#     4  12  24  50  78 108 152 195 253 300 381 444
#
# _framework density 24.681956
#
# number of rings (size 3 to 8) (size 9 to 14) (size 15 to 20)
#    0.000    0.667    4.167    2.500    0.000    7.333 
#    0.000    0.000    0.000    0.000    0.000    0.000 
#    0.000    0.000    0.000    0.000    0.000    0.000 
#
# Total GULP energy -269092.623534 kJ/mol
# GULP energy per Si atom -5606.096324 kJ/mol
# Density = 2.462578 g / cm^3
# Si number density = 24.681956 Si / 1000 Ang^3
#
#
#
# Elastic Constant Matrix: (Units=GPa)
#
#
# Indices 1 2 3 4 5 6 
#
# 1 85.1247 19.3045 30.4011 0.0000 0.0000 0.0000
# 2 19.3045 209.3362 90.1910 0.0000 0.0000 0.0000
# 3 30.4011 90.1910 152.8302 0.0000 0.0000 0.0000
# 4 0.0000 0.0000 0.0000 80.6122 0.0000 0.0000
# 5 0.0000 0.0000 0.0000 0.0000 25.9571 0.0000
# 6 0.0000 0.0000 0.0000 0.0000 0.0000 3.1410
#
#
#
# Elastic Compliance Matrix: (Units=1/GPa)
#
#
# Indices 1 2 3 4 5 6 
#
# 1 0.012648 -0.000110 -0.002451 0.000000 0.000000 0.000000
# 2 -0.000110 0.006407 -0.003759 0.000000 0.000000 0.000000
# 3 -0.002451 -0.003759 0.009249 0.000000 0.000000 0.000000
# 4 0.000000 0.000000 0.000000 0.012405 0.000000 0.000000
# 5 0.000000 0.000000 0.000000 0.000000 0.038525 0.000000
# 6 0.000000 0.000000 0.000000 0.000000 0.000000 0.318371
#
#
# Mechanical properties :
#
#
# Convention : Reuss Voigt Hill
#
# Bulk Modulus (GPa) = 63.84342 80.78713 72.31528
# Shear Modulus (GPa) = 12.03468 42.43502 27.23485
#
# Velocity S-wave (km/s) = 2.21054 4.15091 3.32540
# Velocity P-wave (km/s) = 5.69543 7.46831 6.64130
#
# Compressibility (1/GPa) = 0.01566332
#
# Stress axis : x y z
#
# Youngs Moduli (GPa) = 79.06535 156.08753 108.12043
#
# Poissons Ratio (x) = 0.01724 0.26497
# Poissons Ratio (y) = 0.00874 0.40641
# Poissons Ratio (z) = 0.19377 0.58671
#
# Static dielectric constant tensor:
#      x y z
#    x 1.951580 0.000000 0.000000 
#    y 0.000000 2.001380 0.000000 
#    z 0.000000 0.000000 1.962760 
# 
# From -- ./inp_files/30446.got.cif
#   From: 2010.05.17/outbox.cif.g08.bks.cpg/sg62_16_cif.got.tgz:30446.got - 2010.06.03 15:25:27.
