data_PCOD9466391
_publ_section_title
;
Structure prediction by ZEFSAII (Michael W. Deem and Ramdas Pophale) SiO2 
 PCOD9466391
Probable space group: P N M A
;
_chemical_formula_sum "Si O2"
_cell_formula_units_Z 48
_cell_length_a 9.634298
_cell_length_b 8.590103
_cell_length_c 28.872757
_cell_angle_alpha 90.000000
_cell_angle_beta 90.000000
_cell_angle_gamma 90.000000
_cell_volume 2389.498171
_symmetry_space_group_name_H-M "P N M A"
_symmetry_group_IT_number 62
_symmetry_cell_setting 'orthorhombic'
loop_
_space_group_symop_operation_xyz
x,y,z
1/2-x,-y,1/2+z
1/2+x,1/2-y,1/2-z
-x,1/2+y,-z
-x,-y,-z
1/2+x,y,1/2-z
1/2-x,1/2+y,1/2+z
x,1/2-y,z
loop_
_atom_site_type_symbol
_atom_site_label
_atom_site_fract_x
_atom_site_fract_y
_atom_site_fract_z
Si Si1 0.818612 0.938025 0.119718
Si Si2 0.850557 0.563790 0.012078
Si Si3 0.502263 0.564671 0.697839
Si Si4 0.803522 0.562321 0.277941
Si Si5 0.989097 0.060550 0.639917
Si Si6 0.402582 0.564103 0.040217
O O1 0.828949 0.750000 0.122896
O O2 0.813482 0.978904 0.065255
O O3 0.671789 0.987850 0.142530
O O4 0.947741 0.010738 0.146945
O O5 0.843888 0.750000 0.009378
O O6 0.747872 0.491109 0.974695
O O7 0.000000 0.500000 0.000000
O O8 0.497128 0.750000 0.700384
O O9 0.621785 0.499939 0.731976
O O10 0.352078 0.497691 0.712623
O O11 0.798271 0.750000 0.275860
O O12 0.907877 0.512745 0.319314
O O13 0.987615 0.250000 0.640264
O O14 0.049135 0.008537 0.590507
O O15 0.410987 0.750000 0.040492
O O16 0.500000 0.500000 0.000000
#
# Coordination Sequence:
#
# PCOD9466391 Si02
#       6
#     8   8   8   8   8   8
#     4  10  21  42  66  89 123 171 217 257 311 386
#     4  11  24  41  62  91 128 171 217 265 317 375
#     4  12  26  43  64  97 133 161 203 267 323 365
#     4  11  23  43  70  95 122 168 214 251 308 386
#     4   9  20  39  65  92 120 159 214 260 301 369
#     4  11  21  39  63  93 127 168 214 262 312 367
#
# _framework density 20.087900000000001
#
# number of rings (size 3 to 8) (size 9 to 14) (size 15 to 20)
#    0.000    1.333    1.667    4.000    2.333    2.667 
#    0.000    3.333    0.000    0.000    0.000    0.000 
#    0.000    0.000    0.000    0.000    0.000    0.000 
#
# Total GULP energy -268323.920385 kJ/mol
# GULP energy per Si atom -5590.081675 kJ/mol
# Density = 2.004218 g / cm^3
# Si number density = 20.087900 Si / 1000 Ang^3
#
#
#
# Elastic Constant Matrix: (Units=GPa)
#
#
# Indices 1 2 3 4 5 6 
#
# 1 120.5429 21.0089 13.4028 0.0000 0.0000 0.0000
# 2 21.0089 62.5896 21.4820 0.0000 0.0000 0.0000
# 3 13.4028 21.4820 74.1148 0.0000 0.0000 0.0000
# 4 0.0000 0.0000 0.0000 28.8435 0.0000 0.0000
# 5 0.0000 0.0000 0.0000 0.0000 42.6719 0.0000
# 6 0.0000 0.0000 0.0000 0.0000 0.0000 33.9285
#
#
#
# Elastic Compliance Matrix: (Units=1/GPa)
#
#
# Indices 1 2 3 4 5 6 
#
# 1 0.008856 -0.002691 -0.000822 0.000000 0.000000 0.000000
# 2 -0.002691 0.018560 -0.004893 0.000000 0.000000 0.000000
# 3 -0.000822 -0.004893 0.015059 0.000000 0.000000 0.000000
# 4 0.000000 0.000000 0.000000 0.034670 0.000000 0.000000
# 5 0.000000 0.000000 0.000000 0.000000 0.023435 0.000000
# 6 0.000000 0.000000 0.000000 0.000000 0.000000 0.029474
#
#
# Mechanical properties :
#
#
# Convention : Reuss Voigt Hill
#
# Bulk Modulus (GPa) = 38.96403 41.00386 39.98394
# Shear Modulus (GPa) = 32.17120 34.51234 33.34177
#
# Velocity S-wave (km/s) = 4.00624 4.14945 4.07848
# Velocity P-wave (km/s) = 6.39053 6.58892 6.49048
#
# Compressibility (1/GPa) = 0.02566470
#
# Stress axis : x y z
#
# Youngs Moduli (GPa) = 112.91652 53.88057 66.40392
#
# Poissons Ratio (x) = 0.14497 0.05456
# Poissons Ratio (y) = 0.30382 0.32491
# Poissons Ratio (z) = 0.09278 0.26363
#
# Static dielectric constant tensor:
#      x y z
#    x 2.761010 0.000000 0.000000 
#    y 0.000000 1.680830 0.000000 
#    z 0.000000 0.000000 1.857940 
# 
# From -- ./inp_files/32031.got.cif
#   From: 2010.05.17/outbox.cif.g08.bks.cpg/sg62_17_cif.got.tgz:32031.got - 2010.06.03 15:25:27.
