data_PCOD9466876
_publ_section_title
;
Structure prediction by ZEFSAII (Michael W. Deem and Ramdas Pophale) SiO2 
 PCOD9466876
Probable space group: P N M A
;
_chemical_formula_sum "Si O2"
_cell_formula_units_Z 64
_cell_length_a 14.975873
_cell_length_b 8.546742
_cell_length_c 25.118198
_cell_angle_alpha 90.000000
_cell_angle_beta 90.000000
_cell_angle_gamma 90.000000
_cell_volume 3215.001813
_symmetry_space_group_name_H-M "P N M A"
_symmetry_group_IT_number 62
_symmetry_cell_setting 'orthorhombic'
loop_
_space_group_symop_operation_xyz
x,y,z
1/2-x,-y,1/2+z
1/2+x,1/2-y,1/2-z
-x,1/2+y,-z
-x,-y,-z
1/2+x,y,1/2-z
1/2-x,1/2+y,1/2+z
x,1/2-y,z
loop_
_atom_site_type_symbol
_atom_site_label
_atom_site_fract_x
_atom_site_fract_y
_atom_site_fract_z
Si Si1 0.061256 0.932534 0.134809
Si Si2 0.138073 0.066553 0.241086
Si Si3 0.596987 0.562418 0.482676
Si Si4 0.997989 0.061660 0.669985
Si Si5 0.164053 0.435437 0.741317
Si Si6 0.376997 0.430968 0.353646
Si Si7 0.051373 0.938439 0.448683
Si Si8 0.744488 0.063468 0.562905
O O1 0.075527 0.750000 0.147508
O O2 0.110550 0.972243 0.079939
O O3 0.087666 0.034220 0.185512
O O4 0.956906 0.963367 0.124045
O O5 0.155244 0.250000 0.248286
O O6 0.075873 0.006830 0.289449
O O7 0.232303 0.977501 0.235372
O O8 0.500000 0.500000 0.500000
O O9 0.597576 0.750000 0.489171
O O10 0.673861 0.488008 0.518404
O O11 0.986547 0.250000 0.671080
O O12 0.984928 0.008225 0.609152
O O13 0.097130 0.027939 0.692722
O O14 0.155235 0.250000 0.752627
O O15 0.130110 0.532994 0.791671
O O16 0.396133 0.250000 0.364060
O O17 0.286709 0.481429 0.382773
O O18 0.045737 0.750000 0.449067
O O19 0.155412 0.982879 0.451723
O O20 0.000000 0.000000 0.500000
O O21 0.741554 0.250000 0.570299
#
# Coordination Sequence:
#
# PCOD9466876 Si02
#       8
#     8   8   8   8   8   8   8   8
#     4  11  23  40  61  87 125 171 209 255 321 384
#     4  12  25  40  63  96 132 166 210 268 321 378
#     4  11  23  38  61  90 125 166 213 263 314 379
#     4  10  22  43  69  93 124 169 217 260 316 387
#     4  11  23  40  65  92 127 172 214 260 319 388
#     4  12  23  37  62  95 128 163 212 268 318 374
#     4  10  24  45  68  94 123 163 213 267 318 375
#     4  11  23  40  64  93 129 172 215 262 325 390
#
# _framework density 19.906676000000001
#
# number of rings (size 3 to 8) (size 9 to 14) (size 15 to 20)
#    0.000    1.000    2.500    4.500    0.000    5.500 
#    0.000    3.750    0.000    0.000    0.000    0.000 
#    0.000    0.000    0.000    0.000    0.000    0.000 
#
# Total GULP energy -357834.496953 kJ/mol
# GULP energy per Si atom -5591.164015 kJ/mol
# Density = 1.986137 g / cm^3
# Si number density = 19.906676 Si / 1000 Ang^3
#
#
#
# Elastic Constant Matrix: (Units=GPa)
#
#
# Indices 1 2 3 4 5 6 
#
# 1 99.7431 7.5128 51.9095 0.0000 0.0000 0.0000
# 2 7.5128 32.9603 26.1992 0.0000 0.0000 0.0000
# 3 51.9095 26.1992 135.9148 0.0000 0.0000 0.0000
# 4 0.0000 0.0000 0.0000 31.7816 0.0000 0.0000
# 5 0.0000 0.0000 0.0000 0.0000 31.9029 0.0000
# 6 0.0000 0.0000 0.0000 0.0000 0.0000 25.7827
#
#
#
# Elastic Compliance Matrix: (Units=1/GPa)
#
#
# Indices 1 2 3 4 5 6 
#
# 1 0.012548 0.001121 -0.005008 0.000000 0.000000 0.000000
# 2 0.001121 0.035929 -0.007354 0.000000 0.000000 0.000000
# 3 -0.005008 -0.007354 0.010688 0.000000 0.000000 0.000000
# 4 0.000000 0.000000 0.000000 0.031465 0.000000 0.000000
# 5 0.000000 0.000000 0.000000 0.000000 0.031345 0.000000
# 6 0.000000 0.000000 0.000000 0.000000 0.000000 0.038786
#
#
# Mechanical properties :
#
#
# Convention : Reuss Voigt Hill
#
# Bulk Modulus (GPa) = 27.26103 48.87347 38.06725
# Shear Modulus (GPa) = 25.57923 30.09323 27.83623
#
# Velocity S-wave (km/s) = 3.58852 3.89230 3.74349
# Velocity P-wave (km/s) = 5.55825 6.69362 6.15218
#
# Compressibility (1/GPa) = 0.03668240
#
# Stress axis : x y z
#
# Youngs Moduli (GPa) = 79.69475 27.83235 93.56319
#
# Poissons Ratio (x) = -0.03120 0.46861
# Poissons Ratio (y) = -0.08933 0.68806
# Poissons Ratio (z) = 0.39915 0.20468
#
# Static dielectric constant tensor:
#      x y z
#    x 1.708880 0.000000 0.000000 
#    y 0.000000 1.705610 0.000000 
#    z 0.000000 0.000000 1.704790 
# 
# From -- ./inp_files/29890.got.cif
#   From: 2010.05.17/outbox.cif.g08.bks.cpg/sg62_15_cif.got.tgz:29890.got - 2010.06.03 15:25:27.
