data_PCOD9466508
_publ_section_title
;
Structure prediction by ZEFSAII (Michael W. Deem and Ramdas Pophale) SiO2 
 PCOD9466508
Probable space group: P N M A
;
_chemical_formula_sum "Si O2"
_cell_formula_units_Z 48
_cell_length_a 14.062586
_cell_length_b 13.359112
_cell_length_c 11.998093
_cell_angle_alpha 90.000000
_cell_angle_beta 90.000000
_cell_angle_gamma 90.000000
_cell_volume 2254.005681
_symmetry_space_group_name_H-M "P N M A"
_symmetry_group_IT_number 62
_symmetry_cell_setting 'orthorhombic'
loop_
_space_group_symop_operation_xyz
x,y,z
1/2-x,-y,1/2+z
1/2+x,1/2-y,1/2-z
-x,1/2+y,-z
-x,-y,-z
1/2+x,y,1/2-z
1/2-x,1/2+y,1/2+z
x,1/2-y,z
loop_
_atom_site_type_symbol
_atom_site_label
_atom_site_fract_x
_atom_site_fract_y
_atom_site_fract_z
Si Si1 0.857326 0.071531 0.529946
Si Si2 0.437687 0.637796 0.990886
Si Si3 0.147612 0.923562 0.212644
Si Si4 0.966383 0.909540 0.075345
Si Si5 0.855113 0.637618 0.272729
Si Si6 0.826510 0.860751 0.889096
O O1 0.855952 0.107438 0.657674
O O2 0.767780 0.106578 0.458200
O O3 0.953164 0.108710 0.468361
O O4 0.868953 0.951813 0.544274
O O5 0.415764 0.750000 0.951722
O O6 0.426996 0.636317 0.124892
O O7 0.252417 0.887787 0.178509
O O8 0.061204 0.876384 0.141761
O O9 0.146837 0.044411 0.189921
O O10 0.891474 0.933319 0.174403
O O11 0.907963 0.850496 0.982848
O O12 0.000000 0.000000 0.000000
O O13 0.854107 0.750000 0.225038
O O14 0.813186 0.750000 0.837201
#
# Coordination Sequence:
#
# PCOD9466508 Si02
#       6
#     8   8   8   8   8   8
#     4  11  21  38  64  88 122 162 201 255 310 363
#     4  10  22  38  59  90 122 156 202 253 304 357
#     4  11  23  39  61  90 124 159 202 253 311 367
#     4  10  22  39  59  86 123 160 203 258 311 372
#     4  11  21  36  61  91 120 156 204 253 303 360
#     4  11  23  40  61  89 124 166 208 250 307 378
#
# _framework density 21.295421999999999
#
# number of rings (size 3 to 8) (size 9 to 14) (size 15 to 20)
#    0.000    1.333    5.000    1.000    0.000    2.667 
#    0.000    0.000    0.000    5.000    0.000    0.000 
#    0.000    0.000    0.000    0.000    0.000    0.000 
#
# Total GULP energy -267470.043406 kJ/mol
# GULP energy per Si atom -5572.292571 kJ/mol
# Density = 2.124695 g / cm^3
# Si number density = 21.295422 Si / 1000 Ang^3
#
#
#
# Elastic Constant Matrix: (Units=GPa)
#
#
# Indices 1 2 3 4 5 6 
#
# 1 88.1215 11.5884 -5.3663 0.0000 0.0000 0.0000
# 2 11.5884 84.1450 -14.2643 0.0000 0.0000 0.0000
# 3 -5.3663 -14.2643 44.5510 0.0000 0.0000 0.0000
# 4 0.0000 0.0000 0.0000 17.0640 0.0000 0.0000
# 5 0.0000 0.0000 0.0000 0.0000 22.9364 0.0000
# 6 0.0000 0.0000 0.0000 0.0000 0.0000 -7.3568
#
#
#
# Elastic Compliance Matrix: (Units=1/GPa)
#
#
# Indices 1 2 3 4 5 6 
#
# 1 0.011594 -0.001438 0.000936 0.000000 0.000000 0.000000
# 2 -0.001438 0.012745 0.003907 0.000000 0.000000 0.000000
# 3 0.000936 0.003907 0.023810 0.000000 0.000000 0.000000
# 4 0.000000 0.000000 0.000000 0.058603 0.000000 0.000000
# 5 0.000000 0.000000 0.000000 0.000000 0.043599 0.000000
# 6 0.000000 0.000000 0.000000 0.000000 0.000000 -0.135928
#
#
# Mechanical properties :
#
#
# Convention : Reuss Voigt Hill
#
# Bulk Modulus (GPa) = 18.19519 22.30367 20.24943
# Shear Modulus (GPa) = 192.81470 21.51936 107.16703
#
# Velocity S-wave (km/s) = 9.52572 3.18231 7.10164
# Velocity P-wave (km/s) = 11.38194 4.89888 8.76206
#
# Compressibility (1/GPa) = 0.05495959
#
# Stress axis : x y z
#
# Youngs Moduli (GPa) = 86.25086 78.46414 41.99921
#
# Poissons Ratio (x) = 0.11283 -0.03932
# Poissons Ratio (y) = 0.12403 -0.16411
# Poissons Ratio (z) = -0.08074 -0.30659
#
# Static dielectric constant tensor:
#      x y z
#    x 1.794010 0.000000 0.000000 
#    y 0.000000 1.820170 0.000000 
#    z 0.000000 0.000000 1.763790 
# 
# From -- ./inp_files/13258.got.cif
#   From: 2010.05.17/outbox.cif.g08.bks.cpg/sg62_7_cif.got.tgz:13258.got - 2010.06.03 15:25:27.
