data_PCOD9466233
_publ_section_title
;
Structure prediction by ZEFSAII (Michael W. Deem and Ramdas Pophale) SiO2 
 PCOD9466233
Probable space group: P N M A
;
_chemical_formula_sum "Si O2"
_cell_formula_units_Z 40
_cell_length_a 19.046495
_cell_length_b 8.555806
_cell_length_c 12.798352
_cell_angle_alpha 90.000000
_cell_angle_beta 90.000000
_cell_angle_gamma 90.000000
_cell_volume 2085.595332
_symmetry_space_group_name_H-M "P N M A"
_symmetry_group_IT_number 62
_symmetry_cell_setting 'orthorhombic'
loop_
_space_group_symop_operation_xyz
x,y,z
1/2-x,-y,1/2+z
1/2+x,1/2-y,1/2-z
-x,1/2+y,-z
-x,-y,-z
1/2+x,y,1/2-z
1/2-x,1/2+y,1/2+z
x,1/2-y,z
loop_
_atom_site_type_symbol
_atom_site_label
_atom_site_fract_x
_atom_site_fract_y
_atom_site_fract_z
Si Si1 0.426714 0.437371 0.954102
Si Si2 0.653335 0.559390 0.455736
Si Si3 0.191120 0.437407 0.609004
Si Si4 0.886005 0.062660 0.189115
Si Si5 0.542991 0.938802 0.280886
O O1 0.426144 0.250000 0.962832
O O2 0.424478 0.480019 0.831744
O O3 0.500000 0.500000 0.000000
O O4 0.362968 0.505157 0.020872
O O5 0.652937 0.750000 0.455219
O O6 0.730113 0.509076 0.417508
O O7 0.637388 0.508998 0.573835
O O8 0.592980 0.508644 0.375255
O O9 0.190285 0.250000 0.610671
O O10 0.163677 0.498026 0.720059
O O11 0.883800 0.250000 0.192060
O O12 0.965371 0.007813 0.209980
O O13 0.537324 0.750000 0.284553
#
# Coordination Sequence:
#
# PCOD9466233 Si02
#       5
#     8   8   8   8   8
#     4  11  22  37  61  89 120 156 199 246 292 350
#     4   9  22  41  61  87 121 158 197 247 299 354
#     4  11  23  40  61  86 121 161 199 244 300 355
#     4  11  22  39  62  89 120 153 197 249 297 351
#     4  10  21  40  64  88 117 157 200 242 298 358
#
# _framework density 19.179175000000001
#
# number of rings (size 3 to 8) (size 9 to 14) (size 15 to 20)
#    0.000    1.600    2.000    2.400    2.800    0.800 
#    0.000    6.000    0.000    0.000    0.000    0.000 
#    0.000    0.000    0.000    0.000    0.000    0.000 
#
# Total GULP energy -223585.650622 kJ/mol
# GULP energy per Si atom -5589.641266 kJ/mol
# Density = 1.913552 g / cm^3
# Si number density = 19.179175 Si / 1000 Ang^3
#
#
#
# Elastic Constant Matrix: (Units=GPa)
#
#
# Indices 1 2 3 4 5 6 
#
# 1 49.4310 15.2917 46.7476 0.0000 0.0000 0.0000
# 2 15.2917 33.0469 37.8997 0.0000 0.0000 0.0000
# 3 46.7476 37.8997 180.6603 0.0000 0.0000 0.0000
# 4 0.0000 0.0000 0.0000 22.2566 0.0000 0.0000
# 5 0.0000 0.0000 0.0000 0.0000 23.7589 0.0000
# 6 0.0000 0.0000 0.0000 0.0000 0.0000 14.5977
#
#
#
# Elastic Compliance Matrix: (Units=1/GPa)
#
#
# Indices 1 2 3 4 5 6 
#
# 1 0.027673 -0.006048 -0.005892 0.000000 0.000000 0.000000
# 2 -0.006048 0.041169 -0.007072 0.000000 0.000000 0.000000
# 3 -0.005892 -0.007072 0.008543 0.000000 0.000000 0.000000
# 4 0.000000 0.000000 0.000000 0.044930 0.000000 0.000000
# 5 0.000000 0.000000 0.000000 0.000000 0.042090 0.000000
# 6 0.000000 0.000000 0.000000 0.000000 0.000000 0.068504
#
#
# Mechanical properties :
#
#
# Convention : Reuss Voigt Hill
#
# Bulk Modulus (GPa) = 25.40512 51.44626 38.42569
# Shear Modulus (GPa) = 17.60237 23.00260 20.30249
#
# Velocity S-wave (km/s) = 3.03278 3.46692 3.25710
# Velocity P-wave (km/s) = 5.05358 6.55045 5.85009
#
# Compressibility (1/GPa) = 0.03936214
#
# Stress axis : x y z
#
# Youngs Moduli (GPa) = 36.13591 24.29040 117.05020
#
# Poissons Ratio (x) = 0.14691 0.68965
# Poissons Ratio (y) = 0.21855 0.82772
# Poissons Ratio (z) = 0.21291 0.17177
#
# Static dielectric constant tensor:
#      x y z
#    x 1.626100 0.000000 0.000000 
#    y 0.000000 1.655450 0.000000 
#    z 0.000000 0.000000 1.661750 
# 
# From -- ./inp_files/13846.got.cif
#   From: 2010.05.17/outbox.cif.g08.bks.cpg/sg62_7_cif.got.tgz:13846.got - 2010.06.03 15:25:27.
