data_PCOD9466340
_publ_section_title
;
Structure prediction by ZEFSAII (Michael W. Deem and Ramdas Pophale) SiO2 
 PCOD9466340
Probable space group: P N M A
;
_chemical_formula_sum "Si O2"
_cell_formula_units_Z 64
_cell_length_a 25.053899
_cell_length_b 8.923463
_cell_length_c 14.914781
_cell_angle_alpha 90.000000
_cell_angle_beta 90.000000
_cell_angle_gamma 90.000000
_cell_volume 3334.460909
_symmetry_space_group_name_H-M "P N M A"
_symmetry_group_IT_number 62
_symmetry_cell_setting 'orthorhombic'
loop_
_space_group_symop_operation_xyz
x,y,z
1/2-x,-y,1/2+z
1/2+x,1/2-y,1/2-z
-x,1/2+y,-z
-x,-y,-z
1/2+x,y,1/2-z
1/2-x,1/2+y,1/2+z
x,1/2-y,z
loop_
_atom_site_type_symbol
_atom_site_label
_atom_site_fract_x
_atom_site_fract_y
_atom_site_fract_z
Si Si1 0.850643 0.573010 0.864795
Si Si2 0.485969 0.072896 0.404309
Si Si3 0.949410 0.430267 0.549229
Si Si4 0.261457 0.571871 0.162330
Si Si5 0.169208 0.569066 0.512612
Si Si6 0.735243 0.071402 0.624057
Si Si7 0.370310 0.425566 0.454784
Si Si8 0.438773 0.428990 0.743908
O O1 0.851201 0.750000 0.855242
O O2 0.791114 0.511238 0.872787
O O3 0.881424 0.494471 0.783763
O O4 0.879461 0.521297 0.955601
O O5 0.498110 0.250000 0.407011
O O6 0.422138 0.055160 0.392748
O O7 0.500000 0.000000 0.500000
O O8 0.518667 0.996397 0.325075
O O9 0.951951 0.250000 0.541717
O O10 0.891197 0.476228 0.511584
O O11 0.951549 0.468980 0.654254
O O12 0.000000 0.500000 0.500000
O O13 0.257451 0.750000 0.147779
O O14 0.309919 0.506513 0.103941
O O15 0.262042 0.545467 0.269259
O O16 0.170450 0.750000 0.522143
O O17 0.211380 0.531757 0.432397
O O18 0.726423 0.250000 0.610023
O O19 0.684477 0.981285 0.587951
O O20 0.366939 0.250000 0.479130
O O21 0.437231 0.250000 0.735003
#
# Coordination Sequence:
#
# PCOD9466340 Si02
#       8
#     8   8   8   8   8   8   8   8
#     4  12  23  37  61  91 124 164 208 255 313 373
#     4  11  23  38  59  89 126 166 204 253 310 372
#     4  10  24  45  68  92 124 165 212 267 320 372
#     4  11  23  39  62  93 127 165 207 256 311 372
#     4  10  21  41  65  90 122 164 208 259 314 371
#     4  10  22  40  62  89 125 165 205 250 311 373
#     4  11  23  38  59  88 124 162 203 252 308 366
#     4  11  23  41  65  92 123 165 214 265 318 376
#
# _framework density 19.193508000000001
#
# number of rings (size 3 to 8) (size 9 to 14) (size 15 to 20)
#    0.000    1.250    2.500    3.375    0.000    7.000 
#    0.000    6.250    0.000    0.000    0.000    0.000 
#    0.000    0.000    0.000    0.000    0.000    0.000 
#
# Total GULP energy -357696.996650 kJ/mol
# GULP energy per Si atom -5589.015573 kJ/mol
# Density = 1.914982 g / cm^3
# Si number density = 19.193508 Si / 1000 Ang^3
#
#
#
# Elastic Constant Matrix: (Units=GPa)
#
#
# Indices 1 2 3 4 5 6 
#
# 1 139.2825 46.3266 54.4471 0.0000 0.0000 0.0000
# 2 46.3266 66.8310 47.9303 0.0000 0.0000 0.0000
# 3 54.4471 47.9303 92.4752 0.0000 0.0000 0.0000
# 4 0.0000 0.0000 0.0000 31.8196 0.0000 0.0000
# 5 0.0000 0.0000 0.0000 0.0000 32.5004 0.0000
# 6 0.0000 0.0000 0.0000 0.0000 0.0000 35.0421
#
#
#
# Elastic Compliance Matrix: (Units=1/GPa)
#
#
# Indices 1 2 3 4 5 6 
#
# 1 0.010059 -0.004337 -0.003674 0.000000 0.000000 0.000000
# 2 -0.004337 0.025686 -0.010760 0.000000 0.000000 0.000000
# 3 -0.003674 -0.010760 0.018554 0.000000 0.000000 0.000000
# 4 0.000000 0.000000 0.000000 0.031427 0.000000 0.000000
# 5 0.000000 0.000000 0.000000 0.000000 0.030769 0.000000
# 6 0.000000 0.000000 0.000000 0.000000 0.000000 0.028537
#
#
# Mechanical properties :
#
#
# Convention : Reuss Voigt Hill
#
# Bulk Modulus (GPa) = 59.67890 66.22184 62.95037
# Shear Modulus (GPa) = 26.57317 29.86473 28.21895
#
# Velocity S-wave (km/s) = 3.72491 3.94887 3.83852
# Velocity P-wave (km/s) = 7.04703 7.44101 7.24670
#
# Compressibility (1/GPa) = 0.01675634
#
# Stress axis : x y z
#
# Youngs Moduli (GPa) = 99.41745 38.93103 53.89768
#
# Poissons Ratio (x) = 0.16886 0.19803
# Poissons Ratio (y) = 0.43122 0.57992
# Poissons Ratio (z) = 0.36527 0.41888
#
# Static dielectric constant tensor:
#      x y z
#    x 1.690450 0.000000 0.000000 
#    y 0.000000 1.638960 0.000000 
#    z 0.000000 0.000000 1.676730 
# 
# From -- ./inp_files/20833.got.cif
#   From: 2010.05.17/outbox.cif.g08.bks.cpg/sg62_11_cif.got.tgz:20833.got - 2010.06.03 15:25:27.
