data_PCOD9466242
_publ_section_title
;
Structure prediction by ZEFSAII (Michael W. Deem and Ramdas Pophale) SiO2 
 PCOD9466242
Probable space group: P N M A
;
_chemical_formula_sum "Si O2"
_cell_formula_units_Z 64
_cell_length_a 32.946510
_cell_length_b 8.798383
_cell_length_c 11.295714
_cell_angle_alpha 90.000000
_cell_angle_beta 90.000000
_cell_angle_gamma 90.000000
_cell_volume 3274.356544
_symmetry_space_group_name_H-M "P N M A"
_symmetry_group_IT_number 62
_symmetry_cell_setting 'orthorhombic'
loop_
_space_group_symop_operation_xyz
x,y,z
1/2-x,-y,1/2+z
1/2+x,1/2-y,1/2-z
-x,1/2+y,-z
-x,-y,-z
1/2+x,y,1/2-z
1/2-x,1/2+y,1/2+z
x,1/2-y,z
loop_
_atom_site_type_symbol
_atom_site_label
_atom_site_fract_x
_atom_site_fract_y
_atom_site_fract_z
Si Si1 0.881534 0.929566 0.090984
Si Si2 0.832986 0.076859 0.521788
Si Si3 0.398674 0.571735 0.841379
Si Si4 0.233851 0.930045 0.280439
Si Si5 0.986677 0.068130 0.628268
Si Si6 0.319119 0.076673 0.252134
Si Si7 0.524036 0.433812 0.614430
Si Si8 0.658023 0.931710 0.361794
O O1 0.880404 0.750000 0.068195
O O2 0.928539 0.975427 0.100347
O O3 0.855967 0.972097 0.206164
O O4 0.857493 0.015419 0.987861
O O5 0.846887 0.250000 0.549751
O O6 0.795554 0.043980 0.608088
O O7 0.818383 0.072957 0.388937
O O8 0.869857 0.964336 0.547257
O O9 0.406702 0.750000 0.828904
O O10 0.440267 0.481222 0.852524
O O11 0.372062 0.510189 0.732053
O O12 0.242637 0.750000 0.271749
O O13 0.204522 0.974301 0.170355
O O14 0.275463 0.018508 0.293507
O O15 0.991001 0.250000 0.620083
O O16 0.009014 0.019989 0.752532
O O17 0.000000 0.000000 0.500000
O O18 0.326187 0.250000 0.291764
O O19 0.500000 0.500000 0.500000
O O20 0.520331 0.250000 0.609377
O O21 0.655274 0.750000 0.349123
#
# Coordination Sequence:
#
# PCOD9466242 Si02
#       8
#     8   8   8   8   8   8   8   8
#     4  11  24  41  62  91 127 163 203 254 311 370
#     4   9  21  41  61  85 120 161 204 254 306 361
#     4  11  22  38  63  93 122 160 205 251 309 373
#     4   9  20  39  61  86 118 158 201 253 308 360
#     4  11  24  42  64  94 129 167 211 265 319 383
#     4  11  24  39  59  89 122 160 205 252 307 365
#     4  10  24  44  67  95 128 165 209 260 317 381
#     4  10  21  40  64  92 123 160 206 255 304 364
#
# _framework density 19.545826999999999
#
# number of rings (size 3 to 8) (size 9 to 14) (size 15 to 20)
#    0.000    1.750    0.000    4.125    3.500    7.500 
#    0.000    0.000    0.000    0.000    0.000    0.000 
#    0.000    0.000    0.000    0.000    0.000    0.000 
#
# Total GULP energy -357272.077707 kJ/mol
# GULP energy per Si atom -5582.376214 kJ/mol
# Density = 1.950134 g / cm^3
# Si number density = 19.545827 Si / 1000 Ang^3
#
#
#
# Elastic Constant Matrix: (Units=GPa)
#
#
# Indices 1 2 3 4 5 6 
#
# 1 82.5616 18.0713 25.7231 0.0000 0.0000 0.0000
# 2 18.0713 40.5713 23.8302 0.0000 0.0000 0.0000
# 3 25.7231 23.8302 86.3716 0.0000 0.0000 0.0000
# 4 0.0000 0.0000 0.0000 31.9769 0.0000 0.0000
# 5 0.0000 0.0000 0.0000 0.0000 16.9788 0.0000
# 6 0.0000 0.0000 0.0000 0.0000 0.0000 30.8403
#
#
#
# Elastic Compliance Matrix: (Units=1/GPa)
#
#
# Indices 1 2 3 4 5 6 
#
# 1 0.014014 -0.004524 -0.002925 0.000000 0.000000 0.000000
# 2 -0.004524 0.030875 -0.007171 0.000000 0.000000 0.000000
# 3 -0.002925 -0.007171 0.014428 0.000000 0.000000 0.000000
# 4 0.000000 0.000000 0.000000 0.031273 0.000000 0.000000
# 5 0.000000 0.000000 0.000000 0.000000 0.058897 0.000000
# 6 0.000000 0.000000 0.000000 0.000000 0.000000 0.032425
#
#
# Mechanical properties :
#
#
# Convention : Reuss Voigt Hill
#
# Bulk Modulus (GPa) = 33.24949 38.30597 35.77773
# Shear Modulus (GPa) = 22.60628 25.41785 24.01207
#
# Velocity S-wave (km/s) = 3.40454 3.61005 3.50880
# Velocity P-wave (km/s) = 5.70110 6.08418 5.89575
#
# Compressibility (1/GPa) = 0.03007565
#
# Stress axis : x y z
#
# Youngs Moduli (GPa) = 71.35825 32.38861 69.31105
#
# Poissons Ratio (x) = 0.14652 0.20277
# Poissons Ratio (y) = 0.32280 0.49705
# Poissons Ratio (z) = 0.20876 0.23227
#
# Static dielectric constant tensor:
#      x y z
#    x 1.653260 0.000000 0.000000 
#    y 0.000000 1.680470 0.000000 
#    z 0.000000 0.000000 3.064500 
# 
# From -- ./inp_files/15770.got.cif
#   From: 2010.05.17/outbox.cif.g08.bks.cpg/sg62_8_cif.got.tgz:15770.got - 2010.06.03 15:25:27.
