data_PCOD9466522
_publ_section_title
;
Structure prediction by ZEFSAII (Michael W. Deem and Ramdas Pophale) SiO2 
 PCOD9466522
Probable space group: P N M A
;
_chemical_formula_sum "Si O2"
_cell_formula_units_Z 56
_cell_length_a 21.527293
_cell_length_b 15.146707
_cell_length_c 8.796285
_cell_angle_alpha 90.000000
_cell_angle_beta 90.000000
_cell_angle_gamma 90.000000
_cell_volume 2868.183535
_symmetry_space_group_name_H-M "P N M A"
_symmetry_group_IT_number 62
_symmetry_cell_setting 'orthorhombic'
loop_
_space_group_symop_operation_xyz
x,y,z
1/2-x,-y,1/2+z
1/2+x,1/2-y,1/2-z
-x,1/2+y,-z
-x,-y,-z
1/2+x,y,1/2-z
1/2-x,1/2+y,1/2+z
x,1/2-y,z
loop_
_atom_site_type_symbol
_atom_site_label
_atom_site_fract_x
_atom_site_fract_y
_atom_site_fract_z
Si Si1 0.753504 0.003970 0.520765
Si Si2 0.657564 0.489868 0.274533
Si Si3 0.340087 0.497130 0.238898
Si Si4 0.435687 0.148479 0.231721
Si Si5 0.928630 0.650514 0.242939
Si Si6 0.428988 0.647455 0.893161
Si Si7 0.457776 0.418784 0.561879
O O1 0.704828 0.048397 0.402822
O O2 0.705388 0.955840 0.633879
O O3 0.800811 0.042379 0.648308
O O4 0.799652 0.961348 0.397479
O O5 0.622328 0.412703 0.185250
O O6 0.603823 0.547200 0.353615
O O7 0.384282 0.420608 0.176728
O O8 0.381967 0.573988 0.311124
O O9 0.423404 0.250000 0.190481
O O10 0.502884 0.121889 0.167306
O O11 0.439491 0.136970 0.413634
O O12 0.908379 0.750000 0.204899
O O13 0.929989 0.640431 0.425007
O O14 0.996299 0.633453 0.173429
O O15 0.419173 0.750000 0.852789
O O16 0.500000 0.500000 0.500000
#
# Coordination Sequence:
#
# PCOD9466522 Si02
#       7
#     8   8   8   8   8   8   8
#     4  10  23  37  62  84 118 163 212 242 293 351
#     4  11  20  39  62  88 115 165 202 251 294 365
#     4  11  21  42  62  89 118 162 202 250 298 361
#     4  11  23  40  63  93 123 154 197 254 312 369
#     4  11  23  39  63  93 125 158 198 255 310 368
#     4  10  22  38  61  94 123 152 198 253 311 366
#     4  12  21  37  64  93 123 157 200 247 321 362
#
# _framework density 19.524552
#
# number of rings (size 3 to 8) (size 9 to 14) (size 15 to 20)
#    0.000    1.143    5.714    0.429    2.000    1.143 
#    0.000    4.286    0.000    1.714    0.000    0.000 
#    0.000    0.000    0.000    0.000    0.000    0.000 
#
# Total GULP energy -311815.837188 kJ/mol
# GULP energy per Si atom -5568.139950 kJ/mol
# Density = 1.948011 g / cm^3
# Si number density = 19.524552 Si / 1000 Ang^3
#
#
#
# Elastic Constant Matrix: (Units=GPa)
#
#
# Indices 1 2 3 4 5 6 
#
# 1 114.4708 36.0913 37.8604 0.0000 0.0000 0.0000
# 2 36.0913 53.9323 3.6470 0.0000 0.0000 0.0000
# 3 37.8604 3.6470 67.6624 0.0000 0.0000 0.0000
# 4 0.0000 0.0000 0.0000 23.8144 0.0000 0.0000
# 5 0.0000 0.0000 0.0000 0.0000 45.5675 0.0000
# 6 0.0000 0.0000 0.0000 0.0000 0.0000 2.0486
#
#
#
# Elastic Compliance Matrix: (Units=1/GPa)
#
#
# Indices 1 2 3 4 5 6 
#
# 1 0.013945 -0.008837 -0.007327 0.000000 0.000000 0.000000
# 2 -0.008837 0.024209 0.003640 0.000000 0.000000 0.000000
# 3 -0.007327 0.003640 0.018683 0.000000 0.000000 0.000000
# 4 0.000000 0.000000 0.000000 0.041991 0.000000 0.000000
# 5 0.000000 0.000000 0.000000 0.000000 0.021945 0.000000
# 6 0.000000 0.000000 0.000000 0.000000 0.000000 0.488142
#
#
# Mechanical properties :
#
#
# Convention : Reuss Voigt Hill
#
# Bulk Modulus (GPa) = 31.45683 43.47365 37.46524
# Shear Modulus (GPa) = 7.75723 24.85055 16.30389
#
# Velocity S-wave (km/s) = 1.99542 3.57148 2.89285
# Velocity P-wave (km/s) = 4.63199 6.27071 5.51258
#
# Compressibility (1/GPa) = 0.03178960
#
# Stress axis : x y z
#
# Youngs Moduli (GPa) = 71.70938 41.30687 53.52539
#
# Poissons Ratio (x) = 0.36501 0.39216
# Poissons Ratio (y) = 0.63367 -0.19481
# Poissons Ratio (z) = 0.52539 -0.15034
#
# Static dielectric constant tensor:
#      x y z
#    x 1.709200 0.000000 0.000000 
#    y 0.000000 1.673450 0.000000 
#    z 0.000000 0.000000 1.723900 
# 
# From -- ./inp_files/8752.got.cif
#   From: 2010.05.17/outbox.cif.g08.bks.cpg/sg62_5_cif.got.tgz:8752.got - 2010.06.03 15:25:27.
