data_PCOD9466718
_publ_section_title
;
Structure prediction by ZEFSAII (Michael W. Deem and Ramdas Pophale) SiO2 
 PCOD9466718
Probable space group: P N M A
;
_chemical_formula_sum "Si O2"
_cell_formula_units_Z 40
_cell_length_a 10.467061
_cell_length_b 8.821664
_cell_length_c 23.410019
_cell_angle_alpha 90.000000
_cell_angle_beta 90.000000
_cell_angle_gamma 90.000000
_cell_volume 2161.608471
_symmetry_space_group_name_H-M "P N M A"
_symmetry_group_IT_number 62
_symmetry_cell_setting 'orthorhombic'
loop_
_space_group_symop_operation_xyz
x,y,z
1/2-x,-y,1/2+z
1/2+x,1/2-y,1/2-z
-x,1/2+y,-z
-x,-y,-z
1/2+x,y,1/2-z
1/2-x,1/2+y,1/2+z
x,1/2-y,z
loop_
_atom_site_type_symbol
_atom_site_label
_atom_site_fract_x
_atom_site_fract_y
_atom_site_fract_z
Si Si1 0.357741 0.068552 0.002359
Si Si2 0.234296 0.431718 0.619451
Si Si3 0.503121 0.569683 0.807483
Si Si4 0.232504 0.568434 0.375930
Si Si5 0.001437 0.932037 0.181612
O O1 0.366685 0.250000 0.008034
O O2 0.286166 0.000499 0.056853
O O3 0.288524 0.033094 0.942549
O O4 0.500000 0.000000 0.000000
O O5 0.223351 0.250000 0.616435
O O6 0.122465 0.494911 0.659850
O O7 0.371328 0.470786 0.646407
O O8 0.514109 0.750000 0.810292
O O9 0.374765 0.515493 0.839148
O O10 0.499996 0.513756 0.742402
O O11 0.213561 0.750000 0.368991
O O12 0.373316 0.531039 0.353376
O O13 0.002740 0.750000 0.191413
#
# Coordination Sequence:
#
# PCOD9466718 Si02
#       5
#     8   8   8   8   8
#     4  11  22  38  63  91 120 155 202 251 297 356
#     4  11  23  40  63  89 121 161 201 245 299 358
#     4  12  24  38  61  91 122 158 202 250 298 353
#     4  10  22  41  64  88 118 159 202 245 298 358
#     4  10  23  42  62  87 121 161 201 243 300 363
#
# _framework density 18.504739000000001
#
# number of rings (size 3 to 8) (size 9 to 14) (size 15 to 20)
#    0.000    1.200    2.000    4.200    0.000    8.800 
#    0.000    0.000    0.000    0.000    0.000    0.000 
#    0.000    0.000    0.000    0.000    0.000    0.000 
#
# Total GULP energy -223730.751048 kJ/mol
# GULP energy per Si atom -5593.268776 kJ/mol
# Density = 1.846262 g / cm^3
# Si number density = 18.504739 Si / 1000 Ang^3
#
#
#
# Elastic Constant Matrix: (Units=GPa)
#
#
# Indices 1 2 3 4 5 6 
#
# 1 176.3283 77.5594 109.5021 0.0000 0.0000 0.0000
# 2 77.5594 71.2324 88.5874 0.0000 0.0000 0.0000
# 3 109.5021 88.5874 204.1280 0.0000 0.0000 0.0000
# 4 0.0000 0.0000 0.0000 29.8214 0.0000 0.0000
# 5 0.0000 0.0000 0.0000 0.0000 -525.7531 0.0000
# 6 0.0000 0.0000 0.0000 0.0000 0.0000 2.0477
#
#
#
# Elastic Compliance Matrix: (Units=1/GPa)
#
#
# Indices 1 2 3 4 5 6 
#
# 1 0.011103 -0.010172 -0.001542 0.000000 0.000000 0.000000
# 2 -0.010172 0.039818 -0.011824 0.000000 0.000000 0.000000
# 3 -0.001542 -0.011824 0.010857 0.000000 0.000000 0.000000
# 4 0.000000 0.000000 0.000000 0.033533 0.000000 0.000000
# 5 0.000000 0.000000 0.000000 0.000000 -0.001902 0.000000
# 6 0.000000 0.000000 0.000000 0.000000 0.000000 0.488348
#
#
# Mechanical properties :
#
#
# Convention : Reuss Voigt Hill
#
# Bulk Modulus (GPa) = 68.00908 111.44295 89.72601
# Shear Modulus (GPa) = 7.88976 -87.04081 -39.57552
#
# Velocity S-wave (km/s) = 2.06710 -6.86580 -4.62959
# Velocity P-wave (km/s) = 6.52144 1.58033 4.47391
#
# Compressibility (1/GPa) = 0.01470392
#
# Stress axis : x y z
#
# Youngs Moduli (GPa) = 90.06841 25.11410 92.10481
#
# Poissons Ratio (x) = 0.25545 0.14199
# Poissons Ratio (y) = 0.91614 1.08904
# Poissons Ratio (z) = 0.13885 0.29695
#
# Static dielectric constant tensor:
#      x y z
#    x 1.606250 0.000000 0.000000 
#    y 0.000000 1.621630 0.000000 
#    z 0.000000 0.000000 1.608150 
# 
# From -- ./inp_files/28580.got.cif
#   From: 2010.05.17/outbox.cif.g08.bks.cpg/sg62_15_cif.got.tgz:28580.got - 2010.06.03 15:25:27.
