data_PCOD9466698
_publ_section_title
;
Structure prediction by ZEFSAII (Michael W. Deem and Ramdas Pophale) SiO2 
 PCOD9466698
Probable space group: P N M A
;
_chemical_formula_sum "Si O2"
_cell_formula_units_Z 36
_cell_length_a 17.162385
_cell_length_b 15.500969
_cell_length_c 7.621320
_cell_angle_alpha 90.000000
_cell_angle_beta 90.000000
_cell_angle_gamma 90.000000
_cell_volume 2027.527180
_symmetry_space_group_name_H-M "P N M A"
_symmetry_group_IT_number 62
_symmetry_cell_setting 'orthorhombic'
loop_
_space_group_symop_operation_xyz
x,y,z
1/2-x,-y,1/2+z
1/2+x,1/2-y,1/2-z
-x,1/2+y,-z
-x,-y,-z
1/2+x,y,1/2-z
1/2-x,1/2+y,1/2+z
x,1/2-y,z
loop_
_atom_site_type_symbol
_atom_site_label
_atom_site_fract_x
_atom_site_fract_y
_atom_site_fract_z
Si Si1 0.682285 0.750000 0.206530
Si Si2 0.901668 0.849299 0.000000
Si Si3 0.793242 0.588813 0.704549
Si Si4 0.947417 0.250000 0.000000
Si Si5 0.817715 0.250000 0.293470
Si Si6 0.706758 0.088813 0.795451
O O1 0.606578 0.750000 0.329470
O O2 0.733518 0.833706 0.253925
O O3 0.664108 0.750000 0.000000
O O4 0.869623 0.750000 0.000000
O O5 0.867172 0.896107 0.830181
O O6 0.867172 0.896107 0.169819
O O7 0.993814 0.831928 0.000000
O O8 0.733518 0.666294 0.746075
O O9 0.814027 0.590777 0.500000
O O10 0.750000 0.500000 0.750000
O O11 0.893422 0.250000 0.170530
#
# Coordination Sequence:
#
# PCOD9466698 Si02
#       6
#     4   8   8   4   4   8
#     4  12  21  39  61  91 120 159 208 242 299 370
#     4  10  22  41  58  94 121 155 204 246 303 357
#     4  12  21  37  66  91 117 159 206 254 294 352
#     4  10  24  38  64  88 130 166 182 258 312 360
#     4  12  21  39  61  91 120 159 208 242 299 370
#     4  12  21  37  66  91 117 159 206 254 294 352
#
# _framework density 17.755617000000001
#
# number of rings (size 3 to 8) (size 9 to 14) (size 15 to 20)
#    0.667    0.000    8.889    0.000    0.000    1.778 
#    0.000    4.444    0.000    5.333    0.000    0.000 
#    0.000    0.000    0.000    0.000    0.000    0.000 
#
# Total GULP energy -200957.876015 kJ/mol
# GULP energy per Si atom -5582.163223 kJ/mol
# Density = 1.771520 g / cm^3
# Si number density = 17.755617 Si / 1000 Ang^3
#
#
#
# Elastic Constant Matrix: (Units=GPa)
#
#
# Indices 1 2 3 4 5 6 
#
# 1 104.8905 21.9800 54.2388 0.0000 0.0000 0.0000
# 2 21.9800 107.4695 19.0241 0.0000 0.0000 0.0000
# 3 54.2388 19.0241 201.0533 0.0000 0.0000 0.0000
# 4 0.0000 0.0000 0.0000 28.9000 0.0000 0.0000
# 5 0.0000 0.0000 0.0000 0.0000 34.2609 0.0000
# 6 0.0000 0.0000 0.0000 0.0000 0.0000 -0.8151
#
#
#
# Elastic Compliance Matrix: (Units=1/GPa)
#
#
# Indices 1 2 3 4 5 6 
#
# 1 0.011419 -0.001821 -0.002908 0.000000 0.000000 0.000000
# 2 -0.001821 0.009754 -0.000432 0.000000 0.000000 0.000000
# 3 -0.002908 -0.000432 0.005799 0.000000 0.000000 0.000000
# 4 0.000000 0.000000 0.000000 0.034602 0.000000 0.000000
# 5 0.000000 0.000000 0.000000 0.000000 0.029188 0.000000
# 6 0.000000 0.000000 0.000000 0.000000 0.000000 -1.226818
#
#
# Mechanical properties :
#
#
# Convention : Reuss Voigt Hill
#
# Bulk Modulus (GPa) = 60.05747 67.09990 63.57868
# Shear Modulus (GPa) = -4.46355 33.68051 14.60848
#
# Velocity S-wave (km/s) = -1.58724 4.36006 2.87148
# Velocity P-wave (km/s) = 5.52619 7.95108 6.84684
#
# Compressibility (1/GPa) = 0.01665072
#
# Stress axis : x y z
#
# Youngs Moduli (GPa) = 87.57212 102.52452 172.43631
#
# Poissons Ratio (x) = 0.18666 0.50150
# Poissons Ratio (y) = 0.15944 0.07445
# Poissons Ratio (z) = 0.25469 0.04427
#
# Static dielectric constant tensor:
#      x y z
#    x 1.589050 0.000000 0.000000 
#    y 0.000000 1.603750 0.000000 
#    z 0.000000 0.000000 1.598330 
# 
# From -- ./inp_files/7418.got.cif
#   From: 2010.05.17/outbox.cif.g08.bks.cpg/sg62_4_cif.got.tgz:7418.got - 2010.06.03 15:25:27.
