data_PCOD9466855
_publ_section_title
;
Structure prediction by ZEFSAII (Michael W. Deem and Ramdas Pophale) SiO2 
 PCOD9466855
Probable space group: P N M A
;
_chemical_formula_sum "Si O2"
_cell_formula_units_Z 40
_cell_length_a 9.403651
_cell_length_b 21.107887
_cell_length_c 10.063547
_cell_angle_alpha 90.000000
_cell_angle_beta 90.000000
_cell_angle_gamma 90.000000
_cell_volume 1997.525547
_symmetry_space_group_name_H-M "P N M A"
_symmetry_group_IT_number 62
_symmetry_cell_setting 'orthorhombic'
loop_
_space_group_symop_operation_xyz
x,y,z
1/2-x,-y,1/2+z
1/2+x,1/2-y,1/2-z
-x,1/2+y,-z
-x,-y,-z
1/2+x,y,1/2-z
1/2-x,1/2+y,1/2+z
x,1/2-y,z
loop_
_atom_site_type_symbol
_atom_site_label
_atom_site_fract_x
_atom_site_fract_y
_atom_site_fract_z
Si Si1 0.034776 0.108416 0.032831
Si Si2 0.455117 0.750000 0.604483
Si Si3 0.551336 0.033968 0.197415
Si Si4 0.311148 0.948429 0.279271
Si Si5 0.801509 0.882495 0.483893
Si Si6 0.792397 0.750000 0.617873
O O1 0.071152 0.183370 0.030081
O O2 0.076513 0.079162 0.175247
O O3 0.863826 0.101427 0.016959
O O4 0.113697 0.070862 0.915884
O O5 0.622653 0.750000 0.638404
O O6 0.367808 0.750000 0.740509
O O7 0.594851 0.071549 0.066225
O O8 0.392916 0.008010 0.213310
O O9 0.651474 0.972253 0.202232
O O10 0.319481 0.892644 0.172233
O O11 0.829781 0.812288 0.535172
#
# Coordination Sequence:
#
# PCOD9466855 Si02
#       6
#     8   4   8   8   8   4
#     4  11  23  43  64  93 130 160 207 264 307 363
#     4  10  22  43  68  88 120 166 206 257 312 360
#     4  12  22  40  67  89 130 167 203 255 308 371
#     4  12  24  40  63  93 130 167 202 252 317 366
#     4  11  23  42  65  93 126 164 209 259 308 369
#     4  10  22  43  66  90 120 162 210 259 306 368
#
# _framework density 20.024775999999999
#
# number of rings (size 3 to 8) (size 9 to 14) (size 15 to 20)
#    0.000    0.800    6.000    2.400    0.000    0.800 
#    3.600    0.000    0.000    0.000    0.000    0.000 
#    0.000    0.000    0.000    0.000    0.000    0.000 
#
# Total GULP energy -223653.359660 kJ/mol
# GULP energy per Si atom -5591.333991 kJ/mol
# Density = 1.997920 g / cm^3
# Si number density = 20.024776 Si / 1000 Ang^3
#
#
#
# Elastic Constant Matrix: (Units=GPa)
#
#
# Indices 1 2 3 4 5 6 
#
# 1 22.9141 1.2882 -9.3877 0.0000 0.0000 0.0000
# 2 1.2882 59.0404 2.5613 0.0000 0.0000 0.0000
# 3 -9.3877 2.5613 50.8492 0.0000 0.0000 0.0000
# 4 0.0000 0.0000 0.0000 5.8076 0.0000 0.0000
# 5 0.0000 0.0000 0.0000 0.0000 23.9683 0.0000
# 6 0.0000 0.0000 0.0000 0.0000 0.0000 19.9808
#
#
#
# Elastic Compliance Matrix: (Units=1/GPa)
#
#
# Indices 1 2 3 4 5 6 
#
# 1 0.047330 -0.001415 0.008809 0.000000 0.000000 0.000000
# 2 -0.001415 0.017017 -0.001118 0.000000 0.000000 0.000000
# 3 0.008809 -0.001118 0.021349 0.000000 0.000000 0.000000
# 4 0.000000 0.000000 0.000000 0.172187 0.000000 0.000000
# 5 0.000000 0.000000 0.000000 0.000000 0.041722 0.000000
# 6 0.000000 0.000000 0.000000 0.000000 0.000000 0.050048
#
#
# Mechanical properties :
#
#
# Convention : Reuss Voigt Hill
#
# Bulk Modulus (GPa) = 10.17838 13.52526 11.85182
# Shear Modulus (GPa) = 13.51902 19.17413 16.34657
#
# Velocity S-wave (km/s) = 2.60112 3.09774 2.86023
# Velocity P-wave (km/s) = 3.75699 4.42307 4.10357
#
# Compressibility (1/GPa) = 0.09824749
#
# Stress axis : x y z
#
# Youngs Moduli (GPa) = 21.12831 58.76495 46.84130
#
# Poissons Ratio (x) = 0.08314 -0.41264
# Poissons Ratio (y) = 0.02989 0.05239
# Poissons Ratio (z) = -0.18612 0.06572
#
# Static dielectric constant tensor:
#      x y z
#    x 1.675200 0.000000 0.000000 
#    y 0.000000 1.710190 0.000000 
#    z 0.000000 0.000000 1.673560 
# 
# From -- ./inp_files/4329.got.cif
#   From: 2010.05.17/outbox.cif.g08.bks.cpg/sg62_3_cif.got.tgz:4329.got - 2010.06.03 15:25:27.
