data_PCOD9466748
_publ_section_title
;
Structure prediction by ZEFSAII (Michael W. Deem and Ramdas Pophale) SiO2 
 PCOD9466748
Probable space group: P N M A
;
_chemical_formula_sum "Si O2"
_cell_formula_units_Z 32
_cell_length_a 10.043880
_cell_length_b 18.960056
_cell_length_c 8.955357
_cell_angle_alpha 90.000000
_cell_angle_beta 90.000000
_cell_angle_gamma 90.000000
_cell_volume 1705.391266
_symmetry_space_group_name_H-M "P N M A"
_symmetry_group_IT_number 62
_symmetry_cell_setting 'orthorhombic'
loop_
_space_group_symop_operation_xyz
x,y,z
1/2-x,-y,1/2+z
1/2+x,1/2-y,1/2-z
-x,1/2+y,-z
-x,-y,-z
1/2+x,y,1/2-z
1/2-x,1/2+y,1/2+z
x,1/2-y,z
loop_
_atom_site_type_symbol
_atom_site_label
_atom_site_fract_x
_atom_site_fract_y
_atom_site_fract_z
Si Si1 0.711492 0.833964 0.892529
Si Si2 0.025133 0.667264 0.893461
Si Si3 0.133287 0.531016 0.428177
Si Si4 0.381853 0.456074 0.574545
O O1 0.698322 0.750000 0.928383
O O2 0.618794 0.848579 0.748718
O O3 0.868730 0.848244 0.863284
O O4 0.663515 0.889210 0.016924
O O5 0.034586 0.750000 0.922396
O O6 0.080917 0.623572 0.032316
O O7 0.249798 0.481880 0.492190
O O8 0.127415 0.530281 0.249792
O O9 0.000000 0.500000 0.500000
O O10 0.500000 0.500000 0.500000
#
# Coordination Sequence:
#
# PCOD9466748 Si02
#       4
#     8   8   8   8
#     4  10  22  42  66  95 129 167 210 258 319 382
#     4  10  22  41  66  94 129 169 209 260 319 381
#     4  12  26  41  66  96 126 168 210 265 317 375
#     4  12  24  43  64  93 128 163 213 262 318 375
#
# _framework density 18.764021
#
# number of rings (size 3 to 8) (size 9 to 14) (size 15 to 20)
#    0.000    1.000    2.500    4.500    3.500    1.000 
#    0.000    0.000    0.000    0.000    0.000    0.000 
#    0.000    0.000    0.000    0.000    0.000    0.000 
#
# Total GULP energy -178819.520910 kJ/mol
# GULP energy per Si atom -5588.110028 kJ/mol
# Density = 1.872131 g / cm^3
# Si number density = 18.764021 Si / 1000 Ang^3
#
#
#
# Elastic Constant Matrix: (Units=GPa)
#
#
# Indices 1 2 3 4 5 6 
#
# 1 181.2104 56.4041 90.6997 0.0000 0.0000 0.0000
# 2 56.4041 78.1654 69.1146 0.0000 0.0000 0.0000
# 3 90.6997 69.1146 186.9469 0.0000 0.0000 0.0000
# 4 0.0000 0.0000 0.0000 39.8018 0.0000 0.0000
# 5 0.0000 0.0000 0.0000 0.0000 27.2486 0.0000
# 6 0.0000 0.0000 0.0000 0.0000 0.0000 36.3560
#
#
#
# Elastic Compliance Matrix: (Units=1/GPa)
#
#
# Indices 1 2 3 4 5 6 
#
# 1 0.007858 -0.003416 -0.002549 0.000000 0.000000 0.000000
# 2 -0.003416 0.020491 -0.005918 0.000000 0.000000 0.000000
# 3 -0.002549 -0.005918 0.008774 0.000000 0.000000 0.000000
# 4 0.000000 0.000000 0.000000 0.025125 0.000000 0.000000
# 5 0.000000 0.000000 0.000000 0.000000 0.036699 0.000000
# 6 0.000000 0.000000 0.000000 0.000000 0.000000 0.027506
#
#
# Mechanical properties :
#
#
# Convention : Reuss Voigt Hill
#
# Bulk Modulus (GPa) = 74.87449 97.63996 86.25722
# Shear Modulus (GPa) = 32.32644 36.02156 34.17400
#
# Velocity S-wave (km/s) = 4.15515 4.38621 4.27224
# Velocity P-wave (km/s) = 7.93790 8.82046 8.39079
#
# Compressibility (1/GPa) = 0.01335568
#
# Stress axis : x y z
#
# Youngs Moduli (GPa) = 127.26317 48.80082 113.97246
#
# Poissons Ratio (x) = 0.16670 0.29056
# Poissons Ratio (y) = 0.43472 0.67454
# Poissons Ratio (z) = 0.32445 0.28882
#
# Static dielectric constant tensor:
#      x y z
#    x 1.610660 0.000000 0.000000 
#    y 0.000000 1.679950 0.000000 
#    z 0.000000 0.000000 1.609580 
# 
# From -- ./inp_files/4111.got.cif
#   From: 2010.05.17/outbox.cif.g08.bks.cpg/sg62_3_cif.got.tgz:4111.got - 2010.06.03 15:25:27.
