data_PCOD9466527
_publ_section_title
;
Structure prediction by ZEFSAII (Michael W. Deem and Ramdas Pophale) SiO2 
 PCOD9466527
Probable space group: P N M A
;
_chemical_formula_sum "Si O2"
_cell_formula_units_Z 40
_cell_length_a 10.359995
_cell_length_b 10.499918
_cell_length_c 17.429013
_cell_angle_alpha 90.000000
_cell_angle_beta 90.000000
_cell_angle_gamma 90.000000
_cell_volume 1895.912313
_symmetry_space_group_name_H-M "P N M A"
_symmetry_group_IT_number 62
_symmetry_cell_setting 'orthorhombic'
loop_
_space_group_symop_operation_xyz
x,y,z
1/2-x,-y,1/2+z
1/2+x,1/2-y,1/2-z
-x,1/2+y,-z
-x,-y,-z
1/2+x,y,1/2-z
1/2-x,1/2+y,1/2+z
x,1/2-y,z
loop_
_atom_site_type_symbol
_atom_site_label
_atom_site_fract_x
_atom_site_fract_y
_atom_site_fract_z
Si Si1 0.444652 0.601986 0.060200
Si Si2 0.862979 0.029715 0.213659
Si Si3 0.726777 0.886069 0.873379
Si Si4 0.513354 0.610094 0.562929
Si Si5 0.101391 0.889375 0.284676
O O1 0.416613 0.750000 0.036904
O O2 0.325691 0.520281 0.094475
O O3 0.547778 0.610321 0.128935
O O4 0.500000 0.500000 0.000000
O O5 0.811228 0.114885 0.283862
O O6 0.879787 0.085463 0.128642
O O7 0.751147 0.923981 0.212949
O O8 0.003585 0.980457 0.239431
O O9 0.674092 0.750000 0.906658
O O10 0.877119 0.884894 0.892455
O O11 0.500000 0.500000 0.500000
O O12 0.535215 0.750000 0.527557
O O13 0.085498 0.750000 0.250174
#
# Coordination Sequence:
#
# PCOD9466527 Si02
#       5
#     8   8   8   8   8
#     4  10  22  40  62  94 130 171 218 270 335 398
#     4  11  21  44  67  98 126 175 229 275 339 404
#     4  10  22  43  67  94 130 171 222 280 334 400
#     4  11  26  45  67 100 137 180 224 281 346 404
#     4  10  22  38  64  96 131 169 217 277 336 399
#
# _framework density 21.098020999999999
#
# number of rings (size 3 to 8) (size 9 to 14) (size 15 to 20)
#    0.000    1.600    2.000    1.800    2.800    3.200 
#    0.000    2.000    0.000    0.000    0.000    0.000 
#    0.000    0.000    0.000    0.000    0.000    0.000 
#
# Total GULP energy -222806.030663 kJ/mol
# GULP energy per Si atom -5570.150767 kJ/mol
# Density = 2.105000 g / cm^3
# Si number density = 21.098021 Si / 1000 Ang^3
#
#
#
# Elastic Constant Matrix: (Units=GPa)
#
#
# Indices 1 2 3 4 5 6 
#
# 1 57.9205 24.7925 26.4540 0.0000 0.0000 0.0000
# 2 24.7925 176.7250 59.4973 0.0000 0.0000 0.0000
# 3 26.4540 59.4973 52.0551 0.0000 0.0000 0.0000
# 4 0.0000 0.0000 0.0000 22.8394 0.0000 0.0000
# 5 0.0000 0.0000 0.0000 0.0000 6.6398 0.0000
# 6 0.0000 0.0000 0.0000 0.0000 0.0000 11.2988
#
#
#
# Elastic Compliance Matrix: (Units=1/GPa)
#
#
# Indices 1 2 3 4 5 6 
#
# 1 0.022622 0.001133 -0.012791 0.000000 0.000000 0.000000
# 2 0.001133 0.009255 -0.011153 0.000000 0.000000 0.000000
# 3 -0.012791 -0.011153 0.038459 0.000000 0.000000 0.000000
# 4 0.000000 0.000000 0.000000 0.043784 0.000000 0.000000
# 5 0.000000 0.000000 0.000000 0.000000 0.150606 0.000000
# 6 0.000000 0.000000 0.000000 0.000000 0.000000 0.088505
#
#
# Mechanical properties :
#
#
# Convention : Reuss Voigt Hill
#
# Bulk Modulus (GPa) = 40.46607 56.46536 48.46571
# Shear Modulus (GPa) = 12.28225 19.88606 16.08416
#
# Velocity S-wave (km/s) = 2.41540 3.07344 2.76407
# Velocity P-wave (km/s) = 5.19620 6.27823 5.76267
#
# Compressibility (1/GPa) = 0.02471206
#
# Stress axis : x y z
#
# Youngs Moduli (GPa) = 44.20426 108.05508 26.00200
#
# Poissons Ratio (x) = -0.12239 0.33259
# Poissons Ratio (y) = -0.05007 0.29001
# Poissons Ratio (z) = 0.56542 1.20517
#
# Static dielectric constant tensor:
#      x y z
#    x 1.768570 0.000000 0.000000 
#    y 0.000000 1.866850 0.000000 
#    z 0.000000 0.000000 1.790220 
# 
# From -- ./inp_files/22799.got.cif
#   From: 2010.05.17/outbox.cif.g08.bks.cpg/sg62_12_cif.got.tgz:22799.got - 2010.06.03 15:25:27.
