data_PCOD9466130
_publ_section_title
;
Structure prediction by ZEFSAII (Michael W. Deem and Ramdas Pophale) SiO2 
 PCOD9466130
Probable space group: P N M A
;
_chemical_formula_sum "Si O2"
_cell_formula_units_Z 48
_cell_length_a 7.787810
_cell_length_b 12.920642
_cell_length_c 22.801716
_cell_angle_alpha 90.000000
_cell_angle_beta 90.000000
_cell_angle_gamma 90.000000
_cell_volume 2294.388583
_symmetry_space_group_name_H-M "P N M A"
_symmetry_group_IT_number 62
_symmetry_cell_setting 'orthorhombic'
loop_
_space_group_symop_operation_xyz
x,y,z
1/2-x,-y,1/2+z
1/2+x,1/2-y,1/2-z
-x,1/2+y,-z
-x,-y,-z
1/2+x,y,1/2-z
1/2-x,1/2+y,1/2+z
x,1/2-y,z
loop_
_atom_site_type_symbol
_atom_site_label
_atom_site_fract_x
_atom_site_fract_y
_atom_site_fract_z
Si Si1 0.519703 0.559810 0.428172
Si Si2 0.173000 0.004234 0.261525
Si Si3 0.542992 0.363791 0.695622
Si Si4 0.155273 0.131834 0.141169
Si Si5 0.695563 0.469460 0.019350
Si Si6 0.951155 0.634115 0.631807
O O1 0.511881 0.631666 0.371783
O O2 0.550440 0.444823 0.400685
O O3 0.685183 0.582184 0.468984
O O4 0.333696 0.558031 0.460110
O O5 0.348024 0.968072 0.291979
O O6 0.113135 0.892787 0.237679
O O7 0.175782 0.081916 0.206287
O O8 0.069742 0.055978 0.314208
O O9 0.611693 0.250000 0.707892
O O10 0.091038 0.250000 0.144753
O O11 0.348257 0.133755 0.115493
O O12 0.660177 0.399931 0.076443
O O13 0.500000 0.500000 0.000000
O O14 0.904616 0.750000 0.651285
#
# Coordination Sequence:
#
# PCOD9466130 Si02
#       6
#     8   8   8   8   8   8
#     4  10  23  41  66  90 127 177 210 269 320 376
#     4  11  21  41  61  93 132 165 205 272 329 384
#     4  11  23  40  64  91 123 171 222 264 320 390
#     4  10  21  39  64  97 132 166 210 262 327 399
#     4  11  22  42  65  91 130 168 213 266 321 374
#     4  11  22  38  64  95 127 169 213 262 334 393
#
# _framework density 20.920605999999999
#
# number of rings (size 3 to 8) (size 9 to 14) (size 15 to 20)
#    0.000    1.333    5.000    1.000    0.000    1.333 
#    0.000    3.333    0.000    0.000    0.000    0.000 
#    0.000    0.000    0.000    0.000    0.000    0.000 
#
# Total GULP energy -267277.527456 kJ/mol
# GULP energy per Si atom -5568.281822 kJ/mol
# Density = 2.087299 g / cm^3
# Si number density = 20.920606 Si / 1000 Ang^3
#
#
#
# Elastic Constant Matrix: (Units=GPa)
#
#
# Indices 1 2 3 4 5 6 
#
# 1 115.2494 17.2244 34.0893 0.0000 0.0000 0.0000
# 2 17.2244 91.7283 28.6327 0.0000 0.0000 0.0000
# 3 34.0893 28.6327 101.5292 0.0000 0.0000 0.0000
# 4 0.0000 0.0000 0.0000 -71.8456 0.0000 0.0000
# 5 0.0000 0.0000 0.0000 0.0000 39.3494 0.0000
# 6 0.0000 0.0000 0.0000 0.0000 0.0000 22.2159
#
#
#
# Elastic Compliance Matrix: (Units=1/GPa)
#
#
# Indices 1 2 3 4 5 6 
#
# 1 0.009698 -0.000882 -0.003007 0.000000 0.000000 0.000000
# 2 -0.000882 0.012034 -0.003098 0.000000 0.000000 0.000000
# 3 -0.003007 -0.003098 0.011733 0.000000 0.000000 0.000000
# 4 0.000000 0.000000 0.000000 -0.013919 0.000000 0.000000
# 5 0.000000 0.000000 0.000000 0.000000 0.025413 0.000000
# 6 0.000000 0.000000 0.000000 0.000000 0.000000 0.045013
#
#
# Mechanical properties :
#
#
# Convention : Reuss Voigt Hill
#
# Bulk Modulus (GPa) = 51.30687 52.04440 51.67563
# Shear Modulus (GPa) = 45.27166 13.18130 29.22648
#
# Velocity S-wave (km/s) = 4.65690 2.51283 3.74173
# Velocity P-wave (km/s) = 7.31392 5.77496 6.58952
#
# Compressibility (1/GPa) = 0.01949057
#
# Stress axis : x y z
#
# Youngs Moduli (GPa) = 103.11119 83.09546 85.23167
#
# Poissons Ratio (x) = 0.07332 0.25633
# Poissons Ratio (y) = 0.09098 0.26401
# Poissons Ratio (z) = 0.31010 0.25740
#
# Static dielectric constant tensor:
#      x y z
#    x 1.970260 0.000000 0.000000 
#    y 0.000000 1.726740 0.000000 
#    z 0.000000 0.000000 1.251940 
# 
# From -- ./inp_files/28802.got.cif
#   From: 2010.05.17/outbox.cif.g08.bks.cpg/sg62_15_cif.got.tgz:28802.got - 2010.06.03 15:25:27.
