data_PCOD9466826
_publ_section_title
;
Structure prediction by ZEFSAII (Michael W. Deem and Ramdas Pophale) SiO2 
 PCOD9466826
Probable space group: P N M A
;
_chemical_formula_sum "Si O2"
_cell_formula_units_Z 52
_cell_length_a 17.992364
_cell_length_b 19.424732
_cell_length_c 7.056284
_cell_angle_alpha 90.000000
_cell_angle_beta 90.000000
_cell_angle_gamma 90.000000
_cell_volume 2466.149022
_symmetry_space_group_name_H-M "P N M A"
_symmetry_group_IT_number 62
_symmetry_cell_setting 'orthorhombic'
loop_
_space_group_symop_operation_xyz
x,y,z
1/2-x,-y,1/2+z
1/2+x,1/2-y,1/2-z
-x,1/2+y,-z
-x,-y,-z
1/2+x,y,1/2-z
1/2-x,1/2+y,1/2+z
x,1/2-y,z
loop_
_atom_site_type_symbol
_atom_site_label
_atom_site_fract_x
_atom_site_fract_y
_atom_site_fract_z
Si Si1 0.876249 0.750000 0.723133
Si Si2 0.593202 0.250000 0.676240
Si Si3 0.720258 0.380849 0.280091
Si Si4 0.926397 0.483491 0.114686
Si Si5 0.023681 0.750000 0.465542
Si Si6 0.116214 0.881775 0.584990
Si Si7 0.684421 0.962468 0.268637
Si Si8 0.333435 0.891083 0.285271
O O1 0.826680 0.681175 0.689336
O O2 0.951400 0.750000 0.601869
O O3 0.898738 0.750000 0.948195
O O4 0.633315 0.317313 0.759503
O O5 0.509364 0.250000 0.753142
O O6 0.807440 0.364384 0.302541
O O7 0.708188 0.459605 0.213539
O O8 0.689574 0.385196 0.494699
O O9 0.934413 0.423569 0.267670
O O10 0.895527 0.550064 0.225676
O O11 0.865822 0.464611 0.954993
O O12 0.000000 0.500000 0.000000
O O13 0.073545 0.816169 0.507564
O O14 0.141461 0.928944 0.408130
O O15 0.757957 0.917409 0.309545
#
# Coordination Sequence:
#
# PCOD9466826 Si02
#       8
#     4   4   8   8   4   8   8   8
#     4  10  23  43  69  89 139 172 221 275 326 403
#     4  10  24  44  66  90 138 177 218 267 336 397
#     4   9  19  42  69  96 120 176 219 278 329 376
#     4  11  25  40  66 101 132 173 217 269 348 389
#     4  12  29  41  61 105 133 181 219 258 346 412
#     4  11  25  43  66  96 139 169 222 283 324 401
#     4  10  22  42  70 101 126 169 230 279 330 395
#     4   9  20  42  69  96 125 170 226 270 320 405
#
# _framework density 21.085505000000001
#
# number of rings (size 3 to 8) (size 9 to 14) (size 15 to 20)
#    0.000    1.846    1.538    0.462    8.615    4.923 
#    0.000    0.769    0.000    1.846    0.000    0.000 
#    0.000    0.000    0.000    0.000    0.000    0.000 
#
# Total GULP energy -290667.318045 kJ/mol
# GULP energy per Si atom -5589.756116 kJ/mol
# Density = 2.103751 g / cm^3
# Si number density = 21.085505 Si / 1000 Ang^3
#
#
#
# Elastic Constant Matrix: (Units=GPa)
#
#
# Indices 1 2 3 4 5 6 
#
# 1 100.7574 78.0841 22.6323 0.0000 0.0000 0.0000
# 2 78.0841 130.2681 28.9548 0.0000 0.0000 0.0000
# 3 22.6323 28.9548 74.5781 0.0000 0.0000 0.0000
# 4 0.0000 0.0000 0.0000 7.9593 0.0000 0.0000
# 5 0.0000 0.0000 0.0000 0.0000 35.2199 0.0000
# 6 0.0000 0.0000 0.0000 0.0000 0.0000 -9.0560
#
#
#
# Elastic Compliance Matrix: (Units=1/GPa)
#
#
# Indices 1 2 3 4 5 6 
#
# 1 0.018676 -0.010873 -0.001446 0.000000 0.000000 0.000000
# 2 -0.010873 0.014732 -0.002420 0.000000 0.000000 0.000000
# 3 -0.001446 -0.002420 0.014787 0.000000 0.000000 0.000000
# 4 0.000000 0.000000 0.000000 0.125639 0.000000 0.000000
# 5 0.000000 0.000000 0.000000 0.000000 0.028393 0.000000
# 6 0.000000 0.000000 0.000000 0.000000 0.000000 -0.110424
#
#
# Mechanical properties :
#
#
# Convention : Reuss Voigt Hill
#
# Bulk Modulus (GPa) = 53.42860 62.77177 58.10019
# Shear Modulus (GPa) = 39.20933 18.55347 28.88140
#
# Velocity S-wave (km/s) = 4.31692 2.96956 3.70500
# Velocity P-wave (km/s) = 7.08814 6.44922 6.77621
#
# Compressibility (1/GPa) = 0.01871657
#
# Stress axis : x y z
#
# Youngs Moduli (GPa) = 53.54430 67.87993 67.62624
#
# Poissons Ratio (x) = 0.73807 0.09780
# Poissons Ratio (y) = 0.58220 0.16365
# Poissons Ratio (z) = 0.07743 0.16426
#
# Static dielectric constant tensor:
#      x y z
#    x 1.745890 0.000000 0.000000 
#    y 0.000000 1.764520 0.000000 
#    z 0.000000 0.000000 1.796670 
# 
# From -- ./inp_files/7947.got.cif
#   From: 2010.05.17/outbox.cif.g08.bks.cpg/sg62_4_cif.got.tgz:7947.got - 2010.06.03 15:25:27.
