data_PCOD9466841
_publ_section_title
;
Structure prediction by ZEFSAII (Michael W. Deem and Ramdas Pophale) SiO2 
 PCOD9466841
Probable space group: P N M A
;
_chemical_formula_sum "Si O2"
_cell_formula_units_Z 56
_cell_length_a 9.552820
_cell_length_b 14.495516
_cell_length_c 18.857782
_cell_angle_alpha 90.000000
_cell_angle_beta 90.000000
_cell_angle_gamma 90.000000
_cell_volume 2611.294687
_symmetry_space_group_name_H-M "P N M A"
_symmetry_group_IT_number 62
_symmetry_cell_setting 'orthorhombic'
loop_
_space_group_symop_operation_xyz
x,y,z
1/2-x,-y,1/2+z
1/2+x,1/2-y,1/2-z
-x,1/2+y,-z
-x,-y,-z
1/2+x,y,1/2-z
1/2-x,1/2+y,1/2+z
x,1/2-y,z
loop_
_atom_site_type_symbol
_atom_site_label
_atom_site_fract_x
_atom_site_fract_y
_atom_site_fract_z
Si Si1 0.254419 0.642205 0.131291
Si Si2 0.231222 0.352080 0.034672
Si Si3 0.334171 0.638771 0.907946
Si Si4 0.988864 0.361168 0.544333
Si Si5 0.007504 0.639553 0.734004
Si Si6 0.428522 0.400887 0.491446
Si Si7 0.781491 0.547554 0.821083
O O1 0.250612 0.750000 0.153097
O O2 0.413239 0.611860 0.109633
O O3 0.204123 0.562581 0.184297
O O4 0.160470 0.631665 0.059867
O O5 0.283686 0.250000 0.058481
O O6 0.249863 0.424058 0.097784
O O7 0.325836 0.381897 0.967477
O O8 0.068741 0.343296 0.018506
O O9 0.322466 0.750000 0.911702
O O10 0.409538 0.617666 0.834308
O O11 0.435250 0.607233 0.972034
O O12 0.180390 0.601849 0.926421
O O13 0.999910 0.250000 0.546466
O O14 0.026462 0.750000 0.738519
O O15 0.922218 0.600123 0.799854
O O16 0.154919 0.589802 0.723917
O O17 0.500000 0.500000 0.500000
#
# Coordination Sequence:
#
# PCOD9466841 Si02
#       7
#     8   8   8   8   8   8   8
#     4  10  22  43  63  86 124 166 206 252 304 366
#     4  11  20  34  56  89 125 154 194 246 304 368
#     4   9  18  35  57  80 117 163 195 234 301 366
#     4   8  16  33  59  86 115 156 196 237 300 365
#     4  11  24  42  61  88 123 157 201 258 313 369
#     4  11  21  34  56  93 126 158 197 244 307 371
#     4  12  25  40  62  89 120 163 210 248 306 368
#
# _framework density 21.445301000000001
#
# number of rings (size 3 to 8) (size 9 to 14) (size 15 to 20)
#    0.000    1.714    2.857    3.429    2.000    1.714 
#    0.000    0.714    0.000    0.000    0.000    0.000 
#    0.000    0.000    0.000    0.000    0.000    0.000 
#
# Total GULP energy -312622.911589 kJ/mol
# GULP energy per Si atom -5582.551993 kJ/mol
# Density = 2.139649 g / cm^3
# Si number density = 21.445301 Si / 1000 Ang^3
#
#
#
# Elastic Constant Matrix: (Units=GPa)
#
#
# Indices 1 2 3 4 5 6 
#
# 1 119.0032 21.4486 8.0929 0.0000 0.0000 0.0000
# 2 21.4486 127.8042 13.2154 0.0000 0.0000 0.0000
# 3 8.0929 13.2154 11.0250 0.0000 0.0000 0.0000
# 4 0.0000 0.0000 0.0000 22.7750 0.0000 0.0000
# 5 0.0000 0.0000 0.0000 0.0000 29.4427 0.0000
# 6 0.0000 0.0000 0.0000 0.0000 0.0000 30.2504
#
#
#
# Elastic Compliance Matrix: (Units=1/GPa)
#
#
# Indices 1 2 3 4 5 6 
#
# 1 0.008942 -0.000938 -0.005439 0.000000 0.000000 0.000000
# 2 -0.000938 0.009030 -0.010135 0.000000 0.000000 0.000000
# 3 -0.005439 -0.010135 0.106844 0.000000 0.000000 0.000000
# 4 0.000000 0.000000 0.000000 0.043908 0.000000 0.000000
# 5 0.000000 0.000000 0.000000 0.000000 0.033964 0.000000
# 6 0.000000 0.000000 0.000000 0.000000 0.000000 0.033057
#
#
# Mechanical properties :
#
#
# Convention : Reuss Voigt Hill
#
# Bulk Modulus (GPa) = 10.89436 38.14960 24.52198
# Shear Modulus (GPa) = 16.70184 30.83199 23.76692
#
# Velocity S-wave (km/s) = 2.79375 3.79582 3.33266
# Velocity P-wave (km/s) = 3.93672 6.08596 5.12526
#
# Compressibility (1/GPa) = 0.09179060
#
# Stress axis : x y z
#
# Youngs Moduli (GPa) = 111.82994 110.74265 9.35943
#
# Poissons Ratio (x) = 0.10391 0.05091
# Poissons Ratio (y) = 0.10493 0.09486
# Poissons Ratio (z) = 0.60828 1.12240
#
# Static dielectric constant tensor:
#      x y z
#    x 1.809580 0.000000 0.000000 
#    y 0.000000 2.026920 0.000000 
#    z 0.000000 0.000000 1.789660 
# 
# From -- ./inp_files/26026.got.cif
#   From: 2010.05.17/outbox.cif.g08.bks.cpg/sg62_14_cif.got.tgz:26026.got - 2010.06.03 15:25:27.
