data_PCOD9466381
_publ_section_title
;
Structure prediction by ZEFSAII (Michael W. Deem and Ramdas Pophale) SiO2 
 PCOD9466381
Probable space group: P N M A
;
_chemical_formula_sum "Si O2"
_cell_formula_units_Z 48
_cell_length_a 28.441764
_cell_length_b 14.370749
_cell_length_c 4.962066
_cell_angle_alpha 90.000000
_cell_angle_beta 90.000000
_cell_angle_gamma 90.000000
_cell_volume 2028.142515
_symmetry_space_group_name_H-M "P N M A"
_symmetry_group_IT_number 62
_symmetry_cell_setting 'orthorhombic'
loop_
_space_group_symop_operation_xyz
x,y,z
1/2-x,-y,1/2+z
1/2+x,1/2-y,1/2-z
-x,1/2+y,-z
-x,-y,-z
1/2+x,y,1/2-z
1/2-x,1/2+y,1/2+z
x,1/2-y,z
loop_
_atom_site_type_symbol
_atom_site_label
_atom_site_fract_x
_atom_site_fract_y
_atom_site_fract_z
Si Si1 0.641452 0.557349 0.743519
Si Si2 0.075112 0.412692 0.531950
Si Si3 0.110732 0.650814 0.255960
Si Si4 0.364777 0.750000 0.798864
Si Si5 0.760450 0.059081 0.553785
Si Si6 0.017117 0.926619 0.218761
Si Si7 0.204336 0.250000 0.806930
O O1 0.616393 0.458485 0.790586
O O2 0.638371 0.579161 0.430689
O O3 0.691321 0.567951 0.886790
O O4 0.612189 0.630525 0.926676
O O5 0.101476 0.339098 0.345916
O O6 0.047964 0.501731 0.403243
O O7 0.029574 0.373365 0.685155
O O8 0.132953 0.750000 0.205821
O O9 0.057699 0.644981 0.146861
O O10 0.321536 0.750000 0.016259
O O11 0.339147 0.750000 0.514447
O O12 0.735453 0.156389 0.637493
O O13 0.768170 0.998158 0.824126
O O14 0.000000 0.000000 0.000000
#
# Coordination Sequence:
#
# PCOD9466381 Si02
#       7
#     8   8   8   4   8   8   4
#     4  11  23  43  68  94 134 173 223 273 346 404
#     4  10  23  42  66  99 134 187 224 286 341 415
#     4  11  24  39  64  96 132 171 219 271 323 405
#     4  12  28  46  74 100 145 183 244 294 354 424
#     4  12  26  47  75 104 141 187 231 302 369 428
#     4  10  21  42  63  95 137 177 226 274 339 403
#     4  12  28  48  72 110 143 181 252 304 360 448
#
# _framework density 23.666975999999998
#
# number of rings (size 3 to 8) (size 9 to 14) (size 15 to 20)
#    0.000    1.000    1.667    4.500    5.833    1.333 
#    1.500    0.000    0.000    0.000    0.000    0.000 
#    0.000    0.000    0.000    0.000    0.000    0.000 
#
# Total GULP energy -267732.405554 kJ/mol
# GULP energy per Si atom -5577.758449 kJ/mol
# Density = 2.361311 g / cm^3
# Si number density = 23.666976 Si / 1000 Ang^3
#
#
#
# Elastic Constant Matrix: (Units=GPa)
#
#
# Indices 1 2 3 4 5 6 
#
# 1 114.4054 16.4012 -11.0665 0.0000 0.0000 0.0000
# 2 16.4012 88.6072 -2.4899 0.0000 0.0000 0.0000
# 3 -11.0665 -2.4899 62.8431 0.0000 0.0000 0.0000
# 4 0.0000 0.0000 0.0000 14.7826 0.0000 0.0000
# 5 0.0000 0.0000 0.0000 0.0000 34.2748 0.0000
# 6 0.0000 0.0000 0.0000 0.0000 0.0000 12.1864
#
#
#
# Elastic Compliance Matrix: (Units=1/GPa)
#
#
# Indices 1 2 3 4 5 6 
#
# 1 0.009126 -0.001646 0.001542 0.000000 0.000000 0.000000
# 2 -0.001646 0.011595 0.000170 0.000000 0.000000 0.000000
# 3 0.001542 0.000170 0.016191 0.000000 0.000000 0.000000
# 4 0.000000 0.000000 0.000000 0.067647 0.000000 0.000000
# 5 0.000000 0.000000 0.000000 0.000000 0.029176 0.000000
# 6 0.000000 0.000000 0.000000 0.000000 0.000000 0.082058
#
#
# Mechanical properties :
#
#
# Convention : Reuss Voigt Hill
#
# Bulk Modulus (GPa) = 26.99559 30.17169 28.58364
# Shear Modulus (GPa) = 21.92884 29.78282 25.85583
#
# Velocity S-wave (km/s) = 3.04724 3.55126 3.30886
# Velocity P-wave (km/s) = 4.87977 5.43980 5.16737
#
# Compressibility (1/GPa) = 0.03704309
#
# Stress axis : x y z
#
# Youngs Moduli (GPa) = 109.57772 86.24274 61.76313
#
# Poissons Ratio (x) = 0.14195 -0.09523
# Poissons Ratio (y) = 0.18035 -0.01047
# Poissons Ratio (z) = -0.16895 -0.01463
#
# Static dielectric constant tensor:
#      x y z
#    x 2.049430 0.000000 0.000000 
#    y 0.000000 2.038410 0.000000 
#    z 0.000000 0.000000 1.938630 
# 
# From -- ./inp_files/3206.got.cif
#   From: 2010.05.17/outbox.cif.g08.bks.cpg/sg62_2_cif.got.tgz:3206.got - 2010.06.03 15:25:27.
