data_PCOD9466509
_publ_section_title
;
Structure prediction by ZEFSAII (Michael W. Deem and Ramdas Pophale) SiO2 
 PCOD9466509
Probable space group: P N M A
;
_chemical_formula_sum "Si O2"
_cell_formula_units_Z 40
_cell_length_a 12.552557
_cell_length_b 17.317731
_cell_length_c 9.581335
_cell_angle_alpha 90.000000
_cell_angle_beta 90.000000
_cell_angle_gamma 90.000000
_cell_volume 2082.807901
_symmetry_space_group_name_H-M "P N M A"
_symmetry_group_IT_number 62
_symmetry_cell_setting 'orthorhombic'
loop_
_space_group_symop_operation_xyz
x,y,z
1/2-x,-y,1/2+z
1/2+x,1/2-y,1/2-z
-x,1/2+y,-z
-x,-y,-z
1/2+x,y,1/2-z
1/2-x,1/2+y,1/2+z
x,1/2-y,z
loop_
_atom_site_type_symbol
_atom_site_label
_atom_site_fract_x
_atom_site_fract_y
_atom_site_fract_z
Si Si1 0.247155 0.662377 0.903760
Si Si2 0.346042 0.895046 0.623745
Si Si3 0.026008 0.664525 0.057858
Si Si4 0.665121 0.493563 0.969667
Si Si5 0.480665 0.024013 0.772567
O O1 0.280859 0.750000 0.940453
O O2 0.276891 0.647772 0.742067
O O3 0.123259 0.655811 0.947499
O O4 0.306234 0.593466 0.985319
O O5 0.413353 0.842105 0.520793
O O6 0.269020 0.954592 0.545400
O O7 0.434461 0.948785 0.697613
O O8 0.037337 0.750000 0.120961
O O9 0.031036 0.596695 0.171201
O O10 0.600496 0.489262 0.825177
O O11 0.590363 0.531619 0.087657
#
# Coordination Sequence:
#
# PCOD9466509 Si02
#       5
#     8   8   8   8   8
#     4  10  22  39  58  87 122 159 199 251 310 357
#     4  11  21  37  64  86 117 161 204 249 294 367
#     4  11  23  38  60  90 123 158 200 252 301 355
#     4  10  22  38  61  87 118 157 199 254 305 355
#     4  10  22  38  59  91 117 153 206 247 296 362
#
# _framework density 19.204843
#
# number of rings (size 3 to 8) (size 9 to 14) (size 15 to 20)
#    0.000    1.600    2.000    2.400    5.600    0.800 
#    0.000    4.000    0.000    1.200    0.000    0.000 
#    0.000    0.000    0.000    0.000    0.000    0.000 
#
# Total GULP energy -223275.513891 kJ/mol
# GULP energy per Si atom -5581.887847 kJ/mol
# Density = 1.916113 g / cm^3
# Si number density = 19.204843 Si / 1000 Ang^3
#
#
#
# Elastic Constant Matrix: (Units=GPa)
#
#
# Indices 1 2 3 4 5 6 
#
# 1 74.6364 40.5453 25.6089 0.0000 0.0000 0.0000
# 2 40.5453 105.0532 38.7228 0.0000 0.0000 0.0000
# 3 25.6089 38.7228 57.8755 0.0000 0.0000 0.0000
# 4 0.0000 0.0000 0.0000 26.0552 0.0000 0.0000
# 5 0.0000 0.0000 0.0000 0.0000 27.9203 0.0000
# 6 0.0000 0.0000 0.0000 0.0000 0.0000 24.9501
#
#
#
# Elastic Compliance Matrix: (Units=1/GPa)
#
#
# Indices 1 2 3 4 5 6 
#
# 1 0.017737 -0.005247 -0.004338 0.000000 0.000000 0.000000
# 2 -0.005247 0.014187 -0.007171 0.000000 0.000000 0.000000
# 3 -0.004338 -0.007171 0.023996 0.000000 0.000000 0.000000
# 4 0.000000 0.000000 0.000000 0.038380 0.000000 0.000000
# 5 0.000000 0.000000 0.000000 0.000000 0.035816 0.000000
# 6 0.000000 0.000000 0.000000 0.000000 0.000000 0.040080
#
#
# Mechanical properties :
#
#
# Convention : Reuss Voigt Hill
#
# Bulk Modulus (GPa) = 44.62446 49.70212 47.16329
# Shear Modulus (GPa) = 23.67699 24.63099 24.15399
#
# Velocity S-wave (km/s) = 3.51503 3.58514 3.55026
# Velocity P-wave (km/s) = 6.30558 6.56307 6.43561
#
# Compressibility (1/GPa) = 0.02240923
#
# Stress axis : x y z
#
# Youngs Moduli (GPa) = 56.37989 70.48713 41.67438
#
# Poissons Ratio (x) = 0.36982 0.18078
# Poissons Ratio (y) = 0.29580 0.29883
# Poissons Ratio (z) = 0.24457 0.50543
#
# Static dielectric constant tensor:
#      x y z
#    x 1.676230 0.000000 0.000000 
#    y 0.000000 1.646490 0.000000 
#    z 0.000000 0.000000 1.678210 
# 
# From -- ./inp_files/5017.got.cif
#   From: 2010.05.17/outbox.cif.g08.bks.cpg/sg62_3_cif.got.tgz:5017.got - 2010.06.03 15:25:27.
