data_PCOD9466052
_publ_section_title
;
Structure prediction by ZEFSAII (Michael W. Deem and Ramdas Pophale) SiO2 
 PCOD9466052
Probable space group: P N M A
;
_chemical_formula_sum "Si O2"
_cell_formula_units_Z 64
_cell_length_a 15.484216
_cell_length_b 7.696027
_cell_length_c 25.069919
_cell_angle_alpha 90.000000
_cell_angle_beta 90.000000
_cell_angle_gamma 90.000000
_cell_volume 2987.505644
_symmetry_space_group_name_H-M "P N M A"
_symmetry_group_IT_number 62
_symmetry_cell_setting 'orthorhombic'
loop_
_space_group_symop_operation_xyz
x,y,z
1/2-x,-y,1/2+z
1/2+x,1/2-y,1/2-z
-x,1/2+y,-z
-x,-y,-z
1/2+x,y,1/2-z
1/2-x,1/2+y,1/2+z
x,1/2-y,z
loop_
_atom_site_type_symbol
_atom_site_label
_atom_site_fract_x
_atom_site_fract_y
_atom_site_fract_z
Si Si1 0.749669 0.954961 0.425494
Si Si2 0.065732 0.543851 0.773993
Si Si3 0.899875 0.457760 0.507290
Si Si4 0.279715 0.960256 0.194969
Si Si5 0.601146 0.541317 0.504623
Si Si6 0.361260 0.051224 0.876599
Si Si7 0.833316 0.038296 0.120912
Si Si8 0.618005 0.546719 0.236405
O O1 0.733003 0.750000 0.418485
O O2 0.768836 0.024697 0.366005
O O3 0.666250 0.025780 0.458287
O O4 0.834034 0.973465 0.462818
O O5 0.054787 0.750000 0.776341
O O6 0.132111 0.505026 0.725825
O O7 0.106268 0.486585 0.830092
O O8 0.971820 0.464634 0.766504
O O9 0.887739 0.250000 0.506777
O O10 0.877247 0.530052 0.565878
O O11 0.000000 0.500000 0.500000
O O12 0.276405 0.750000 0.193153
O O13 0.198851 0.025304 0.230595
O O14 0.500000 0.500000 0.500000
O O15 0.608997 0.750000 0.504041
O O16 0.633529 0.483144 0.562851
O O17 0.394505 0.250000 0.880338
O O18 0.396610 0.968340 0.822470
O O19 0.259050 0.045019 0.869057
O O20 0.825069 0.250000 0.121433
O O21 0.638780 0.750000 0.227498
#
# Coordination Sequence:
#
# PCOD9466052 Si02
#       8
#     8   8   8   8   8   8   8   8
#     4  10  22  41  62  86 119 157 197 241 291 350
#     4  11  24  39  59  90 121 154 194 241 297 354
#     4  11  24  40  61  90 119 155 198 244 294 348
#     4  10  22  41  63  86 116 156 199 242 290 347
#     4  10  22  39  60  87 118 155 195 239 290 346
#     4  10  21  39  63  87 111 148 202 248 286 340
#     4  10  21  39  61  85 117 154 194 242 297 347
#     4  10  22  40  62  87 116 155 198 243 291 345
#
# _framework density 21.422553000000001
#
# number of rings (size 3 to 8) (size 9 to 14) (size 15 to 20)
#    0.000    1.750    2.500    0.750    3.500    3.500 
#    0.000    0.000    0.000    0.000    0.000    0.000 
#    0.000    0.000    0.000    0.000    0.000    0.000 
#
# Total GULP energy -357353.118342 kJ/mol
# GULP energy per Si atom -5583.642474 kJ/mol
# Density = 2.137379 g / cm^3
# Si number density = 21.422553 Si / 1000 Ang^3
#
#
#
# Elastic Constant Matrix: (Units=GPa)
#
#
# Indices 1 2 3 4 5 6 
#
# 1 57.8648 -14.2453 -21.7913 0.0000 0.0000 0.0000
# 2 -14.2453 35.7422 3.5071 0.0000 0.0000 0.0000
# 3 -21.7913 3.5071 79.3882 0.0000 0.0000 0.0000
# 4 0.0000 0.0000 0.0000 15.7906 0.0000 0.0000
# 5 0.0000 0.0000 0.0000 0.0000 39.3535 0.0000
# 6 0.0000 0.0000 0.0000 0.0000 0.0000 -37.0586
#
#
#
# Elastic Compliance Matrix: (Units=1/GPa)
#
#
# Indices 1 2 3 4 5 6 
#
# 1 0.021310 0.007954 0.005498 0.000000 0.000000 0.000000
# 2 0.007954 0.031069 0.000811 0.000000 0.000000 0.000000
# 3 0.005498 0.000811 0.014070 0.000000 0.000000 0.000000
# 4 0.000000 0.000000 0.000000 0.063329 0.000000 0.000000
# 5 0.000000 0.000000 0.000000 0.000000 0.025411 0.000000
# 6 0.000000 0.000000 0.000000 0.000000 0.000000 -0.026984
#
#
# Mechanical properties :
#
#
# Convention : Reuss Voigt Hill
#
# Bulk Modulus (GPa) = 10.52919 11.99291 11.26105
# Shear Modulus (GPa) = 38.07018 17.31875 27.69447
#
# Velocity S-wave (km/s) = 4.22015 2.84638 3.59941
# Velocity P-wave (km/s) = 5.35461 4.05129 4.74789
#
# Compressibility (1/GPa) = 0.09497407
#
# Stress axis : x y z
#
# Youngs Moduli (GPa) = 46.92570 32.18680 71.07471
#
# Poissons Ratio (x) = -0.25601 -0.39078
# Poissons Ratio (y) = -0.37324 -0.05762
# Poissons Ratio (z) = -0.25800 -0.02610
#
# Static dielectric constant tensor:
#      x y z
#    x 1.738990 0.000000 0.000000 
#    y 0.000000 1.809390 0.000000 
#    z 0.000000 0.000000 1.787780 
# 
# From -- ./inp_files/29758.got.cif
#   From: 2010.05.17/outbox.cif.g08.bks.cpg/sg62_15_cif.got.tgz:29758.got - 2010.06.03 15:25:27.
