data_PCOD9466753
_publ_section_title
;
Structure prediction by ZEFSAII (Michael W. Deem and Ramdas Pophale) SiO2 
 PCOD9466753
Probable space group: P N M A
;
_chemical_formula_sum "Si O2"
_cell_formula_units_Z 56
_cell_length_a 14.687807
_cell_length_b 30.451050
_cell_length_c 5.120492
_cell_angle_alpha 90.000000
_cell_angle_beta 90.000000
_cell_angle_gamma 90.000000
_cell_volume 2290.186876
_symmetry_space_group_name_H-M "P N M A"
_symmetry_group_IT_number 62
_symmetry_cell_setting 'orthorhombic'
loop_
_space_group_symop_operation_xyz
x,y,z
1/2-x,-y,1/2+z
1/2+x,1/2-y,1/2-z
-x,1/2+y,-z
-x,-y,-z
1/2+x,y,1/2-z
1/2-x,1/2+y,1/2+z
x,1/2-y,z
loop_
_atom_site_type_symbol
_atom_site_label
_atom_site_fract_x
_atom_site_fract_y
_atom_site_fract_z
Si Si1 0.817205 0.385836 0.447419
Si Si2 0.057537 0.427186 0.698709
Si Si3 0.718107 0.055534 0.101639
Si Si4 0.500281 0.123119 0.304589
Si Si5 0.127770 0.298602 0.291391
Si Si6 0.881107 0.468868 0.797482
Si Si7 0.248064 0.700068 0.285453
O O1 0.851995 0.427396 0.616548
O O2 0.807752 0.342854 0.627494
O O3 0.892682 0.374000 0.230656
O O4 0.728058 0.402718 0.291038
O O5 0.165300 0.434145 0.668481
O O6 0.031850 0.413462 0.404425
O O7 0.990624 0.466469 0.787869
O O8 0.031737 0.390038 0.907146
O O9 0.822467 0.040319 0.057665
O O10 0.660442 0.014641 0.205609
O O11 0.547851 0.166922 0.209197
O O12 0.092720 0.250000 0.350683
O O13 0.204854 0.307920 0.507211
O O14 0.174477 0.298567 0.008580
O O15 0.206750 0.750000 0.282150
#
# Coordination Sequence:
#
# PCOD9466753 Si02
#       7
#     8   8   8   8   8   8   8
#     4  11  25  42  67  99 143 184 238 306 362 436
#     4  11  26  43  69 101 137 188 241 296 362 440
#     4  12  24  44  70  96 144 196 239 309 379 431
#     4  11  24  43  65 102 138 178 245 293 354 440
#     4  10  22  41  66  98 136 176 229 290 350 428
#     4  11  25  45  64 103 139 187 250 300 361 450
#     4  10  23  42  68 101 134 179 236 286 353 434
#
# _framework density 24.452152000000002
#
# number of rings (size 3 to 8) (size 9 to 14) (size 15 to 20)
#    0.000    1.143    2.857    2.143    8.000    0.571 
#    0.000    2.857    0.000    6.000    0.000    0.000 
#    0.000    0.000    0.000    0.000    0.000    0.000 
#
# Total GULP energy -313330.672790 kJ/mol
# GULP energy per Si atom -5595.190586 kJ/mol
# Density = 2.439650 g / cm^3
# Si number density = 24.452152 Si / 1000 Ang^3
#
#
#
# Elastic Constant Matrix: (Units=GPa)
#
#
# Indices 1 2 3 4 5 6 
#
# 1 59.3075 14.3855 1.6379 0.0000 0.0000 0.0000
# 2 14.3855 138.1236 19.5773 0.0000 0.0000 0.0000
# 3 1.6379 19.5773 58.6913 0.0000 0.0000 0.0000
# 4 0.0000 0.0000 0.0000 42.9004 0.0000 0.0000
# 5 0.0000 0.0000 0.0000 0.0000 30.6745 0.0000
# 6 0.0000 0.0000 0.0000 0.0000 0.0000 36.0184
#
#
#
# Elastic Compliance Matrix: (Units=1/GPa)
#
#
# Indices 1 2 3 4 5 6 
#
# 1 0.017299 -0.001819 0.000124 0.000000 0.000000 0.000000
# 2 -0.001819 0.007790 -0.002548 0.000000 0.000000 0.000000
# 3 0.000124 -0.002548 0.017885 0.000000 0.000000 0.000000
# 4 0.000000 0.000000 0.000000 0.023310 0.000000 0.000000
# 5 0.000000 0.000000 0.000000 0.000000 0.032600 0.000000
# 6 0.000000 0.000000 0.000000 0.000000 0.000000 0.027764
#
#
# Mechanical properties :
#
#
# Convention : Reuss Voigt Hill
#
# Bulk Modulus (GPa) = 28.99544 36.36931 32.68238
# Shear Modulus (GPa) = 34.09938 36.62012 35.35975
#
# Velocity S-wave (km/s) = 3.73840 3.87411 3.80686
# Velocity P-wave (km/s) = 5.52430 5.90911 5.71995
#
# Compressibility (1/GPa) = 0.03448818
#
# Stress axis : x y z
#
# Youngs Moduli (GPa) = 57.80642 128.36158 55.91373
#
# Poissons Ratio (x) = 0.23352 -0.00694
# Poissons Ratio (y) = 0.10517 0.14246
# Poissons Ratio (z) = -0.00717 0.32705
#
# Static dielectric constant tensor:
#      x y z
#    x 2.018400 0.000000 0.000000 
#    y 0.000000 1.986750 0.000000 
#    z 0.000000 0.000000 1.943670 
# 
# From -- ./inp_files/1279.got.cif
#   From: 2010.05.17/outbox.cif.g08.bks.cpg/sg62_1_cif.got.tgz:1279.got - 2010.06.03 15:25:27.
