data_PCOD9466369
_publ_section_title
;
Structure prediction by ZEFSAII (Michael W. Deem and Ramdas Pophale) SiO2 
 PCOD9466369
Probable space group: P N M A
;
_chemical_formula_sum "Si O2"
_cell_formula_units_Z 40
_cell_length_a 10.117517
_cell_length_b 17.383941
_cell_length_c 8.715083
_cell_angle_alpha 90.000000
_cell_angle_beta 90.000000
_cell_angle_gamma 90.000000
_cell_volume 1532.829005
_symmetry_space_group_name_H-M "P N M A"
_symmetry_group_IT_number 62
_symmetry_cell_setting 'orthorhombic'
loop_
_space_group_symop_operation_xyz
x,y,z
1/2-x,-y,1/2+z
1/2+x,1/2-y,1/2-z
-x,1/2+y,-z
-x,-y,-z
1/2+x,y,1/2-z
1/2-x,1/2+y,1/2+z
x,1/2-y,z
loop_
_atom_site_type_symbol
_atom_site_label
_atom_site_fract_x
_atom_site_fract_y
_atom_site_fract_z
Si Si1 0.176696 0.342924 0.373791
Si Si2 0.514204 0.160804 0.381711
Si Si3 0.833449 0.015059 0.595837
Si Si4 0.845416 0.342317 0.364458
Si Si5 0.457244 0.948922 0.355248
O O1 0.185843 0.250000 0.422679
O O2 0.348722 0.352611 0.336755
O O3 0.170344 0.426610 0.461911
O O4 0.011054 0.342270 0.330166
O O5 0.516605 0.250000 0.399604
O O6 0.676667 0.144411 0.325617
O O7 0.522386 0.131284 0.560261
O O8 0.848580 0.083568 0.476313
O O9 0.949274 0.026003 0.718620
O O10 0.693791 0.031668 0.678107
O O11 0.832777 0.250000 0.411123
O O12 0.500000 0.000000 0.500000
#
# Coordination Sequence:
#
# PCOD9466369 Si02
#       5
#     8   8   8   8   8
#     4  10  21  41  68  99 138 190 244 297 360 438
#     4  10  21  43  72  99 141 199 245 293 365 449
#     4  12  25  45  74 111 146 191 248 312 372 436
#     4  10  22  43  71 104 144 193 245 301 366 442
#     4  12  25  47  69 107 148 192 241 305 379 438
#
# _framework density 26.095538999999999
#
# number of rings (size 3 to 8) (size 9 to 14) (size 15 to 20)
#    0.000    1.200    4.000    1.200    0.000    1.600 
#    7.200    0.000    0.000    3.600    0.000    2.800 
#    0.000    0.000    0.000    0.000    0.000    0.000 
#
# Total GULP energy -222896.529984 kJ/mol
# GULP energy per Si atom -5572.413250 kJ/mol
# Density = 2.603614 g / cm^3
# Si number density = 26.095539 Si / 1000 Ang^3
#
#
#
# Elastic Constant Matrix: (Units=GPa)
#
#
# Indices 1 2 3 4 5 6 
#
# 1 267.6224 50.0300 49.7638 0.0000 0.0000 0.0000
# 2 50.0300 248.4431 87.9942 0.0000 0.0000 0.0000
# 3 49.7638 87.9942 60.5566 0.0000 0.0000 0.0000
# 4 0.0000 0.0000 0.0000 56.1770 0.0000 0.0000
# 5 0.0000 0.0000 0.0000 0.0000 52.6970 0.0000
# 6 0.0000 0.0000 0.0000 0.0000 0.0000 55.5802
#
#
#
# Elastic Compliance Matrix: (Units=1/GPa)
#
#
# Indices 1 2 3 4 5 6 
#
# 1 0.004492 0.000830 -0.004898 0.000000 0.000000 0.000000
# 2 0.000830 0.008447 -0.012956 0.000000 0.000000 0.000000
# 3 -0.004898 -0.012956 0.039364 0.000000 0.000000 0.000000
# 4 0.000000 0.000000 0.000000 0.017801 0.000000 0.000000
# 5 0.000000 0.000000 0.000000 0.000000 0.018976 0.000000
# 6 0.000000 0.000000 0.000000 0.000000 0.000000 0.017992
#
#
# Mechanical properties :
#
#
# Convention : Reuss Voigt Hill
#
# Bulk Modulus (GPa) = 54.77617 105.79980 80.28798
# Shear Modulus (GPa) = 33.96629 58.81313 46.38971
#
# Velocity S-wave (km/s) = 3.61170 4.75253 4.22084
# Velocity P-wave (km/s) = 6.19909 8.41110 7.38835
#
# Compressibility (1/GPa) = 0.01825611
#
# Stress axis : x y z
#
# Youngs Moduli (GPa) = 222.61059 118.39014 25.40372
#
# Poissons Ratio (x) = -0.09827 0.12442
# Poissons Ratio (y) = -0.18478 0.32913
# Poissons Ratio (z) = 1.09028 1.53385
#
# Static dielectric constant tensor:
#      x y z
#    x 2.282840 0.000000 0.000000 
#    y 0.000000 1.357280 0.000000 
#    z 0.000000 0.000000 1.655620 
# 
# From -- ./inp_files/11087.got.cif
#   From: 2010.05.17/outbox.cif.g08.bks.cpg/sg62_6_cif.got.tgz:11087.got - 2010.06.03 15:25:27.
