data_PCOD9466443
_publ_section_title
;
Structure prediction by ZEFSAII (Michael W. Deem and Ramdas Pophale) SiO2 
 PCOD9466443
Probable space group: P N M A
;
_chemical_formula_sum "Si O2"
_cell_formula_units_Z 44
_cell_length_a 8.965015
_cell_length_b 16.863740
_cell_length_c 14.904774
_cell_angle_alpha 90.000000
_cell_angle_beta 90.000000
_cell_angle_gamma 90.000000
_cell_volume 2253.358614
_symmetry_space_group_name_H-M "P N M A"
_symmetry_group_IT_number 62
_symmetry_cell_setting 'orthorhombic'
loop_
_space_group_symop_operation_xyz
x,y,z
1/2-x,-y,1/2+z
1/2+x,1/2-y,1/2-z
-x,1/2+y,-z
-x,-y,-z
1/2+x,y,1/2-z
1/2-x,1/2+y,1/2+z
x,1/2-y,z
loop_
_atom_site_type_symbol
_atom_site_label
_atom_site_fract_x
_atom_site_fract_y
_atom_site_fract_z
Si Si1 0.128646 0.250000 0.768663
Si Si2 0.383882 0.105089 0.021592
Si Si3 0.810174 0.576756 0.225085
Si Si4 0.092767 0.750000 0.058642
Si Si5 0.555180 0.412590 0.527973
Si Si6 0.449983 0.750000 0.072290
Si Si7 0.963401 0.001509 0.645719
O O1 0.226994 0.169915 0.767727
O O2 0.029956 0.250000 0.678977
O O3 0.016927 0.250000 0.853728
O O4 0.462703 0.080521 0.114415
O O5 0.205974 0.113231 0.024670
O O6 0.471015 0.176532 0.975662
O O7 0.399930 0.036382 0.946719
O O8 0.906644 0.575889 0.133714
O O9 0.673750 0.515982 0.213025
O O10 0.904530 0.552955 0.311465
O O11 0.270862 0.750000 0.066227
O O12 0.052534 0.663555 0.016390
O O13 0.500000 0.500000 0.500000
#
# Coordination Sequence:
#
# PCOD9466443 Si02
#       7
#     4   8   8   4   8   4   8
#     4  10  22  34  56  94 127 168 197 252 329 374
#     4  10  23  40  60  87 127 166 208 255 322 375
#     4  10  22  35  59  87 127 158 210 252 308 380
#     4  10  25  36  59  99 122 163 220 259 326 388
#     4  10  23  40  64  87 129 168 215 264 319 382
#     4  12  23  38  67  85 137 163 209 271 315 392
#     4  10  22  37  59  89 121 162 210 249 311 376
#
# _framework density 19.526409000000001
#
# number of rings (size 3 to 8) (size 9 to 14) (size 15 to 20)
#    0.000    1.818    1.818    0.545   15.273    3.636 
#    0.000    0.000    0.000    2.182    0.000    0.000 
#    0.000    0.000    0.000    0.000    0.000    0.000 
#
# Total GULP energy -245038.791182 kJ/mol
# GULP energy per Si atom -5569.063436 kJ/mol
# Density = 1.948197 g / cm^3
# Si number density = 19.526409 Si / 1000 Ang^3
#
#
#
# Elastic Constant Matrix: (Units=GPa)
#
#
# Indices 1 2 3 4 5 6 
#
# 1 86.5660 19.2307 4.4081 0.0000 0.0000 0.0000
# 2 19.2307 82.3312 21.9159 0.0000 0.0000 0.0000
# 3 4.4081 21.9159 30.4283 0.0000 0.0000 0.0000
# 4 0.0000 0.0000 0.0000 32.5331 0.0000 0.0000
# 5 0.0000 0.0000 0.0000 0.0000 15.8246 0.0000
# 6 0.0000 0.0000 0.0000 0.0000 0.0000 27.2607
#
#
#
# Elastic Compliance Matrix: (Units=1/GPa)
#
#
# Indices 1 2 3 4 5 6 
#
# 1 0.012187 -0.002940 0.000352 0.000000 0.000000 0.000000
# 2 -0.002940 0.015737 -0.010908 0.000000 0.000000 0.000000
# 3 0.000352 -0.010908 0.040670 0.000000 0.000000 0.000000
# 4 0.000000 0.000000 0.000000 0.030738 0.000000 0.000000
# 5 0.000000 0.000000 0.000000 0.000000 0.063193 0.000000
# 6 0.000000 0.000000 0.000000 0.000000 0.000000 0.036683
#
#
# Mechanical properties :
#
#
# Convention : Reuss Voigt Hill
#
# Bulk Modulus (GPa) = 24.03802 32.27055 28.15429
# Shear Modulus (GPa) = 20.82753 25.37506 23.10129
#
# Velocity S-wave (km/s) = 3.26948 3.60880 3.44332
# Velocity P-wave (km/s) = 5.15654 5.82470 5.50077
#
# Compressibility (1/GPa) = 0.04160076
#
# Stress axis : x y z
#
# Youngs Moduli (GPa) = 82.05353 63.54622 24.58826
#
# Poissons Ratio (x) = 0.18685 -0.00866
# Poissons Ratio (y) = 0.24127 0.26822
# Poissons Ratio (z) = -0.02891 0.69318
#
# Static dielectric constant tensor:
#      x y z
#    x 1.776210 0.000000 0.000000 
#    y 0.000000 1.735170 0.000000 
#    z 0.000000 0.000000 1.698410 
# 
# From -- ./inp_files/16878.got.cif
#   From: 2010.05.17/outbox.cif.g08.bks.cpg/sg62_9_cif.got.tgz:16878.got - 2010.06.03 15:25:27.
