data_PCOD9466162
_publ_section_title
;
Structure prediction by ZEFSAII (Michael W. Deem and Ramdas Pophale) SiO2 
 PCOD9466162
Probable space group: P N M A
;
_chemical_formula_sum "Si O2"
_cell_formula_units_Z 64
_cell_length_a 13.180468
_cell_length_b 23.616025
_cell_length_c 8.641890
_cell_angle_alpha 90.000000
_cell_angle_beta 90.000000
_cell_angle_gamma 90.000000
_cell_volume 2689.963363
_symmetry_space_group_name_H-M "P N M A"
_symmetry_group_IT_number 62
_symmetry_cell_setting 'orthorhombic'
loop_
_space_group_symop_operation_xyz
x,y,z
1/2-x,-y,1/2+z
1/2+x,1/2-y,1/2-z
-x,1/2+y,-z
-x,-y,-z
1/2+x,y,1/2-z
1/2-x,1/2+y,1/2+z
x,1/2-y,z
loop_
_atom_site_type_symbol
_atom_site_label
_atom_site_fract_x
_atom_site_fract_y
_atom_site_fract_z
Si Si1 0.394163 0.816020 0.768466
Si Si2 0.482188 0.311637 0.924795
Si Si3 0.301295 0.314104 0.473695
Si Si4 0.486282 0.101007 0.427405
Si Si5 0.747555 0.187479 0.665685
Si Si6 0.772389 0.436826 0.591518
Si Si7 0.996896 0.425347 0.730514
Si Si8 0.362434 0.019361 0.215160
O O1 0.392550 0.750000 0.719629
O O2 0.287924 0.828313 0.853599
O O3 0.424012 0.860285 0.638373
O O4 0.480425 0.821248 0.901413
O O5 0.521430 0.250000 0.876841
O O6 0.361178 0.310591 0.908301
O O7 0.521312 0.361173 0.816554
O O8 0.336114 0.250000 0.439575
O O9 0.393746 0.356627 0.465028
O O10 0.258870 0.314008 0.648240
O O11 0.507946 0.068126 0.585726
O O12 0.444093 0.059372 0.296881
O O13 0.701795 0.250000 0.625322
O O14 0.717402 0.123522 0.619622
O O15 0.880771 0.434797 0.680261
O O16 0.799067 0.447872 0.413524
O O17 0.710524 0.489273 0.661084
O O18 0.072497 0.467642 0.644047
#
# Coordination Sequence:
#
# PCOD9466162 Si02
#       8
#     8   8   8   8   8   8   8   8
#     4  10  23  39  65 104 141 180 228 286 359 425
#     4   9  18  36  63  94 127 167 221 282 348 419
#     4  10  21  39  68  99 134 181 227 286 357 421
#     4  12  23  42  67  96 139 184 238 289 347 417
#     4   9  18  38  68  96 126 167 224 286 349 414
#     4  11  24  46  67 101 135 183 230 288 358 416
#     4  11  24  43  67  97 132 180 235 285 348 417
#     4  12  28  43  67  97 138 185 234 287 343 425
#
# _framework density 23.792145999999999
#
# number of rings (size 3 to 8) (size 9 to 14) (size 15 to 20)
#    0.000    1.500    2.500    3.375    1.750    2.500 
#    0.000    0.625    0.000    0.000    0.000    0.000 
#    0.000    0.000    0.000    0.000    0.000    0.000 
#
# Total GULP energy -358240.543436 kJ/mol
# GULP energy per Si atom -5597.508491 kJ/mol
# Density = 2.373799 g / cm^3
# Si number density = 23.792146 Si / 1000 Ang^3
#
#
#
# Elastic Constant Matrix: (Units=GPa)
#
#
# Indices 1 2 3 4 5 6 
#
# 1 60.7096 3.7537 16.8368 0.0000 0.0000 0.0000
# 2 3.7537 92.2899 29.9491 0.0000 0.0000 0.0000
# 3 16.8368 29.9491 81.8400 0.0000 0.0000 0.0000
# 4 0.0000 0.0000 0.0000 15.5586 0.0000 0.0000
# 5 0.0000 0.0000 0.0000 0.0000 42.6641 0.0000
# 6 0.0000 0.0000 0.0000 0.0000 0.0000 19.6891
#
#
#
# Elastic Compliance Matrix: (Units=1/GPa)
#
#
# Indices 1 2 3 4 5 6 
#
# 1 0.017490 0.000518 -0.003788 0.000000 0.000000 0.000000
# 2 0.000518 0.012311 -0.004612 0.000000 0.000000 0.000000
# 3 -0.003788 -0.004612 0.014686 0.000000 0.000000 0.000000
# 4 0.000000 0.000000 0.000000 0.064273 0.000000 0.000000
# 5 0.000000 0.000000 0.000000 0.000000 0.023439 0.000000
# 6 0.000000 0.000000 0.000000 0.000000 0.000000 0.050790
#
#
# Mechanical properties :
#
#
# Convention : Reuss Voigt Hill
#
# Bulk Modulus (GPa) = 34.81432 37.32431 36.06932
# Shear Modulus (GPa) = 24.00081 27.86902 25.93492
#
# Velocity S-wave (km/s) = 3.17956 3.42622 3.30519
# Velocity P-wave (km/s) = 5.30509 5.60122 5.45516
#
# Compressibility (1/GPa) = 0.02872381
#
# Stress axis : x y z
#
# Youngs Moduli (GPa) = 57.17451 81.22888 68.09290
#
# Poissons Ratio (x) = -0.04206 0.25792
# Poissons Ratio (y) = -0.02960 0.31402
# Poissons Ratio (z) = 0.21656 0.37460
#
# Static dielectric constant tensor:
#      x y z
#    x 1.899770 0.000000 0.000000 
#    y 0.000000 1.915960 0.000000 
#    z 0.000000 0.000000 1.897700 
# 
# From -- ./inp_files/6943.got.cif
#   From: 2010.05.17/outbox.cif.g08.bks.cpg/sg62_4_cif.got.tgz:6943.got - 2010.06.03 15:25:27.
