data_PCOD9466897
_publ_section_title
;
Structure prediction by ZEFSAII (Michael W. Deem and Ramdas Pophale) SiO2 
 PCOD9466897
Probable space group: P N M A
;
_chemical_formula_sum "Si O2"
_cell_formula_units_Z 48
_cell_length_a 17.150386
_cell_length_b 14.829088
_cell_length_c 8.800790
_cell_angle_alpha 90.000000
_cell_angle_beta 90.000000
_cell_angle_gamma 90.000000
_cell_volume 2238.257249
_symmetry_space_group_name_H-M "P N M A"
_symmetry_group_IT_number 62
_symmetry_cell_setting 'orthorhombic'
loop_
_space_group_symop_operation_xyz
x,y,z
1/2-x,-y,1/2+z
1/2+x,1/2-y,1/2-z
-x,1/2+y,-z
-x,-y,-z
1/2+x,y,1/2-z
1/2-x,1/2+y,1/2+z
x,1/2-y,z
loop_
_atom_site_type_symbol
_atom_site_label
_atom_site_fract_x
_atom_site_fract_y
_atom_site_fract_z
Si Si1 0.181688 0.856411 0.897584
Si Si2 0.210907 0.860956 0.555395
Si Si3 0.156956 0.141722 0.524601
Si Si4 0.076982 0.979672 0.400592
Si Si5 0.139536 0.352370 0.863362
Si Si6 0.027438 0.908864 0.073032
O O1 0.183604 0.750000 0.877243
O O2 0.203777 0.891801 0.730788
O O3 0.251337 0.877234 0.012305
O O4 0.099029 0.877547 0.970366
O O5 0.204825 0.750000 0.547764
O O6 0.292871 0.889110 0.474379
O O7 0.138864 0.910660 0.474872
O O8 0.141879 0.250000 0.504124
O O9 0.116635 0.079029 0.398267
O O10 0.133125 0.108816 0.692992
O O11 0.054810 0.933354 0.242282
O O12 0.000000 0.000000 0.500000
O O13 0.165224 0.250000 0.834757
O O14 0.052069 0.351716 0.926931
O O15 0.000000 0.000000 0.000000
#
# Coordination Sequence:
#
# PCOD9466897 Si02
#       6
#     8   8   8   8   8   8
#     4  10  23  44  67  97 134 178 228 277 336 405
#     4  10  24  44  71 101 136 181 225 277 340 413
#     4  10  23  43  69  97 132 178 229 280 338 405
#     4  12  25  43  68 101 135 178 231 286 344 402
#     4  10  22  44  69  97 134 180 227 278 342 411
#     4  12  26  41  65 101 136 178 222 283 344 407
#
# _framework density 21.445255
#
# number of rings (size 3 to 8) (size 9 to 14) (size 15 to 20)
#    0.000    1.333    1.667    2.500    4.667    3.333 
#    0.000    0.833    0.000    0.000    0.000    0.000 
#    0.000    0.000    0.000    0.000    0.000    0.000 
#
# Total GULP energy -267753.864433 kJ/mol
# GULP energy per Si atom -5578.205509 kJ/mol
# Density = 2.139645 g / cm^3
# Si number density = 21.445255 Si / 1000 Ang^3
#
#
#
# Elastic Constant Matrix: (Units=GPa)
#
#
# Indices 1 2 3 4 5 6 
#
# 1 150.8475 20.2122 49.5847 0.0000 0.0000 0.0000
# 2 20.2122 52.5689 5.5041 0.0000 0.0000 0.0000
# 3 49.5847 5.5041 96.3379 0.0000 0.0000 0.0000
# 4 0.0000 0.0000 0.0000 26.3709 0.0000 0.0000
# 5 0.0000 0.0000 0.0000 0.0000 40.2157 0.0000
# 6 0.0000 0.0000 0.0000 0.0000 0.0000 37.1331
#
#
#
# Elastic Compliance Matrix: (Units=1/GPa)
#
#
# Indices 1 2 3 4 5 6 
#
# 1 0.008365 -0.002782 -0.004146 0.000000 0.000000 0.000000
# 2 -0.002782 0.020062 0.000286 0.000000 0.000000 0.000000
# 3 -0.004146 0.000286 0.012498 0.000000 0.000000 0.000000
# 4 0.000000 0.000000 0.000000 0.037921 0.000000 0.000000
# 5 0.000000 0.000000 0.000000 0.000000 0.024866 0.000000
# 6 0.000000 0.000000 0.000000 0.000000 0.000000 0.026930
#
#
# Mechanical properties :
#
#
# Convention : Reuss Voigt Hill
#
# Bulk Modulus (GPa) = 36.17995 50.03960 43.10977
# Shear Modulus (GPa) = 32.64967 35.70749 34.17858
#
# Velocity S-wave (km/s) = 3.90611 4.08493 3.99652
# Velocity P-wave (km/s) = 6.10337 6.75524 6.43756
#
# Compressibility (1/GPa) = 0.02763962
#
# Stress axis : x y z
#
# Youngs Moduli (GPa) = 119.54634 49.84446 80.01302
#
# Poissons Ratio (x) = 0.13867 0.33177
# Poissons Ratio (y) = 0.33259 -0.02286
# Poissons Ratio (z) = 0.49569 -0.01424
#
# Static dielectric constant tensor:
#      x y z
#    x 1.684060 0.000000 0.000000 
#    y 0.000000 1.771150 0.000000 
#    z 0.000000 0.000000 1.792080 
# 
# From -- ./inp_files/7665.got.cif
#   From: 2010.05.17/outbox.cif.g08.bks.cpg/sg62_4_cif.got.tgz:7665.got - 2010.06.03 15:25:27.
