data_PCOD9466248
_publ_section_title
;
Structure prediction by ZEFSAII (Michael W. Deem and Ramdas Pophale) SiO2 
 PCOD9466248
Probable space group: P N M A
;
_chemical_formula_sum "Si O2"
_cell_formula_units_Z 56
_cell_length_a 9.558713
_cell_length_b 13.621367
_cell_length_c 21.192950
_cell_angle_alpha 90.000000
_cell_angle_beta 90.000000
_cell_angle_gamma 90.000000
_cell_volume 2759.380112
_symmetry_space_group_name_H-M "P N M A"
_symmetry_group_IT_number 62
_symmetry_cell_setting 'orthorhombic'
loop_
_space_group_symop_operation_xyz
x,y,z
1/2-x,-y,1/2+z
1/2+x,1/2-y,1/2-z
-x,1/2+y,-z
-x,-y,-z
1/2+x,y,1/2-z
1/2-x,1/2+y,1/2+z
x,1/2-y,z
loop_
_atom_site_type_symbol
_atom_site_label
_atom_site_fract_x
_atom_site_fract_y
_atom_site_fract_z
Si Si1 0.628923 0.135292 0.934322
Si Si2 0.761384 0.636906 0.850127
Si Si3 0.864732 0.364294 0.485792
Si Si4 0.979913 0.133380 0.698935
Si Si5 0.707499 0.011235 0.734707
Si Si6 0.340226 0.028859 0.491427
Si Si7 0.408372 0.362466 0.369121
O O1 0.662330 0.250000 0.935096
O O2 0.546456 0.115550 0.870078
O O3 0.520904 0.113113 0.991140
O O4 0.769709 0.076052 0.946762
O O5 0.741082 0.750000 0.827215
O O6 0.661885 0.623468 0.911067
O O7 0.736506 0.557065 0.796024
O O8 0.922609 0.630200 0.873190
O O9 0.838772 0.250000 0.500965
O O10 0.754165 0.433298 0.521209
O O11 0.951673 0.250000 0.705246
O O12 0.096139 0.094759 0.747452
O O13 0.845206 0.066266 0.710438
O O14 0.645319 0.938188 0.682732
O O15 0.338856 0.106758 0.435005
O O16 0.500000 0.000000 0.500000
O O17 0.374229 0.250000 0.353015
#
# Coordination Sequence:
#
# PCOD9466248 Si02
#       7
#     8   8   8   8   8   8   8
#     4  10  23  43  65  96 130 169 220 279 335 397
#     4  10  21  40  64  95 135 176 220 269 325 396
#     4  10  21  40  65  91 130 175 219 269 327 390
#     4  11  25  44  70  97 133 175 226 282 332 400
#     4  12  23  44  67  96 130 178 223 270 338 392
#     4  12  23  38  65  95 130 171 211 268 339 398
#     4  11  24  42  64  96 132 169 218 275 328 398
#
# _framework density 20.294412999999999
#
# number of rings (size 3 to 8) (size 9 to 14) (size 15 to 20)
#    0.000    1.143    2.857    3.429    0.000    1.714 
#    0.000    2.143    0.000    0.000    0.000    0.000 
#    0.000    0.000    0.000    0.000    0.000    0.000 
#
# Total GULP energy -313048.714691 kJ/mol
# GULP energy per Si atom -5590.155619 kJ/mol
# Density = 2.024822 g / cm^3
# Si number density = 20.294413 Si / 1000 Ang^3
#
#
#
# Elastic Constant Matrix: (Units=GPa)
#
#
# Indices 1 2 3 4 5 6 
#
# 1 104.3641 42.7929 30.2627 0.0000 0.0000 0.0000
# 2 42.7929 117.0523 43.8136 0.0000 0.0000 0.0000
# 3 30.2627 43.8136 70.8203 0.0000 0.0000 0.0000
# 4 0.0000 0.0000 0.0000 41.5683 0.0000 0.0000
# 5 0.0000 0.0000 0.0000 0.0000 32.1148 0.0000
# 6 0.0000 0.0000 0.0000 0.0000 0.0000 32.1107
#
#
#
# Elastic Compliance Matrix: (Units=1/GPa)
#
#
# Indices 1 2 3 4 5 6 
#
# 1 0.011766 -0.003149 -0.003080 0.000000 0.000000 0.000000
# 2 -0.003149 0.011960 -0.006054 0.000000 0.000000 0.000000
# 3 -0.003080 -0.006054 0.019182 0.000000 0.000000 0.000000
# 4 0.000000 0.000000 0.000000 0.024057 0.000000 0.000000
# 5 0.000000 0.000000 0.000000 0.000000 0.031138 0.000000
# 6 0.000000 0.000000 0.000000 0.000000 0.000000 0.031142
#
#
# Mechanical properties :
#
#
# Convention : Reuss Voigt Hill
#
# Bulk Modulus (GPa) = 54.51643 58.44169 56.47906
# Shear Modulus (GPa) = 31.26480 32.84995 32.05738
#
# Velocity S-wave (km/s) = 3.92926 4.02763 3.97875
# Velocity P-wave (km/s) = 6.89250 7.10553 6.99982
#
# Compressibility (1/GPa) = 0.01834309
#
# Stress axis : x y z
#
# Youngs Moduli (GPa) = 84.99080 83.60982 52.13337
#
# Poissons Ratio (x) = 0.26326 0.16056
# Poissons Ratio (y) = 0.26761 0.31561
# Poissons Ratio (z) = 0.26176 0.50616
#
# Static dielectric constant tensor:
#      x y z
#    x 1.698990 0.000000 0.000000 
#    y 0.000000 1.733830 0.000000 
#    z 0.000000 0.000000 1.724530 
# 
# From -- ./inp_files/25968.got.cif
#   From: 2010.05.17/outbox.cif.g08.bks.cpg/sg62_13_cif.got.tgz:25968.got - 2010.06.03 15:25:27.
