data_PCOD9466935
_publ_section_title
;
Structure prediction by ZEFSAII (Michael W. Deem and Ramdas Pophale) SiO2 
 PCOD9466935
Probable space group: P N M A
;
_chemical_formula_sum "Si O2"
_cell_formula_units_Z 36
_cell_length_a 23.011050
_cell_length_b 9.830786
_cell_length_c 8.136594
_cell_angle_alpha 90.000000
_cell_angle_beta 90.000000
_cell_angle_gamma 90.000000
_cell_volume 1840.633511
_symmetry_space_group_name_H-M "P N M A"
_symmetry_group_IT_number 62
_symmetry_cell_setting 'orthorhombic'
loop_
_space_group_symop_operation_xyz
x,y,z
1/2-x,-y,1/2+z
1/2+x,1/2-y,1/2-z
-x,1/2+y,-z
-x,-y,-z
1/2+x,y,1/2-z
1/2-x,1/2+y,1/2+z
x,1/2-y,z
loop_
_atom_site_type_symbol
_atom_site_label
_atom_site_fract_x
_atom_site_fract_y
_atom_site_fract_z
Si Si1 0.857284 0.011674 0.301574
Si Si2 0.284763 0.250000 0.041284
Si Si3 0.621455 0.750000 0.233076
Si Si4 0.415006 0.250000 0.403828
Si Si5 0.439265 0.983062 0.906227
Si Si6 0.839371 0.750000 0.086134
Si Si7 0.952325 0.750000 0.861999
O O1 0.808263 0.114727 0.368391
O O2 0.899337 0.115469 0.201309
O O3 0.892351 0.947289 0.453843
O O4 0.835741 0.888046 0.191462
O O5 0.316951 0.250000 0.862621
O O6 0.215952 0.250000 0.032424
O O7 0.622454 0.750000 0.429604
O O8 0.585051 0.621376 0.170564
O O9 0.483591 0.250000 0.440831
O O10 0.446137 0.877688 0.759393
O O11 0.500000 0.000000 0.000000
O O12 0.900885 0.750000 0.993189
#
# Coordination Sequence:
#
# PCOD9466935 Si02
#       7
#     8   4   4   4   8   4   4
#     4  10  23  43  66  89 129 171 213 260 321 379
#     4   9  24  48  63  87 126 178 211 249 327 387
#     4  10  23  38  63  84 121 168 214 255 318 379
#     4  11  22  41  60  97 130 167 203 266 331 379
#     4  11  21  39  60  89 127 173 205 249 325 398
#     4  12  26  41  67 102 125 160 224 279 298 365
#     4  12  25  36  61  98 136 159 212 271 322 374
#
# _framework density 19.558482999999999
#
# number of rings (size 3 to 8) (size 9 to 14) (size 15 to 20)
#    0.000    1.333    2.222    3.333    3.111    7.111 
#    0.000    3.333    0.000    0.000    0.000    0.000 
#    0.000    0.000    0.000    0.000    0.000    0.000 
#
# Total GULP energy -201168.856476 kJ/mol
# GULP energy per Si atom -5588.023791 kJ/mol
# Density = 1.951397 g / cm^3
# Si number density = 19.558483 Si / 1000 Ang^3
#
#
#
# Elastic Constant Matrix: (Units=GPa)
#
#
# Indices 1 2 3 4 5 6 
#
# 1 93.7458 24.4999 14.6216 0.0000 0.0000 0.0000
# 2 24.4999 79.1889 13.2935 0.0000 0.0000 0.0000
# 3 14.6216 13.2935 72.9978 0.0000 0.0000 0.0000
# 4 0.0000 0.0000 0.0000 28.7659 0.0000 0.0000
# 5 0.0000 0.0000 0.0000 0.0000 22.7690 0.0000
# 6 0.0000 0.0000 0.0000 0.0000 0.0000 14.6471
#
#
#
# Elastic Compliance Matrix: (Units=1/GPa)
#
#
# Indices 1 2 3 4 5 6 
#
# 1 0.011820 -0.003362 -0.001755 0.000000 0.000000 0.000000
# 2 -0.003362 0.013983 -0.001873 0.000000 0.000000 0.000000
# 3 -0.001755 -0.001873 0.014392 0.000000 0.000000 0.000000
# 4 0.000000 0.000000 0.000000 0.034763 0.000000 0.000000
# 5 0.000000 0.000000 0.000000 0.000000 0.043919 0.000000
# 6 0.000000 0.000000 0.000000 0.000000 0.000000 0.068273
#
#
# Mechanical properties :
#
#
# Convention : Reuss Voigt Hill
#
# Bulk Modulus (GPa) = 38.14848 38.97361 38.56105
# Shear Modulus (GPa) = 23.82454 26.13759 24.98106
#
# Velocity S-wave (km/s) = 3.49394 3.65962 3.57774
# Velocity P-wave (km/s) = 5.98532 6.15037 6.06840
#
# Compressibility (1/GPa) = 0.02621336
#
# Stress axis : x y z
#
# Youngs Moduli (GPa) = 84.60539 71.51726 69.48458
#
# Poissons Ratio (x) = 0.24045 0.12196
# Poissons Ratio (y) = 0.28446 0.13014
# Poissons Ratio (z) = 0.14850 0.13395
#
# Static dielectric constant tensor:
#      x y z
#    x 1.678160 0.000000 0.000000 
#    y 0.000000 1.657090 0.000000 
#    z 0.000000 0.000000 1.696760 
# 
# From -- ./inp_files/8354.got.cif
#   From: 2010.05.17/outbox.cif.g08.bks.cpg/sg62_5_cif.got.tgz:8354.got - 2010.06.03 15:25:27.
