data_PCOD9466129
_publ_section_title
;
Structure prediction by ZEFSAII (Michael W. Deem and Ramdas Pophale) SiO2 
 PCOD9466129
Probable space group: P N M A
;
_chemical_formula_sum "Si O2"
_cell_formula_units_Z 48
_cell_length_a 8.833629
_cell_length_b 17.438890
_cell_length_c 12.549271
_cell_angle_alpha 90.000000
_cell_angle_beta 90.000000
_cell_angle_gamma 90.000000
_cell_volume 1933.198688
_symmetry_space_group_name_H-M "P N M A"
_symmetry_group_IT_number 62
_symmetry_cell_setting 'orthorhombic'
loop_
_space_group_symop_operation_xyz
x,y,z
1/2-x,-y,1/2+z
1/2+x,1/2-y,1/2-z
-x,1/2+y,-z
-x,-y,-z
1/2+x,y,1/2-z
1/2-x,1/2+y,1/2+z
x,1/2-y,z
loop_
_atom_site_type_symbol
_atom_site_label
_atom_site_fract_x
_atom_site_fract_y
_atom_site_fract_z
Si Si1 0.421092 0.161940 0.877814
Si Si2 0.739375 0.449819 0.101802
Si Si3 0.305732 0.574845 0.238520
Si Si4 0.029080 0.663943 0.861662
Si Si5 0.514816 0.664850 0.875986
Si Si6 0.860174 0.979467 0.922936
O O1 0.453734 0.250000 0.847579
O O2 0.556907 0.108872 0.830240
O O3 0.266422 0.134971 0.821091
O O4 0.413671 0.161047 0.006650
O O5 0.829543 0.497140 0.192220
O O6 0.837435 0.374828 0.070778
O O7 0.584677 0.411645 0.134365
O O8 0.721320 0.507852 0.004153
O O9 0.170651 0.544848 0.162742
O O10 0.988506 0.750000 0.892650
O O11 0.092422 0.665932 0.740278
O O12 0.890902 0.604333 0.876636
O O13 0.435558 0.750000 0.875729
O O14 0.000000 0.000000 0.000000
#
# Coordination Sequence:
#
# PCOD9466129 Si02
#       6
#     8   8   8   8   8   8
#     4  11  25  45  66  96 132 178 225 276 336 398
#     4  11  22  39  64  94 129 167 222 266 332 394
#     4  12  24  43  69  95 132 176 224 278 328 394
#     4  10  21  40  63  93 131 171 215 275 334 397
#     4  10  21  39  64  94 129 169 215 271 338 395
#     4  10  21  40  61  96 125 169 221 264 322 394
#
# _framework density 24.829315000000001
#
# number of rings (size 3 to 8) (size 9 to 14) (size 15 to 20)
#    0.000    1.333    3.333    3.000    0.000    2.000 
#    0.000    5.833    0.000    0.000    0.000    0.000 
#    0.000    0.000    0.000    0.000    0.000    0.000 
#
# Total GULP energy -267768.777720 kJ/mol
# GULP energy per Si atom -5578.516202 kJ/mol
# Density = 2.477280 g / cm^3
# Si number density = 24.829315 Si / 1000 Ang^3
#
#
#
# Elastic Constant Matrix: (Units=GPa)
#
#
# Indices 1 2 3 4 5 6 
#
# 1 31.3925 23.7498 8.2765 0.0000 0.0000 0.0000
# 2 23.7498 172.1610 48.8129 0.0000 0.0000 0.0000
# 3 8.2765 48.8129 109.4703 0.0000 0.0000 0.0000
# 4 0.0000 0.0000 0.0000 44.8653 0.0000 0.0000
# 5 0.0000 0.0000 0.0000 0.0000 32.8259 0.0000
# 6 0.0000 0.0000 0.0000 0.0000 0.0000 39.7602
#
#
#
# Elastic Compliance Matrix: (Units=1/GPa)
#
#
# Indices 1 2 3 4 5 6 
#
# 1 0.035598 -0.004748 -0.000574 0.000000 0.000000 0.000000
# 2 -0.004748 0.007282 -0.002888 0.000000 0.000000 0.000000
# 3 -0.000574 -0.002888 0.010466 0.000000 0.000000 0.000000
# 4 0.000000 0.000000 0.000000 0.022289 0.000000 0.000000
# 5 0.000000 0.000000 0.000000 0.000000 0.030464 0.000000
# 6 0.000000 0.000000 0.000000 0.000000 0.000000 0.025151
#
#
# Mechanical properties :
#
#
# Convention : Reuss Voigt Hill
#
# Bulk Modulus (GPa) = 27.08136 52.74468 39.91302
# Shear Modulus (GPa) = 31.25392 38.96925 35.11159
#
# Velocity S-wave (km/s) = 3.55174 3.96597 3.76456
# Velocity P-wave (km/s) = 5.26787 6.50084 5.91656
#
# Compressibility (1/GPa) = 0.03692577
#
# Stress axis : x y z
#
# Youngs Moduli (GPa) = 28.09131 137.31707 95.54574
#
# Poissons Ratio (x) = 0.65198 0.05487
# Poissons Ratio (y) = 0.13338 0.27596
# Poissons Ratio (z) = 0.01613 0.39661
#
# Static dielectric constant tensor:
#      x y z
#    x 2.094920 0.000000 0.000000 
#    y 0.000000 1.956740 0.000000 
#    z 0.000000 0.000000 2.059950 
# 
# From -- ./inp_files/12228.got.cif
#   From: 2010.05.17/outbox.cif.g08.bks.cpg/sg62_7_cif.got.tgz:12228.got - 2010.06.03 15:25:27.
