data_PCOD9466815
_publ_section_title
;
Structure prediction by ZEFSAII (Michael W. Deem and Ramdas Pophale) SiO2 
 PCOD9466815
Probable space group: P N M A
;
_chemical_formula_sum "Si O2"
_cell_formula_units_Z 48
_cell_length_a 10.981968
_cell_length_b 18.258056
_cell_length_c 11.679463
_cell_angle_alpha 90.000000
_cell_angle_beta 90.000000
_cell_angle_gamma 90.000000
_cell_volume 2341.841964
_symmetry_space_group_name_H-M "P N M A"
_symmetry_group_IT_number 62
_symmetry_cell_setting 'orthorhombic'
loop_
_space_group_symop_operation_xyz
x,y,z
1/2-x,-y,1/2+z
1/2+x,1/2-y,1/2-z
-x,1/2+y,-z
-x,-y,-z
1/2+x,y,1/2-z
1/2-x,1/2+y,1/2+z
x,1/2-y,z
loop_
_atom_site_type_symbol
_atom_site_label
_atom_site_fract_x
_atom_site_fract_y
_atom_site_fract_z
Si Si1 0.187650 0.458121 0.200290
Si Si2 0.449963 0.933946 0.923546
Si Si3 0.322105 0.250000 0.715581
Si Si4 0.411173 0.750000 0.371804
Si Si5 0.616033 0.834070 0.779027
Si Si6 0.230265 0.899180 0.081260
Si Si7 0.487147 0.624421 0.545806
O O1 0.097080 0.469570 0.305506
O O2 0.273587 0.390762 0.235454
O O3 0.252575 0.533523 0.167919
O O4 0.113911 0.431285 0.089625
O O5 0.541937 0.870399 0.883865
O O6 0.339864 0.897818 0.992513
O O7 0.500000 0.000000 0.000000
O O8 0.225004 0.250000 0.820031
O O9 0.472288 0.250000 0.718291
O O10 0.287289 0.177179 0.645522
O O11 0.431998 0.680582 0.454490
O O12 0.652148 0.750000 0.799772
O O13 0.535847 0.837417 0.662846
O O14 0.104516 0.911293 0.013042
#
# Coordination Sequence:
#
# PCOD9466815 Si02
#       7
#     8   8   4   4   8   8   8
#     4  11  24  40  69  99 128 174 224 272 329 409
#     4  11  24  42  66  97 135 170 219 274 334 392
#     4  10  26  44  71  91 131 181 230 274 332 411
#     4  10  22  48  65 103 131 179 226 282 340 397
#     4  11  23  41  66 103 131 170 220 276 330 405
#     4  11  23  45  65  94 133 179 216 271 341 392
#     4  10  22  42  68  94 132 174 218 275 338 397
#
# _framework density 20.496684999999999
#
# number of rings (size 3 to 8) (size 9 to 14) (size 15 to 20)
#    0.000    1.333    4.167    0.500    2.333    4.667 
#    3.000    0.000    0.000    0.000    0.000    0.000 
#    0.000    0.000    0.000    0.000    0.000    0.000 
#
# Total GULP energy -267959.887069 kJ/mol
# GULP energy per Si atom -5582.497647 kJ/mol
# Density = 2.045003 g / cm^3
# Si number density = 20.496685 Si / 1000 Ang^3
#
#
#
# Elastic Constant Matrix: (Units=GPa)
#
#
# Indices 1 2 3 4 5 6 
#
# 1 48.8139 24.1833 26.8753 0.0000 0.0000 0.0000
# 2 24.1833 132.0899 40.4922 0.0000 0.0000 0.0000
# 3 26.8753 40.4922 69.4589 0.0000 0.0000 0.0000
# 4 0.0000 0.0000 0.0000 8.3726 0.0000 0.0000
# 5 0.0000 0.0000 0.0000 0.0000 43.2675 0.0000
# 6 0.0000 0.0000 0.0000 0.0000 0.0000 25.6148
#
#
#
# Elastic Compliance Matrix: (Units=1/GPa)
#
#
# Indices 1 2 3 4 5 6 
#
# 1 0.026492 -0.002080 -0.009038 0.000000 0.000000 0.000000
# 2 -0.002080 0.009381 -0.004664 0.000000 0.000000 0.000000
# 3 -0.009038 -0.004664 0.020613 0.000000 0.000000 0.000000
# 4 0.000000 0.000000 0.000000 0.119438 0.000000 0.000000
# 5 0.000000 0.000000 0.000000 0.000000 0.023112 0.000000
# 6 0.000000 0.000000 0.000000 0.000000 0.000000 0.039040
#
#
# Mechanical properties :
#
#
# Convention : Reuss Voigt Hill
#
# Bulk Modulus (GPa) = 40.12417 48.16268 44.14343
# Shear Modulus (GPa) = 17.98898 26.03844 22.01371
#
# Velocity S-wave (km/s) = 2.96573 3.56810 3.28077
# Velocity P-wave (km/s) = 5.59874 6.36584 5.99457
#
# Compressibility (1/GPa) = 0.02492263
#
# Stress axis : x y z
#
# Youngs Moduli (GPa) = 37.74680 106.59653 48.51268
#
# Poissons Ratio (x) = 0.22168 0.43846
# Poissons Ratio (y) = 0.07850 0.22628
# Poissons Ratio (z) = 0.34116 0.49719
#
# Static dielectric constant tensor:
#      x y z
#    x 1.764990 0.000000 0.000000 
#    y 0.000000 1.732040 0.000000 
#    z 0.000000 0.000000 1.720440 
# 
# From -- ./inp_files/12288.got.cif
#   From: 2010.05.17/outbox.cif.g08.bks.cpg/sg62_7_cif.got.tgz:12288.got - 2010.06.03 15:25:27.
