data_PCOD9466322
_publ_section_title
;
Structure prediction by ZEFSAII (Michael W. Deem and Ramdas Pophale) SiO2 
 PCOD9466322
Probable space group: P N M A
;
_chemical_formula_sum "Si O2"
_cell_formula_units_Z 48
_cell_length_a 27.662883
_cell_length_b 8.078291
_cell_length_c 10.004651
_cell_angle_alpha 90.000000
_cell_angle_beta 90.000000
_cell_angle_gamma 90.000000
_cell_volume 2235.727541
_symmetry_space_group_name_H-M "P N M A"
_symmetry_group_IT_number 62
_symmetry_cell_setting 'orthorhombic'
loop_
_space_group_symop_operation_xyz
x,y,z
1/2-x,-y,1/2+z
1/2+x,1/2-y,1/2-z
-x,1/2+y,-z
-x,-y,-z
1/2+x,y,1/2-z
1/2-x,1/2+y,1/2+z
x,1/2-y,z
loop_
_atom_site_type_symbol
_atom_site_label
_atom_site_fract_x
_atom_site_fract_y
_atom_site_fract_z
Si Si1 0.044419 0.555516 0.192074
Si Si2 0.058548 0.555918 0.762832
Si Si3 0.912080 0.451993 0.527895
Si Si4 0.301970 0.449153 0.935466
Si Si5 0.279846 0.549530 0.636592
Si Si6 0.123456 0.442431 0.987215
O O1 0.055878 0.750000 0.178475
O O2 0.056641 0.500867 0.343442
O O3 0.987769 0.528967 0.170524
O O4 0.079749 0.461844 0.092214
O O5 0.047526 0.750000 0.755918
O O6 0.067354 0.489884 0.613612
O O7 0.105809 0.531122 0.853193
O O8 0.911669 0.250000 0.522907
O O9 0.856983 0.509131 0.548985
O O10 0.303518 0.250000 0.943791
O O11 0.281990 0.493772 0.789517
O O12 0.266656 0.508168 0.053137
O O13 0.280429 0.750000 0.636616
O O14 0.328153 0.492740 0.558288
O O15 0.130900 0.250000 0.955589
#
# Coordination Sequence:
#
# PCOD9466322 Si02
#       6
#     8   8   8   8   8   8
#     4  11  21  39  63  87 115 156 200 243 296 349
#     4  11  23  38  59  89 119 156 198 243 294 348
#     4   9  20  38  61  87 117 153 195 238 289 349
#     4  10  21  41  64  88 120 155 193 239 290 353
#     4  10  23  40  62  91 121 152 193 244 294 343
#     4  11  23  40  58  86 123 157 195 243 291 346
#
# _framework density 21.469519999999999
#
# number of rings (size 3 to 8) (size 9 to 14) (size 15 to 20)
#    0.000    1.667    1.667    2.500    2.333    1.333 
#    0.000    4.167    0.000    0.000    0.000    0.000 
#    0.000    0.000    0.000    0.000    0.000    0.000 
#
# Total GULP energy -268381.174799 kJ/mol
# GULP energy per Si atom -5591.274475 kJ/mol
# Density = 2.142065 g / cm^3
# Si number density = 21.469520 Si / 1000 Ang^3
#
#
#
# Elastic Constant Matrix: (Units=GPa)
#
#
# Indices 1 2 3 4 5 6 
#
# 1 66.2398 1.3093 1.6972 0.0000 0.0000 0.0000
# 2 1.3093 16.6968 -8.2169 0.0000 0.0000 0.0000
# 3 1.6972 -8.2169 52.9212 0.0000 0.0000 0.0000
# 4 0.0000 0.0000 0.0000 22.6877 0.0000 0.0000
# 5 0.0000 0.0000 0.0000 0.0000 41.0338 0.0000
# 6 0.0000 0.0000 0.0000 0.0000 0.0000 14.4000
#
#
#
# Elastic Compliance Matrix: (Units=1/GPa)
#
#
# Indices 1 2 3 4 5 6 
#
# 1 0.015146 -0.001545 -0.000726 0.000000 0.000000 0.000000
# 2 -0.001545 0.065004 0.010142 0.000000 0.000000 0.000000
# 3 -0.000726 0.010142 0.020494 0.000000 0.000000 0.000000
# 4 0.000000 0.000000 0.000000 0.044077 0.000000 0.000000
# 5 0.000000 0.000000 0.000000 0.000000 0.024370 0.000000
# 6 0.000000 0.000000 0.000000 0.000000 0.000000 0.069444
#
#
# Mechanical properties :
#
#
# Convention : Reuss Voigt Hill
#
# Bulk Modulus (GPa) = 8.59193 13.93744 11.26469
# Shear Modulus (GPa) = 19.11411 25.02886 22.07148
#
# Velocity S-wave (km/s) = 2.98701 3.41806 3.20978
# Velocity P-wave (km/s) = 3.98835 4.69930 4.35834
#
# Compressibility (1/GPa) = 0.11638824
#
# Stress axis : x y z
#
# Youngs Moduli (GPa) = 66.02492 15.38365 48.79461
#
# Poissons Ratio (x) = 0.02376 0.03540
# Poissons Ratio (y) = 0.10199 -0.49490
# Poissons Ratio (z) = 0.04791 -0.15603
#
# Static dielectric constant tensor:
#      x y z
#    x 1.750200 0.000000 0.000000 
#    y 0.000000 1.758080 0.000000 
#    z 0.000000 0.000000 1.756810 
# 
# From -- ./inp_files/10148.got.cif
#   From: 2010.05.17/outbox.cif.g08.bks.cpg/sg62_6_cif.got.tgz:10148.got - 2010.06.03 15:25:27.
