data_PCOD9466950
_publ_section_title
;
Structure prediction by ZEFSAII (Michael W. Deem and Ramdas Pophale) SiO2 
 PCOD9466950
Probable space group: P N M A
;
_chemical_formula_sum "Si O2"
_cell_formula_units_Z 60
_cell_length_a 11.692169
_cell_length_b 9.373404
_cell_length_c 27.651428
_cell_angle_alpha 90.000000
_cell_angle_beta 90.000000
_cell_angle_gamma 90.000000
_cell_volume 3030.469967
_symmetry_space_group_name_H-M "P N M A"
_symmetry_group_IT_number 62
_symmetry_cell_setting 'orthorhombic'
loop_
_space_group_symop_operation_xyz
x,y,z
1/2-x,-y,1/2+z
1/2+x,1/2-y,1/2-z
-x,1/2+y,-z
-x,-y,-z
1/2+x,y,1/2-z
1/2-x,1/2+y,1/2+z
x,1/2-y,z
loop_
_atom_site_type_symbol
_atom_site_label
_atom_site_fract_x
_atom_site_fract_y
_atom_site_fract_z
Si Si1 0.593465 0.080606 0.849633
Si Si2 0.642964 0.498960 0.029746
Si Si3 0.003176 0.250000 0.525292
Si Si4 0.873971 0.581593 0.690838
Si Si5 0.241031 0.584726 0.571784
Si Si6 0.816330 0.413898 0.786057
Si Si7 0.948373 0.082918 0.886947
Si Si8 0.681024 0.585794 0.611756
O O1 0.584590 0.250000 0.860103
O O2 0.688387 0.065939 0.806880
O O3 0.477548 0.006662 0.832826
O O4 0.650558 0.000777 0.895209
O O5 0.567414 0.372552 0.007924
O O6 0.736785 0.439905 0.066163
O O7 0.566940 0.622397 0.053387
O O8 0.701975 0.574236 0.983480
O O9 0.902274 0.750000 0.691376
O O10 0.849066 0.521480 0.744007
O O11 0.760438 0.563346 0.658578
O O12 0.245320 0.750000 0.586562
O O13 0.361480 0.506794 0.579912
O O14 0.826849 0.250000 0.768601
O O15 0.898505 0.430410 0.832558
O O16 0.943971 0.250000 0.899967
O O17 0.074274 0.019573 0.889498
O O18 0.640446 0.750000 0.611763
#
# Coordination Sequence:
#
# PCOD9466950 Si02
#       8
#     8   8   4   8   8   8   8   8
#     4  10  23  40  65  94 124 162 214 261 313 383
#     4  11  24  41  65  95 132 178 213 265 324 377
#     4  10  24  40  64  92 130 172 212 258 314 384
#     4  11  25  39  63  95 128 164 209 261 324 385
#     4  11  23  41  66  95 127 169 214 268 319 381
#     4   9  21  44  63  90 122 163 210 261 318 381
#     4  10  24  44  69  92 125 169 220 267 321 386
#     4  11  26  44  61  94 133 169 213 269 324 382
#
# _framework density 19.798909999999999
#
# number of rings (size 3 to 8) (size 9 to 14) (size 15 to 20)
#    0.000    1.600    1.333    2.400    8.400    4.800 
#    0.000    0.000    0.000    0.000    0.000    0.000 
#    0.000    0.000    0.000    0.000    0.000    0.000 
#
# Total GULP energy -334447.128846 kJ/mol
# GULP energy per Si atom -5574.118814 kJ/mol
# Density = 1.975385 g / cm^3
# Si number density = 19.798910 Si / 1000 Ang^3
#
#
#
# Elastic Constant Matrix: (Units=GPa)
#
#
# Indices 1 2 3 4 5 6 
#
# 1 74.3373 44.4019 7.3482 0.0000 0.0000 0.0000
# 2 44.4019 136.0807 13.9748 0.0000 0.0000 0.0000
# 3 7.3482 13.9748 37.1240 0.0000 0.0000 0.0000
# 4 0.0000 0.0000 0.0000 30.0966 0.0000 0.0000
# 5 0.0000 0.0000 0.0000 0.0000 14.5722 0.0000
# 6 0.0000 0.0000 0.0000 0.0000 0.0000 34.4838
#
#
#
# Elastic Compliance Matrix: (Units=1/GPa)
#
#
# Indices 1 2 3 4 5 6 
#
# 1 0.016770 -0.005337 -0.001310 0.000000 0.000000 0.000000
# 2 -0.005337 0.009343 -0.002461 0.000000 0.000000 0.000000
# 3 -0.001310 -0.002461 0.028122 0.000000 0.000000 0.000000
# 4 0.000000 0.000000 0.000000 0.033226 0.000000 0.000000
# 5 0.000000 0.000000 0.000000 0.000000 0.068624 0.000000
# 6 0.000000 0.000000 0.000000 0.000000 0.000000 0.028999
#
#
# Mechanical properties :
#
#
# Convention : Reuss Voigt Hill
#
# Bulk Modulus (GPa) = 27.76326 42.11021 34.93673
# Shear Modulus (GPa) = 23.22273 27.95166 25.58720
#
# Velocity S-wave (km/s) = 3.42852 3.76144 3.59883
# Velocity P-wave (km/s) = 5.45216 6.33875 5.91210
#
# Compressibility (1/GPa) = 0.03601882
#
# Stress axis : x y z
#
# Youngs Moduli (GPa) = 59.63151 107.03477 35.55891
#
# Poissons Ratio (x) = 0.57127 0.04659
# Poissons Ratio (y) = 0.31827 0.08749
# Poissons Ratio (z) = 0.07813 0.26336
#
# Static dielectric constant tensor:
#      x y z
#    x 1.695860 0.000000 0.000000 
#    y 0.000000 1.687940 0.000000 
#    z 0.000000 0.000000 1.705580 
# 
# From -- ./inp_files/31131.got.cif
#   From: 2010.05.17/outbox.cif.g08.bks.cpg/sg62_16_cif.got.tgz:31131.got - 2010.06.03 15:25:27.
