data_PCOD9466520
_publ_section_title
;
Structure prediction by ZEFSAII (Michael W. Deem and Ramdas Pophale) SiO2 
 PCOD9466520
Probable space group: P N M A
;
_chemical_formula_sum "Si O2"
_cell_formula_units_Z 44
_cell_length_a 9.092817
_cell_length_b 16.832229
_cell_length_c 13.820149
_cell_angle_alpha 90.000000
_cell_angle_beta 90.000000
_cell_angle_gamma 90.000000
_cell_volume 2115.206669
_symmetry_space_group_name_H-M "P N M A"
_symmetry_group_IT_number 62
_symmetry_cell_setting 'orthorhombic'
loop_
_space_group_symop_operation_xyz
x,y,z
1/2-x,-y,1/2+z
1/2+x,1/2-y,1/2-z
-x,1/2+y,-z
-x,-y,-z
1/2+x,y,1/2-z
1/2-x,1/2+y,1/2+z
x,1/2-y,z
loop_
_atom_site_type_symbol
_atom_site_label
_atom_site_fract_x
_atom_site_fract_y
_atom_site_fract_z
Si Si1 0.370607 0.900482 0.542287
Si Si2 0.369164 0.750000 0.250152
Si Si3 0.181907 0.590457 0.273365
Si Si4 0.055306 0.010646 0.849920
Si Si5 0.528773 0.750000 0.449409
Si Si6 0.449035 0.091726 0.988441
Si Si7 0.880018 0.750000 0.467929
O O1 0.383277 0.964748 0.454923
O O2 0.449322 0.824457 0.498425
O O3 0.196291 0.891837 0.553041
O O4 0.464683 0.930609 0.633131
O O5 0.271152 0.671196 0.259482
O O6 0.485361 0.750000 0.336634
O O7 0.434596 0.750000 0.143475
O O8 0.067475 0.571631 0.189271
O O9 0.304619 0.520557 0.280790
O O10 0.098787 0.595984 0.375576
O O11 0.703121 0.750000 0.465207
O O12 0.560668 0.165190 0.008245
O O13 0.500000 0.000000 0.000000
#
# Coordination Sequence:
#
# PCOD9466520 Si02
#       7
#     8   4   8   8   4   8   4
#     4  10  23  41  62  84 133 168 214 246 336 376
#     4  12  23  36  59  96 133 162 195 261 343 397
#     4  11  23  38  62  91 134 164 214 256 328 382
#     4  10  22  38  61  91 121 168 206 257 300 394
#     4  12  23  41  64  87 128 177 200 277 321 395
#     4  11  25  40  63  94 135 175 218 272 322 394
#     4  12  28  37  65  97 131 163 231 266 328 400
#
# _framework density 20.801750999999999
#
# number of rings (size 3 to 8) (size 9 to 14) (size 15 to 20)
#    0.000    1.091    3.636    3.273   15.273    0.000 
#    0.000    0.000    0.000    2.182    0.000    0.000 
#    0.000    0.000    0.000    0.000    0.000    0.000 
#
# Total GULP energy -245635.923707 kJ/mol
# GULP energy per Si atom -5582.634630 kJ/mol
# Density = 2.075440 g / cm^3
# Si number density = 20.801751 Si / 1000 Ang^3
#
#
#
# Elastic Constant Matrix: (Units=GPa)
#
#
# Indices 1 2 3 4 5 6 
#
# 1 127.5287 36.9664 0.0337 0.0000 0.0000 0.0000
# 2 36.9664 90.4012 4.7962 0.0000 0.0000 0.0000
# 3 0.0337 4.7962 11.9208 0.0000 0.0000 0.0000
# 4 0.0000 0.0000 0.0000 29.7697 0.0000 0.0000
# 5 0.0000 0.0000 0.0000 0.0000 17.2681 0.0000
# 6 0.0000 0.0000 0.0000 0.0000 0.0000 39.3587
#
#
#
# Elastic Compliance Matrix: (Units=1/GPa)
#
#
# Indices 1 2 3 4 5 6 
#
# 1 0.008921 -0.003726 0.001474 0.000000 0.000000 0.000000
# 2 -0.003726 0.012859 -0.005163 0.000000 0.000000 0.000000
# 3 0.001474 -0.005163 0.085960 0.000000 0.000000 0.000000
# 4 0.000000 0.000000 0.000000 0.033591 0.000000 0.000000
# 5 0.000000 0.000000 0.000000 0.000000 0.057910 0.000000
# 6 0.000000 0.000000 0.000000 0.000000 0.000000 0.025407
#
#
# Mechanical properties :
#
#
# Convention : Reuss Voigt Hill
#
# Bulk Modulus (GPa) = 10.76314 34.82705 22.79509
# Shear Modulus (GPa) = 18.48767 29.81627 24.15197
#
# Velocity S-wave (km/s) = 2.98443 3.79007 3.41112
# Velocity P-wave (km/s) = 4.13052 5.99430 5.14746
#
# Compressibility (1/GPa) = 0.09290972
#
# Stress axis : x y z
#
# Youngs Moduli (GPa) = 112.09411 77.76391 11.63328
#
# Poissons Ratio (x) = 0.28976 -0.01715
# Poissons Ratio (y) = 0.41768 0.06007
# Poissons Ratio (z) = -0.16523 0.40152
#
# Static dielectric constant tensor:
#      x y z
#    x 1.805660 0.000000 0.000000 
#    y 0.000000 1.791880 0.000000 
#    z 0.000000 0.000000 1.740540 
# 
# From -- ./inp_files/16875.got.cif
#   From: 2010.05.17/outbox.cif.g08.bks.cpg/sg62_9_cif.got.tgz:16875.got - 2010.06.03 15:25:27.
