data_PCOD9466744
_publ_section_title
;
Structure prediction by ZEFSAII (Michael W. Deem and Ramdas Pophale) SiO2 
 PCOD9466744
Probable space group: P N M A
;
_chemical_formula_sum "Si O2"
_cell_formula_units_Z 56
_cell_length_a 14.693524
_cell_length_b 8.650704
_cell_length_c 21.342630
_cell_angle_alpha 90.000000
_cell_angle_beta 90.000000
_cell_angle_gamma 90.000000
_cell_volume 2712.847332
_symmetry_space_group_name_H-M "P N M A"
_symmetry_group_IT_number 62
_symmetry_cell_setting 'orthorhombic'
loop_
_space_group_symop_operation_xyz
x,y,z
1/2-x,-y,1/2+z
1/2+x,1/2-y,1/2-z
-x,1/2+y,-z
-x,-y,-z
1/2+x,y,1/2-z
1/2-x,1/2+y,1/2+z
x,1/2-y,z
loop_
_atom_site_type_symbol
_atom_site_label
_atom_site_fract_x
_atom_site_fract_y
_atom_site_fract_z
Si Si1 0.195013 0.933812 0.289961
Si Si2 0.228519 0.567193 0.513859
Si Si3 0.901867 0.932718 0.233922
Si Si4 0.915661 0.567274 0.823121
Si Si5 0.901705 0.567403 0.589529
Si Si6 0.584996 0.567374 0.462425
Si Si7 0.896591 0.435129 0.372264
O O1 0.181473 0.750000 0.297903
O O2 0.302525 0.966616 0.294484
O O3 0.156141 0.984420 0.222699
O O4 0.139710 0.024231 0.342924
O O5 0.247092 0.750000 0.512765
O O6 0.153640 0.526023 0.462194
O O7 0.321189 0.475607 0.503092
O O8 0.186002 0.526832 0.581561
O O9 0.920289 0.750000 0.226840
O O10 0.895821 0.975790 0.307087
O O11 0.984064 0.025968 0.202953
O O12 0.900060 0.750000 0.820615
O O13 0.909482 0.508471 0.893867
O O14 0.891636 0.750000 0.577839
O O15 0.008677 0.530496 0.592419
O O16 0.500000 0.500000 0.500000
O O17 0.575289 0.750000 0.456125
O O18 0.894926 0.250000 0.359851
#
# Coordination Sequence:
#
# PCOD9466744 Si02
#       7
#     8   8   8   8   8   8   8
#     4  11  24  42  65  97 133 174 222 273 329 391
#     4  11  24  43  67  96 133 176 220 270 327 390
#     4  11  24  40  65  96 130 171 216 267 324 387
#     4  12  25  44  69  98 133 172 216 269 328 391
#     4  11  23  40  64  97 133 174 221 272 329 389
#     4  12  27  48  71  97 131 172 222 274 330 394
#     4  10  22  41  65  97 133 172 218 267 326 389
#
# _framework density 20.642517000000002
#
# number of rings (size 3 to 8) (size 9 to 14) (size 15 to 20)
#    0.000    0.857    1.429    5.571    2.000    6.286 
#    0.000    0.000    0.000    0.000    0.000    0.000 
#    0.000    0.000    0.000    0.000    0.000    0.000 
#
# Total GULP energy -313580.814429 kJ/mol
# GULP energy per Si atom -5599.657401 kJ/mol
# Density = 2.059553 g / cm^3
# Si number density = 20.642517 Si / 1000 Ang^3
#
#
#
# Elastic Constant Matrix: (Units=GPa)
#
#
# Indices 1 2 3 4 5 6 
#
# 1 82.4394 21.0027 -9.6937 0.0000 0.0000 0.0000
# 2 21.0027 40.0054 -11.3108 0.0000 0.0000 0.0000
# 3 -9.6937 -11.3108 42.6999 0.0000 0.0000 0.0000
# 4 0.0000 0.0000 0.0000 38.5548 0.0000 0.0000
# 5 0.0000 0.0000 0.0000 0.0000 23.2606 0.0000
# 6 0.0000 0.0000 0.0000 0.0000 0.0000 29.8116
#
#
#
# Elastic Compliance Matrix: (Units=1/GPa)
#
#
# Indices 1 2 3 4 5 6 
#
# 1 0.014073 -0.007010 0.001338 0.000000 0.000000 0.000000
# 2 -0.007010 0.030512 0.006491 0.000000 0.000000 0.000000
# 3 0.001338 0.006491 0.025442 0.000000 0.000000 0.000000
# 4 0.000000 0.000000 0.000000 0.025937 0.000000 0.000000
# 5 0.000000 0.000000 0.000000 0.000000 0.042991 0.000000
# 6 0.000000 0.000000 0.000000 0.000000 0.000000 0.033544
#
#
# Mechanical properties :
#
#
# Convention : Reuss Voigt Hill
#
# Bulk Modulus (GPa) = 13.95372 18.34900 16.15136
# Shear Modulus (GPa) = 25.67378 29.33517 27.50447
#
# Velocity S-wave (km/s) = 3.53049 3.77384 3.65419
# Velocity P-wave (km/s) = 4.83668 5.28180 5.06413
#
# Compressibility (1/GPa) = 0.07166546
#
# Stress axis : x y z
#
# Youngs Moduli (GPa) = 71.05601 32.77381 39.30449
#
# Poissons Ratio (x) = 0.22975 -0.05259
# Poissons Ratio (y) = 0.49812 -0.25512
# Poissons Ratio (z) = -0.09507 -0.21273
#
# Static dielectric constant tensor:
#      x y z
#    x 1.698650 0.000000 0.000000 
#    y 0.000000 1.691760 0.000000 
#    z 0.000000 0.000000 1.708580 
# 
# From -- ./inp_files/27271.got.cif
#   From: 2010.05.17/outbox.cif.g08.bks.cpg/sg62_14_cif.got.tgz:27271.got - 2010.06.03 15:25:27.
