data_PCOD9466138
_publ_section_title
;
Structure prediction by ZEFSAII (Michael W. Deem and Ramdas Pophale) SiO2 
 PCOD9466138
Probable space group: P N M A
;
_chemical_formula_sum "Si O2"
_cell_formula_units_Z 48
_cell_length_a 11.724284
_cell_length_b 12.842442
_cell_length_c 14.054224
_cell_angle_alpha 90.000000
_cell_angle_beta 90.000000
_cell_angle_gamma 90.000000
_cell_volume 2116.122545
_symmetry_space_group_name_H-M "P N M A"
_symmetry_group_IT_number 62
_symmetry_cell_setting 'orthorhombic'
loop_
_space_group_symop_operation_xyz
x,y,z
1/2-x,-y,1/2+z
1/2+x,1/2-y,1/2-z
-x,1/2+y,-z
-x,-y,-z
1/2+x,y,1/2-z
1/2-x,1/2+y,1/2+z
x,1/2-y,z
loop_
_atom_site_type_symbol
_atom_site_label
_atom_site_fract_x
_atom_site_fract_y
_atom_site_fract_z
Si Si1 0.126823 0.530835 0.583000
Si Si2 0.276794 0.868112 0.926062
Si Si3 0.819548 0.555650 0.786117
Si Si4 0.952310 0.030839 0.102185
Si Si5 0.959018 0.364183 0.591048
Si Si6 0.280177 0.867992 0.304389
O O1 0.187434 0.452275 0.506597
O O2 0.216741 0.594211 0.646054
O O3 0.050300 0.608760 0.520382
O O4 0.037883 0.453762 0.636000
O O5 0.307785 0.750000 0.950413
O O6 0.320558 0.898770 0.820148
O O7 0.140957 0.880054 0.913355
O O8 0.776512 0.434997 0.779917
O O9 0.941294 0.563799 0.833978
O O10 0.881338 0.935066 0.149048
O O11 0.000000 0.000000 0.000000
O O12 0.004805 0.250000 0.610710
O O13 0.828380 0.365144 0.624770
O O14 0.312330 0.750000 0.281997
#
# Coordination Sequence:
#
# PCOD9466138 Si02
#       6
#     8   8   8   8   8   8
#     4  11  22  42  67  92 133 174 215 276 332 392
#     4  11  25  44  65 101 136 173 227 276 335 412
#     4  11  24  42  66  93 134 176 215 270 339 391
#     4  11  22  44  67  96 133 178 220 279 338 399
#     4  10  21  39  65  93 124 167 217 268 323 384
#     4  10  23  40  61  96 131 168 220 271 329 399
#
# _framework density 22.682994000000001
#
# number of rings (size 3 to 8) (size 9 to 14) (size 15 to 20)
#    0.000    1.333    5.000    0.500    4.667    4.000 
#    0.000    0.000    0.000    0.000    0.000    0.000 
#    0.000    0.000    0.000    0.000    0.000    0.000 
#
# Total GULP energy -268118.125519 kJ/mol
# GULP energy per Si atom -5585.794282 kJ/mol
# Density = 2.263137 g / cm^3
# Si number density = 22.682994 Si / 1000 Ang^3
#
#
#
# Elastic Constant Matrix: (Units=GPa)
#
#
# Indices 1 2 3 4 5 6 
#
# 1 113.6542 -1.3793 22.6795 0.0000 0.0000 0.0000
# 2 -1.3793 55.6237 -8.0905 0.0000 0.0000 0.0000
# 3 22.6795 -8.0905 90.4639 0.0000 0.0000 0.0000
# 4 0.0000 0.0000 0.0000 7.7063 0.0000 0.0000
# 5 0.0000 0.0000 0.0000 0.0000 43.5871 0.0000
# 6 0.0000 0.0000 0.0000 0.0000 0.0000 13.5358
#
#
#
# Elastic Compliance Matrix: (Units=1/GPa)
#
#
# Indices 1 2 3 4 5 6 
#
# 1 0.009263 -0.000110 -0.002332 0.000000 0.000000 0.000000
# 2 -0.000110 0.018216 0.001657 0.000000 0.000000 0.000000
# 3 -0.002332 0.001657 0.011787 0.000000 0.000000 0.000000
# 4 0.000000 0.000000 0.000000 0.129764 0.000000 0.000000
# 5 0.000000 0.000000 0.000000 0.000000 0.022943 0.000000
# 6 0.000000 0.000000 0.000000 0.000000 0.000000 0.073878
#
#
# Mechanical properties :
#
#
# Convention : Reuss Voigt Hill
#
# Bulk Modulus (GPa) = 26.52803 31.79571 29.16187
# Shear Modulus (GPa) = 17.85804 29.40131 23.62968
#
# Velocity S-wave (km/s) = 2.80891 3.60416 3.23109
# Velocity P-wave (km/s) = 4.71598 5.60070 5.17727
#
# Compressibility (1/GPa) = 0.03769597
#
# Stress axis : x y z
#
# Youngs Moduli (GPa) = 107.96070 54.89625 84.83984
#
# Poissons Ratio (x) = 0.00601 0.19784
# Poissons Ratio (y) = 0.01182 -0.14054
# Poissons Ratio (z) = 0.25176 -0.09094
#
# Static dielectric constant tensor:
#      x y z
#    x 1.919410 0.000000 0.000000 
#    y 0.000000 1.849810 0.000000 
#    z 0.000000 0.000000 1.946080 
# 
# From -- ./inp_files/18003.got.cif
#   From: 2010.05.17/outbox.cif.g08.bks.cpg/sg62_10_cif.got.tgz:18003.got - 2010.06.03 15:25:27.
