data_PCOD9466179
_publ_section_title
;
Structure prediction by ZEFSAII (Michael W. Deem and Ramdas Pophale) SiO2 
 PCOD9466179
Probable space group: P N M A
;
_chemical_formula_sum "Si O2"
_cell_formula_units_Z 48
_cell_length_a 22.926544
_cell_length_b 16.608865
_cell_length_c 5.336651
_cell_angle_alpha 90.000000
_cell_angle_beta 90.000000
_cell_angle_gamma 90.000000
_cell_volume 2032.110643
_symmetry_space_group_name_H-M "P N M A"
_symmetry_group_IT_number 62
_symmetry_cell_setting 'orthorhombic'
loop_
_space_group_symop_operation_xyz
x,y,z
1/2-x,-y,1/2+z
1/2+x,1/2-y,1/2-z
-x,1/2+y,-z
-x,-y,-z
1/2+x,y,1/2-z
1/2-x,1/2+y,1/2+z
x,1/2-y,z
loop_
_atom_site_type_symbol
_atom_site_label
_atom_site_fract_x
_atom_site_fract_y
_atom_site_fract_z
Si Si1 0.650820 0.050321 0.348210
Si Si2 0.713721 0.161647 0.650864
Si Si3 0.339074 0.124496 0.766790
Si Si4 0.907558 0.657418 0.465169
Si Si5 0.050820 0.005024 0.797400
Si Si6 0.906596 0.162248 0.248253
O O1 0.708772 0.091766 0.445946
O O2 0.613649 0.014159 0.573836
O O3 0.659628 0.971905 0.182498
O O4 0.611496 0.120863 0.231369
O O5 0.714773 0.250000 0.532042
O O6 0.773172 0.149059 0.799470
O O7 0.654482 0.157376 0.813969
O O8 0.379574 0.150042 0.531394
O O9 0.359070 0.162443 0.028993
O O10 0.928081 0.750000 0.467939
O O11 0.950293 0.588477 0.355623
O O12 0.054224 0.915613 0.683239
O O13 0.000000 0.000000 0.000000
O O14 0.936297 0.250000 0.249695
#
# Coordination Sequence:
#
# PCOD9466179 Si02
#       6
#     8   8   8   8   8   8
#     4  10  22  38  62  89 124 167 211 264 319 381
#     4  10  22  36  58  91 127 170 211 253 308 381
#     4  11  24  40  65  95 133 175 215 259 318 381
#     4  10  21  40  61  91 127 164 213 266 320 384
#     4  10  23  43  65  89 123 164 215 275 332 389
#     4  11  23  43  65  96 133 170 216 269 323 385
#
# _framework density 23.620759
#
# number of rings (size 3 to 8) (size 9 to 14) (size 15 to 20)
#    0.000    1.667    1.667    2.000    4.667    2.000 
#    0.000    0.000    0.000    0.000    0.000    0.000 
#    0.000    0.000    0.000    0.000    0.000    0.000 
#
# Total GULP energy -267739.834127 kJ/mol
# GULP energy per Si atom -5577.913211 kJ/mol
# Density = 2.356700 g / cm^3
# Si number density = 23.620759 Si / 1000 Ang^3
#
#
#
# Elastic Constant Matrix: (Units=GPa)
#
#
# Indices 1 2 3 4 5 6 
#
# 1 65.9751 33.3536 7.9380 0.0000 0.0000 0.0000
# 2 33.3536 226.0050 17.1770 0.0000 0.0000 0.0000
# 3 7.9380 17.1770 60.6881 0.0000 0.0000 0.0000
# 4 0.0000 0.0000 0.0000 24.2607 0.0000 0.0000
# 5 0.0000 0.0000 0.0000 0.0000 33.0053 0.0000
# 6 0.0000 0.0000 0.0000 0.0000 0.0000 52.1401
#
#
#
# Elastic Compliance Matrix: (Units=1/GPa)
#
#
# Indices 1 2 3 4 5 6 
#
# 1 0.016512 -0.002323 -0.001502 0.000000 0.000000 0.000000
# 2 -0.002323 0.004849 -0.001069 0.000000 0.000000 0.000000
# 3 -0.001502 -0.001069 0.016977 0.000000 0.000000 0.000000
# 4 0.000000 0.000000 0.000000 0.041219 0.000000 0.000000
# 5 0.000000 0.000000 0.000000 0.000000 0.030298 0.000000
# 6 0.000000 0.000000 0.000000 0.000000 0.000000 0.019179
#
#
# Mechanical properties :
#
#
# Convention : Reuss Voigt Hill
#
# Bulk Modulus (GPa) = 35.02589 52.17838 43.60214
# Shear Modulus (GPa) = 33.70688 41.49453 37.60070
#
# Velocity S-wave (km/s) = 3.78167 4.19584 3.99413
# Velocity P-wave (km/s) = 5.82483 6.75363 6.30635
#
# Compressibility (1/GPa) = 0.02855031
#
# Stress axis : x y z
#
# Youngs Moduli (GPa) = 60.56122 206.24206 58.90443
#
# Poissons Ratio (x) = 0.47903 0.08850
# Poissons Ratio (y) = 0.14066 0.06294
# Poissons Ratio (z) = 0.09099 0.22038
#
# Static dielectric constant tensor:
#      x y z
#    x 1.874560 0.000000 0.000000 
#    y 0.000000 1.997490 0.000000 
#    z 0.000000 0.000000 1.969250 
# 
# From -- ./inp_files/2738.got.cif
#   From: 2010.05.17/outbox.cif.g08.bks.cpg/sg62_2_cif.got.tgz:2738.got - 2010.06.03 15:25:27.
