data_PCOD9466624
_publ_section_title
;
Structure prediction by ZEFSAII (Michael W. Deem and Ramdas Pophale) SiO2 
 PCOD9466624
Probable space group: P N M A
;
_chemical_formula_sum "Si O2"
_cell_formula_units_Z 48
_cell_length_a 8.118465
_cell_length_b 16.831103
_cell_length_c 14.328892
_cell_angle_alpha 90.000000
_cell_angle_beta 90.000000
_cell_angle_gamma 90.000000
_cell_volume 1957.938786
_symmetry_space_group_name_H-M "P N M A"
_symmetry_group_IT_number 62
_symmetry_cell_setting 'orthorhombic'
loop_
_space_group_symop_operation_xyz
x,y,z
1/2-x,-y,1/2+z
1/2+x,1/2-y,1/2-z
-x,1/2+y,-z
-x,-y,-z
1/2+x,y,1/2-z
1/2-x,1/2+y,1/2+z
x,1/2-y,z
loop_
_atom_site_type_symbol
_atom_site_label
_atom_site_fract_x
_atom_site_fract_y
_atom_site_fract_z
Si Si1 0.159563 0.097415 0.059530
Si Si2 0.827607 0.410420 0.939017
Si Si3 0.147127 0.903354 0.384263
Si Si4 0.948735 0.341459 0.218876
Si Si5 0.840488 0.840249 0.272321
Si Si6 0.862179 0.911359 0.618480
O O1 0.107505 0.145283 0.151173
O O2 0.186839 0.004364 0.083762
O O3 0.303439 0.122731 0.988441
O O4 0.996986 0.100755 0.993973
O O5 0.802859 0.359435 0.847213
O O6 0.686076 0.387185 0.013847
O O7 0.306050 0.895294 0.316490
O O8 0.004861 0.856865 0.330813
O O9 0.099074 0.995642 0.385917
O O10 0.896724 0.250000 0.213054
O O11 0.000559 0.365934 0.322719
O O12 0.806506 0.396838 0.176805
O O13 0.834612 0.750000 0.240626
#
# Coordination Sequence:
#
# PCOD9466624 Si02
#       6
#     8   8   8   8   8   8
#     4   9  20  39  63  87 115 156 202 245 294 356
#     4   9  20  40  63  87 116 155 200 244 295 358
#     4  11  23  41  64  87 118 162 208 249 293 359
#     4  11  22  36  58  89 123 155 193 247 306 357
#     4  12  25  39  60  91 125 158 198 253 311 358
#     4  10  22  40  62  86 117 160 203 242 289 355
#
# _framework density 24.515578000000001
#
# number of rings (size 3 to 8) (size 9 to 14) (size 15 to 20)
#    0.000    1.667    0.000    5.000    0.000    8.667 
#    0.000    0.000    0.000    0.000    0.000    0.000 
#    0.000    0.000    0.000    0.000    0.000    0.000 
#
# Total GULP energy -268814.953563 kJ/mol
# GULP energy per Si atom -5600.311533 kJ/mol
# Density = 2.445978 g / cm^3
# Si number density = 24.515578 Si / 1000 Ang^3
#
#
#
# Elastic Constant Matrix: (Units=GPa)
#
#
# Indices 1 2 3 4 5 6 
#
# 1 78.5058 -0.2548 -0.2412 0.0000 0.0000 0.0000
# 2 -0.2548 39.3720 20.1037 0.0000 0.0000 0.0000
# 3 -0.2412 20.1037 116.5818 0.0000 0.0000 0.0000
# 4 0.0000 0.0000 0.0000 33.2295 0.0000 0.0000
# 5 0.0000 0.0000 0.0000 0.0000 46.9883 0.0000
# 6 0.0000 0.0000 0.0000 0.0000 0.0000 29.9403
#
#
#
# Elastic Compliance Matrix: (Units=1/GPa)
#
#
# Indices 1 2 3 4 5 6 
#
# 1 0.012738 0.000076 0.000013 0.000000 0.000000 0.000000
# 2 0.000076 0.027851 -0.004803 0.000000 0.000000 0.000000
# 3 0.000013 -0.004803 0.009406 0.000000 0.000000 0.000000
# 4 0.000000 0.000000 0.000000 0.030094 0.000000 0.000000
# 5 0.000000 0.000000 0.000000 0.000000 0.021282 0.000000
# 6 0.000000 0.000000 0.000000 0.000000 0.000000 0.033400
#
#
# Mechanical properties :
#
#
# Convention : Reuss Voigt Hill
#
# Bulk Modulus (GPa) = 24.64983 30.40831 27.52907
# Shear Modulus (GPa) = 31.70155 36.35510 34.02833
#
# Velocity S-wave (km/s) = 3.59990 3.85507 3.72967
# Velocity P-wave (km/s) = 5.23026 5.67856 5.45901
#
# Compressibility (1/GPa) = 0.04056824
#
# Stress axis : x y z
#
# Youngs Moduli (GPa) = 78.50399 35.90473 106.31654
#
# Poissons Ratio (x) = -0.00272 -0.00142
# Poissons Ratio (y) = -0.00594 0.51060
# Poissons Ratio (z) = -0.00104 0.17244
#
# Static dielectric constant tensor:
#      x y z
#    x 2.092220 0.000000 0.000000 
#    y 0.000000 1.828700 0.000000 
#    z 0.000000 0.000000 1.919080 
# 
# From -- ./inp_files/16920.got.cif
#   From: 2010.05.17/outbox.cif.g08.bks.cpg/sg62_9_cif.got.tgz:16920.got - 2010.06.03 15:25:27.
