data_PCOD9466245
_publ_section_title
;
Structure prediction by ZEFSAII (Michael W. Deem and Ramdas Pophale) SiO2 
 PCOD9466245
Probable space group: P N M A
;
_chemical_formula_sum "Si O2"
_cell_formula_units_Z 44
_cell_length_a 9.900551
_cell_length_b 7.348643
_cell_length_c 23.344581
_cell_angle_alpha 90.000000
_cell_angle_beta 90.000000
_cell_angle_gamma 90.000000
_cell_volume 1698.449343
_symmetry_space_group_name_H-M "P N M A"
_symmetry_group_IT_number 62
_symmetry_cell_setting 'orthorhombic'
loop_
_space_group_symop_operation_xyz
x,y,z
1/2-x,-y,1/2+z
1/2+x,1/2-y,1/2-z
-x,1/2+y,-z
-x,-y,-z
1/2+x,y,1/2-z
1/2-x,1/2+y,1/2+z
x,1/2-y,z
loop_
_atom_site_type_symbol
_atom_site_label
_atom_site_fract_x
_atom_site_fract_y
_atom_site_fract_z
Si Si1 0.893279 0.966676 0.949224
Si Si2 0.681615 0.038611 0.100188
Si Si3 0.106449 0.543664 0.560937
Si Si4 0.572637 0.250000 0.601231
Si Si5 0.203770 0.469267 0.687838
Si Si6 0.422752 0.470108 0.772131
O O1 0.888604 0.750000 0.938961
O O2 0.742690 0.030028 0.968403
O O3 0.953214 0.091385 0.899504
O O4 0.000000 0.000000 0.000000
O O5 0.709065 0.250000 0.086387
O O6 0.546231 0.971195 0.065693
O O7 0.809107 0.907732 0.096112
O O8 0.635662 0.032951 0.167098
O O9 0.088822 0.750000 0.542278
O O10 0.162438 0.542987 0.626363
O O11 0.204962 0.250000 0.682364
O O12 0.337331 0.535611 0.718599
O O13 0.079725 0.515513 0.730093
O O14 0.411681 0.250000 0.772626
#
# Coordination Sequence:
#
# PCOD9466245 Si02
#       6
#     8   8   8   4   8   8
#     4  11  24  45  69  95 127 165 210 265 330 390
#     4  10  21  40  64  92 127 167 208 257 313 374
#     4   9  21  40  64  89 123 165 212 260 315 387
#     4  12  24  40  68  94 128 160 206 256 318 380
#     4   9  18  30  53  83 119 163 210 253 309 368
#     4   9  17  33  50  82 124 163 205 256 301 362
#
# _framework density 25.905984
#
# number of rings (size 3 to 8) (size 9 to 14) (size 15 to 20)
#    0.000    2.182    1.818    0.545    2.545    2.182 
#    3.273    0.909    0.000    0.000    0.000    0.000 
#    0.000    0.000    0.000    0.000    0.000    0.000 
#
# Total GULP energy -245115.321449 kJ/mol
# GULP energy per Si atom -5570.802760 kJ/mol
# Density = 2.584702 g / cm^3
# Si number density = 25.905984 Si / 1000 Ang^3
#
#
#
# Elastic Constant Matrix: (Units=GPa)
#
#
# Indices 1 2 3 4 5 6 
#
# 1 162.5582 38.9623 40.7627 0.0000 0.0000 0.0000
# 2 38.9623 155.5224 18.5621 0.0000 0.0000 0.0000
# 3 40.7627 18.5621 69.5508 0.0000 0.0000 0.0000
# 4 0.0000 0.0000 0.0000 205.8047 0.0000 0.0000
# 5 0.0000 0.0000 0.0000 0.0000 46.9656 0.0000
# 6 0.0000 0.0000 0.0000 0.0000 0.0000 60.1483
#
#
#
# Elastic Compliance Matrix: (Units=1/GPa)
#
#
# Indices 1 2 3 4 5 6 
#
# 1 0.007495 -0.001398 -0.004019 0.000000 0.000000 0.000000
# 2 -0.001398 0.006902 -0.001023 0.000000 0.000000 0.000000
# 3 -0.004019 -0.001023 0.017007 0.000000 0.000000 0.000000
# 4 0.000000 0.000000 0.000000 0.004859 0.000000 0.000000
# 5 0.000000 0.000000 0.000000 0.000000 0.021292 0.000000
# 6 0.000000 0.000000 0.000000 0.000000 0.000000 0.016626
#
#
# Mechanical properties :
#
#
# Convention : Reuss Voigt Hill
#
# Bulk Modulus (GPa) = 53.98608 64.91173 59.44890
# Shear Modulus (GPa) = 53.62802 81.87333 67.75068
#
# Velocity S-wave (km/s) = 4.55477 5.62784 5.11950
# Velocity P-wave (km/s) = 6.96748 8.20617 7.61206
#
# Compressibility (1/GPa) = 0.01852329
#
# Stress axis : x y z
#
# Youngs Moduli (GPa) = 133.42978 144.88092 58.80044
#
# Poissons Ratio (x) = 0.20252 0.23634
# Poissons Ratio (y) = 0.18652 0.06014
# Poissons Ratio (z) = 0.53631 0.14819
#
# Static dielectric constant tensor:
#      x y z
#    x 2.055860 0.000000 0.000000 
#    y 0.000000 1.950830 0.000000 
#    z 0.000000 0.000000 2.160230 
# 
# From -- ./inp_files/31864.got.cif
#   From: 2010.05.17/outbox.cif.g08.bks.cpg/sg62_16_cif.got.tgz:31864.got - 2010.06.03 15:25:27.
