data_PCOD9466745
_publ_section_title
;
Structure prediction by ZEFSAII (Michael W. Deem and Ramdas Pophale) SiO2 
 PCOD9466745
Probable space group: P N M A
;
_chemical_formula_sum "Si O2"
_cell_formula_units_Z 40
_cell_length_a 26.526149
_cell_length_b 12.009058
_cell_length_c 5.101099
_cell_angle_alpha 90.000000
_cell_angle_beta 90.000000
_cell_angle_gamma 90.000000
_cell_volume 1624.975806
_symmetry_space_group_name_H-M "P N M A"
_symmetry_group_IT_number 62
_symmetry_cell_setting 'orthorhombic'
loop_
_space_group_symop_operation_xyz
x,y,z
1/2-x,-y,1/2+z
1/2+x,1/2-y,1/2-z
-x,1/2+y,-z
-x,-y,-z
1/2+x,y,1/2-z
1/2-x,1/2+y,1/2+z
x,1/2-y,z
loop_
_atom_site_type_symbol
_atom_site_label
_atom_site_fract_x
_atom_site_fract_y
_atom_site_fract_z
Si Si1 0.977646 0.122258 0.681843
Si Si2 0.605705 0.250000 0.386164
Si Si3 0.718118 0.018406 0.088590
Si Si4 0.068617 0.025328 0.882253
Si Si5 0.131069 0.623330 0.594989
Si Si6 0.328291 0.750000 0.104919
O O1 0.992238 0.250000 0.704701
O O2 0.925786 0.125912 0.517707
O O3 0.031710 0.061513 0.643251
O O4 0.959226 0.070455 0.955876
O O5 0.576406 0.363615 0.449122
O O6 0.623225 0.250000 0.087192
O O7 0.652306 0.250000 0.595704
O O8 0.701011 0.138420 0.977968
O O9 0.743313 0.028545 0.371244
O O10 0.671925 0.930629 0.095779
O O11 0.122506 0.972286 0.811836
O O12 0.144090 0.750000 0.673957
#
# Coordination Sequence:
#
# PCOD9466745 Si02
#       6
#     8   4   8   8   8   4
#     4  10  22  41  66 101 143 188 242 290 359 432
#     4  12  24  44  76 104 143 193 238 296 356 431
#     4  12  29  49  76 107 140 186 242 304 367 433
#     4  11  22  41  66 104 142 189 237 295 352 434
#     4  11  25  44  69  99 141 186 238 297 364 431
#     4  12  26  50  76 102 143 187 242 298 366 427
#
# _framework density 24.615753000000002
#
# number of rings (size 3 to 8) (size 9 to 14) (size 15 to 20)
#    0.000    0.800    3.000    3.600    5.600    0.000 
#    0.000    0.000    0.000    0.000    0.000    0.000 
#    0.000    0.000    0.000    0.000    0.000    0.000 
#
# Total GULP energy -223541.043209 kJ/mol
# GULP energy per Si atom -5588.526080 kJ/mol
# Density = 2.455973 g / cm^3
# Si number density = 24.615753 Si / 1000 Ang^3
#
#
#
# Elastic Constant Matrix: (Units=GPa)
#
#
# Indices 1 2 3 4 5 6 
#
# 1 62.3710 48.0380 14.2049 0.0000 0.0000 0.0000
# 2 48.0380 110.5343 -9.8712 0.0000 0.0000 0.0000
# 3 14.2049 -9.8712 51.4020 0.0000 0.0000 0.0000
# 4 0.0000 0.0000 0.0000 14.8210 0.0000 0.0000
# 5 0.0000 0.0000 0.0000 0.0000 37.8048 0.0000
# 6 0.0000 0.0000 0.0000 0.0000 0.0000 42.3166
#
#
#
# Elastic Compliance Matrix: (Units=1/GPa)
#
#
# Indices 1 2 3 4 5 6 
#
# 1 0.028799 -0.013458 -0.010543 0.000000 0.000000 0.000000
# 2 -0.013458 0.015493 0.006694 0.000000 0.000000 0.000000
# 3 -0.010543 0.006694 0.023654 0.000000 0.000000 0.000000
# 4 0.000000 0.000000 0.000000 0.067472 0.000000 0.000000
# 5 0.000000 0.000000 0.000000 0.000000 0.026452 0.000000
# 6 0.000000 0.000000 0.000000 0.000000 0.000000 0.023631
#
#
# Mechanical properties :
#
#
# Convention : Reuss Voigt Hill
#
# Bulk Modulus (GPa) = 29.99965 36.56118 33.28042
# Shear Modulus (GPa) = 21.62393 30.45086 26.03739
#
# Velocity S-wave (km/s) = 2.96710 3.52098 3.25584
# Velocity P-wave (km/s) = 4.89406 5.60489 5.26149
#
# Compressibility (1/GPa) = 0.03333372
#
# Stress axis : x y z
#
# Youngs Moduli (GPa) = 34.72302 64.54327 42.27676
#
# Poissons Ratio (x) = 0.86860 0.44573
# Poissons Ratio (y) = 0.46729 -0.28302
# Poissons Ratio (z) = 0.36609 -0.43208
#
# Static dielectric constant tensor:
#      x y z
#    x 1.994710 0.000000 0.000000 
#    y 0.000000 2.020710 0.000000 
#    z 0.000000 0.000000 2.007400 
# 
# From -- ./inp_files/3059.got.cif
#   From: 2010.05.17/outbox.cif.g08.bks.cpg/sg62_2_cif.got.tgz:3059.got - 2010.06.03 15:25:27.
