data_PCOD9466701
_publ_section_title
;
Structure prediction by ZEFSAII (Michael W. Deem and Ramdas Pophale) SiO2 
 PCOD9466701
Probable space group: P N M A
;
_chemical_formula_sum "Si O2"
_cell_formula_units_Z 40
_cell_length_a 18.815014
_cell_length_b 8.486271
_cell_length_c 12.793090
_cell_angle_alpha 90.000000
_cell_angle_beta 90.000000
_cell_angle_gamma 90.000000
_cell_volume 2042.663823
_symmetry_space_group_name_H-M "P N M A"
_symmetry_group_IT_number 62
_symmetry_cell_setting 'orthorhombic'
loop_
_space_group_symop_operation_xyz
x,y,z
1/2-x,-y,1/2+z
1/2+x,1/2-y,1/2-z
-x,1/2+y,-z
-x,-y,-z
1/2+x,y,1/2-z
1/2-x,1/2+y,1/2+z
x,1/2-y,z
loop_
_atom_site_type_symbol
_atom_site_label
_atom_site_fract_x
_atom_site_fract_y
_atom_site_fract_z
Si Si1 0.074374 0.939046 0.453492
Si Si2 0.543794 0.061015 0.269794
Si Si3 0.146118 0.057808 0.044206
Si Si4 0.697233 0.559510 0.885718
Si Si5 0.113746 0.438887 0.808554
O O1 0.072752 0.750000 0.452469
O O2 0.138971 0.990440 0.528042
O O3 0.080559 0.000980 0.335796
O O4 0.000000 0.000000 0.500000
O O5 0.542437 0.250000 0.267835
O O6 0.586887 0.007427 0.372242
O O7 0.463366 0.999781 0.273631
O O8 0.145860 0.250000 0.043371
O O9 0.224113 0.007363 0.081816
O O10 0.129549 0.005671 0.926508
O O11 0.696795 0.750000 0.882661
O O12 0.671789 0.497611 0.773940
O O13 0.112932 0.250000 0.807902
#
# Coordination Sequence:
#
# PCOD9466701 Si02
#       5
#     8   8   8   8   8
#     4  11  22  37  61  88 120 156 199 246 295 351
#     4  11  22  39  63  88 120 158 200 246 299 355
#     4   9  22  41  61  87 121 159 197 248 303 355
#     4  10  22  41  61  85 120 158 195 245 305 354
#     4  11  22  39  63  89 119 155 201 247 296 355
#
# _framework density 19.582274000000002
#
# number of rings (size 3 to 8) (size 9 to 14) (size 15 to 20)
#    0.000    1.600    2.000    2.400    2.800    0.800 
#    0.000    6.000    0.000    0.000    0.000    0.000 
#    0.000    0.000    0.000    0.000    0.000    0.000 
#
# Total GULP energy -223603.615692 kJ/mol
# GULP energy per Si atom -5590.090392 kJ/mol
# Density = 1.953770 g / cm^3
# Si number density = 19.582274 Si / 1000 Ang^3
#
#
#
# Elastic Constant Matrix: (Units=GPa)
#
#
# Indices 1 2 3 4 5 6 
#
# 1 35.7420 3.8291 0.4860 0.0000 0.0000 0.0000
# 2 3.8291 25.0443 12.1344 0.0000 0.0000 0.0000
# 3 0.4860 12.1344 134.0187 0.0000 0.0000 0.0000
# 4 0.0000 0.0000 0.0000 31.4515 0.0000 0.0000
# 5 0.0000 0.0000 0.0000 0.0000 25.6994 0.0000
# 6 0.0000 0.0000 0.0000 0.0000 0.0000 15.0901
#
#
#
# Elastic Compliance Matrix: (Units=1/GPa)
#
#
# Indices 1 2 3 4 5 6 
#
# 1 0.028456 -0.004498 0.000304 0.000000 0.000000 0.000000
# 2 -0.004498 0.042472 -0.003829 0.000000 0.000000 0.000000
# 3 0.000304 -0.003829 0.007807 0.000000 0.000000 0.000000
# 4 0.000000 0.000000 0.000000 0.031795 0.000000 0.000000
# 5 0.000000 0.000000 0.000000 0.000000 0.038911 0.000000
# 6 0.000000 0.000000 0.000000 0.000000 0.000000 0.066269
#
#
# Mechanical properties :
#
#
# Convention : Reuss Voigt Hill
#
# Bulk Modulus (GPa) = 15.95172 25.30043 20.62607
# Shear Modulus (GPa) = 19.78997 26.33857 23.06427
#
# Velocity S-wave (km/s) = 3.18245 3.67143 3.43565
# Velocity P-wave (km/s) = 4.65486 5.56064 5.12778
#
# Compressibility (1/GPa) = 0.06268918
#
# Stress axis : x y z
#
# Youngs Moduli (GPa) = 35.14196 23.54478 128.08604
#
# Poissons Ratio (x) = 0.10590 -0.03895
# Poissons Ratio (y) = 0.15807 0.49047
# Poissons Ratio (z) = -0.01069 0.09016
#
# Static dielectric constant tensor:
#      x y z
#    x 1.653040 0.000000 0.000000 
#    y 0.000000 1.673270 0.000000 
#    z 0.000000 0.000000 1.683740 
# 
# From -- ./inp_files/13859.got.cif
#   From: 2010.05.17/outbox.cif.g08.bks.cpg/sg62_7_cif.got.tgz:13859.got - 2010.06.03 15:25:27.
