data_PCOD9466980
_publ_section_title
;
Structure prediction by ZEFSAII (Michael W. Deem and Ramdas Pophale) SiO2 
 PCOD9466980
Probable space group: P N M A
;
_chemical_formula_sum "Si O2"
_cell_formula_units_Z 56
_cell_length_a 5.688605
_cell_length_b 14.130568
_cell_length_c 28.263932
_cell_angle_alpha 90.000000
_cell_angle_beta 90.000000
_cell_angle_gamma 90.000000
_cell_volume 2271.945858
_symmetry_space_group_name_H-M "P N M A"
_symmetry_group_IT_number 62
_symmetry_cell_setting 'orthorhombic'
loop_
_space_group_symop_operation_xyz
x,y,z
1/2-x,-y,1/2+z
1/2+x,1/2-y,1/2-z
-x,1/2+y,-z
-x,-y,-z
1/2+x,y,1/2-z
1/2-x,1/2+y,1/2+z
x,1/2-y,z
loop_
_atom_site_type_symbol
_atom_site_label
_atom_site_fract_x
_atom_site_fract_y
_atom_site_fract_z
Si Si1 0.312652 0.359430 0.445050
Si Si2 0.363693 0.136752 0.269969
Si Si3 0.363695 0.363248 0.730032
Si Si4 0.999999 0.000000 0.383994
Si Si5 0.363621 0.643195 0.360622
Si Si6 0.687346 0.859430 0.445050
Si Si7 0.363623 0.856805 0.639378
O O1 0.231100 0.250000 0.441351
O O2 0.344820 0.382156 0.500000
O O3 0.551380 0.364789 0.414615
O O4 0.139090 0.429349 0.418561
O O5 0.109330 0.100955 0.253238
O O6 0.355799 0.250000 0.260022
O O7 0.416011 0.127441 0.325898
O O8 0.109332 0.399045 0.746762
O O9 0.355801 0.250000 0.739978
O O10 0.416013 0.372559 0.674102
O O11 0.860908 0.929349 0.418561
O O12 0.169559 0.934935 0.353021
O O13 0.830439 0.065065 0.353021
O O14 0.277464 0.750000 0.351756
O O15 0.448618 0.635211 0.414615
O O16 0.768897 0.750000 0.441351
O O17 0.277465 0.750000 0.648244
#
# Coordination Sequence:
#
# PCOD9466980 Si02
#       7
#     8   8   8   8   8   8   8
#     4  10  23  43  66  93 128 169 215 269 332 400
#     4   9  19  37  65  96 129 175 228 279 336 398
#     4   9  19  37  65  96 129 175 228 279 336 398
#     4  12  23  38  64  96 132 168 216 270 331 396
#     4  10  23  41  64  93 131 173 218 272 331 398
#     4  10  23  43  66  93 128 169 215 269 332 400
#     4  10  23  41  64  93 131 173 218 272 331 398
#
# _framework density 24.648472999999999
#
# number of rings (size 3 to 8) (size 9 to 14) (size 15 to 20)
#    0.000    2.000    0.000    2.143    4.000    3.429 
#    0.000    4.286    0.000    0.000    0.000    0.000 
#    0.000    0.000    0.000    0.000    0.000    0.000 
#
# Total GULP energy -313616.751054 kJ/mol
# GULP energy per Si atom -5600.299126 kJ/mol
# Density = 2.459237 g / cm^3
# Si number density = 24.648473 Si / 1000 Ang^3
#
#
#
# Elastic Constant Matrix: (Units=GPa)
#
#
# Indices 1 2 3 4 5 6 
#
# 1 111.7216 76.7191 49.0571 0.0000 0.0000 0.0000
# 2 76.7191 121.9372 20.9869 0.0000 0.0000 0.0000
# 3 49.0571 20.9869 120.7338 0.0000 0.0000 0.0000
# 4 0.0000 0.0000 0.0000 -6.5103 0.0000 0.0000
# 5 0.0000 0.0000 0.0000 0.0000 21.9745 0.0000
# 6 0.0000 0.0000 0.0000 0.0000 0.0000 44.1897
#
#
#
# Elastic Compliance Matrix: (Units=1/GPa)
#
#
# Indices 1 2 3 4 5 6 
#
# 1 0.019056 -0.010985 -0.005833 0.000000 0.000000 0.000000
# 2 -0.010985 0.014787 0.001893 0.000000 0.000000 0.000000
# 3 -0.005833 0.001893 0.010324 0.000000 0.000000 0.000000
# 4 0.000000 0.000000 0.000000 -0.153604 0.000000 0.000000
# 5 0.000000 0.000000 0.000000 0.000000 0.045507 0.000000
# 6 0.000000 0.000000 0.000000 0.000000 0.000000 0.022630
#
#
# Mechanical properties :
#
#
# Convention : Reuss Voigt Hill
#
# Bulk Modulus (GPa) = 69.85382 71.99096 70.92239
# Shear Modulus (GPa) = -748.74811 25.77276 -361.48767
#
# Velocity S-wave (km/s) = -17.44792 3.23710 -12.12335
# Velocity P-wave (km/s) = 19.42949 6.57588 12.92793
#
# Compressibility (1/GPa) = 0.01431561
#
# Stress axis : x y z
#
# Youngs Moduli (GPa) = 52.47732 67.62819 96.86366
#
# Poissons Ratio (x) = 0.74292 0.56503
# Poissons Ratio (y) = 0.57648 -0.18339
# Poissons Ratio (z) = 0.30612 -0.12804
#
# Static dielectric constant tensor:
#      x y z
#    x 1.956250 0.000000 0.000000 
#    y 0.000000 1.957150 0.000000 
#    z 0.000000 0.000000 1.911310 
# 
# From -- ./inp_files/31616.got.cif
#   From: 2010.05.17/outbox.cif.g08.bks.cpg/sg62_16_cif.got.tgz:31616.got - 2010.06.03 15:25:27.
