data_PCOD9466796
_publ_section_title
;
Structure prediction by ZEFSAII (Michael W. Deem and Ramdas Pophale) SiO2 
 PCOD9466796
Probable space group: P N M A
;
_chemical_formula_sum "Si O2"
_cell_formula_units_Z 56
_cell_length_a 19.837837
_cell_length_b 14.322747
_cell_length_c 9.576399
_cell_angle_alpha 90.000000
_cell_angle_beta 90.000000
_cell_angle_gamma 90.000000
_cell_volume 2720.964469
_symmetry_space_group_name_H-M "P N M A"
_symmetry_group_IT_number 62
_symmetry_cell_setting 'orthorhombic'
loop_
_space_group_symop_operation_xyz
x,y,z
1/2-x,-y,1/2+z
1/2+x,1/2-y,1/2-z
-x,1/2+y,-z
-x,-y,-z
1/2+x,y,1/2-z
1/2-x,1/2+y,1/2+z
x,1/2-y,z
loop_
_atom_site_type_symbol
_atom_site_label
_atom_site_fract_x
_atom_site_fract_y
_atom_site_fract_z
Si Si1 0.933534 0.861276 0.659602
Si Si2 0.834486 0.456674 0.007754
Si Si3 0.221872 0.139830 0.323278
Si Si4 0.533520 0.523494 0.647743
Si Si5 0.511489 0.359666 0.850558
Si Si6 0.643990 0.639588 0.211651
Si Si7 0.264663 0.858729 0.505611
O O1 0.936424 0.750000 0.683136
O O2 0.855975 0.890896 0.677649
O O3 0.957920 0.879693 0.502129
O O4 0.983358 0.911975 0.765006
O O5 0.765585 0.412810 0.063246
O O6 0.895683 0.429487 0.108982
O O7 0.824426 0.568003 0.018307
O O8 0.847541 0.420337 0.851854
O O9 0.222404 0.250000 0.354880
O O10 0.252956 0.127045 0.168857
O O11 0.500000 0.500000 0.500000
O O12 0.542051 0.429175 0.736923
O O13 0.522875 0.250000 0.818644
O O14 0.430668 0.375871 0.849974
O O15 0.648386 0.750000 0.248706
O O16 0.702552 0.621944 0.098359
O O17 0.284338 0.750000 0.489198
#
# Coordination Sequence:
#
# PCOD9466796 Si02
#       7
#     8   8   8   8   8   8   8
#     4  10  24  45  69  95 135 181 223 278 339 407
#     4  12  24  39  67  98 132 169 217 279 333 387
#     4  10  23  43  66  96 129 168 220 273 330 394
#     4  12  25  41  64  99 135 174 222 276 338 403
#     4  10  23  44  68  95 132 176 222 275 334 407
#     4  10  22  42  65  94 131 170 218 273 331 398
#     4  10  23  41  63  90 128 174 216 265 329 397
#
# _framework density 20.580938
#
# number of rings (size 3 to 8) (size 9 to 14) (size 15 to 20)
#    0.000    1.429    1.429    2.571    4.000    4.571 
#    0.000    2.857    0.000    0.000    0.000    0.000 
#    0.000    0.000    0.000    0.000    0.000    0.000 
#
# Total GULP energy -313182.605663 kJ/mol
# GULP energy per Si atom -5592.546530 kJ/mol
# Density = 2.053409 g / cm^3
# Si number density = 20.580938 Si / 1000 Ang^3
#
#
#
# Elastic Constant Matrix: (Units=GPa)
#
#
# Indices 1 2 3 4 5 6 
#
# 1 101.9980 49.7903 72.7439 0.0000 0.0000 0.0000
# 2 49.7903 63.4602 66.6849 0.0000 0.0000 0.0000
# 3 72.7439 66.6849 144.3277 0.0000 0.0000 0.0000
# 4 0.0000 0.0000 0.0000 31.2522 0.0000 0.0000
# 5 0.0000 0.0000 0.0000 0.0000 39.2909 0.0000
# 6 0.0000 0.0000 0.0000 0.0000 0.0000 23.1600
#
#
#
# Elastic Compliance Matrix: (Units=1/GPa)
#
#
# Indices 1 2 3 4 5 6 
#
# 1 0.017447 -0.008646 -0.004799 0.000000 0.000000 0.000000
# 2 -0.008646 0.034913 -0.011773 0.000000 0.000000 0.000000
# 3 -0.004799 -0.011773 0.014787 0.000000 0.000000 0.000000
# 4 0.000000 0.000000 0.000000 0.031998 0.000000 0.000000
# 5 0.000000 0.000000 0.000000 0.000000 0.025451 0.000000
# 6 0.000000 0.000000 0.000000 0.000000 0.000000 0.043178
#
#
# Mechanical properties :
#
#
# Convention : Reuss Voigt Hill
#
# Bulk Modulus (GPa) = 59.84183 76.46936 68.15559
# Shear Modulus (GPa) = 22.34317 26.77839 24.56078
#
# Velocity S-wave (km/s) = 3.29846 3.61103 3.45827
# Velocity P-wave (km/s) = 6.60650 7.39068 7.00956
#
# Compressibility (1/GPa) = 0.01671072
#
# Stress axis : x y z
#
# Youngs Moduli (GPa) = 57.31553 28.64233 67.62622
#
# Poissons Ratio (x) = 0.24765 0.32453
# Poissons Ratio (y) = 0.49556 0.79619
# Poissons Ratio (z) = 0.27505 0.33722
#
# Static dielectric constant tensor:
#      x y z
#    x 1.727750 0.000000 0.000000 
#    y 0.000000 1.763490 0.000000 
#    z 0.000000 0.000000 1.683280 
# 
# From -- ./inp_files/8730.got.cif
#   From: 2010.05.17/outbox.cif.g08.bks.cpg/sg62_5_cif.got.tgz:8730.got - 2010.06.03 15:25:27.
