data_PCOD9466974
_publ_section_title
;
Structure prediction by ZEFSAII (Michael W. Deem and Ramdas Pophale) SiO2 
 PCOD9466974
Probable space group: P N M A
;
_chemical_formula_sum "Si O2"
_cell_formula_units_Z 40
_cell_length_a 24.186294
_cell_length_b 8.310345
_cell_length_c 8.370287
_cell_angle_alpha 90.000000
_cell_angle_beta 90.000000
_cell_angle_gamma 90.000000
_cell_volume 1682.397951
_symmetry_space_group_name_H-M "P N M A"
_symmetry_group_IT_number 62
_symmetry_cell_setting 'orthorhombic'
loop_
_space_group_symop_operation_xyz
x,y,z
1/2-x,-y,1/2+z
1/2+x,1/2-y,1/2-z
-x,1/2+y,-z
-x,-y,-z
1/2+x,y,1/2-z
1/2-x,1/2+y,1/2+z
x,1/2-y,z
loop_
_atom_site_type_symbol
_atom_site_label
_atom_site_fract_x
_atom_site_fract_y
_atom_site_fract_z
Si Si1 0.375775 0.062391 0.859548
Si Si2 0.168427 0.560769 0.841413
Si Si3 0.729234 0.944478 0.332190
Si Si4 0.566363 0.067635 0.830316
Si Si5 0.969028 0.564908 0.843892
O O1 0.374593 0.250000 0.903560
O O2 0.314737 0.011435 0.806064
O O3 0.415956 0.037107 0.707690
O O4 0.402880 0.965530 0.003719
O O5 0.155350 0.750000 0.850479
O O6 0.212792 0.528098 0.701490
O O7 0.112906 0.465497 0.803347
O O8 0.199852 0.510625 0.002330
O O9 0.736405 0.750000 0.331100
O O10 0.546338 0.250000 0.821610
O O11 0.514529 0.953780 0.796782
O O12 0.953459 0.750000 0.863822
O O13 0.000000 0.500000 0.000000
#
# Coordination Sequence:
#
# PCOD9466974 Si02
#       5
#     8   8   8   8   8
#     4  11  23  42  66  93 127 166 209 257 311 370
#     4  11  23  40  63  91 124 162 207 258 311 371
#     4  10  23  41  62  90 124 162 205 254 309 372
#     4  12  25  42  64  92 126 164 209 259 313 371
#     4  12  25  43  66  94 127 164 208 256 311 370
#
# _framework density 23.775586000000001
#
# number of rings (size 3 to 8) (size 9 to 14) (size 15 to 20)
#    0.000    0.800    0.000    7.800    0.000    8.000 
#    0.000    0.000    0.000    0.000    0.000    0.000 
#    0.000    0.000    0.000    0.000    0.000    0.000 
#
# Total GULP energy -224271.207612 kJ/mol
# GULP energy per Si atom -5606.780190 kJ/mol
# Density = 2.372147 g / cm^3
# Si number density = 23.775586 Si / 1000 Ang^3
#
#
#
# Elastic Constant Matrix: (Units=GPa)
#
#
# Indices 1 2 3 4 5 6 
#
# 1 87.2707 -3.5414 -11.1938 0.0000 0.0000 0.0000
# 2 -3.5414 51.8864 -2.2392 0.0000 0.0000 0.0000
# 3 -11.1938 -2.2392 71.0401 0.0000 0.0000 0.0000
# 4 0.0000 0.0000 0.0000 35.9685 0.0000 0.0000
# 5 0.0000 0.0000 0.0000 0.0000 39.2924 0.0000
# 6 0.0000 0.0000 0.0000 0.0000 0.0000 24.5993
#
#
#
# Elastic Compliance Matrix: (Units=1/GPa)
#
#
# Indices 1 2 3 4 5 6 
#
# 1 0.011735 0.000882 0.001877 0.000000 0.000000 0.000000
# 2 0.000882 0.019365 0.000749 0.000000 0.000000 0.000000
# 3 0.001877 0.000749 0.014396 0.000000 0.000000 0.000000
# 4 0.000000 0.000000 0.000000 0.027802 0.000000 0.000000
# 5 0.000000 0.000000 0.000000 0.000000 0.025450 0.000000
# 6 0.000000 0.000000 0.000000 0.000000 0.000000 0.040652
#
#
# Mechanical properties :
#
#
# Convention : Reuss Voigt Hill
#
# Bulk Modulus (GPa) = 19.04290 19.58313 19.31301
# Shear Modulus (GPa) = 33.35822 35.11684 34.23753
#
# Velocity S-wave (km/s) = 3.74979 3.84736 3.79889
# Velocity P-wave (km/s) = 5.17443 5.29063 5.23285
#
# Compressibility (1/GPa) = 0.05251301
#
# Stress axis : x y z
#
# Youngs Moduli (GPa) = 85.21421 51.63844 69.46413
#
# Poissons Ratio (x) = -0.04554 -0.13038
# Poissons Ratio (y) = -0.07516 -0.05206
# Poissons Ratio (z) = -0.15994 -0.03870
#
# Static dielectric constant tensor:
#      x y z
#    x 1.849130 0.000000 0.000000 
#    y 0.000000 1.778990 0.000000 
#    z 0.000000 0.000000 1.978200 
# 
# From -- ./inp_files/9091.got.cif
#   From: 2010.05.17/outbox.cif.g08.bks.cpg/sg62_5_cif.got.tgz:9091.got - 2010.06.03 15:25:27.
