data_PCOD9466868
_publ_section_title
;
Structure prediction by ZEFSAII (Michael W. Deem and Ramdas Pophale) SiO2 
 PCOD9466868
Probable space group: P N M A
;
_chemical_formula_sum "Si O2"
_cell_formula_units_Z 40
_cell_length_a 11.651387
_cell_length_b 13.839217
_cell_length_c 10.717610
_cell_angle_alpha 90.000000
_cell_angle_beta 90.000000
_cell_angle_gamma 90.000000
_cell_volume 1728.172525
_symmetry_space_group_name_H-M "P N M A"
_symmetry_group_IT_number 62
_symmetry_cell_setting 'orthorhombic'
loop_
_space_group_symop_operation_xyz
x,y,z
1/2-x,-y,1/2+z
1/2+x,1/2-y,1/2-z
-x,1/2+y,-z
-x,-y,-z
1/2+x,y,1/2-z
1/2-x,1/2+y,1/2+z
x,1/2-y,z
loop_
_atom_site_type_symbol
_atom_site_label
_atom_site_fract_x
_atom_site_fract_y
_atom_site_fract_z
Si Si1 0.107769 0.529315 0.083849
Si Si2 0.411148 0.939076 0.268198
Si Si3 0.270524 0.861634 0.502907
Si Si4 0.673055 0.363455 0.995645
Si Si5 0.045583 0.636553 0.648596
O O1 0.202612 0.588778 0.010033
O O2 0.042462 0.585587 0.192532
O O3 0.169861 0.427589 0.109428
O O4 0.000000 0.500000 0.000000
O O5 0.320053 0.902394 0.372147
O O6 0.379574 0.891010 0.138245
O O7 0.580014 0.107322 0.098964
O O8 0.303503 0.750000 0.512760
O O9 0.135679 0.869444 0.532563
O O10 0.686084 0.250000 0.007580
O O11 0.585820 0.555055 0.754419
O O12 0.046591 0.750000 0.689067
#
# Coordination Sequence:
#
# PCOD9466868 Si02
#       5
#     8   8   8   8   8
#     4  10  24  41  65  94 132 178 218 278 336 396
#     4  11  23  40  70  98 134 179 229 275 337 398
#     4  10  22  43  67  98 134 176 228 285 340 398
#     4  11  24  41  65 101 136 175 225 279 334 398
#     4  10  23  43  69  98 137 181 227 280 338 402
#
# _framework density 23.145838999999999
#
# number of rings (size 3 to 8) (size 9 to 14) (size 15 to 20)
#    0.000    1.600    2.000    1.200    2.800    6.400 
#    0.000    3.000    0.000    0.000    0.000    0.000 
#    0.000    0.000    0.000    0.000    0.000    0.000 
#
# Total GULP energy -223280.760646 kJ/mol
# GULP energy per Si atom -5582.019016 kJ/mol
# Density = 2.309316 g / cm^3
# Si number density = 23.145839 Si / 1000 Ang^3
#
#
#
# Elastic Constant Matrix: (Units=GPa)
#
#
# Indices 1 2 3 4 5 6 
#
# 1 150.8972 53.2597 39.5342 0.0000 0.0000 0.0000
# 2 53.2597 85.6969 14.1200 0.0000 0.0000 0.0000
# 3 39.5342 14.1200 64.9320 0.0000 0.0000 0.0000
# 4 0.0000 0.0000 0.0000 30.1146 0.0000 0.0000
# 5 0.0000 0.0000 0.0000 0.0000 23.4184 0.0000
# 6 0.0000 0.0000 0.0000 0.0000 0.0000 -31.6109
#
#
#
# Elastic Compliance Matrix: (Units=1/GPa)
#
#
# Indices 1 2 3 4 5 6 
#
# 1 0.009739 -0.005264 -0.004785 0.000000 0.000000 0.000000
# 2 -0.005264 0.014948 -0.000046 0.000000 0.000000 0.000000
# 3 -0.004785 -0.000046 0.018324 0.000000 0.000000 0.000000
# 4 0.000000 0.000000 0.000000 0.033206 0.000000 0.000000
# 5 0.000000 0.000000 0.000000 0.000000 0.042702 0.000000
# 6 0.000000 0.000000 0.000000 0.000000 0.000000 -0.031635
#
#
# Mechanical properties :
#
#
# Convention : Reuss Voigt Hill
#
# Bulk Modulus (GPa) = 43.81752 57.26157 50.53954
# Shear Modulus (GPa) = 43.44822 17.35857 30.40339
#
# Velocity S-wave (km/s) = 4.33731 2.74152 3.62824
# Velocity P-wave (km/s) = 6.63741 5.90037 6.27971
#
# Compressibility (1/GPa) = 0.02282192
#
# Stress axis : x y z
#
# Youngs Moduli (GPa) = 102.68479 66.89822 54.57388
#
# Poissons Ratio (x) = 0.35216 0.26112
# Poissons Ratio (y) = 0.54054 0.00249
# Poissons Ratio (z) = 0.49131 0.00305
#
# Static dielectric constant tensor:
#      x y z
#    x 1.930350 0.000000 0.000000 
#    y 0.000000 1.871590 0.000000 
#    z 0.000000 0.000000 1.967680 
# 
# From -- ./inp_files/13096.got.cif
#   From: 2010.05.17/outbox.cif.g08.bks.cpg/sg62_7_cif.got.tgz:13096.got - 2010.06.03 15:25:27.
