data_PCOD9466633
_publ_section_title
;
Structure prediction by ZEFSAII (Michael W. Deem and Ramdas Pophale) SiO2 
 PCOD9466633
Probable space group: P N M A
;
_chemical_formula_sum "Si O2"
_cell_formula_units_Z 32
_cell_length_a 9.376225
_cell_length_b 10.642379
_cell_length_c 12.987304
_cell_angle_alpha 90.000000
_cell_angle_beta 90.000000
_cell_angle_gamma 90.000000
_cell_volume 1295.942546
_symmetry_space_group_name_H-M "P N M A"
_symmetry_group_IT_number 62
_symmetry_cell_setting 'orthorhombic'
loop_
_space_group_symop_operation_xyz
x,y,z
1/2-x,-y,1/2+z
1/2+x,1/2-y,1/2-z
-x,1/2+y,-z
-x,-y,-z
1/2+x,y,1/2-z
1/2-x,1/2+y,1/2+z
x,1/2-y,z
loop_
_atom_site_type_symbol
_atom_site_label
_atom_site_fract_x
_atom_site_fract_y
_atom_site_fract_z
Si Si1 0.974077 0.890785 0.650471
Si Si2 0.410625 0.560048 0.623191
Si Si3 0.214770 0.469988 0.922445
Si Si4 0.197225 0.386645 0.694411
O O1 0.021785 0.750000 0.623749
O O2 0.898111 0.882739 0.763516
O O3 0.856355 0.946062 0.573157
O O4 0.093628 0.997418 0.666768
O O5 0.320109 0.605315 0.525912
O O6 0.575694 0.557946 0.593501
O O7 0.348009 0.419297 0.641425
O O8 0.222172 0.392020 0.817213
O O9 0.142091 0.250000 0.664665
#
# Coordination Sequence:
#
# PCOD9466633 Si02
#       4
#     8   8   8   8
#     4  10  22  40  62  90 125 162 201 248 304 366
#     4   9  20  38  60  85 116 157 204 251 298 350
#     4   9  20  38  60  85 116 157 204 251 298 350
#     4  10  22  40  62  90 125 162 201 248 304 366
#
# _framework density 24.692451999999999
#
# number of rings (size 3 to 8) (size 9 to 14) (size 15 to 20)
#    0.000    2.500    0.000    0.000    0.000   21.000 
#    0.000   10.000    0.000    0.000    0.000    0.000 
#    0.000    0.000    0.000    0.000    0.000    0.000 
#
# Total GULP energy -178651.739997 kJ/mol
# GULP energy per Si atom -5582.866875 kJ/mol
# Density = 2.463625 g / cm^3
# Si number density = 24.692452 Si / 1000 Ang^3
#
#
#
# Elastic Constant Matrix: (Units=GPa)
#
#
# Indices 1 2 3 4 5 6 
#
# 1 77.6414 48.0547 27.7298 0.0000 0.0000 0.0000
# 2 48.0547 174.6618 -2.5048 0.0000 0.0000 0.0000
# 3 27.7298 -2.5048 103.3710 0.0000 0.0000 0.0000
# 4 0.0000 0.0000 0.0000 -3.8836 0.0000 0.0000
# 5 0.0000 0.0000 0.0000 0.0000 46.5055 0.0000
# 6 0.0000 0.0000 0.0000 0.0000 0.0000 16.4091
#
#
#
# Elastic Compliance Matrix: (Units=1/GPa)
#
#
# Indices 1 2 3 4 5 6 
#
# 1 0.017666 -0.004930 -0.004859 0.000000 0.000000 0.000000
# 2 -0.004930 0.007103 0.001495 0.000000 0.000000 0.000000
# 3 -0.004859 0.001495 0.011013 0.000000 0.000000 0.000000
# 4 0.000000 0.000000 0.000000 -0.257494 0.000000 0.000000
# 5 0.000000 0.000000 0.000000 0.000000 0.021503 0.000000
# 6 0.000000 0.000000 0.000000 0.000000 0.000000 0.060942
#
#
# Mechanical properties :
#
#
# Convention : Reuss Voigt Hill
#
# Bulk Modulus (GPa) = 52.09728 55.80373 53.95050
# Shear Modulus (GPa) = -42.99994 30.63250 -6.18372
#
# Velocity S-wave (km/s) = -4.17756 3.52598 -1.58421
# Velocity P-wave (km/s) = 1.45776 6.26301 4.30698
#
# Compressibility (1/GPa) = 0.01919486
#
# Stress axis : x y z
#
# Youngs Moduli (GPa) = 56.60444 140.78072 90.79807
#
# Poissons Ratio (x) = 0.69408 0.44115
# Poissons Ratio (y) = 0.27907 -0.13571
# Poissons Ratio (z) = 0.27502 -0.21042
#
# Static dielectric constant tensor:
#      x y z
#    x 1.965830 0.000000 0.000000 
#    y 0.000000 1.495670 0.000000 
#    z 0.000000 0.000000 2.001640 
# 
# From -- ./inp_files/10943.got.cif
#   From: 2010.05.17/outbox.cif.g08.bks.cpg/sg62_6_cif.got.tgz:10943.got - 2010.06.03 15:25:27.
