data_PCOD9466586
_publ_section_title
;
Structure prediction by ZEFSAII (Michael W. Deem and Ramdas Pophale) SiO2 
 PCOD9466586
Probable space group: P N M A
;
_chemical_formula_sum "Si O2"
_cell_formula_units_Z 40
_cell_length_a 7.878175
_cell_length_b 23.159858
_cell_length_c 9.557947
_cell_angle_alpha 90.000000
_cell_angle_beta 90.000000
_cell_angle_gamma 90.000000
_cell_volume 1743.918296
_symmetry_space_group_name_H-M "P N M A"
_symmetry_group_IT_number 62
_symmetry_cell_setting 'orthorhombic'
loop_
_space_group_symop_operation_xyz
x,y,z
1/2-x,-y,1/2+z
1/2+x,1/2-y,1/2-z
-x,1/2+y,-z
-x,-y,-z
1/2+x,y,1/2-z
1/2-x,1/2+y,1/2+z
x,1/2-y,z
loop_
_atom_site_type_symbol
_atom_site_label
_atom_site_fract_x
_atom_site_fract_y
_atom_site_fract_z
Si Si1 0.843152 0.906181 0.033433
Si Si2 0.019684 0.112081 0.687588
Si Si3 0.140007 0.182773 0.444357
Si Si4 0.149293 0.507641 0.610565
Si Si5 0.059940 0.877560 0.782592
O O1 0.660977 0.893357 0.107381
O O2 0.982821 0.885794 0.145354
O O3 0.812842 0.971864 0.976948
O O4 0.898741 0.877242 0.887570
O O5 0.106308 0.163969 0.603658
O O6 0.141937 0.055360 0.675138
O O7 0.176703 0.250000 0.432839
O O8 0.286984 0.143889 0.377748
O O9 0.980804 0.164578 0.346591
O O10 0.000000 0.500000 0.500000
O O11 0.097479 0.558615 0.718214
#
# Coordination Sequence:
#
# PCOD9466586 Si02
#       5
#     8   8   8   8   8
#     4  11  24  42  68 104 138 181 221 290 352 417
#     4  11  25  44  65 105 144 181 232 279 361 420
#     4  12  25  46  69  98 138 189 240 290 347 424
#     4  10  22  39  68 103 142 176 226 285 360 416
#     4  12  23  44  72 102 140 180 239 297 350 417
#
# _framework density 22.936854
#
# number of rings (size 3 to 8) (size 9 to 14) (size 15 to 20)
#    0.000    0.800    6.000    1.800    8.400    0.800 
#    0.000    6.000    0.000    0.000    0.000    0.000 
#    0.000    0.000    0.000    0.000    0.000    0.000 
#
# Total GULP energy -223048.484215 kJ/mol
# GULP energy per Si atom -5576.212105 kJ/mol
# Density = 2.288465 g / cm^3
# Si number density = 22.936854 Si / 1000 Ang^3
#
#
#
# Elastic Constant Matrix: (Units=GPa)
#
#
# Indices 1 2 3 4 5 6 
#
# 1 91.1510 14.2206 31.5171 0.0000 0.0000 0.0000
# 2 14.2206 80.4227 42.7854 0.0000 0.0000 0.0000
# 3 31.5171 42.7854 153.7409 0.0000 0.0000 0.0000
# 4 0.0000 0.0000 0.0000 26.2741 0.0000 0.0000
# 5 0.0000 0.0000 0.0000 0.0000 40.7310 0.0000
# 6 0.0000 0.0000 0.0000 0.0000 0.0000 15.1563
#
#
#
# Elastic Compliance Matrix: (Units=1/GPa)
#
#
# Indices 1 2 3 4 5 6 
#
# 1 0.011869 -0.000944 -0.002170 0.000000 0.000000 0.000000
# 2 -0.000944 0.014670 -0.003889 0.000000 0.000000 0.000000
# 3 -0.002170 -0.003889 0.008032 0.000000 0.000000 0.000000
# 4 0.000000 0.000000 0.000000 0.038060 0.000000 0.000000
# 5 0.000000 0.000000 0.000000 0.000000 0.024551 0.000000
# 6 0.000000 0.000000 0.000000 0.000000 0.000000 0.065979
#
#
# Mechanical properties :
#
#
# Convention : Reuss Voigt Hill
#
# Bulk Modulus (GPa) = 48.62981 55.81787 52.22384
# Shear Modulus (GPa) = 27.17055 32.21837 29.69446
#
# Velocity S-wave (km/s) = 3.44551 3.75194 3.60198
# Velocity P-wave (km/s) = 6.08903 6.56945 6.33380
#
# Compressibility (1/GPa) = 0.02056352
#
# Stress axis : x y z
#
# Youngs Moduli (GPa) = 84.25648 68.16499 124.50638
#
# Poissons Ratio (x) = 0.06435 0.27022
# Poissons Ratio (y) = 0.07954 0.48423
# Poissons Ratio (z) = 0.18287 0.26510
#
# Static dielectric constant tensor:
#      x y z
#    x 1.897850 0.000000 0.000000 
#    y 0.000000 1.829610 0.000000 
#    z 0.000000 0.000000 2.177050 
# 
# From -- ./inp_files/4266.got.cif
#   From: 2010.05.17/outbox.cif.g08.bks.cpg/sg62_3_cif.got.tgz:4266.got - 2010.06.03 15:25:27.
