data_PCOD9466630
_publ_section_title
;
Structure prediction by ZEFSAII (Michael W. Deem and Ramdas Pophale) SiO2 
 PCOD9466630
Probable space group: P N M A
;
_chemical_formula_sum "Si O2"
_cell_formula_units_Z 48
_cell_length_a 29.028673
_cell_length_b 8.086539
_cell_length_c 9.595564
_cell_angle_alpha 90.000000
_cell_angle_beta 90.000000
_cell_angle_gamma 90.000000
_cell_volume 2252.477052
_symmetry_space_group_name_H-M "P N M A"
_symmetry_group_IT_number 62
_symmetry_cell_setting 'orthorhombic'
loop_
_space_group_symop_operation_xyz
x,y,z
1/2-x,-y,1/2+z
1/2+x,1/2-y,1/2-z
-x,1/2+y,-z
-x,-y,-z
1/2+x,y,1/2-z
1/2-x,1/2+y,1/2+z
x,1/2-y,z
loop_
_atom_site_type_symbol
_atom_site_label
_atom_site_fract_x
_atom_site_fract_y
_atom_site_fract_z
Si Si1 0.044137 0.941635 0.087315
Si Si2 0.859831 0.942062 0.018919
Si Si3 0.696298 0.949703 0.989735
Si Si4 0.781924 0.550104 0.804840
Si Si5 0.009499 0.948909 0.656880
Si Si6 0.386554 0.444921 0.184653
O O1 0.053215 0.750000 0.056495
O O2 0.089553 0.040271 0.046839
O O3 0.028554 0.969180 0.245064
O O4 0.000000 0.000000 0.000000
O O5 0.849406 0.750000 0.045532
O O6 0.822915 0.006855 0.907674
O O7 0.861444 0.030572 0.167803
O O8 0.695303 0.750000 0.983579
O O9 0.734613 0.005956 0.877827
O O10 0.646421 0.012272 0.937252
O O11 0.710076 0.995838 0.146409
O O12 0.782185 0.750000 0.804209
O O13 0.007071 0.750000 0.675525
O O14 0.061264 0.009936 0.694176
O O15 0.000000 0.000000 0.500000
O O16 0.392027 0.250000 0.158847
#
# Coordination Sequence:
#
# PCOD9466630 Si02
#       6
#     8   8   8   8   8   8
#     4  12  24  41  64  91 123 164 209 256 306 366
#     4  11  23  39  62  92 124 162 206 253 307 367
#     4  10  22  41  64  91 124 160 202 250 305 368
#     4  10  23  41  62  93 126 157 201 252 303 364
#     4  11  24  41  61  90 127 166 208 255 306 365
#     4  10  22  40  62  89 121 162 208 252 303 366
#
# _framework density 21.309871000000001
#
# number of rings (size 3 to 8) (size 9 to 14) (size 15 to 20)
#    0.000    1.333    1.667    3.500    2.333    3.333 
#    0.000    0.000    0.000    0.000    0.000    0.000 
#    0.000    0.000    0.000    0.000    0.000    0.000 
#
# Total GULP energy -268351.695534 kJ/mol
# GULP energy per Si atom -5590.660324 kJ/mol
# Density = 2.126137 g / cm^3
# Si number density = 21.309871 Si / 1000 Ang^3
#
#
#
# Elastic Constant Matrix: (Units=GPa)
#
#
# Indices 1 2 3 4 5 6 
#
# 1 71.1841 -4.1413 5.5505 0.0000 0.0000 0.0000
# 2 -4.1413 19.8288 -20.1595 0.0000 0.0000 0.0000
# 3 5.5505 -20.1595 92.2170 0.0000 0.0000 0.0000
# 4 0.0000 0.0000 0.0000 37.9199 0.0000 0.0000
# 5 0.0000 0.0000 0.0000 0.0000 43.3197 0.0000
# 6 0.0000 0.0000 0.0000 0.0000 0.0000 15.6616
#
#
#
# Elastic Compliance Matrix: (Units=1/GPa)
#
#
# Indices 1 2 3 4 5 6 
#
# 1 0.014226 0.002701 -0.000266 0.000000 0.000000 0.000000
# 2 0.002701 0.065356 0.014125 0.000000 0.000000 0.000000
# 3 -0.000266 0.014125 0.013948 0.000000 0.000000 0.000000
# 4 0.000000 0.000000 0.000000 0.026371 0.000000 0.000000
# 5 0.000000 0.000000 0.000000 0.000000 0.023084 0.000000
# 6 0.000000 0.000000 0.000000 0.000000 0.000000 0.063851
#
#
# Mechanical properties :
#
#
# Convention : Reuss Voigt Hill
#
# Bulk Modulus (GPa) = 7.89577 16.19216 12.04397
# Shear Modulus (GPa) = 23.15533 32.84558 28.00046
#
# Velocity S-wave (km/s) = 3.29994 3.93024 3.62880
# Velocity P-wave (km/s) = 4.26998 5.31137 4.81889
#
# Compressibility (1/GPa) = 0.12665005
#
# Stress axis : x y z
#
# Youngs Moduli (GPa) = 70.29420 15.30072 71.69577
#
# Poissons Ratio (x) = -0.04133 0.01906
# Poissons Ratio (y) = -0.18985 -1.01270
# Poissons Ratio (z) = 0.01869 -0.21612
#
# Static dielectric constant tensor:
#      x y z
#    x 1.789140 0.000000 0.000000 
#    y 0.000000 1.779220 0.000000 
#    z 0.000000 0.000000 2.005140 
# 
# From -- ./inp_files/10279.got.cif
#   From: 2010.05.17/outbox.cif.g08.bks.cpg/sg62_6_cif.got.tgz:10279.got - 2010.06.03 15:25:27.
