data_PCOD9466771
_publ_section_title
;
Structure prediction by ZEFSAII (Michael W. Deem and Ramdas Pophale) SiO2 
 PCOD9466771
Probable space group: P N M A
;
_chemical_formula_sum "Si O2"
_cell_formula_units_Z 40
_cell_length_a 9.602877
_cell_length_b 13.939611
_cell_length_c 11.143798
_cell_angle_alpha 90.000000
_cell_angle_beta 90.000000
_cell_angle_gamma 90.000000
_cell_volume 1491.712922
_symmetry_space_group_name_H-M "P N M A"
_symmetry_group_IT_number 62
_symmetry_cell_setting 'orthorhombic'
loop_
_space_group_symop_operation_xyz
x,y,z
1/2-x,-y,1/2+z
1/2+x,1/2-y,1/2-z
-x,1/2+y,-z
-x,-y,-z
1/2+x,y,1/2-z
1/2-x,1/2+y,1/2+z
x,1/2-y,z
loop_
_atom_site_type_symbol
_atom_site_label
_atom_site_fract_x
_atom_site_fract_y
_atom_site_fract_z
Si Si1 0.017984 0.134947 0.360236
Si Si2 0.333565 0.365203 0.370490
Si Si3 0.346773 0.047148 0.620649
Si Si4 0.753840 0.140136 0.489032
Si Si5 0.100652 0.138556 0.755751
O O1 0.035507 0.250000 0.353110
O O2 0.923440 0.108607 0.245527
O O3 0.918253 0.117689 0.474861
O O4 0.174573 0.096581 0.362612
O O5 0.334207 0.250000 0.379424
O O6 0.677687 0.435814 0.404611
O O7 0.199380 0.094387 0.655425
O O8 0.460037 0.081931 0.715946
O O9 0.391342 0.092555 0.493451
O O10 0.732970 0.250000 0.445508
O O11 0.692139 0.134255 0.621598
O O12 0.068869 0.250000 0.730284
#
# Coordination Sequence:
#
# PCOD9466771 Si02
#       5
#     8   8   8   8   8
#     4   9  21  40  67 101 144 189 241 307 374 438
#     4  10  22  41  69 107 146 192 248 309 375 448
#     4  12  27  46  78 110 150 204 257 306 378 459
#     4  10  25  48  75 106 149 198 253 315 375 441
#     4  11  26  49  75 110 156 203 252 313 378 450
#
# _framework density 26.814810000000001
#
# number of rings (size 3 to 8) (size 9 to 14) (size 15 to 20)
#    0.000    1.600    0.000    2.400    8.400    2.400 
#    0.000    3.000    0.000    0.000    0.000    0.000 
#    0.000    0.000    0.000    0.000    0.000    0.000 
#
# Total GULP energy -224658.433548 kJ/mol
# GULP energy per Si atom -5616.460839 kJ/mol
# Density = 2.675378 g / cm^3
# Si number density = 26.814810 Si / 1000 Ang^3
#
#
#
# Elastic Constant Matrix: (Units=GPa)
#
#
# Indices 1 2 3 4 5 6 
#
# 1 165.6379 41.0691 19.8648 0.0000 0.0000 0.0000
# 2 41.0691 163.0899 19.4127 0.0000 0.0000 0.0000
# 3 19.8648 19.4127 69.9319 0.0000 0.0000 0.0000
# 4 0.0000 0.0000 0.0000 23.0047 0.0000 0.0000
# 5 0.0000 0.0000 0.0000 0.0000 41.9364 0.0000
# 6 0.0000 0.0000 0.0000 0.0000 0.0000 33.6353
#
#
#
# Elastic Compliance Matrix: (Units=1/GPa)
#
#
# Indices 1 2 3 4 5 6 
#
# 1 0.006580 -0.001483 -0.001457 0.000000 0.000000 0.000000
# 2 -0.001483 0.006676 -0.001432 0.000000 0.000000 0.000000
# 3 -0.001457 -0.001432 0.015111 0.000000 0.000000 0.000000
# 4 0.000000 0.000000 0.000000 0.043469 0.000000 0.000000
# 5 0.000000 0.000000 0.000000 0.000000 0.023846 0.000000
# 6 0.000000 0.000000 0.000000 0.000000 0.000000 0.029731
#
#
# Mechanical properties :
#
#
# Convention : Reuss Voigt Hill
#
# Bulk Modulus (GPa) = 50.96438 62.15033 56.55735
# Shear Modulus (GPa) = 35.53723 40.93615 38.23669
#
# Velocity S-wave (km/s) = 3.64439 3.91144 3.78028
# Velocity P-wave (km/s) = 6.06268 6.60508 6.33969
#
# Compressibility (1/GPa) = 0.01962155
#
# Stress axis : x y z
#
# Youngs Moduli (GPa) = 151.97905 149.79997 66.17694
#
# Poissons Ratio (x) = 0.22222 0.09644
# Poissons Ratio (y) = 0.22546 0.09475
# Poissons Ratio (z) = 0.22147 0.21447
#
# Static dielectric constant tensor:
#      x y z
#    x 2.088390 0.000000 0.000000 
#    y 0.000000 2.057230 0.000000 
#    z 0.000000 0.000000 2.075020 
# 
# From -- ./inp_files/16651.got.cif
#   From: 2010.05.17/outbox.cif.g08.bks.cpg/sg62_9_cif.got.tgz:16651.got - 2010.06.03 15:25:27.
