data_PCOD9466656
_publ_section_title
;
Structure prediction by ZEFSAII (Michael W. Deem and Ramdas Pophale) SiO2 
 PCOD9466656
Probable space group: P N M A
;
_chemical_formula_sum "Si O2"
_cell_formula_units_Z 40
_cell_length_a 4.952147
_cell_length_b 17.853760
_cell_length_c 17.633497
_cell_angle_alpha 90.000000
_cell_angle_beta 90.000000
_cell_angle_gamma 90.000000
_cell_volume 1559.055833
_symmetry_space_group_name_H-M "P N M A"
_symmetry_group_IT_number 62
_symmetry_cell_setting 'orthorhombic'
loop_
_space_group_symop_operation_xyz
x,y,z
1/2-x,-y,1/2+z
1/2+x,1/2-y,1/2-z
-x,1/2+y,-z
-x,-y,-z
1/2+x,y,1/2-z
1/2-x,1/2+y,1/2+z
x,1/2-y,z
loop_
_atom_site_type_symbol
_atom_site_label
_atom_site_fract_x
_atom_site_fract_y
_atom_site_fract_z
Si Si1 0.478769 0.976537 0.587678
Si Si2 0.947889 0.750000 0.699343
Si Si3 0.034991 0.250000 0.702365
Si Si4 0.125668 0.414473 0.305714
Si Si5 0.256989 0.837048 0.517325
Si Si6 0.737256 0.127356 0.912778
O O1 0.764213 0.967983 0.628790
O O2 0.344067 0.894600 0.583277
O O3 0.500000 0.000000 0.500000
O O4 0.312099 0.046049 0.619729
O O5 0.259124 0.750000 0.724704
O O6 0.870190 0.828866 0.662979
O O7 0.221145 0.250000 0.777128
O O8 0.122169 0.320899 0.653044
O O9 0.849690 0.423604 0.260557
O O10 0.219458 0.750000 0.539167
O O11 0.494634 0.840569 0.453868
O O12 0.991110 0.870447 0.477686
#
# Coordination Sequence:
#
# PCOD9466656 Si02
#       6
#     8   4   4   8   8   8
#     4  10  25  42  69 102 136 175 225 280 341 401
#     4   8  16  34  56  84 118 162 208 256 306 392
#     4  12  24  40  66  94 128 182 232 272 330 398
#     4  10  22  40  64  92 133 172 215 264 333 396
#     4  11  21  41  68  92 128 170 215 273 340 393
#     4  11  23  43  61  93 134 168 217 283 328 390
#
# _framework density 25.656552999999999
#
# number of rings (size 3 to 8) (size 9 to 14) (size 15 to 20)
#    0.000    1.600    2.000    1.800    1.400    8.000 
#    0.000    0.000    0.000    0.000    0.000    0.000 
#    0.000    0.000    0.000    0.000    0.000    0.000 
#
# Total GULP energy -224173.354515 kJ/mol
# GULP energy per Si atom -5604.333863 kJ/mol
# Density = 2.559816 g / cm^3
# Si number density = 25.656553 Si / 1000 Ang^3
#
#
#
# Elastic Constant Matrix: (Units=GPa)
#
#
# Indices 1 2 3 4 5 6 
#
# 1 101.6859 6.5316 14.3959 0.0000 0.0000 0.0000
# 2 6.5316 125.9806 9.5097 0.0000 0.0000 0.0000
# 3 14.3959 9.5097 81.1646 0.0000 0.0000 0.0000
# 4 0.0000 0.0000 0.0000 40.1464 0.0000 0.0000
# 5 0.0000 0.0000 0.0000 0.0000 52.2808 0.0000
# 6 0.0000 0.0000 0.0000 0.0000 0.0000 35.8172
#
#
#
# Elastic Compliance Matrix: (Units=1/GPa)
#
#
# Indices 1 2 3 4 5 6 
#
# 1 0.010107 -0.000392 -0.001747 0.000000 0.000000 0.000000
# 2 -0.000392 0.008024 -0.000871 0.000000 0.000000 0.000000
# 3 -0.001747 -0.000871 0.012732 0.000000 0.000000 0.000000
# 4 0.000000 0.000000 0.000000 0.024909 0.000000 0.000000
# 5 0.000000 0.000000 0.000000 0.000000 0.019127 0.000000
# 6 0.000000 0.000000 0.000000 0.000000 0.000000 0.027920
#
#
# Mechanical properties :
#
#
# Convention : Reuss Voigt Hill
#
# Bulk Modulus (GPa) = 40.25083 41.07837 40.66460
# Shear Modulus (GPa) = 42.69168 44.20847 43.45008
#
# Velocity S-wave (km/s) = 4.08360 4.15551 4.11971
# Velocity P-wave (km/s) = 6.16091 6.25060 6.20592
#
# Compressibility (1/GPa) = 0.02484421
#
# Stress axis : x y z
#
# Youngs Moduli (GPa) = 98.94462 124.62960 78.53957
#
# Poissons Ratio (x) = 0.04887 0.13718
# Poissons Ratio (y) = 0.03880 0.06837
# Poissons Ratio (z) = 0.17282 0.10850
#
# Static dielectric constant tensor:
#      x y z
#    x 2.029690 0.000000 0.000000 
#    y 0.000000 2.057120 0.000000 
#    z 0.000000 0.000000 2.040350 
# 
# From -- ./inp_files/21504.got.cif
#   From: 2010.05.17/outbox.cif.g08.bks.cpg/sg62_11_cif.got.tgz:21504.got - 2010.06.03 15:25:27.
