data_PCOD9466726
_publ_section_title
;
Structure prediction by ZEFSAII (Michael W. Deem and Ramdas Pophale) SiO2 
 PCOD9466726
Probable space group: P N M A
;
_chemical_formula_sum "Si O2"
_cell_formula_units_Z 40
_cell_length_a 14.090407
_cell_length_b 8.966331
_cell_length_c 14.419303
_cell_angle_alpha 90.000000
_cell_angle_beta 90.000000
_cell_angle_gamma 90.000000
_cell_volume 1821.723971
_symmetry_space_group_name_H-M "P N M A"
_symmetry_group_IT_number 62
_symmetry_cell_setting 'orthorhombic'
loop_
_space_group_symop_operation_xyz
x,y,z
1/2-x,-y,1/2+z
1/2+x,1/2-y,1/2-z
-x,1/2+y,-z
-x,-y,-z
1/2+x,y,1/2-z
1/2-x,1/2+y,1/2+z
x,1/2-y,z
loop_
_atom_site_type_symbol
_atom_site_label
_atom_site_fract_x
_atom_site_fract_y
_atom_site_fract_z
Si Si1 0.915659 0.928319 0.442274
Si Si2 0.999006 0.426018 0.268474
Si Si3 0.306075 0.075251 0.772221
Si Si4 0.795949 0.425425 0.949919
Si Si5 0.111721 0.073778 0.885000
O O1 0.922929 0.750000 0.441811
O O2 0.811448 0.968437 0.478568
O O3 0.929258 0.990084 0.339027
O O4 0.000000 0.000000 0.500000
O O5 0.986885 0.250000 0.274149
O O6 0.971848 0.486896 0.167200
O O7 0.104892 0.473004 0.297644
O O8 0.329316 0.250000 0.789898
O O9 0.296995 0.056993 0.661007
O O10 0.209197 0.042485 0.827026
O O11 0.810823 0.250000 0.969653
O O12 0.868290 0.519524 0.011073
O O13 0.093085 0.250000 0.881099
#
# Coordination Sequence:
#
# PCOD9466726 Si02
#       5
#     8   8   8   8   8
#     4  11  22  40  64  95 129 165 213 264 320 379
#     4  12  25  40  63  94 128 169 213 263 319 380
#     4  10  22  43  66  89 125 170 214 264 321 378
#     4  10  22  41  64  91 125 165 210 263 317 378
#     4  11  23  42  66  93 126 169 213 263 321 381
#
# _framework density 21.957224
#
# number of rings (size 3 to 8) (size 9 to 14) (size 15 to 20)
#    0.000    1.200    2.000    4.200    0.000    8.000 
#    0.000    0.000    0.000    0.000    0.000    0.000 
#    0.000    0.000    0.000    0.000    0.000    0.000 
#
# Total GULP energy -223866.265956 kJ/mol
# GULP energy per Si atom -5596.656649 kJ/mol
# Density = 2.190725 g / cm^3
# Si number density = 21.957224 Si / 1000 Ang^3
#
#
#
# Elastic Constant Matrix: (Units=GPa)
#
#
# Indices 1 2 3 4 5 6 
#
# 1 45.4325 21.0193 -5.1326 0.0000 0.0000 0.0000
# 2 21.0193 35.3966 7.2803 0.0000 0.0000 0.0000
# 3 -5.1326 7.2803 59.8277 0.0000 0.0000 0.0000
# 4 0.0000 0.0000 0.0000 35.1755 0.0000 0.0000
# 5 0.0000 0.0000 0.0000 0.0000 35.3150 0.0000
# 6 0.0000 0.0000 0.0000 0.0000 0.0000 27.0934
#
#
#
# Elastic Compliance Matrix: (Units=1/GPa)
#
#
# Indices 1 2 3 4 5 6 
#
# 1 0.031829 -0.019962 0.005160 0.000000 0.000000 0.000000
# 2 -0.019962 0.041496 -0.006762 0.000000 0.000000 0.000000
# 3 0.005160 -0.006762 0.017980 0.000000 0.000000 0.000000
# 4 0.000000 0.000000 0.000000 0.028429 0.000000 0.000000
# 5 0.000000 0.000000 0.000000 0.000000 0.028317 0.000000
# 6 0.000000 0.000000 0.000000 0.000000 0.000000 0.036909
#
#
# Mechanical properties :
#
#
# Convention : Reuss Voigt Hill
#
# Bulk Modulus (GPa) = 20.75706 20.77677 20.76691
# Shear Modulus (GPa) = 20.47944 27.34945 23.91444
#
# Velocity S-wave (km/s) = 3.05732 3.53310 3.30379
# Velocity P-wave (km/s) = 4.68368 5.11143 4.90222
#
# Compressibility (1/GPa) = 0.04817639
#
# Stress axis : x y z
#
# Youngs Moduli (GPa) = 31.41791 24.09875 55.61687
#
# Poissons Ratio (x) = 0.48106 -0.28697
# Poissons Ratio (y) = 0.62716 0.37608
# Poissons Ratio (z) = -0.16211 0.16296
#
# Static dielectric constant tensor:
#      x y z
#    x 1.815070 0.000000 0.000000 
#    y 0.000000 1.816830 0.000000 
#    z 0.000000 0.000000 1.976580 
# 
# From -- ./inp_files/18591.got.cif
#   From: 2010.05.17/outbox.cif.g08.bks.cpg/sg62_10_cif.got.tgz:18591.got - 2010.06.03 15:25:27.
