data_PCOD9466910
_publ_section_title
;
Structure prediction by ZEFSAII (Michael W. Deem and Ramdas Pophale) SiO2 
 PCOD9466910
Probable space group: P N M A
;
_chemical_formula_sum "Si O2"
_cell_formula_units_Z 48
_cell_length_a 27.109231
_cell_length_b 14.520631
_cell_length_c 5.974439
_cell_angle_alpha 90.000000
_cell_angle_beta 90.000000
_cell_angle_gamma 90.000000
_cell_volume 2351.796928
_symmetry_space_group_name_H-M "P N M A"
_symmetry_group_IT_number 62
_symmetry_cell_setting 'orthorhombic'
loop_
_space_group_symop_operation_xyz
x,y,z
1/2-x,-y,1/2+z
1/2+x,1/2-y,1/2-z
-x,1/2+y,-z
-x,-y,-z
1/2+x,y,1/2-z
1/2-x,1/2+y,1/2+z
x,1/2-y,z
loop_
_atom_site_type_symbol
_atom_site_label
_atom_site_fract_x
_atom_site_fract_y
_atom_site_fract_z
Si Si1 0.456506 0.067330 0.587630
Si Si2 0.872087 0.050608 0.231942
Si Si3 0.939973 0.750000 0.725838
Si Si4 0.110570 0.063730 0.385955
Si Si5 0.508629 0.250000 0.727936
Si Si6 0.288178 0.140717 0.993051
Si Si7 0.203456 0.495680 0.149738
O O1 0.418254 0.096438 0.392240
O O2 0.478299 0.155995 0.706850
O O3 0.500000 0.000000 0.500000
O O4 0.422316 0.010537 0.756399
O O5 0.841833 0.117032 0.399740
O O6 0.894944 0.961518 0.355768
O O7 0.831195 0.011275 0.063052
O O8 0.907086 0.660117 0.701246
O O9 0.969675 0.750000 0.484277
O O10 0.962717 0.750000 0.980113
O O11 0.167889 0.049656 0.333587
O O12 0.278740 0.250000 0.003982
O O13 0.284920 0.097643 0.743388
O O14 0.248299 0.073913 0.113430
#
# Coordination Sequence:
#
# PCOD9466910 Si02
#       7
#     8   8   4   8   4   8   8
#     4  11  23  44  68  97 139 185 231 289 362 420
#     4  10  23  44  67  92 140 179 232 292 349 433
#     4  12  26  46  70 107 140 182 247 292 366 430
#     4  10  24  43  69  98 138 183 228 295 355 431
#     4  12  28  42  72 103 140 190 237 302 352 442
#     4  11  23  42  69  96 135 183 231 296 368 439
#     4  10  22  45  64 100 134 173 235 297 359 433
#
# _framework density 20.409925000000001
#
# number of rings (size 3 to 8) (size 9 to 14) (size 15 to 20)
#    0.000    1.333    3.333    1.000    7.000    2.000 
#   13.500    0.000    0.000    0.000    0.000    0.000 
#    0.000    0.000    0.000    0.000    0.000    0.000 
#
# Total GULP energy -267469.898023 kJ/mol
# GULP energy per Si atom -5572.289542 kJ/mol
# Density = 2.036347 g / cm^3
# Si number density = 20.409925 Si / 1000 Ang^3
#
#
#
# Elastic Constant Matrix: (Units=GPa)
#
#
# Indices 1 2 3 4 5 6 
#
# 1 80.9588 19.7093 15.4251 0.0000 0.0000 0.0000
# 2 19.7093 114.1971 5.6288 0.0000 0.0000 0.0000
# 3 15.4251 5.6288 65.3638 0.0000 0.0000 0.0000
# 4 0.0000 0.0000 0.0000 33.3675 0.0000 0.0000
# 5 0.0000 0.0000 0.0000 0.0000 29.6847 0.0000
# 6 0.0000 0.0000 0.0000 0.0000 0.0000 28.6057
#
#
#
# Elastic Compliance Matrix: (Units=1/GPa)
#
#
# Indices 1 2 3 4 5 6 
#
# 1 0.013450 -0.002174 -0.002987 0.000000 0.000000 0.000000
# 2 -0.002174 0.009146 -0.000274 0.000000 0.000000 0.000000
# 3 -0.002987 -0.000274 0.016028 0.000000 0.000000 0.000000
# 4 0.000000 0.000000 0.000000 0.029969 0.000000 0.000000
# 5 0.000000 0.000000 0.000000 0.000000 0.033687 0.000000
# 6 0.000000 0.000000 0.000000 0.000000 0.000000 0.034958
#
#
# Mechanical properties :
#
#
# Convention : Reuss Voigt Hill
#
# Bulk Modulus (GPa) = 36.03306 38.00513 37.01910
# Shear Modulus (GPa) = 31.77427 32.98201 32.37814
#
# Velocity S-wave (km/s) = 3.94992 4.02429 3.98727
# Velocity P-wave (km/s) = 6.20447 6.34464 6.27495
#
# Compressibility (1/GPa) = 0.02775229
#
# Stress axis : x y z
#
# Youngs Moduli (GPa) = 74.34749 109.34268 62.39272
#
# Poissons Ratio (x) = 0.23773 0.18636
# Poissons Ratio (y) = 0.16164 0.01713
# Poissons Ratio (z) = 0.22207 0.03001
#
# Static dielectric constant tensor:
#      x y z
#    x 1.729080 0.000000 0.000000 
#    y 0.000000 1.673190 0.000000 
#    z 0.000000 0.000000 1.923920 
# 
# From -- ./inp_files/3215.got.cif
#   From: 2010.05.17/outbox.cif.g08.bks.cpg/sg62_2_cif.got.tgz:3215.got - 2010.06.03 15:25:27.
