data_PCOD9466629
_publ_section_title
;
Structure prediction by ZEFSAII (Michael W. Deem and Ramdas Pophale) SiO2 
 PCOD9466629
Probable space group: P N M A
;
_chemical_formula_sum "Si O2"
_cell_formula_units_Z 48
_cell_length_a 9.780909
_cell_length_b 7.665948
_cell_length_c 25.775389
_cell_angle_alpha 90.000000
_cell_angle_beta 90.000000
_cell_angle_gamma 90.000000
_cell_volume 1932.637115
_symmetry_space_group_name_H-M "P N M A"
_symmetry_group_IT_number 62
_symmetry_cell_setting 'orthorhombic'
loop_
_space_group_symop_operation_xyz
x,y,z
1/2-x,-y,1/2+z
1/2+x,1/2-y,1/2-z
-x,1/2+y,-z
-x,-y,-z
1/2+x,y,1/2-z
1/2-x,1/2+y,1/2+z
x,1/2-y,z
loop_
_atom_site_type_symbol
_atom_site_label
_atom_site_fract_x
_atom_site_fract_y
_atom_site_fract_z
Si Si1 0.541432 0.964085 0.310957
Si Si2 0.283369 0.036090 0.035115
Si Si3 0.944673 0.451434 0.362149
Si Si4 0.310022 0.048911 0.922991
Si Si5 0.693054 0.049723 0.757634
Si Si6 0.000951 0.048768 0.074569
O O1 0.544053 0.750000 0.312862
O O2 0.661893 0.026186 0.273272
O O3 0.397730 0.026220 0.288050
O O4 0.564669 0.034030 0.368004
O O5 0.282797 0.250000 0.034302
O O6 0.365646 0.982036 0.086251
O O7 0.124000 0.979966 0.038754
O O8 0.343703 0.975163 0.980288
O O9 0.906451 0.250000 0.354557
O O10 0.104048 0.461583 0.377445
O O11 0.898220 0.546645 0.310120
O O12 0.350790 0.250000 0.920925
O O13 0.145836 0.040757 0.920743
O O14 0.719054 0.250000 0.742740
O O15 0.976533 0.250000 0.061858
#
# Coordination Sequence:
#
# PCOD9466629 Si02
#       6
#     8   8   8   8   8   8
#     4  10  22  40  62  89 120 158 200 243 294 357
#     4   9  20  39  62  87 122 159 200 249 300 355
#     4  11  22  40  62  90 124 159 199 251 305 355
#     4  11  23  39  60  89 122 163 206 247 294 357
#     4  10  22  40  62  89 120 158 200 243 294 357
#     4  11  22  40  62  90 124 159 199 251 305 355
#
# _framework density 24.836531999999998
#
# number of rings (size 3 to 8) (size 9 to 14) (size 15 to 20)
#    0.000    1.667    1.667    2.500    2.333    0.667 
#    0.000    5.000    0.000    0.000    0.000    0.000 
#    0.000    0.000    0.000    0.000    0.000    0.000 
#
# Total GULP energy -268535.649223 kJ/mol
# GULP energy per Si atom -5594.492692 kJ/mol
# Density = 2.478000 g / cm^3
# Si number density = 24.836532 Si / 1000 Ang^3
#
#
#
# Elastic Constant Matrix: (Units=GPa)
#
#
# Indices 1 2 3 4 5 6 
#
# 1 92.3748 -1.1794 -9.7717 0.0000 0.0000 0.0000
# 2 -1.1794 67.0280 -6.4784 0.0000 0.0000 0.0000
# 3 -9.7717 -6.4784 19.9377 0.0000 0.0000 0.0000
# 4 0.0000 0.0000 0.0000 16.9700 0.0000 0.0000
# 5 0.0000 0.0000 0.0000 0.0000 50.7681 0.0000
# 6 0.0000 0.0000 0.0000 0.0000 0.0000 16.9143
#
#
#
# Elastic Compliance Matrix: (Units=1/GPa)
#
#
# Indices 1 2 3 4 5 6 
#
# 1 0.011456 0.000768 0.005864 0.000000 0.000000 0.000000
# 2 0.000768 0.015454 0.005398 0.000000 0.000000 0.000000
# 3 0.005864 0.005398 0.054784 0.000000 0.000000 0.000000
# 4 0.000000 0.000000 0.000000 0.058927 0.000000 0.000000
# 5 0.000000 0.000000 0.000000 0.000000 0.019697 0.000000
# 6 0.000000 0.000000 0.000000 0.000000 0.000000 0.059121
#
#
# Mechanical properties :
#
#
# Convention : Reuss Voigt Hill
#
# Bulk Modulus (GPa) = 9.45575 16.05351 12.75463
# Shear Modulus (GPa) = 21.67964 30.04850 25.86407
#
# Velocity S-wave (km/s) = 2.95768 3.48206 3.23053
# Velocity P-wave (km/s) = 3.93437 4.75858 4.36597
#
# Compressibility (1/GPa) = 0.10575575
#
# Stress axis : x y z
#
# Youngs Moduli (GPa) = 87.29353 64.70650 18.25339
#
# Poissons Ratio (x) = -0.04972 -0.10704
# Poissons Ratio (y) = -0.06707 -0.09854
# Poissons Ratio (z) = -0.51190 -0.34930
#
# Static dielectric constant tensor:
#      x y z
#    x 2.013180 0.000000 0.000000 
#    y 0.000000 1.899620 0.000000 
#    z 0.000000 0.000000 1.948570 
# 
# From -- ./inp_files/31986.got.cif
#   From: 2010.05.17/outbox.cif.g08.bks.cpg/sg62_16_cif.got.tgz:31986.got - 2010.06.03 15:25:27.
