data_PCOD9466386
_publ_section_title
;
Structure prediction by ZEFSAII (Michael W. Deem and Ramdas Pophale) SiO2 
 PCOD9466386
Probable space group: P N M A
;
_chemical_formula_sum "Si O2"
_cell_formula_units_Z 56
_cell_length_a 11.231337
_cell_length_b 18.650340
_cell_length_c 12.310477
_cell_angle_alpha 90.000000
_cell_angle_beta 90.000000
_cell_angle_gamma 90.000000
_cell_volume 2578.654119
_symmetry_space_group_name_H-M "P N M A"
_symmetry_group_IT_number 62
_symmetry_cell_setting 'orthorhombic'
loop_
_space_group_symop_operation_xyz
x,y,z
1/2-x,-y,1/2+z
1/2+x,1/2-y,1/2-z
-x,1/2+y,-z
-x,-y,-z
1/2+x,y,1/2-z
1/2-x,1/2+y,1/2+z
x,1/2-y,z
loop_
_atom_site_type_symbol
_atom_site_label
_atom_site_fract_x
_atom_site_fract_y
_atom_site_fract_z
Si Si1 0.917555 0.947989 0.749458
Si Si2 0.899125 0.664459 0.370675
Si Si3 0.332940 0.028029 0.345886
Si Si4 0.065140 0.333274 0.872218
Si Si5 0.803898 0.587097 0.966916
Si Si6 0.163658 0.837294 0.990786
Si Si7 0.967842 0.079823 0.460733
O O1 0.793818 0.987703 0.714380
O O2 0.883541 0.908727 0.860301
O O3 0.044650 0.984976 0.779092
O O4 0.951698 0.902318 0.643284
O O5 0.906932 0.750000 0.371026
O O6 0.903778 0.638653 0.246813
O O7 0.778750 0.646366 0.435224
O O8 0.005313 0.630909 0.439114
O O9 0.332306 0.111510 0.385281
O O10 0.334799 0.980550 0.455735
O O11 0.040993 0.250000 0.857875
O O12 0.949273 0.361008 0.935755
O O13 0.173180 0.346842 0.953534
O O14 0.668993 0.582013 0.930517
O O15 0.158715 0.750000 0.970147
O O16 0.000000 0.000000 0.500000
#
# Coordination Sequence:
#
# PCOD9466386 Si02
#       7
#     8   8   8   8   8   8   8
#     4  12  25  44  67  97 134 167 224 275 325 395
#     4  10  23  42  67  97 133 176 218 272 336 394
#     4  12  25  45  67  97 133 174 224 266 332 402
#     4  10  24  42  64  99 133 169 223 275 328 395
#     4  12  26  41  70  95 130 180 215 275 334 390
#     4  10  21  42  65  91 131 174 216 268 327 389
#     4  12  25  43  65  98 135 171 219 278 334 401
#
# _framework density 21.716756
#
# number of rings (size 3 to 8) (size 9 to 14) (size 15 to 20)
#    0.000    0.857    5.714    0.429    4.000    1.714 
#    0.000    2.857    0.000    0.000    0.000    0.000 
#    0.000    0.000    0.000    0.000    0.000    0.000 
#
# Total GULP energy -312650.999654 kJ/mol
# GULP energy per Si atom -5583.053565 kJ/mol
# Density = 2.166733 g / cm^3
# Si number density = 21.716756 Si / 1000 Ang^3
#
#
#
# Elastic Constant Matrix: (Units=GPa)
#
#
# Indices 1 2 3 4 5 6 
#
# 1 143.6961 13.1196 34.4968 0.0000 0.0000 0.0000
# 2 13.1196 17.3958 5.8153 0.0000 0.0000 0.0000
# 3 34.4968 5.8153 127.1418 0.0000 0.0000 0.0000
# 4 0.0000 0.0000 0.0000 10.4033 0.0000 0.0000
# 5 0.0000 0.0000 0.0000 0.0000 35.9233 0.0000
# 6 0.0000 0.0000 0.0000 0.0000 0.0000 21.2904
#
#
#
# Elastic Compliance Matrix: (Units=1/GPa)
#
#
# Indices 1 2 3 4 5 6 
#
# 1 0.007901 -0.005324 -0.001900 0.000000 0.000000 0.000000
# 2 -0.005324 0.061965 -0.001390 0.000000 0.000000 0.000000
# 3 -0.001900 -0.001390 0.008444 0.000000 0.000000 0.000000
# 4 0.000000 0.000000 0.000000 0.096124 0.000000 0.000000
# 5 0.000000 0.000000 0.000000 0.000000 0.027837 0.000000
# 6 0.000000 0.000000 0.000000 0.000000 0.000000 0.046969
#
#
# Mechanical properties :
#
#
# Convention : Reuss Voigt Hill
#
# Bulk Modulus (GPa) = 16.37121 43.89966 30.13544
# Shear Modulus (GPa) = 17.43195 29.17687 23.30441
#
# Velocity S-wave (km/s) = 2.83626 3.66938 3.27939
# Velocity P-wave (km/s) = 4.27560 6.18151 5.31468
#
# Compressibility (1/GPa) = 0.06108285
#
# Stress axis : x y z
#
# Youngs Moduli (GPa) = 126.55955 16.13821 118.42156
#
# Poissons Ratio (x) = 0.08592 0.22504
# Poissons Ratio (y) = 0.67378 0.16457
# Poissons Ratio (z) = 0.24051 0.02243
#
# Static dielectric constant tensor:
#      x y z
#    x 1.831120 0.000000 0.000000 
#    y 0.000000 1.789150 0.000000 
#    z 0.000000 0.000000 1.794410 
# 
# From -- ./inp_files/12426.got.cif
#   From: 2010.05.17/outbox.cif.g08.bks.cpg/sg62_7_cif.got.tgz:12426.got - 2010.06.03 15:25:27.
