data_PCOD9466932
_publ_section_title
;
Structure prediction by ZEFSAII (Michael W. Deem and Ramdas Pophale) SiO2 
 PCOD9466932
Probable space group: P N M A
;
_chemical_formula_sum "Si O2"
_cell_formula_units_Z 40
_cell_length_a 9.399404
_cell_length_b 7.505450
_cell_length_c 26.507048
_cell_angle_alpha 90.000000
_cell_angle_beta 90.000000
_cell_angle_gamma 90.000000
_cell_volume 1869.986267
_symmetry_space_group_name_H-M "P N M A"
_symmetry_group_IT_number 62
_symmetry_cell_setting 'orthorhombic'
loop_
_space_group_symop_operation_xyz
x,y,z
1/2-x,-y,1/2+z
1/2+x,1/2-y,1/2-z
-x,1/2+y,-z
-x,-y,-z
1/2+x,y,1/2-z
1/2-x,1/2+y,1/2+z
x,1/2-y,z
loop_
_atom_site_type_symbol
_atom_site_label
_atom_site_fract_x
_atom_site_fract_y
_atom_site_fract_z
Si Si1 0.996817 0.750000 0.684269
Si Si2 0.331154 0.965149 0.128008
Si Si3 0.088691 0.961988 0.949631
Si Si4 0.339210 0.538362 0.012911
Si Si5 0.662897 0.750000 0.711923
Si Si6 0.481342 0.050811 0.658171
O O1 0.039299 0.576570 0.651293
O O2 0.105355 0.750000 0.731240
O O3 0.832883 0.750000 0.702666
O O4 0.352848 0.750000 0.129077
O O5 0.307818 0.024008 0.069738
O O6 0.184571 0.004670 0.157880
O O7 0.089516 0.750000 0.939253
O O8 0.025582 0.051877 0.900575
O O9 0.242893 0.028917 0.967082
O O10 0.000000 0.000000 0.000000
O O11 0.313296 0.750000 0.014330
O O12 0.500000 0.500000 0.000000
O O13 0.588179 0.580237 0.685887
O O14 0.490970 0.250000 0.679124
#
# Coordination Sequence:
#
# PCOD9466932 Si02
#       6
#     4   8   8   8   4   8
#     4  12  28  48  78  96 136 174 226 288 359 404
#     4  10  23  44  68 100 138 180 226 280 340 405
#     4  11  21  36  60  95 136 183 231 269 322 398
#     4  10  23  37  56  91 137 178 223 268 324 393
#     4  12  28  50  72 106 128 174 230 288 349 422
#     4  11  23  43  70 100 139 179 229 284 338 407
#
# _framework density 21.390532
#
# number of rings (size 3 to 8) (size 9 to 14) (size 15 to 20)
#    0.000    1.200    3.000    2.400    4.200    3.200 
#    0.000    0.000    0.000    0.000    0.000    0.000 
#    0.000    0.000    0.000    0.000    0.000    0.000 
#
# Total GULP energy -223566.230943 kJ/mol
# GULP energy per Si atom -5589.155774 kJ/mol
# Density = 2.134185 g / cm^3
# Si number density = 21.390532 Si / 1000 Ang^3
#
#
#
# Elastic Constant Matrix: (Units=GPa)
#
#
# Indices 1 2 3 4 5 6 
#
# 1 118.5752 31.9217 -3.4197 0.0000 0.0000 0.0000
# 2 31.9217 94.6301 16.8857 0.0000 0.0000 0.0000
# 3 -3.4197 16.8857 53.7376 0.0000 0.0000 0.0000
# 4 0.0000 0.0000 0.0000 20.0667 0.0000 0.0000
# 5 0.0000 0.0000 0.0000 0.0000 38.8137 0.0000
# 6 0.0000 0.0000 0.0000 0.0000 0.0000 29.8086
#
#
#
# Elastic Compliance Matrix: (Units=1/GPa)
#
#
# Indices 1 2 3 4 5 6 
#
# 1 0.009419 -0.003479 0.001693 0.000000 0.000000 0.000000
# 2 -0.003479 0.012480 -0.004143 0.000000 0.000000 0.000000
# 3 0.001693 -0.004143 0.020019 0.000000 0.000000 0.000000
# 4 0.000000 0.000000 0.000000 0.049834 0.000000 0.000000
# 5 0.000000 0.000000 0.000000 0.000000 0.025764 0.000000
# 6 0.000000 0.000000 0.000000 0.000000 0.000000 0.033547
#
#
# Mechanical properties :
#
#
# Convention : Reuss Voigt Hill
#
# Bulk Modulus (GPa) = 33.26850 39.74646 36.50748
# Shear Modulus (GPa) = 28.91138 32.50813 30.70975
#
# Velocity S-wave (km/s) = 3.68040 3.90262 3.79313
# Velocity P-wave (km/s) = 5.80061 6.23930 6.02395
#
# Compressibility (1/GPa) = 0.03005847
#
# Stress axis : x y z
#
# Youngs Moduli (GPa) = 106.16879 80.12532 49.95369
#
# Poissons Ratio (x) = 0.27878 -0.08456
# Poissons Ratio (y) = 0.36940 0.20696
# Poissons Ratio (z) = -0.17971 0.33197
#
# Static dielectric constant tensor:
#      x y z
#    x 1.916600 0.000000 0.000000 
#    y 0.000000 1.829100 0.000000 
#    z 0.000000 0.000000 1.772350 
# 
# From -- ./inp_files/28627.got.cif
#   From: 2010.05.17/outbox.cif.g08.bks.cpg/sg62_15_cif.got.tgz:28627.got - 2010.06.03 15:25:27.
