data_PCOD9466907
_publ_section_title
;
Structure prediction by ZEFSAII (Michael W. Deem and Ramdas Pophale) SiO2 
 PCOD9466907
Probable space group: P N M A
;
_chemical_formula_sum "Si O2"
_cell_formula_units_Z 52
_cell_length_a 9.253356
_cell_length_b 17.604444
_cell_length_c 16.922518
_cell_angle_alpha 90.000000
_cell_angle_beta 90.000000
_cell_angle_gamma 90.000000
_cell_volume 2756.681355
_symmetry_space_group_name_H-M "P N M A"
_symmetry_group_IT_number 62
_symmetry_cell_setting 'orthorhombic'
loop_
_space_group_symop_operation_xyz
x,y,z
1/2-x,-y,1/2+z
1/2+x,1/2-y,1/2-z
-x,1/2+y,-z
-x,-y,-z
1/2+x,y,1/2-z
1/2-x,1/2+y,1/2+z
x,1/2-y,z
loop_
_atom_site_type_symbol
_atom_site_label
_atom_site_fract_x
_atom_site_fract_y
_atom_site_fract_z
Si Si1 0.663177 0.250000 0.394520
Si Si2 0.333411 0.902311 0.883901
Si Si3 0.447248 0.103656 0.665661
Si Si4 0.162381 0.750000 0.897172
Si Si5 0.331476 0.097593 0.120238
Si Si6 0.334029 0.013823 0.521771
Si Si7 0.226652 0.022740 0.760882
Si Si8 0.503615 0.250000 0.557928
O O1 0.499373 0.250000 0.362679
O O2 0.746532 0.324417 0.365211
O O3 0.633858 0.250000 0.491552
O O4 0.247747 0.824342 0.870691
O O5 0.501554 0.887064 0.896666
O O6 0.314102 0.964479 0.815779
O O7 0.254980 0.940464 0.958144
O O8 0.352388 0.062638 0.599585
O O9 0.496339 0.179116 0.618642
O O10 0.331831 0.093556 0.737378
O O11 0.587525 0.056387 0.693697
O O12 0.130247 0.750000 0.993389
O O13 0.321388 0.034094 0.189525
O O14 0.250336 0.061831 0.044640
O O15 0.500000 0.000000 0.500000
#
# Coordination Sequence:
#
# PCOD9466907 Si02
#       8
#     4   8   8   4   8   8   8   4
#     4  10  23  42  65  99 129 172 227 273 347 389
#     4  12  22  40  63  99 135 172 228 281 348 390
#     4  11  22  43  65  95 135 172 232 270 341 405
#     4  10  23  38  67 101 118 179 218 279 339 396
#     4  11  24  40  61  99 137 172 224 286 340 403
#     4  11  20  37  69  90 127 179 228 278 319 414
#     4  11  25  39  66  97 135 182 217 276 343 418
#     4  10  22  44  72  96 125 173 231 272 322 409
#
# _framework density 18.863261000000001
#
# number of rings (size 3 to 8) (size 9 to 14) (size 15 to 20)
#    0.462    0.615    4.615    2.769    2.154    1.231 
#    0.000    0.000    0.000    0.000    0.000    0.000 
#    0.000    0.000    0.000    0.000    0.000    0.000 
#
# Total GULP energy -289492.274040 kJ/mol
# GULP energy per Si atom -5567.159116 kJ/mol
# Density = 1.882033 g / cm^3
# Si number density = 18.863261 Si / 1000 Ang^3
#
#
#
# Elastic Constant Matrix: (Units=GPa)
#
#
# Indices 1 2 3 4 5 6 
#
# 1 140.4973 23.9873 17.2031 0.0000 0.0000 0.0000
# 2 23.9873 65.6829 4.8694 0.0000 0.0000 0.0000
# 3 17.2031 4.8694 42.2244 0.0000 0.0000 0.0000
# 4 0.0000 0.0000 0.0000 31.9125 0.0000 0.0000
# 5 0.0000 0.0000 0.0000 0.0000 66.8172 0.0000
# 6 0.0000 0.0000 0.0000 0.0000 0.0000 29.0250
#
#
#
# Elastic Compliance Matrix: (Units=1/GPa)
#
#
# Indices 1 2 3 4 5 6 
#
# 1 0.007933 -0.002680 -0.002923 0.000000 0.000000 0.000000
# 2 -0.002680 0.016262 -0.000783 0.000000 0.000000 0.000000
# 3 -0.002923 -0.000783 0.024964 0.000000 0.000000 0.000000
# 4 0.000000 0.000000 0.000000 0.031336 0.000000 0.000000
# 5 0.000000 0.000000 0.000000 0.000000 0.014966 0.000000
# 6 0.000000 0.000000 0.000000 0.000000 0.000000 0.034453
#
#
# Mechanical properties :
#
#
# Convention : Reuss Voigt Hill
#
# Bulk Modulus (GPa) = 27.48348 37.83604 32.65976
# Shear Modulus (GPa) = 32.29644 39.04059 35.66851
#
# Velocity S-wave (km/s) = 4.14228 4.55429 4.35316
# Velocity P-wave (km/s) = 6.12205 6.91064 6.52827
#
# Compressibility (1/GPa) = 0.03638549
#
# Stress axis : x y z
#
# Youngs Moduli (GPa) = 126.05380 61.49447 40.05739
#
# Poissons Ratio (x) = 0.16483 0.11709
# Poissons Ratio (y) = 0.33788 0.03138
# Poissons Ratio (z) = 0.36845 0.04817
#
# Static dielectric constant tensor:
#      x y z
#    x 1.651250 0.000000 0.000000 
#    y 0.000000 1.668910 0.000000 
#    z 0.000000 0.000000 1.705590 
# 
# From -- ./inp_files/22428.got.cif
#   From: 2010.05.17/outbox.cif.g08.bks.cpg/sg62_12_cif.got.tgz:22428.got - 2010.06.03 15:25:27.
