data_PCOD9466573
_publ_section_title
;
Structure prediction by ZEFSAII (Michael W. Deem and Ramdas Pophale) SiO2 
 PCOD9466573
Probable space group: P N M A
;
_chemical_formula_sum "Si O2"
_cell_formula_units_Z 56
_cell_length_a 11.416524
_cell_length_b 16.523588
_cell_length_c 14.355799
_cell_angle_alpha 90.000000
_cell_angle_beta 90.000000
_cell_angle_gamma 90.000000
_cell_volume 2708.105759
_symmetry_space_group_name_H-M "P N M A"
_symmetry_group_IT_number 62
_symmetry_cell_setting 'orthorhombic'
loop_
_space_group_symop_operation_xyz
x,y,z
1/2-x,-y,1/2+z
1/2+x,1/2-y,1/2-z
-x,1/2+y,-z
-x,-y,-z
1/2+x,y,1/2-z
1/2-x,1/2+y,1/2+z
x,1/2-y,z
loop_
_atom_site_type_symbol
_atom_site_label
_atom_site_fract_x
_atom_site_fract_y
_atom_site_fract_z
Si Si1 0.582896 0.531427 0.649642
Si Si2 0.795628 0.657658 0.654262
Si Si3 0.228826 0.436048 0.981307
Si Si4 0.684067 0.841537 0.189772
Si Si5 0.597208 0.068776 0.987226
Si Si6 0.568877 0.110649 0.782192
Si Si7 0.382225 0.659281 0.633502
O O1 0.691616 0.592703 0.653791
O O2 0.610795 0.463877 0.571659
O O3 0.568881 0.481926 0.745425
O O4 0.474827 0.587535 0.626567
O O5 0.760288 0.750000 0.630568
O O6 0.887498 0.624648 0.577913
O O7 0.841743 0.659040 0.759659
O O8 0.307981 0.404133 0.895854
O O9 0.284222 0.516260 0.025189
O O10 0.214144 0.367094 0.058008
O O11 0.681329 0.750000 0.154617
O O12 0.808903 0.852841 0.242999
O O13 0.561156 0.856104 0.244233
O O14 0.575402 0.117264 0.893236
O O15 0.500000 0.000000 0.000000
O O16 0.425594 0.750000 0.612178
#
# Coordination Sequence:
#
# PCOD9466573 Si02
#       7
#     8   8   8   8   8   8   8
#     4  10  22  39  64  87 127 165 219 268 316 391
#     4  10  23  40  60  92 129 166 212 266 329 391
#     4  10  22  39  64  92 122 168 213 268 320 392
#     4  11  24  44  64  98 134 169 217 269 333 390
#     4  11  21  40  65  93 123 165 219 265 320 384
#     4  11  24  41  71  97 129 175 216 274 324 386
#     4  11  22  38  62  90 126 166 207 266 329 385
#
# _framework density 20.678660000000001
#
# number of rings (size 3 to 8) (size 9 to 14) (size 15 to 20)
#    0.000    1.429    1.429    3.429    6.000    1.143 
#    2.571    1.429    0.000    0.000    0.000    0.000 
#    0.000    0.000    0.000    0.000    0.000    0.000 
#
# Total GULP energy -312298.331546 kJ/mol
# GULP energy per Si atom -5576.755920 kJ/mol
# Density = 2.063159 g / cm^3
# Si number density = 20.678660 Si / 1000 Ang^3
#
#
#
# Elastic Constant Matrix: (Units=GPa)
#
#
# Indices 1 2 3 4 5 6 
#
# 1 82.5232 7.6625 22.1526 0.0000 0.0000 0.0000
# 2 7.6625 86.5044 19.9363 0.0000 0.0000 0.0000
# 3 22.1526 19.9363 83.7258 0.0000 0.0000 0.0000
# 4 0.0000 0.0000 0.0000 12.5247 0.0000 0.0000
# 5 0.0000 0.0000 0.0000 0.0000 18.2262 0.0000
# 6 0.0000 0.0000 0.0000 0.0000 0.0000 35.2624
#
#
#
# Elastic Compliance Matrix: (Units=1/GPa)
#
#
# Indices 1 2 3 4 5 6 
#
# 1 0.013056 -0.000381 -0.003364 0.000000 0.000000 0.000000
# 2 -0.000381 0.012242 -0.002814 0.000000 0.000000 0.000000
# 3 -0.003364 -0.002814 0.013504 0.000000 0.000000 0.000000
# 4 0.000000 0.000000 0.000000 0.079842 0.000000 0.000000
# 5 0.000000 0.000000 0.000000 0.000000 0.054866 0.000000
# 6 0.000000 0.000000 0.000000 0.000000 0.000000 0.028359
#
#
# Mechanical properties :
#
#
# Convention : Reuss Voigt Hill
#
# Bulk Modulus (GPa) = 38.93463 39.13958 39.03710
# Shear Modulus (GPa) = 22.36646 26.73614 24.55130
#
# Velocity S-wave (km/s) = 3.29237 3.59964 3.44943
# Velocity P-wave (km/s) = 5.77254 6.02039 5.89777
#
# Compressibility (1/GPa) = 0.02568408
#
# Stress axis : x y z
#
# Youngs Moduli (GPa) = 76.59226 81.68290 74.05304
#
# Poissons Ratio (x) = 0.03115 0.24909
# Poissons Ratio (y) = 0.02920 0.20840
# Poissons Ratio (z) = 0.25763 0.22987
#
# Static dielectric constant tensor:
#      x y z
#    x 1.817160 0.000000 0.000000 
#    y 0.000000 1.707240 0.000000 
#    z 0.000000 0.000000 1.771720 
# 
# From -- ./inp_files/18058.got.cif
#   From: 2010.05.17/outbox.cif.g08.bks.cpg/sg62_10_cif.got.tgz:18058.got - 2010.06.03 15:25:27.
