data_PCOD9466435
_publ_section_title
;
Structure prediction by ZEFSAII (Michael W. Deem and Ramdas Pophale) SiO2 
 PCOD9466435
Probable space group: P N M A
;
_chemical_formula_sum "Si O2"
_cell_formula_units_Z 40
_cell_length_a 14.808435
_cell_length_b 14.790319
_cell_length_c 8.680842
_cell_angle_alpha 90.000000
_cell_angle_beta 90.000000
_cell_angle_gamma 90.000000
_cell_volume 1901.290841
_symmetry_space_group_name_H-M "P N M A"
_symmetry_group_IT_number 62
_symmetry_cell_setting 'orthorhombic'
loop_
_space_group_symop_operation_xyz
x,y,z
1/2-x,-y,1/2+z
1/2+x,1/2-y,1/2-z
-x,1/2+y,-z
-x,-y,-z
1/2+x,y,1/2-z
1/2-x,1/2+y,1/2+z
x,1/2-y,z
loop_
_atom_site_type_symbol
_atom_site_label
_atom_site_fract_x
_atom_site_fract_y
_atom_site_fract_z
Si Si1 0.431504 0.927697 0.567714
Si Si2 0.356504 0.750000 0.997243
Si Si3 0.207004 0.750000 0.736771
Si Si4 0.771989 0.404670 0.513622
Si Si5 0.415408 0.554668 0.935086
Si Si6 0.194945 0.750000 0.240545
Si Si7 0.546080 0.750000 0.518866
O O1 0.333752 0.927698 0.488349
O O2 0.418806 0.941565 0.750105
O O3 0.480805 0.834223 0.535187
O O4 0.500000 0.000000 0.500000
O O5 0.296638 0.750000 0.841115
O O6 0.412228 0.657199 0.997248
O O7 0.283215 0.750000 0.132831
O O8 0.208546 0.840054 0.632922
O O9 0.119718 0.750000 0.844579
O O10 0.827963 0.497040 0.515058
O O11 0.799776 0.340125 0.655683
O O12 0.500000 0.500000 0.000000
O O13 0.105514 0.750000 0.136236
#
# Coordination Sequence:
#
# PCOD9466435 Si02
#       7
#     8   4   4   8   8   4   4
#     4  12  27  44  72 103 144 191 239 297 364 444
#     4  11  25  44  72 101 142 183 241 289 363 415
#     4  10  21  45  75  97 139 191 234 302 349 435
#     4  11  25  47  70 105 146 188 241 297 367 429
#     4  12  28  46  74 108 145 192 247 300 364 435
#     4  10  25  43  73 105 137 189 233 305 354 432
#     4  11  23  46  72 101 140 185 244 288 370 422
#
# _framework density 21.038338
#
# number of rings (size 3 to 8) (size 9 to 14) (size 15 to 20)
#    0.000    0.800    2.000    4.200   11.200    1.600 
#    3.600    0.000    0.000    0.000    0.000    0.000 
#    0.000    0.000    0.000    0.000    0.000    0.000 
#
# Total GULP energy -224049.702837 kJ/mol
# GULP energy per Si atom -5601.242571 kJ/mol
# Density = 2.099045 g / cm^3
# Si number density = 21.038338 Si / 1000 Ang^3
#
#
#
# Elastic Constant Matrix: (Units=GPa)
#
#
# Indices 1 2 3 4 5 6 
#
# 1 178.5000 89.3512 33.9835 0.0000 0.0000 0.0000
# 2 89.3512 199.2253 29.7279 0.0000 0.0000 0.0000
# 3 33.9835 29.7279 61.4813 0.0000 0.0000 0.0000
# 4 0.0000 0.0000 0.0000 14.1722 0.0000 0.0000
# 5 0.0000 0.0000 0.0000 0.0000 16.0795 0.0000
# 6 0.0000 0.0000 0.0000 0.0000 0.0000 53.8833
#
#
#
# Elastic Compliance Matrix: (Units=1/GPa)
#
#
# Indices 1 2 3 4 5 6 
#
# 1 0.007636 -0.003012 -0.002764 0.000000 0.000000 0.000000
# 2 -0.003012 0.006598 -0.001525 0.000000 0.000000 0.000000
# 3 -0.002764 -0.001525 0.018531 0.000000 0.000000 0.000000
# 4 0.000000 0.000000 0.000000 0.070561 0.000000 0.000000
# 5 0.000000 0.000000 0.000000 0.000000 0.062191 0.000000
# 6 0.000000 0.000000 0.000000 0.000000 0.000000 0.018559
#
#
# Mechanical properties :
#
#
# Convention : Reuss Voigt Hill
#
# Bulk Modulus (GPa) = 55.06313 82.81465 68.93889
# Shear Modulus (GPa) = 24.42202 35.90328 30.16265
#
# Velocity S-wave (km/s) = 3.41080 4.13554 3.79053
# Velocity P-wave (km/s) = 6.46072 7.89004 7.21088
#
# Compressibility (1/GPa) = 0.01816097
#
# Stress axis : x y z
#
# Youngs Moduli (GPa) = 130.95091 151.55933 53.96470
#
# Poissons Ratio (x) = 0.45656 0.14918
# Poissons Ratio (y) = 0.39448 0.08231
# Poissons Ratio (z) = 0.36201 0.23117
#
# Static dielectric constant tensor:
#      x y z
#    x 1.709070 0.000000 0.000000 
#    y 0.000000 1.706870 0.000000 
#    z 0.000000 0.000000 1.757810 
# 
# From -- ./inp_files/6155.got.cif
#   From: 2010.05.17/outbox.cif.g08.bks.cpg/sg62_4_cif.got.tgz:6155.got - 2010.06.03 15:25:27.
