data_PCOD9466273
_publ_section_title
;
Structure prediction by ZEFSAII (Michael W. Deem and Ramdas Pophale) SiO2 
 PCOD9466273
Probable space group: P N M A
;
_chemical_formula_sum "Si O2"
_cell_formula_units_Z 48
_cell_length_a 9.297511
_cell_length_b 27.848179
_cell_length_c 7.037970
_cell_angle_alpha 90.000000
_cell_angle_beta 90.000000
_cell_angle_gamma 90.000000
_cell_volume 1822.262399
_symmetry_space_group_name_H-M "P N M A"
_symmetry_group_IT_number 62
_symmetry_cell_setting 'orthorhombic'
loop_
_space_group_symop_operation_xyz
x,y,z
1/2-x,-y,1/2+z
1/2+x,1/2-y,1/2-z
-x,1/2+y,-z
-x,-y,-z
1/2+x,y,1/2-z
1/2-x,1/2+y,1/2+z
x,1/2-y,z
loop_
_atom_site_type_symbol
_atom_site_label
_atom_site_fract_x
_atom_site_fract_y
_atom_site_fract_z
Si Si1 0.697114 0.303909 0.965692
Si Si2 0.415272 0.196149 0.225489
Si Si3 0.882151 0.603486 0.221493
Si Si4 0.468465 0.048501 0.199039
Si Si5 0.216657 0.393111 0.209070
Si Si6 0.634806 0.541495 0.221148
O O1 0.677604 0.250000 0.886811
O O2 0.860304 0.306198 0.052549
O O3 0.578155 0.307840 0.141733
O O4 0.664682 0.347236 0.822701
O O5 0.369539 0.250000 0.165423
O O6 0.314480 0.153250 0.160091
O O7 0.793296 0.555541 0.283187
O O8 0.047216 0.590423 0.246722
O O9 0.853201 0.601790 0.997580
O O10 0.579600 0.092131 0.163408
O O11 0.334672 0.071666 0.305637
O O12 0.559105 0.006393 0.296692
O O13 0.388135 0.034028 0.004691
#
# Coordination Sequence:
#
# PCOD9466273 Si02
#       6
#     8   8   8   8   8   8
#     4  10  22  42  67  95 127 163 208 262 320 385
#     4  10  21  40  66  93 123 162 207 254 310 381
#     4  11  23  39  61  93 129 163 205 263 324 380
#     4  10  22  40  61  88 122 165 215 263 313 379
#     4  11  22  37  62  92 125 167 211 260 320 379
#     4  10  22  40  61  87 124 165 210 264 319 375
#
# _framework density 26.340883999999999
#
# number of rings (size 3 to 8) (size 9 to 14) (size 15 to 20)
#    0.000    1.667    0.000    5.000    0.000    5.333 
#    0.000    0.833    0.000    1.000    0.000    0.000 
#    0.000    0.000    0.000    0.000    0.000    0.000 
#
# Total GULP energy -267320.731527 kJ/mol
# GULP energy per Si atom -5569.181907 kJ/mol
# Density = 2.628093 g / cm^3
# Si number density = 26.340884 Si / 1000 Ang^3
#
#
#
# Elastic Constant Matrix: (Units=GPa)
#
#
# Indices 1 2 3 4 5 6 
#
# 1 119.3870 29.6542 8.6536 0.0000 0.0000 0.0000
# 2 29.6542 125.4922 28.9190 0.0000 0.0000 0.0000
# 3 8.6536 28.9190 64.2339 0.0000 0.0000 0.0000
# 4 0.0000 0.0000 0.0000 36.4857 0.0000 0.0000
# 5 0.0000 0.0000 0.0000 0.0000 19.6233 0.0000
# 6 0.0000 0.0000 0.0000 0.0000 0.0000 29.4865
#
#
#
# Elastic Compliance Matrix: (Units=1/GPa)
#
#
# Indices 1 2 3 4 5 6 
#
# 1 0.008903 -0.002039 -0.000281 0.000000 0.000000 0.000000
# 2 -0.002039 0.009358 -0.003938 0.000000 0.000000 0.000000
# 3 -0.000281 -0.003938 0.017379 0.000000 0.000000 0.000000
# 4 0.000000 0.000000 0.000000 0.027408 0.000000 0.000000
# 5 0.000000 0.000000 0.000000 0.000000 0.050960 0.000000
# 6 0.000000 0.000000 0.000000 0.000000 0.000000 0.033914
#
#
# Mechanical properties :
#
#
# Convention : Reuss Voigt Hill
#
# Bulk Modulus (GPa) = 43.24791 49.28520 46.26655
# Shear Modulus (GPa) = 29.73589 33.24485 31.49037
#
# Velocity S-wave (km/s) = 3.36354 3.55646 3.46134
# Velocity P-wave (km/s) = 5.61593 5.96789 5.79458
#
# Compressibility (1/GPa) = 0.02312251
#
# Stress axis : x y z
#
# Youngs Moduli (GPa) = 112.32207 106.86026 57.54021
#
# Poissons Ratio (x) = 0.21788 0.01619
# Poissons Ratio (y) = 0.22902 0.22662
# Poissons Ratio (z) = 0.03161 0.42086
#
# Static dielectric constant tensor:
#      x y z
#    x 2.051890 0.000000 0.000000 
#    y 0.000000 2.328920 0.000000 
#    z 0.000000 0.000000 2.199210 
# 
# From -- ./inp_files/4490.got.cif
#   From: 2010.05.17/outbox.cif.g08.bks.cpg/sg62_3_cif.got.tgz:4490.got - 2010.06.03 15:25:27.
