data_PCOD9466516
_publ_section_title
;
Structure prediction by ZEFSAII (Michael W. Deem and Ramdas Pophale) SiO2 
 PCOD9466516
Probable space group: P N M A
;
_chemical_formula_sum "Si O2"
_cell_formula_units_Z 64
_cell_length_a 22.874459
_cell_length_b 14.754289
_cell_length_c 7.582557
_cell_angle_alpha 90.000000
_cell_angle_beta 90.000000
_cell_angle_gamma 90.000000
_cell_volume 2559.085530
_symmetry_space_group_name_H-M "P N M A"
_symmetry_group_IT_number 62
_symmetry_cell_setting 'orthorhombic'
loop_
_space_group_symop_operation_xyz
x,y,z
1/2-x,-y,1/2+z
1/2+x,1/2-y,1/2-z
-x,1/2+y,-z
-x,-y,-z
1/2+x,y,1/2-z
1/2-x,1/2+y,1/2+z
x,1/2-y,z
loop_
_atom_site_type_symbol
_atom_site_label
_atom_site_fract_x
_atom_site_fract_y
_atom_site_fract_z
Si Si1 0.926289 0.494580 0.124216
Si Si2 0.221461 0.642694 0.369188
Si Si3 0.999819 0.350037 0.231718
Si Si4 0.901019 0.150961 0.528479
Si Si5 0.586455 0.041860 0.028138
Si Si6 0.693267 0.149598 0.112903
Si Si7 0.823842 0.357862 0.019385
Si Si8 0.345453 0.647315 0.484006
O O1 0.981130 0.427263 0.094445
O O2 0.933767 0.527724 0.327810
O O3 0.872695 0.424378 0.090392
O O4 0.901631 0.584341 0.031887
O O5 0.233114 0.750000 0.363327
O O6 0.168088 0.634557 0.508217
O O7 0.286248 0.604673 0.397743
O O8 0.191794 0.617900 0.184043
O O9 0.013094 0.250000 0.161455
O O10 0.942726 0.342011 0.359771
O O11 0.049895 0.385450 0.362846
O O12 0.905003 0.250000 0.619834
O O13 0.919737 0.056980 0.619263
O O14 0.653013 0.075909 0.020196
O O15 0.685384 0.250000 0.031133
O O16 0.761534 0.130360 0.112731
O O17 0.671751 0.152968 0.312242
O O18 0.839712 0.250000 0.030076
O O19 0.356753 0.750000 0.418892
#
# Coordination Sequence:
#
# PCOD9466516 Si02
#       8
#     8   8   8   8   8   8   8   8
#     4  11  23  37  63  95 125 161 215 261 331 380
#     4   9  19  37  60  88 127 173 213 259 319 387
#     4  10  22  43  68  94 125 168 222 278 324 380
#     4   9  19  34  59  90 124 160 209 265 317 373
#     4  11  23  40  66  92 124 168 224 269 320 385
#     4  10  23  40  61  91 126 174 218 268 330 387
#     4  10  22  38  60  93 131 167 213 264 325 393
#     4  10  23  39  59  90 132 173 212 260 324 391
#
# _framework density 25.008932000000001
#
# number of rings (size 3 to 8) (size 9 to 14) (size 15 to 20)
#    0.000    2.000    0.000    3.000    7.000    2.500 
#    0.000    1.250    2.750    0.000    0.000    0.000 
#    0.000    0.000    0.000    0.000    0.000    0.000 
#
# Total GULP energy -357534.996363 kJ/mol
# GULP energy per Si atom -5586.484318 kJ/mol
# Density = 2.495201 g / cm^3
# Si number density = 25.008932 Si / 1000 Ang^3
#
#
#
# Elastic Constant Matrix: (Units=GPa)
#
#
# Indices 1 2 3 4 5 6 
#
# 1 112.7199 22.6111 26.1708 0.0000 0.0000 0.0000
# 2 22.6111 122.4852 12.8613 0.0000 0.0000 0.0000
# 3 26.1708 12.8613 26.5279 0.0000 0.0000 0.0000
# 4 0.0000 0.0000 0.0000 12.4799 0.0000 0.0000
# 5 0.0000 0.0000 0.0000 0.0000 26.7260 0.0000
# 6 0.0000 0.0000 0.0000 0.0000 0.0000 32.6523
#
#
#
# Elastic Compliance Matrix: (Units=1/GPa)
#
#
# Indices 1 2 3 4 5 6 
#
# 1 0.011621 -0.000992 -0.010983 0.000000 0.000000 0.000000
# 2 -0.000992 0.008687 -0.003233 0.000000 0.000000 0.000000
# 3 -0.010983 -0.003233 0.050099 0.000000 0.000000 0.000000
# 4 0.000000 0.000000 0.000000 0.080129 0.000000 0.000000
# 5 0.000000 0.000000 0.000000 0.000000 0.037417 0.000000
# 6 0.000000 0.000000 0.000000 0.000000 0.000000 0.030626
#
#
# Mechanical properties :
#
#
# Convention : Reuss Voigt Hill
#
# Bulk Modulus (GPa) = 25.00625 42.77994 33.89309
# Shear Modulus (GPa) = 19.06039 27.71096 23.38568
#
# Velocity S-wave (km/s) = 2.76369 3.33234 3.06125
# Velocity P-wave (km/s) = 4.49495 5.65234 5.10654
#
# Compressibility (1/GPa) = 0.03999001
#
# Stress axis : x y z
#
# Youngs Moduli (GPa) = 86.05434 115.11676 19.96052
#
# Poissons Ratio (x) = 0.11419 0.21923
# Poissons Ratio (y) = 0.08536 0.06453
# Poissons Ratio (z) = 0.94516 0.37217
#
# Static dielectric constant tensor:
#      x y z
#    x 2.020440 0.000000 0.000000 
#    y 0.000000 2.040520 0.000000 
#    z 0.000000 0.000000 2.001730 
# 
# From -- ./inp_files/9505.got.cif
#   From: 2010.05.17/outbox.cif.g08.bks.cpg/sg62_5_cif.got.tgz:9505.got - 2010.06.03 15:25:27.
