data_PCOD9466161
_publ_section_title
;
Structure prediction by ZEFSAII (Michael W. Deem and Ramdas Pophale) SiO2 
 PCOD9466161
Probable space group: P N M A
;
_chemical_formula_sum "Si O2"
_cell_formula_units_Z 56
_cell_length_a 11.412237
_cell_length_b 15.212665
_cell_length_c 15.195431
_cell_angle_alpha 90.000000
_cell_angle_beta 90.000000
_cell_angle_gamma 90.000000
_cell_volume 2638.086957
_symmetry_space_group_name_H-M "P N M A"
_symmetry_group_IT_number 62
_symmetry_cell_setting 'orthorhombic'
loop_
_space_group_symop_operation_xyz
x,y,z
1/2-x,-y,1/2+z
1/2+x,1/2-y,1/2-z
-x,1/2+y,-z
-x,-y,-z
1/2+x,y,1/2-z
1/2-x,1/2+y,1/2+z
x,1/2-y,z
loop_
_atom_site_type_symbol
_atom_site_label
_atom_site_fract_x
_atom_site_fract_y
_atom_site_fract_z
Si Si1 0.232876 0.456446 0.084631
Si Si2 0.825084 0.348212 0.257736
Si Si3 0.213944 0.750000 0.279084
Si Si4 0.204901 0.415483 0.888867
Si Si5 0.372515 0.578794 0.849135
Si Si6 0.956195 0.750000 0.336255
Si Si7 0.073263 0.412186 0.532643
Si Si8 0.504058 0.518437 0.691102
O O1 0.311082 0.398754 0.150412
O O2 0.305610 0.545355 0.067194
O O3 0.111759 0.476656 0.133436
O O4 0.203661 0.406554 0.993961
O O5 0.862698 0.250000 0.272500
O O6 0.696119 0.356575 0.215571
O O7 0.913472 0.395544 0.190270
O O8 0.239442 0.664736 0.337903
O O9 0.322805 0.750000 0.206741
O O10 0.069678 0.750000 0.268828
O O11 0.282070 0.502521 0.875245
O O12 0.081410 0.438141 0.843009
O O13 0.466208 0.523028 0.792943
O O14 0.410412 0.629278 0.936006
O O15 0.966907 0.837977 0.398252
O O16 0.000000 0.500000 0.500000
#
# Coordination Sequence:
#
# PCOD9466161 Si02
#       8
#     8   8   4   8   8   4   8   8
#     4  10  22  42  68  96 134 181 230 286 353 423
#     4  10  22  37  61  94 135 174 225 287 353 419
#     4  12  30  44  68  99 144 178 238 285 348 430
#     4  10  23  42  66  93 133 181 226 283 345 421
#     4   9  21  40  67  92 127 171 226 288 351 416
#     4  12  30  48  74 109 140 196 238 303 358 432
#     4  11  24  46  72 100 133 176 234 291 354 416
#     4  10  21  39  68  97 130 180 228 288 359 424
#
# _framework density 21.227502999999999
#
# number of rings (size 3 to 8) (size 9 to 14) (size 15 to 20)
#    0.000    1.714    0.000    3.000   12.000    2.286 
#    3.857    0.000    0.000    0.000    0.000    0.000 
#    0.000    0.000    0.000    0.000    0.000    0.000 
#
# Total GULP energy -312034.034480 kJ/mol
# GULP energy per Si atom -5572.036330 kJ/mol
# Density = 2.117919 g / cm^3
# Si number density = 21.227503 Si / 1000 Ang^3
#
#
#
# Elastic Constant Matrix: (Units=GPa)
#
#
# Indices 1 2 3 4 5 6 
#
# 1 120.1456 28.4390 49.3512 0.0000 0.0000 0.0000
# 2 28.4390 71.5157 20.8003 0.0000 0.0000 0.0000
# 3 49.3512 20.8003 100.4893 0.0000 0.0000 0.0000
# 4 0.0000 0.0000 0.0000 24.1413 0.0000 0.0000
# 5 0.0000 0.0000 0.0000 0.0000 36.3509 0.0000
# 6 0.0000 0.0000 0.0000 0.0000 0.0000 13.4400
#
#
#
# Elastic Compliance Matrix: (Units=1/GPa)
#
#
# Indices 1 2 3 4 5 6 
#
# 1 0.010993 -0.002981 -0.004782 0.000000 0.000000 0.000000
# 2 -0.002981 0.015687 -0.001783 0.000000 0.000000 0.000000
# 3 -0.004782 -0.001783 0.012669 0.000000 0.000000 0.000000
# 4 0.000000 0.000000 0.000000 0.041423 0.000000 0.000000
# 5 0.000000 0.000000 0.000000 0.000000 0.027510 0.000000
# 6 0.000000 0.000000 0.000000 0.000000 0.000000 0.074405
#
#
# Mechanical properties :
#
#
# Convention : Reuss Voigt Hill
#
# Bulk Modulus (GPa) = 49.36487 54.37019 51.86753
# Shear Modulus (GPa) = 23.97744 27.69046 25.83395
#
# Velocity S-wave (km/s) = 3.36452 3.61565 3.49234
# Velocity P-wave (km/s) = 6.19669 6.56500 6.38350
#
# Compressibility (1/GPa) = 0.02025732
#
# Stress axis : x y z
#
# Youngs Moduli (GPa) = 90.96753 63.74753 78.93429
#
# Poissons Ratio (x) = 0.19001 0.37744
# Poissons Ratio (y) = 0.27115 0.14075
# Poissons Ratio (z) = 0.43498 0.11367
#
# Static dielectric constant tensor:
#      x y z
#    x 1.879520 0.000000 0.000000 
#    y 0.000000 1.771930 0.000000 
#    z 0.000000 0.000000 1.824490 
# 
# From -- ./inp_files/18132.got.cif
#   From: 2010.05.17/outbox.cif.g08.bks.cpg/sg62_10_cif.got.tgz:18132.got - 2010.06.03 15:25:27.
