data_PCOD9466603
_publ_section_title
;
Structure prediction by ZEFSAII (Michael W. Deem and Ramdas Pophale) SiO2 
 PCOD9466603
Probable space group: P N M A
;
_chemical_formula_sum "Si O2"
_cell_formula_units_Z 32
_cell_length_a 9.304226
_cell_length_b 18.196368
_cell_length_c 7.837124
_cell_angle_alpha 90.000000
_cell_angle_beta 90.000000
_cell_angle_gamma 90.000000
_cell_volume 1326.849547
_symmetry_space_group_name_H-M "P N M A"
_symmetry_group_IT_number 62
_symmetry_cell_setting 'orthorhombic'
loop_
_space_group_symop_operation_xyz
x,y,z
1/2-x,-y,1/2+z
1/2+x,1/2-y,1/2-z
-x,1/2+y,-z
-x,-y,-z
1/2+x,y,1/2-z
1/2-x,1/2+y,1/2+z
x,1/2-y,z
loop_
_atom_site_type_symbol
_atom_site_label
_atom_site_fract_x
_atom_site_fract_y
_atom_site_fract_z
Si Si1 0.401979 0.334079 0.728980
Si Si2 0.648094 0.422425 0.590761
Si Si3 0.929429 0.832897 0.585793
Si Si4 0.318429 0.080287 0.263014
O O1 0.367576 0.250000 0.678848
O O2 0.500063 0.377187 0.594067
O O3 0.263918 0.377948 0.795106
O O4 0.625990 0.502030 0.673171
O O5 0.719625 0.430811 0.405872
O O6 0.003378 0.331257 0.602310
O O7 0.896561 0.750000 0.641604
O O8 0.787604 0.881674 0.602209
O O9 0.052753 0.867986 0.702979
#
# Coordination Sequence:
#
# PCOD9466603 Si02
#       4
#     8   8   8   8
#     4  10  22  40  60  84 116 152 191 238 290 343
#     4  11  23  39  60  87 118 153 194 238 286 342
#     4  10  22  40  60  84 116 152 191 238 290 343
#     4  11  23  39  60  87 118 153 194 238 286 342
#
# _framework density 24.117277000000001
#
# number of rings (size 3 to 8) (size 9 to 14) (size 15 to 20)
#    0.000    1.500    0.000    4.500    0.000   13.000 
#    0.000    0.000    0.000    0.000    0.000    0.000 
#    0.000    0.000    0.000    0.000    0.000    0.000 
#
# Total GULP energy -179526.511366 kJ/mol
# GULP energy per Si atom -5610.203480 kJ/mol
# Density = 2.406239 g / cm^3
# Si number density = 24.117277 Si / 1000 Ang^3
#
#
#
# Elastic Constant Matrix: (Units=GPa)
#
#
# Indices 1 2 3 4 5 6 
#
# 1 100.0615 22.1832 9.7313 0.0000 0.0000 0.0000
# 2 22.1832 151.7459 22.8961 0.0000 0.0000 0.0000
# 3 9.7313 22.8961 82.8430 0.0000 0.0000 0.0000
# 4 0.0000 0.0000 0.0000 -5.6903 0.0000 0.0000
# 5 0.0000 0.0000 0.0000 0.0000 40.9845 0.0000
# 6 0.0000 0.0000 0.0000 0.0000 0.0000 1.5668
#
#
#
# Elastic Compliance Matrix: (Units=1/GPa)
#
#
# Indices 1 2 3 4 5 6 
#
# 1 0.010384 -0.001392 -0.000835 0.000000 0.000000 0.000000
# 2 -0.001392 0.007063 -0.001789 0.000000 0.000000 0.000000
# 3 -0.000835 -0.001789 0.012663 0.000000 0.000000 0.000000
# 4 0.000000 0.000000 0.000000 -0.175739 0.000000 0.000000
# 5 0.000000 0.000000 0.000000 0.000000 0.024399 0.000000
# 6 0.000000 0.000000 0.000000 0.000000 0.000000 0.638224
#
#
# Mechanical properties :
#
#
# Convention : Reuss Voigt Hill
#
# Bulk Modulus (GPa) = 45.29155 49.36353 47.32754
# Shear Modulus (GPa) = 9.39167 26.02820 17.70993
#
# Velocity S-wave (km/s) = 1.97550 3.28873 2.71278
# Velocity P-wave (km/s) = 4.90143 5.91046 5.42944
#
# Compressibility (1/GPa) = 0.02207917
#
# Stress axis : x y z
#
# Youngs Moduli (GPa) = 96.30517 141.57631 78.96738
#
# Poissons Ratio (x) = 0.19707 0.06594
# Poissons Ratio (y) = 0.13405 0.14125
# Poissons Ratio (z) = 0.08042 0.25323
#
# Static dielectric constant tensor:
#      x y z
#    x 1.877770 0.000000 0.000000 
#    y 0.000000 1.852330 0.000000 
#    z 0.000000 0.000000 1.949190 
# 
# From -- ./inp_files/10935.got.cif
#   From: 2010.05.17/outbox.cif.g08.bks.cpg/sg62_6_cif.got.tgz:10935.got - 2010.06.03 15:25:27.
