data_PCOD9466324
_publ_section_title
;
Structure prediction by ZEFSAII (Michael W. Deem and Ramdas Pophale) SiO2 
 PCOD9466324
Probable space group: P N M A
;
_chemical_formula_sum "Si O2"
_cell_formula_units_Z 40
_cell_length_a 9.876464
_cell_length_b 27.293546
_cell_length_c 6.297975
_cell_angle_alpha 90.000000
_cell_angle_beta 90.000000
_cell_angle_gamma 90.000000
_cell_volume 1697.705598
_symmetry_space_group_name_H-M "P N M A"
_symmetry_group_IT_number 62
_symmetry_cell_setting 'orthorhombic'
loop_
_space_group_symop_operation_xyz
x,y,z
1/2-x,-y,1/2+z
1/2+x,1/2-y,1/2-z
-x,1/2+y,-z
-x,-y,-z
1/2+x,y,1/2-z
1/2-x,1/2+y,1/2+z
x,1/2-y,z
loop_
_atom_site_type_symbol
_atom_site_label
_atom_site_fract_x
_atom_site_fract_y
_atom_site_fract_z
Si Si1 0.424552 0.304737 0.016126
Si Si2 0.103162 0.963505 0.886349
Si Si3 0.110849 0.441449 0.441120
Si Si4 0.994967 0.881473 0.177603
Si Si5 0.340273 0.659417 0.701536
O O1 0.406671 0.250000 0.931823
O O2 0.306536 0.317946 0.180460
O O3 0.564074 0.309781 0.144460
O O4 0.424790 0.346506 0.837242
O O5 0.260831 0.977057 0.906345
O O6 0.086240 0.912923 0.017705
O O7 0.034288 0.957705 0.654945
O O8 0.000000 0.000000 0.000000
O O9 0.087898 0.420115 0.675989
O O10 0.154846 0.395340 0.294880
O O11 0.901106 0.846902 0.034011
#
# Coordination Sequence:
#
# PCOD9466324 Si02
#       5
#     8   8   8   8   8
#     4  11  23  39  63  95 128 167 214 260 310 376
#     4  11  25  41  65  93 125 164 210 263 317 378
#     4  10  22  42  63  91 124 162 208 257 315 375
#     4  10  22  41  66  89 126 166 212 259 320 364
#     4  10  21  41  64  88 125 166 205 259 312 367
#
# _framework density 23.561209999999999
#
# number of rings (size 3 to 8) (size 9 to 14) (size 15 to 20)
#    0.000    1.600    0.000    5.400    2.800    5.600 
#    0.000    0.000    0.000    0.000    0.000    0.000 
#    0.000    0.000    0.000    0.000    0.000    0.000 
#
# Total GULP energy -223820.361460 kJ/mol
# GULP energy per Si atom -5595.509037 kJ/mol
# Density = 2.350758 g / cm^3
# Si number density = 23.561210 Si / 1000 Ang^3
#
#
#
# Elastic Constant Matrix: (Units=GPa)
#
#
# Indices 1 2 3 4 5 6 
#
# 1 115.9198 23.9333 17.6811 0.0000 0.0000 0.0000
# 2 23.9333 65.0662 13.0686 0.0000 0.0000 0.0000
# 3 17.6811 13.0686 76.0902 0.0000 0.0000 0.0000
# 4 0.0000 0.0000 0.0000 18.2275 0.0000 0.0000
# 5 0.0000 0.0000 0.0000 0.0000 27.3085 0.0000
# 6 0.0000 0.0000 0.0000 0.0000 0.0000 18.0487
#
#
#
# Elastic Compliance Matrix: (Units=1/GPa)
#
#
# Indices 1 2 3 4 5 6 
#
# 1 0.009536 -0.003172 -0.001671 0.000000 0.000000 0.000000
# 2 -0.003172 0.016973 -0.002178 0.000000 0.000000 0.000000
# 3 -0.001671 -0.002178 0.013905 0.000000 0.000000 0.000000
# 4 0.000000 0.000000 0.000000 0.054862 0.000000 0.000000
# 5 0.000000 0.000000 0.000000 0.000000 0.036619 0.000000
# 6 0.000000 0.000000 0.000000 0.000000 0.000000 0.055406
#
#
# Mechanical properties :
#
#
# Convention : Reuss Voigt Hill
#
# Bulk Modulus (GPa) = 37.91949 40.71581 39.31765
# Shear Modulus (GPa) = 23.79429 26.20981 25.00205
#
# Velocity S-wave (km/s) = 3.18133 3.33890 3.26107
# Velocity P-wave (km/s) = 5.44274 5.67299 5.55906
#
# Compressibility (1/GPa) = 0.02637166
#
# Stress axis : x y z
#
# Youngs Moduli (GPa) = 104.86040 58.91632 71.91807
#
# Poissons Ratio (x) = 0.18689 0.12019
# Poissons Ratio (y) = 0.33263 0.15664
# Poissons Ratio (z) = 0.17524 0.12832
#
# Static dielectric constant tensor:
#      x y z
#    x 1.929660 0.000000 0.000000 
#    y 0.000000 1.925950 0.000000 
#    z 0.000000 0.000000 1.888180 
# 
# From -- ./inp_files/613.got.cif
#   From: 2010.05.17/outbox.cif.g08.bks.cpg/sg62_1_cif.got.tgz:613.got - 2010.06.03 15:25:27.
