data_PCOD9466493
_publ_section_title
;
Structure prediction by ZEFSAII (Michael W. Deem and Ramdas Pophale) SiO2 
 PCOD9466493
Probable space group: P N M A
;
_chemical_formula_sum "Si O2"
_cell_formula_units_Z 64
_cell_length_a 31.154808
_cell_length_b 8.554430
_cell_length_c 14.662539
_cell_angle_alpha 90.000000
_cell_angle_beta 90.000000
_cell_angle_gamma 90.000000
_cell_volume 3907.737084
_symmetry_space_group_name_H-M "P N M A"
_symmetry_group_IT_number 62
_symmetry_cell_setting 'orthorhombic'
loop_
_space_group_symop_operation_xyz
x,y,z
1/2-x,-y,1/2+z
1/2+x,1/2-y,1/2-z
-x,1/2+y,-z
-x,-y,-z
1/2+x,y,1/2-z
1/2-x,1/2+y,1/2+z
x,1/2-y,z
loop_
_atom_site_type_symbol
_atom_site_label
_atom_site_fract_x
_atom_site_fract_y
_atom_site_fract_z
Si Si1 0.366059 0.564338 0.189119
Si Si2 0.044336 0.062057 0.607313
Si Si3 0.674835 0.930234 0.989176
Si Si4 0.219428 0.564873 0.233291
Si Si5 0.048319 0.061533 0.396164
Si Si6 0.232539 0.936756 0.022390
Si Si7 0.137584 0.432709 0.335240
Si Si8 0.195417 0.935078 0.832280
O O1 0.362002 0.750000 0.172924
O O2 0.415638 0.520375 0.171573
O O3 0.343905 0.522049 0.284030
O O4 0.339263 0.473573 0.112258
O O5 0.041050 0.250000 0.605638
O O6 0.053176 0.009316 0.502386
O O7 0.998408 0.993789 0.634857
O O8 0.665229 0.750000 0.010320
O O9 0.724969 0.965103 0.997859
O O10 0.650995 0.043128 0.059521
O O11 0.226236 0.750000 0.243312
O O12 0.174201 0.518704 0.278091
O O13 0.259686 0.482548 0.283050
O O14 0.218548 0.527975 0.125474
O O15 0.049712 0.250000 0.396938
O O16 0.088467 0.008172 0.334820
O O17 0.242876 0.750000 0.018433
O O18 0.200049 0.968554 0.939882
O O19 0.138755 0.250000 0.311467
O O20 0.189796 0.750000 0.820289
#
# Coordination Sequence:
#
# PCOD9466493 Si02
#       8
#     8   8   8   8   8   8   8   8
#     4  11  21  35  51  72 105 139 169 209 258 301
#     4   9  18  32  49  71 100 134 166 202 250 301
#     4  12  22  30  49  75 100 135 178 212 244 299
#     4  11  22  35  52  75 100 135 175 211 252 300
#     4   9  18  32  49  71 100 134 166 202 250 301
#     4  10  22  38  52  67 102 139 168 214 260 291
#     4  11  21  35  51  72 105 139 169 209 258 301
#     4  11  22  35  52  75 100 135 175 211 252 300
#
# _framework density 16.377765
#
# number of rings (size 3 to 8) (size 9 to 14) (size 15 to 20)
#    0.000    1.500    3.750    2.625    0.000    3.000 
#    0.000    0.000    0.000    0.000    0.000    0.875 
#    0.000    0.000    0.000    0.000    0.000    0.000 
#
# Total GULP energy -357128.588416 kJ/mol
# GULP energy per Si atom -5580.134194 kJ/mol
# Density = 1.634049 g / cm^3
# Si number density = 16.377765 Si / 1000 Ang^3
#
#
#
# Elastic Constant Matrix: (Units=GPa)
#
#
# Indices 1 2 3 4 5 6 
#
# 1 80.4161 7.5328 1.3993 0.0000 0.0000 0.0000
# 2 7.5328 14.8682 1.8551 0.0000 0.0000 0.0000
# 3 1.3993 1.8551 41.4068 0.0000 0.0000 0.0000
# 4 0.0000 0.0000 0.0000 15.7554 0.0000 0.0000
# 5 0.0000 0.0000 0.0000 0.0000 22.6239 0.0000
# 6 0.0000 0.0000 0.0000 0.0000 0.0000 18.6136
#
#
#
# Elastic Compliance Matrix: (Units=1/GPa)
#
#
# Indices 1 2 3 4 5 6 
#
# 1 0.013056 -0.006596 -0.000146 0.000000 0.000000 0.000000
# 2 -0.006596 0.070969 -0.002957 0.000000 0.000000 0.000000
# 3 -0.000146 -0.002957 0.024288 0.000000 0.000000 0.000000
# 4 0.000000 0.000000 0.000000 0.063470 0.000000 0.000000
# 5 0.000000 0.000000 0.000000 0.000000 0.044201 0.000000
# 6 0.000000 0.000000 0.000000 0.000000 0.000000 0.053724
#
#
# Mechanical properties :
#
#
# Convention : Reuss Voigt Hill
#
# Bulk Modulus (GPa) = 11.24669 17.58506 14.41588
# Shear Modulus (GPa) = 15.68659 19.79217 17.73938
#
# Velocity S-wave (km/s) = 3.09819 3.48009 3.29468
# Velocity P-wave (km/s) = 4.43625 5.18734 4.82643
#
# Compressibility (1/GPa) = 0.08891502
#
# Stress axis : x y z
#
# Youngs Moduli (GPa) = 76.59458 14.09075 41.17261
#
# Poissons Ratio (x) = 0.09295 0.00600
# Poissons Ratio (y) = 0.50525 0.12173
# Poissons Ratio (z) = 0.01116 0.04166
#
# Static dielectric constant tensor:
#      x y z
#    x 1.558370 0.000000 0.000000 
#    y 0.000000 1.554900 0.000000 
#    z 0.000000 0.000000 1.546590 
# 
# From -- ./inp_files/21235.got.cif
#   From: 2010.05.17/outbox.cif.g08.bks.cpg/sg62_11_cif.got.tgz:21235.got - 2010.06.03 15:25:27.
