data_PCOD9466734
_publ_section_title
;
Structure prediction by ZEFSAII (Michael W. Deem and Ramdas Pophale) SiO2 
 PCOD9466734
Probable space group: P N M A
;
_chemical_formula_sum "Si O2"
_cell_formula_units_Z 64
_cell_length_a 25.653395
_cell_length_b 18.270851
_cell_length_c 5.058881
_cell_angle_alpha 90.000000
_cell_angle_beta 90.000000
_cell_angle_gamma 90.000000
_cell_volume 2371.144864
_symmetry_space_group_name_H-M "P N M A"
_symmetry_group_IT_number 62
_symmetry_cell_setting 'orthorhombic'
loop_
_space_group_symop_operation_xyz
x,y,z
1/2-x,-y,1/2+z
1/2+x,1/2-y,1/2-z
-x,1/2+y,-z
-x,-y,-z
1/2+x,y,1/2-z
1/2-x,1/2+y,1/2+z
x,1/2-y,z
loop_
_atom_site_type_symbol
_atom_site_label
_atom_site_fract_x
_atom_site_fract_y
_atom_site_fract_z
Si Si1 0.008689 0.828576 0.042947
Si Si2 0.281007 0.332643 0.081322
Si Si3 0.323845 0.049006 0.685117
Si Si4 0.924436 0.883333 0.665180
Si Si5 0.606948 0.829846 0.798144
Si Si6 0.858048 0.837167 0.164929
Si Si7 0.065789 0.947581 0.286366
Si Si8 0.781057 0.921069 0.522771
O O1 0.995197 0.750000 0.170111
O O2 0.013499 0.905602 0.195295
O O3 0.067936 0.823802 0.943469
O O4 0.972791 0.838882 0.787229
O O5 0.271309 0.250000 0.000022
O O6 0.332228 0.335304 0.272146
O O7 0.233412 0.363418 0.249794
O O8 0.302962 0.380054 0.840339
O O9 0.383119 0.050552 0.589887
O O10 0.274288 0.035300 0.498616
O O11 0.321889 0.982785 0.895173
O O12 0.901261 0.853296 0.392697
O O13 0.941641 0.967904 0.646593
O O14 0.880950 0.870147 0.894928
O O15 0.602662 0.750000 0.941672
O O16 0.587856 0.896163 0.980118
O O17 0.851015 0.750000 0.139500
O O18 0.806618 0.877271 0.280187
#
# Coordination Sequence:
#
# PCOD9466734 Si02
#       8
#     8   8   8   8   8   8   8   8
#     4  11  24  44  73 103 144 194 245 303 375 444
#     4  10  22  41  65 101 139 179 237 296 360 434
#     4  11  24  41  68 101 139 186 237 299 361 432
#     4  12  29  49  78 110 146 195 249 309 367 439
#     4   9  21  41  69 102 145 188 238 301 369 439
#     4  12  29  52  75 106 151 198 250 304 363 434
#     4  11  24  43  70 108 145 186 242 307 370 437
#     4  12  24  41  70  97 139 190 243 293 363 428
#
# _framework density 26.991181999999998
#
# number of rings (size 3 to 8) (size 9 to 14) (size 15 to 20)
#    0.000    1.000    2.500    3.000    7.000    2.000 
#    0.000    0.000    0.000    0.000    0.000    0.000 
#    0.000    0.000    0.000    0.000    0.000    0.000 
#
# Total GULP energy -358374.062377 kJ/mol
# GULP energy per Si atom -5599.594725 kJ/mol
# Density = 2.692975 g / cm^3
# Si number density = 26.991182 Si / 1000 Ang^3
#
#
#
# Elastic Constant Matrix: (Units=GPa)
#
#
# Indices 1 2 3 4 5 6 
#
# 1 107.6612 12.7398 12.6204 0.0000 0.0000 0.0000
# 2 12.7398 201.9756 30.6228 0.0000 0.0000 0.0000
# 3 12.6204 30.6228 77.3814 0.0000 0.0000 0.0000
# 4 0.0000 0.0000 0.0000 33.7285 0.0000 0.0000
# 5 0.0000 0.0000 0.0000 0.0000 54.0168 0.0000
# 6 0.0000 0.0000 0.0000 0.0000 0.0000 26.4291
#
#
#
# Elastic Compliance Matrix: (Units=1/GPa)
#
#
# Indices 1 2 3 4 5 6 
#
# 1 0.009498 -0.000387 -0.001396 0.000000 0.000000 0.000000
# 2 -0.000387 0.005283 -0.002027 0.000000 0.000000 0.000000
# 3 -0.001396 -0.002027 0.013953 0.000000 0.000000 0.000000
# 4 0.000000 0.000000 0.000000 0.029649 0.000000 0.000000
# 5 0.000000 0.000000 0.000000 0.000000 0.018513 0.000000
# 6 0.000000 0.000000 0.000000 0.000000 0.000000 0.037837
#
#
# Mechanical properties :
#
#
# Convention : Reuss Voigt Hill
#
# Bulk Modulus (GPa) = 47.36534 55.44271 51.40403
# Shear Modulus (GPa) = 38.64259 44.90389 41.77324
#
# Velocity S-wave (km/s) = 3.78785 4.08321 3.93830
# Velocity P-wave (km/s) = 6.05945 6.54338 6.30606
#
# Compressibility (1/GPa) = 0.02111248
#
# Stress axis : x y z
#
# Youngs Moduli (GPa) = 105.28687 189.28887 71.66923
#
# Poissons Ratio (x) = 0.07334 0.10003
# Poissons Ratio (y) = 0.04080 0.14531
# Poissons Ratio (z) = 0.14695 0.38378
#
# Static dielectric constant tensor:
#      x y z
#    x 2.190450 0.000000 0.000000 
#    y 0.000000 2.145350 0.000000 
#    z 0.000000 0.000000 2.176740 
# 
# From -- ./inp_files/3696.got.cif
#   From: 2010.05.17/outbox.cif.g08.bks.cpg/sg62_2_cif.got.tgz:3696.got - 2010.06.03 15:25:27.
