data_PCOD9466896
_publ_section_title
;
Structure prediction by ZEFSAII (Michael W. Deem and Ramdas Pophale) SiO2 
 PCOD9466896
Probable space group: P N M A
;
_chemical_formula_sum "Si O2"
_cell_formula_units_Z 40
_cell_length_a 8.715007
_cell_length_b 12.991818
_cell_length_c 15.808650
_cell_angle_alpha 90.000000
_cell_angle_beta 90.000000
_cell_angle_gamma 90.000000
_cell_volume 1789.915186
_symmetry_space_group_name_H-M "P N M A"
_symmetry_group_IT_number 62
_symmetry_cell_setting 'orthorhombic'
loop_
_space_group_symop_operation_xyz
x,y,z
1/2-x,-y,1/2+z
1/2+x,1/2-y,1/2-z
-x,1/2+y,-z
-x,-y,-z
1/2+x,y,1/2-z
1/2-x,1/2+y,1/2+z
x,1/2-y,z
loop_
_atom_site_type_symbol
_atom_site_label
_atom_site_fract_x
_atom_site_fract_y
_atom_site_fract_z
Si Si1 0.800279 0.250000 0.637089
Si Si2 0.710978 0.141820 0.134483
Si Si3 0.331816 0.045654 0.975759
Si Si4 0.809258 0.030928 0.859945
Si Si5 0.566425 0.750000 0.329319
Si Si6 0.441404 0.066183 0.237018
O O1 0.838422 0.350181 0.578858
O O2 0.617498 0.250000 0.657605
O O3 0.887060 0.250000 0.728535
O O4 0.727796 0.250000 0.088639
O O5 0.538336 0.127110 0.167692
O O6 0.821066 0.137066 0.215098
O O7 0.746267 0.041303 0.081804
O O8 0.500000 0.000000 0.000000
O O9 0.229854 0.041244 0.060302
O O10 0.861591 0.147827 0.872256
O O11 0.653087 0.026404 0.805210
O O12 0.939531 0.979344 0.803289
#
# Coordination Sequence:
#
# PCOD9466896 Si02
#       6
#     4   8   8   8   4   8
#     4  12  30  52  78 112 154 199 255 305 382 445
#     4  11  23  42  69 101 138 183 237 290 364 431
#     4  12  28  46  72 106 152 191 242 308 374 435
#     4  11  24  45  72 105 145 185 250 303 369 434
#     4  12  26  46  84 110 144 205 257 311 360 463
#     4  10  22  44  68  98 139 188 238 298 351 449
#
# _framework density 22.347429999999999
#
# number of rings (size 3 to 8) (size 9 to 14) (size 15 to 20)
#    0.000    0.800    2.000    5.400    5.600    3.200 
#    9.000    0.000    0.000    0.000    0.000    0.000 
#    0.000    0.000    0.000    0.000    0.000    0.000 
#
# Total GULP energy -223553.770261 kJ/mol
# GULP energy per Si atom -5588.844257 kJ/mol
# Density = 2.229657 g / cm^3
# Si number density = 22.347430 Si / 1000 Ang^3
#
#
#
# Elastic Constant Matrix: (Units=GPa)
#
#
# Indices 1 2 3 4 5 6 
#
# 1 105.6820 15.4073 31.3412 0.0000 0.0000 0.0000
# 2 15.4073 132.3012 19.8348 0.0000 0.0000 0.0000
# 3 31.3412 19.8348 79.4001 0.0000 0.0000 0.0000
# 4 0.0000 0.0000 0.0000 691.2686 0.0000 0.0000
# 5 0.0000 0.0000 0.0000 0.0000 25.9055 0.0000
# 6 0.0000 0.0000 0.0000 0.0000 0.0000 3.6980
#
#
#
# Elastic Compliance Matrix: (Units=1/GPa)
#
#
# Indices 1 2 3 4 5 6 
#
# 1 0.010769 -0.000641 -0.004091 0.000000 0.000000 0.000000
# 2 -0.000641 0.007891 -0.001718 0.000000 0.000000 0.000000
# 3 -0.004091 -0.001718 0.014638 0.000000 0.000000 0.000000
# 4 0.000000 0.000000 0.000000 0.001447 0.000000 0.000000
# 5 0.000000 0.000000 0.000000 0.000000 0.038602 0.000000
# 6 0.000000 0.000000 0.000000 0.000000 0.000000 0.270413
#
#
# Mechanical properties :
#
#
# Convention : Reuss Voigt Hill
#
# Bulk Modulus (GPa) = 49.02306 50.06110 49.54208
# Shear Modulus (GPa) = 13.75672 160.89443 87.32557
#
# Velocity S-wave (km/s) = 2.48379 8.49430 6.25789
# Velocity P-wave (km/s) = 5.49636 10.89285 8.62740
#
# Compressibility (1/GPa) = 0.02039856
#
# Stress axis : x y z
#
# Youngs Moduli (GPa) = 92.85998 126.73082 68.31370
#
# Poissons Ratio (x) = 0.08121 0.27945
# Poissons Ratio (y) = 0.05951 0.11738
# Poissons Ratio (z) = 0.37986 0.21775
#
# Static dielectric constant tensor:
#      x y z
#    x 1.839180 0.000000 0.000000 
#    y 0.000000 1.836230 0.000000 
#    z 0.000000 0.000000 1.897930 
# 
# From -- ./inp_files/21941.got.cif
#   From: 2010.05.17/outbox.cif.g08.bks.cpg/sg62_11_cif.got.tgz:21941.got - 2010.06.03 15:25:27.
