data_PCOD9466806
_publ_section_title
;
Structure prediction by ZEFSAII (Michael W. Deem and Ramdas Pophale) SiO2 
 PCOD9466806
Probable space group: P N M A
;
_chemical_formula_sum "Si O2"
_cell_formula_units_Z 56
_cell_length_a 13.979297
_cell_length_b 13.828628
_cell_length_c 12.701479
_cell_angle_alpha 90.000000
_cell_angle_beta 90.000000
_cell_angle_gamma 90.000000
_cell_volume 2455.380036
_symmetry_space_group_name_H-M "P N M A"
_symmetry_group_IT_number 62
_symmetry_cell_setting 'orthorhombic'
loop_
_space_group_symop_operation_xyz
x,y,z
1/2-x,-y,1/2+z
1/2+x,1/2-y,1/2-z
-x,1/2+y,-z
-x,-y,-z
1/2+x,y,1/2-z
1/2-x,1/2+y,1/2+z
x,1/2-y,z
loop_
_atom_site_type_symbol
_atom_site_label
_atom_site_fract_x
_atom_site_fract_y
_atom_site_fract_z
Si Si1 0.512602 0.135428 0.083302
Si Si2 0.666152 0.580252 0.765631
Si Si3 0.705473 0.094897 0.635156
Si Si4 0.452317 0.135746 0.431174
Si Si5 0.509258 0.642023 0.340814
Si Si6 0.832278 0.862655 0.910622
Si Si7 0.082581 0.566580 0.370535
O O1 0.536566 0.250000 0.098790
O O2 0.420638 0.107689 0.156187
O O3 0.589441 0.049391 0.106158
O O4 0.478363 0.115339 0.963788
O O5 0.696051 0.471302 0.739726
O O6 0.629165 0.607352 0.649336
O O7 0.760052 0.627509 0.814404
O O8 0.604760 0.149453 0.644005
O O9 0.698632 0.070243 0.508982
O O10 0.816596 0.121785 0.638025
O O11 0.446326 0.250000 0.444500
O O12 0.451572 0.097807 0.550317
O O13 0.557568 0.117753 0.383188
O O14 0.547774 0.750000 0.323928
O O15 0.531297 0.578559 0.240503
O O16 0.825568 0.750000 0.946128
#
# Coordination Sequence:
#
# PCOD9466806 Si02
#       7
#     8   8   8   8   8   8   8
#     4  11  24  44  70 100 137 182 234 291 357 423
#     4  12  23  39  66  98 132 172 226 289 340 413
#     4  11  24  40  65  99 136 181 230 282 345 418
#     4   9  21  40  64  93 128 169 223 283 342 409
#     4  10  22  43  68  99 136 181 237 291 349 417
#     4  10  22  42  67  94 129 179 228 276 343 423
#     4  11  24  45  70 101 141 185 236 291 356 420
#
# _framework density 22.807061000000001
#
# number of rings (size 3 to 8) (size 9 to 14) (size 15 to 20)
#    0.000    1.429    2.857    3.000    2.000    5.143 
#    0.000    1.429    0.000    1.714    0.000    0.000 
#    0.000    0.000    0.000    0.000    0.000    0.000 
#
# Total GULP energy -312114.699943 kJ/mol
# GULP energy per Si atom -5573.476785 kJ/mol
# Density = 2.275515 g / cm^3
# Si number density = 22.807061 Si / 1000 Ang^3
#
#
#
# Elastic Constant Matrix: (Units=GPa)
#
#
# Indices 1 2 3 4 5 6 
#
# 1 55.1689 -2.0287 48.9921 0.0000 0.0000 0.0000
# 2 -2.0287 49.6623 21.2381 0.0000 0.0000 0.0000
# 3 48.9921 21.2381 149.1907 0.0000 0.0000 0.0000
# 4 0.0000 0.0000 0.0000 26.3299 0.0000 0.0000
# 5 0.0000 0.0000 0.0000 0.0000 38.1913 0.0000
# 6 0.0000 0.0000 0.0000 0.0000 0.0000 -141.0366
#
#
#
# Elastic Compliance Matrix: (Units=1/GPa)
#
#
# Indices 1 2 3 4 5 6 
#
# 1 0.026779 0.005169 -0.009530 0.000000 0.000000 0.000000
# 2 0.005169 0.022439 -0.004892 0.000000 0.000000 0.000000
# 3 -0.009530 -0.004892 0.010529 0.000000 0.000000 0.000000
# 4 0.000000 0.000000 0.000000 0.037980 0.000000 0.000000
# 5 0.000000 0.000000 0.000000 0.000000 0.026184 0.000000
# 6 0.000000 0.000000 0.000000 0.000000 0.000000 -0.007090
#
#
# Mechanical properties :
#
#
# Convention : Reuss Voigt Hill
#
# Bulk Modulus (GPa) = 24.24698 43.38054 33.81376
# Shear Modulus (GPa) = 33.54084 -2.91505 15.31289
#
# Velocity S-wave (km/s) = 3.83904 -1.13177 2.59397
# Velocity P-wave (km/s) = 5.50504 4.16582 4.88157
#
# Compressibility (1/GPa) = 0.04124224
#
# Stress axis : x y z
#
# Youngs Moduli (GPa) = 37.34270 44.56494 94.97912
#
# Poissons Ratio (x) = -0.23037 0.90512
# Poissons Ratio (y) = -0.19304 0.46462
# Poissons Ratio (z) = 0.35587 0.21801
#
# Static dielectric constant tensor:
#      x y z
#    x 1.978630 0.000000 0.000000 
#    y 0.000000 1.964010 0.000000 
#    z 0.000000 0.000000 1.848700 
# 
# From -- ./inp_files/13407.got.cif
#   From: 2010.05.17/outbox.cif.g08.bks.cpg/sg62_7_cif.got.tgz:13407.got - 2010.06.03 15:25:27.
