data_PCOD9466320
_publ_section_title
;
Structure prediction by ZEFSAII (Michael W. Deem and Ramdas Pophale) SiO2 
 PCOD9466320
Probable space group: P N M A
;
_chemical_formula_sum "Si O2"
_cell_formula_units_Z 48
_cell_length_a 15.141821
_cell_length_b 7.930305
_cell_length_c 19.128635
_cell_angle_alpha 90.000000
_cell_angle_beta 90.000000
_cell_angle_gamma 90.000000
_cell_volume 2296.952312
_symmetry_space_group_name_H-M "P N M A"
_symmetry_group_IT_number 62
_symmetry_cell_setting 'orthorhombic'
loop_
_space_group_symop_operation_xyz
x,y,z
1/2-x,-y,1/2+z
1/2+x,1/2-y,1/2-z
-x,1/2+y,-z
-x,-y,-z
1/2+x,y,1/2-z
1/2-x,1/2+y,1/2+z
x,1/2-y,z
loop_
_atom_site_type_symbol
_atom_site_label
_atom_site_fract_x
_atom_site_fract_y
_atom_site_fract_z
Si Si1 0.552146 0.046290 0.930137
Si Si2 0.904283 0.046252 0.029459
Si Si3 0.252912 0.448814 0.573615
Si Si4 0.053028 0.550217 0.293534
Si Si5 0.730915 0.052440 0.271582
Si Si6 0.097029 0.545359 0.810757
O O1 0.556077 0.250000 0.924563
O O2 0.653109 0.981534 0.931701
O O3 0.498821 0.984962 0.861873
O O4 0.500000 0.000000 0.000000
O O5 0.899218 0.250000 0.030064
O O6 0.895792 0.987712 0.109387
O O7 0.825516 0.980678 0.979861
O O8 0.000000 0.000000 0.000000
O O9 0.246019 0.250000 0.558221
O O10 0.284109 0.468640 0.653417
O O11 0.065346 0.750000 0.301207
O O12 0.991312 0.514850 0.226947
O O13 0.148004 0.471150 0.279193
O O14 0.743082 0.250000 0.285284
O O15 0.819560 0.986285 0.234945
O O16 0.097138 0.750000 0.810695
#
# Coordination Sequence:
#
# PCOD9466320 Si02
#       6
#     8   8   8   8   8   8
#     4  10  23  40  61  88 121 160 203 251 302 360
#     4  10  22  39  60  86 117 154 195 242 296 353
#     4  10  21  41  64  87 121 161 200 246 302 360
#     4  11  23  40  62  89 121 158 199 248 302 358
#     4  11  23  38  62  91 120 157 199 249 301 357
#     4  10  22  40  61  88 119 154 200 247 296 354
#
# _framework density 20.897255999999999
#
# number of rings (size 3 to 8) (size 9 to 14) (size 15 to 20)
#    0.000    1.667    1.667    2.000    2.333    6.667 
#    0.000    0.000    0.000    0.000    0.000    0.000 
#    0.000    0.000    0.000    0.000    0.000    0.000 
#
# Total GULP energy -268299.457556 kJ/mol
# GULP energy per Si atom -5589.572032 kJ/mol
# Density = 2.084969 g / cm^3
# Si number density = 20.897256 Si / 1000 Ang^3
#
#
#
# Elastic Constant Matrix: (Units=GPa)
#
#
# Indices 1 2 3 4 5 6 
#
# 1 76.1050 -5.5633 -0.5335 0.0000 0.0000 0.0000
# 2 -5.5633 13.5921 -7.2592 0.0000 0.0000 0.0000
# 3 -0.5335 -7.2592 91.5403 0.0000 0.0000 0.0000
# 4 0.0000 0.0000 0.0000 24.7797 0.0000 0.0000
# 5 0.0000 0.0000 0.0000 0.0000 42.6936 0.0000
# 6 0.0000 0.0000 0.0000 0.0000 0.0000 26.9851
#
#
#
# Elastic Compliance Matrix: (Units=1/GPa)
#
#
# Indices 1 2 3 4 5 6 
#
# 1 0.013571 0.005844 0.000543 0.000000 0.000000 0.000000
# 2 0.005844 0.079343 0.006326 0.000000 0.000000 0.000000
# 3 0.000543 0.006326 0.011429 0.000000 0.000000 0.000000
# 4 0.000000 0.000000 0.000000 0.040356 0.000000 0.000000
# 5 0.000000 0.000000 0.000000 0.000000 0.023423 0.000000
# 6 0.000000 0.000000 0.000000 0.000000 0.000000 0.037057
#
#
# Mechanical properties :
#
#
# Convention : Reuss Voigt Hill
#
# Bulk Modulus (GPa) = 7.70605 17.16949 12.43777
# Shear Modulus (GPa) = 22.42067 31.86458 27.14263
#
# Velocity S-wave (km/s) = 3.27907 3.90913 3.60788
# Velocity P-wave (km/s) = 4.24641 5.34875 4.82913
#
# Compressibility (1/GPa) = 0.12976809
#
# Stress axis : x y z
#
# Youngs Moduli (GPa) = 73.68781 12.60356 87.49696
#
# Poissons Ratio (x) = -0.07366 -0.04747
# Poissons Ratio (y) = -0.43065 -0.55351
# Poissons Ratio (z) = -0.03998 -0.07973
#
# Static dielectric constant tensor:
#      x y z
#    x 1.725170 0.000000 0.000000 
#    y 0.000000 1.755760 0.000000 
#    z 0.000000 0.000000 1.724140 
# 
# From -- ./inp_files/23652.got.cif
#   From: 2010.05.17/outbox.cif.g08.bks.cpg/sg62_12_cif.got.tgz:23652.got - 2010.06.03 15:25:27.
