data_PCOD9466565
_publ_section_title
;
Structure prediction by ZEFSAII (Michael W. Deem and Ramdas Pophale) SiO2 
 PCOD9466565
Probable space group: P N M A
;
_chemical_formula_sum "Si O2"
_cell_formula_units_Z 56
_cell_length_a 11.138654
_cell_length_b 15.913972
_cell_length_c 15.234130
_cell_angle_alpha 90.000000
_cell_angle_beta 90.000000
_cell_angle_gamma 90.000000
_cell_volume 2700.405355
_symmetry_space_group_name_H-M "P N M A"
_symmetry_group_IT_number 62
_symmetry_cell_setting 'orthorhombic'
loop_
_space_group_symop_operation_xyz
x,y,z
1/2-x,-y,1/2+z
1/2+x,1/2-y,1/2-z
-x,1/2+y,-z
-x,-y,-z
1/2+x,y,1/2-z
1/2-x,1/2+y,1/2+z
x,1/2-y,z
loop_
_atom_site_type_symbol
_atom_site_label
_atom_site_fract_x
_atom_site_fract_y
_atom_site_fract_z
Si Si1 0.173625 0.656341 0.127019
Si Si2 0.194769 0.655971 0.335983
Si Si3 0.763713 0.992402 0.963541
Si Si4 0.429994 0.491765 0.909822
Si Si5 0.242737 0.848255 0.676108
Si Si6 0.066217 0.064686 0.900768
Si Si7 0.493617 0.085279 0.265329
O O1 0.209931 0.750000 0.097432
O O2 0.175193 0.655834 0.232033
O O3 0.246773 0.575135 0.095253
O O4 0.040970 0.631873 0.094806
O O5 0.197012 0.750000 0.369815
O O6 0.088099 0.603654 0.379836
O O7 0.320715 0.612114 0.356765
O O8 0.721887 0.912645 0.905765
O O9 0.700042 0.017886 0.054749
O O10 0.890371 0.963720 0.002987
O O11 0.475313 0.542918 0.827993
O O12 0.500000 0.500000 0.000000
O O13 0.235504 0.750000 0.651854
O O14 0.133738 0.867195 0.745918
O O15 0.380626 0.867643 0.708590
O O16 0.028610 0.988111 0.836787
#
# Coordination Sequence:
#
# PCOD9466565 Si02
#       7
#     8   8   8   8   8   8   8
#     4  11  22  39  64  96 132 170 221 280 341 412
#     4  10  22  39  61  96 135 175 226 280 346 418
#     4  11  23  43  65  99 134 179 227 287 352 403
#     4  11  22  41  69  91 129 179 225 283 346 409
#     4  12  26  45  72 104 143 187 241 290 344 417
#     4  11  22  40  68  93 132 183 224 282 345 421
#     4  12  24  48  72 100 139 188 238 283 353 420
#
# _framework density 20.737627
#
# number of rings (size 3 to 8) (size 9 to 14) (size 15 to 20)
#    0.000    0.857    4.286    3.857    0.000    2.857 
#    0.000    4.286    0.000    0.000    0.000    0.000 
#    0.000    0.000    0.000    0.000    0.000    0.000 
#
# Total GULP energy -312115.221187 kJ/mol
# GULP energy per Si atom -5573.486093 kJ/mol
# Density = 2.069043 g / cm^3
# Si number density = 20.737627 Si / 1000 Ang^3
#
#
#
# Elastic Constant Matrix: (Units=GPa)
#
#
# Indices 1 2 3 4 5 6 
#
# 1 62.1302 28.8481 3.0961 0.0000 0.0000 0.0000
# 2 28.8481 170.9088 51.0316 0.0000 0.0000 0.0000
# 3 3.0961 51.0316 89.0393 0.0000 0.0000 0.0000
# 4 0.0000 0.0000 0.0000 19.1567 0.0000 0.0000
# 5 0.0000 0.0000 0.0000 0.0000 46.6032 0.0000
# 6 0.0000 0.0000 0.0000 0.0000 0.0000 17.4451
#
#
#
# Elastic Compliance Matrix: (Units=1/GPa)
#
#
# Indices 1 2 3 4 5 6 
#
# 1 0.017591 -0.003362 0.001315 0.000000 0.000000 0.000000
# 2 -0.003362 0.007702 -0.004297 0.000000 0.000000 0.000000
# 3 0.001315 -0.004297 0.013648 0.000000 0.000000 0.000000
# 4 0.000000 0.000000 0.000000 0.052201 0.000000 0.000000
# 5 0.000000 0.000000 0.000000 0.000000 0.021458 0.000000
# 6 0.000000 0.000000 0.000000 0.000000 0.000000 0.057323
#
#
# Mechanical properties :
#
#
# Convention : Reuss Voigt Hill
#
# Bulk Modulus (GPa) = 38.09148 54.22556 46.15852
# Shear Modulus (GPa) = 26.12870 32.58118 29.35494
#
# Velocity S-wave (km/s) = 3.55345 3.96803 3.76645
# Velocity P-wave (km/s) = 5.93668 6.87014 6.42040
#
# Compressibility (1/GPa) = 0.02625259
#
# Stress axis : x y z
#
# Youngs Moduli (GPa) = 56.84839 129.84286 73.27016
#
# Poissons Ratio (x) = 0.43651 -0.09636
# Poissons Ratio (y) = 0.19112 0.31485
# Poissons Ratio (z) = -0.07476 0.55796
#
# Static dielectric constant tensor:
#      x y z
#    x 2.369190 0.000000 0.000000 
#    y 0.000000 1.744450 0.000000 
#    z 0.000000 0.000000 2.318640 
# 
# From -- ./inp_files/18100.got.cif
#   From: 2010.05.17/outbox.cif.g08.bks.cpg/sg62_10_cif.got.tgz:18100.got - 2010.06.03 15:25:27.
