data_PCOD9466277
_publ_section_title
;
Structure prediction by ZEFSAII (Michael W. Deem and Ramdas Pophale) SiO2 
 PCOD9466277
Probable space group: P N M A
;
_chemical_formula_sum "Si O2"
_cell_formula_units_Z 64
_cell_length_a 15.366907
_cell_length_b 19.179642
_cell_length_c 11.002471
_cell_angle_alpha 90.000000
_cell_angle_beta 90.000000
_cell_angle_gamma 90.000000
_cell_volume 3242.777806
_symmetry_space_group_name_H-M "P N M A"
_symmetry_group_IT_number 62
_symmetry_cell_setting 'orthorhombic'
loop_
_space_group_symop_operation_xyz
x,y,z
1/2-x,-y,1/2+z
1/2+x,1/2-y,1/2-z
-x,1/2+y,-z
-x,-y,-z
1/2+x,y,1/2-z
1/2-x,1/2+y,1/2+z
x,1/2-y,z
loop_
_atom_site_type_symbol
_atom_site_label
_atom_site_fract_x
_atom_site_fract_y
_atom_site_fract_z
Si Si1 0.468739 0.569914 0.780948
Si Si2 0.167511 0.170888 0.408283
Si Si3 0.247426 0.172670 0.152912
Si Si4 0.044035 0.333405 0.786793
Si Si5 0.712305 0.395049 0.841970
Si Si6 0.110944 0.929229 0.289363
Si Si7 0.954199 0.669928 0.927998
Si Si8 0.140676 0.542469 0.571280
O O1 0.407280 0.616962 0.867622
O O2 0.418448 0.502451 0.729426
O O3 0.497126 0.617953 0.668062
O O4 0.548590 0.543618 0.860720
O O5 0.132439 0.250000 0.412539
O O6 0.235870 0.168493 0.298064
O O7 0.209446 0.150769 0.535793
O O8 0.279663 0.250000 0.119613
O O9 0.149609 0.165610 0.099440
O O10 0.306731 0.110962 0.108525
O O11 0.042934 0.250000 0.765606
O O12 0.135758 0.365199 0.743492
O O13 0.967282 0.373935 0.717755
O O14 0.030966 0.345626 0.930900
O O15 0.803862 0.397641 0.773358
O O16 0.689380 0.473154 0.885334
O O17 0.129271 0.952391 0.427192
O O18 0.980254 0.750000 0.904125
#
# Coordination Sequence:
#
# PCOD9466277 Si02
#       8
#     8   8   8   8   8   8   8   8
#     4  11  21  42  65  93 128 164 217 270 319 375
#     4  10  21  40  66  94 125 167 216 266 321 379
#     4   9  20  39  63  93 125 164 216 271 318 380
#     4  11  25  45  65  96 133 170 214 263 322 394
#     4  12  24  41  66  94 130 176 208 264 327 383
#     4  12  26  43  65  95 133 170 216 264 324 388
#     4   9  20  41  65  91 128 167 211 266 320 377
#     4  12  24  40  64  93 131 165 219 268 319 380
#
# _framework density 19.736166000000001
#
# number of rings (size 3 to 8) (size 9 to 14) (size 15 to 20)
#    0.000    1.250    2.500    4.875    0.000    4.000 
#    0.000    2.500    0.000    0.000    0.000    0.000 
#    0.000    0.000    0.000    0.000    0.000    0.000 
#
# Total GULP energy -357714.818389 kJ/mol
# GULP energy per Si atom -5589.294037 kJ/mol
# Density = 1.969125 g / cm^3
# Si number density = 19.736166 Si / 1000 Ang^3
#
#
#
# Elastic Constant Matrix: (Units=GPa)
#
#
# Indices 1 2 3 4 5 6 
#
# 1 34.0791 9.1960 -15.4405 0.0000 0.0000 0.0000
# 2 9.1960 75.9112 3.0243 0.0000 0.0000 0.0000
# 3 -15.4405 3.0243 43.6945 0.0000 0.0000 0.0000
# 4 0.0000 0.0000 0.0000 33.7255 0.0000 0.0000
# 5 0.0000 0.0000 0.0000 0.0000 17.9054 0.0000
# 6 0.0000 0.0000 0.0000 0.0000 0.0000 24.0072
#
#
#
# Elastic Compliance Matrix: (Units=1/GPa)
#
#
# Indices 1 2 3 4 5 6 
#
# 1 0.036723 -0.004979 0.013321 0.000000 0.000000 0.000000
# 2 -0.004979 0.013885 -0.002721 0.000000 0.000000 0.000000
# 3 0.013321 -0.002721 0.027782 0.000000 0.000000 0.000000
# 4 0.000000 0.000000 0.000000 0.029651 0.000000 0.000000
# 5 0.000000 0.000000 0.000000 0.000000 0.055849 0.000000
# 6 0.000000 0.000000 0.000000 0.000000 0.000000 0.041654
#
#
# Mechanical properties :
#
#
# Convention : Reuss Voigt Hill
#
# Bulk Modulus (GPa) = 11.15664 16.36048 13.75856
# Shear Modulus (GPa) = 22.30366 25.58796 23.94581
#
# Velocity S-wave (km/s) = 3.36533 3.60460 3.48702
# Velocity P-wave (km/s) = 4.55695 5.06279 4.81651
#
# Compressibility (1/GPa) = 0.08963269
#
# Stress axis : x y z
#
# Youngs Moduli (GPa) = 27.23106 72.02079 35.99459
#
# Poissons Ratio (x) = 0.35862 -0.47950
# Poissons Ratio (y) = 0.13559 0.09793
# Poissons Ratio (z) = -0.36276 0.19594
#
# Static dielectric constant tensor:
#      x y z
#    x 1.683280 0.000000 0.000000 
#    y 0.000000 1.698330 0.000000 
#    z 0.000000 0.000000 1.690090 
# 
# From -- ./inp_files/13580.got.cif
#   From: 2010.05.17/outbox.cif.g08.bks.cpg/sg62_7_cif.got.tgz:13580.got - 2010.06.03 15:25:27.
