data_PCOD9466170
_publ_section_title
;
Structure prediction by ZEFSAII (Michael W. Deem and Ramdas Pophale) SiO2 
 PCOD9466170
Probable space group: P N M A
;
_chemical_formula_sum "Si O2"
_cell_formula_units_Z 40
_cell_length_a 22.571893
_cell_length_b 9.856223
_cell_length_c 8.862881
_cell_angle_alpha 90.000000
_cell_angle_beta 90.000000
_cell_angle_gamma 90.000000
_cell_volume 1971.757139
_symmetry_space_group_name_H-M "P N M A"
_symmetry_group_IT_number 62
_symmetry_cell_setting 'orthorhombic'
loop_
_space_group_symop_operation_xyz
x,y,z
1/2-x,-y,1/2+z
1/2+x,1/2-y,1/2-z
-x,1/2+y,-z
-x,-y,-z
1/2+x,y,1/2-z
1/2-x,1/2+y,1/2+z
x,1/2-y,z
loop_
_atom_site_type_symbol
_atom_site_label
_atom_site_fract_x
_atom_site_fract_y
_atom_site_fract_z
Si Si1 0.024961 0.750000 0.259844
Si Si2 0.882733 0.750000 0.724485
Si Si3 0.519591 0.750000 0.877080
Si Si4 0.352919 0.750000 0.102866
Si Si5 0.264791 0.750000 0.378791
Si Si6 0.162167 0.750000 0.185810
Si Si7 0.158352 0.029888 0.038329
Si Si8 0.431211 0.973894 0.261486
O O1 0.023910 0.750000 0.441957
O O2 0.091680 0.750000 0.204544
O O3 0.988898 0.617923 0.205399
O O4 0.842633 0.750000 0.574548
O O5 0.869002 0.619380 0.826744
O O6 0.950688 0.750000 0.670889
O O7 0.549982 0.615533 0.810242
O O8 0.297657 0.750000 0.216022
O O9 0.392304 0.881399 0.147493
O O10 0.195680 0.750000 0.345638
O O11 0.289062 0.880550 0.467062
O O12 0.179056 0.613986 0.098325
O O13 0.108520 0.011056 0.910220
#
# Coordination Sequence:
#
# PCOD9466170 Si02
#       8
#     4   4   4   4   4   4   8   8
#     4  11  23  37  61  97 136 166 206 263 325 387
#     4  11  21  37  66  93 124 172 215 245 323 403
#     4  12  22  33  61  98 132 163 209 254 329 389
#     4   9  20  39  66  83 120 175 210 256 321 379
#     4   9  23  49  63  86 129 166 213 266 319 376
#     4  12  25  41  67  97 129 158 223 272 309 382
#     4  10  24  43  66  95 123 173 217 260 326 373
#     4  10  21  40  60  91 135 165 203 261 319 391
#
# _framework density 20.286474999999999
#
# number of rings (size 3 to 8) (size 9 to 14) (size 15 to 20)
#    0.000    1.600    2.000    4.200    2.800    6.400 
#    3.600    1.000    0.000    0.000    0.000    0.000 
#    0.000    0.000    0.000    0.000    0.000    0.000 
#
# Total GULP energy -223729.615664 kJ/mol
# GULP energy per Si atom -5593.240392 kJ/mol
# Density = 2.024030 g / cm^3
# Si number density = 20.286475 Si / 1000 Ang^3
#
#
#
# Elastic Constant Matrix: (Units=GPa)
#
#
# Indices 1 2 3 4 5 6 
#
# 1 49.6097 22.5120 -6.0861 0.0000 0.0000 0.0000
# 2 22.5120 158.5851 29.7221 0.0000 0.0000 0.0000
# 3 -6.0861 29.7221 85.1677 0.0000 0.0000 0.0000
# 4 0.0000 0.0000 0.0000 3.6371 0.0000 0.0000
# 5 0.0000 0.0000 0.0000 0.0000 28.1201 0.0000
# 6 0.0000 0.0000 0.0000 0.0000 0.0000 6.7969
#
#
#
# Elastic Compliance Matrix: (Units=1/GPa)
#
#
# Indices 1 2 3 4 5 6 
#
# 1 0.022183 -0.003687 0.002872 0.000000 0.000000 0.000000
# 2 -0.003687 0.007360 -0.002832 0.000000 0.000000 0.000000
# 3 0.002872 -0.002832 0.012935 0.000000 0.000000 0.000000
# 4 0.000000 0.000000 0.000000 0.274941 0.000000 0.000000
# 5 0.000000 0.000000 0.000000 0.000000 0.035562 0.000000
# 6 0.000000 0.000000 0.000000 0.000000 0.000000 0.147125
#
#
# Mechanical properties :
#
#
# Convention : Reuss Voigt Hill
#
# Bulk Modulus (GPa) = 28.42249 42.85094 35.63671
# Shear Modulus (GPa) = 9.63153 24.19181 16.91167
#
# Velocity S-wave (km/s) = 2.18130 3.45702 2.89042
# Velocity P-wave (km/s) = 4.51498 6.09126 5.36137
#
# Compressibility (1/GPa) = 0.03518341
#
# Stress axis : x y z
#
# Youngs Moduli (GPa) = 45.07984 135.87027 77.30905
#
# Poissons Ratio (x) = 0.50099 -0.22203
# Poissons Ratio (y) = 0.16622 0.21894
# Poissons Ratio (z) = -0.12947 0.38478
#
# Static dielectric constant tensor:
#      x y z
#    x 1.723410 0.000000 0.000000 
#    y 0.000000 1.691980 0.000000 
#    z 0.000000 0.000000 1.699150 
# 
# From -- ./inp_files/9173.got.cif
#   From: 2010.05.17/outbox.cif.g08.bks.cpg/sg62_5_cif.got.tgz:9173.got - 2010.06.03 15:25:27.
