data_PCOD9466261
_publ_section_title
;
Structure prediction by ZEFSAII (Michael W. Deem and Ramdas Pophale) SiO2 
 PCOD9466261
Probable space group: P N M A
;
_chemical_formula_sum "Si O2"
_cell_formula_units_Z 64
_cell_length_a 14.872962
_cell_length_b 11.951115
_cell_length_c 13.917143
_cell_angle_alpha 90.000000
_cell_angle_beta 90.000000
_cell_angle_gamma 90.000000
_cell_volume 2473.751004
_symmetry_space_group_name_H-M "P N M A"
_symmetry_group_IT_number 62
_symmetry_cell_setting 'orthorhombic'
loop_
_space_group_symop_operation_xyz
x,y,z
1/2-x,-y,1/2+z
1/2+x,1/2-y,1/2-z
-x,1/2+y,-z
-x,-y,-z
1/2+x,y,1/2-z
1/2-x,1/2+y,1/2+z
x,1/2-y,z
loop_
_atom_site_type_symbol
_atom_site_label
_atom_site_fract_x
_atom_site_fract_y
_atom_site_fract_z
Si Si1 0.268913 0.371385 0.268754
Si Si2 0.560546 0.871264 0.255130
Si Si3 0.736651 0.875217 0.151983
Si Si4 0.522130 0.905123 0.749907
Si Si5 0.012702 0.627511 0.540027
Si Si6 0.519490 0.873906 0.538302
Si Si7 0.195343 0.628588 0.063524
Si Si8 0.222427 0.594796 0.558422
O O1 0.240902 0.250000 0.313191
O O2 0.255387 0.498134 0.309422
O O3 0.376029 0.367020 0.254130
O O4 0.233101 0.371497 0.158533
O O5 0.520469 0.750000 0.264802
O O6 0.627949 0.874262 0.164965
O O7 0.627578 0.889364 0.346118
O O8 0.484091 0.961435 0.250503
O O9 0.762826 0.750000 0.193372
O O10 0.768016 0.872566 0.041627
O O11 0.475992 0.872189 0.849493
O O12 0.484266 0.871083 0.646861
O O13 0.984811 0.750000 0.496343
O O14 0.120522 0.632708 0.551893
O O15 0.000000 0.500000 0.500000
O O16 0.494380 0.750000 0.494777
O O17 0.628384 0.874160 0.527375
O O18 0.500000 0.000000 0.500000
O O19 0.234910 0.750000 0.073323
O O20 0.272074 0.538772 0.059328
#
# Coordination Sequence:
#
# PCOD9466261 Si02
#       8
#     8   8   8   8   8   8   8   8
#     4  11  24  43  65  93 130 170 215 267 327 385
#     4  10  21  40  65  96 133 172 215 269 326 386
#     4  11  23  42  67  95 130 170 217 267 326 390
#     4  11  22  40  67  93 128 173 217 267 321 387
#     4  11  25  46  70  97 132 173 223 277 334 392
#     4  11  22  39  62  92 130 172 214 261 321 384
#     4  10  21  40  65  94 133 174 215 268 325 387
#     4  11  22  41  69  95 128 172 219 269 327 386
#
# _framework density 25.871642999999999
#
# number of rings (size 3 to 8) (size 9 to 14) (size 15 to 20)
#    0.000    1.250    2.500    4.500    0.000    4.000 
#    0.000   10.000    0.000    0.000    0.000    0.000 
#    0.000    0.000    0.000    0.000    0.000    0.000 
#
# Total GULP energy -356580.752857 kJ/mol
# GULP energy per Si atom -5571.574263 kJ/mol
# Density = 2.581276 g / cm^3
# Si number density = 25.871643 Si / 1000 Ang^3
#
#
#
# Elastic Constant Matrix: (Units=GPa)
#
#
# Indices 1 2 3 4 5 6 
#
# 1 32.9031 45.7830 -10.1183 0.0000 0.0000 0.0000
# 2 45.7830 332.8653 54.7121 0.0000 0.0000 0.0000
# 3 -10.1183 54.7121 133.1392 0.0000 0.0000 0.0000
# 4 0.0000 0.0000 0.0000 14.1371 0.0000 0.0000
# 5 0.0000 0.0000 0.0000 0.0000 15.7623 0.0000
# 6 0.0000 0.0000 0.0000 0.0000 0.0000 15.5577
#
#
#
# Elastic Compliance Matrix: (Units=1/GPa)
#
#
# Indices 1 2 3 4 5 6 
#
# 1 0.041496 -0.006677 0.005897 0.000000 0.000000 0.000000
# 2 -0.006677 0.004296 -0.002273 0.000000 0.000000 0.000000
# 3 0.005897 -0.002273 0.008893 0.000000 0.000000 0.000000
# 4 0.000000 0.000000 0.000000 0.070736 0.000000 0.000000
# 5 0.000000 0.000000 0.000000 0.000000 0.063442 0.000000
# 6 0.000000 0.000000 0.000000 0.000000 0.000000 0.064277
#
#
# Mechanical properties :
#
#
# Convention : Reuss Voigt Hill
#
# Bulk Modulus (GPa) = 20.58418 75.51789 48.05104
# Shear Modulus (GPa) = 18.15284 36.32681 27.23983
#
# Velocity S-wave (km/s) = 2.65174 3.75122 3.24834
# Velocity P-wave (km/s) = 4.16524 6.92929 5.71683
#
# Compressibility (1/GPa) = 0.04858100
#
# Stress axis : x y z
#
# Youngs Moduli (GPa) = 24.09853 232.76652 112.44619
#
# Poissons Ratio (x) = 1.55414 -0.66314
# Poissons Ratio (y) = 0.16090 0.25558
# Poissons Ratio (z) = -0.14212 0.52905
#
# Static dielectric constant tensor:
#      x y z
#    x 1.965100 0.000000 0.000000 
#    y 0.000000 2.072700 0.000000 
#    z 0.000000 0.000000 2.241340 
# 
# From -- ./inp_files/19908.got.cif
#   From: 2010.05.17/outbox.cif.g08.bks.cpg/sg62_10_cif.got.tgz:19908.got - 2010.06.03 15:25:27.
