data_PCOD9466741
_publ_section_title
;
Structure prediction by ZEFSAII (Michael W. Deem and Ramdas Pophale) SiO2 
 PCOD9466741
Probable space group: P N M A
;
_chemical_formula_sum "Si O2"
_cell_formula_units_Z 48
_cell_length_a 5.081030
_cell_length_b 16.118717
_cell_length_c 24.215406
_cell_angle_alpha 90.000000
_cell_angle_beta 90.000000
_cell_angle_gamma 90.000000
_cell_volume 1983.234115
_symmetry_space_group_name_H-M "P N M A"
_symmetry_group_IT_number 62
_symmetry_cell_setting 'orthorhombic'
loop_
_space_group_symop_operation_xyz
x,y,z
1/2-x,-y,1/2+z
1/2+x,1/2-y,1/2-z
-x,1/2+y,-z
-x,-y,-z
1/2+x,y,1/2-z
1/2-x,1/2+y,1/2+z
x,1/2-y,z
loop_
_atom_site_type_symbol
_atom_site_label
_atom_site_fract_x
_atom_site_fract_y
_atom_site_fract_z
Si Si1 0.555084 0.900526 0.487264
Si Si2 0.114958 0.087276 0.714658
Si Si3 0.173634 0.405889 0.402810
Si Si4 0.724766 0.250000 0.564912
Si Si5 0.278923 0.750000 0.142263
Si Si6 0.687217 0.505911 0.390888
Si Si7 0.280884 0.651973 0.780565
O O1 0.708660 0.868381 0.540997
O O2 0.335188 0.833450 0.470677
O O3 0.717071 0.915052 0.430705
O O4 0.500000 0.000000 0.500000
O O5 0.315246 0.081887 0.765851
O O6 0.195289 0.020420 0.669027
O O7 0.173711 0.172205 0.682434
O O8 0.381502 0.480522 0.389590
O O9 0.177539 0.356537 0.345742
O O10 0.877847 0.434946 0.414959
O O11 0.006436 0.250000 0.593374
O O12 0.509817 0.250000 0.614809
O O13 0.511774 0.615808 0.742908
O O14 0.268817 0.750000 0.769323
#
# Coordination Sequence:
#
# PCOD9466741 Si02
#       7
#     8   8   8   4   4   8   8
#     4  10  25  46  73 104 142 181 231 289 348 411
#     4  12  25  42  67  98 136 180 236 290 339 412
#     4  11  24  41  70  96 136 177 230 281 351 423
#     4  12  26  45  76 104 136 193 226 291 349 426
#     4  12  26  45  70  96 142 181 242 275 357 408
#     4  11  24  42  66  98 136 181 219 292 351 405
#     4  10  22  41  65  93 132 174 220 287 349 408
#
# _framework density 24.20289
#
# number of rings (size 3 to 8) (size 9 to 14) (size 15 to 20)
#    0.000    1.000    1.667    4.000    5.833    6.667 
#    0.000    0.000    1.833    0.000    0.000    0.000 
#    0.000    0.000    0.000    0.000    0.000    0.000 
#
# Total GULP energy -268330.404460 kJ/mol
# GULP energy per Si atom -5590.216760 kJ/mol
# Density = 2.414780 g / cm^3
# Si number density = 24.202890 Si / 1000 Ang^3
#
#
#
# Elastic Constant Matrix: (Units=GPa)
#
#
# Indices 1 2 3 4 5 6 
#
# 1 85.0619 22.4082 8.9214 0.0000 0.0000 0.0000
# 2 22.4082 63.7791 14.2903 0.0000 0.0000 0.0000
# 3 8.9214 14.2903 91.5951 0.0000 0.0000 0.0000
# 4 0.0000 0.0000 0.0000 48.6516 0.0000 0.0000
# 5 0.0000 0.0000 0.0000 0.0000 41.3908 0.0000
# 6 0.0000 0.0000 0.0000 0.0000 0.0000 28.4938
#
#
#
# Elastic Compliance Matrix: (Units=1/GPa)
#
#
# Indices 1 2 3 4 5 6 
#
# 1 0.012984 -0.004433 -0.000573 0.000000 0.000000 0.000000
# 2 -0.004433 0.017761 -0.002339 0.000000 0.000000 0.000000
# 3 -0.000573 -0.002339 0.011338 0.000000 0.000000 0.000000
# 4 0.000000 0.000000 0.000000 0.020554 0.000000 0.000000
# 5 0.000000 0.000000 0.000000 0.000000 0.024160 0.000000
# 6 0.000000 0.000000 0.000000 0.000000 0.000000 0.035095
#
#
# Mechanical properties :
#
#
# Convention : Reuss Voigt Hill
#
# Bulk Modulus (GPa) = 36.50674 36.85287 36.67980
# Shear Modulus (GPa) = 34.31354 36.69497 35.50426
#
# Velocity S-wave (km/s) = 3.76938 3.89799 3.83422
# Velocity P-wave (km/s) = 5.83615 5.95976 5.89828
#
# Compressibility (1/GPa) = 0.02739220
#
# Stress axis : x y z
#
# Youngs Moduli (GPa) = 77.01682 56.30348 88.19614
#
# Poissons Ratio (x) = 0.24962 0.05053
# Poissons Ratio (y) = 0.34145 0.20630
# Poissons Ratio (z) = 0.04413 0.13170
#
# Static dielectric constant tensor:
#      x y z
#    x 1.901480 0.000000 0.000000 
#    y 0.000000 2.011120 0.000000 
#    z 0.000000 0.000000 1.966850 
# 
# From -- ./inp_files/28344.got.cif
#   From: 2010.05.17/outbox.cif.g08.bks.cpg/sg62_15_cif.got.tgz:28344.got - 2010.06.03 15:25:27.
