data_PCOD9466985
_publ_section_title
;
Structure prediction by ZEFSAII (Michael W. Deem and Ramdas Pophale) SiO2 
 PCOD9466985
Probable space group: P N M A
;
_chemical_formula_sum "Si O2"
_cell_formula_units_Z 40
_cell_length_a 25.378006
_cell_length_b 8.552645
_cell_length_c 7.937247
_cell_angle_alpha 90.000000
_cell_angle_beta 90.000000
_cell_angle_gamma 90.000000
_cell_volume 1722.772128
_symmetry_space_group_name_H-M "P N M A"
_symmetry_group_IT_number 62
_symmetry_cell_setting 'orthorhombic'
loop_
_space_group_symop_operation_xyz
x,y,z
1/2-x,-y,1/2+z
1/2+x,1/2-y,1/2-z
-x,1/2+y,-z
-x,-y,-z
1/2+x,y,1/2-z
1/2-x,1/2+y,1/2+z
x,1/2-y,z
loop_
_atom_site_type_symbol
_atom_site_label
_atom_site_fract_x
_atom_site_fract_y
_atom_site_fract_z
Si Si1 0.319339 0.435267 0.587266
Si Si2 0.572369 0.001820 0.310606
Si Si3 0.453888 0.410674 0.316767
Si Si4 0.398338 0.931574 0.031051
Si Si5 0.296094 0.936438 0.226117
O O1 0.331366 0.250000 0.618527
O O2 0.366430 0.544568 0.655394
O O3 0.263352 0.471180 0.671887
O O4 0.312719 0.466776 0.389336
O O5 0.562081 0.914775 0.487952
O O6 0.516821 0.090461 0.306099
O O7 0.578284 0.957338 0.113984
O O8 0.431986 0.250000 0.242745
O O9 0.430437 0.548517 0.205123
O O10 0.403086 0.750000 0.974810
O O11 0.337979 0.966908 0.077554
O O12 0.299888 0.750000 0.263408
#
# Coordination Sequence:
#
# PCOD9466985 Si02
#       5
#     8   8   8   8   8
#     4  11  23  43  67  96 134 176 224 273 335 404
#     4  11  24  41  66  98 135 179 223 278 333 400
#     4  11  25  44  68 100 136 180 231 284 337 400
#     4  11  24  43  68 100 137 179 224 280 343 405
#     4  10  23  41  65  98 133 171 220 277 335 399
#
# _framework density 23.218392000000001
#
# number of rings (size 3 to 8) (size 9 to 14) (size 15 to 20)
#    0.000    1.200    2.000    3.000    0.000    8.800 
#    0.000    0.000    0.000    0.000    0.000    0.000 
#    0.000    0.000    0.000    0.000    0.000    0.000 
#
# Total GULP energy -222770.637560 kJ/mol
# GULP energy per Si atom -5569.265939 kJ/mol
# Density = 2.316555 g / cm^3
# Si number density = 23.218392 Si / 1000 Ang^3
#
#
#
# Elastic Constant Matrix: (Units=GPa)
#
#
# Indices 1 2 3 4 5 6 
#
# 1 149.7733 31.0884 23.0088 0.0000 0.0000 0.0000
# 2 31.0884 35.1638 22.2387 0.0000 0.0000 0.0000
# 3 23.0088 22.2387 110.0517 0.0000 0.0000 0.0000
# 4 0.0000 0.0000 0.0000 -12.7366 0.0000 0.0000
# 5 0.0000 0.0000 0.0000 0.0000 42.6569 0.0000
# 6 0.0000 0.0000 0.0000 0.0000 0.0000 -36.7073
#
#
#
# Elastic Compliance Matrix: (Units=1/GPa)
#
#
# Indices 1 2 3 4 5 6 
#
# 1 0.008185 -0.007056 -0.000285 0.000000 0.000000 0.000000
# 2 -0.007056 0.038688 -0.006343 0.000000 0.000000 0.000000
# 3 -0.000285 -0.006343 0.010428 0.000000 0.000000 0.000000
# 4 0.000000 0.000000 0.000000 -0.078514 0.000000 0.000000
# 5 0.000000 0.000000 0.000000 0.000000 0.023443 0.000000
# 6 0.000000 0.000000 0.000000 0.000000 0.000000 -0.027243
#
#
# Mechanical properties :
#
#
# Convention : Reuss Voigt Hill
#
# Bulk Modulus (GPa) = 33.40811 49.74005 41.57408
# Shear Modulus (GPa) = 405.41055 13.21946 209.31501
#
# Velocity S-wave (km/s) = 13.22825 2.38870 9.50506
# Velocity P-wave (km/s) = 15.73961 5.39231 11.76462
#
# Compressibility (1/GPa) = 0.02993285
#
# Stress axis : x y z
#
# Youngs Moduli (GPa) = 122.17136 25.84793 95.89562
#
# Poissons Ratio (x) = 0.18238 0.02737
# Poissons Ratio (y) = 0.86204 0.60823
# Poissons Ratio (z) = 0.03488 0.16394
#
# Static dielectric constant tensor:
#      x y z
#    x 1.848200 0.000000 0.000000 
#    y 0.000000 1.866190 0.000000 
#    z 0.000000 0.000000 1.847090 
# 
# From -- ./inp_files/9103.got.cif
#   From: 2010.05.17/outbox.cif.g08.bks.cpg/sg62_5_cif.got.tgz:9103.got - 2010.06.03 15:25:27.
