data_PCOD9466496
_publ_section_title
;
Structure prediction by ZEFSAII (Michael W. Deem and Ramdas Pophale) SiO2 
 PCOD9466496
Probable space group: P N M A
;
_chemical_formula_sum "Si O2"
_cell_formula_units_Z 48
_cell_length_a 7.010547
_cell_length_b 7.890700
_cell_length_c 35.752641
_cell_angle_alpha 90.000000
_cell_angle_beta 90.000000
_cell_angle_gamma 90.000000
_cell_volume 1977.769000
_symmetry_space_group_name_H-M "P N M A"
_symmetry_group_IT_number 62
_symmetry_cell_setting 'orthorhombic'
loop_
_space_group_symop_operation_xyz
x,y,z
1/2-x,-y,1/2+z
1/2+x,1/2-y,1/2-z
-x,1/2+y,-z
-x,-y,-z
1/2+x,y,1/2-z
1/2-x,1/2+y,1/2+z
x,1/2-y,z
loop_
_atom_site_type_symbol
_atom_site_label
_atom_site_fract_x
_atom_site_fract_y
_atom_site_fract_z
Si Si1 0.216197 0.550101 0.511271
Si Si2 0.701166 0.942746 0.827488
Si Si3 0.130434 0.550437 0.589522
Si Si4 0.183725 0.553976 0.932393
Si Si5 0.868049 0.057477 0.148546
Si Si6 0.227162 0.750000 0.219508
Si Si7 0.786437 0.750000 0.194652
O O1 0.218630 0.750000 0.516107
O O2 0.244890 0.478669 0.553437
O O3 0.338983 0.512824 0.474337
O O4 0.000000 0.500000 0.500000
O O5 0.626867 0.750000 0.821203
O O6 0.645847 0.015446 0.868471
O O7 0.930092 0.925849 0.831308
O O8 0.669172 0.080676 0.795415
O O9 0.182146 0.750000 0.593856
O O10 0.909416 0.540146 0.577344
O O11 0.129949 0.750000 0.935305
O O12 0.093396 0.490661 0.893704
O O13 0.786981 0.250000 0.145518
O O14 0.746237 0.920246 0.171043
O O15 0.205924 0.750000 0.263827
O O16 0.016417 0.750000 0.201287
#
# Coordination Sequence:
#
# PCOD9466496 Si02
#       7
#     8   8   8   8   8   4   4
#     4   9  16  27  43  67 100 134 167 210 257 292
#     4   9  18  36  55  72 101 137 166 202 254 302
#     4   8  15  29  48  69  98 132 169 210 249 294
#     4   9  17  30  47  72 100 129 172 213 249 297
#     4   9  19  35  55  74 100 137 167 201 253 305
#     4  10  22  38  54  82 102 132 164 212 252 312
#     4  10  22  38  56  76 110 126 166 210 256 304
#
# _framework density 24.269770999999999
#
# number of rings (size 3 to 8) (size 9 to 14) (size 15 to 20)
#    0.000    3.000    0.000    1.500    1.167    2.000 
#    7.500    0.833    0.000    0.000    0.000    0.000 
#    0.000    0.000    0.000    0.000    0.000    0.000 
#
# Total GULP energy -267854.806961 kJ/mol
# GULP energy per Si atom -5580.308478 kJ/mol
# Density = 2.421453 g / cm^3
# Si number density = 24.269771 Si / 1000 Ang^3
#
#
#
# Elastic Constant Matrix: (Units=GPa)
#
#
# Indices 1 2 3 4 5 6 
#
# 1 58.5361 10.5530 10.6595 0.0000 0.0000 0.0000
# 2 10.5530 97.8703 90.4040 0.0000 0.0000 0.0000
# 3 10.6595 90.4040 197.5313 0.0000 0.0000 0.0000
# 4 0.0000 0.0000 0.0000 41.3193 0.0000 0.0000
# 5 0.0000 0.0000 0.0000 0.0000 39.2814 0.0000
# 6 0.0000 0.0000 0.0000 0.0000 0.0000 -3.2466
#
#
#
# Elastic Compliance Matrix: (Units=1/GPa)
#
#
# Indices 1 2 3 4 5 6 
#
# 1 0.017424 -0.001750 -0.000139 0.000000 0.000000 0.000000
# 2 -0.001750 0.017876 -0.008087 0.000000 0.000000 0.000000
# 3 -0.000139 -0.008087 0.008771 0.000000 0.000000 0.000000
# 4 0.000000 0.000000 0.000000 0.024202 0.000000 0.000000
# 5 0.000000 0.000000 0.000000 0.000000 0.025457 0.000000
# 6 0.000000 0.000000 0.000000 0.000000 0.000000 -0.308019
#
#
# Mechanical properties :
#
#
# Convention : Reuss Voigt Hill
#
# Bulk Modulus (GPa) = 41.46106 64.13007 52.79556
# Shear Modulus (GPa) = -26.83911 31.62557 2.39323
#
# Velocity S-wave (km/s) = -3.32906 3.61374 0.99410
# Velocity P-wave (km/s) = 1.53089 6.62521 4.80817
#
# Compressibility (1/GPa) = 0.02411902
#
# Stress axis : x y z
#
# Youngs Moduli (GPa) = 57.39097 55.93963 114.00951
#
# Poissons Ratio (x) = 0.09790 0.01588
# Poissons Ratio (y) = 0.10044 0.92200
# Poissons Ratio (z) = 0.00799 0.45239
#
# Static dielectric constant tensor:
#      x y z
#    x 2.034480 0.000000 0.000000 
#    y 0.000000 1.916720 0.000000 
#    z 0.000000 0.000000 1.953390 
# 
# From -- ./inp_files/32076.got.cif
#   From: 2010.05.17/outbox.cif.g08.bks.cpg/sg62_17_cif.got.tgz:32076.got - 2010.06.03 15:25:27.
