data_PCOD9466061
_publ_section_title
;
Structure prediction by ZEFSAII (Michael W. Deem and Ramdas Pophale) SiO2 
 PCOD9466061
Probable space group: P N M A
;
_chemical_formula_sum "Si O2"
_cell_formula_units_Z 64
_cell_length_a 14.250911
_cell_length_b 7.846658
_cell_length_c 25.329746
_cell_angle_alpha 90.000000
_cell_angle_beta 90.000000
_cell_angle_gamma 90.000000
_cell_volume 2832.423486
_symmetry_space_group_name_H-M "P N M A"
_symmetry_group_IT_number 62
_symmetry_cell_setting 'orthorhombic'
loop_
_space_group_symop_operation_xyz
x,y,z
1/2-x,-y,1/2+z
1/2+x,1/2-y,1/2-z
-x,1/2+y,-z
-x,-y,-z
1/2+x,y,1/2-z
1/2-x,1/2+y,1/2+z
x,1/2-y,z
loop_
_atom_site_type_symbol
_atom_site_label
_atom_site_fract_x
_atom_site_fract_y
_atom_site_fract_z
Si Si1 0.955844 0.453652 0.443746
Si Si2 0.480277 0.947598 0.755783
Si Si3 0.317400 0.543411 0.367478
Si Si4 0.597140 0.044891 0.527737
Si Si5 0.819216 0.553271 0.252649
Si Si6 0.259536 0.540653 0.561261
Si Si7 0.657103 0.050908 0.329581
Si Si8 0.609881 0.949112 0.140826
O O1 0.953516 0.250000 0.438731
O O2 0.848582 0.515664 0.439004
O O3 0.000000 0.500000 0.500000
O O4 0.024738 0.520976 0.398693
O O5 0.504231 0.750000 0.747336
O O6 0.430390 0.021754 0.703561
O O7 0.574456 0.041856 0.772713
O O8 0.407976 0.957724 0.804109
O O9 0.327620 0.750000 0.365189
O O10 0.387696 0.479790 0.412555
O O11 0.325967 0.483579 0.307187
O O12 0.210219 0.503405 0.383910
O O13 0.602108 0.250000 0.529985
O O14 0.682532 0.987724 0.490199
O O15 0.500000 0.000000 0.500000
O O16 0.788389 0.750000 0.250343
O O17 0.747310 0.461727 0.291287
O O18 0.258538 0.750000 0.562441
O O19 0.313792 0.479554 0.613765
O O20 0.635438 0.250000 0.337439
O O21 0.615601 0.750000 0.153723
#
# Coordination Sequence:
#
# PCOD9466061 Si02
#       8
#     8   8   8   8   8   8   8   8
#     4  11  22  38  62  91 122 159 202 248 305 368
#     4  11  23  37  57  88 123 158 197 248 308 372
#     4   9  20  38  60  85 118 156 197 245 306 363
#     4  10  21  40  62  85 114 154 199 245 295 351
#     4  11  22  38  60  87 119 161 205 250 302 365
#     4   9  20  39  61  82 115 159 197 239 300 362
#     4  10  21  39  61  87 120 158 200 249 305 362
#     4  11  21  39  64  90 121 159 201 250 306 369
#
# _framework density 22.595490000000002
#
# number of rings (size 3 to 8) (size 9 to 14) (size 15 to 20)
#    0.000    1.750    1.250    3.000    1.750    3.500 
#    0.000    5.625    0.000    0.000    0.000    0.000 
#    0.000    0.000    0.000    0.000    0.000    0.000 
#
# Total GULP energy -357725.362999 kJ/mol
# GULP energy per Si atom -5589.458797 kJ/mol
# Density = 2.254406 g / cm^3
# Si number density = 22.595490 Si / 1000 Ang^3
#
#
#
# Elastic Constant Matrix: (Units=GPa)
#
#
# Indices 1 2 3 4 5 6 
#
# 1 32.3378 -5.0596 -26.2768 0.0000 0.0000 0.0000
# 2 -5.0596 36.9505 -3.0974 0.0000 0.0000 0.0000
# 3 -26.2768 -3.0974 79.5500 0.0000 0.0000 0.0000
# 4 0.0000 0.0000 0.0000 19.6287 0.0000 0.0000
# 5 0.0000 0.0000 0.0000 0.0000 41.7460 0.0000
# 6 0.0000 0.0000 0.0000 0.0000 0.0000 18.8015
#
#
#
# Elastic Compliance Matrix: (Units=1/GPa)
#
#
# Indices 1 2 3 4 5 6 
#
# 1 0.044143 0.007291 0.014865 0.000000 0.000000 0.000000
# 2 0.007291 0.028356 0.003512 0.000000 0.000000 0.000000
# 3 0.014865 0.003512 0.017618 0.000000 0.000000 0.000000
# 4 0.000000 0.000000 0.000000 0.050946 0.000000 0.000000
# 5 0.000000 0.000000 0.000000 0.000000 0.023954 0.000000
# 6 0.000000 0.000000 0.000000 0.000000 0.000000 0.053187
#
#
# Mechanical properties :
#
#
# Convention : Reuss Voigt Hill
#
# Bulk Modulus (GPa) = 7.06948 8.88563 7.97755
# Shear Modulus (GPa) = 23.36239 28.25339 25.80789
#
# Velocity S-wave (km/s) = 3.21898 3.53993 3.38327
# Velocity P-wave (km/s) = 4.11720 4.54414 4.33593
#
# Compressibility (1/GPa) = 0.14145313
#
# Stress axis : x y z
#
# Youngs Moduli (GPa) = 22.65349 35.26593 56.76103
#
# Poissons Ratio (x) = -0.25711 -0.84376
# Poissons Ratio (y) = -0.16516 -0.19936
# Poissons Ratio (z) = -0.33675 -0.12386
#
# Static dielectric constant tensor:
#      x y z
#    x 1.834250 0.000000 0.000000 
#    y 0.000000 1.837140 0.000000 
#    z 0.000000 0.000000 1.831700 
# 
# From -- ./inp_files/29835.got.cif
#   From: 2010.05.17/outbox.cif.g08.bks.cpg/sg62_15_cif.got.tgz:29835.got - 2010.06.03 15:25:27.
