data_PCOD9466860
_publ_section_title
;
Structure prediction by ZEFSAII (Michael W. Deem and Ramdas Pophale) SiO2 
 PCOD9466860
Probable space group: P N M A
;
_chemical_formula_sum "Si O2"
_cell_formula_units_Z 48
_cell_length_a 9.154649
_cell_length_b 14.575062
_cell_length_c 17.155570
_cell_angle_alpha 90.000000
_cell_angle_beta 90.000000
_cell_angle_gamma 90.000000
_cell_volume 2289.060444
_symmetry_space_group_name_H-M "P N M A"
_symmetry_group_IT_number 62
_symmetry_cell_setting 'orthorhombic'
loop_
_space_group_symop_operation_xyz
x,y,z
1/2-x,-y,1/2+z
1/2+x,1/2-y,1/2-z
-x,1/2+y,-z
-x,-y,-z
1/2+x,y,1/2-z
1/2-x,1/2+y,1/2+z
x,1/2-y,z
loop_
_atom_site_type_symbol
_atom_site_label
_atom_site_fract_x
_atom_site_fract_y
_atom_site_fract_z
Si Si1 0.554679 0.145206 0.835722
Si Si2 0.602225 0.586024 0.014806
Si Si3 0.315201 0.141400 0.158805
Si Si4 0.616958 0.861891 0.314150
Si Si5 0.017933 0.638380 0.811743
Si Si6 0.090800 0.017562 0.921756
O O1 0.578677 0.250000 0.811695
O O2 0.487598 0.143261 0.921568
O O3 0.717557 0.103792 0.830811
O O4 0.437055 0.111222 0.772601
O O5 0.753737 0.557742 0.054489
O O6 0.500000 0.500000 0.000000
O O7 0.636385 0.624672 0.929399
O O8 0.308003 0.250000 0.169367
O O9 0.150206 0.109771 0.175152
O O10 0.426606 0.110515 0.225903
O O11 0.612723 0.750000 0.323745
O O12 0.501362 0.909800 0.371049
O O13 0.031763 0.750000 0.821972
O O14 0.105686 0.577825 0.874328
O O15 0.000000 0.000000 0.000000
#
# Coordination Sequence:
#
# PCOD9466860 Si02
#       6
#     8   8   8   8   8   8
#     4  10  22  43  66  97 134 176 219 268 332 405
#     4  12  26  41  64 100 135 174 221 278 340 402
#     4  10  23  45  69  94 130 175 225 278 335 396
#     4  10  23  42  69  99 134 177 221 270 334 405
#     4  10  24  45  70  96 128 175 227 277 333 401
#     4  12  25  43  67  98 132 174 225 282 338 396
#
# _framework density 20.969301999999999
#
# number of rings (size 3 to 8) (size 9 to 14) (size 15 to 20)
#    0.000    1.333    1.667    2.500    4.667    3.333 
#    0.000    0.833    0.000    0.000    0.000    0.000 
#    0.000    0.000    0.000    0.000    0.000    0.000 
#
# Total GULP energy -268110.670569 kJ/mol
# GULP energy per Si atom -5585.638970 kJ/mol
# Density = 2.092158 g / cm^3
# Si number density = 20.969302 Si / 1000 Ang^3
#
#
#
# Elastic Constant Matrix: (Units=GPa)
#
#
# Indices 1 2 3 4 5 6 
#
# 1 91.4980 9.2200 30.1124 0.0000 0.0000 0.0000
# 2 9.2200 50.6884 13.2589 0.0000 0.0000 0.0000
# 3 30.1124 13.2589 139.0049 0.0000 0.0000 0.0000
# 4 0.0000 0.0000 0.0000 33.1236 0.0000 0.0000
# 5 0.0000 0.0000 0.0000 0.0000 47.8775 0.0000
# 6 0.0000 0.0000 0.0000 0.0000 0.0000 29.7275
#
#
#
# Elastic Compliance Matrix: (Units=1/GPa)
#
#
# Indices 1 2 3 4 5 6 
#
# 1 0.011882 -0.001526 -0.002428 0.000000 0.000000 0.000000
# 2 -0.001526 0.020429 -0.001618 0.000000 0.000000 0.000000
# 3 -0.002428 -0.001618 0.007874 0.000000 0.000000 0.000000
# 4 0.000000 0.000000 0.000000 0.030190 0.000000 0.000000
# 5 0.000000 0.000000 0.000000 0.000000 0.020887 0.000000
# 6 0.000000 0.000000 0.000000 0.000000 0.000000 0.033639
#
#
# Mechanical properties :
#
#
# Convention : Reuss Voigt Hill
#
# Bulk Modulus (GPa) = 34.43451 42.93044 38.68247
# Shear Modulus (GPa) = 34.31082 37.38572 35.84827
#
# Velocity S-wave (km/s) = 4.04944 4.22700 4.13917
# Velocity P-wave (km/s) = 6.19039 6.65889 6.42891
#
# Compressibility (1/GPa) = 0.02904063
#
# Stress axis : x y z
#
# Youngs Moduli (GPa) = 84.15950 48.94953 126.99387
#
# Poissons Ratio (x) = 0.07470 0.30840
# Poissons Ratio (y) = 0.12844 0.20548
# Poissons Ratio (z) = 0.20438 0.07920
#
# Static dielectric constant tensor:
#      x y z
#    x 1.815960 0.000000 0.000000 
#    y 0.000000 1.808920 0.000000 
#    z 0.000000 0.000000 1.695750 
# 
# From -- ./inp_files/22220.got.cif
#   From: 2010.05.17/outbox.cif.g08.bks.cpg/sg62_12_cif.got.tgz:22220.got - 2010.06.03 15:25:27.
