data_PCOD9466230
_publ_section_title
;
Structure prediction by ZEFSAII (Michael W. Deem and Ramdas Pophale) SiO2 
 PCOD9466230
Probable space group: P N M A
;
_chemical_formula_sum "Si O2"
_cell_formula_units_Z 48
_cell_length_a 15.668343
_cell_length_b 16.878699
_cell_length_c 9.223429
_cell_angle_alpha 90.000000
_cell_angle_beta 90.000000
_cell_angle_gamma 90.000000
_cell_volume 2439.239520
_symmetry_space_group_name_H-M "P N M A"
_symmetry_group_IT_number 62
_symmetry_cell_setting 'orthorhombic'
loop_
_space_group_symop_operation_xyz
x,y,z
1/2-x,-y,1/2+z
1/2+x,1/2-y,1/2-z
-x,1/2+y,-z
-x,-y,-z
1/2+x,y,1/2-z
1/2-x,1/2+y,1/2+z
x,1/2-y,z
loop_
_atom_site_type_symbol
_atom_site_label
_atom_site_fract_x
_atom_site_fract_y
_atom_site_fract_z
Si Si1 0.684361 0.658433 0.105336
Si Si2 0.999702 0.085308 0.922595
Si Si3 0.000362 0.585048 0.422545
Si Si4 0.661510 0.158374 0.075463
Si Si5 0.810363 0.422647 0.905619
Si Si6 0.337907 0.887595 0.592191
O O1 0.675644 0.750000 0.147605
O O2 0.592666 0.625038 0.056960
O O3 0.712643 0.607412 0.244884
O O4 0.754959 0.649561 0.981767
O O5 0.013028 0.076549 0.750385
O O6 0.902897 0.115657 0.941957
O O7 0.077968 0.130525 0.996652
O O8 0.000000 0.000000 0.000000
O O9 0.924665 0.635988 0.491101
O O10 0.000000 0.500000 0.500000
O O11 0.682978 0.250000 0.050878
O O12 0.649356 0.141720 0.245103
O O13 0.737598 0.103953 0.015158
O O14 0.822673 0.517266 0.905064
#
# Coordination Sequence:
#
# PCOD9466230 Si02
#       6
#     8   8   8   8   8   8
#     4  11  23  40  60  88 122 159 202 256 311 362
#     4   9  20  38  63  91 116 151 205 258 303 357
#     4  11  22  40  66  91 120 163 210 257 308 376
#     4  12  25  40  59  92 129 162 203 263 322 369
#     4  10  21  40  64  87 116 160 211 254 302 372
#     4  11  22  40  62  89 122 163 208 254 308 376
#
# _framework density 19.678263999999999
#
# number of rings (size 3 to 8) (size 9 to 14) (size 15 to 20)
#    0.000    1.333    0.000    7.500    0.000    5.333 
#    0.000   10.833    0.000    0.000    0.000    0.000 
#    0.000    0.000    0.000    0.000    0.000    0.000 
#
# Total GULP energy -268310.792845 kJ/mol
# GULP energy per Si atom -5589.808184 kJ/mol
# Density = 1.963348 g / cm^3
# Si number density = 19.678264 Si / 1000 Ang^3
#
#
#
# Elastic Constant Matrix: (Units=GPa)
#
#
# Indices 1 2 3 4 5 6 
#
# 1 91.2944 -13.2733 63.1421 0.0000 0.0000 0.0000
# 2 -13.2733 47.4087 -20.3666 0.0000 0.0000 0.0000
# 3 63.1421 -20.3666 100.8654 0.0000 0.0000 0.0000
# 4 0.0000 0.0000 0.0000 10.8177 0.0000 0.0000
# 5 0.0000 0.0000 0.0000 0.0000 34.6472 0.0000
# 6 0.0000 0.0000 0.0000 0.0000 0.0000 18.2202
#
#
#
# Elastic Compliance Matrix: (Units=1/GPa)
#
#
# Indices 1 2 3 4 5 6 
#
# 1 0.019320 0.000234 -0.012047 0.000000 0.000000 0.000000
# 2 0.000234 0.023099 0.004518 0.000000 0.000000 0.000000
# 3 -0.012047 0.004518 0.018368 0.000000 0.000000 0.000000
# 4 0.000000 0.000000 0.000000 0.092441 0.000000 0.000000
# 5 0.000000 0.000000 0.000000 0.000000 0.028862 0.000000
# 6 0.000000 0.000000 0.000000 0.000000 0.000000 0.054884
#
#
# Mechanical properties :
#
#
# Convention : Reuss Voigt Hill
#
# Bulk Modulus (GPa) = 21.64678 33.17478 27.41078
# Shear Modulus (GPa) = 18.72914 26.74146 22.73530
#
# Velocity S-wave (km/s) = 3.08842 3.69037 3.40273
# Velocity P-wave (km/s) = 4.87258 5.92061 5.42198
#
# Compressibility (1/GPa) = 0.04619625
#
# Stress axis : x y z
#
# Youngs Moduli (GPa) = 51.76098 43.29107 54.44294
#
# Poissons Ratio (x) = -0.01012 0.65587
# Poissons Ratio (y) = -0.01210 -0.24597
# Poissons Ratio (z) = 0.62356 -0.19558
#
# Static dielectric constant tensor:
#      x y z
#    x 1.695090 0.000000 0.000000 
#    y 0.000000 1.697160 0.000000 
#    z 0.000000 0.000000 1.676940 
# 
# From -- ./inp_files/6475.got.cif
#   From: 2010.05.17/outbox.cif.g08.bks.cpg/sg62_4_cif.got.tgz:6475.got - 2010.06.03 15:25:27.
