data_PCOD9466675
_publ_section_title
;
Structure prediction by ZEFSAII (Michael W. Deem and Ramdas Pophale) SiO2 
 PCOD9466675
Probable space group: P N M A
;
_chemical_formula_sum "Si O2"
_cell_formula_units_Z 40
_cell_length_a 14.551226
_cell_length_b 14.994062
_cell_length_c 6.990270
_cell_angle_alpha 90.000000
_cell_angle_beta 90.000000
_cell_angle_gamma 90.000000
_cell_volume 1525.150983
_symmetry_space_group_name_H-M "P N M A"
_symmetry_group_IT_number 62
_symmetry_cell_setting 'orthorhombic'
loop_
_space_group_symop_operation_xyz
x,y,z
1/2-x,-y,1/2+z
1/2+x,1/2-y,1/2-z
-x,1/2+y,-z
-x,-y,-z
1/2+x,y,1/2-z
1/2-x,1/2+y,1/2+z
x,1/2-y,z
loop_
_atom_site_type_symbol
_atom_site_label
_atom_site_fract_x
_atom_site_fract_y
_atom_site_fract_z
Si Si1 0.754320 0.428145 0.056753
Si Si2 0.340007 0.750000 0.359398
Si Si3 0.112589 0.443899 0.712515
Si Si4 0.075211 0.893388 0.177489
Si Si5 0.768737 0.250000 0.294922
Si Si6 0.006550 0.750000 0.866016
Si Si7 0.558782 0.750000 0.997406
O O1 0.820274 0.498317 0.157748
O O2 0.744142 0.340259 0.186309
O O3 0.653557 0.462682 0.997594
O O4 0.818464 0.410753 0.869584
O O5 0.364681 0.660944 0.245698
O O6 0.243931 0.750000 0.473658
O O7 0.402280 0.750000 0.545713
O O8 0.008180 0.461720 0.776747
O O9 0.068884 0.833543 0.368112
O O10 0.044520 0.836323 0.990052
O O11 0.881816 0.250000 0.297677
O O12 0.971712 0.750000 0.639430
#
# Coordination Sequence:
#
# PCOD9466675 Si02
#       7
#     8   4   8   8   4   4   4
#     4  12  24  45  64  99 139 175 226 286 330 407
#     4  10  22  40  66  93 131 176 220 277 340 391
#     4  11  25  44  68  97 136 178 228 277 339 399
#     4  10  22  42  68  96 136 175 220 282 332 393
#     4  12  23  39  70  97 135 179 222 277 348 389
#     4   9  19  38  63 100 132 165 222 270 321 410
#     4  11  20  39  69 104 128 174 232 266 333 420
#
# _framework density 26.226914000000001
#
# number of rings (size 3 to 8) (size 9 to 14) (size 15 to 20)
#    0.000    1.200    2.000    4.800    2.800    0.000 
#    0.000    2.000    0.000    0.000    0.000    0.000 
#    0.000    0.000    0.000    0.000    0.000    0.000 
#
# Total GULP energy -223217.483394 kJ/mol
# GULP energy per Si atom -5580.437085 kJ/mol
# Density = 2.616722 g / cm^3
# Si number density = 26.226914 Si / 1000 Ang^3
#
#
#
# Elastic Constant Matrix: (Units=GPa)
#
#
# Indices 1 2 3 4 5 6 
#
# 1 81.5337 22.4311 28.2121 0.0000 0.0000 0.0000
# 2 22.4311 39.2667 13.2359 0.0000 0.0000 0.0000
# 3 28.2121 13.2359 122.3196 0.0000 0.0000 0.0000
# 4 0.0000 0.0000 0.0000 -25.5920 0.0000 0.0000
# 5 0.0000 0.0000 0.0000 0.0000 50.4008 0.0000
# 6 0.0000 0.0000 0.0000 0.0000 0.0000 88.0534
#
#
#
# Elastic Compliance Matrix: (Units=1/GPa)
#
#
# Indices 1 2 3 4 5 6 
#
# 1 0.015361 -0.007867 -0.002691 0.000000 0.000000 0.000000
# 2 -0.007867 0.030461 -0.001481 0.000000 0.000000 0.000000
# 3 -0.002691 -0.001481 0.008956 0.000000 0.000000 0.000000
# 4 0.000000 0.000000 0.000000 -0.039075 0.000000 0.000000
# 5 0.000000 0.000000 0.000000 0.000000 0.019841 0.000000
# 6 0.000000 0.000000 0.000000 0.000000 0.000000 0.011357
#
#
# Mechanical properties :
#
#
# Convention : Reuss Voigt Hill
#
# Bulk Modulus (GPa) = 32.57691 41.20869 36.89280
# Shear Modulus (GPa) = 61.56601 34.52184 48.04392
#
# Velocity S-wave (km/s) = 4.85029 3.63199 4.28466
# Velocity P-wave (km/s) = 6.61931 5.77364 6.21088
#
# Compressibility (1/GPa) = 0.03069659
#
# Stress axis : x y z
#
# Youngs Moduli (GPa) = 65.10153 32.82938 111.65219
#
# Poissons Ratio (x) = 0.25828 0.30051
# Poissons Ratio (y) = 0.51219 0.16541
# Poissons Ratio (z) = 0.17522 0.04864
#
# Static dielectric constant tensor:
#      x y z
#    x 2.541950 0.000000 0.000000 
#    y 0.000000 2.083700 0.000000 
#    z 0.000000 0.000000 2.158850 
# 
# From -- ./inp_files/1600.got.cif
#   From: 2010.05.17/outbox.cif.g08.bks.cpg/sg62_1_cif.got.tgz:1600.got - 2010.06.03 15:25:27.
