data_PCOD9466204
_publ_section_title
;
Structure prediction by ZEFSAII (Michael W. Deem and Ramdas Pophale) SiO2 
 PCOD9466204
Probable space group: P N M A
;
_chemical_formula_sum "Si O2"
_cell_formula_units_Z 48
_cell_length_a 19.191607
_cell_length_b 8.580118
_cell_length_c 15.378472
_cell_angle_alpha 90.000000
_cell_angle_beta 90.000000
_cell_angle_gamma 90.000000
_cell_volume 2532.315356
_symmetry_space_group_name_H-M "P N M A"
_symmetry_group_IT_number 62
_symmetry_cell_setting 'orthorhombic'
loop_
_space_group_symop_operation_xyz
x,y,z
1/2-x,-y,1/2+z
1/2+x,1/2-y,1/2-z
-x,1/2+y,-z
-x,-y,-z
1/2+x,y,1/2-z
1/2-x,1/2+y,1/2+z
x,1/2-y,z
loop_
_atom_site_type_symbol
_atom_site_label
_atom_site_fract_x
_atom_site_fract_y
_atom_site_fract_z
Si Si1 0.478044 0.063333 0.093946
Si Si2 0.283750 0.938647 0.490776
Si Si3 0.325092 0.936670 0.131359
Si Si4 0.262610 0.061933 0.797994
Si Si5 0.436650 0.938098 0.557474
Si Si6 0.583936 0.061652 0.244756
O O1 0.480594 0.250000 0.091254
O O2 0.531065 0.008983 0.169455
O O3 0.400365 0.009364 0.115921
O O4 0.500000 0.000000 0.000000
O O5 0.280079 0.750000 0.496350
O O6 0.263944 0.985731 0.393008
O O7 0.361875 0.985579 0.517683
O O8 0.228278 0.009423 0.557096
O O9 0.331158 0.750000 0.129837
O O10 0.291521 0.985446 0.223213
O O11 0.267213 0.250000 0.796833
O O12 0.338488 0.995592 0.776267
O O13 0.439197 0.750000 0.556500
O O14 0.438573 0.989697 0.658417
O O15 0.500000 0.000000 0.500000
O O16 0.584586 0.250000 0.245062
#
# Coordination Sequence:
#
# PCOD9466204 Si02
#       6
#     8   8   8   8   8   8
#     4  11  24  41  62  89 121 158 200 246 299 355
#     4  10  21  40  63  86 118 157 198 246 299 351
#     4  11  23  39  60  90 122 154 197 244 295 356
#     4  10  22  38  60  89 117 152 196 242 295 351
#     4  10  22  39  60  86 118 156 198 244 297 354
#     4  10  22  41  62  87 119 157 198 241 294 354
#
# _framework density 18.954985000000001
#
# number of rings (size 3 to 8) (size 9 to 14) (size 15 to 20)
#    0.000    1.667    1.667    2.000    2.333    6.667 
#    0.000    0.000    0.000    0.000    0.000    0.000 
#    0.000    0.000    0.000    0.000    0.000    0.000 
#
# Total GULP energy -268277.245050 kJ/mol
# GULP energy per Si atom -5589.109272 kJ/mol
# Density = 1.891184 g / cm^3
# Si number density = 18.954985 Si / 1000 Ang^3
#
#
#
# Elastic Constant Matrix: (Units=GPa)
#
#
# Indices 1 2 3 4 5 6 
#
# 1 147.1966 29.0971 83.7839 0.0000 0.0000 0.0000
# 2 29.0971 17.5342 34.8395 0.0000 0.0000 0.0000
# 3 83.7839 34.8395 194.0787 0.0000 0.0000 0.0000
# 4 0.0000 0.0000 0.0000 25.0177 0.0000 0.0000
# 5 0.0000 0.0000 0.0000 0.0000 42.7451 0.0000
# 6 0.0000 0.0000 0.0000 0.0000 0.0000 35.4238
#
#
#
# Elastic Compliance Matrix: (Units=1/GPa)
#
#
# Indices 1 2 3 4 5 6 
#
# 1 0.010694 -0.013327 -0.002224 0.000000 0.000000 0.000000
# 2 -0.013327 0.105259 -0.013142 0.000000 0.000000 0.000000
# 3 -0.002224 -0.013142 0.008472 0.000000 0.000000 0.000000
# 4 0.000000 0.000000 0.000000 0.039972 0.000000 0.000000
# 5 0.000000 0.000000 0.000000 0.000000 0.023394 0.000000
# 6 0.000000 0.000000 0.000000 0.000000 0.000000 0.028230
#
#
# Mechanical properties :
#
#
# Convention : Reuss Voigt Hill
#
# Bulk Modulus (GPa) = 14.91677 72.69452 43.80565
# Shear Modulus (GPa) = 16.90601 34.70992 25.80796
#
# Velocity S-wave (km/s) = 2.98971 4.28387 3.69391
# Velocity P-wave (km/s) = 4.45023 7.93115 6.43069
#
# Compressibility (1/GPa) = 0.06703864
#
# Stress axis : x y z
#
# Youngs Moduli (GPa) = 93.50988 9.50040 118.03609
#
# Poissons Ratio (x) = 0.12661 0.26255
# Poissons Ratio (y) = 1.24616 1.55125
# Poissons Ratio (z) = 0.20800 0.12486
#
# Static dielectric constant tensor:
#      x y z
#    x 1.607840 0.000000 0.000000 
#    y 0.000000 1.646480 0.000000 
#    z 0.000000 0.000000 1.648510 
# 
# From -- ./inp_files/19532.got.cif
#   From: 2010.05.17/outbox.cif.g08.bks.cpg/sg62_10_cif.got.tgz:19532.got - 2010.06.03 15:25:27.
