data_PCOD9466466
_publ_section_title
;
Structure prediction by ZEFSAII (Michael W. Deem and Ramdas Pophale) SiO2 
 PCOD9466466
Probable space group: P N M A
;
_chemical_formula_sum "Si O2"
_cell_formula_units_Z 40
_cell_length_a 5.790903
_cell_length_b 16.351715
_cell_length_c 18.575864
_cell_angle_alpha 90.000000
_cell_angle_beta 90.000000
_cell_angle_gamma 90.000000
_cell_volume 1758.970769
_symmetry_space_group_name_H-M "P N M A"
_symmetry_group_IT_number 62
_symmetry_cell_setting 'orthorhombic'
loop_
_space_group_symop_operation_xyz
x,y,z
1/2-x,-y,1/2+z
1/2+x,1/2-y,1/2-z
-x,1/2+y,-z
-x,-y,-z
1/2+x,y,1/2-z
1/2-x,1/2+y,1/2+z
x,1/2-y,z
loop_
_atom_site_type_symbol
_atom_site_label
_atom_site_fract_x
_atom_site_fract_y
_atom_site_fract_z
Si Si1 0.805394 0.432627 0.484532
Si Si2 0.269283 0.066390 0.281911
Si Si3 0.754202 0.121513 0.769514
Si Si4 0.088581 0.585923 0.071605
Si Si5 0.310911 0.657255 0.927175
O O1 0.683967 0.404959 0.557901
O O2 0.636829 0.488931 0.437357
O O3 0.000000 0.500000 0.500000
O O4 0.918083 0.358798 0.442289
O O5 0.520261 0.094826 0.251385
O O6 0.255974 0.096223 0.363692
O O7 0.266342 0.968403 0.268318
O O8 0.497837 0.158063 0.758580
O O9 0.801710 0.112701 0.854482
O O10 0.192653 0.634520 0.003279
O O11 0.261062 0.750000 0.907449
#
# Coordination Sequence:
#
# PCOD9466466 Si02
#       5
#     8   8   8   8   8
#     4   9  20  35  63  89 123 161 221 279 327 380
#     4  10  23  40  61  91 135 176 217 269 327 402
#     4  10  22  36  63  96 129 163 215 283 345 390
#     4  10  22  38  65  96 127 171 230 290 328 392
#     4  11  25  41  63  95 136 183 224 269 337 414
#
# _framework density 22.740570999999999
#
# number of rings (size 3 to 8) (size 9 to 14) (size 15 to 20)
#    0.000    2.000    0.000    2.400   25.200    1.600 
#    0.000    0.000    0.000    1.200    0.000    0.000 
#    0.000    0.000    0.000    0.000    0.000    0.000 
#
# Total GULP energy -222999.074897 kJ/mol
# GULP energy per Si atom -5574.976872 kJ/mol
# Density = 2.268881 g / cm^3
# Si number density = 22.740571 Si / 1000 Ang^3
#
#
#
# Elastic Constant Matrix: (Units=GPa)
#
#
# Indices 1 2 3 4 5 6 
#
# 1 155.0038 16.0524 40.9148 0.0000 0.0000 0.0000
# 2 16.0524 59.3212 41.2194 0.0000 0.0000 0.0000
# 3 40.9148 41.2194 140.0522 0.0000 0.0000 0.0000
# 4 0.0000 0.0000 0.0000 5.5415 0.0000 0.0000
# 5 0.0000 0.0000 0.0000 0.0000 42.2261 0.0000
# 6 0.0000 0.0000 0.0000 0.0000 0.0000 -4.4305
#
#
#
# Elastic Compliance Matrix: (Units=1/GPa)
#
#
# Indices 1 2 3 4 5 6 
#
# 1 0.007007 -0.000596 -0.001872 0.000000 0.000000 0.000000
# 2 -0.000596 0.021242 -0.006078 0.000000 0.000000 0.000000
# 3 -0.001872 -0.006078 0.009476 0.000000 0.000000 0.000000
# 4 0.000000 0.000000 0.000000 0.180457 0.000000 0.000000
# 5 0.000000 0.000000 0.000000 0.000000 0.023682 0.000000
# 6 0.000000 0.000000 0.000000 0.000000 0.000000 -0.225708
#
#
# Mechanical properties :
#
#
# Convention : Reuss Voigt Hill
#
# Bulk Modulus (GPa) = 48.46258 61.19451 54.82855
# Shear Modulus (GPa) = 124.61424 25.74678 75.18051
#
# Velocity S-wave (km/s) = 7.41061 3.36846 5.75603
# Velocity P-wave (km/s) = 9.72524 6.48822 8.26672
#
# Compressibility (1/GPa) = 0.02063448
#
# Stress axis : x y z
#
# Youngs Moduli (GPa) = 142.71013 47.07727 105.53198
#
# Poissons Ratio (x) = 0.02804 0.19754
# Poissons Ratio (y) = 0.08499 0.64140
# Poissons Ratio (z) = 0.26713 0.28612
#
# Static dielectric constant tensor:
#      x y z
#    x 2.124990 0.000000 0.000000 
#    y 0.000000 1.812800 0.000000 
#    z 0.000000 0.000000 1.665210 
# 
# From -- ./inp_files/21481.got.cif
#   From: 2010.05.17/outbox.cif.g08.bks.cpg/sg62_11_cif.got.tgz:21481.got - 2010.06.03 15:25:27.
