data_PCOD9466422
_publ_section_title
;
Structure prediction by ZEFSAII (Michael W. Deem and Ramdas Pophale) SiO2 
 PCOD9466422
Probable space group: P N M A
;
_chemical_formula_sum "Si O2"
_cell_formula_units_Z 40
_cell_length_a 11.155369
_cell_length_b 14.623899
_cell_length_c 12.146047
_cell_angle_alpha 90.000000
_cell_angle_beta 90.000000
_cell_angle_gamma 90.000000
_cell_volume 1981.445251
_symmetry_space_group_name_H-M "P N M A"
_symmetry_group_IT_number 62
_symmetry_cell_setting 'orthorhombic'
loop_
_space_group_symop_operation_xyz
x,y,z
1/2-x,-y,1/2+z
1/2+x,1/2-y,1/2-z
-x,1/2+y,-z
-x,-y,-z
1/2+x,y,1/2-z
1/2-x,1/2+y,1/2+z
x,1/2-y,z
loop_
_atom_site_type_symbol
_atom_site_label
_atom_site_fract_x
_atom_site_fract_y
_atom_site_fract_z
Si Si1 0.586935 0.945464 0.082219
Si Si2 0.045675 0.353802 0.785802
Si Si3 0.981556 0.106836 0.020513
Si Si4 0.299379 0.462289 0.310985
Si Si5 0.249110 0.352676 0.094512
O O1 0.523415 0.885349 0.176223
O O2 0.668230 0.021669 0.140878
O O3 0.676089 0.882392 0.011787
O O4 0.500000 0.000000 0.000000
O O5 0.093883 0.250000 0.774557
O O6 0.139640 0.436866 0.804612
O O7 0.964847 0.353782 0.897639
O O8 0.107291 0.142603 0.068425
O O9 0.875643 0.105430 0.110007
O O10 0.000000 0.000000 0.000000
O O11 0.285966 0.421369 0.190498
O O12 0.279679 0.250000 0.127155
#
# Coordination Sequence:
#
# PCOD9466422 Si02
#       5
#     8   8   8   8   8
#     4  12  25  43  69  99 141 178 220 281 345 402
#     4  11  23  40  68 100 130 177 231 275 330 398
#     4  10  21  43  69  94 130 177 228 273 338 398
#     4  11  24  45  70  96 141 179 221 281 341 406
#     4  12  25  43  70 101 134 180 228 282 338 401
#
# _framework density 20.187284999999999
#
# number of rings (size 3 to 8) (size 9 to 14) (size 15 to 20)
#    0.000    0.800    6.000    3.600    0.000    2.400 
#    0.000    1.000    0.000    0.000    0.000    0.000 
#    0.000    0.000    0.000    0.000    0.000    0.000 
#
# Total GULP energy -223282.350566 kJ/mol
# GULP energy per Si atom -5582.058764 kJ/mol
# Density = 2.014134 g / cm^3
# Si number density = 20.187285 Si / 1000 Ang^3
#
#
#
# Elastic Constant Matrix: (Units=GPa)
#
#
# Indices 1 2 3 4 5 6 
#
# 1 34.1348 29.4476 36.4176 0.0000 0.0000 0.0000
# 2 29.4476 113.7549 48.3204 0.0000 0.0000 0.0000
# 3 36.4176 48.3204 147.5261 0.0000 0.0000 0.0000
# 4 0.0000 0.0000 0.0000 2.8456 0.0000 0.0000
# 5 0.0000 0.0000 0.0000 0.0000 24.0471 0.0000
# 6 0.0000 0.0000 0.0000 0.0000 0.0000 21.6111
#
#
#
# Elastic Compliance Matrix: (Units=1/GPa)
#
#
# Indices 1 2 3 4 5 6 
#
# 1 0.045433 -0.008128 -0.008553 0.000000 0.000000 0.000000
# 2 -0.008128 0.011666 -0.001815 0.000000 0.000000 0.000000
# 3 -0.008553 -0.001815 0.009484 0.000000 0.000000 0.000000
# 4 0.000000 0.000000 0.000000 0.351422 0.000000 0.000000
# 5 0.000000 0.000000 0.000000 0.000000 0.041585 0.000000
# 6 0.000000 0.000000 0.000000 0.000000 0.000000 0.046273
#
#
# Mechanical properties :
#
#
# Convention : Reuss Voigt Hill
#
# Bulk Modulus (GPa) = 33.79368 58.19857 45.99613
# Shear Modulus (GPa) = 9.04623 21.78277 15.41450
#
# Velocity S-wave (km/s) = 2.11917 3.28843 2.76628
# Velocity P-wave (km/s) = 4.77119 6.58105 5.74780
#
# Compressibility (1/GPa) = 0.02959133
#
# Stress axis : x y z
#
# Youngs Moduli (GPa) = 22.01064 85.72162 105.43901
#
# Poissons Ratio (x) = 0.69674 0.90183
# Poissons Ratio (y) = 0.17890 0.19132
# Poissons Ratio (z) = 0.18826 0.15554
#
# Static dielectric constant tensor:
#      x y z
#    x 1.772290 0.000000 0.000000 
#    y 0.000000 1.706730 0.000000 
#    z 0.000000 0.000000 1.922610 
# 
# From -- ./inp_files/12045.got.cif
#   From: 2010.05.17/outbox.cif.g08.bks.cpg/sg62_7_cif.got.tgz:12045.got - 2010.06.03 15:25:27.
