data_PCOD9466743
_publ_section_title
;
Structure prediction by ZEFSAII (Michael W. Deem and Ramdas Pophale) SiO2 
 PCOD9466743
Probable space group: P N M A
;
_chemical_formula_sum "Si O2"
_cell_formula_units_Z 60
_cell_length_a 24.573104
_cell_length_b 12.479902
_cell_length_c 8.879821
_cell_angle_alpha 90.000000
_cell_angle_beta 90.000000
_cell_angle_gamma 90.000000
_cell_volume 2723.174082
_symmetry_space_group_name_H-M "P N M A"
_symmetry_group_IT_number 62
_symmetry_cell_setting 'orthorhombic'
loop_
_space_group_symop_operation_xyz
x,y,z
1/2-x,-y,1/2+z
1/2+x,1/2-y,1/2-z
-x,1/2+y,-z
-x,-y,-z
1/2+x,y,1/2-z
1/2-x,1/2+y,1/2+z
x,1/2-y,z
loop_
_atom_site_type_symbol
_atom_site_label
_atom_site_fract_x
_atom_site_fract_y
_atom_site_fract_z
Si Si1 0.443337 0.054469 0.955421
Si Si2 0.357819 0.866575 0.997086
Si Si3 0.807011 0.974336 0.949784
Si Si4 0.540852 0.560338 0.610124
Si Si5 0.116858 0.368522 0.825124
Si Si6 0.461135 0.250000 0.174800
Si Si7 0.108580 0.870467 0.165054
Si Si8 0.246601 0.627878 0.809004
O O1 0.437500 0.096366 0.784499
O O2 0.435977 0.155634 0.063948
O O3 0.500000 0.000000 0.000000
O O4 0.397642 0.963630 0.966491
O O5 0.385640 0.750000 0.970404
O O6 0.345734 0.870499 0.175817
O O7 0.304486 0.868832 0.895919
O O8 0.758866 0.918631 0.856723
O O9 0.841007 0.048321 0.834935
O O10 0.847985 0.889536 0.025590
O O11 0.788963 0.050093 0.087559
O O12 0.500000 0.500000 0.500000
O O13 0.573834 0.464515 0.691101
O O14 0.516347 0.652904 0.713495
O O15 0.584197 0.619896 0.502189
O O16 0.091220 0.250000 0.831346
O O17 0.126555 0.750000 0.195760
O O18 0.225179 0.750000 0.802522
#
# Coordination Sequence:
#
# PCOD9466743 Si02
#       8
#     8   8   8   8   8   4   8   8
#     4  12  25  43  65  99 135 181 232 282 340 410
#     4  10  22  42  66  94 134 174 221 278 339 403
#     4  11  23  42  69  96 134 171 226 275 352 407
#     4  11  24  42  63  95 132 178 230 278 333 397
#     4  10  22  41  65  94 129 173 218 275 336 404
#     4  12  24  44  68  92 134 178 238 276 338 406
#     4  11  23  42  65  94 137 173 220 287 340 407
#     4  11  23  43  67  98 130 170 220 279 336 414
#
# _framework density 22.033111999999999
#
# number of rings (size 3 to 8) (size 9 to 14) (size 15 to 20)
#    0.000    1.067    4.000    2.400    1.867    0.000 
#    0.000    2.000    1.467    0.000    0.000    0.000 
#    0.000    0.000    0.000    0.000    0.000    0.000 
#
# Total GULP energy -334171.665880 kJ/mol
# GULP energy per Si atom -5569.527765 kJ/mol
# Density = 2.198296 g / cm^3
# Si number density = 22.033112 Si / 1000 Ang^3
#
#
#
# Elastic Constant Matrix: (Units=GPa)
#
#
# Indices 1 2 3 4 5 6 
#
# 1 22.1140 16.7966 -10.3314 0.0000 0.0000 0.0000
# 2 16.7966 169.6923 25.1213 0.0000 0.0000 0.0000
# 3 -10.3314 25.1213 53.5740 0.0000 0.0000 0.0000
# 4 0.0000 0.0000 0.0000 28.7206 0.0000 0.0000
# 5 0.0000 0.0000 0.0000 0.0000 33.4280 0.0000
# 6 0.0000 0.0000 0.0000 0.0000 0.0000 22.3017
#
#
#
# Elastic Compliance Matrix: (Units=1/GPa)
#
#
# Indices 1 2 3 4 5 6 
#
# 1 0.058289 -0.007988 0.014986 0.000000 0.000000 0.000000
# 2 -0.007988 0.007427 -0.005023 0.000000 0.000000 0.000000
# 3 0.014986 -0.005023 0.023911 0.000000 0.000000 0.000000
# 4 0.000000 0.000000 0.000000 0.034818 0.000000 0.000000
# 5 0.000000 0.000000 0.000000 0.000000 0.029915 0.000000
# 6 0.000000 0.000000 0.000000 0.000000 0.000000 0.044840
#
#
# Mechanical properties :
#
#
# Convention : Reuss Voigt Hill
#
# Bulk Modulus (GPa) = 10.68631 34.28370 22.48500
# Shear Modulus (GPa) = 22.08058 31.14297 26.61178
#
# Velocity S-wave (km/s) = 3.16912 3.76368 3.47912
# Velocity P-wave (km/s) = 4.27220 5.87205 5.13481
#
# Compressibility (1/GPa) = 0.09357766
#
# Stress axis : x y z
#
# Youngs Moduli (GPa) = 17.15586 134.63743 41.82135
#
# Poissons Ratio (x) = 1.07551 -0.62675
# Poissons Ratio (y) = 0.13704 0.21008
# Poissons Ratio (z) = -0.25710 0.67631
#
# Static dielectric constant tensor:
#      x y z
#    x 1.808460 0.000000 0.000000 
#    y 0.000000 1.802980 0.000000 
#    z 0.000000 0.000000 1.871420 
# 
# From -- ./inp_files/9889.got.cif
#   From: 2010.05.17/outbox.cif.g08.bks.cpg/sg62_5_cif.got.tgz:9889.got - 2010.06.03 15:25:27.
