data_PCOD9466620
_publ_section_title
;
Structure prediction by ZEFSAII (Michael W. Deem and Ramdas Pophale) SiO2 
 PCOD9466620
Probable space group: P N M A
;
_chemical_formula_sum "Si O2"
_cell_formula_units_Z 64
_cell_length_a 14.495534
_cell_length_b 8.534445
_cell_length_c 25.106983
_cell_angle_alpha 90.000000
_cell_angle_beta 90.000000
_cell_angle_gamma 90.000000
_cell_volume 3106.018452
_symmetry_space_group_name_H-M "P N M A"
_symmetry_group_IT_number 62
_symmetry_cell_setting 'orthorhombic'
loop_
_space_group_symop_operation_xyz
x,y,z
1/2-x,-y,1/2+z
1/2+x,1/2-y,1/2-z
-x,1/2+y,-z
-x,-y,-z
1/2+x,y,1/2-z
1/2-x,1/2+y,1/2+z
x,1/2-y,z
loop_
_atom_site_type_symbol
_atom_site_label
_atom_site_fract_x
_atom_site_fract_y
_atom_site_fract_z
Si Si1 0.313613 0.060808 0.700621
Si Si2 0.027121 0.568617 0.942874
Si Si3 0.845859 0.937241 0.598082
Si Si4 0.538315 0.936912 0.943578
Si Si5 0.205781 0.430576 0.976302
Si Si6 0.488865 0.935773 0.330133
Si Si7 0.738127 0.436388 0.915495
Si Si8 0.285788 0.063193 0.304589
O O1 0.312972 0.250000 0.703291
O O2 0.420861 0.008369 0.701977
O O3 0.270883 0.017381 0.643287
O O4 0.253687 0.995555 0.748652
O O5 0.003337 0.750000 0.938826
O O6 0.137267 0.542709 0.943944
O O7 0.991246 0.475978 0.891961
O O8 0.000000 0.500000 0.000000
O O9 0.832700 0.750000 0.589260
O O10 0.786559 0.987436 0.649308
O O11 0.955302 0.962794 0.598677
O O12 0.805017 0.032410 0.548241
O O13 0.555364 0.750000 0.947875
O O14 0.631330 0.021665 0.925383
O O15 0.500000 0.000000 0.000000
O O16 0.179925 0.250000 0.968196
O O17 0.206423 0.474263 0.038169
O O18 0.481860 0.750000 0.324354
O O19 0.390070 0.006325 0.314832
O O20 0.752390 0.250000 0.922355
O O21 0.286968 0.250000 0.305317
#
# Coordination Sequence:
#
# PCOD9466620 Si02
#       8
#     8   8   8   8   8   8   8   8
#     4  10  25  46  67  93 128 172 217 267 324 381
#     4  12  24  39  61  93 132 171 214 263 323 388
#     4  10  22  40  61  88 126 167 209 265 321 380
#     4  11  22  37  60  91 129 171 216 265 325 391
#     4  12  23  36  61  93 125 166 212 262 320 386
#     4  11  23  43  69  97 130 171 218 267 323 385
#     4  11  23  41  63  90 130 173 215 271 330 389
#     4  11  24  43  69  97 128 170 217 270 326 381
#
# _framework density 20.605157999999999
#
# number of rings (size 3 to 8) (size 9 to 14) (size 15 to 20)
#    0.000    1.000    2.500    4.500    0.000    5.000 
#    0.000    2.500    0.000    0.000    0.000    0.000 
#    0.000    0.000    0.000    0.000    0.000    0.000 
#
# Total GULP energy -357882.541258 kJ/mol
# GULP energy per Si atom -5591.914707 kJ/mol
# Density = 2.055826 g / cm^3
# Si number density = 20.605158 Si / 1000 Ang^3
#
#
#
# Elastic Constant Matrix: (Units=GPa)
#
#
# Indices 1 2 3 4 5 6 
#
# 1 103.8422 9.1647 40.2187 0.0000 0.0000 0.0000
# 2 9.1647 34.3561 17.7330 0.0000 0.0000 0.0000
# 3 40.2187 17.7330 112.3766 0.0000 0.0000 0.0000
# 4 0.0000 0.0000 0.0000 31.1659 0.0000 0.0000
# 5 0.0000 0.0000 0.0000 0.0000 34.4807 0.0000
# 6 0.0000 0.0000 0.0000 0.0000 0.0000 32.6133
#
#
#
# Elastic Compliance Matrix: (Units=1/GPa)
#
#
# Indices 1 2 3 4 5 6 
#
# 1 0.011211 -0.001001 -0.003854 0.000000 0.000000 0.000000
# 2 -0.001001 0.031777 -0.004656 0.000000 0.000000 0.000000
# 3 -0.003854 -0.004656 0.011013 0.000000 0.000000 0.000000
# 4 0.000000 0.000000 0.000000 0.032086 0.000000 0.000000
# 5 0.000000 0.000000 0.000000 0.000000 0.029002 0.000000
# 6 0.000000 0.000000 0.000000 0.000000 0.000000 0.030662
#
#
# Mechanical properties :
#
#
# Convention : Reuss Voigt Hill
#
# Bulk Modulus (GPa) = 28.58950 42.75640 35.67295
# Shear Modulus (GPa) = 28.33914 31.88256 30.11085
#
# Velocity S-wave (km/s) = 3.71258 3.93785 3.82688
# Velocity P-wave (km/s) = 5.68179 6.43980 6.07263
#
# Compressibility (1/GPa) = 0.03497788
#
# Stress axis : x y z
#
# Youngs Moduli (GPa) = 89.19661 31.46901 90.80311
#
# Poissons Ratio (x) = 0.03151 0.34999
# Poissons Ratio (y) = 0.08930 0.42279
# Poissons Ratio (z) = 0.34380 0.14652
#
# Static dielectric constant tensor:
#      x y z
#    x 1.800360 0.000000 0.000000 
#    y 0.000000 1.715270 0.000000 
#    z 0.000000 0.000000 1.724040 
# 
# From -- ./inp_files/29767.got.cif
#   From: 2010.05.17/outbox.cif.g08.bks.cpg/sg62_15_cif.got.tgz:29767.got - 2010.06.03 15:25:27.
