data_PCOD9466290
_publ_section_title
;
Structure prediction by ZEFSAII (Michael W. Deem and Ramdas Pophale) SiO2 
 PCOD9466290
Probable space group: P N M A
;
_chemical_formula_sum "Si O2"
_cell_formula_units_Z 56
_cell_length_a 14.403974
_cell_length_b 14.084831
_cell_length_c 11.276236
_cell_angle_alpha 90.000000
_cell_angle_beta 90.000000
_cell_angle_gamma 90.000000
_cell_volume 2287.695015
_symmetry_space_group_name_H-M "P N M A"
_symmetry_group_IT_number 62
_symmetry_cell_setting 'orthorhombic'
loop_
_space_group_symop_operation_xyz
x,y,z
1/2-x,-y,1/2+z
1/2+x,1/2-y,1/2-z
-x,1/2+y,-z
-x,-y,-z
1/2+x,y,1/2-z
1/2-x,1/2+y,1/2+z
x,1/2-y,z
loop_
_atom_site_type_symbol
_atom_site_label
_atom_site_fract_x
_atom_site_fract_y
_atom_site_fract_z
Si Si1 0.690096 0.641977 0.292940
Si Si2 0.275054 0.646323 0.778049
Si Si3 0.441016 0.850791 0.593291
Si Si4 0.770876 0.981591 0.509058
Si Si5 0.396834 0.363600 0.114057
Si Si6 0.135488 0.396654 0.855517
Si Si7 0.483650 0.006656 0.762359
O O1 0.661705 0.750000 0.324333
O O2 0.740291 0.585072 0.400181
O O3 0.770446 0.648535 0.193620
O O4 0.604642 0.576570 0.247453
O O5 0.280882 0.750000 0.831544
O O6 0.341772 0.644040 0.663031
O O7 0.171548 0.632386 0.728732
O O8 0.308414 0.576039 0.878486
O O9 0.484672 0.750000 0.633301
O O10 0.426906 0.846227 0.453638
O O11 0.487368 0.945095 0.640979
O O12 0.838467 0.068678 0.474991
O O13 0.675363 0.019543 0.563360
O O14 0.407493 0.250000 0.084044
O O15 0.490025 0.423585 0.142794
O O16 0.073170 0.425763 0.744573
#
# Coordination Sequence:
#
# PCOD9466290 Si02
#       7
#     8   8   8   8   8   8   8
#     4  12  28  47  71 108 150 193 241 297 370 441
#     4  10  21  40  68 102 139 187 238 291 358 427
#     4  11  23  42  72 107 141 182 243 299 358 431
#     4  12  21  45  72 104 140 189 233 297 363 434
#     4  11  23  42  72 107 146 189 240 300 363 429
#     4  12  24  45  74 106 146 193 238 304 365 427
#     4  12  24  47  70 112 145 188 244 303 365 429
#
# _framework density 24.478788999999999
#
# number of rings (size 3 to 8) (size 9 to 14) (size 15 to 20)
#    0.000    0.571    5.714    2.571    0.000    1.714 
#    0.000    2.857    0.000    1.714    0.000    0.000 
#    0.000    0.000    0.000    0.000    0.000    0.000 
#
# Total GULP energy -312500.710494 kJ/mol
# GULP energy per Si atom -5580.369830 kJ/mol
# Density = 2.442307 g / cm^3
# Si number density = 24.478789 Si / 1000 Ang^3
#
#
#
# Elastic Constant Matrix: (Units=GPa)
#
#
# Indices 1 2 3 4 5 6 
#
# 1 97.5822 42.5662 -0.5106 0.0000 0.0000 0.0000
# 2 42.5662 164.5540 32.4115 0.0000 0.0000 0.0000
# 3 -0.5106 32.4115 42.5720 0.0000 0.0000 0.0000
# 4 0.0000 0.0000 0.0000 25.1762 0.0000 0.0000
# 5 0.0000 0.0000 0.0000 0.0000 28.7799 0.0000
# 6 0.0000 0.0000 0.0000 0.0000 0.0000 12.3655
#
#
#
# Elastic Compliance Matrix: (Units=1/GPa)
#
#
# Indices 1 2 3 4 5 6 
#
# 1 0.011850 -0.003639 0.002913 0.000000 0.000000 0.000000
# 2 -0.003639 0.008267 -0.006337 0.000000 0.000000 0.000000
# 3 0.002913 -0.006337 0.028349 0.000000 0.000000 0.000000
# 4 0.000000 0.000000 0.000000 0.039720 0.000000 0.000000
# 5 0.000000 0.000000 0.000000 0.000000 0.034747 0.000000
# 6 0.000000 0.000000 0.000000 0.000000 0.000000 0.080870
#
#
# Mechanical properties :
#
#
# Convention : Reuss Voigt Hill
#
# Bulk Modulus (GPa) = 29.12138 50.40469 39.76303
# Shear Modulus (GPa) = 21.79817 28.61371 25.20594
#
# Velocity S-wave (km/s) = 2.98735 3.42265 3.21238
# Velocity P-wave (km/s) = 4.88072 6.02124 5.48072
#
# Compressibility (1/GPa) = 0.03433904
#
# Stress axis : x y z
#
# Youngs Moduli (GPa) = 84.38505 120.96836 35.27413
#
# Poissons Ratio (x) = 0.44022 -0.10274
# Poissons Ratio (y) = 0.30709 0.22354
# Poissons Ratio (z) = -0.24579 0.76661
#
# Static dielectric constant tensor:
#      x y z
#    x 1.969400 0.000000 0.000000 
#    y 0.000000 2.110770 0.000000 
#    z 0.000000 0.000000 1.979330 
# 
# From -- ./inp_files/13362.got.cif
#   From: 2010.05.17/outbox.cif.g08.bks.cpg/sg62_7_cif.got.tgz:13362.got - 2010.06.03 15:25:27.
