data_PCOD9466123
_publ_section_title
;
Structure prediction by ZEFSAII (Michael W. Deem and Ramdas Pophale) SiO2 
 PCOD9466123
Probable space group: P N M A
;
_chemical_formula_sum "Si O2"
_cell_formula_units_Z 48
_cell_length_a 10.969548
_cell_length_b 22.532235
_cell_length_c 8.171352
_cell_angle_alpha 90.000000
_cell_angle_beta 90.000000
_cell_angle_gamma 90.000000
_cell_volume 2019.700272
_symmetry_space_group_name_H-M "P N M A"
_symmetry_group_IT_number 62
_symmetry_cell_setting 'orthorhombic'
loop_
_space_group_symop_operation_xyz
x,y,z
1/2-x,-y,1/2+z
1/2+x,1/2-y,1/2-z
-x,1/2+y,-z
-x,-y,-z
1/2+x,y,1/2-z
1/2-x,1/2+y,1/2+z
x,1/2-y,z
loop_
_atom_site_type_symbol
_atom_site_label
_atom_site_fract_x
_atom_site_fract_y
_atom_site_fract_z
Si Si1 0.335160 0.072019 0.720059
Si Si2 0.980406 0.957741 0.778121
Si Si3 0.327027 0.319655 0.136182
Si Si4 0.135564 0.107971 0.924758
Si Si5 0.772698 0.416144 0.144414
Si Si6 0.977430 0.320997 0.673574
O O1 0.232354 0.061257 0.854568
O O2 0.287101 0.063850 0.539667
O O3 0.369858 0.140995 0.742187
O O4 0.445482 0.026453 0.746428
O O5 0.867943 0.926445 0.686010
O O6 0.122626 0.947536 0.742304
O O7 0.958076 0.927929 0.958774
O O8 0.315652 0.250000 0.147284
O O9 0.316588 0.349152 0.314372
O O10 0.212342 0.347733 0.039998
O O11 0.446304 0.331266 0.019962
O O12 0.086592 0.146237 0.770178
O O13 0.978406 0.250000 0.699488
#
# Coordination Sequence:
#
# PCOD9466123 Si02
#       6
#     8   8   8   8   8   8
#     4  11  23  39  67  91 129 169 220 264 325 391
#     4  11  24  43  65  99 136 170 213 272 330 392
#     4   9  21  41  60  90 131 168 215 272 325 382
#     4  10  21  40  64  93 126 178 213 272 323 387
#     4  11  24  42  66  99 133 169 215 269 329 388
#     4  10  21  39  64  90 124 169 220 266 322 387
#
# _framework density 23.765903000000002
#
# number of rings (size 3 to 8) (size 9 to 14) (size 15 to 20)
#    0.000    1.667    1.667    2.000    4.667    1.333 
#    0.000    4.167    0.000    0.000    0.000    0.000 
#    0.000    0.000    0.000    0.000    0.000    0.000 
#
# Total GULP energy -267536.104226 kJ/mol
# GULP energy per Si atom -5573.668838 kJ/mol
# Density = 2.371181 g / cm^3
# Si number density = 23.765903 Si / 1000 Ang^3
#
#
#
# Elastic Constant Matrix: (Units=GPa)
#
#
# Indices 1 2 3 4 5 6 
#
# 1 69.7302 20.3559 2.2103 0.0000 0.0000 0.0000
# 2 20.3559 119.8280 12.8957 0.0000 0.0000 0.0000
# 3 2.2103 12.8957 32.6926 0.0000 0.0000 0.0000
# 4 0.0000 0.0000 0.0000 24.9733 0.0000 0.0000
# 5 0.0000 0.0000 0.0000 0.0000 15.2264 0.0000
# 6 0.0000 0.0000 0.0000 0.0000 0.0000 31.4278
#
#
#
# Elastic Compliance Matrix: (Units=1/GPa)
#
#
# Indices 1 2 3 4 5 6 
#
# 1 0.015089 -0.002562 -0.000009 0.000000 0.000000 0.000000
# 2 -0.002562 0.009150 -0.003436 0.000000 0.000000 0.000000
# 3 -0.000009 -0.003436 0.031944 0.000000 0.000000 0.000000
# 4 0.000000 0.000000 0.000000 0.040043 0.000000 0.000000
# 5 0.000000 0.000000 0.000000 0.000000 0.065676 0.000000
# 6 0.000000 0.000000 0.000000 0.000000 0.000000 0.031819
#
#
# Mechanical properties :
#
#
# Convention : Reuss Voigt Hill
#
# Bulk Modulus (GPa) = 22.64091 32.57495 27.60793
# Shear Modulus (GPa) = 22.67991 26.77809 24.72900
#
# Velocity S-wave (km/s) = 3.09253 3.36034 3.22922
# Velocity P-wave (km/s) = 4.72218 5.36584 5.05427
#
# Compressibility (1/GPa) = 0.04416783
#
# Stress axis : x y z
#
# Youngs Moduli (GPa) = 66.27220 109.28530 31.30480
#
# Poissons Ratio (x) = 0.28002 0.00030
# Poissons Ratio (y) = 0.16981 0.10757
# Poissons Ratio (z) = 0.00063 0.37552
#
# Static dielectric constant tensor:
#      x y z
#    x 2.025680 0.000000 0.000000 
#    y 0.000000 1.903750 0.000000 
#    z 0.000000 0.000000 1.938020 
# 
# From -- ./inp_files/5282.got.cif
#   From: 2010.05.17/outbox.cif.g08.bks.cpg/sg62_3_cif.got.tgz:5282.got - 2010.06.03 15:25:27.
