data_PCOD9466018
_publ_section_title
;
Structure prediction by ZEFSAII (Michael W. Deem and Ramdas Pophale) SiO2 
 PCOD9466018
Probable space group: P N M A
;
_chemical_formula_sum "Si O2"
_cell_formula_units_Z 48
_cell_length_a 15.182771
_cell_length_b 8.936792
_cell_length_c 20.166056
_cell_angle_alpha 90.000000
_cell_angle_beta 90.000000
_cell_angle_gamma 90.000000
_cell_volume 2736.236681
_symmetry_space_group_name_H-M "P N M A"
_symmetry_group_IT_number 62
_symmetry_cell_setting 'orthorhombic'
loop_
_space_group_symop_operation_xyz
x,y,z
1/2-x,-y,1/2+z
1/2+x,1/2-y,1/2-z
-x,1/2+y,-z
-x,-y,-z
1/2+x,y,1/2-z
1/2-x,1/2+y,1/2+z
x,1/2-y,z
loop_
_atom_site_type_symbol
_atom_site_label
_atom_site_fract_x
_atom_site_fract_y
_atom_site_fract_z
Si Si1 0.386603 0.428478 0.184805
Si Si2 0.921733 0.929132 0.458108
Si Si3 0.777146 0.427188 0.987640
Si Si4 0.995645 0.430261 0.799053
Si Si5 0.798139 0.429018 0.832056
Si Si6 0.563709 0.071800 0.554767
O O1 0.388632 0.250000 0.180822
O O2 0.416510 0.499852 0.114905
O O3 0.449864 0.488311 0.242321
O O4 0.286453 0.485347 0.195594
O O5 0.931270 0.750000 0.452504
O O6 0.826703 0.958614 0.491894
O O7 0.000000 0.000000 0.500000
O O8 0.791604 0.250000 0.997799
O O9 0.803639 0.460533 0.911150
O O10 0.838399 0.518250 0.036977
O O11 0.003915 0.250000 0.791517
O O12 0.891560 0.466284 0.799394
O O13 0.033715 0.471103 0.871431
O O14 0.783110 0.250000 0.826108
O O15 0.556621 0.250000 0.549848
O O16 0.500000 0.000000 0.500000
#
# Coordination Sequence:
#
# PCOD9466018 Si02
#       6
#     8   8   8   8   8   8
#     4  11  23  38  58  87 117 148 191 240 288 343
#     4  10  21  40  64  86 114 152 193 238 285 340
#     4   9  18  35  57  84 114 145 183 231 281 333
#     4  10  21  39  59  81 113 155 195 234 284 343
#     4   9  18  37  61  80 108 151 191 229 280 342
#     4  11  21  34  56  86 117 149 188 230 281 340
#
# _framework density 17.542341
#
# number of rings (size 3 to 8) (size 9 to 14) (size 15 to 20)
#    0.000    2.000    1.667    3.500    0.000    5.333 
#    3.000    0.000    0.000    0.000    0.000    0.000 
#    0.000    0.000    0.000    0.000    0.000    0.000 
#
# Total GULP energy -268017.827139 kJ/mol
# GULP energy per Si atom -5583.704732 kJ/mol
# Density = 1.750241 g / cm^3
# Si number density = 17.542341 Si / 1000 Ang^3
#
#
#
# Elastic Constant Matrix: (Units=GPa)
#
#
# Indices 1 2 3 4 5 6 
#
# 1 162.6502 83.7736 92.1988 0.0000 0.0000 0.0000
# 2 83.7736 77.4563 60.2841 0.0000 0.0000 0.0000
# 3 92.1988 60.2841 92.6638 0.0000 0.0000 0.0000
# 4 0.0000 0.0000 0.0000 30.0169 0.0000 0.0000
# 5 0.0000 0.0000 0.0000 0.0000 34.0853 0.0000
# 6 0.0000 0.0000 0.0000 0.0000 0.0000 34.7744
#
#
#
# Elastic Compliance Matrix: (Units=1/GPa)
#
#
# Indices 1 2 3 4 5 6 
#
# 1 0.017822 -0.011089 -0.010518 0.000000 0.000000 0.000000
# 2 -0.011089 0.033052 -0.010469 0.000000 0.000000 0.000000
# 3 -0.010518 -0.010469 0.028068 0.000000 0.000000 0.000000
# 4 0.000000 0.000000 0.000000 0.033315 0.000000 0.000000
# 5 0.000000 0.000000 0.000000 0.000000 0.029338 0.000000
# 6 0.000000 0.000000 0.000000 0.000000 0.000000 0.028757
#
#
# Mechanical properties :
#
#
# Convention : Reuss Voigt Hill
#
# Bulk Modulus (GPa) = 67.61763 89.47591 78.54677
# Shear Modulus (GPa) = 20.88247 26.20957 23.54602
#
# Velocity S-wave (km/s) = 3.45397 3.86952 3.66763
# Velocity P-wave (km/s) = 7.38482 8.43093 7.92516
#
# Compressibility (1/GPa) = 0.01478904
#
# Stress axis : x y z
#
# Youngs Moduli (GPa) = 56.11018 30.25515 35.62748
#
# Poissons Ratio (x) = 0.33550 0.37474
# Poissons Ratio (y) = 0.62222 0.37299
# Poissons Ratio (z) = 0.59019 0.31675
#
# Static dielectric constant tensor:
#      x y z
#    x 1.601440 0.000000 0.000000 
#    y 0.000000 1.583050 0.000000 
#    z 0.000000 0.000000 1.567580 
# 
# From -- ./inp_files/23765.got.cif
#   From: 2010.05.17/outbox.cif.g08.bks.cpg/sg62_12_cif.got.tgz:23765.got - 2010.06.03 15:25:27.
