data_PCOD9466009
_publ_section_title
;
Structure prediction by ZEFSAII (Michael W. Deem and Ramdas Pophale) SiO2 
 PCOD9466009
Probable space group: P N M A
;
_chemical_formula_sum "Si O2"
_cell_formula_units_Z 48
_cell_length_a 8.824772
_cell_length_b 17.733827
_cell_length_c 14.559011
_cell_angle_alpha 90.000000
_cell_angle_beta 90.000000
_cell_angle_gamma 90.000000
_cell_volume 2278.441253
_symmetry_space_group_name_H-M "P N M A"
_symmetry_group_IT_number 62
_symmetry_cell_setting 'orthorhombic'
loop_
_space_group_symop_operation_xyz
x,y,z
1/2-x,-y,1/2+z
1/2+x,1/2-y,1/2-z
-x,1/2+y,-z
-x,-y,-z
1/2+x,y,1/2-z
1/2-x,1/2+y,1/2+z
x,1/2-y,z
loop_
_atom_site_type_symbol
_atom_site_label
_atom_site_fract_x
_atom_site_fract_y
_atom_site_fract_z
Si Si1 0.550751 0.109154 0.462011
Si Si2 0.907785 0.337366 0.848091
Si Si3 0.645984 0.426734 0.761159
Si Si4 0.023672 0.425915 0.336430
Si Si5 0.730345 0.165906 0.300836
Si Si6 0.728685 0.503953 0.574381
O O1 0.484321 0.146697 0.553471
O O2 0.617644 0.164449 0.387320
O O3 0.415078 0.059750 0.419878
O O4 0.685013 0.051572 0.491711
O O5 0.866773 0.250000 0.839451
O O6 0.765785 0.392459 0.831924
O O7 0.029454 0.362608 0.771654
O O8 0.556468 0.498636 0.799361
O O9 0.728094 0.454575 0.667535
O O10 0.892868 0.363467 0.335304
O O11 0.155134 0.392729 0.270028
O O12 0.116258 0.449340 0.427554
O O13 0.742537 0.250000 0.261766
#
# Coordination Sequence:
#
# PCOD9466009 Si02
#       6
#     8   8   8   8   8   8
#     4  10  23  42  63  94 127 168 205 258 330 375
#     4  11  23  40  63  92 129 162 204 260 320 374
#     4  11  20  39  65  93 116 163 218 251 302 369
#     4  12  22  40  67  96 119 170 220 262 303 375
#     4  12  24  41  64  93 132 166 209 265 326 380
#     4  10  21  38  66  92 119 160 212 268 294 374
#
# _framework density 21.067034
#
# number of rings (size 3 to 8) (size 9 to 14) (size 15 to 20)
#    0.000    1.000    5.000    1.500    4.667    0.667 
#    0.000    2.500    0.000    0.000    0.000    0.000 
#    0.000    0.000    0.000    0.000    0.000    0.000 
#
# Total GULP energy -268253.965576 kJ/mol
# GULP energy per Si atom -5588.624283 kJ/mol
# Density = 2.101908 g / cm^3
# Si number density = 21.067034 Si / 1000 Ang^3
#
#
#
# Elastic Constant Matrix: (Units=GPa)
#
#
# Indices 1 2 3 4 5 6 
#
# 1 62.7434 29.9602 14.1389 0.0000 0.0000 0.0000
# 2 29.9602 109.7214 10.4475 0.0000 0.0000 0.0000
# 3 14.1389 10.4475 40.1915 0.0000 0.0000 0.0000
# 4 0.0000 0.0000 0.0000 17.4396 0.0000 0.0000
# 5 0.0000 0.0000 0.0000 0.0000 34.1090 0.0000
# 6 0.0000 0.0000 0.0000 0.0000 0.0000 22.4301
#
#
#
# Elastic Compliance Matrix: (Units=1/GPa)
#
#
# Indices 1 2 3 4 5 6 
#
# 1 0.019488 -0.004787 -0.005611 0.000000 0.000000 0.000000
# 2 -0.004787 0.010521 -0.001051 0.000000 0.000000 0.000000
# 3 -0.005611 -0.001051 0.027128 0.000000 0.000000 0.000000
# 4 0.000000 0.000000 0.000000 0.057341 0.000000 0.000000
# 5 0.000000 0.000000 0.000000 0.000000 0.029318 0.000000
# 6 0.000000 0.000000 0.000000 0.000000 0.000000 0.044583
#
#
# Mechanical properties :
#
#
# Convention : Reuss Voigt Hill
#
# Bulk Modulus (GPa) = 29.20657 35.74993 32.47825
# Shear Modulus (GPa) = 22.45268 25.33640 23.89454
#
# Velocity S-wave (km/s) = 3.26816 3.47170 3.37146
# Velocity P-wave (km/s) = 5.30423 5.75123 5.53225
#
# Compressibility (1/GPa) = 0.03423887
#
# Stress axis : x y z
#
# Youngs Moduli (GPa) = 51.31292 95.04622 36.86221
#
# Poissons Ratio (x) = 0.45500 0.20685
# Poissons Ratio (y) = 0.24564 0.03874
# Poissons Ratio (z) = 0.28794 0.09988
#
# Static dielectric constant tensor:
#      x y z
#    x 1.784560 0.000000 0.000000 
#    y 0.000000 1.765150 0.000000 
#    z 0.000000 0.000000 1.757940 
# 
# From -- ./inp_files/16937.got.cif
#   From: 2010.05.17/outbox.cif.g08.bks.cpg/sg62_9_cif.got.tgz:16937.got - 2010.06.03 15:25:27.
