data_PCOD9466529
_publ_section_title
;
Structure prediction by ZEFSAII (Michael W. Deem and Ramdas Pophale) SiO2 
 PCOD9466529
Probable space group: P N M A
;
_chemical_formula_sum "Si O2"
_cell_formula_units_Z 40
_cell_length_a 10.632258
_cell_length_b 20.122852
_cell_length_c 7.581711
_cell_angle_alpha 90.000000
_cell_angle_beta 90.000000
_cell_angle_gamma 90.000000
_cell_volume 1622.117335
_symmetry_space_group_name_H-M "P N M A"
_symmetry_group_IT_number 62
_symmetry_cell_setting 'orthorhombic'
loop_
_space_group_symop_operation_xyz
x,y,z
1/2-x,-y,1/2+z
1/2+x,1/2-y,1/2-z
-x,1/2+y,-z
-x,-y,-z
1/2+x,y,1/2-z
1/2-x,1/2+y,1/2+z
x,1/2-y,z
loop_
_atom_site_type_symbol
_atom_site_label
_atom_site_fract_x
_atom_site_fract_y
_atom_site_fract_z
Si Si1 0.989608 0.884745 0.119177
Si Si2 0.535495 0.379035 0.038531
Si Si3 0.124581 0.250000 0.545270
Si Si4 0.230077 0.900917 0.548862
Si Si5 0.137033 0.503511 0.251323
Si Si6 0.610133 0.750000 0.314201
O O1 0.947989 0.888696 0.326460
O O2 0.869257 0.875796 0.994133
O O3 0.074603 0.819703 0.095839
O O4 0.065862 0.953626 0.101438
O O5 0.559913 0.448111 0.138557
O O6 0.626379 0.316689 0.071563
O O7 0.392282 0.357787 0.086743
O O8 0.237693 0.250000 0.689132
O O9 0.989312 0.250000 0.649241
O O10 0.247366 0.960023 0.685625
O O11 0.188576 0.938508 0.372504
#
# Coordination Sequence:
#
# PCOD9466529 Si02
#       6
#     8   8   4   8   8   4
#     4  10  22  38  65  96 129 169 219 276 333 395
#     4  10  23  40  63  93 131 171 220 275 331 388
#     4  10  24  42  67  95 134 178 216 278 326 398
#     4  11  22  38  65  94 131 171 225 277 330 391
#     4  11  22  39  64  96 133 174 220 276 331 390
#     4  10  24  38  69  97 130 168 224 268 334 390
#
# _framework density 24.659127000000002
#
# number of rings (size 3 to 8) (size 9 to 14) (size 15 to 20)
#    0.000    1.600    0.000    5.400   19.600    0.000 
#    0.000    2.000    0.000    0.000    0.000    0.000 
#    0.000    0.000    0.000    0.000    0.000    0.000 
#
# Total GULP energy -223014.572731 kJ/mol
# GULP energy per Si atom -5575.364318 kJ/mol
# Density = 2.460300 g / cm^3
# Si number density = 24.659127 Si / 1000 Ang^3
#
#
#
# Elastic Constant Matrix: (Units=GPa)
#
#
# Indices 1 2 3 4 5 6 
#
# 1 107.4374 32.9701 5.7057 0.0000 0.0000 0.0000
# 2 32.9701 106.8355 5.2217 0.0000 0.0000 0.0000
# 3 5.7057 5.2217 8.7894 0.0000 0.0000 0.0000
# 4 0.0000 0.0000 0.0000 12.4402 0.0000 0.0000
# 5 0.0000 0.0000 0.0000 0.0000 29.7407 0.0000
# 6 0.0000 0.0000 0.0000 0.0000 0.0000 40.1357
#
#
#
# Elastic Compliance Matrix: (Units=1/GPa)
#
#
# Indices 1 2 3 4 5 6 
#
# 1 0.010493 -0.002992 -0.005034 0.000000 0.000000 0.000000
# 2 -0.002992 0.010493 -0.004292 0.000000 0.000000 0.000000
# 3 -0.005034 -0.004292 0.119591 0.000000 0.000000 0.000000
# 4 0.000000 0.000000 0.000000 0.080385 0.000000 0.000000
# 5 0.000000 0.000000 0.000000 0.000000 0.033624 0.000000
# 6 0.000000 0.000000 0.000000 0.000000 0.000000 0.024915
#
#
# Mechanical properties :
#
#
# Convention : Reuss Voigt Hill
#
# Bulk Modulus (GPa) = 8.62502 34.53971 21.58236
# Shear Modulus (GPa) = 14.58639 28.40763 21.49701
#
# Velocity S-wave (km/s) = 2.43476 3.39781 2.95577
# Velocity P-wave (km/s) = 3.37777 5.42502 4.51886
#
# Compressibility (1/GPa) = 0.11594181
#
# Stress axis : x y z
#
# Youngs Moduli (GPa) = 95.29839 95.29816 8.36183
#
# Poissons Ratio (x) = 0.28516 0.04209
# Poissons Ratio (y) = 0.28516 0.03589
# Poissons Ratio (z) = 0.47975 0.40898
#
# Static dielectric constant tensor:
#      x y z
#    x 2.118740 0.000000 0.000000 
#    y 0.000000 2.024840 0.000000 
#    z 0.000000 0.000000 2.033730 
# 
# From -- ./inp_files/4362.got.cif
#   From: 2010.05.17/outbox.cif.g08.bks.cpg/sg62_3_cif.got.tgz:4362.got - 2010.06.03 15:25:27.
