data_PCOD9466530
_publ_section_title
;
Structure prediction by ZEFSAII (Michael W. Deem and Ramdas Pophale) SiO2 
 PCOD9466530
Probable space group: P N M A
;
_chemical_formula_sum "Si O2"
_cell_formula_units_Z 32
_cell_length_a 21.150081
_cell_length_b 14.076457
_cell_length_c 4.902511
_cell_angle_alpha 90.000000
_cell_angle_beta 90.000000
_cell_angle_gamma 90.000000
_cell_volume 1459.566779
_symmetry_space_group_name_H-M "P N M A"
_symmetry_group_IT_number 62
_symmetry_cell_setting 'orthorhombic'
loop_
_space_group_symop_operation_xyz
x,y,z
1/2-x,-y,1/2+z
1/2+x,1/2-y,1/2-z
-x,1/2+y,-z
-x,-y,-z
1/2+x,y,1/2-z
1/2-x,1/2+y,1/2+z
x,1/2-y,z
loop_
_atom_site_type_symbol
_atom_site_label
_atom_site_fract_x
_atom_site_fract_y
_atom_site_fract_z
Si Si1 0.207955 0.993931 0.215904
Si Si2 0.900105 0.140080 0.721752
Si Si3 0.594568 0.046934 0.964829
Si Si4 0.031540 0.138351 0.039286
O O1 0.163211 0.903953 0.145198
O O2 0.260531 0.968497 0.441667
O O3 0.161183 0.065287 0.380598
O O4 0.894542 0.250000 0.647896
O O5 0.907177 0.067473 0.469081
O O6 0.962155 0.128089 0.907901
O O7 0.542747 0.086236 0.176363
O O8 0.580447 0.092969 0.677164
O O9 0.043224 0.250000 0.075330
#
# Coordination Sequence:
#
# PCOD9466530 Si02
#       4
#     8   8   8   8
#     4  10  22  40  61  84 121 159 209 247 292 354
#     4   9  22  39  67  91 123 161 204 248 308 368
#     4  10  22  38  66  87 125 159 201 253 307 346
#     4  11  21  39  61  98 125 157 201 250 310 368
#
# _framework density 21.924313999999999
#
# number of rings (size 3 to 8) (size 9 to 14) (size 15 to 20)
#    1.500    0.500    0.000    3.750    0.000    2.000 
#    0.000   17.500    0.000    0.000    0.000    0.000 
#    0.000    0.000    0.000    0.000    0.000    0.000 
#
# Total GULP energy -178585.312594 kJ/mol
# GULP energy per Si atom -5580.791019 kJ/mol
# Density = 2.187441 g / cm^3
# Si number density = 21.924314 Si / 1000 Ang^3
#
#
#
# Elastic Constant Matrix: (Units=GPa)
#
#
# Indices 1 2 3 4 5 6 
#
# 1 95.3245 29.8218 19.5134 0.0000 0.0000 0.0000
# 2 29.8218 92.8540 16.6651 0.0000 0.0000 0.0000
# 3 19.5134 16.6651 105.6780 0.0000 0.0000 0.0000
# 4 0.0000 0.0000 0.0000 -2.7805 0.0000 0.0000
# 5 0.0000 0.0000 0.0000 0.0000 57.5308 0.0000
# 6 0.0000 0.0000 0.0000 0.0000 0.0000 22.8571
#
#
#
# Elastic Compliance Matrix: (Units=1/GPa)
#
#
# Indices 1 2 3 4 5 6 
#
# 1 0.011934 -0.003537 -0.001646 0.000000 0.000000 0.000000
# 2 -0.003537 0.012132 -0.001260 0.000000 0.000000 0.000000
# 3 -0.001646 -0.001260 0.009965 0.000000 0.000000 0.000000
# 4 0.000000 0.000000 0.000000 -0.359647 0.000000 0.000000
# 5 0.000000 0.000000 0.000000 0.000000 0.017382 0.000000
# 6 0.000000 0.000000 0.000000 0.000000 0.000000 0.043750
#
#
# Mechanical properties :
#
#
# Convention : Reuss Voigt Hill
#
# Bulk Modulus (GPa) = 47.29296 47.31745 47.30521
# Shear Modulus (GPa) = -20.44577 30.71189 5.13306
#
# Velocity S-wave (km/s) = -3.05710 3.74681 1.53178
# Velocity P-wave (km/s) = 3.02600 6.35194 4.97513
#
# Compressibility (1/GPa) = 0.02114480
#
# Stress axis : x y z
#
# Youngs Moduli (GPa) = 83.79382 82.42759 100.34831
#
# Poissons Ratio (x) = 0.29159 0.16515
# Poissons Ratio (y) = 0.29642 0.12644
# Poissons Ratio (z) = 0.13790 0.10386
#
# Static dielectric constant tensor:
#      x y z
#    x 1.904340 0.000000 0.000000 
#    y 0.000000 1.769200 0.000000 
#    z 0.000000 0.000000 1.796280 
# 
# From -- ./inp_files/2050.got.cif
#   From: 2010.05.17/outbox.cif.g08.bks.cpg/sg62_2_cif.got.tgz:2050.got - 2010.06.03 15:25:27.
