data_PCOD9466642
_publ_section_title
;
Structure prediction by ZEFSAII (Michael W. Deem and Ramdas Pophale) SiO2 
 PCOD9466642
Probable space group: P N M A
;
_chemical_formula_sum "Si O2"
_cell_formula_units_Z 64
_cell_length_a 14.975982
_cell_length_b 8.804579
_cell_length_c 24.971851
_cell_angle_alpha 90.000000
_cell_angle_beta 90.000000
_cell_angle_gamma 90.000000
_cell_volume 3292.718767
_symmetry_space_group_name_H-M "P N M A"
_symmetry_group_IT_number 62
_symmetry_cell_setting 'orthorhombic'
loop_
_space_group_symop_operation_xyz
x,y,z
1/2-x,-y,1/2+z
1/2+x,1/2-y,1/2-z
-x,1/2+y,-z
-x,-y,-z
1/2+x,y,1/2-z
1/2-x,1/2+y,1/2+z
x,1/2-y,z
loop_
_atom_site_type_symbol
_atom_site_label
_atom_site_fract_x
_atom_site_fract_y
_atom_site_fract_z
Si Si1 0.368976 0.432468 0.758804
Si Si2 0.593065 0.568680 0.021263
Si Si3 0.881030 0.575196 0.356222
Si Si4 0.755123 0.431392 0.433962
Si Si5 0.837436 0.572509 0.232646
Si Si6 0.062757 0.428670 0.369134
Si Si7 0.001324 0.931817 0.829499
Si Si8 0.050224 0.067379 0.050879
O O1 0.373102 0.250000 0.755252
O O2 0.264976 0.479361 0.761926
O O3 0.411111 0.488590 0.814418
O O4 0.425025 0.499982 0.709423
O O5 0.583699 0.750000 0.025347
O O6 0.611437 0.498543 0.079512
O O7 0.500000 0.500000 0.000000
O O8 0.673612 0.535061 0.980638
O O9 0.900877 0.750000 0.370812
O O10 0.788658 0.522657 0.382291
O O11 0.877076 0.564084 0.292416
O O12 0.958055 0.465073 0.377346
O O13 0.757539 0.250000 0.423067
O O14 0.655051 0.472514 0.449987
O O15 0.836762 0.750000 0.216493
O O16 0.902779 0.482685 0.193486
O O17 0.077690 0.250000 0.364986
O O18 0.994007 0.750000 0.827233
O O19 0.987659 0.981073 0.891042
O O20 0.043352 0.250000 0.048457
O O21 0.000000 0.000000 0.000000
#
# Coordination Sequence:
#
# PCOD9466642 Si02
#       8
#     8   8   8   8   8   8   8   8
#     4  11  23  41  63  91 126 165 210 256 308 371
#     4  11  22  37  59  88 123 163 205 254 309 373
#     4  11  21  36  61  91 122 159 207 256 304 370
#     4  10  22  40  63  89 122 163 208 257 316 373
#     4  10  23  40  62  91 125 166 208 254 309 371
#     4  12  24  38  58  87 124 166 203 252 314 367
#     4  11  23  40  65  95 127 162 204 259 318 375
#     4  10  24  45  66  92 123 161 209 261 311 369
#
# _framework density 19.436824999999999
#
# number of rings (size 3 to 8) (size 9 to 14) (size 15 to 20)
#    0.000    1.250    2.500    3.375    0.000    4.500 
#    0.000    3.750    0.000    0.000    0.000    0.000 
#    0.000    0.000    0.000    0.000    0.000    0.000 
#
# Total GULP energy -357753.092199 kJ/mol
# GULP energy per Si atom -5589.892066 kJ/mol
# Density = 1.939259 g / cm^3
# Si number density = 19.436825 Si / 1000 Ang^3
#
#
#
# Elastic Constant Matrix: (Units=GPa)
#
#
# Indices 1 2 3 4 5 6 
#
# 1 106.9165 38.0455 59.4935 0.0000 0.0000 0.0000
# 2 38.0455 50.6808 41.3345 0.0000 0.0000 0.0000
# 3 59.4935 41.3345 139.8873 0.0000 0.0000 0.0000
# 4 0.0000 0.0000 0.0000 30.2788 0.0000 0.0000
# 5 0.0000 0.0000 0.0000 0.0000 30.4555 0.0000
# 6 0.0000 0.0000 0.0000 0.0000 0.0000 28.7263
#
#
#
# Elastic Compliance Matrix: (Units=1/GPa)
#
#
# Indices 1 2 3 4 5 6 
#
# 1 0.014139 -0.007523 -0.003791 0.000000 0.000000 0.000000
# 2 -0.007523 0.029999 -0.005665 0.000000 0.000000 0.000000
# 3 -0.003791 -0.005665 0.010435 0.000000 0.000000 0.000000
# 4 0.000000 0.000000 0.000000 0.033026 0.000000 0.000000
# 5 0.000000 0.000000 0.000000 0.000000 0.032835 0.000000
# 6 0.000000 0.000000 0.000000 0.000000 0.000000 0.034811
#
#
# Mechanical properties :
#
#
# Convention : Reuss Voigt Hill
#
# Bulk Modulus (GPa) = 48.50488 63.91463 56.20976
# Shear Modulus (GPa) = 25.50071 28.46617 26.98344
#
# Velocity S-wave (km/s) = 3.62605 3.83109 3.72998
# Velocity P-wave (km/s) = 6.52230 7.24737 6.89437
#
# Compressibility (1/GPa) = 0.02061648
#
# Stress axis : x y z
#
# Youngs Moduli (GPa) = 70.72530 33.33489 95.83536
#
# Poissons Ratio (x) = 0.25077 0.36327
# Poissons Ratio (y) = 0.53204 0.54289
# Poissons Ratio (z) = 0.26809 0.18883
#
# Static dielectric constant tensor:
#      x y z
#    x 1.696140 0.000000 0.000000 
#    y 0.000000 1.654770 0.000000 
#    z 0.000000 0.000000 1.670330 
# 
# From -- ./inp_files/29932.got.cif
#   From: 2010.05.17/outbox.cif.g08.bks.cpg/sg62_15_cif.got.tgz:29932.got - 2010.06.03 15:25:27.
