data_PCOD9466994
_publ_section_title
;
Structure prediction by ZEFSAII (Michael W. Deem and Ramdas Pophale) SiO2 
 PCOD9466994
Probable space group: P N M A
;
_chemical_formula_sum "Si O2"
_cell_formula_units_Z 40
_cell_length_a 10.127233
_cell_length_b 18.383293
_cell_length_c 9.924467
_cell_angle_alpha 90.000000
_cell_angle_beta 90.000000
_cell_angle_gamma 90.000000
_cell_volume 1847.656794
_symmetry_space_group_name_H-M "P N M A"
_symmetry_group_IT_number 62
_symmetry_cell_setting 'orthorhombic'
loop_
_space_group_symop_operation_xyz
x,y,z
1/2-x,-y,1/2+z
1/2+x,1/2-y,1/2-z
-x,1/2+y,-z
-x,-y,-z
1/2+x,y,1/2-z
1/2-x,1/2+y,1/2+z
x,1/2-y,z
loop_
_atom_site_type_symbol
_atom_site_label
_atom_site_fract_x
_atom_site_fract_y
_atom_site_fract_z
Si Si1 0.065813 0.115526 0.621849
Si Si2 0.338225 0.023625 0.225037
Si Si3 0.061948 0.167713 0.919491
Si Si4 0.661190 0.667347 0.928897
Si Si5 0.823467 0.438827 0.976500
O O1 0.195074 0.113901 0.527397
O O2 0.941640 0.148522 0.547512
O O3 0.051284 0.030222 0.662853
O O4 0.095950 0.155300 0.762108
O O5 0.359298 0.106575 0.184276
O O6 0.328074 0.017742 0.384390
O O7 0.209039 0.992616 0.147698
O O8 0.010748 0.250000 0.935679
O O9 0.192869 0.160702 0.008792
O O10 0.952857 0.108594 0.957455
O O11 0.640932 0.750000 0.882525
#
# Coordination Sequence:
#
# PCOD9466994 Si02
#       5
#     8   8   8   8   8
#     4  10  23  41  70  99 135 182 231 285 338 414
#     4  10  24  45  70 101 137 181 240 287 338 413
#     4  11  24  43  68 103 142 183 229 285 350 414
#     4  11  24  42  66  99 142 183 228 293 353 407
#     4  10  25  44  71  98 139 180 235 282 345 406
#
# _framework density 21.649039999999999
#
# number of rings (size 3 to 8) (size 9 to 14) (size 15 to 20)
#    1.200    0.400    0.000    3.600    2.800    8.800 
#    0.000    2.000    0.000    0.000    0.000    0.000 
#    0.000    0.000    0.000    0.000    0.000    0.000 
#
# Total GULP energy -223503.489461 kJ/mol
# GULP energy per Si atom -5587.587237 kJ/mol
# Density = 2.159977 g / cm^3
# Si number density = 21.649040 Si / 1000 Ang^3
#
#
#
# Elastic Constant Matrix: (Units=GPa)
#
#
# Indices 1 2 3 4 5 6 
#
# 1 46.9895 30.7350 0.5734 0.0000 0.0000 0.0000
# 2 30.7350 123.1265 14.3008 0.0000 0.0000 0.0000
# 3 0.5734 14.3008 39.0979 0.0000 0.0000 0.0000
# 4 0.0000 0.0000 0.0000 -10.5970 0.0000 0.0000
# 5 0.0000 0.0000 0.0000 0.0000 17.1745 0.0000
# 6 0.0000 0.0000 0.0000 0.0000 0.0000 34.3886
#
#
#
# Elastic Compliance Matrix: (Units=1/GPa)
#
#
# Indices 1 2 3 4 5 6 
#
# 1 0.025590 -0.006626 0.002048 0.000000 0.000000 0.000000
# 2 -0.006626 0.010198 -0.003633 0.000000 0.000000 0.000000
# 3 0.002048 -0.003633 0.026876 0.000000 0.000000 0.000000
# 4 0.000000 0.000000 0.000000 -0.094366 0.000000 0.000000
# 5 0.000000 0.000000 0.000000 0.000000 0.058226 0.000000
# 6 0.000000 0.000000 0.000000 0.000000 0.000000 0.029079
#
#
# Mechanical properties :
#
#
# Convention : Reuss Voigt Hill
#
# Bulk Modulus (GPa) = 21.62509 33.38137 27.50323
# Shear Modulus (GPa) = 57.18419 19.10022 38.14221
#
# Velocity S-wave (km/s) = 5.14505 2.97352 4.20198
# Velocity P-wave (km/s) = 6.73097 5.21938 6.02279
#
# Compressibility (1/GPa) = 0.04624259
#
# Stress axis : x y z
#
# Youngs Moduli (GPa) = 39.07760 98.06244 37.20855
#
# Poissons Ratio (x) = 0.64973 -0.07621
# Poissons Ratio (y) = 0.25892 0.13517
# Poissons Ratio (z) = -0.08004 0.35624
#
# Static dielectric constant tensor:
#      x y z
#    x 1.789730 0.000000 0.000000 
#    y 0.000000 1.812380 0.000000 
#    z 0.000000 0.000000 1.751480 
# 
# From -- ./inp_files/5022.got.cif
#   From: 2010.05.17/outbox.cif.g08.bks.cpg/sg62_3_cif.got.tgz:5022.got - 2010.06.03 15:25:27.
