data_PCOD9466191
_publ_section_title
;
Structure prediction by ZEFSAII (Michael W. Deem and Ramdas Pophale) SiO2 
 PCOD9466191
Probable space group: P N M A
;
_chemical_formula_sum "Si O2"
_cell_formula_units_Z 48
_cell_length_a 29.211594
_cell_length_b 13.444886
_cell_length_c 5.275070
_cell_angle_alpha 90.000000
_cell_angle_beta 90.000000
_cell_angle_gamma 90.000000
_cell_volume 2071.765550
_symmetry_space_group_name_H-M "P N M A"
_symmetry_group_IT_number 62
_symmetry_cell_setting 'orthorhombic'
loop_
_space_group_symop_operation_xyz
x,y,z
1/2-x,-y,1/2+z
1/2+x,1/2-y,1/2-z
-x,1/2+y,-z
-x,-y,-z
1/2+x,y,1/2-z
1/2-x,1/2+y,1/2+z
x,1/2-y,z
loop_
_atom_site_type_symbol
_atom_site_label
_atom_site_fract_x
_atom_site_fract_y
_atom_site_fract_z
Si Si1 0.400599 0.516876 0.796212
Si Si2 0.468699 0.634057 0.476490
Si Si3 0.313014 0.020601 0.511403
Si Si4 0.971285 0.134495 0.478894
Si Si5 0.344049 0.642580 0.127988
Si Si6 0.756314 0.642931 0.739387
O O1 0.429381 0.557316 0.556937
O O2 0.352055 0.466986 0.721318
O O3 0.430620 0.440599 0.956888
O O4 0.386556 0.615878 0.950015
O O5 0.453766 0.750000 0.485156
O O6 0.491310 0.617241 0.202350
O O7 0.506234 0.622128 0.702413
O O8 0.337372 0.949714 0.309829
O O9 0.269894 0.951804 0.593654
O O10 0.291054 0.119092 0.398836
O O11 0.956735 0.250000 0.501526
O O12 0.349627 0.750000 0.255379
O O13 0.298326 0.647382 0.957733
O O14 0.754793 0.750000 0.873977
#
# Coordination Sequence:
#
# PCOD9466191 Si02
#       6
#     8   8   8   8   8   8
#     4  11  24  37  62  94 127 160 215 267 322 380
#     4  10  22  41  65  93 127 174 219 263 325 394
#     4  11  22  39  62  91 125 164 211 267 320 394
#     4  10  23  42  65  92 131 175 216 263 324 394
#     4  10  22  39  62  89 122 160 204 265 322 377
#     4  10  21  40  62  87 120 163 211 258 319 390
#
# _framework density 23.168644
#
# number of rings (size 3 to 8) (size 9 to 14) (size 15 to 20)
#    0.000    1.667    1.667    2.000    4.667    2.667 
#    0.000    0.833    0.000    0.000    0.000    0.000 
#    0.000    0.000    0.000    0.000    0.000    0.000 
#
# Total GULP energy -268468.916165 kJ/mol
# GULP energy per Si atom -5593.102420 kJ/mol
# Density = 2.311591 g / cm^3
# Si number density = 23.168644 Si / 1000 Ang^3
#
#
#
# Elastic Constant Matrix: (Units=GPa)
#
#
# Indices 1 2 3 4 5 6 
#
# 1 92.7519 42.6290 15.2704 0.0000 0.0000 0.0000
# 2 42.6290 86.4020 2.1140 0.0000 0.0000 0.0000
# 3 15.2704 2.1140 63.9616 0.0000 0.0000 0.0000
# 4 0.0000 0.0000 0.0000 -10.6970 0.0000 0.0000
# 5 0.0000 0.0000 0.0000 0.0000 32.1422 0.0000
# 6 0.0000 0.0000 0.0000 0.0000 0.0000 -19.6689
#
#
#
# Elastic Compliance Matrix: (Units=1/GPa)
#
#
# Indices 1 2 3 4 5 6 
#
# 1 0.014587 -0.007118 -0.003247 0.000000 0.000000 0.000000
# 2 -0.007118 0.015056 0.001202 0.000000 0.000000 0.000000
# 3 -0.003247 0.001202 0.016370 0.000000 0.000000 0.000000
# 4 0.000000 0.000000 0.000000 -0.093484 0.000000 0.000000
# 5 0.000000 0.000000 0.000000 0.000000 0.031112 0.000000
# 6 0.000000 0.000000 0.000000 0.000000 0.000000 -0.050842
#
#
# Mechanical properties :
#
#
# Convention : Reuss Voigt Hill
#
# Bulk Modulus (GPa) = 36.11844 40.34915 38.23380
# Shear Modulus (GPa) = -126.11947 12.56207 -56.77870
#
# Velocity S-wave (km/s) = -7.38604 2.33105 -4.95579
# Velocity P-wave (km/s) = 7.55744 4.96974 4.02596
#
# Compressibility (1/GPa) = 0.02768669
#
# Stress axis : x y z
#
# Youngs Moduli (GPa) = 68.55235 66.41821 61.08749
#
# Poissons Ratio (x) = 0.47274 0.19838
# Poissons Ratio (y) = 0.48793 -0.07341
# Poissons Ratio (z) = 0.22262 -0.07981
#
# Static dielectric constant tensor:
#      x y z
#    x 1.860590 0.000000 0.000000 
#    y 0.000000 1.915870 0.000000 
#    z 0.000000 0.000000 1.939660 
# 
# From -- ./inp_files/3172.got.cif
#   From: 2010.05.17/outbox.cif.g08.bks.cpg/sg62_2_cif.got.tgz:3172.got - 2010.06.03 15:25:27.
