data_PCOD9466600
_publ_section_title
;
Structure prediction by ZEFSAII (Michael W. Deem and Ramdas Pophale) SiO2 
 PCOD9466600
Probable space group: P N M A
;
_chemical_formula_sum "Si O2"
_cell_formula_units_Z 52
_cell_length_a 22.214268
_cell_length_b 13.584823
_cell_length_c 7.366106
_cell_angle_alpha 90.000000
_cell_angle_beta 90.000000
_cell_angle_gamma 90.000000
_cell_volume 2222.920625
_symmetry_space_group_name_H-M "P N M A"
_symmetry_group_IT_number 62
_symmetry_cell_setting 'orthorhombic'
loop_
_space_group_symop_operation_xyz
x,y,z
1/2-x,-y,1/2+z
1/2+x,1/2-y,1/2-z
-x,1/2+y,-z
-x,-y,-z
1/2+x,y,1/2-z
1/2-x,1/2+y,1/2+z
x,1/2-y,z
loop_
_atom_site_type_symbol
_atom_site_label
_atom_site_fract_x
_atom_site_fract_y
_atom_site_fract_z
Si Si1 0.249061 0.750000 0.482287
Si Si2 0.637669 0.250000 0.787973
Si Si3 0.094628 0.066562 0.549388
Si Si4 0.205644 0.951600 0.561049
Si Si5 0.771765 0.750000 0.587241
Si Si6 0.446596 0.364026 0.594359
Si Si7 0.500223 0.059986 0.230107
Si Si8 0.813670 0.427193 0.017640
O O1 0.307017 0.750000 0.352217
O O2 0.208414 0.847209 0.461605
O O3 0.269459 0.750000 0.694963
O O4 0.602678 0.353287 0.789422
O O5 0.664156 0.250000 0.993174
O O6 0.059214 0.969792 0.618982
O O7 0.158909 0.028604 0.475636
O O8 0.051056 0.108366 0.394332
O O9 0.182157 0.946499 0.766917
O O10 0.275585 0.983943 0.567231
O O11 0.734020 0.660009 0.508417
O O12 0.450669 0.250000 0.656069
O O13 0.474027 0.452251 0.713283
O O14 0.481435 0.376801 0.402845
O O15 0.377218 0.395262 0.560331
#
# Coordination Sequence:
#
# PCOD9466600 Si02
#       8
#     4   4   8   8   4   8   8   8
#     4  10  26  40  63 106 138 179 230 274 359 428
#     4  12  24  44  71 103 141 185 230 289 348 433
#     4  11  24  46  67  97 138 179 235 290 350 421
#     4  11  23  41  66  98 137 176 218 289 351 414
#     4  10  22  40  60 103 135 170 224 273 357 413
#     4  11  24  45  72  97 133 184 233 292 347 426
#     4  10  26  46  65 100 135 183 237 289 348 411
#     4  11  22  40  66  97 133 168 220 282 349 417
#
# _framework density 23.392648999999999
#
# number of rings (size 3 to 8) (size 9 to 14) (size 15 to 20)
#    0.000    1.231    3.846    0.923    4.308    0.000 
#    4.154    0.000    0.000    0.000    0.000    0.000 
#    0.000    0.000    0.000    0.000    0.000    0.000 
#
# Total GULP energy -290577.251219 kJ/mol
# GULP energy per Si atom -5588.024062 kJ/mol
# Density = 2.333941 g / cm^3
# Si number density = 23.392649 Si / 1000 Ang^3
#
#
#
# Elastic Constant Matrix: (Units=GPa)
#
#
# Indices 1 2 3 4 5 6 
#
# 1 113.6103 29.1795 12.8723 0.0000 0.0000 0.0000
# 2 29.1795 104.9267 -8.6425 0.0000 0.0000 0.0000
# 3 12.8723 -8.6425 46.6072 0.0000 0.0000 0.0000
# 4 0.0000 0.0000 0.0000 19.0301 0.0000 0.0000
# 5 0.0000 0.0000 0.0000 0.0000 28.7323 0.0000
# 6 0.0000 0.0000 0.0000 0.0000 0.0000 25.1842
#
#
#
# Elastic Compliance Matrix: (Units=1/GPa)
#
#
# Indices 1 2 3 4 5 6 
#
# 1 0.009959 -0.003043 -0.003315 0.000000 0.000000 0.000000
# 2 -0.003043 0.010608 0.002807 0.000000 0.000000 0.000000
# 3 -0.003315 0.002807 0.022892 0.000000 0.000000 0.000000
# 4 0.000000 0.000000 0.000000 0.052548 0.000000 0.000000
# 5 0.000000 0.000000 0.000000 0.000000 0.034804 0.000000
# 6 0.000000 0.000000 0.000000 0.000000 0.000000 0.039708
#
#
# Mechanical properties :
#
#
# Convention : Reuss Voigt Hill
#
# Bulk Modulus (GPa) = 27.50359 36.88476 32.19417
# Shear Modulus (GPa) = 26.35210 30.03831 28.19521
#
# Velocity S-wave (km/s) = 3.36000 3.58731 3.47551
# Velocity P-wave (km/s) = 5.18031 5.74111 5.46790
#
# Compressibility (1/GPa) = 0.03635889
#
# Stress axis : x y z
#
# Youngs Moduli (GPa) = 100.41132 94.27006 43.68346
#
# Poissons Ratio (x) = 0.28682 0.14480
# Poissons Ratio (y) = 0.30551 -0.12264
# Poissons Ratio (z) = 0.33284 -0.26465
#
# Static dielectric constant tensor:
#      x y z
#    x 1.899790 0.000000 0.000000 
#    y 0.000000 2.012970 0.000000 
#    z 0.000000 0.000000 1.915920 
# 
# From -- ./inp_files/8686.got.cif
#   From: 2010.05.17/outbox.cif.g08.bks.cpg/sg62_5_cif.got.tgz:8686.got - 2010.06.03 15:25:27.
