data_PCOD9466572
_publ_section_title
;
Structure prediction by ZEFSAII (Michael W. Deem and Ramdas Pophale) SiO2 
 PCOD9466572
Probable space group: P N M A
;
_chemical_formula_sum "Si O2"
_cell_formula_units_Z 48
_cell_length_a 9.500029
_cell_length_b 29.276656
_cell_length_c 7.454859
_cell_angle_alpha 90.000000
_cell_angle_beta 90.000000
_cell_angle_gamma 90.000000
_cell_volume 2073.413083
_symmetry_space_group_name_H-M "P N M A"
_symmetry_group_IT_number 62
_symmetry_cell_setting 'orthorhombic'
loop_
_space_group_symop_operation_xyz
x,y,z
1/2-x,-y,1/2+z
1/2+x,1/2-y,1/2-z
-x,1/2+y,-z
-x,-y,-z
1/2+x,y,1/2-z
1/2-x,1/2+y,1/2+z
x,1/2-y,z
loop_
_atom_site_type_symbol
_atom_site_label
_atom_site_fract_x
_atom_site_fract_y
_atom_site_fract_z
Si Si1 0.592487 0.695986 0.538442
Si Si2 0.511802 0.001724 0.216391
Si Si3 0.796763 0.659730 0.824935
Si Si4 0.868448 0.587824 0.324347
Si Si5 0.867464 0.349980 0.656268
Si Si6 0.259066 0.059321 0.298890
O O1 0.573843 0.750000 0.547900
O O2 0.733070 0.681155 0.644316
O O3 0.456958 0.671964 0.629692
O O4 0.604345 0.679605 0.333295
O O5 0.418315 0.043843 0.282016
O O6 0.669312 0.015424 0.266642
O O7 0.448667 0.953513 0.276349
O O8 0.500000 0.000000 0.000000
O O9 0.773911 0.605321 0.807549
O O10 0.696230 0.676475 0.987322
O O11 0.754283 0.613801 0.207040
O O12 0.788084 0.569733 0.499298
O O13 0.990243 0.622679 0.386251
#
# Coordination Sequence:
#
# PCOD9466572 Si02
#       6
#     8   8   8   8   8   8
#     4  12  28  49  75 110 142 187 246 306 373 445
#     4  10  22  39  64 104 143 188 242 296 342 426
#     4  12  25  48  77 106 145 192 237 300 375 439
#     4  11  23  44  67 103 148 193 241 295 358 422
#     4  12  25  48  72 106 146 194 239 300 366 444
#     4  11  22  42  69 102 144 190 242 292 359 426
#
# _framework density 23.150238000000002
#
# number of rings (size 3 to 8) (size 9 to 14) (size 15 to 20)
#    0.000    0.667    3.333    5.500    0.000    2.667 
#    0.000    5.000    0.000    0.000    0.000    0.000 
#    0.000    0.000    0.000    0.000    0.000    0.000 
#
# Total GULP energy -268899.900622 kJ/mol
# GULP energy per Si atom -5602.081263 kJ/mol
# Density = 2.309755 g / cm^3
# Si number density = 23.150238 Si / 1000 Ang^3
#
#
#
# Elastic Constant Matrix: (Units=GPa)
#
#
# Indices 1 2 3 4 5 6 
#
# 1 55.3732 -0.6339 1.2456 0.0000 0.0000 0.0000
# 2 -0.6339 44.8166 -0.8030 0.0000 0.0000 0.0000
# 3 1.2456 -0.8030 57.9451 0.0000 0.0000 0.0000
# 4 0.0000 0.0000 0.0000 10.1007 0.0000 0.0000
# 5 0.0000 0.0000 0.0000 0.0000 33.0562 0.0000
# 6 0.0000 0.0000 0.0000 0.0000 0.0000 19.3776
#
#
#
# Elastic Compliance Matrix: (Units=1/GPa)
#
#
# Indices 1 2 3 4 5 6 
#
# 1 0.018071 0.000249 -0.000385 0.000000 0.000000 0.000000
# 2 0.000249 0.022322 0.000304 0.000000 0.000000 0.000000
# 3 -0.000385 0.000304 0.017270 0.000000 0.000000 0.000000
# 4 0.000000 0.000000 0.000000 0.099003 0.000000 0.000000
# 5 0.000000 0.000000 0.000000 0.000000 0.030251 0.000000
# 6 0.000000 0.000000 0.000000 0.000000 0.000000 0.051606
#
#
# Mechanical properties :
#
#
# Convention : Reuss Voigt Hill
#
# Bulk Modulus (GPa) = 17.24183 17.52804 17.38494
# Shear Modulus (GPa) = 19.41589 23.06199 21.23894
#
# Velocity S-wave (km/s) = 2.89916 3.15967 3.03221
# Velocity P-wave (km/s) = 4.32097 4.57157 4.44803
#
# Compressibility (1/GPa) = 0.05799848
#
# Stress axis : x y z
#
# Youngs Moduli (GPa) = 55.33795 44.79856 57.90321
#
# Poissons Ratio (x) = -0.01114 0.02229
# Poissons Ratio (y) = -0.01376 -0.01760
# Poissons Ratio (z) = 0.02131 -0.01362
#
# Static dielectric constant tensor:
#      x y z
#    x 1.836340 0.000000 0.000000 
#    y 0.000000 1.868060 0.000000 
#    z 0.000000 0.000000 1.922280 
# 
# From -- ./inp_files/4544.got.cif
#   From: 2010.05.17/outbox.cif.g08.bks.cpg/sg62_3_cif.got.tgz:4544.got - 2010.06.03 15:25:27.
