data_PCOD9466472
_publ_section_title
;
Structure prediction by ZEFSAII (Michael W. Deem and Ramdas Pophale) SiO2 
 PCOD9466472
Probable space group: P N M A
;
_chemical_formula_sum "Si O2"
_cell_formula_units_Z 64
_cell_length_a 13.200655
_cell_length_b 9.143847
_cell_length_c 26.525996
_cell_angle_alpha 90.000000
_cell_angle_beta 90.000000
_cell_angle_gamma 90.000000
_cell_volume 3201.814236
_symmetry_space_group_name_H-M "P N M A"
_symmetry_group_IT_number 62
_symmetry_cell_setting 'orthorhombic'
loop_
_space_group_symop_operation_xyz
x,y,z
1/2-x,-y,1/2+z
1/2+x,1/2-y,1/2-z
-x,1/2+y,-z
-x,-y,-z
1/2+x,y,1/2-z
1/2-x,1/2+y,1/2+z
x,1/2-y,z
loop_
_atom_site_type_symbol
_atom_site_label
_atom_site_fract_x
_atom_site_fract_y
_atom_site_fract_z
Si Si1 0.073069 0.582231 0.570223
Si Si2 0.472915 0.573573 0.634952
Si Si3 0.684556 0.088079 0.770056
Si Si4 0.373031 0.416705 0.951703
Si Si5 0.691904 0.578730 0.591012
Si Si6 0.234078 0.920063 0.118350
Si Si7 0.700863 0.085723 0.197911
Si Si8 0.965038 0.416132 0.756955
O O1 0.069478 0.750000 0.588683
O O2 0.096068 0.585223 0.510399
O O3 0.166861 0.495445 0.594497
O O4 0.962870 0.506739 0.575995
O O5 0.466497 0.750000 0.636589
O O6 0.576796 0.534258 0.604996
O O7 0.371474 0.505322 0.610223
O O8 0.477472 0.510925 0.692138
O O9 0.705491 0.250000 0.746751
O O10 0.745311 0.077090 0.821556
O O11 0.565259 0.084507 0.776848
O O12 0.706825 0.950968 0.734861
O O13 0.371206 0.250000 0.932860
O O14 0.261467 0.486994 0.946863
O O15 0.689818 0.750000 0.576415
O O16 0.756949 0.565228 0.642411
O O17 0.226752 0.750000 0.102699
O O18 0.663106 0.250000 0.203617
O O19 0.620376 0.974858 0.220163
O O20 0.945562 0.250000 0.773801
#
# Coordination Sequence:
#
# PCOD9466472 Si02
#       8
#     8   8   8   8   8   8   8   8
#     4  10  22  42  66  93 122 153 190 239 299 356
#     4  11  22  39  59  83 118 160 202 246 294 349
#     4  10  22  37  54  80 115 154 198 243 288 342
#     4  10  22  41  67  94 120 152 193 240 296 357
#     4  10  23  40  59  88 121 155 200 247 297 355
#     4  11  23  39  60  90 120 155 202 246 296 353
#     4  11  22  36  55  82 115 154 199 242 290 346
#     4  11  22  36  53  78 115 157 198 246 294 343
#
# _framework density 19.988668000000001
#
# number of rings (size 3 to 8) (size 9 to 14) (size 15 to 20)
#    0.000    1.500    2.500    2.250    1.750    4.500 
#    0.000    0.625    0.000    0.000    0.000    0.000 
#    0.000    0.000    0.000    0.000    0.000    0.000 
#
# Total GULP energy -357072.442127 kJ/mol
# GULP energy per Si atom -5579.256908 kJ/mol
# Density = 1.994317 g / cm^3
# Si number density = 19.988668 Si / 1000 Ang^3
#
#
#
# Elastic Constant Matrix: (Units=GPa)
#
#
# Indices 1 2 3 4 5 6 
#
# 1 121.4102 33.8592 1.6750 0.0000 0.0000 0.0000
# 2 33.8592 79.8564 10.3536 0.0000 0.0000 0.0000
# 3 1.6750 10.3536 5.6234 0.0000 0.0000 0.0000
# 4 0.0000 0.0000 0.0000 19.4286 0.0000 0.0000
# 5 0.0000 0.0000 0.0000 0.0000 55.6633 0.0000
# 6 0.0000 0.0000 0.0000 0.0000 0.0000 33.6646
#
#
#
# Elastic Compliance Matrix: (Units=1/GPa)
#
#
# Indices 1 2 3 4 5 6 
#
# 1 0.009494 -0.004806 0.006021 0.000000 0.000000 0.000000
# 2 -0.004806 0.018882 -0.033333 0.000000 0.000000 0.000000
# 3 0.006021 -0.033333 0.237407 0.000000 0.000000 0.000000
# 4 0.000000 0.000000 0.000000 0.051471 0.000000 0.000000
# 5 0.000000 0.000000 0.000000 0.000000 0.017965 0.000000
# 6 0.000000 0.000000 0.000000 0.000000 0.000000 0.029705
#
#
# Mechanical properties :
#
#
# Convention : Reuss Voigt Hill
#
# Bulk Modulus (GPa) = 4.96166 33.18507 19.07336
# Shear Modulus (GPa) = 10.07369 32.48476 21.27923
#
# Velocity S-wave (km/s) = 2.24736 4.03570 3.26631
# Velocity P-wave (km/s) = 3.03674 6.19305 4.87728
#
# Compressibility (1/GPa) = 0.20154558
#
# Stress axis : x y z
#
# Youngs Moduli (GPa) = 105.33211 52.96053 4.21218
#
# Poissons Ratio (x) = 0.25453 -0.02536
# Poissons Ratio (y) = 0.50622 0.14041
# Poissons Ratio (z) = -0.63418 1.76535
#
# Static dielectric constant tensor:
#      x y z
#    x 1.767990 0.000000 0.000000 
#    y 0.000000 1.706390 0.000000 
#    z 0.000000 0.000000 1.706090 
# 
# From -- ./inp_files/32524.got.cif
#   From: 2010.05.17/outbox.cif.g08.bks.cpg/sg62_17_cif.got.tgz:32524.got - 2010.06.03 15:25:27.
