data_PCOD9466027
_publ_section_title
;
Structure prediction by ZEFSAII (Michael W. Deem and Ramdas Pophale) SiO2 
 PCOD9466027
Probable space group: P N M A
;
_chemical_formula_sum "Si O2"
_cell_formula_units_Z 48
_cell_length_a 20.301367
_cell_length_b 13.983764
_cell_length_c 8.743380
_cell_angle_alpha 90.000000
_cell_angle_beta 90.000000
_cell_angle_gamma 90.000000
_cell_volume 2482.153995
_symmetry_space_group_name_H-M "P N M A"
_symmetry_group_IT_number 62
_symmetry_cell_setting 'orthorhombic'
loop_
_space_group_symop_operation_xyz
x,y,z
1/2-x,-y,1/2+z
1/2+x,1/2-y,1/2-z
-x,1/2+y,-z
-x,-y,-z
1/2+x,y,1/2-z
1/2-x,1/2+y,1/2+z
x,1/2-y,z
loop_
_atom_site_type_symbol
_atom_site_label
_atom_site_fract_x
_atom_site_fract_y
_atom_site_fract_z
Si Si1 0.415935 0.637208 0.814194
Si Si2 0.366673 0.135961 0.761843
Si Si3 0.922526 0.983532 0.975047
Si Si4 0.791353 0.976802 0.569705
Si Si5 0.165068 0.971915 0.757201
Si Si6 0.444752 0.137535 0.066718
O O1 0.412558 0.750000 0.831998
O O2 0.416349 0.605339 0.638699
O O3 0.483190 0.599228 0.891628
O O4 0.352662 0.588609 0.886467
O O5 0.355443 0.250000 0.736329
O O6 0.390772 0.075237 0.614914
O O7 0.423869 0.125499 0.890842
O O8 0.306675 0.079047 0.846085
O O9 0.881256 0.966808 0.129642
O O10 0.000000 0.000000 0.000000
O O11 0.723352 0.935110 0.633112
O O12 0.795497 0.986363 0.387848
O O13 0.112166 0.903430 0.675493
O O14 0.447179 0.250000 0.096678
#
# Coordination Sequence:
#
# PCOD9466027 Si02
#       6
#     8   8   8   8   8   8
#     4  10  21  39  59  89 123 156 200 248 299 358
#     4   9  20  37  59  86 117 153 198 245 295 360
#     4  11  22  35  60  89 120 162 199 245 300 354
#     4  10  22  38  63  84 118 160 198 247 305 355
#     4  11  22  40  59  87 121 157 206 247 301 361
#     4   9  19  36  62  89 118 158 200 245 301 357
#
# _framework density 19.338042999999999
#
# number of rings (size 3 to 8) (size 9 to 14) (size 15 to 20)
#    0.000    2.000    1.667    2.000    2.333    4.000 
#    0.000    7.500    0.000    0.000    0.000    0.000 
#    0.000    0.000    0.000    0.000    0.000    0.000 
#
# Total GULP energy -267503.387574 kJ/mol
# GULP energy per Si atom -5572.987241 kJ/mol
# Density = 1.929403 g / cm^3
# Si number density = 19.338043 Si / 1000 Ang^3
#
#
#
# Elastic Constant Matrix: (Units=GPa)
#
#
# Indices 1 2 3 4 5 6 
#
# 1 127.9954 12.7970 45.8295 0.0000 0.0000 0.0000
# 2 12.7970 65.6645 4.9758 0.0000 0.0000 0.0000
# 3 45.8295 4.9758 92.2282 0.0000 0.0000 0.0000
# 4 0.0000 0.0000 0.0000 16.5082 0.0000 0.0000
# 5 0.0000 0.0000 0.0000 0.0000 43.6852 0.0000
# 6 0.0000 0.0000 0.0000 0.0000 0.0000 30.7032
#
#
#
# Elastic Compliance Matrix: (Units=1/GPa)
#
#
# Indices 1 2 3 4 5 6 
#
# 1 0.009653 -0.001524 -0.004715 0.000000 0.000000 0.000000
# 2 -0.001524 0.015532 -0.000081 0.000000 0.000000 0.000000
# 3 -0.004715 -0.000081 0.013190 0.000000 0.000000 0.000000
# 4 0.000000 0.000000 0.000000 0.060576 0.000000 0.000000
# 5 0.000000 0.000000 0.000000 0.000000 0.022891 0.000000
# 6 0.000000 0.000000 0.000000 0.000000 0.000000 0.032570
#
#
# Mechanical properties :
#
#
# Convention : Reuss Voigt Hill
#
# Bulk Modulus (GPa) = 38.85533 45.89918 42.37725
# Shear Modulus (GPa) = 28.46902 32.99837 30.73369
#
# Velocity S-wave (km/s) = 3.84106 4.13534 3.99091
# Velocity P-wave (km/s) = 6.30935 6.82554 6.57252
#
# Compressibility (1/GPa) = 0.02573649
#
# Stress axis : x y z
#
# Youngs Moduli (GPa) = 103.59212 64.38302 75.81625
#
# Poissons Ratio (x) = 0.09812 0.35744
# Poissons Ratio (y) = 0.15787 0.00612
# Poissons Ratio (z) = 0.48840 0.00519
#
# Static dielectric constant tensor:
#      x y z
#    x 1.718120 0.000000 0.000000 
#    y 0.000000 1.675610 0.000000 
#    z 0.000000 0.000000 1.742420 
# 
# From -- ./inp_files/7672.got.cif
#   From: 2010.05.17/outbox.cif.g08.bks.cpg/sg62_4_cif.got.tgz:7672.got - 2010.06.03 15:25:27.
