data_PCOD9466430
_publ_section_title
;
Structure prediction by ZEFSAII (Michael W. Deem and Ramdas Pophale) SiO2 
 PCOD9466430
Probable space group: P N M A
;
_chemical_formula_sum "Si O2"
_cell_formula_units_Z 40
_cell_length_a 13.905808
_cell_length_b 14.304817
_cell_length_c 9.324863
_cell_angle_alpha 90.000000
_cell_angle_beta 90.000000
_cell_angle_gamma 90.000000
_cell_volume 1854.902109
_symmetry_space_group_name_H-M "P N M A"
_symmetry_group_IT_number 62
_symmetry_cell_setting 'orthorhombic'
loop_
_space_group_symop_operation_xyz
x,y,z
1/2-x,-y,1/2+z
1/2+x,1/2-y,1/2-z
-x,1/2+y,-z
-x,-y,-z
1/2+x,y,1/2-z
1/2-x,1/2+y,1/2+z
x,1/2-y,z
loop_
_atom_site_type_symbol
_atom_site_label
_atom_site_fract_x
_atom_site_fract_y
_atom_site_fract_z
Si Si1 0.534990 0.750000 0.717443
Si Si2 0.497979 0.410876 0.827056
Si Si3 0.028124 0.750000 0.111172
Si Si4 0.573599 0.250000 0.014739
Si Si5 0.778654 0.434407 0.614421
Si Si6 0.749714 0.250000 0.798649
Si Si7 0.342939 0.068307 0.203604
O O1 0.505114 0.750000 0.553610
O O2 0.602498 0.661503 0.751121
O O3 0.439728 0.750000 0.816277
O O4 0.509226 0.342703 0.690435
O O5 0.516652 0.340666 0.958473
O O6 0.389466 0.446160 0.836919
O O7 0.574898 0.491841 0.828461
O O8 0.142969 0.750000 0.137379
O O9 0.673786 0.250000 0.929036
O O10 0.741642 0.342233 0.699239
O O11 0.781589 0.421266 0.442944
O O12 0.719963 0.523901 0.668539
#
# Coordination Sequence:
#
# PCOD9466430 Si02
#       7
#     4   8   4   4   8   4   8
#     4  12  27  44  65 108 147 167 241 305 338 401
#     4  10  22  46  74  94 139 191 230 275 368 424
#     4   9  24  45  67 107 142 181 227 295 333 421
#     4  11  20  43  75 103 134 188 230 287 356 430
#     4  11  24  43  71 103 137 186 236 288 353 420
#     4  10  21  44  75  94 139 188 228 279 365 418
#     4  12  26  45  70 105 141 184 235 292 349 420
#
# _framework density 21.564482000000002
#
# number of rings (size 3 to 8) (size 9 to 14) (size 15 to 20)
#    0.000    1.200    4.000    1.800    5.600    0.800 
#    0.000    1.000    0.000    0.000    0.000    0.000 
#    0.000    0.000    0.000    0.000    0.000    0.000 
#
# Total GULP energy -223852.124359 kJ/mol
# GULP energy per Si atom -5596.303109 kJ/mol
# Density = 2.151540 g / cm^3
# Si number density = 21.564482 Si / 1000 Ang^3
#
#
#
# Elastic Constant Matrix: (Units=GPa)
#
#
# Indices 1 2 3 4 5 6 
#
# 1 68.8944 18.0431 -1.4368 0.0000 0.0000 0.0000
# 2 18.0431 110.5125 24.2516 0.0000 0.0000 0.0000
# 3 -1.4368 24.2516 154.8532 0.0000 0.0000 0.0000
# 4 0.0000 0.0000 0.0000 37.1602 0.0000 0.0000
# 5 0.0000 0.0000 0.0000 0.0000 20.3351 0.0000
# 6 0.0000 0.0000 0.0000 0.0000 0.0000 29.0947
#
#
#
# Elastic Compliance Matrix: (Units=1/GPa)
#
#
# Indices 1 2 3 4 5 6 
#
# 1 0.015208 -0.002603 0.000549 0.000000 0.000000 0.000000
# 2 -0.002603 0.009816 -0.001562 0.000000 0.000000 0.000000
# 3 0.000549 -0.001562 0.006707 0.000000 0.000000 0.000000
# 4 0.000000 0.000000 0.000000 0.026910 0.000000 0.000000
# 5 0.000000 0.000000 0.000000 0.000000 0.049176 0.000000
# 6 0.000000 0.000000 0.000000 0.000000 0.000000 0.034370
#
#
# Mechanical properties :
#
#
# Convention : Reuss Voigt Hill
#
# Bulk Modulus (GPa) = 40.81662 46.21957 43.51809
# Shear Modulus (GPa) = 31.72830 36.87816 34.30323
#
# Velocity S-wave (km/s) = 3.83994 4.13986 3.99272
# Velocity P-wave (km/s) = 6.21522 6.65815 6.44050
#
# Compressibility (1/GPa) = 0.02449982
#
# Stress axis : x y z
#
# Youngs Moduli (GPa) = 65.75378 101.86953 149.08974
#
# Poissons Ratio (x) = 0.26521 -0.08183
# Poissons Ratio (y) = 0.17119 0.23281
# Poissons Ratio (z) = -0.03609 0.15907
#
# Static dielectric constant tensor:
#      x y z
#    x 1.777220 0.000000 0.000000 
#    y 0.000000 1.744150 0.000000 
#    z 0.000000 0.000000 1.781580 
# 
# From -- ./inp_files/6156.got.cif
#   From: 2010.05.17/outbox.cif.g08.bks.cpg/sg62_4_cif.got.tgz:6156.got - 2010.06.03 15:25:27.
