data_PCOD9466125
_publ_section_title
;
Structure prediction by ZEFSAII (Michael W. Deem and Ramdas Pophale) SiO2 
 PCOD9466125
Probable space group: P N M A
;
_chemical_formula_sum "Si O2"
_cell_formula_units_Z 64
_cell_length_a 11.019781
_cell_length_b 27.363065
_cell_length_c 11.983176
_cell_angle_alpha 90.000000
_cell_angle_beta 90.000000
_cell_angle_gamma 90.000000
_cell_volume 3613.346781
_symmetry_space_group_name_H-M "P N M A"
_symmetry_group_IT_number 62
_symmetry_cell_setting 'orthorhombic'
loop_
_space_group_symop_operation_xyz
x,y,z
1/2-x,-y,1/2+z
1/2+x,1/2-y,1/2-z
-x,1/2+y,-z
-x,-y,-z
1/2+x,y,1/2-z
1/2-x,1/2+y,1/2+z
x,1/2-y,z
loop_
_atom_site_type_symbol
_atom_site_label
_atom_site_fract_x
_atom_site_fract_y
_atom_site_fract_z
Si Si1 0.142570 0.807477 0.152210
Si Si2 0.983519 0.101006 0.560402
Si Si3 0.251089 0.050120 0.940301
Si Si4 0.840384 0.943493 0.609955
Si Si5 0.415671 0.945512 0.648620
Si Si6 0.392117 0.104343 0.503518
Si Si7 0.019847 0.449983 0.797537
Si Si8 0.922344 0.807785 0.326664
O O1 0.139972 0.750000 0.127673
O O2 0.126206 0.840484 0.042960
O O3 0.279267 0.817753 0.200902
O O4 0.026288 0.817295 0.232583
O O5 0.041781 0.073564 0.456307
O O6 0.013175 0.071447 0.674308
O O7 0.038291 0.154782 0.576400
O O8 0.839739 0.095858 0.547654
O O9 0.151688 0.060630 0.846949
O O10 0.321933 0.001541 0.902973
O O11 0.181323 0.038825 0.055115
O O12 0.850712 0.928910 0.738930
O O13 0.728010 0.917881 0.549579
O O14 0.501150 0.907048 0.584635
O O15 0.495214 0.992374 0.686721
O O16 0.425713 0.076059 0.618360
O O17 0.930525 0.750000 0.353959
#
# Coordination Sequence:
#
# PCOD9466125 Si02
#       8
#     8   8   8   8   8   8   8   8
#     4  10  21  39  64  91 117 152 195 247 308 366
#     4  12  25  34  59  89 117 151 195 242 305 350
#     4  11  24  37  55  82 121 161 197 244 287 348
#     4  12  24  36  57  82 117 162 198 239 283 351
#     4  11  24  39  55  82 120 164 203 241 283 355
#     4  11  21  40  60  81 115 156 195 237 302 351
#     4  11  22  37  58  83 120 157 193 240 295 360
#     4  10  22  39  62  92 123 152 192 251 313 366
#
# _framework density 17.712111
#
# number of rings (size 3 to 8) (size 9 to 14) (size 15 to 20)
#    0.000    1.000    6.250    1.125    7.000    0.000 
#    0.000    0.000    0.000    1.500    0.000    0.000 
#    0.000    0.000    0.000    0.000    0.000    0.000 
#
# Total GULP energy -357164.720800 kJ/mol
# GULP energy per Si atom -5580.698762 kJ/mol
# Density = 1.767180 g / cm^3
# Si number density = 17.712111 Si / 1000 Ang^3
#
#
#
# Elastic Constant Matrix: (Units=GPa)
#
#
# Indices 1 2 3 4 5 6 
#
# 1 81.9608 26.4050 7.8455 0.0000 0.0000 0.0000
# 2 26.4050 48.0855 13.8138 0.0000 0.0000 0.0000
# 3 7.8455 13.8138 37.9204 0.0000 0.0000 0.0000
# 4 0.0000 0.0000 0.0000 10.1388 0.0000 0.0000
# 5 0.0000 0.0000 0.0000 0.0000 1.1235 0.0000
# 6 0.0000 0.0000 0.0000 0.0000 0.0000 22.3530
#
#
#
# Elastic Compliance Matrix: (Units=1/GPa)
#
#
# Indices 1 2 3 4 5 6 
#
# 1 0.014824 -0.008108 -0.000114 0.000000 0.000000 0.000000
# 2 -0.008108 0.027661 -0.008399 0.000000 0.000000 0.000000
# 3 -0.000114 -0.008399 0.029454 0.000000 0.000000 0.000000
# 4 0.000000 0.000000 0.000000 0.098631 0.000000 0.000000
# 5 0.000000 0.000000 0.000000 0.000000 0.890058 0.000000
# 6 0.000000 0.000000 0.000000 0.000000 0.000000 0.044737
#
#
# Mechanical properties :
#
#
# Convention : Reuss Voigt Hill
#
# Bulk Modulus (GPa) = 25.84057 29.34393 27.59225
# Shear Modulus (GPa) = 4.34214 14.71657 9.52936
#
# Velocity S-wave (km/s) = 1.56743 2.88562 2.32203
# Velocity P-wave (km/s) = 4.23044 5.26360 4.77505
#
# Compressibility (1/GPa) = 0.03869883
#
# Stress axis : x y z
#
# Youngs Moduli (GPa) = 67.45913 36.15173 33.95107
#
# Poissons Ratio (x) = 0.29310 0.00385
# Poissons Ratio (y) = 0.54693 0.28516
# Poissons Ratio (z) = 0.00766 0.30364
#
# Static dielectric constant tensor:
#      x y z
#    x 1.654290 0.000000 0.000000 
#    y 0.000000 1.611790 0.000000 
#    z 0.000000 0.000000 1.586720 
# 
# From -- ./inp_files/12600.got.cif
#   From: 2010.05.17/outbox.cif.g08.bks.cpg/sg62_7_cif.got.tgz:12600.got - 2010.06.03 15:25:27.
