data_PCOD9466912
_publ_section_title
;
Structure prediction by ZEFSAII (Michael W. Deem and Ramdas Pophale) SiO2 
 PCOD9466912
Probable space group: P N M A
;
_chemical_formula_sum "Si O2"
_cell_formula_units_Z 64
_cell_length_a 15.435894
_cell_length_b 16.746487
_cell_length_c 12.242767
_cell_angle_alpha 90.000000
_cell_angle_beta 90.000000
_cell_angle_gamma 90.000000
_cell_volume 3164.718519
_symmetry_space_group_name_H-M "P N M A"
_symmetry_group_IT_number 62
_symmetry_cell_setting 'orthorhombic'
loop_
_space_group_symop_operation_xyz
x,y,z
1/2-x,-y,1/2+z
1/2+x,1/2-y,1/2-z
-x,1/2+y,-z
-x,-y,-z
1/2+x,y,1/2-z
1/2-x,1/2+y,1/2+z
x,1/2-y,z
loop_
_atom_site_type_symbol
_atom_site_label
_atom_site_fract_x
_atom_site_fract_y
_atom_site_fract_z
Si Si1 0.007517 0.397899 0.878869
Si Si2 0.831534 0.657099 0.730496
Si Si3 0.953158 0.414129 0.501948
Si Si4 0.867407 0.658221 0.492252
Si Si5 0.150716 0.594395 0.720807
Si Si6 0.176895 0.090833 0.741063
Si Si7 0.489601 0.590248 0.631569
Si Si8 0.633656 0.843312 0.211369
O O1 0.096281 0.378452 0.814113
O O2 0.995333 0.493847 0.870462
O O3 0.926583 0.358156 0.817308
O O4 0.013153 0.378983 0.007235
O O5 0.856252 0.750000 0.724410
O O6 0.828704 0.626455 0.605549
O O7 0.736060 0.647325 0.777893
O O8 0.904018 0.613484 0.801605
O O9 0.890865 0.408416 0.398813
O O10 0.905041 0.397611 0.614891
O O11 0.000000 0.500000 0.500000
O O12 0.029655 0.349567 0.493281
O O13 0.841149 0.750000 0.475736
O O14 0.842617 0.609630 0.385269
O O15 0.179674 0.504669 0.753351
O O16 0.074970 0.619773 0.804361
O O17 0.267626 0.131022 0.769716
O O18 0.628927 0.750000 0.181619
#
# Coordination Sequence:
#
# PCOD9466912 Si02
#       8
#     8   8   8   8   8   8   8   8
#     4  10  23  43  68  95 130 174 224 272 330 399
#     4  11  26  42  64  97 135 174 218 275 333 396
#     4  12  23  44  71 101 127 174 227 279 333 394
#     4  11  23  43  68  94 131 173 220 278 336 395
#     4  11  24  41  70  96 130 174 225 278 328 401
#     4  11  24  42  68  98 132 176 221 280 333 402
#     4  10  22  45  66  95 130 173 224 274 328 394
#     4  12  27  43  67 102 140 178 220 278 347 409
#
# _framework density 20.222968999999999
#
# number of rings (size 3 to 8) (size 9 to 14) (size 15 to 20)
#    0.000    1.000    3.750    2.250    5.250    2.500 
#    0.000    0.000    0.000    0.000    0.000    0.000 
#    0.000    0.000    0.000    0.000    0.000    0.000 
#
# Total GULP energy -357901.104849 kJ/mol
# GULP energy per Si atom -5592.204763 kJ/mol
# Density = 2.017694 g / cm^3
# Si number density = 20.222969 Si / 1000 Ang^3
#
#
#
# Elastic Constant Matrix: (Units=GPa)
#
#
# Indices 1 2 3 4 5 6 
#
# 1 132.7960 27.0587 66.5912 0.0000 0.0000 0.0000
# 2 27.0587 40.6146 35.5170 0.0000 0.0000 0.0000
# 3 66.5912 35.5170 159.5416 0.0000 0.0000 0.0000
# 4 0.0000 0.0000 0.0000 13.8399 0.0000 0.0000
# 5 0.0000 0.0000 0.0000 0.0000 32.0971 0.0000
# 6 0.0000 0.0000 0.0000 0.0000 0.0000 -24.8264
#
#
#
# Elastic Compliance Matrix: (Units=1/GPa)
#
#
# Indices 1 2 3 4 5 6 
#
# 1 0.009958 -0.003725 -0.003327 0.000000 0.000000 0.000000
# 2 -0.003725 0.031967 -0.005562 0.000000 0.000000 0.000000
# 3 -0.003327 -0.005562 0.008895 0.000000 0.000000 0.000000
# 4 0.000000 0.000000 0.000000 0.072255 0.000000 0.000000
# 5 0.000000 0.000000 0.000000 0.000000 0.031156 0.000000
# 6 0.000000 0.000000 0.000000 0.000000 0.000000 -0.040280
#
#
# Mechanical properties :
#
#
# Convention : Reuss Voigt Hill
#
# Bulk Modulus (GPa) = 39.07414 65.69844 52.38629
# Shear Modulus (GPa) = 33.85057 17.80779 25.82918
#
# Velocity S-wave (km/s) = 4.09573 2.97066 3.57770
# Velocity P-wave (km/s) = 6.45990 6.65763 6.55951
#
# Compressibility (1/GPa) = 0.02559238
#
# Stress axis : x y z
#
# Youngs Moduli (GPa) = 100.42527 31.28234 112.42504
#
# Poissons Ratio (x) = 0.11651 0.37405
# Poissons Ratio (y) = 0.37405 0.62529
# Poissons Ratio (z) = 0.33412 0.17399
#
# Static dielectric constant tensor:
#      x y z
#    x 1.687510 0.000000 0.000000 
#    y 0.000000 1.728860 0.000000 
#    z 0.000000 0.000000 1.631040 
# 
# From -- ./inp_files/13596.got.cif
#   From: 2010.05.17/outbox.cif.g08.bks.cpg/sg62_7_cif.got.tgz:13596.got - 2010.06.03 15:25:27.
