data_PCOD9466863
_publ_section_title
;
Structure prediction by ZEFSAII (Michael W. Deem and Ramdas Pophale) SiO2 
 PCOD9466863
Probable space group: P N M A
;
_chemical_formula_sum "Si O2"
_cell_formula_units_Z 56
_cell_length_a 14.594297
_cell_length_b 15.176022
_cell_length_c 12.619538
_cell_angle_alpha 90.000000
_cell_angle_beta 90.000000
_cell_angle_gamma 90.000000
_cell_volume 2795.017834
_symmetry_space_group_name_H-M "P N M A"
_symmetry_group_IT_number 62
_symmetry_cell_setting 'orthorhombic'
loop_
_space_group_symop_operation_xyz
x,y,z
1/2-x,-y,1/2+z
1/2+x,1/2-y,1/2-z
-x,1/2+y,-z
-x,-y,-z
1/2+x,y,1/2-z
1/2-x,1/2+y,1/2+z
x,1/2-y,z
loop_
_atom_site_type_symbol
_atom_site_label
_atom_site_fract_x
_atom_site_fract_y
_atom_site_fract_z
Si Si1 0.241143 0.353621 0.528720
Si Si2 0.157569 0.150482 0.006269
Si Si3 0.551678 0.420558 0.303185
Si Si4 0.197131 0.938555 0.238297
Si Si5 0.953587 0.856249 0.563662
Si Si6 0.640999 0.854718 0.038873
Si Si7 0.352048 0.478907 0.369642
O O1 0.252470 0.250000 0.504234
O O2 0.265281 0.372190 0.650506
O O3 0.136062 0.379685 0.504083
O O4 0.304506 0.413845 0.453988
O O5 0.151900 0.250000 0.961929
O O6 0.096962 0.143910 0.111067
O O7 0.265548 0.131642 0.027713
O O8 0.128871 0.073440 0.925646
O O9 0.613558 0.507802 0.311777
O O10 0.559615 0.388303 0.183084
O O11 0.446716 0.439074 0.329915
O O12 0.161106 0.894460 0.346113
O O13 0.279203 0.002438 0.276397
O O14 0.958853 0.750000 0.566122
O O15 0.048676 0.890326 0.514046
O O16 0.629636 0.750000 0.050771
#
# Coordination Sequence:
#
# PCOD9466863 Si02
#       7
#     8   8   8   8   8   8   8
#     4  11  24  44  68  97 134 173 220 276 327 386
#     4  10  22  43  67  91 131 174 219 269 319 387
#     4  12  24  39  64  96 128 170 216 266 325 393
#     4  11  24  41  66  93 127 170 217 272 324 389
#     4  10  23  41  65  97 129 168 218 270 327 389
#     4   9  21  42  65  92 126 168 217 266 322 385
#     4  11  25  44  64  97 133 171 220 271 332 387
#
# _framework density 20.035651000000001
#
# number of rings (size 3 to 8) (size 9 to 14) (size 15 to 20)
#    0.000    1.429    2.857    1.286    4.000    2.286 
#    0.000    0.714    0.000    0.000    0.000    0.000 
#    0.000    0.000    0.000    0.000    0.000    0.000 
#
# Total GULP energy -312937.521828 kJ/mol
# GULP energy per Si atom -5588.170033 kJ/mol
# Density = 1.999005 g / cm^3
# Si number density = 20.035651 Si / 1000 Ang^3
#
#
#
# Elastic Constant Matrix: (Units=GPa)
#
#
# Indices 1 2 3 4 5 6 
#
# 1 103.9034 22.7281 19.1002 0.0000 0.0000 0.0000
# 2 22.7281 43.2678 12.3225 0.0000 0.0000 0.0000
# 3 19.1002 12.3225 37.2933 0.0000 0.0000 0.0000
# 4 0.0000 0.0000 0.0000 19.8675 0.0000 0.0000
# 5 0.0000 0.0000 0.0000 0.0000 36.2265 0.0000
# 6 0.0000 0.0000 0.0000 0.0000 0.0000 23.4787
#
#
#
# Elastic Compliance Matrix: (Units=1/GPa)
#
#
# Indices 1 2 3 4 5 6 
#
# 1 0.011462 -0.004801 -0.004284 0.000000 0.000000 0.000000
# 2 -0.004801 0.027523 -0.006636 0.000000 0.000000 0.000000
# 3 -0.004284 -0.006636 0.031201 0.000000 0.000000 0.000000
# 4 0.000000 0.000000 0.000000 0.050333 0.000000 0.000000
# 5 0.000000 0.000000 0.000000 0.000000 0.027604 0.000000
# 6 0.000000 0.000000 0.000000 0.000000 0.000000 0.042592
#
#
# Mechanical properties :
#
#
# Convention : Reuss Voigt Hill
#
# Bulk Modulus (GPa) = 25.80931 32.52956 29.16943
# Shear Modulus (GPa) = 21.27007 24.60212 22.93609
#
# Velocity S-wave (km/s) = 3.26177 3.50797 3.38711
# Velocity P-wave (km/s) = 5.20530 5.71654 5.46690
#
# Compressibility (1/GPa) = 0.03874571
#
# Stress axis : x y z
#
# Youngs Moduli (GPa) = 87.24490 36.33263 32.05006
#
# Poissons Ratio (x) = 0.17442 0.13731
# Poissons Ratio (y) = 0.41884 0.21267
# Poissons Ratio (z) = 0.37377 0.24109
#
# Static dielectric constant tensor:
#      x y z
#    x 1.703840 0.000000 0.000000 
#    y 0.000000 1.717770 0.000000 
#    z 0.000000 0.000000 1.677860 
# 
# From -- ./inp_files/13354.got.cif
#   From: 2010.05.17/outbox.cif.g08.bks.cpg/sg62_7_cif.got.tgz:13354.got - 2010.06.03 15:25:27.
