data_PCOD9466717
_publ_section_title
;
Structure prediction by ZEFSAII (Michael W. Deem and Ramdas Pophale) SiO2 
 PCOD9466717
Probable space group: P N M A
;
_chemical_formula_sum "Si O2"
_cell_formula_units_Z 40
_cell_length_a 8.284607
_cell_length_b 7.500613
_cell_length_c 28.818898
_cell_angle_alpha 90.000000
_cell_angle_beta 90.000000
_cell_angle_gamma 90.000000
_cell_volume 1790.795687
_symmetry_space_group_name_H-M "P N M A"
_symmetry_group_IT_number 62
_symmetry_cell_setting 'orthorhombic'
loop_
_space_group_symop_operation_xyz
x,y,z
1/2-x,-y,1/2+z
1/2+x,1/2-y,1/2-z
-x,1/2+y,-z
-x,-y,-z
1/2+x,y,1/2-z
1/2-x,1/2+y,1/2+z
x,1/2-y,z
loop_
_atom_site_type_symbol
_atom_site_label
_atom_site_fract_x
_atom_site_fract_y
_atom_site_fract_z
Si Si1 0.268037 0.964361 0.974524
Si Si2 0.634894 0.539317 0.619455
Si Si3 0.778696 0.962706 0.840446
Si Si4 0.644090 0.250000 0.775049
Si Si5 0.104566 0.542583 0.568203
Si Si6 0.793098 0.250000 0.679322
O O1 0.272677 0.750000 0.978387
O O2 0.139043 0.011084 0.935107
O O3 0.438588 0.031977 0.952715
O O4 0.263758 0.031595 0.026996
O O5 0.673249 0.750000 0.622272
O O6 0.461357 0.510213 0.642359
O O7 0.763344 0.421906 0.647274
O O8 0.756288 0.750000 0.833337
O O9 0.668403 0.029282 0.883419
O O10 0.733298 0.076646 0.795870
O O11 0.659236 0.250000 0.719976
O O12 0.463316 0.250000 0.794751
O O13 0.072354 0.750000 0.576851
#
# Coordination Sequence:
#
# PCOD9466717 Si02
#       6
#     8   8   8   4   8   4
#     4   9  18  32  52  82 119 161 207 249 298 360
#     4  10  22  41  63  90 126 164 204 253 308 367
#     4  10  22  41  63  90 126 164 204 253 308 367
#     4  12  26  44  68  94 122 158 206 258 313 372
#     4   9  18  32  52  82 119 161 207 249 298 360
#     4  12  26  44  68  94 122 158 206 258 313 372
#
# _framework density 22.33644
#
# number of rings (size 3 to 8) (size 9 to 14) (size 15 to 20)
#    0.000    2.000    0.000    3.000    2.800    4.000 
#    0.000    0.000    0.000    0.000    0.000    0.000 
#    0.000    0.000    0.000    0.000    0.000    0.000 
#
# Total GULP energy -223560.739644 kJ/mol
# GULP energy per Si atom -5589.018491 kJ/mol
# Density = 2.228560 g / cm^3
# Si number density = 22.336440 Si / 1000 Ang^3
#
#
#
# Elastic Constant Matrix: (Units=GPa)
#
#
# Indices 1 2 3 4 5 6 
#
# 1 49.6041 13.3217 -13.6736 0.0000 0.0000 0.0000
# 2 13.3217 52.3828 -1.2432 0.0000 0.0000 0.0000
# 3 -13.6736 -1.2432 69.3014 0.0000 0.0000 0.0000
# 4 0.0000 0.0000 0.0000 -4.3180 0.0000 0.0000
# 5 0.0000 0.0000 0.0000 0.0000 33.0446 0.0000
# 6 0.0000 0.0000 0.0000 0.0000 0.0000 4.0652
#
#
#
# Elastic Compliance Matrix: (Units=1/GPa)
#
#
# Indices 1 2 3 4 5 6 
#
# 1 0.022914 -0.005723 0.004419 0.000000 0.000000 0.000000
# 2 -0.005723 0.020528 -0.000761 0.000000 0.000000 0.000000
# 3 0.004419 -0.000761 0.015288 0.000000 0.000000 0.000000
# 4 0.000000 0.000000 0.000000 -0.231590 0.000000 0.000000
# 5 0.000000 0.000000 0.000000 0.000000 0.030262 0.000000
# 6 0.000000 0.000000 0.000000 0.000000 0.000000 0.245988
#
#
# Mechanical properties :
#
#
# Convention : Reuss Voigt Hill
#
# Bulk Modulus (GPa) = 18.31504 18.67757 18.49631
# Shear Modulus (GPa) = 39.77109 18.08393 28.92751
#
# Velocity S-wave (km/s) = 4.22423 2.84846 3.60263
# Velocity P-wave (km/s) = 5.65770 4.38160 5.06004
#
# Compressibility (1/GPa) = 0.05459992
#
# Stress axis : x y z
#
# Youngs Moduli (GPa) = 43.64053 48.71508 65.41132
#
# Poissons Ratio (x) = 0.27878 -0.28902
# Poissons Ratio (y) = 0.24974 0.04977
# Poissons Ratio (z) = -0.19283 0.03707
#
# Static dielectric constant tensor:
#      x y z
#    x 1.862610 0.000000 0.000000 
#    y 0.000000 1.802540 0.000000 
#    z 0.000000 0.000000 1.787340 
# 
# From -- ./inp_files/30698.got.cif
#   From: 2010.05.17/outbox.cif.g08.bks.cpg/sg62_16_cif.got.tgz:30698.got - 2010.06.03 15:25:27.
