data_PCOD9466951
_publ_section_title
;
Structure prediction by ZEFSAII (Michael W. Deem and Ramdas Pophale) SiO2 
 PCOD9466951
Probable space group: P N M A
;
_chemical_formula_sum "Si O2"
_cell_formula_units_Z 60
_cell_length_a 13.413797
_cell_length_b 8.143243
_cell_length_c 23.795441
_cell_angle_alpha 90.000000
_cell_angle_beta 90.000000
_cell_angle_gamma 90.000000
_cell_volume 2599.219055
_symmetry_space_group_name_H-M "P N M A"
_symmetry_group_IT_number 62
_symmetry_cell_setting 'orthorhombic'
loop_
_space_group_symop_operation_xyz
x,y,z
1/2-x,-y,1/2+z
1/2+x,1/2-y,1/2-z
-x,1/2+y,-z
-x,-y,-z
1/2+x,y,1/2-z
1/2-x,1/2+y,1/2+z
x,1/2-y,z
loop_
_atom_site_type_symbol
_atom_site_label
_atom_site_fract_x
_atom_site_fract_y
_atom_site_fract_z
Si Si1 0.699778 0.055992 0.870749
Si Si2 0.718519 0.435213 0.736181
Si Si3 0.915644 0.437892 0.855925
Si Si4 0.850626 0.250000 0.440420
Si Si5 0.382253 0.560225 0.844259
Si Si6 0.012076 0.939875 0.753618
Si Si7 0.775179 0.426880 0.550081
Si Si8 0.059738 0.560485 0.945757
O O1 0.672611 0.250000 0.882436
O O2 0.713288 0.039237 0.803315
O O3 0.814887 0.026024 0.890785
O O4 0.638431 0.901798 0.894557
O O5 0.752865 0.250000 0.725480
O O6 0.786299 0.547113 0.696857
O O7 0.603374 0.460193 0.721514
O O8 0.906919 0.250000 0.837119
O O9 0.926941 0.547775 0.800721
O O10 0.010963 0.462638 0.894711
O O11 0.826503 0.391045 0.490398
O O12 0.403853 0.750000 0.855132
O O13 0.470654 0.490983 0.805169
O O14 0.354411 0.479577 0.903057
O O15 0.040815 0.750000 0.746525
O O16 0.732776 0.250000 0.568592
O O17 0.678305 0.540628 0.547613
O O18 0.963941 0.250000 0.064443
O O19 0.000000 0.500000 0.000000
#
# Coordination Sequence:
#
# PCOD9466951 Si02
#       8
#     8   8   8   4   8   8   8   8
#     4  10  23  40  65  97 127 170 221 270 331 397
#     4  11  23  40  65  98 136 172 215 274 335 403
#     4  11  22  37  58  86 127 169 208 262 321 389
#     4  10  24  40  70  88 124 176 214 282 326 394
#     4  11  23  41  66  95 135 172 218 275 331 405
#     4  11  24  39  62  99 129 171 217 264 334 401
#     4  10  23  41  59  89 117 174 214 258 333 385
#     4  12  24  37  56  84 126 167 215 265 313 389
#
# _framework density 23.083857999999999
#
# number of rings (size 3 to 8) (size 9 to 14) (size 15 to 20)
#    0.400    0.800    1.333    4.800    5.600    3.733 
#    0.000    0.000    0.000    0.800    0.000    0.000 
#    0.000    0.000    0.000    0.000    0.000    0.000 
#
# Total GULP energy -334056.482196 kJ/mol
# GULP energy per Si atom -5567.608037 kJ/mol
# Density = 2.303132 g / cm^3
# Si number density = 23.083858 Si / 1000 Ang^3
#
#
#
# Elastic Constant Matrix: (Units=GPa)
#
#
# Indices 1 2 3 4 5 6 
#
# 1 28.6714 -1.9294 6.2144 0.0000 0.0000 0.0000
# 2 -1.9294 87.8606 26.0526 0.0000 0.0000 0.0000
# 3 6.2144 26.0526 105.9175 0.0000 0.0000 0.0000
# 4 0.0000 0.0000 0.0000 42.9337 0.0000 0.0000
# 5 0.0000 0.0000 0.0000 0.0000 23.8784 0.0000
# 6 0.0000 0.0000 0.0000 0.0000 0.0000 18.8690
#
#
#
# Elastic Compliance Matrix: (Units=1/GPa)
#
#
# Indices 1 2 3 4 5 6 
#
# 1 0.035511 0.001508 -0.002454 0.000000 0.000000 0.000000
# 2 0.001508 0.012341 -0.003124 0.000000 0.000000 0.000000
# 3 -0.002454 -0.003124 0.010354 0.000000 0.000000 0.000000
# 4 0.000000 0.000000 0.000000 0.023292 0.000000 0.000000
# 5 0.000000 0.000000 0.000000 0.000000 0.041879 0.000000
# 6 0.000000 0.000000 0.000000 0.000000 0.000000 0.052997
#
#
# Mechanical properties :
#
#
# Convention : Reuss Voigt Hill
#
# Bulk Modulus (GPa) = 19.97415 31.45829 25.71622
# Shear Modulus (GPa) = 24.85046 29.94368 27.39707
#
# Velocity S-wave (km/s) = 3.28461 3.60553 3.44881
# Velocity P-wave (km/s) = 4.80172 5.56692 5.19842
#
# Compressibility (1/GPa) = 0.05006472
#
# Stress axis : x y z
#
# Youngs Moduli (GPa) = 28.15996 81.02996 96.58357
#
# Poissons Ratio (x) = -0.12216 0.23705
# Poissons Ratio (y) = -0.04245 0.30173
# Poissons Ratio (z) = 0.06911 0.25314
#
# Static dielectric constant tensor:
#      x y z
#    x 1.971600 0.000000 0.000000 
#    y 0.000000 1.650570 0.000000 
#    z 0.000000 0.000000 1.878800 
# 
# From -- ./inp_files/29711.got.cif
#   From: 2010.05.17/outbox.cif.g08.bks.cpg/sg62_15_cif.got.tgz:29711.got - 2010.06.03 15:25:27.
