data_PCOD9466076
_publ_section_title
;
Structure prediction by ZEFSAII (Michael W. Deem and Ramdas Pophale) SiO2 
 PCOD9466076
Probable space group: P N M A
;
_chemical_formula_sum "Si O2"
_cell_formula_units_Z 48
_cell_length_a 20.797169
_cell_length_b 8.390386
_cell_length_c 14.532864
_cell_angle_alpha 90.000000
_cell_angle_beta 90.000000
_cell_angle_gamma 90.000000
_cell_volume 2535.930642
_symmetry_space_group_name_H-M "P N M A"
_symmetry_group_IT_number 62
_symmetry_cell_setting 'orthorhombic'
loop_
_space_group_symop_operation_xyz
x,y,z
1/2-x,-y,1/2+z
1/2+x,1/2-y,1/2-z
-x,1/2+y,-z
-x,-y,-z
1/2+x,y,1/2-z
1/2-x,1/2+y,1/2+z
x,1/2-y,z
loop_
_atom_site_type_symbol
_atom_site_label
_atom_site_fract_x
_atom_site_fract_y
_atom_site_fract_z
Si Si1 0.192773 0.556149 0.455006
Si Si2 0.110728 0.942651 0.752117
Si Si3 0.684453 0.441144 0.425713
Si Si4 0.258060 0.440994 0.757412
Si Si5 0.565574 0.940505 0.546121
Si Si6 0.937136 0.057116 0.446629
O O1 0.190871 0.750000 0.454008
O O2 0.251054 0.509132 0.520771
O O3 0.211442 0.502483 0.353370
O O4 0.125395 0.501773 0.496255
O O5 0.109922 0.750000 0.752530
O O6 0.080124 0.998628 0.849179
O O7 0.073037 0.995279 0.659734
O O8 0.185498 0.993731 0.746316
O O9 0.680893 0.250000 0.424660
O O10 0.695137 0.504599 0.323705
O O11 0.623916 0.506561 0.480859
O O12 0.253628 0.250000 0.758747
O O13 0.563343 0.750000 0.550191
O O14 0.500000 0.000000 0.500000
O O15 0.937571 0.250000 0.445719
O O16 0.000000 0.000000 0.500000
#
# Coordination Sequence:
#
# PCOD9466076 Si02
#       6
#     8   8   8   8   8   8
#     4   9  19  36  59  84 117 154 193 243 300 352
#     4  10  21  39  62  86 118 158 200 248 307 364
#     4  11  21  39  62  87 120 161 200 248 305 356
#     4  11  21  35  60  94 121 153 203 251 299 361
#     4  11  24  41  62  91 124 161 204 253 307 370
#     4  10  21  40  60  84 118 156 195 241 297 357
#
# _framework density 18.927962000000001
#
# number of rings (size 3 to 8) (size 9 to 14) (size 15 to 20)
#    0.000    1.667    3.333    1.500    0.000    2.667 
#    0.000    5.000    0.000    0.000    0.000    0.000 
#    0.000    0.000    0.000    0.000    0.000    0.000 
#
# Total GULP energy -268016.300331 kJ/mol
# GULP energy per Si atom -5583.672924 kJ/mol
# Density = 1.888488 g / cm^3
# Si number density = 18.927962 Si / 1000 Ang^3
#
#
#
# Elastic Constant Matrix: (Units=GPa)
#
#
# Indices 1 2 3 4 5 6 
#
# 1 124.0537 10.1137 39.0581 0.0000 0.0000 0.0000
# 2 10.1137 20.5522 14.2648 0.0000 0.0000 0.0000
# 3 39.0581 14.2648 127.1584 0.0000 0.0000 0.0000
# 4 0.0000 0.0000 0.0000 18.7956 0.0000 0.0000
# 5 0.0000 0.0000 0.0000 0.0000 32.6042 0.0000
# 6 0.0000 0.0000 0.0000 0.0000 0.0000 34.9549
#
#
#
# Elastic Compliance Matrix: (Units=1/GPa)
#
#
# Indices 1 2 3 4 5 6 
#
# 1 0.009064 -0.002742 -0.002477 0.000000 0.000000 0.000000
# 2 -0.002742 0.053594 -0.005170 0.000000 0.000000 0.000000
# 3 -0.002477 -0.005170 0.009205 0.000000 0.000000 0.000000
# 4 0.000000 0.000000 0.000000 0.053204 0.000000 0.000000
# 5 0.000000 0.000000 0.000000 0.000000 0.030671 0.000000
# 6 0.000000 0.000000 0.000000 0.000000 0.000000 0.028608
#
#
# Mechanical properties :
#
#
# Convention : Reuss Voigt Hill
#
# Bulk Modulus (GPa) = 19.57455 44.29307 31.93381
# Shear Modulus (GPa) = 22.50708 31.15945 26.83327
#
# Velocity S-wave (km/s) = 3.45206 4.06176 3.76926
# Velocity P-wave (km/s) = 5.12377 6.74157 5.98756
#
# Compressibility (1/GPa) = 0.05108673
#
# Stress axis : x y z
#
# Youngs Moduli (GPa) = 110.32284 18.65871 108.63739
#
# Poissons Ratio (x) = 0.05115 0.26906
# Poissons Ratio (y) = 0.30246 0.56168
# Poissons Ratio (z) = 0.27323 0.09647
#
# Static dielectric constant tensor:
#      x y z
#    x 1.612640 0.000000 0.000000 
#    y 0.000000 1.666960 0.000000 
#    z 0.000000 0.000000 1.676840 
# 
# From -- ./inp_files/19624.got.cif
#   From: 2010.05.17/outbox.cif.g08.bks.cpg/sg62_10_cif.got.tgz:19624.got - 2010.06.03 15:25:27.
