data_PCOD9466115
_publ_section_title
;
Structure prediction by ZEFSAII (Michael W. Deem and Ramdas Pophale) SiO2 
 PCOD9466115
Probable space group: P N M A
;
_chemical_formula_sum "Si O2"
_cell_formula_units_Z 64
_cell_length_a 12.630828
_cell_length_b 13.768418
_cell_length_c 17.543256
_cell_angle_alpha 90.000000
_cell_angle_beta 90.000000
_cell_angle_gamma 90.000000
_cell_volume 3050.886593
_symmetry_space_group_name_H-M "P N M A"
_symmetry_group_IT_number 62
_symmetry_cell_setting 'orthorhombic'
loop_
_space_group_symop_operation_xyz
x,y,z
1/2-x,-y,1/2+z
1/2+x,1/2-y,1/2-z
-x,1/2+y,-z
-x,-y,-z
1/2+x,y,1/2-z
1/2-x,1/2+y,1/2+z
x,1/2-y,z
loop_
_atom_site_type_symbol
_atom_site_label
_atom_site_fract_x
_atom_site_fract_y
_atom_site_fract_z
Si Si1 0.809769 0.864446 0.587659
Si Si2 0.063168 0.468558 0.075733
Si Si3 0.291945 0.053298 0.017698
Si Si4 0.900857 0.365665 0.188193
Si Si5 0.010021 0.142276 0.852116
Si Si6 0.240146 0.138118 0.864232
Si Si7 0.465552 0.439067 0.144286
Si Si8 0.046189 0.859397 0.319866
O O1 0.802721 0.750000 0.565299
O O2 0.713283 0.884108 0.647470
O O3 0.923574 0.884716 0.627206
O O4 0.799388 0.943986 0.519099
O O5 0.176898 0.429034 0.053786
O O6 0.992094 0.400296 0.129284
O O7 0.078734 0.570131 0.119526
O O8 0.000000 0.500000 0.000000
O O9 0.380160 0.079677 0.078889
O O10 0.297311 0.121974 0.944151
O O11 0.908182 0.250000 0.199672
O O12 0.921994 0.415098 0.270795
O O13 0.999440 0.250000 0.886104
O O14 0.124053 0.094111 0.869624
O O15 0.006344 0.148268 0.762064
O O16 0.216947 0.250000 0.847545
O O17 0.331365 0.107999 0.806436
O O18 0.489883 0.554106 0.137155
O O19 0.045697 0.750000 0.352835
#
# Coordination Sequence:
#
# PCOD9466115 Si02
#       8
#     8   8   8   8   8   8   8   8
#     4  11  25  47  71 100 142 184 232 291 353 413
#     4  12  23  42  69  97 135 177 224 276 340 406
#     4  12  26  43  67 102 132 180 228 281 343 409
#     4  11  26  47  71 102 141 186 234 288 346 415
#     4  10  21  39  64  94 129 169 214 270 333 399
#     4  10  21  39  63  92 131 170 216 275 333 398
#     4  12  26  44  71  99 138 183 235 283 347 422
#     4  10  22  39  66  95 126 171 219 273 338 406
#
# _framework density 20.977508
#
# number of rings (size 3 to 8) (size 9 to 14) (size 15 to 20)
#    0.000    1.000    5.000    0.750    1.750    4.000 
#    0.000    1.250    0.000    0.000    0.000    0.000 
#    0.000    0.000    0.000    0.000    0.000    0.000 
#
# Total GULP energy -357001.229352 kJ/mol
# GULP energy per Si atom -5578.144209 kJ/mol
# Density = 2.092976 g / cm^3
# Si number density = 20.977508 Si / 1000 Ang^3
#
#
#
# Elastic Constant Matrix: (Units=GPa)
#
#
# Indices 1 2 3 4 5 6 
#
# 1 117.5899 26.4696 60.3503 0.0000 0.0000 0.0000
# 2 26.4696 58.4872 4.0064 0.0000 0.0000 0.0000
# 3 60.3503 4.0064 81.6682 0.0000 0.0000 0.0000
# 4 0.0000 0.0000 0.0000 12.5070 0.0000 0.0000
# 5 0.0000 0.0000 0.0000 0.0000 37.6323 0.0000
# 6 0.0000 0.0000 0.0000 0.0000 0.0000 24.1776
#
#
#
# Elastic Compliance Matrix: (Units=1/GPa)
#
#
# Indices 1 2 3 4 5 6 
#
# 1 0.015745 -0.006350 -0.011324 0.000000 0.000000 0.000000
# 2 -0.006350 0.019716 0.003725 0.000000 0.000000 0.000000
# 3 -0.011324 0.003725 0.020430 0.000000 0.000000 0.000000
# 4 0.000000 0.000000 0.000000 0.079955 0.000000 0.000000
# 5 0.000000 0.000000 0.000000 0.000000 0.026573 0.000000
# 6 0.000000 0.000000 0.000000 0.000000 0.000000 0.041361
#
#
# Mechanical properties :
#
#
# Convention : Reuss Voigt Hill
#
# Bulk Modulus (GPa) = 35.72143 48.82200 42.27172
# Shear Modulus (GPa) = 20.74613 25.99130 23.36872
#
# Velocity S-wave (km/s) = 3.14820 3.52377 3.34127
# Velocity P-wave (km/s) = 5.50275 6.31506 5.92285
#
# Compressibility (1/GPa) = 0.02799440
#
# Stress axis : x y z
#
# Youngs Moduli (GPa) = 63.51156 50.71904 48.94821
#
# Poissons Ratio (x) = 0.32207 0.55427
# Poissons Ratio (y) = 0.40331 -0.18235
# Poissons Ratio (z) = 0.71918 -0.18894
#
# Static dielectric constant tensor:
#      x y z
#    x 2.134540 0.000000 0.000000 
#    y 0.000000 1.807430 0.000000 
#    z 0.000000 0.000000 1.786190 
# 
# From -- ./inp_files/23226.got.cif
#   From: 2010.05.17/outbox.cif.g08.bks.cpg/sg62_12_cif.got.tgz:23226.got - 2010.06.03 15:25:27.
