data_PCOD9466174
_publ_section_title
;
Structure prediction by ZEFSAII (Michael W. Deem and Ramdas Pophale) SiO2 
 PCOD9466174
Probable space group: P N M A
;
_chemical_formula_sum "Si O2"
_cell_formula_units_Z 60
_cell_length_a 18.288963
_cell_length_b 9.238726
_cell_length_c 18.839613
_cell_angle_alpha 90.000000
_cell_angle_beta 90.000000
_cell_angle_gamma 90.000000
_cell_volume 3183.267577
_symmetry_space_group_name_H-M "P N M A"
_symmetry_group_IT_number 62
_symmetry_cell_setting 'orthorhombic'
loop_
_space_group_symop_operation_xyz
x,y,z
1/2-x,-y,1/2+z
1/2+x,1/2-y,1/2-z
-x,1/2+y,-z
-x,-y,-z
1/2+x,y,1/2-z
1/2-x,1/2+y,1/2+z
x,1/2-y,z
loop_
_atom_site_type_symbol
_atom_site_label
_atom_site_fract_x
_atom_site_fract_y
_atom_site_fract_z
Si Si1 0.274704 0.923755 0.395817
Si Si2 0.594374 0.043833 0.958920
Si Si3 0.861531 0.921717 0.674457
Si Si4 0.486498 0.915507 0.188978
Si Si5 0.635555 0.922229 0.727570
Si Si6 0.732281 0.915448 0.462258
Si Si7 0.983648 0.250000 0.470635
Si Si8 0.722523 0.083907 0.322354
O O1 0.273072 0.750000 0.390843
O O2 0.196078 0.992907 0.374427
O O3 0.330929 0.994088 0.339550
O O4 0.292699 0.980883 0.474122
O O5 0.559486 0.090776 0.883825
O O6 0.679352 0.079259 0.961424
O O7 0.578829 0.875507 0.965554
O O8 0.547639 0.126164 0.018238
O O9 0.863714 0.750000 0.657565
O O10 0.830212 0.933710 0.754732
O O11 0.939931 0.996652 0.673222
O O12 0.501760 0.750000 0.210953
O O13 0.438238 0.003774 0.245301
O O14 0.627618 0.750000 0.713964
O O15 0.696144 0.937119 0.790073
O O16 0.709239 0.750000 0.474385
O O17 0.707653 0.975469 0.386087
O O18 0.717436 0.250000 0.347504
#
# Coordination Sequence:
#
# PCOD9466174 Si02
#       8
#     8   8   8   8   8   8   4   8
#     4  11  24  39  59  85 118 154 195 245 294 345
#     4  11  24  36  52  80 117 162 194 233 279 350
#     4  10  23  40  59  84 118 156 197 243 295 349
#     4  12  23  36  58  87 117 154 199 240 291 346
#     4  10  21  40  61  84 115 153 197 243 292 350
#     4  12  23  36  58  84 115 153 195 236 289 347
#     4  10  24  38  48  70 120 160 190 232 278 336
#     4   9  20  39  59  82 112 149 196 242 287 345
#
# _framework density 18.848555999999999
#
# number of rings (size 3 to 8) (size 9 to 14) (size 15 to 20)
#    0.000    1.333    2.667    3.600    7.467    2.667 
#    0.000    0.000    0.000    0.800    0.000    0.000 
#    0.000    0.000    0.000    0.000    0.000    0.000 
#
# Total GULP energy -334354.492688 kJ/mol
# GULP energy per Si atom -5572.574878 kJ/mol
# Density = 1.880566 g / cm^3
# Si number density = 18.848556 Si / 1000 Ang^3
#
#
#
# Elastic Constant Matrix: (Units=GPa)
#
#
# Indices 1 2 3 4 5 6 
#
# 1 26.8970 10.5477 10.3470 0.0000 0.0000 0.0000
# 2 10.5477 187.2796 48.1062 0.0000 0.0000 0.0000
# 3 10.3470 48.1062 79.5853 0.0000 0.0000 0.0000
# 4 0.0000 0.0000 0.0000 -36.2324 0.0000 0.0000
# 5 0.0000 0.0000 0.0000 0.0000 15.8385 0.0000
# 6 0.0000 0.0000 0.0000 0.0000 0.0000 40.1206
#
#
#
# Elastic Compliance Matrix: (Units=1/GPa)
#
#
# Indices 1 2 3 4 5 6 
#
# 1 0.039316 -0.001067 -0.004467 0.000000 0.000000 0.000000
# 2 -0.001067 0.006350 -0.003700 0.000000 0.000000 0.000000
# 3 -0.004467 -0.003700 0.015382 0.000000 0.000000 0.000000
# 4 0.000000 0.000000 0.000000 -0.027600 0.000000 0.000000
# 5 0.000000 0.000000 0.000000 0.000000 0.063137 0.000000
# 6 0.000000 0.000000 0.000000 0.000000 0.000000 0.024925
#
#
# Mechanical properties :
#
#
# Convention : Reuss Voigt Hill
#
# Bulk Modulus (GPa) = 23.48440 47.97373 35.72907
# Shear Modulus (GPa) = 32.43171 18.92943 25.68057
#
# Velocity S-wave (km/s) = 4.15257 3.17249 3.69517
# Velocity P-wave (km/s) = 5.95637 6.23916 6.09940
#
# Compressibility (1/GPa) = 0.04258145
#
# Stress axis : x y z
#
# Youngs Moduli (GPa) = 25.43524 157.47991 65.01060
#
# Poissons Ratio (x) = 0.16803 0.29037
# Poissons Ratio (y) = 0.02714 0.24051
# Poissons Ratio (z) = 0.11361 0.58262
#
# Static dielectric constant tensor:
#      x y z
#    x 1.645510 0.000000 0.000000 
#    y 0.000000 1.651590 0.000000 
#    z 0.000000 0.000000 1.691620 
# 
# From -- ./inp_files/24366.got.cif
#   From: 2010.05.17/outbox.cif.g08.bks.cpg/sg62_13_cif.got.tgz:24366.got - 2010.06.03 15:25:27.
