data_PCOD9466749
_publ_section_title
;
Structure prediction by ZEFSAII (Michael W. Deem and Ramdas Pophale) SiO2 
 PCOD9466749
Probable space group: P N M A
;
_chemical_formula_sum "Si O2"
_cell_formula_units_Z 48
_cell_length_a 14.345979
_cell_length_b 20.053814
_cell_length_c 7.375095
_cell_angle_alpha 90.000000
_cell_angle_beta 90.000000
_cell_angle_gamma 90.000000
_cell_volume 2121.752840
_symmetry_space_group_name_H-M "P N M A"
_symmetry_group_IT_number 62
_symmetry_cell_setting 'orthorhombic'
loop_
_space_group_symop_operation_xyz
x,y,z
1/2-x,-y,1/2+z
1/2+x,1/2-y,1/2-z
-x,1/2+y,-z
-x,-y,-z
1/2+x,y,1/2-z
1/2-x,1/2+y,1/2+z
x,1/2-y,z
loop_
_atom_site_type_symbol
_atom_site_label
_atom_site_fract_x
_atom_site_fract_y
_atom_site_fract_z
Si Si1 0.663088 0.014649 0.321227
Si Si2 0.683809 0.175910 0.684610
Si Si3 0.360995 0.969531 0.253192
Si Si4 0.998288 0.322457 0.026221
Si Si5 0.500569 0.921970 0.841457
Si Si6 0.109463 0.631411 0.322698
O O1 0.774239 0.014980 0.308177
O O2 0.609067 0.064256 0.186893
O O3 0.633967 0.027134 0.528171
O O4 0.635834 0.940617 0.259344
O O5 0.675397 0.250000 0.771032
O O6 0.608253 0.175677 0.522626
O O7 0.791533 0.165176 0.629168
O O8 0.656327 0.108161 0.792174
O O9 0.450523 0.005590 0.172869
O O10 0.976660 0.250000 0.105854
O O11 0.944546 0.330583 0.836453
O O12 0.971528 0.380814 0.161669
O O13 0.541903 0.881223 0.008242
#
# Coordination Sequence:
#
# PCOD9466749 Si02
#       6
#     8   8   8   8   8   8
#     4  11  22  39  64  99 134 166 223 283 340 399
#     4  10  22  41  66  94 135 178 218 276 340 403
#     4  11  21  39  66 100 133 176 225 283 342 402
#     4  11  24  44  68  96 136 183 224 274 342 405
#     4  12  24  42  68 100 136 176 226 288 339 401
#     4  11  24  42  67  98 133 176 223 279 334 406
#
# _framework density 22.622806000000001
#
# number of rings (size 3 to 8) (size 9 to 14) (size 15 to 20)
#    0.000    1.000    3.333    4.500    0.000    4.000 
#    0.000    0.000    0.000    0.000    0.000    0.000 
#    0.000    0.000    0.000    0.000    0.000    0.000 
#
# Total GULP energy -268371.792867 kJ/mol
# GULP energy per Si atom -5591.079018 kJ/mol
# Density = 2.257132 g / cm^3
# Si number density = 22.622806 Si / 1000 Ang^3
#
#
#
# Elastic Constant Matrix: (Units=GPa)
#
#
# Indices 1 2 3 4 5 6 
#
# 1 120.7611 28.2852 29.2069 0.0000 0.0000 0.0000
# 2 28.2852 106.6561 28.4966 0.0000 0.0000 0.0000
# 3 29.2069 28.4966 91.7642 0.0000 0.0000 0.0000
# 4 0.0000 0.0000 0.0000 14.5239 0.0000 0.0000
# 5 0.0000 0.0000 0.0000 0.0000 24.8104 0.0000
# 6 0.0000 0.0000 0.0000 0.0000 0.0000 13.2668
#
#
#
# Elastic Compliance Matrix: (Units=1/GPa)
#
#
# Indices 1 2 3 4 5 6 
#
# 1 0.009286 -0.001824 -0.002389 0.000000 0.000000 0.000000
# 2 -0.001824 0.010583 -0.002706 0.000000 0.000000 0.000000
# 3 -0.002389 -0.002706 0.012498 0.000000 0.000000 0.000000
# 4 0.000000 0.000000 0.000000 0.068852 0.000000 0.000000
# 5 0.000000 0.000000 0.000000 0.000000 0.040306 0.000000
# 6 0.000000 0.000000 0.000000 0.000000 0.000000 0.075376
#
#
# Mechanical properties :
#
#
# Convention : Reuss Voigt Hill
#
# Bulk Modulus (GPa) = 53.97064 54.57321 54.27192
# Shear Modulus (GPa) = 21.10462 26.06638 23.58550
#
# Velocity S-wave (km/s) = 3.05764 3.39811 3.23236
# Velocity P-wave (km/s) = 6.03109 6.29060 6.16222
#
# Compressibility (1/GPa) = 0.01852859
#
# Stress axis : x y z
#
# Youngs Moduli (GPa) = 107.68999 94.49424 80.01208
#
# Poissons Ratio (x) = 0.17239 0.19115
# Poissons Ratio (y) = 0.19646 0.21649
# Poissons Ratio (z) = 0.25727 0.25567
#
# Static dielectric constant tensor:
#      x y z
#    x 1.866190 0.000000 0.000000 
#    y 0.000000 1.863830 0.000000 
#    z 0.000000 0.000000 1.821120 
# 
# From -- ./inp_files/6459.got.cif
#   From: 2010.05.17/outbox.cif.g08.bks.cpg/sg62_4_cif.got.tgz:6459.got - 2010.06.03 15:25:27.
