data_PCOD9466303
_publ_section_title
;
Structure prediction by ZEFSAII (Michael W. Deem and Ramdas Pophale) SiO2 
 PCOD9466303
Probable space group: P N M A
;
_chemical_formula_sum "Si O2"
_cell_formula_units_Z 40
_cell_length_a 14.718002
_cell_length_b 14.370785
_cell_length_c 8.211430
_cell_angle_alpha 90.000000
_cell_angle_beta 90.000000
_cell_angle_gamma 90.000000
_cell_volume 1736.793338
_symmetry_space_group_name_H-M "P N M A"
_symmetry_group_IT_number 62
_symmetry_cell_setting 'orthorhombic'
loop_
_space_group_symop_operation_xyz
x,y,z
1/2-x,-y,1/2+z
1/2+x,1/2-y,1/2-z
-x,1/2+y,-z
-x,-y,-z
1/2+x,y,1/2-z
1/2-x,1/2+y,1/2+z
x,1/2-y,z
loop_
_atom_site_type_symbol
_atom_site_label
_atom_site_fract_x
_atom_site_fract_y
_atom_site_fract_z
Si Si1 0.346116 0.648087 0.142328
Si Si2 0.598871 0.556472 0.833352
Si Si3 0.774893 0.856554 0.728616
Si Si4 0.345493 0.142771 0.821259
Si Si5 0.566546 0.026335 0.352692
O O1 0.388652 0.750000 0.170620
O O2 0.403645 0.555358 0.163554
O O3 0.259247 0.639955 0.262211
O O4 0.313476 0.644799 0.954590
O O5 0.679053 0.590677 0.716300
O O6 0.498939 0.581488 0.774004
O O7 0.631523 0.600438 0.002472
O O8 0.761445 0.750000 0.782784
O O9 0.842651 0.910207 0.852065
O O10 0.373707 0.250000 0.813653
O O11 0.397853 0.073335 0.704155
O O12 0.500000 0.000000 0.500000
#
# Coordination Sequence:
#
# PCOD9466303 Si02
#       5
#     8   8   8   8   8
#     4  10  21  40  70  98 132 177 225 278 345 412
#     4  12  23  44  69 101 136 181 231 285 351 411
#     4  11  25  45  70 100 136 179 227 283 346 414
#     4  11  24  43  69 103 138 181 232 288 354 422
#     4  12  27  44  70 101 139 187 232 289 347 417
#
# _framework density 23.030947999999999
#
# number of rings (size 3 to 8) (size 9 to 14) (size 15 to 20)
#    0.000    0.800    4.000    2.400    2.800    3.200 
#    0.000    0.000    0.000    0.000    0.000    0.000 
#    0.000    0.000    0.000    0.000    0.000    0.000 
#
# Total GULP energy -223618.087447 kJ/mol
# GULP energy per Si atom -5590.452186 kJ/mol
# Density = 2.297853 g / cm^3
# Si number density = 23.030948 Si / 1000 Ang^3
#
#
#
# Elastic Constant Matrix: (Units=GPa)
#
#
# Indices 1 2 3 4 5 6 
#
# 1 69.3911 22.2013 -2.3966 0.0000 0.0000 0.0000
# 2 22.2013 142.6722 4.6925 0.0000 0.0000 0.0000
# 3 -2.3966 4.6925 59.4361 0.0000 0.0000 0.0000
# 4 0.0000 0.0000 0.0000 21.6700 0.0000 0.0000
# 5 0.0000 0.0000 0.0000 0.0000 37.4664 0.0000
# 6 0.0000 0.0000 0.0000 0.0000 0.0000 3.5847
#
#
#
# Elastic Compliance Matrix: (Units=1/GPa)
#
#
# Indices 1 2 3 4 5 6 
#
# 1 0.015204 -0.002392 0.000802 0.000000 0.000000 0.000000
# 2 -0.002392 0.007404 -0.000681 0.000000 0.000000 0.000000
# 3 0.000802 -0.000681 0.016911 0.000000 0.000000 0.000000
# 4 0.000000 0.000000 0.000000 0.046147 0.000000 0.000000
# 5 0.000000 0.000000 0.000000 0.000000 0.026691 0.000000
# 6 0.000000 0.000000 0.000000 0.000000 0.000000 0.278967
#
#
# Mechanical properties :
#
#
# Convention : Reuss Voigt Hill
#
# Bulk Modulus (GPa) = 28.59095 35.61042 32.10068
# Shear Modulus (GPa) = 12.26921 29.01101 20.64011
#
# Velocity S-wave (km/s) = 2.31059 3.55301 2.99689
# Velocity P-wave (km/s) = 4.42262 5.68572 5.09347
#
# Compressibility (1/GPa) = 0.03497610
#
# Stress axis : x y z
#
# Youngs Moduli (GPa) = 65.77137 135.06689 59.13348
#
# Poissons Ratio (x) = 0.32312 -0.04742
# Poissons Ratio (y) = 0.15735 0.04027
# Poissons Ratio (z) = -0.05274 0.09198
#
# Static dielectric constant tensor:
#      x y z
#    x 1.920370 0.000000 0.000000 
#    y 0.000000 1.828410 0.000000 
#    z 0.000000 0.000000 1.961900 
# 
# From -- ./inp_files/6133.got.cif
#   From: 2010.05.17/outbox.cif.g08.bks.cpg/sg62_4_cif.got.tgz:6133.got - 2010.06.03 15:25:27.
