data_PCOD9466382
_publ_section_title
;
Structure prediction by ZEFSAII (Michael W. Deem and Ramdas Pophale) SiO2 
 PCOD9466382
Probable space group: P N M A
;
_chemical_formula_sum "Si O2"
_cell_formula_units_Z 52
_cell_length_a 15.452456
_cell_length_b 19.804537
_cell_length_c 8.786738
_cell_angle_alpha 90.000000
_cell_angle_beta 90.000000
_cell_angle_gamma 90.000000
_cell_volume 2688.994329
_symmetry_space_group_name_H-M "P N M A"
_symmetry_group_IT_number 62
_symmetry_cell_setting 'orthorhombic'
loop_
_space_group_symop_operation_xyz
x,y,z
1/2-x,-y,1/2+z
1/2+x,1/2-y,1/2-z
-x,1/2+y,-z
-x,-y,-z
1/2+x,y,1/2-z
1/2-x,1/2+y,1/2+z
x,1/2-y,z
loop_
_atom_site_type_symbol
_atom_site_label
_atom_site_fract_x
_atom_site_fract_y
_atom_site_fract_z
Si Si1 0.625862 0.465910 0.675941
Si Si2 0.950293 0.008826 0.655595
Si Si3 0.571185 0.394807 0.377939
Si Si4 0.197627 0.600619 0.249949
Si Si5 0.227632 0.750000 0.899200
Si Si6 0.258538 0.250000 0.763593
Si Si7 0.158650 0.250000 0.090104
Si Si8 0.366651 0.107917 0.414142
O O1 0.527747 0.461179 0.738768
O O2 0.616586 0.442287 0.502229
O O3 0.701675 0.419729 0.742383
O O4 0.655450 0.543912 0.692112
O O5 0.921150 0.936158 0.721147
O O6 0.866500 0.056452 0.646710
O O7 0.000000 0.000000 0.500000
O O8 0.607754 0.320071 0.391432
O O9 0.469702 0.389500 0.411618
O O10 0.189883 0.680210 0.281677
O O11 0.165590 0.588053 0.080316
O O12 0.283651 0.750000 0.744584
O O13 0.172805 0.818889 0.884453
O O14 0.266221 0.750000 0.077398
O O15 0.196155 0.250000 0.914718
#
# Coordination Sequence:
#
# PCOD9466382 Si02
#       8
#     8   8   8   8   4   4   4   8
#     4  11  22  39  69  94 127 176 222 265 339 408
#     4  11  25  40  64 105 135 164 228 282 334 406
#     4  11  22  45  65  92 131 182 221 272 341 414
#     4  11  22  40  66  95 133 174 217 277 331 399
#     4  10  25  39  63  99 130 169 226 276 334 411
#     4  10  24  42  62 100 131 174 225 265 339 404
#     4  12  25  43  69  95 137 177 231 273 337 405
#     4  10  21  42  64  91 131 173 218 269 342 400
#
# _framework density 19.338083999999998
#
# number of rings (size 3 to 8) (size 9 to 14) (size 15 to 20)
#    0.000    1.231    4.615    1.385    4.308    3.692 
#    0.000    1.538    0.000    1.846    0.000    0.000 
#    0.000    0.000    0.000    0.000    0.000    0.000 
#
# Total GULP energy -289644.064017 kJ/mol
# GULP energy per Si atom -5570.078154 kJ/mol
# Density = 1.929407 g / cm^3
# Si number density = 19.338084 Si / 1000 Ang^3
#
#
#
# Elastic Constant Matrix: (Units=GPa)
#
#
# Indices 1 2 3 4 5 6 
#
# 1 53.3355 37.2482 7.7265 0.0000 0.0000 0.0000
# 2 37.2482 137.4449 21.6033 0.0000 0.0000 0.0000
# 3 7.7265 21.6033 57.4083 0.0000 0.0000 0.0000
# 4 0.0000 0.0000 0.0000 -8.3746 0.0000 0.0000
# 5 0.0000 0.0000 0.0000 0.0000 40.2267 0.0000
# 6 0.0000 0.0000 0.0000 0.0000 0.0000 25.7304
#
#
#
# Elastic Compliance Matrix: (Units=1/GPa)
#
#
# Indices 1 2 3 4 5 6 
#
# 1 0.023161 -0.006151 -0.000803 0.000000 0.000000 0.000000
# 2 -0.006151 0.009366 -0.002697 0.000000 0.000000 0.000000
# 3 -0.000803 -0.002697 0.018542 0.000000 0.000000 0.000000
# 4 0.000000 0.000000 0.000000 -0.119409 0.000000 0.000000
# 5 0.000000 0.000000 0.000000 0.000000 0.024859 0.000000
# 6 0.000000 0.000000 0.000000 0.000000 0.000000 0.038865
#
#
# Mechanical properties :
#
#
# Convention : Reuss Voigt Hill
#
# Bulk Modulus (GPa) = 31.47714 42.37162 36.92438
# Shear Modulus (GPa) = 197.83174 23.62388 110.72781
#
# Velocity S-wave (km/s) = 10.12540 3.49897 7.57517
# Velocity P-wave (km/s) = 12.36976 6.18726 9.77991
#
# Compressibility (1/GPa) = 0.03176909
#
# Stress axis : x y z
#
# Youngs Moduli (GPa) = 43.17621 106.76509 53.93166
#
# Poissons Ratio (x) = 0.65666 0.04329
# Poissons Ratio (y) = 0.26556 0.14545
# Poissons Ratio (z) = 0.03466 0.28793
#
# Static dielectric constant tensor:
#      x y z
#    x 1.666690 0.000000 0.000000 
#    y 0.000000 1.697750 0.000000 
#    z 0.000000 0.000000 1.727940 
# 
# From -- ./inp_files/7944.got.cif
#   From: 2010.05.17/outbox.cif.g08.bks.cpg/sg62_4_cif.got.tgz:7944.got - 2010.06.03 15:25:27.
