data_PCOD9466795
_publ_section_title
;
Structure prediction by ZEFSAII (Michael W. Deem and Ramdas Pophale) SiO2 
 PCOD9466795
Probable space group: P N M A
;
_chemical_formula_sum "Si O2"
_cell_formula_units_Z 56
_cell_length_a 13.606259
_cell_length_b 28.666493
_cell_length_c 6.803807
_cell_angle_alpha 90.000000
_cell_angle_beta 90.000000
_cell_angle_gamma 90.000000
_cell_volume 2653.782249
_symmetry_space_group_name_H-M "P N M A"
_symmetry_group_IT_number 62
_symmetry_cell_setting 'orthorhombic'
loop_
_space_group_symop_operation_xyz
x,y,z
1/2-x,-y,1/2+z
1/2+x,1/2-y,1/2-z
-x,1/2+y,-z
-x,-y,-z
1/2+x,y,1/2-z
1/2-x,1/2+y,1/2+z
x,1/2-y,z
loop_
_atom_site_type_symbol
_atom_site_label
_atom_site_fract_x
_atom_site_fract_y
_atom_site_fract_z
Si Si1 0.424260 0.698200 0.261523
Si Si2 0.551735 0.848798 0.557254
Si Si3 0.487927 0.942825 0.334954
Si Si4 0.317181 0.556811 0.057441
Si Si5 0.107578 0.694856 0.534519
Si Si6 0.158113 0.016247 0.154433
Si Si7 0.769493 0.148693 0.792663
O O1 0.386532 0.750000 0.281191
O O2 0.460674 0.680097 0.471537
O O3 0.517340 0.696573 0.118387
O O4 0.337700 0.668421 0.173873
O O5 0.529493 0.900499 0.468670
O O6 0.650765 0.833036 0.446156
O O7 0.571829 0.835942 0.781177
O O8 0.426583 0.932895 0.137859
O O9 0.576723 0.977563 0.281143
O O10 0.399046 0.964205 0.465297
O O11 0.262276 0.507741 0.104881
O O12 0.246221 0.594332 0.161276
O O13 0.324615 0.555000 0.821252
O O14 0.131267 0.750000 0.580519
O O15 0.193048 0.666613 0.419154
#
# Coordination Sequence:
#
# PCOD9466795 Si02
#       7
#     8   8   8   8   8   8   8
#     4  10  22  42  65  93 131 171 217 276 340 403
#     4  11  23  41  68  98 132 174 226 276 337 409
#     4  11  24  44  63  98 133 172 226 276 339 400
#     4  12  23  44  67  95 132 173 225 273 340 402
#     4  10  24  44  66  97 135 176 219 274 343 409
#     4  11  25  42  66  96 132 177 221 277 339 408
#     4  11  24  41  67  99 132 173 225 285 330 402
#
# _framework density 21.101958
#
# number of rings (size 3 to 8) (size 9 to 14) (size 15 to 20)
#    0.000    1.143    4.286    1.286    2.000    4.000 
#    5.143    1.429    0.000    0.000    0.000    0.000 
#    0.000    0.000    0.000    0.000    0.000    0.000 
#
# Total GULP energy -312102.003506 kJ/mol
# GULP energy per Si atom -5573.250063 kJ/mol
# Density = 2.105393 g / cm^3
# Si number density = 21.101958 Si / 1000 Ang^3
#
#
#
# Elastic Constant Matrix: (Units=GPa)
#
#
# Indices 1 2 3 4 5 6 
#
# 1 66.1992 19.9442 -15.4572 0.0000 0.0000 0.0000
# 2 19.9442 71.4174 -10.8012 0.0000 0.0000 0.0000
# 3 -15.4572 -10.8012 62.7489 0.0000 0.0000 0.0000
# 4 0.0000 0.0000 0.0000 22.4853 0.0000 0.0000
# 5 0.0000 0.0000 0.0000 0.0000 30.2012 0.0000
# 6 0.0000 0.0000 0.0000 0.0000 0.0000 31.6775
#
#
#
# Elastic Compliance Matrix: (Units=1/GPa)
#
#
# Indices 1 2 3 4 5 6 
#
# 1 0.017213 -0.004277 0.003504 0.000000 0.000000 0.000000
# 2 -0.004277 0.015439 0.001604 0.000000 0.000000 0.000000
# 3 0.003504 0.001604 0.017076 0.000000 0.000000 0.000000
# 4 0.000000 0.000000 0.000000 0.044474 0.000000 0.000000
# 5 0.000000 0.000000 0.000000 0.000000 0.033111 0.000000
# 6 0.000000 0.000000 0.000000 0.000000 0.000000 0.031568
#
#
# Mechanical properties :
#
#
# Convention : Reuss Voigt Hill
#
# Bulk Modulus (GPa) = 19.45920 20.85966 20.15943
# Shear Modulus (GPa) = 28.67822 30.65144 29.66483
#
# Velocity S-wave (km/s) = 3.69050 3.81535 3.75345
# Velocity P-wave (km/s) = 5.23462 5.41441 5.32528
#
# Compressibility (1/GPa) = 0.05138957
#
# Stress axis : x y z
#
# Youngs Moduli (GPa) = 58.09706 64.77033 58.56247
#
# Poissons Ratio (x) = 0.27702 -0.20519
# Poissons Ratio (y) = 0.24848 -0.09394
# Poissons Ratio (z) = -0.20356 -0.10390
#
# Static dielectric constant tensor:
#      x y z
#    x 1.741570 0.000000 0.000000 
#    y 0.000000 1.883560 0.000000 
#    z 0.000000 0.000000 1.750330 
# 
# From -- ./inp_files/1258.got.cif
#   From: 2010.05.17/outbox.cif.g08.bks.cpg/sg62_1_cif.got.tgz:1258.got - 2010.06.03 15:25:27.
