data_PCOD9466396
_publ_section_title
;
Structure prediction by ZEFSAII (Michael W. Deem and Ramdas Pophale) SiO2 
 PCOD9466396
Probable space group: P N M A
;
_chemical_formula_sum "Si O2"
_cell_formula_units_Z 64
_cell_length_a 28.054368
_cell_length_b 19.034159
_cell_length_c 5.113124
_cell_angle_alpha 90.000000
_cell_angle_beta 90.000000
_cell_angle_gamma 90.000000
_cell_volume 2730.363738
_symmetry_space_group_name_H-M "P N M A"
_symmetry_group_IT_number 62
_symmetry_cell_setting 'orthorhombic'
loop_
_space_group_symop_operation_xyz
x,y,z
1/2-x,-y,1/2+z
1/2+x,1/2-y,1/2-z
-x,1/2+y,-z
-x,-y,-z
1/2+x,y,1/2-z
1/2-x,1/2+y,1/2+z
x,1/2-y,z
loop_
_atom_site_type_symbol
_atom_site_label
_atom_site_fract_x
_atom_site_fract_y
_atom_site_fract_z
Si Si1 0.672033 0.169964 0.652175
Si Si2 0.425710 0.168538 0.991879
Si Si3 0.142935 0.412355 0.366627
Si Si4 0.500844 0.066253 0.811247
Si Si5 0.279099 0.477902 0.046891
Si Si6 0.716097 0.831070 0.201109
Si Si7 0.131863 0.618822 0.988230
Si Si8 0.577409 0.012054 0.483293
O O1 0.660012 0.250000 0.587201
O O2 0.641979 0.141504 0.895243
O O3 0.727135 0.168221 0.746415
O O4 0.665053 0.123680 0.392874
O O5 0.431832 0.250000 0.941557
O O6 0.476692 0.130114 0.964712
O O7 0.392365 0.135971 0.767435
O O8 0.397698 0.157113 0.262153
O O9 0.176209 0.475578 0.462032
O O10 0.093747 0.445440 0.269408
O O11 0.552508 0.066128 0.679263
O O12 0.463138 0.045327 0.582524
O O13 0.500000 0.000000 0.000000
O O14 0.260913 0.499292 0.332823
O O15 0.290583 0.395647 0.001840
O O16 0.703354 0.750000 0.125116
O O17 0.684931 0.853528 0.452931
O O18 0.122573 0.535819 0.933822
#
# Coordination Sequence:
#
# PCOD9466396 Si02
#       8
#     8   8   8   8   8   8   8   8
#     4  11  26  44  65  94 133 178 222 275 327 375
#     4  11  23  40  62  90 129 166 203 257 322 388
#     4  12  23  43  70  93 128 173 220 271 322 387
#     4  10  21  42  66  94 127 163 210 264 327 391
#     4  12  23  42  61  94 128 168 217 267 317 381
#     4  11  23  41  64  95 134 173 215 266 327 386
#     4  11  23  40  63  95 130 164 209 259 316 392
#     4  10  23  39  68  98 124 166 214 268 323 387
#
# _framework density 23.440099
#
# number of rings (size 3 to 8) (size 9 to 14) (size 15 to 20)
#    0.000    1.000    5.000    1.500    1.750    2.000 
#    0.000    4.375    0.000    0.000    0.000    0.000 
#    0.000    0.000    0.000    0.000    0.000    0.000 
#
# Total GULP energy -358025.527882 kJ/mol
# GULP energy per Si atom -5594.148873 kJ/mol
# Density = 2.338675 g / cm^3
# Si number density = 23.440099 Si / 1000 Ang^3
#
#
#
# Elastic Constant Matrix: (Units=GPa)
#
#
# Indices 1 2 3 4 5 6 
#
# 1 63.6215 42.4911 26.2186 0.0000 0.0000 0.0000
# 2 42.4911 132.7821 18.8272 0.0000 0.0000 0.0000
# 3 26.2186 18.8272 77.5541 0.0000 0.0000 0.0000
# 4 0.0000 0.0000 0.0000 26.9579 0.0000 0.0000
# 5 0.0000 0.0000 0.0000 0.0000 16.7523 0.0000
# 6 0.0000 0.0000 0.0000 0.0000 0.0000 24.8444
#
#
#
# Elastic Compliance Matrix: (Units=1/GPa)
#
#
# Indices 1 2 3 4 5 6 
#
# 1 0.022432 -0.006321 -0.006049 0.000000 0.000000 0.000000
# 2 -0.006321 0.009581 -0.000189 0.000000 0.000000 0.000000
# 3 -0.006049 -0.000189 0.014985 0.000000 0.000000 0.000000
# 4 0.000000 0.000000 0.000000 0.037095 0.000000 0.000000
# 5 0.000000 0.000000 0.000000 0.000000 0.059693 0.000000
# 6 0.000000 0.000000 0.000000 0.000000 0.000000 0.040251
#
#
# Mechanical properties :
#
#
# Convention : Reuss Voigt Hill
#
# Bulk Modulus (GPa) = 45.70343 49.89241 47.79792
# Shear Modulus (GPa) = 23.10021 26.13895 24.61958
#
# Velocity S-wave (km/s) = 3.14267 3.34299 3.24438
# Velocity P-wave (km/s) = 5.71916 6.01931 5.87115
#
# Compressibility (1/GPa) = 0.02188020
#
# Stress axis : x y z
#
# Youngs Moduli (GPa) = 44.57848 104.37738 66.73274
#
# Poissons Ratio (x) = 0.65975 0.40368
# Poissons Ratio (y) = 0.28177 0.01261
# Poissons Ratio (z) = 0.26967 0.01972
#
# Static dielectric constant tensor:
#      x y z
#    x 1.995270 0.000000 0.000000 
#    y 0.000000 1.863370 0.000000 
#    z 0.000000 0.000000 1.913760 
# 
# From -- ./inp_files/3676.got.cif
#   From: 2010.05.17/outbox.cif.g08.bks.cpg/sg62_2_cif.got.tgz:3676.got - 2010.06.03 15:25:27.
