data_PCOD9466424
_publ_section_title
;
Structure prediction by ZEFSAII (Michael W. Deem and Ramdas Pophale) SiO2 
 PCOD9466424
Probable space group: P N M A
;
_chemical_formula_sum "Si O2"
_cell_formula_units_Z 44
_cell_length_a 14.690954
_cell_length_b 14.480795
_cell_length_c 8.166342
_cell_angle_alpha 90.000000
_cell_angle_beta 90.000000
_cell_angle_gamma 90.000000
_cell_volume 1737.280593
_symmetry_space_group_name_H-M "P N M A"
_symmetry_group_IT_number 62
_symmetry_cell_setting 'orthorhombic'
loop_
_space_group_symop_operation_xyz
x,y,z
1/2-x,-y,1/2+z
1/2+x,1/2-y,1/2-z
-x,1/2+y,-z
-x,-y,-z
1/2+x,y,1/2-z
1/2-x,1/2+y,1/2+z
x,1/2-y,z
loop_
_atom_site_type_symbol
_atom_site_label
_atom_site_fract_x
_atom_site_fract_y
_atom_site_fract_z
Si Si1 0.248851 0.750000 0.793343
Si Si2 0.628351 0.250000 0.879849
Si Si3 0.826524 0.067935 0.079783
Si Si4 0.826621 0.058300 0.719800
Si Si5 0.015701 0.889712 0.490716
Si Si6 0.877127 0.750000 0.018405
Si Si7 0.526022 0.091234 0.343862
O O1 0.193484 0.655595 0.806848
O O2 0.304935 0.750000 0.627327
O O3 0.313963 0.750000 0.953971
O O4 0.562060 0.161017 0.889340
O O5 0.667796 0.250000 0.696814
O O6 0.932259 0.043047 0.101038
O O7 0.759661 0.985358 0.129731
O O8 0.803650 0.100932 0.895289
O O9 0.887712 0.119694 0.599453
O O10 0.891522 0.973512 0.782507
O O11 0.003325 0.856766 0.676210
O O12 0.000000 0.000000 0.500000
O O13 0.940163 0.838656 0.981578
#
# Coordination Sequence:
#
# PCOD9466424 Si02
#       7
#     4   4   8   8   8   4   8
#     4  12  25  50  64 107 149 186 238 317 366 440
#     4  12  24  43  78 104 142 202 246 303 382 457
#     4  12  25  43  70 103 148 188 245 309 370 446
#     4  11  24  42  67 105 144 191 252 301 375 448
#     4  10  21  43  71 105 144 190 249 308 374 442
#     4  12  23  45  76 107 141 194 246 302 380 451
#     4  11  22  44  72  98 148 193 240 312 377 439
#
# _framework density 25.326938999999999
#
# number of rings (size 3 to 8) (size 9 to 14) (size 15 to 20)
#    0.000    0.727    3.636    4.364    0.000    5.091 
#    3.273    0.000    0.000    0.000    0.000    0.000 
#    0.000    0.000    0.000    0.000    0.000    0.000 
#
# Total GULP energy -246467.835389 kJ/mol
# GULP energy per Si atom -5601.541713 kJ/mol
# Density = 2.526929 g / cm^3
# Si number density = 25.326939 Si / 1000 Ang^3
#
#
#
# Elastic Constant Matrix: (Units=GPa)
#
#
# Indices 1 2 3 4 5 6 
#
# 1 135.7699 20.2283 30.2804 0.0000 0.0000 0.0000
# 2 20.2283 75.5496 -5.6452 0.0000 0.0000 0.0000
# 3 30.2804 -5.6452 162.3874 0.0000 0.0000 0.0000
# 4 0.0000 0.0000 0.0000 -161.6689 0.0000 0.0000
# 5 0.0000 0.0000 0.0000 0.0000 46.9917 0.0000
# 6 0.0000 0.0000 0.0000 0.0000 0.0000 33.7673
#
#
#
# Elastic Compliance Matrix: (Units=1/GPa)
#
#
# Indices 1 2 3 4 5 6 
#
# 1 0.008057 -0.002275 -0.001582 0.000000 0.000000 0.000000
# 2 -0.002275 0.013913 0.000908 0.000000 0.000000 0.000000
# 3 -0.001582 0.000908 0.006485 0.000000 0.000000 0.000000
# 4 0.000000 0.000000 0.000000 -0.006185 0.000000 0.000000
# 5 0.000000 0.000000 0.000000 0.000000 0.021280 0.000000
# 6 0.000000 0.000000 0.000000 0.000000 0.000000 0.029614
#
#
# Mechanical properties :
#
#
# Convention : Reuss Voigt Hill
#
# Bulk Modulus (GPa) = 44.33179 51.49266 47.91223
# Shear Modulus (GPa) = 57.74904 5.74092 31.74498
#
# Velocity S-wave (km/s) = 4.78026 1.50720 3.54419
# Velocity P-wave (km/s) = 6.92890 4.83779 5.97553
#
# Compressibility (1/GPa) = 0.02255717
#
# Stress axis : x y z
#
# Youngs Moduli (GPa) = 124.11339 71.87296 154.21192
#
# Poissons Ratio (x) = 0.16354 0.24389
# Poissons Ratio (y) = 0.28242 -0.14002
# Poissons Ratio (z) = 0.19629 -0.06526
#
# Static dielectric constant tensor:
#      x y z
#    x 1.994400 0.000000 0.000000 
#    y 0.000000 2.006200 0.000000 
#    z 0.000000 0.000000 2.042200 
# 
# From -- ./inp_files/6404.got.cif
#   From: 2010.05.17/outbox.cif.g08.bks.cpg/sg62_4_cif.got.tgz:6404.got - 2010.06.03 15:25:27.
