data_PCOD9466445
_publ_section_title
;
Structure prediction by ZEFSAII (Michael W. Deem and Ramdas Pophale) SiO2 
 PCOD9466445
Probable space group: P N M A
;
_chemical_formula_sum "Si O2"
_cell_formula_units_Z 48
_cell_length_a 11.014958
_cell_length_b 11.416455
_cell_length_c 19.163078
_cell_angle_alpha 90.000000
_cell_angle_beta 90.000000
_cell_angle_gamma 90.000000
_cell_volume 2409.791022
_symmetry_space_group_name_H-M "P N M A"
_symmetry_group_IT_number 62
_symmetry_cell_setting 'orthorhombic'
loop_
_space_group_symop_operation_xyz
x,y,z
1/2-x,-y,1/2+z
1/2+x,1/2-y,1/2-z
-x,1/2+y,-z
-x,-y,-z
1/2+x,y,1/2-z
1/2-x,1/2+y,1/2+z
x,1/2-y,z
loop_
_atom_site_type_symbol
_atom_site_label
_atom_site_fract_x
_atom_site_fract_y
_atom_site_fract_z
Si Si1 0.083812 0.966678 0.170567
Si Si2 0.492956 0.750000 0.189289
Si Si3 0.779776 0.250000 0.796163
Si Si4 0.535092 0.884049 0.954811
Si Si5 0.825877 0.615844 0.955046
Si Si6 0.667022 0.111170 0.611479
Si Si7 0.085230 0.992598 0.333338
O O1 0.188634 0.868471 0.163926
O O2 0.081873 0.012925 0.250065
O O3 0.954928 0.907291 0.154728
O O4 0.110150 0.057608 0.110212
O O5 0.613809 0.750000 0.237800
O O6 0.360314 0.750000 0.224508
O O7 0.507476 0.626203 0.150911
O O8 0.506920 0.750000 0.980653
O O9 0.680351 0.888740 0.946629
O O10 0.468575 0.905686 0.880977
O O11 0.500000 0.000000 0.000000
O O12 0.865145 0.750000 0.957073
O O13 0.852895 0.567231 0.032270
O O14 0.698363 0.250000 0.608257
O O15 0.778277 0.040962 0.644828
#
# Coordination Sequence:
#
# PCOD9466445 Si02
#       7
#     8   4   4   8   8   8   8
#     4  11  24  38  65  93 133 171 227 276 338 399
#     4  10  22  34  62  94 138 172 223 276 347 391
#     4  10  22  36  58 100 130 168 219 286 329 395
#     4  11  24  45  68  99 131 176 223 280 337 410
#     4  10  23  44  66  87 129 177 222 270 349 405
#     4  11  22  41  62  96 131 179 218 282 339 405
#     4  11  24  37  67  95 136 168 228 278 341 397
#
# _framework density 19.918738999999999
#
# number of rings (size 3 to 8) (size 9 to 14) (size 15 to 20)
#    0.000    1.333    3.333    1.500   12.833    0.667 
#    1.500    0.833    0.000    0.000    0.000    0.000 
#    0.000    0.000    0.000    0.000    0.000    0.000 
#
# Total GULP energy -267848.104616 kJ/mol
# GULP energy per Si atom -5580.168846 kJ/mol
# Density = 1.987340 g / cm^3
# Si number density = 19.918739 Si / 1000 Ang^3
#
#
#
# Elastic Constant Matrix: (Units=GPa)
#
#
# Indices 1 2 3 4 5 6 
#
# 1 86.5527 27.4218 34.9645 0.0000 0.0000 0.0000
# 2 27.4218 69.7779 40.8328 0.0000 0.0000 0.0000
# 3 34.9645 40.8328 151.4453 0.0000 0.0000 0.0000
# 4 0.0000 0.0000 0.0000 33.6046 0.0000 0.0000
# 5 0.0000 0.0000 0.0000 0.0000 30.0816 0.0000
# 6 0.0000 0.0000 0.0000 0.0000 0.0000 23.0425
#
#
#
# Elastic Compliance Matrix: (Units=1/GPa)
#
#
# Indices 1 2 3 4 5 6 
#
# 1 0.013704 -0.004196 -0.002033 0.000000 0.000000 0.000000
# 2 -0.004196 0.018301 -0.003965 0.000000 0.000000 0.000000
# 3 -0.002033 -0.003965 0.008141 0.000000 0.000000 0.000000
# 4 0.000000 0.000000 0.000000 0.029758 0.000000 0.000000
# 5 0.000000 0.000000 0.000000 0.000000 0.033243 0.000000
# 6 0.000000 0.000000 0.000000 0.000000 0.000000 0.043398
#
#
# Mechanical properties :
#
#
# Convention : Reuss Voigt Hill
#
# Bulk Modulus (GPa) = 50.61231 57.13491 53.87361
# Shear Modulus (GPa) = 28.81520 30.98286 29.89903
#
# Velocity S-wave (km/s) = 3.80760 3.94821 3.87854
# Velocity P-wave (km/s) = 6.69290 7.03781 6.86752
#
# Compressibility (1/GPa) = 0.01975804
#
# Stress axis : x y z
#
# Youngs Moduli (GPa) = 72.97054 54.64263 122.82784
#
# Poissons Ratio (x) = 0.22929 0.24965
# Poissons Ratio (y) = 0.30619 0.48707
# Poissons Ratio (z) = 0.14832 0.21668
#
# Static dielectric constant tensor:
#      x y z
#    x 1.672910 0.000000 0.000000 
#    y 0.000000 1.749520 0.000000 
#    z 0.000000 0.000000 1.751330 
# 
# From -- ./inp_files/23070.got.cif
#   From: 2010.05.17/outbox.cif.g08.bks.cpg/sg62_12_cif.got.tgz:23070.got - 2010.06.03 15:25:27.
