data_PCOD9466827
_publ_section_title
;
Structure prediction by ZEFSAII (Michael W. Deem and Ramdas Pophale) SiO2 
 PCOD9466827
Probable space group: P N M A
;
_chemical_formula_sum "Si O2"
_cell_formula_units_Z 32
_cell_length_a 18.169961
_cell_length_b 12.334562
_cell_length_c 6.461489
_cell_angle_alpha 90.000000
_cell_angle_beta 90.000000
_cell_angle_gamma 90.000000
_cell_volume 1448.139290
_symmetry_space_group_name_H-M "P N M A"
_symmetry_group_IT_number 62
_symmetry_cell_setting 'orthorhombic'
loop_
_space_group_symop_operation_xyz
x,y,z
1/2-x,-y,1/2+z
1/2+x,1/2-y,1/2-z
-x,1/2+y,-z
-x,-y,-z
1/2+x,y,1/2-z
1/2-x,1/2+y,1/2+z
x,1/2-y,z
loop_
_atom_site_type_symbol
_atom_site_label
_atom_site_fract_x
_atom_site_fract_y
_atom_site_fract_z
Si Si1 0.927690 0.058176 0.585321
Si Si2 0.013420 0.367941 0.953468
Si Si3 0.815053 0.130795 0.240731
Si Si4 0.163844 0.437480 0.075673
O O1 0.881437 0.108705 0.399603
O O2 0.962338 0.138315 0.753038
O O3 0.000000 0.000000 0.500000
O O4 0.875199 0.975305 0.710898
O O5 0.998558 0.250000 0.067116
O O6 0.102093 0.372036 0.948095
O O7 0.000000 0.500000 0.000000
O O8 0.820989 0.250000 0.149655
O O9 0.739086 0.120819 0.366922
O O10 0.817340 0.042161 0.061349
#
# Coordination Sequence:
#
# PCOD9466827 Si02
#       4
#     8   8   8   8
#     4  11  23  45  70 102 139 187 235 296 355 430
#     4  10  22  42  70 103 142 185 232 289 351 419
#     4  12  25  44  72 101 140 190 237 295 362 428
#     4  11  24  46  68 100 144 178 241 291 354 427
#
# _framework density 22.097322999999999
#
# number of rings (size 3 to 8) (size 9 to 14) (size 15 to 20)
#    0.000    1.000    5.000    1.500    0.000    5.000 
#    0.000    6.250    0.000    0.000    0.000    0.000 
#    0.000    0.000    0.000    0.000    0.000    0.000 
#
# Total GULP energy -178208.741285 kJ/mol
# GULP energy per Si atom -5569.023165 kJ/mol
# Density = 2.204703 g / cm^3
# Si number density = 22.097323 Si / 1000 Ang^3
#
#
#
# Elastic Constant Matrix: (Units=GPa)
#
#
# Indices 1 2 3 4 5 6 
#
# 1 155.2275 40.6831 16.6453 0.0000 0.0000 0.0000
# 2 40.6831 164.5656 20.3104 0.0000 0.0000 0.0000
# 3 16.6453 20.3104 36.9554 0.0000 0.0000 0.0000
# 4 0.0000 0.0000 0.0000 17.7734 0.0000 0.0000
# 5 0.0000 0.0000 0.0000 0.0000 50.8579 0.0000
# 6 0.0000 0.0000 0.0000 0.0000 0.0000 -34.6279
#
#
#
# Elastic Compliance Matrix: (Units=1/GPa)
#
#
# Indices 1 2 3 4 5 6 
#
# 1 0.007080 -0.001455 -0.002389 0.000000 0.000000 0.000000
# 2 -0.001455 0.006818 -0.003092 0.000000 0.000000 0.000000
# 3 -0.002389 -0.003092 0.029835 0.000000 0.000000 0.000000
# 4 0.000000 0.000000 0.000000 0.056264 0.000000 0.000000
# 5 0.000000 0.000000 0.000000 0.000000 0.019663 0.000000
# 6 0.000000 0.000000 0.000000 0.000000 0.000000 -0.028878
#
#
# Mechanical properties :
#
#
# Convention : Reuss Voigt Hill
#
# Bulk Modulus (GPa) = 33.48888 56.89178 45.19033
# Shear Modulus (GPa) = 43.62775 25.40798 34.51787
#
# Velocity S-wave (km/s) = 4.44818 3.39458 3.95661
# Velocity P-wave (km/s) = 6.44747 6.41608 6.43179
#
# Compressibility (1/GPa) = 0.02986066
#
# Stress axis : x y z
#
# Youngs Moduli (GPa) = 141.24756 146.67156 33.51794
#
# Poissons Ratio (x) = 0.21346 0.08007
# Poissons Ratio (y) = 0.20557 0.10362
# Poissons Ratio (z) = 0.33744 0.45344
#
# Static dielectric constant tensor:
#      x y z
#    x 1.814580 0.000000 0.000000 
#    y 0.000000 1.876090 0.000000 
#    z 0.000000 0.000000 1.871260 
# 
# From -- ./inp_files/2009.got.cif
#   From: 2010.05.17/outbox.cif.g08.bks.cpg/sg62_2_cif.got.tgz:2009.got - 2010.06.03 15:25:27.
