data_PCOD9466070
_publ_section_title
;
Structure prediction by ZEFSAII (Michael W. Deem and Ramdas Pophale) SiO2 
 PCOD9466070
Probable space group: P N M A
;
_chemical_formula_sum "Si O2"
_cell_formula_units_Z 64
_cell_length_a 22.546865
_cell_length_b 8.215670
_cell_length_c 14.746088
_cell_angle_alpha 90.000000
_cell_angle_beta 90.000000
_cell_angle_gamma 90.000000
_cell_volume 2731.529986
_symmetry_space_group_name_H-M "P N M A"
_symmetry_group_IT_number 62
_symmetry_cell_setting 'orthorhombic'
loop_
_space_group_symop_operation_xyz
x,y,z
1/2-x,-y,1/2+z
1/2+x,1/2-y,1/2-z
-x,1/2+y,-z
-x,-y,-z
1/2+x,y,1/2-z
1/2-x,1/2+y,1/2+z
x,1/2-y,z
loop_
_atom_site_type_symbol
_atom_site_label
_atom_site_fract_x
_atom_site_fract_y
_atom_site_fract_z
Si Si1 0.986274 0.940061 0.181925
Si Si2 0.084080 0.558225 0.055798
Si Si3 0.533913 0.438069 0.140538
Si Si4 0.180184 0.063303 0.192409
Si Si5 0.583387 0.446324 0.955363
Si Si6 0.865717 0.057584 0.136144
Si Si7 0.716538 0.440634 0.927292
Si Si8 0.237504 0.560186 0.371314
O O1 0.974160 0.750000 0.168077
O O2 0.022884 0.010866 0.096607
O O3 0.028542 0.960321 0.268548
O O4 0.923613 0.026994 0.196949
O O5 0.074438 0.750000 0.041048
O O6 0.132558 0.535610 0.134380
O O7 0.111863 0.493594 0.962656
O O8 0.543457 0.250000 0.164040
O O9 0.470091 0.461245 0.092220
O O10 0.580199 0.486526 0.062581
O O11 0.161044 0.250000 0.195044
O O12 0.240746 0.045020 0.135228
O O13 0.193877 0.002095 0.293112
O O14 0.573140 0.250000 0.947843
O O15 0.647585 0.482718 0.916121
O O16 0.853154 0.250000 0.130905
O O17 0.805251 0.968951 0.161872
O O18 0.725414 0.250000 0.905132
O O19 0.731420 0.467109 0.033333
O O20 0.227794 0.750000 0.387875
#
# Coordination Sequence:
#
# PCOD9466070 Si02
#       8
#     8   8   8   8   8   8   8   8
#     4  11  24  40  63  94 127 164 209 259 318 377
#     4  10  23  44  67  93 127 166 209 263 320 381
#     4  10  21  39  61  91 125 163 209 258 311 372
#     4  12  26  43  67  97 131 174 219 267 324 386
#     4   9  21  40  63  88 123 166 206 256 316 373
#     4  11  23  43  68  93 126 166 211 263 319 379
#     4  11  23  43  68  97 132 169 216 270 323 388
#     4  12  26  44  67  97 132 173 218 267 324 386
#
# _framework density 23.430092999999999
#
# number of rings (size 3 to 8) (size 9 to 14) (size 15 to 20)
#    0.000    1.250    1.250    4.125    3.500    3.000 
#    0.000    0.000    0.000    0.000    0.000    0.000 
#    0.000    0.000    0.000    0.000    0.000    0.000 
#
# Total GULP energy -358277.633439 kJ/mol
# GULP energy per Si atom -5598.088022 kJ/mol
# Density = 2.337677 g / cm^3
# Si number density = 23.430093 Si / 1000 Ang^3
#
#
#
# Elastic Constant Matrix: (Units=GPa)
#
#
# Indices 1 2 3 4 5 6 
#
# 1 46.5993 -15.3459 -0.2623 0.0000 0.0000 0.0000
# 2 -15.3459 34.9255 0.5208 0.0000 0.0000 0.0000
# 3 -0.2623 0.5208 75.5303 0.0000 0.0000 0.0000
# 4 0.0000 0.0000 0.0000 24.9980 0.0000 0.0000
# 5 0.0000 0.0000 0.0000 0.0000 23.2795 0.0000
# 6 0.0000 0.0000 0.0000 0.0000 0.0000 17.3849
#
#
#
# Elastic Compliance Matrix: (Units=1/GPa)
#
#
# Indices 1 2 3 4 5 6 
#
# 1 0.025090 0.011024 0.000011 0.000000 0.000000 0.000000
# 2 0.011024 0.033479 -0.000193 0.000000 0.000000 0.000000
# 3 0.000011 -0.000193 0.013241 0.000000 0.000000 0.000000
# 4 0.000000 0.000000 0.000000 0.040003 0.000000 0.000000
# 5 0.000000 0.000000 0.000000 0.000000 0.042956 0.000000
# 6 0.000000 0.000000 0.000000 0.000000 0.000000 0.057521
#
#
# Mechanical properties :
#
#
# Convention : Reuss Voigt Hill
#
# Bulk Modulus (GPa) = 10.69569 14.09780 12.39675
# Shear Modulus (GPa) = 22.54579 24.60863 23.57721
#
# Velocity S-wave (km/s) = 3.10539 3.24435 3.17563
# Velocity P-wave (km/s) = 4.17526 4.47933 4.32997
#
# Compressibility (1/GPa) = 0.09349560
#
# Stress axis : x y z
#
# Youngs Moduli (GPa) = 39.85647 29.86939 75.52248
#
# Poissons Ratio (x) = -0.32928 -0.00084
# Poissons Ratio (y) = -0.43938 0.01454
# Poissons Ratio (z) = -0.00044 0.00575
#
# Static dielectric constant tensor:
#      x y z
#    x 1.894570 0.000000 0.000000 
#    y 0.000000 1.802370 0.000000 
#    z 0.000000 0.000000 1.915380 
# 
# From -- ./inp_files/20778.got.cif
#   From: 2010.05.17/outbox.cif.g08.bks.cpg/sg62_11_cif.got.tgz:20778.got - 2010.06.03 15:25:27.
