data_PCOD9466555
_publ_section_title
;
Structure prediction by ZEFSAII (Michael W. Deem and Ramdas Pophale) SiO2 
 PCOD9466555
Probable space group: P N M A
;
_chemical_formula_sum "Si O2"
_cell_formula_units_Z 48
_cell_length_a 11.294751
_cell_length_b 8.348675
_cell_length_c 24.192483
_cell_angle_alpha 90.000000
_cell_angle_beta 90.000000
_cell_angle_gamma 90.000000
_cell_volume 2281.259344
_symmetry_space_group_name_H-M "P N M A"
_symmetry_group_IT_number 62
_symmetry_cell_setting 'orthorhombic'
loop_
_space_group_symop_operation_xyz
x,y,z
1/2-x,-y,1/2+z
1/2+x,1/2-y,1/2-z
-x,1/2+y,-z
-x,-y,-z
1/2+x,y,1/2-z
1/2-x,1/2+y,1/2+z
x,1/2-y,z
loop_
_atom_site_type_symbol
_atom_site_label
_atom_site_fract_x
_atom_site_fract_y
_atom_site_fract_z
Si Si1 0.324604 0.061135 0.317389
Si Si2 0.800061 0.058223 0.974799
Si Si3 0.437242 0.059466 0.628764
Si Si4 0.803181 0.061906 0.580056
Si Si5 0.796581 0.057599 0.309897
Si Si6 0.935490 0.555702 0.410425
O O1 0.300293 0.250000 0.319972
O O2 0.316695 0.011079 0.253591
O O3 0.453310 0.026425 0.342782
O O4 0.233009 0.973032 0.357345
O O5 0.801987 0.250000 0.971835
O O6 0.902901 0.001791 0.933311
O O7 0.674461 0.002506 0.948433
O O8 0.793356 0.008754 0.038144
O O9 0.461226 0.250000 0.627073
O O10 0.319475 0.025967 0.664653
O O11 0.804932 0.250000 0.570207
O O12 0.935971 0.997109 0.570436
O O13 0.782171 0.250000 0.312934
O O14 0.904424 0.005645 0.349261
O O15 0.936340 0.750000 0.409903
#
# Coordination Sequence:
#
# PCOD9466555 Si02
#       6
#     8   8   8   8   8   8
#     4  11  25  41  58  85 120 158 199 242 292 351
#     4   9  19  38  61  86 118 154 192 242 297 348
#     4  10  22  41  64  87 115 153 197 242 294 350
#     4  11  23  37  58  90 121 155 199 243 293 348
#     4  10  22  39  61  87 117 153 195 241 294 350
#     4   9  20  38  60  89 120 154 198 242 291 347
#
# _framework density 21.04101
#
# number of rings (size 3 to 8) (size 9 to 14) (size 15 to 20)
#    0.000    2.000    0.000    3.500    2.333    8.000 
#    0.000    0.000    0.000    0.000    0.000    0.000 
#    0.000    0.000    0.000    0.000    0.000    0.000 
#
# Total GULP energy -268172.588234 kJ/mol
# GULP energy per Si atom -5586.928922 kJ/mol
# Density = 2.099312 g / cm^3
# Si number density = 21.041010 Si / 1000 Ang^3
#
#
#
# Elastic Constant Matrix: (Units=GPa)
#
#
# Indices 1 2 3 4 5 6 
#
# 1 36.9327 -15.2546 -19.8871 0.0000 0.0000 0.0000
# 2 -15.2546 3.3878 -8.4939 0.0000 0.0000 0.0000
# 3 -19.8871 -8.4939 79.7276 0.0000 0.0000 0.0000
# 4 0.0000 0.0000 0.0000 22.3906 0.0000 0.0000
# 5 0.0000 0.0000 0.0000 0.0000 15.7934 0.0000
# 6 0.0000 0.0000 0.0000 0.0000 0.0000 23.2671
#
#
#
# Elastic Compliance Matrix: (Units=1/GPa)
#
#
# Indices 1 2 3 4 5 6 
#
# 1 -0.011161 -0.078100 -0.011105 0.000000 0.000000 0.000000
# 2 -0.078100 -0.143727 -0.034793 0.000000 0.000000 0.000000
# 3 -0.011105 -0.034793 0.006066 0.000000 0.000000 0.000000
# 4 0.000000 0.000000 0.000000 0.044662 0.000000 0.000000
# 5 0.000000 0.000000 0.000000 0.000000 0.063318 0.000000
# 6 0.000000 0.000000 0.000000 0.000000 0.000000 0.042979
#
#
# Mechanical properties :
#
#
# Convention : Reuss Voigt Hill
#
# Bulk Modulus (GPa) = -2.52005 3.64186 0.56091
# Shear Modulus (GPa) = 42.42364 23.20246 32.81305
#
# Velocity S-wave (km/s) = 4.49512 3.32433 3.95331
# Velocity P-wave (km/s) = 5.07358 4.05827 4.59406
#
# Compressibility (1/GPa) = -0.39681825
#
# Stress axis : x y z
#
# Youngs Moduli (GPa) = -89.59445 -6.95763 164.85295
#
# Poissons Ratio (x) = -0.54339 1.83063
# Poissons Ratio (y) = -6.99731 5.73579
# Poissons Ratio (z) = -0.99491 -0.24208
#
# Static dielectric constant tensor:
#      x y z
#    x 1.764150 0.000000 0.000000 
#    y 0.000000 1.721670 0.000000 
#    z 0.000000 0.000000 1.758920 
# 
# From -- ./inp_files/29248.got.cif
#   From: 2010.05.17/outbox.cif.g08.bks.cpg/sg62_15_cif.got.tgz:29248.got - 2010.06.03 15:25:27.
