data_PCOD9466729
_publ_section_title
;
Structure prediction by ZEFSAII (Michael W. Deem and Ramdas Pophale) SiO2 
 PCOD9466729
Probable space group: P N M A
;
_chemical_formula_sum "Si O2"
_cell_formula_units_Z 48
_cell_length_a 17.538634
_cell_length_b 9.774019
_cell_length_c 13.037659
_cell_angle_alpha 90.000000
_cell_angle_beta 90.000000
_cell_angle_gamma 90.000000
_cell_volume 2234.953862
_symmetry_space_group_name_H-M "P N M A"
_symmetry_group_IT_number 62
_symmetry_cell_setting 'orthorhombic'
loop_
_space_group_symop_operation_xyz
x,y,z
1/2-x,-y,1/2+z
1/2+x,1/2-y,1/2-z
-x,1/2+y,-z
-x,-y,-z
1/2+x,y,1/2-z
1/2-x,1/2+y,1/2+z
x,1/2-y,z
loop_
_atom_site_type_symbol
_atom_site_label
_atom_site_fract_x
_atom_site_fract_y
_atom_site_fract_z
Si Si1 0.664250 0.402271 0.086093
Si Si2 0.693870 0.088925 0.615866
Si Si3 0.804961 0.098708 0.308065
Si Si4 0.564003 0.474511 0.913059
Si Si5 0.132716 0.406545 0.098530
Si Si6 0.435815 0.090563 0.762486
O O1 0.672824 0.250000 0.128835
O O2 0.740132 0.489043 0.074903
O O3 0.615094 0.496902 0.161999
O O4 0.624043 0.387123 0.976857
O O5 0.715069 0.250000 0.624063
O O6 0.632154 0.080957 0.524863
O O7 0.680021 0.022048 0.726629
O O8 0.804214 0.250000 0.260359
O O9 0.879296 0.096002 0.380984
O O10 0.721538 0.079221 0.361092
O O11 0.519318 0.419743 0.814088
O O12 0.500000 0.500000 0.000000
O O13 0.110199 0.250000 0.124623
O O14 0.079755 0.517144 0.154424
O O15 0.413390 0.250000 0.760827
#
# Coordination Sequence:
#
# PCOD9466729 Si02
#       6
#     8   8   8   8   8   8
#     4  11  21  36  61  93 130 169 213 264 324 390
#     4  11  23  40  63  94 131 168 216 272 325 386
#     4  11  23  42  68  98 134 174 221 273 330 391
#     4  10  24  42  65  98 134 172 216 270 331 390
#     4  10  22  41  64  93 130 174 221 272 329 395
#     4  11  23  39  61  93 131 171 217 271 330 390
#
# _framework density 21.476953000000002
#
# number of rings (size 3 to 8) (size 9 to 14) (size 15 to 20)
#    0.000    1.333    3.333    2.000    0.000    8.667 
#    0.000    0.833    0.000    0.000    0.000    0.000 
#    0.000    0.000    0.000    0.000    0.000    0.000 
#
# Total GULP energy -267293.585366 kJ/mol
# GULP energy per Si atom -5568.616362 kJ/mol
# Density = 2.142807 g / cm^3
# Si number density = 21.476953 Si / 1000 Ang^3
#
#
#
# Elastic Constant Matrix: (Units=GPa)
#
#
# Indices 1 2 3 4 5 6 
#
# 1 55.1466 22.5221 4.8793 0.0000 0.0000 0.0000
# 2 22.5221 166.1825 25.1437 0.0000 0.0000 0.0000
# 3 4.8793 25.1437 44.9636 0.0000 0.0000 0.0000
# 4 0.0000 0.0000 0.0000 34.3762 0.0000 0.0000
# 5 0.0000 0.0000 0.0000 0.0000 43.2346 0.0000
# 6 0.0000 0.0000 0.0000 0.0000 0.0000 1.8019
#
#
#
# Elastic Compliance Matrix: (Units=1/GPa)
#
#
# Indices 1 2 3 4 5 6 
#
# 1 0.019215 -0.002500 -0.000687 0.000000 0.000000 0.000000
# 2 -0.002500 0.006899 -0.003587 0.000000 0.000000 0.000000
# 3 -0.000687 -0.003587 0.024320 0.000000 0.000000 0.000000
# 4 0.000000 0.000000 0.000000 0.029090 0.000000 0.000000
# 5 0.000000 0.000000 0.000000 0.000000 0.023130 0.000000
# 6 0.000000 0.000000 0.000000 0.000000 0.000000 0.554971
#
#
# Mechanical properties :
#
#
# Convention : Reuss Voigt Hill
#
# Bulk Modulus (GPa) = 27.10983 41.26477 34.18730
# Shear Modulus (GPa) = 7.31563 30.13238 18.72400
#
# Velocity S-wave (km/s) = 1.84761 3.74974 2.95586
# Velocity P-wave (km/s) = 4.14749 6.16463 5.25378
#
# Compressibility (1/GPa) = 0.03688699
#
# Stress axis : x y z
#
# Youngs Moduli (GPa) = 52.04164 144.94879 41.11773
#
# Poissons Ratio (x) = 0.36241 0.02825
# Poissons Ratio (y) = 0.13012 0.14747
# Poissons Ratio (z) = 0.03576 0.51987
#
# Static dielectric constant tensor:
#      x y z
#    x 1.874160 0.000000 0.000000 
#    y 0.000000 1.732260 0.000000 
#    z 0.000000 0.000000 1.793680 
# 
# From -- ./inp_files/19608.got.cif
#   From: 2010.05.17/outbox.cif.g08.bks.cpg/sg62_10_cif.got.tgz:19608.got - 2010.06.03 15:25:27.
