data_PCOD9466415
_publ_section_title
;
Structure prediction by ZEFSAII (Michael W. Deem and Ramdas Pophale) SiO2 
 PCOD9466415
Probable space group: P N M A
;
_chemical_formula_sum "Si O2"
_cell_formula_units_Z 48
_cell_length_a 14.647123
_cell_length_b 26.534182
_cell_length_c 5.827650
_cell_angle_alpha 90.000000
_cell_angle_beta 90.000000
_cell_angle_gamma 90.000000
_cell_volume 2264.912836
_symmetry_space_group_name_H-M "P N M A"
_symmetry_group_IT_number 62
_symmetry_cell_setting 'orthorhombic'
loop_
_space_group_symop_operation_xyz
x,y,z
1/2-x,-y,1/2+z
1/2+x,1/2-y,1/2-z
-x,1/2+y,-z
-x,-y,-z
1/2+x,y,1/2-z
1/2-x,1/2+y,1/2+z
x,1/2-y,z
loop_
_atom_site_type_symbol
_atom_site_label
_atom_site_fract_x
_atom_site_fract_y
_atom_site_fract_z
Si Si1 0.547191 0.050202 0.086155
Si Si2 0.615167 0.109318 0.472254
Si Si3 0.242603 0.471786 0.567728
Si Si4 0.477300 0.144897 0.856758
Si Si5 0.361332 0.692762 0.917261
Si Si6 0.218879 0.629507 0.214642
O O1 0.583089 0.058275 0.344818
O O2 0.640820 0.052009 0.942875
O O3 0.482982 0.097590 0.031644
O O4 0.500000 0.000000 0.000000
O O5 0.534222 0.124807 0.640250
O O6 0.715276 0.108964 0.583970
O O7 0.625773 0.154406 0.290499
O O8 0.251525 0.498783 0.314976
O O9 0.306535 0.422130 0.579183
O O10 0.541395 0.188981 0.952462
O O11 0.373124 0.155326 0.800626
O O12 0.340612 0.750000 0.854202
O O13 0.281804 0.667985 0.072219
#
# Coordination Sequence:
#
# PCOD9466415 Si02
#       6
#     8   8   8   8   8   8
#     4  11  23  39  60  95 135 181 227 276 335 405
#     4  10  21  43  64  91 137 175 225 282 344 408
#     4  12  25  40  65 100 140 189 236 281 342 419
#     4  10  23  41  66  93 131 168 224 284 338 417
#     4  10  23  44  68  95 129 170 226 288 355 416
#     4  11  23  43  66  97 136 177 225 286 347 416
#
# _framework density 21.192868000000001
#
# number of rings (size 3 to 8) (size 9 to 14) (size 15 to 20)
#    0.000    1.333    5.000    2.000    2.333    6.667 
#    0.000    1.667    0.000    0.000    0.000    0.000 
#    0.000    0.000    0.000    0.000    0.000    0.000 
#
# Total GULP energy -267586.780000 kJ/mol
# GULP energy per Si atom -5574.724583 kJ/mol
# Density = 2.114463 g / cm^3
# Si number density = 21.192868 Si / 1000 Ang^3
#
#
#
# Elastic Constant Matrix: (Units=GPa)
#
#
# Indices 1 2 3 4 5 6 
#
# 1 87.0700 -26.6494 10.1341 0.0000 0.0000 0.0000
# 2 -26.6494 51.4327 -9.2563 0.0000 0.0000 0.0000
# 3 10.1341 -9.2563 64.1412 0.0000 0.0000 0.0000
# 4 0.0000 0.0000 0.0000 14.4668 0.0000 0.0000
# 5 0.0000 0.0000 0.0000 0.0000 15.9271 0.0000
# 6 0.0000 0.0000 0.0000 0.0000 0.0000 21.4578
#
#
#
# Elastic Compliance Matrix: (Units=1/GPa)
#
#
# Indices 1 2 3 4 5 6 
#
# 1 0.013735 0.006906 -0.001174 0.000000 0.000000 0.000000
# 2 0.006906 0.023433 0.002291 0.000000 0.000000 0.000000
# 3 -0.001174 0.002291 0.016107 0.000000 0.000000 0.000000
# 4 0.000000 0.000000 0.000000 0.069124 0.000000 0.000000
# 5 0.000000 0.000000 0.000000 0.000000 0.062786 0.000000
# 6 0.000000 0.000000 0.000000 0.000000 0.000000 0.046603
#
#
# Mechanical properties :
#
#
# Convention : Reuss Voigt Hill
#
# Bulk Modulus (GPa) = 14.42585 16.78900 15.60743
# Shear Modulus (GPa) = 20.93370 25.59804 23.26587
#
# Velocity S-wave (km/s) = 3.14629 3.47920 3.31693
# Velocity P-wave (km/s) = 4.47444 4.90703 4.69572
#
# Compressibility (1/GPa) = 0.06932001
#
# Stress axis : x y z
#
# Youngs Moduli (GPa) = 72.80579 42.67459 62.08647
#
# Poissons Ratio (x) = -0.29469 0.07286
# Poissons Ratio (y) = -0.50276 -0.14221
# Poissons Ratio (z) = 0.08544 -0.09775
#
# Static dielectric constant tensor:
#      x y z
#    x 1.761180 0.000000 0.000000 
#    y 0.000000 1.807860 0.000000 
#    z 0.000000 0.000000 1.890030 
# 
# From -- ./inp_files/1142.got.cif
#   From: 2010.05.17/outbox.cif.g08.bks.cpg/sg62_1_cif.got.tgz:1142.got - 2010.06.03 15:25:27.
