data_PCOD9466660
_publ_section_title
;
Structure prediction by ZEFSAII (Michael W. Deem and Ramdas Pophale) SiO2 
 PCOD9466660
Probable space group: P N M A
;
_chemical_formula_sum "Si O2"
_cell_formula_units_Z 36
_cell_length_a 11.115403
_cell_length_b 16.961022
_cell_length_c 7.758131
_cell_angle_alpha 90.000000
_cell_angle_beta 90.000000
_cell_angle_gamma 90.000000
_cell_volume 1462.629536
_symmetry_space_group_name_H-M "P N M A"
_symmetry_group_IT_number 62
_symmetry_cell_setting 'orthorhombic'
loop_
_space_group_symop_operation_xyz
x,y,z
1/2-x,-y,1/2+z
1/2+x,1/2-y,1/2-z
-x,1/2+y,-z
-x,-y,-z
1/2+x,y,1/2-z
1/2-x,1/2+y,1/2+z
x,1/2-y,z
loop_
_atom_site_type_symbol
_atom_site_label
_atom_site_fract_x
_atom_site_fract_y
_atom_site_fract_z
Si Si1 0.312068 0.407816 0.821872
Si Si2 0.382014 0.539504 0.578028
Si Si3 0.523967 0.616737 0.885935
Si Si4 0.445759 0.250000 0.674503
Si Si5 0.371823 0.750000 0.059299
Si Si6 0.360782 0.250000 0.322765
O O1 0.303854 0.469469 0.665112
O O2 0.367479 0.325994 0.744735
O O3 0.188725 0.412106 0.931476
O O4 0.407479 0.434122 0.970449
O O5 0.500000 0.500000 0.500000
O O6 0.438377 0.585551 0.737705
O O7 0.439218 0.673615 0.992355
O O8 0.624888 0.672721 0.794242
O O9 0.463093 0.250000 0.469025
O O10 0.583009 0.250000 0.744830
O O11 0.249727 0.750000 0.953520
#
# Coordination Sequence:
#
# PCOD9466660 Si02
#       6
#     8   8   8   4   4   4
#     4  11  25  45  67  98 138 179 229 286 346 415
#     4  12  25  42  67  97 133 178 224 280 344 411
#     4  10  22  40  64  95 131 173 224 279 339 404
#     4  10  24  42  66 100 134 178 234 288 347 411
#     4   9  21  39  62  90 128 173 219 278 333 396
#     4  11  21  39  66  98 134 179 227 278 342 405
#
# _framework density 24.613204
#
# number of rings (size 3 to 8) (size 9 to 14) (size 15 to 20)
#    0.000    1.333    0.000    5.333    0.000    8.889 
#    0.000    0.000    0.000    0.000    0.000    0.000 
#    0.000    0.000    0.000    0.000    0.000    0.000 
#
# Total GULP energy -200935.754011 kJ/mol
# GULP energy per Si atom -5581.548723 kJ/mol
# Density = 2.455718 g / cm^3
# Si number density = 24.613204 Si / 1000 Ang^3
#
#
#
# Elastic Constant Matrix: (Units=GPa)
#
#
# Indices 1 2 3 4 5 6 
#
# 1 42.6176 4.4947 -7.1424 0.0000 0.0000 0.0000
# 2 4.4947 71.0840 22.0632 0.0000 0.0000 0.0000
# 3 -7.1424 22.0632 95.1789 0.0000 0.0000 0.0000
# 4 0.0000 0.0000 0.0000 56.6434 0.0000 0.0000
# 5 0.0000 0.0000 0.0000 0.0000 40.6463 0.0000
# 6 0.0000 0.0000 0.0000 0.0000 0.0000 31.3024
#
#
#
# Elastic Compliance Matrix: (Units=1/GPa)
#
#
# Indices 1 2 3 4 5 6 
#
# 1 0.024092 -0.002246 0.002329 0.000000 0.000000 0.000000
# 2 -0.002246 0.015368 -0.003731 0.000000 0.000000 0.000000
# 3 0.002329 -0.003731 0.011546 0.000000 0.000000 0.000000
# 4 0.000000 0.000000 0.000000 0.017654 0.000000 0.000000
# 5 0.000000 0.000000 0.000000 0.000000 0.024602 0.000000
# 6 0.000000 0.000000 0.000000 0.000000 0.000000 0.031946
#
#
# Mechanical properties :
#
#
# Convention : Reuss Voigt Hill
#
# Bulk Modulus (GPa) = 22.87877 27.52351 25.20114
# Shear Modulus (GPa) = 33.99618 38.34943 36.17280
#
# Velocity S-wave (km/s) = 3.72050 3.95154 3.83776
# Velocity P-wave (km/s) = 5.26989 5.65917 5.46800
#
# Compressibility (1/GPa) = 0.04370864
#
# Stress axis : x y z
#
# Youngs Moduli (GPa) = 41.50826 65.07069 86.60907
#
# Poissons Ratio (x) = 0.14615 -0.20167
# Poissons Ratio (y) = 0.09323 0.32313
# Poissons Ratio (z) = -0.09665 0.24278
#
# Static dielectric constant tensor:
#      x y z
#    x 1.553620 0.000000 0.000000 
#    y 0.000000 1.970700 0.000000 
#    z 0.000000 0.000000 1.451290 
# 
# From -- ./inp_files/4220.got.cif
#   From: 2010.05.17/outbox.cif.g08.bks.cpg/sg62_3_cif.got.tgz:4220.got - 2010.06.03 15:25:27.
