data_PCOD9466833
_publ_section_title
;
Structure prediction by ZEFSAII (Michael W. Deem and Ramdas Pophale) SiO2 
 PCOD9466833
Probable space group: P N M A
;
_chemical_formula_sum "Si O2"
_cell_formula_units_Z 28
_cell_length_a 12.139928
_cell_length_b 7.494560
_cell_length_c 10.298502
_cell_angle_alpha 90.000000
_cell_angle_beta 90.000000
_cell_angle_gamma 90.000000
_cell_volume 936.992920
_symmetry_space_group_name_H-M "P N M A"
_symmetry_group_IT_number 62
_symmetry_cell_setting 'orthorhombic'
loop_
_space_group_symop_operation_xyz
x,y,z
1/2-x,-y,1/2+z
1/2+x,1/2-y,1/2-z
-x,1/2+y,-z
-x,-y,-z
1/2+x,y,1/2-z
1/2-x,1/2+y,1/2+z
x,1/2-y,z
loop_
_atom_site_type_symbol
_atom_site_label
_atom_site_fract_x
_atom_site_fract_y
_atom_site_fract_z
Si Si1 0.225594 0.250000 0.378323
Si Si2 0.334408 0.033623 0.675138
Si Si3 0.101380 0.446484 0.589389
Si Si4 0.075464 0.044560 0.900158
O O1 0.155915 0.411244 0.299589
O O2 0.326500 0.401850 0.400477
O O3 0.325314 0.250000 0.699623
O O4 0.220142 0.965517 0.607865
O O5 0.440209 0.003391 0.582200
O O6 0.141976 0.250000 0.527261
O O7 0.000000 0.500000 0.500000
O O8 0.062131 0.436040 0.736325
O O9 0.105785 0.250000 0.928955
#
# Coordination Sequence:
#
# PCOD9466833 Si02
#       4
#     4   8   8   8
#     4  10  22  42  72  90 128 198 200 266 376 372
#     4   9  18  39  62  98 125 166 235 268 330 419
#     4  10  24  43  65 100 139 177 222 284 336 407
#     4   8  16  30  62  87 130 149 211 304 314 365
#
# _framework density 29.882830999999999
#
# number of rings (size 3 to 8) (size 9 to 14) (size 15 to 20)
#    2.571    0.000    1.429    0.857    2.000    0.000 
#   20.571    2.857    0.000    0.000    0.000    0.000 
#    0.000    0.000    0.000    0.000    0.000    0.000 
#
# Total GULP energy -156164.024530 kJ/mol
# GULP energy per Si atom -5577.286590 kJ/mol
# Density = 2.981482 g / cm^3
# Si number density = 29.882831 Si / 1000 Ang^3
#
#
#
# Elastic Constant Matrix: (Units=GPa)
#
#
# Indices 1 2 3 4 5 6 
#
# 1 260.5846 122.2571 125.4627 0.0000 0.0000 0.0000
# 2 122.2571 282.8349 112.3936 0.0000 0.0000 0.0000
# 3 125.4627 112.3936 266.1373 0.0000 0.0000 0.0000
# 4 0.0000 0.0000 0.0000 73.2005 0.0000 0.0000
# 5 0.0000 0.0000 0.0000 0.0000 110.9895 0.0000
# 6 0.0000 0.0000 0.0000 0.0000 0.0000 57.1244
#
#
#
# Elastic Compliance Matrix: (Units=1/GPa)
#
#
# Indices 1 2 3 4 5 6 
#
# 1 0.005523 -0.001626 -0.001917 0.000000 0.000000 0.000000
# 2 -0.001626 0.004727 -0.001230 0.000000 0.000000 0.000000
# 3 -0.001917 -0.001230 0.005181 0.000000 0.000000 0.000000
# 4 0.000000 0.000000 0.000000 0.013661 0.000000 0.000000
# 5 0.000000 0.000000 0.000000 0.000000 0.009010 0.000000
# 6 0.000000 0.000000 0.000000 0.000000 0.000000 0.017506
#
#
# Mechanical properties :
#
#
# Convention : Reuss Voigt Hill
#
# Bulk Modulus (GPa) = 169.91153 169.97598 169.94375
# Shear Modulus (GPa) = 74.49868 78.22575 76.36221
#
# Velocity S-wave (km/s) = 4.99844 5.12194 5.06057
# Velocity P-wave (km/s) = 9.50238 9.59080 9.54669
#
# Compressibility (1/GPa) = 0.00588542
#
# Stress axis : x y z
#
# Youngs Moduli (GPa) = 181.05097 211.54753 193.02234
#
# Poissons Ratio (x) = 0.34389 0.37008
# Poissons Ratio (y) = 0.29431 0.23741
# Poissons Ratio (z) = 0.34713 0.26020
#
# Static dielectric constant tensor:
#      x y z
#    x 2.271860 0.000000 0.000000 
#    y 0.000000 2.696860 0.000000 
#    z 0.000000 0.000000 2.695850 
# 
# From -- ./inp_files/12696.got.cif
#   From: 2010.05.17/outbox.cif.g08.bks.cpg/sg62_7_cif.got.tgz:12696.got - 2010.06.03 15:25:27.
