data_PCOD9466134
_publ_section_title
;
Structure prediction by ZEFSAII (Michael W. Deem and Ramdas Pophale) SiO2 
 PCOD9466134
Probable space group: P N M A
;
_chemical_formula_sum "Si O2"
_cell_formula_units_Z 64
_cell_length_a 15.887688
_cell_length_b 8.487320
_cell_length_c 24.407878
_cell_angle_alpha 90.000000
_cell_angle_beta 90.000000
_cell_angle_gamma 90.000000
_cell_volume 3291.253268
_symmetry_space_group_name_H-M "P N M A"
_symmetry_group_IT_number 62
_symmetry_cell_setting 'orthorhombic'
loop_
_space_group_symop_operation_xyz
x,y,z
1/2-x,-y,1/2+z
1/2+x,1/2-y,1/2-z
-x,1/2+y,-z
-x,-y,-z
1/2+x,y,1/2-z
1/2-x,1/2+y,1/2+z
x,1/2-y,z
loop_
_atom_site_type_symbol
_atom_site_label
_atom_site_fract_x
_atom_site_fract_y
_atom_site_fract_z
Si Si1 0.999236 0.940355 0.938277
Si Si2 0.588422 0.436596 0.750217
Si Si3 0.843721 0.061743 0.136884
Si Si4 0.162058 0.563579 0.369314
Si Si5 0.846018 0.440757 0.364518
Si Si6 0.004404 0.060868 0.438283
Si Si7 0.899397 0.562078 0.746410
Si Si8 0.841021 0.558328 0.866582
O O1 0.997640 0.750000 0.938807
O O2 0.082555 0.988231 0.904758
O O3 0.916406 0.996648 0.905496
O O4 0.000000 0.000000 0.000000
O O5 0.574435 0.250000 0.751726
O O6 0.638081 0.483693 0.695587
O O7 0.636811 0.491190 0.804455
O O8 0.498290 0.523365 0.750059
O O9 0.848510 0.250000 0.143671
O O10 0.751430 0.014217 0.116963
O O11 0.168783 0.750000 0.375092
O O12 0.086646 0.501373 0.407112
O O13 0.139110 0.520045 0.306697
O O14 0.847826 0.250000 0.360782
O O15 0.752836 0.488738 0.383708
O O16 0.921373 0.490186 0.404515
O O17 0.006415 0.250000 0.438107
O O18 0.000000 0.000000 0.500000
O O19 0.888080 0.750000 0.740280
O O20 0.858295 0.510709 0.803779
O O21 0.844129 0.750000 0.866891
#
# Coordination Sequence:
#
# PCOD9466134 Si02
#       8
#     8   8   8   8   8   8   8   8
#     4  10  22  41  63  89 121 160 206 256 308 362
#     4  12  23  36  60  94 130 162 201 257 313 367
#     4  11  23  42  65  90 125 168 211 253 308 382
#     4  12  25  41  63  95 129 161 206 264 317 372
#     4  10  21  39  65  91 120 163 208 250 309 377
#     4  11  24  42  64  90 124 168 215 261 314 370
#     4  11  20  37  64  91 124 166 204 246 309 381
#     4   9  19  38  63  90 118 155 203 248 297 368
#
# _framework density 19.445481000000001
#
# number of rings (size 3 to 8) (size 9 to 14) (size 15 to 20)
#    0.000    1.250    2.500    4.125    0.000    3.500 
#    0.000    2.500    0.000    0.000    0.000    0.000 
#    0.000    0.000    0.000    0.000    0.000    0.000 
#
# Total GULP energy -357895.401846 kJ/mol
# GULP energy per Si atom -5592.115654 kJ/mol
# Density = 1.940122 g / cm^3
# Si number density = 19.445481 Si / 1000 Ang^3
#
#
#
# Elastic Constant Matrix: (Units=GPa)
#
#
# Indices 1 2 3 4 5 6 
#
# 1 159.3823 4.5935 75.4303 0.0000 0.0000 0.0000
# 2 4.5935 27.9603 18.0751 0.0000 0.0000 0.0000
# 3 75.4303 18.0751 152.9815 0.0000 0.0000 0.0000
# 4 0.0000 0.0000 0.0000 32.9723 0.0000 0.0000
# 5 0.0000 0.0000 0.0000 0.0000 -0.8763 0.0000
# 6 0.0000 0.0000 0.0000 0.0000 0.0000 15.2419
#
#
#
# Elastic Compliance Matrix: (Units=1/GPa)
#
#
# Indices 1 2 3 4 5 6 
#
# 1 0.008233 0.001377 -0.004222 0.000000 0.000000 0.000000
# 2 0.001377 0.038953 -0.005281 0.000000 0.000000 0.000000
# 3 -0.004222 -0.005281 0.009242 0.000000 0.000000 0.000000
# 4 0.000000 0.000000 0.000000 0.030329 0.000000 0.000000
# 5 0.000000 0.000000 0.000000 0.000000 -1.141201 0.000000
# 6 0.000000 0.000000 0.000000 0.000000 0.000000 0.065608
#
#
# Mechanical properties :
#
#
# Convention : Reuss Voigt Hill
#
# Bulk Modulus (GPa) = 24.89098 59.61356 42.25227
# Shear Modulus (GPa) = -5.21272 25.61593 10.20161
#
# Velocity S-wave (km/s) = -1.63906 3.63343 2.29296
# Velocity P-wave (km/s) = 3.04075 6.95167 5.36525
#
# Compressibility (1/GPa) = 0.04017520
#
# Stress axis : x y z
#
# Youngs Moduli (GPa) = 121.46782 25.67205 108.19681
#
# Poissons Ratio (x) = -0.03534 0.45680
# Poissons Ratio (y) = -0.16723 0.57141
# Poissons Ratio (z) = 0.51283 0.13558
#
# Static dielectric constant tensor:
#      x y z
#    x 1.682780 0.000000 0.000000 
#    y 0.000000 1.660490 0.000000 
#    z 0.000000 0.000000 1.640750 
# 
# From -- ./inp_files/29846.got.cif
#   From: 2010.05.17/outbox.cif.g08.bks.cpg/sg62_15_cif.got.tgz:29846.got - 2010.06.03 15:25:27.
