data_PCOD9466029
_publ_section_title
;
Structure prediction by ZEFSAII (Michael W. Deem and Ramdas Pophale) SiO2 
 PCOD9466029
Probable space group: P N M A
;
_chemical_formula_sum "Si O2"
_cell_formula_units_Z 48
_cell_length_a 18.860326
_cell_length_b 21.382613
_cell_length_c 5.347621
_cell_angle_alpha 90.000000
_cell_angle_beta 90.000000
_cell_angle_gamma 90.000000
_cell_volume 2156.604917
_symmetry_space_group_name_H-M "P N M A"
_symmetry_group_IT_number 62
_symmetry_cell_setting 'orthorhombic'
loop_
_space_group_symop_operation_xyz
x,y,z
1/2-x,-y,1/2+z
1/2+x,1/2-y,1/2-z
-x,1/2+y,-z
-x,-y,-z
1/2+x,y,1/2-z
1/2-x,1/2+y,1/2+z
x,1/2-y,z
loop_
_atom_site_type_symbol
_atom_site_label
_atom_site_fract_x
_atom_site_fract_y
_atom_site_fract_z
Si Si1 0.618411 0.321254 0.536334
Si Si2 0.540303 0.677700 0.338808
Si Si3 0.909203 0.938339 0.674560
Si Si4 0.163797 0.971421 0.967273
Si Si5 0.435446 0.102961 0.144060
Si Si6 0.286833 0.588002 0.218947
O O1 0.624512 0.250000 0.444586
O O2 0.545767 0.324026 0.698461
O O3 0.605933 0.374930 0.332380
O O4 0.688611 0.345376 0.676837
O O5 0.561113 0.750000 0.348570
O O6 0.555067 0.645403 0.605745
O O7 0.575524 0.643083 0.104711
O O8 0.852641 0.932695 0.454664
O O9 0.991044 0.933817 0.603972
O O10 0.894213 0.999277 0.844809
O O11 0.126132 0.944045 0.723709
O O12 0.213634 0.032041 0.922015
O O13 0.213189 0.917458 0.078218
#
# Coordination Sequence:
#
# PCOD9466029 Si02
#       6
#     8   8   8   8   8   8
#     4   9  20  38  62  89 117 155 206 255 298 367
#     4  10  21  40  64  91 123 162 207 259 317 366
#     4  10  21  39  59  91 121 160 204 250 311 369
#     4  11  24  37  61  87 127 163 202 256 314 372
#     4  11  23  39  64  95 122 163 212 262 308 370
#     4  11  21  39  61  86 121 163 203 248 315 370
#
# _framework density 22.257206
#
# number of rings (size 3 to 8) (size 9 to 14) (size 15 to 20)
#    0.000    1.667    3.333    1.000    2.333    2.000 
#    0.000    1.667    0.000    0.000    0.000    0.000 
#    0.000    0.000    0.000    0.000    0.000    0.000 
#
# Total GULP energy -268215.539874 kJ/mol
# GULP energy per Si atom -5587.823747 kJ/mol
# Density = 2.220655 g / cm^3
# Si number density = 22.257206 Si / 1000 Ang^3
#
#
#
# Elastic Constant Matrix: (Units=GPa)
#
#
# Indices 1 2 3 4 5 6 
#
# 1 68.6395 31.5036 6.7481 0.0000 0.0000 0.0000
# 2 31.5036 135.8733 38.5125 0.0000 0.0000 0.0000
# 3 6.7481 38.5125 73.7027 0.0000 0.0000 0.0000
# 4 0.0000 0.0000 0.0000 25.9690 0.0000 0.0000
# 5 0.0000 0.0000 0.0000 0.0000 28.2842 0.0000
# 6 0.0000 0.0000 0.0000 0.0000 0.0000 26.5466
#
#
#
# Elastic Compliance Matrix: (Units=1/GPa)
#
#
# Indices 1 2 3 4 5 6 
#
# 1 0.016324 -0.003946 0.000567 0.000000 0.000000 0.000000
# 2 -0.003946 0.009593 -0.004651 0.000000 0.000000 0.000000
# 3 0.000567 -0.004651 0.015947 0.000000 0.000000 0.000000
# 4 0.000000 0.000000 0.000000 0.038507 0.000000 0.000000
# 5 0.000000 0.000000 0.000000 0.000000 0.035355 0.000000
# 6 0.000000 0.000000 0.000000 0.000000 0.000000 0.037670
#
#
# Mechanical properties :
#
#
# Convention : Reuss Voigt Hill
#
# Bulk Modulus (GPa) = 38.75392 47.97153 43.36273
# Shear Modulus (GPa) = 28.08080 29.59005 28.83543
#
# Velocity S-wave (km/s) = 3.55582 3.65013 3.60329
# Velocity P-wave (km/s) = 5.85732 6.27413 6.06930
#
# Compressibility (1/GPa) = 0.02580384
#
# Stress axis : x y z
#
# Youngs Moduli (GPa) = 61.25924 104.24179 62.70893
#
# Poissons Ratio (x) = 0.41130 -0.03557
# Poissons Ratio (y) = 0.24171 0.29169
# Poissons Ratio (z) = -0.03474 0.48488
#
# Static dielectric constant tensor:
#      x y z
#    x 1.823970 0.000000 0.000000 
#    y 0.000000 1.819320 0.000000 
#    z 0.000000 0.000000 1.887570 
# 
# From -- ./inp_files/2190.got.cif
#   From: 2010.05.17/outbox.cif.g08.bks.cpg/sg62_2_cif.got.tgz:2190.got - 2010.06.03 15:25:27.
