data_PCOD9466856
_publ_section_title
;
Structure prediction by ZEFSAII (Michael W. Deem and Ramdas Pophale) SiO2 
 PCOD9466856
Probable space group: P N M A
;
_chemical_formula_sum "Si O2"
_cell_formula_units_Z 48
_cell_length_a 8.295232
_cell_length_b 17.168642
_cell_length_c 14.457646
_cell_angle_alpha 90.000000
_cell_angle_beta 90.000000
_cell_angle_gamma 90.000000
_cell_volume 2059.027127
_symmetry_space_group_name_H-M "P N M A"
_symmetry_group_IT_number 62
_symmetry_cell_setting 'orthorhombic'
loop_
_space_group_symop_operation_xyz
x,y,z
1/2-x,-y,1/2+z
1/2+x,1/2-y,1/2-z
-x,1/2+y,-z
-x,-y,-z
1/2+x,y,1/2-z
1/2-x,1/2+y,1/2+z
x,1/2-y,z
loop_
_atom_site_type_symbol
_atom_site_label
_atom_site_fract_x
_atom_site_fract_y
_atom_site_fract_z
Si Si1 0.676425 0.343298 0.449845
Si Si2 0.164350 0.908180 0.725670
Si Si3 0.475981 0.158185 0.621093
Si Si4 0.499571 0.088826 0.963727
Si Si5 0.170014 0.411983 0.722574
Si Si6 0.353912 0.840190 0.874436
O O1 0.673720 0.250000 0.435296
O O2 0.701838 0.385828 0.352074
O O3 0.530762 0.365579 0.517911
O O4 0.837391 0.367753 0.506120
O O5 0.194817 0.856958 0.816253
O O6 0.995894 0.888021 0.676891
O O7 0.178770 0.998060 0.751632
O O8 0.440194 0.250000 0.619429
O O9 0.624513 0.141379 0.691139
O O10 0.329765 0.112296 0.667687
O O11 0.530732 0.092345 0.855482
O O12 0.641745 0.131653 0.020522
O O13 0.500000 0.000000 0.000000
O O14 0.395277 0.750000 0.870356
#
# Coordination Sequence:
#
# PCOD9466856 Si02
#       6
#     8   8   8   8   8   8
#     4  10  22  43  66  90 129 171 212 265 324 380
#     4  11  23  40  64  94 126 165 210 262 322 379
#     4  11  26  42  65  96 130 173 218 266 324 383
#     4  11  22  41  63  95 125 166 212 260 316 379
#     4  12  24  41  67  94 130 168 216 271 318 384
#     4  11  23  40  64  93 128 167 209 258 319 384
#
# _framework density 23.311980999999999
#
# number of rings (size 3 to 8) (size 9 to 14) (size 15 to 20)
#    0.000    1.000    3.333    5.500    2.333    6.000 
#    0.000    1.667    0.000    0.000    0.000    0.000 
#    0.000    0.000    0.000    0.000    0.000    0.000 
#
# Total GULP energy -268719.810368 kJ/mol
# GULP energy per Si atom -5598.329383 kJ/mol
# Density = 2.325892 g / cm^3
# Si number density = 23.311981 Si / 1000 Ang^3
#
#
#
# Elastic Constant Matrix: (Units=GPa)
#
#
# Indices 1 2 3 4 5 6 
#
# 1 48.9534 -10.2804 -5.7559 0.0000 0.0000 0.0000
# 2 -10.2804 61.0487 -1.8270 0.0000 0.0000 0.0000
# 3 -5.7559 -1.8270 80.7739 0.0000 0.0000 0.0000
# 4 0.0000 0.0000 0.0000 23.7588 0.0000 0.0000
# 5 0.0000 0.0000 0.0000 0.0000 39.6358 0.0000
# 6 0.0000 0.0000 0.0000 0.0000 0.0000 22.8306
#
#
#
# Elastic Compliance Matrix: (Units=1/GPa)
#
#
# Indices 1 2 3 4 5 6 
#
# 1 0.021383 0.003649 0.001606 0.000000 0.000000 0.000000
# 2 0.003649 0.017014 0.000645 0.000000 0.000000 0.000000
# 3 0.001606 0.000645 0.012509 0.000000 0.000000 0.000000
# 4 0.000000 0.000000 0.000000 0.042090 0.000000 0.000000
# 5 0.000000 0.000000 0.000000 0.000000 0.025230 0.000000
# 6 0.000000 0.000000 0.000000 0.000000 0.000000 0.043801
#
#
# Mechanical properties :
#
#
# Convention : Reuss Voigt Hill
#
# Bulk Modulus (GPa) = 15.94743 17.22771 16.58757
# Shear Modulus (GPa) = 29.21782 31.15433 30.18607
#
# Velocity S-wave (km/s) = 3.54409 3.65966 3.60234
# Velocity P-wave (km/s) = 4.85831 5.02629 4.94301
#
# Compressibility (1/GPa) = 0.06270604
#
# Stress axis : x y z
#
# Youngs Moduli (GPa) = 46.76673 58.77476 79.94058
#
# Poissons Ratio (x) = -0.21446 -0.12841
# Poissons Ratio (y) = -0.17064 -0.05155
# Poissons Ratio (z) = -0.07512 -0.03790
#
# Static dielectric constant tensor:
#      x y z
#    x 1.972350 0.000000 0.000000 
#    y 0.000000 1.791380 0.000000 
#    z 0.000000 0.000000 1.865070 
# 
# From -- ./inp_files/16952.got.cif
#   From: 2010.05.17/outbox.cif.g08.bks.cpg/sg62_9_cif.got.tgz:16952.got - 2010.06.03 15:25:27.
