data_PCOD9466823
_publ_section_title
;
Structure prediction by ZEFSAII (Michael W. Deem and Ramdas Pophale) SiO2 
 PCOD9466823
Probable space group: P N M A
;
_chemical_formula_sum "Si O2"
_cell_formula_units_Z 48
_cell_length_a 9.495512
_cell_length_b 9.991764
_cell_length_c 18.783423
_cell_angle_alpha 90.000000
_cell_angle_beta 90.000000
_cell_angle_gamma 90.000000
_cell_volume 1782.113227
_symmetry_space_group_name_H-M "P N M A"
_symmetry_group_IT_number 62
_symmetry_cell_setting 'orthorhombic'
loop_
_space_group_symop_operation_xyz
x,y,z
1/2-x,-y,1/2+z
1/2+x,1/2-y,1/2-z
-x,1/2+y,-z
-x,-y,-z
1/2+x,y,1/2-z
1/2-x,1/2+y,1/2+z
x,1/2-y,z
loop_
_atom_site_type_symbol
_atom_site_label
_atom_site_fract_x
_atom_site_fract_y
_atom_site_fract_z
Si Si1 0.190338 0.594216 0.525499
Si Si2 0.209995 0.107274 0.402097
Si Si3 0.274294 0.602905 0.734975
Si Si4 0.408163 0.596793 0.151242
Si Si5 0.016894 0.250000 0.848246
Si Si6 0.970355 0.543930 0.895204
Si Si7 0.842068 0.250000 0.704472
O O1 0.151671 0.750000 0.519999
O O2 0.167060 0.512085 0.453981
O O3 0.354569 0.586057 0.547705
O O4 0.118391 0.508180 0.588468
O O5 0.154573 0.250000 0.429857
O O6 0.186130 0.106710 0.317324
O O7 0.379289 0.106230 0.406997
O O8 0.068273 0.872151 0.328423
O O9 0.209339 0.750000 0.717859
O O10 0.405329 0.586004 0.681404
O O11 0.172661 0.478063 0.716100
O O12 0.354695 0.750000 0.135952
O O13 0.991455 0.384481 0.891787
O O14 0.902679 0.250000 0.784573
O O15 0.178629 0.250000 0.817448
#
# Coordination Sequence:
#
# PCOD9466823 Si02
#       7
#     8   8   8   8   4   8   4
#     4  11  24  43  75 118 163 216 274 338 412 488
#     4  11  24  42  71 114 165 213 278 340 407 489
#     4  10  22  42  69 113 163 214 266 337 411 483
#     4   9  20  41  73 106 161 203 270 323 403 482
#     4  12  28  42  78 124 164 208 264 333 405 475
#     4  11  25  41  72 108 163 210 273 331 409 480
#     4  10  26  44  72 124 166 204 270 333 399 483
#
# _framework density 26.934315000000002
#
# number of rings (size 3 to 8) (size 9 to 14) (size 15 to 20)
#    0.500    1.000    0.000    5.000   14.000    0.667 
#    0.000    0.000    0.000    6.000    4.333    0.000 
#    0.000    0.000    0.000    0.000    0.000    0.000 
#
# Total GULP energy -269030.179282 kJ/mol
# GULP energy per Si atom -5604.795402 kJ/mol
# Density = 2.687301 g / cm^3
# Si number density = 26.934315 Si / 1000 Ang^3
#
#
#
# Elastic Constant Matrix: (Units=GPa)
#
#
# Indices 1 2 3 4 5 6 
#
# 1 101.7613 42.9068 15.7330 0.0000 0.0000 0.0000
# 2 42.9068 311.4915 82.0321 0.0000 0.0000 0.0000
# 3 15.7330 82.0321 145.3035 0.0000 0.0000 0.0000
# 4 0.0000 0.0000 0.0000 65.3422 0.0000 0.0000
# 5 0.0000 0.0000 0.0000 0.0000 24.8491 0.0000
# 6 0.0000 0.0000 0.0000 0.0000 0.0000 18.3059
#
#
#
# Elastic Compliance Matrix: (Units=1/GPa)
#
#
# Indices 1 2 3 4 5 6 
#
# 1 0.010450 -0.001341 -0.000375 0.000000 0.000000 0.000000
# 2 -0.001341 0.003943 -0.002081 0.000000 0.000000 0.000000
# 3 -0.000375 -0.002081 0.008097 0.000000 0.000000 0.000000
# 4 0.000000 0.000000 0.000000 0.015304 0.000000 0.000000
# 5 0.000000 0.000000 0.000000 0.000000 0.040243 0.000000
# 6 0.000000 0.000000 0.000000 0.000000 0.000000 0.054627
#
#
# Mechanical properties :
#
#
# Convention : Reuss Voigt Hill
#
# Bulk Modulus (GPa) = 67.12231 93.32225 80.22228
# Shear Modulus (GPa) = 34.42965 49.55838 41.99402
#
# Velocity S-wave (km/s) = 3.57919 4.29414 3.95286
# Velocity P-wave (km/s) = 6.48503 7.70127 7.11917
#
# Compressibility (1/GPa) = 0.01489818
#
# Stress axis : x y z
#
# Youngs Moduli (GPa) = 95.69216 253.60962 123.49511
#
# Poissons Ratio (x) = 0.34005 0.04625
# Poissons Ratio (y) = 0.12831 0.25698
# Poissons Ratio (z) = 0.03584 0.52774
#
# Static dielectric constant tensor:
#      x y z
#    x 2.126570 0.000000 0.000000 
#    y 0.000000 2.146570 0.000000 
#    z 0.000000 0.000000 2.120800 
# 
# From -- ./inp_files/29287.got.cif
#   From: 2010.05.17/outbox.cif.g08.bks.cpg/sg62_15_cif.got.tgz:29287.got - 2010.06.03 15:25:27.
