data_PCOD9466944
_publ_section_title
;
Structure prediction by ZEFSAII (Michael W. Deem and Ramdas Pophale) SiO2 
 PCOD9466944
Probable space group: P N M A
;
_chemical_formula_sum "Si O2"
_cell_formula_units_Z 24
_cell_length_a 4.826344
_cell_length_b 20.160707
_cell_length_c 11.328209
_cell_angle_alpha 90.000000
_cell_angle_beta 90.000000
_cell_angle_gamma 90.000000
_cell_volume 1102.263139
_symmetry_space_group_name_H-M "P N M A"
_symmetry_group_IT_number 62
_symmetry_cell_setting 'orthorhombic'
loop_
_space_group_symop_operation_xyz
x,y,z
1/2-x,-y,1/2+z
1/2+x,1/2-y,1/2-z
-x,1/2+y,-z
-x,-y,-z
1/2+x,y,1/2-z
1/2-x,1/2+y,1/2+z
x,1/2-y,z
loop_
_atom_site_type_symbol
_atom_site_label
_atom_site_fract_x
_atom_site_fract_y
_atom_site_fract_z
Si Si1 0.793474 0.558674 0.454094
Si Si2 0.921615 0.943045 0.825615
Si Si3 0.599392 0.824871 0.170338
O O1 0.573926 0.578591 0.555035
O O2 0.620847 0.522202 0.349495
O O3 0.982549 0.618795 0.413480
O O4 0.000000 0.500000 0.500000
O O5 0.619380 0.923041 0.782445
O O6 0.916819 0.830758 0.209550
O O7 0.553161 0.750000 0.124854
#
# Coordination Sequence:
#
# PCOD9466944 Si02
#       3
#     8   8   8
#     4  11  23  35  61  89 118 160 195 251 296 351
#     4  11  22  35  52  86 117 147 187 241 294 345
#     4  10  23  40  61  88 121 156 194 246 302 360
#
# _framework density 21.773384
#
# number of rings (size 3 to 8) (size 9 to 14) (size 15 to 20)
#    0.000    1.333    3.333    2.000    9.333    0.000 
#    0.000    0.000    0.000    2.000    0.000    0.000 
#    0.000    0.000    0.000    0.000    0.000    0.000 
#
# Total GULP energy -133981.489158 kJ/mol
# GULP energy per Si atom -5582.562048 kJ/mol
# Density = 2.172383 g / cm^3
# Si number density = 21.773384 Si / 1000 Ang^3
#
#
#
# Elastic Constant Matrix: (Units=GPa)
#
#
# Indices 1 2 3 4 5 6 
#
# 1 97.4832 3.1927 16.1891 0.0000 0.0000 0.0000
# 2 3.1927 105.8251 15.8284 0.0000 0.0000 0.0000
# 3 16.1891 15.8284 44.3863 0.0000 0.0000 0.0000
# 4 0.0000 0.0000 0.0000 37.3532 0.0000 0.0000
# 5 0.0000 0.0000 0.0000 0.0000 35.6246 0.0000
# 6 0.0000 0.0000 0.0000 0.0000 0.0000 26.0723
#
#
#
# Elastic Compliance Matrix: (Units=1/GPa)
#
#
# Indices 1 2 3 4 5 6 
#
# 1 0.010928 0.000281 -0.004086 0.000000 0.000000 0.000000
# 2 0.000281 0.009989 -0.003665 0.000000 0.000000 0.000000
# 3 -0.004086 -0.003665 0.025327 0.000000 0.000000 0.000000
# 4 0.000000 0.000000 0.000000 0.026771 0.000000 0.000000
# 5 0.000000 0.000000 0.000000 0.000000 0.028071 0.000000
# 6 0.000000 0.000000 0.000000 0.000000 0.000000 0.038355
#
#
# Mechanical properties :
#
#
# Convention : Reuss Voigt Hill
#
# Bulk Modulus (GPa) = 31.94414 35.34609 33.64512
# Shear Modulus (GPa) = 30.33724 33.97564 32.15644
#
# Velocity S-wave (km/s) = 3.73677 3.95450 3.84717
# Velocity P-wave (km/s) = 5.77243 6.09259 5.93467
#
# Compressibility (1/GPa) = 0.03130465
#
# Stress axis : x y z
#
# Youngs Moduli (GPa) = 91.51203 100.10791 39.48406
#
# Poissons Ratio (x) = -0.02818 0.16133
# Poissons Ratio (y) = -0.02576 0.14470
# Poissons Ratio (z) = 0.37392 0.36688
#
# Static dielectric constant tensor:
#      x y z
#    x 1.830510 0.000000 0.000000 
#    y 0.000000 1.790700 0.000000 
#    z 0.000000 0.000000 1.891340 
# 
# From -- ./inp_files/10599.got.cif
#   From: 2010.05.17/outbox.cif.g08.bks.cpg/sg62_6_cif.got.tgz:10599.got - 2010.06.03 15:25:27.
