data_PCOD9466517
_publ_section_title
;
Structure prediction by ZEFSAII (Michael W. Deem and Ramdas Pophale) SiO2 
 PCOD9466517
Probable space group: P N M A
;
_chemical_formula_sum "Si O2"
_cell_formula_units_Z 64
_cell_length_a 29.061463
_cell_length_b 17.341802
_cell_length_c 6.892206
_cell_angle_alpha 90.000000
_cell_angle_beta 90.000000
_cell_angle_gamma 90.000000
_cell_volume 3473.521141
_symmetry_space_group_name_H-M "P N M A"
_symmetry_group_IT_number 62
_symmetry_cell_setting 'orthorhombic'
loop_
_space_group_symop_operation_xyz
x,y,z
1/2-x,-y,1/2+z
1/2+x,1/2-y,1/2-z
-x,1/2+y,-z
-x,-y,-z
1/2+x,y,1/2-z
1/2-x,1/2+y,1/2+z
x,1/2-y,z
loop_
_atom_site_type_symbol
_atom_site_label
_atom_site_fract_x
_atom_site_fract_y
_atom_site_fract_z
Si Si1 0.834809 0.657456 0.180588
Si Si2 0.907522 0.070479 0.797227
Si Si3 0.958250 0.046567 0.402253
Si Si4 0.299913 0.413449 0.738117
Si Si5 0.981082 0.157564 0.060933
Si Si6 0.073331 0.070581 0.927856
Si Si7 0.739071 0.074452 0.407419
Si Si8 0.230218 0.337661 0.487540
O O1 0.833275 0.750000 0.168066
O O2 0.884746 0.625308 0.130760
O O3 0.815028 0.635259 0.393663
O O4 0.799598 0.619230 0.029745
O O5 0.925247 0.070415 0.577160
O O6 0.853792 0.090430 0.798671
O O7 0.939086 0.127567 0.925857
O O8 0.914644 0.985330 0.891082
O O9 0.974100 0.119397 0.273225
O O10 0.935802 0.987556 0.249659
O O11 0.000000 0.000000 0.500000
O O12 0.278379 0.488329 0.631857
O O13 0.271729 0.343896 0.641550
O O14 0.284991 0.421848 0.962685
O O15 0.983566 0.250000 0.065831
O O16 0.027577 0.119061 0.975566
O O17 0.742833 0.114030 0.200025
O O18 0.222506 0.250000 0.427774
#
# Coordination Sequence:
#
# PCOD9466517 Si02
#       8
#     8   8   8   8   8   8   8   8
#     4  10  22  38  60  94 127 156 195 251 320 375
#     4  11  23  41  63  92 125 162 207 263 308 370
#     4  11  21  41  64  89 118 165 208 248 308 375
#     4  11  23  37  65  91 118 161 210 251 303 368
#     4  11  24  42  63  92 128 166 211 262 314 370
#     4  11  21  38  68  91 123 162 206 257 315 374
#     4  11  21  38  62  90 121 159 206 251 303 370
#     4  10  23  42  60  87 128 163 200 256 312 366
#
# _framework density 18.425107000000001
#
# number of rings (size 3 to 8) (size 9 to 14) (size 15 to 20)
#    0.000    1.250    5.000    1.500    1.750    3.500 
#    0.000    0.000    0.000    0.000    0.000    0.000 
#    0.000    0.000    0.000    0.000    0.000    0.000 
#
# Total GULP energy -357352.138520 kJ/mol
# GULP energy per Si atom -5583.627164 kJ/mol
# Density = 1.838317 g / cm^3
# Si number density = 18.425107 Si / 1000 Ang^3
#
#
#
# Elastic Constant Matrix: (Units=GPa)
#
#
# Indices 1 2 3 4 5 6 
#
# 1 118.8365 26.2912 39.4830 0.0000 0.0000 0.0000
# 2 26.2912 89.3944 37.4408 0.0000 0.0000 0.0000
# 3 39.4830 37.4408 119.6039 0.0000 0.0000 0.0000
# 4 0.0000 0.0000 0.0000 21.0337 0.0000 0.0000
# 5 0.0000 0.0000 0.0000 0.0000 23.5645 0.0000
# 6 0.0000 0.0000 0.0000 0.0000 0.0000 21.9092
#
#
#
# Elastic Compliance Matrix: (Units=1/GPa)
#
#
# Indices 1 2 3 4 5 6 
#
# 1 0.009680 -0.001736 -0.002652 0.000000 0.000000 0.000000
# 2 -0.001736 0.013186 -0.003555 0.000000 0.000000 0.000000
# 3 -0.002652 -0.003555 0.010349 0.000000 0.000000 0.000000
# 4 0.000000 0.000000 0.000000 0.047543 0.000000 0.000000
# 5 0.000000 0.000000 0.000000 0.000000 0.042437 0.000000
# 6 0.000000 0.000000 0.000000 0.000000 0.000000 0.045643
#
#
# Mechanical properties :
#
#
# Convention : Reuss Voigt Hill
#
# Bulk Modulus (GPa) = 57.70524 59.36276 58.53400
# Shear Modulus (GPa) = 26.24680 28.27615 27.26147
#
# Velocity S-wave (km/s) = 3.77837 3.92171 3.85071
# Velocity P-wave (km/s) = 7.10081 7.26600 7.18388
#
# Compressibility (1/GPa) = 0.01732945
#
# Stress axis : x y z
#
# Youngs Moduli (GPa) = 103.30393 75.83952 96.62655
#
# Poissons Ratio (x) = 0.13167 0.25626
# Poissons Ratio (y) = 0.17936 0.34346
# Poissons Ratio (z) = 0.27397 0.26957
#
# Static dielectric constant tensor:
#      x y z
#    x 1.620750 0.000000 0.000000 
#    y 0.000000 1.618060 0.000000 
#    z 0.000000 0.000000 1.643230 
# 
# From -- ./inp_files/3709.got.cif
#   From: 2010.05.17/outbox.cif.g08.bks.cpg/sg62_2_cif.got.tgz:3709.got - 2010.06.03 15:25:27.
