data_PCOD9466851
_publ_section_title
;
Structure prediction by ZEFSAII (Michael W. Deem and Ramdas Pophale) SiO2 
 PCOD9466851
Probable space group: P N M A
;
_chemical_formula_sum "Si O2"
_cell_formula_units_Z 48
_cell_length_a 18.955412
_cell_length_b 8.833591
_cell_length_c 15.234294
_cell_angle_alpha 90.000000
_cell_angle_beta 90.000000
_cell_angle_gamma 90.000000
_cell_volume 2550.896561
_symmetry_space_group_name_H-M "P N M A"
_symmetry_group_IT_number 62
_symmetry_cell_setting 'orthorhombic'
loop_
_space_group_symop_operation_xyz
x,y,z
1/2-x,-y,1/2+z
1/2+x,1/2-y,1/2-z
-x,1/2+y,-z
-x,-y,-z
1/2+x,y,1/2-z
1/2-x,1/2+y,1/2+z
x,1/2-y,z
loop_
_atom_site_type_symbol
_atom_site_label
_atom_site_fract_x
_atom_site_fract_y
_atom_site_fract_z
Si Si1 0.279736 0.567925 0.504121
Si Si2 0.255462 0.568480 0.192880
Si Si3 0.583024 0.067792 0.757495
Si Si4 0.562720 0.432278 0.557319
Si Si5 0.982601 0.930866 0.594581
Si Si6 0.821689 0.568515 0.644295
O O1 0.274167 0.750000 0.504711
O O2 0.257524 0.500534 0.597403
O O3 0.360651 0.527332 0.481715
O O4 0.229310 0.501839 0.429070
O O5 0.248493 0.750000 0.190131
O O6 0.334759 0.532509 0.225549
O O7 0.201329 0.499080 0.262582
O O8 0.575929 0.250000 0.762750
O O9 0.561172 0.019433 0.659387
O O10 0.535368 0.993685 0.831982
O O11 0.500000 0.500000 0.500000
O O12 0.557559 0.250000 0.555878
O O13 0.988830 0.750000 0.589732
O O14 0.902394 0.968645 0.621210
O O15 0.000000 0.000000 0.500000
O O16 0.814087 0.750000 0.645138
#
# Coordination Sequence:
#
# PCOD9466851 Si02
#       6
#     8   8   8   8   8   8
#     4  11  23  42  65  93 127 162 205 259 312 369
#     4  11  23  41  65  93 124 163 207 256 311 369
#     4  10  22  43  65  90 126 165 206 254 308 368
#     4  10  23  42  62  89 125 165 207 256 309 367
#     4  11  25  42  63  93 126 163 206 256 309 368
#     4  11  24  42  63  93 127 162 208 257 307 371
#
# _framework density 18.816913
#
# number of rings (size 3 to 8) (size 9 to 14) (size 15 to 20)
#    0.000    1.333    1.667    3.000    2.333   10.000 
#    0.000    0.000    0.000    0.000    0.000    0.000 
#    0.000    0.000    0.000    0.000    0.000    0.000 
#
# Total GULP energy -268462.758342 kJ/mol
# GULP energy per Si atom -5592.974132 kJ/mol
# Density = 1.877408 g / cm^3
# Si number density = 18.816913 Si / 1000 Ang^3
#
#
#
# Elastic Constant Matrix: (Units=GPa)
#
#
# Indices 1 2 3 4 5 6 
#
# 1 86.8823 37.1427 19.0157 0.0000 0.0000 0.0000
# 2 37.1427 35.7484 19.4846 0.0000 0.0000 0.0000
# 3 19.0157 19.4846 110.9184 0.0000 0.0000 0.0000
# 4 0.0000 0.0000 0.0000 39.9394 0.0000 0.0000
# 5 0.0000 0.0000 0.0000 0.0000 42.3862 0.0000
# 6 0.0000 0.0000 0.0000 0.0000 0.0000 31.2624
#
#
#
# Elastic Compliance Matrix: (Units=1/GPa)
#
#
# Indices 1 2 3 4 5 6 
#
# 1 0.020714 -0.021661 0.000254 0.000000 0.000000 0.000000
# 2 -0.021661 0.053585 -0.005700 0.000000 0.000000 0.000000
# 3 0.000254 -0.005700 0.009973 0.000000 0.000000 0.000000
# 4 0.000000 0.000000 0.000000 0.025038 0.000000 0.000000
# 5 0.000000 0.000000 0.000000 0.000000 0.023593 0.000000
# 6 0.000000 0.000000 0.000000 0.000000 0.000000 0.031987
#
#
# Mechanical properties :
#
#
# Convention : Reuss Voigt Hill
#
# Bulk Modulus (GPa) = 33.26674 42.75947 38.01311
# Shear Modulus (GPa) = 21.82229 33.24468 27.53348
#
# Velocity S-wave (km/s) = 3.40916 4.20783 3.82937
# Velocity P-wave (km/s) = 5.76316 6.81036 6.30853
#
# Compressibility (1/GPa) = 0.03006006
#
# Stress axis : x y z
#
# Youngs Moduli (GPa) = 48.27579 18.66186 100.26707
#
# Poissons Ratio (x) = 0.40423 -0.02545
# Poissons Ratio (y) = 1.04568 0.57149
# Poissons Ratio (z) = -0.01225 0.10637
#
# Static dielectric constant tensor:
#      x y z
#    x 1.625180 0.000000 0.000000 
#    y 0.000000 1.630850 0.000000 
#    z 0.000000 0.000000 1.619560 
# 
# From -- ./inp_files/19631.got.cif
#   From: 2010.05.17/outbox.cif.g08.bks.cpg/sg62_10_cif.got.tgz:19631.got - 2010.06.03 15:25:27.
