data_PCOD9466831
_publ_section_title
;
Structure prediction by ZEFSAII (Michael W. Deem and Ramdas Pophale) SiO2 
 PCOD9466831
Probable space group: P N M A
;
_chemical_formula_sum "Si O2"
_cell_formula_units_Z 52
_cell_length_a 18.859834
_cell_length_b 16.351236
_cell_length_c 7.673638
_cell_angle_alpha 90.000000
_cell_angle_beta 90.000000
_cell_angle_gamma 90.000000
_cell_volume 2366.408739
_symmetry_space_group_name_H-M "P N M A"
_symmetry_group_IT_number 62
_symmetry_cell_setting 'orthorhombic'
loop_
_space_group_symop_operation_xyz
x,y,z
1/2-x,-y,1/2+z
1/2+x,1/2-y,1/2-z
-x,1/2+y,-z
-x,-y,-z
1/2+x,y,1/2-z
1/2-x,1/2+y,1/2+z
x,1/2-y,z
loop_
_atom_site_type_symbol
_atom_site_label
_atom_site_fract_x
_atom_site_fract_y
_atom_site_fract_z
Si Si1 0.925382 0.590667 0.914725
Si Si2 0.809328 0.009898 0.814156
Si Si3 0.658505 0.437312 0.933688
Si Si4 0.111883 0.656990 0.321902
Si Si5 0.728271 0.750000 0.070419
Si Si6 0.689423 0.250000 0.921941
Si Si7 0.987855 0.949083 0.272233
Si Si8 0.146915 0.250000 0.198183
O O1 0.849808 0.546275 0.953662
O O2 0.904391 0.672610 0.816931
O O3 0.971198 0.529252 0.795856
O O4 0.965783 0.599690 0.096310
O O5 0.727226 0.026871 0.837080
O O6 0.851163 0.096182 0.815023
O O7 0.825664 0.963355 0.632836
O O8 0.653983 0.339350 0.898612
O O9 0.583068 0.470708 0.873718
O O10 0.095305 0.750000 0.264996
O O11 0.175911 0.672876 0.459623
O O12 0.041195 0.610218 0.375557
O O13 0.749032 0.750000 0.276083
O O14 0.799473 0.750000 0.964034
O O15 0.697213 0.250000 0.131907
#
# Coordination Sequence:
#
# PCOD9466831 Si02
#       8
#     8   8   8   8   4   4   8   4
#     4  10  23  43  67  98 140 178 233 288 356 425
#     4  11  23  40  67  95 133 176 232 292 333 410
#     4  12  24  41  70 100 136 183 234 292 354 415
#     4   9  21  39  63  94 127 178 225 269 340 415
#     4  10  22  42  70  98 140 177 227 293 344 412
#     4  12  24  43  69 109 131 177 240 297 344 419
#     4  10  23  43  68  96 138 189 224 282 361 426
#     4  12  24  43  71 107 139 174 241 298 342 415
#
# _framework density 21.974225000000001
#
# number of rings (size 3 to 8) (size 9 to 14) (size 15 to 20)
#    0.462    0.923    3.077    1.846    4.308    2.462 
#    0.000    0.000    3.385    0.000    0.000    0.000 
#    0.000    0.000    0.000    0.000    0.000    0.000 
#
# Total GULP energy -289928.238550 kJ/mol
# GULP energy per Si atom -5575.543049 kJ/mol
# Density = 2.192421 g / cm^3
# Si number density = 21.974225 Si / 1000 Ang^3
#
#
#
# Elastic Constant Matrix: (Units=GPa)
#
#
# Indices 1 2 3 4 5 6 
#
# 1 148.2585 56.1368 43.8915 0.0000 0.0000 0.0000
# 2 56.1368 127.4990 22.0475 0.0000 0.0000 0.0000
# 3 43.8915 22.0475 58.8421 0.0000 0.0000 0.0000
# 4 0.0000 0.0000 0.0000 18.0401 0.0000 0.0000
# 5 0.0000 0.0000 0.0000 0.0000 25.0772 0.0000
# 6 0.0000 0.0000 0.0000 0.0000 0.0000 21.0824
#
#
#
# Elastic Compliance Matrix: (Units=1/GPa)
#
#
# Indices 1 2 3 4 5 6 
#
# 1 0.009775 -0.003254 -0.006072 0.000000 0.000000 0.000000
# 2 -0.003254 0.009470 -0.001121 0.000000 0.000000 0.000000
# 3 -0.006072 -0.001121 0.021944 0.000000 0.000000 0.000000
# 4 0.000000 0.000000 0.000000 0.055432 0.000000 0.000000
# 5 0.000000 0.000000 0.000000 0.000000 0.039877 0.000000
# 6 0.000000 0.000000 0.000000 0.000000 0.000000 0.047433
#
#
# Mechanical properties :
#
#
# Convention : Reuss Voigt Hill
#
# Bulk Modulus (GPa) = 49.27440 64.30570 56.79005
# Shear Modulus (GPa) = 23.63081 27.00820 25.31951
#
# Velocity S-wave (km/s) = 3.28287 3.50963 3.39814
# Velocity P-wave (km/s) = 6.06976 6.76395 6.42624
#
# Compressibility (1/GPa) = 0.02029452
#
# Stress axis : x y z
#
# Youngs Moduli (GPa) = 102.30694 105.60057 45.57083
#
# Poissons Ratio (x) = 0.34359 0.27670
# Poissons Ratio (y) = 0.33287 0.05109
# Poissons Ratio (z) = 0.62119 0.11840
#
# Static dielectric constant tensor:
#      x y z
#    x 1.812040 0.000000 0.000000 
#    y 0.000000 1.843890 0.000000 
#    z 0.000000 0.000000 1.833050 
# 
# From -- ./inp_files/7939.got.cif
#   From: 2010.05.17/outbox.cif.g08.bks.cpg/sg62_4_cif.got.tgz:7939.got - 2010.06.03 15:25:27.
