data_PCOD9466716
_publ_section_title
;
Structure prediction by ZEFSAII (Michael W. Deem and Ramdas Pophale) SiO2 
 PCOD9466716
Probable space group: P N M A
;
_chemical_formula_sum "Si O2"
_cell_formula_units_Z 40
_cell_length_a 14.355907
_cell_length_b 7.881202
_cell_length_c 13.874162
_cell_angle_alpha 90.000000
_cell_angle_beta 90.000000
_cell_angle_gamma 90.000000
_cell_volume 1569.747703
_symmetry_space_group_name_H-M "P N M A"
_symmetry_group_IT_number 62
_symmetry_cell_setting 'orthorhombic'
loop_
_space_group_symop_operation_xyz
x,y,z
1/2-x,-y,1/2+z
1/2+x,1/2-y,1/2-z
-x,1/2+y,-z
-x,-y,-z
1/2+x,y,1/2-z
1/2-x,1/2+y,1/2+z
x,1/2-y,z
loop_
_atom_site_type_symbol
_atom_site_label
_atom_site_fract_x
_atom_site_fract_y
_atom_site_fract_z
Si Si1 0.925504 0.553389 0.302087
Si Si2 0.724318 0.043009 0.492283
Si Si3 0.284513 0.553205 0.719718
Si Si4 0.951748 0.444642 0.098642
Si Si5 0.897461 0.052860 0.596911
O O1 0.906079 0.750000 0.323944
O O2 0.827636 0.459911 0.288870
O O3 0.972128 0.545395 0.195736
O O4 0.002059 0.478545 0.375689
O O5 0.722362 0.250000 0.497374
O O6 0.687347 0.993510 0.387279
O O7 0.829579 0.983346 0.514047
O O8 0.656925 0.969061 0.572809
O O9 0.310035 0.750000 0.731879
O O10 0.332786 0.456843 0.807082
O O11 0.974298 0.250000 0.117622
O O12 0.000000 0.500000 0.000000
O O13 0.914252 0.250000 0.575438
#
# Coordination Sequence:
#
# PCOD9466716 Si02
#       5
#     8   8   8   8   8
#     4  11  23  40  63  91 125 167 211 258 315 375
#     4  10  22  41  63  89 125 165 207 260 314 371
#     4  11  23  39  62  93 126 163 208 261 317 373
#     4  12  24  39  62  93 124 162 211 262 320 373
#     4  10  22  41  64  88 122 168 212 257 312 374
#
# _framework density 25.481801999999998
#
# number of rings (size 3 to 8) (size 9 to 14) (size 15 to 20)
#    0.000    1.200    2.000    4.200    0.000    7.200 
#    0.000    0.000    0.000    0.000    0.000    0.000 
#    0.000    0.000    0.000    0.000    0.000    0.000 
#
# Total GULP energy -223914.611182 kJ/mol
# GULP energy per Si atom -5597.865280 kJ/mol
# Density = 2.542380 g / cm^3
# Si number density = 25.481802 Si / 1000 Ang^3
#
#
#
# Elastic Constant Matrix: (Units=GPa)
#
#
# Indices 1 2 3 4 5 6 
#
# 1 111.0575 -6.5576 -2.9067 0.0000 0.0000 0.0000
# 2 -6.5576 68.1275 6.2198 0.0000 0.0000 0.0000
# 3 -2.9067 6.2198 67.5133 0.0000 0.0000 0.0000
# 4 0.0000 0.0000 0.0000 21.7272 0.0000 0.0000
# 5 0.0000 0.0000 0.0000 0.0000 53.9012 0.0000
# 6 0.0000 0.0000 0.0000 0.0000 0.0000 25.7452
#
#
#
# Elastic Compliance Matrix: (Units=1/GPa)
#
#
# Indices 1 2 3 4 5 6 
#
# 1 0.009062 0.000844 0.000312 0.000000 0.000000 0.000000
# 2 0.000844 0.014881 -0.001335 0.000000 0.000000 0.000000
# 3 0.000312 -0.001335 0.014948 0.000000 0.000000 0.000000
# 4 0.000000 0.000000 0.000000 0.046025 0.000000 0.000000
# 5 0.000000 0.000000 0.000000 0.000000 0.018552 0.000000
# 6 0.000000 0.000000 0.000000 0.000000 0.000000 0.038842
#
#
# Mechanical properties :
#
#
# Convention : Reuss Voigt Hill
#
# Bulk Modulus (GPa) = 25.95032 26.68992 26.32012
# Shear Modulus (GPa) = 32.15147 36.93759 34.54453
#
# Velocity S-wave (km/s) = 3.55596 3.81145 3.68592
# Velocity P-wave (km/s) = 5.20247 5.46501 5.33536
#
# Compressibility (1/GPa) = 0.03853518
#
# Stress axis : x y z
#
# Youngs Moduli (GPa) = 110.34671 67.19783 66.89726
#
# Poissons Ratio (x) = -0.05670 -0.02090
# Poissons Ratio (y) = -0.09311 0.08928
# Poissons Ratio (z) = -0.03448 0.08969
#
# Static dielectric constant tensor:
#      x y z
#    x 2.125700 0.000000 0.000000 
#    y 0.000000 1.873860 0.000000 
#    z 0.000000 0.000000 2.018990 
# 
# From -- ./inp_files/18587.got.cif
#   From: 2010.05.17/outbox.cif.g08.bks.cpg/sg62_10_cif.got.tgz:18587.got - 2010.06.03 15:25:27.
