data_PCOD9466708
_publ_section_title
;
Structure prediction by ZEFSAII (Michael W. Deem and Ramdas Pophale) SiO2 
 PCOD9466708
Probable space group: P N M A
;
_chemical_formula_sum "Si O2"
_cell_formula_units_Z 40
_cell_length_a 12.115407
_cell_length_b 13.091150
_cell_length_c 12.332223
_cell_angle_alpha 90.000000
_cell_angle_beta 90.000000
_cell_angle_gamma 90.000000
_cell_volume 1955.947424
_symmetry_space_group_name_H-M "P N M A"
_symmetry_group_IT_number 62
_symmetry_cell_setting 'orthorhombic'
loop_
_space_group_symop_operation_xyz
x,y,z
1/2-x,-y,1/2+z
1/2+x,1/2-y,1/2-z
-x,1/2+y,-z
-x,-y,-z
1/2+x,y,1/2-z
1/2-x,1/2+y,1/2+z
x,1/2-y,z
loop_
_atom_site_type_symbol
_atom_site_label
_atom_site_fract_x
_atom_site_fract_y
_atom_site_fract_z
Si Si1 0.255063 0.861420 0.393685
Si Si2 0.210867 0.049016 0.668882
Si Si3 0.107032 0.445298 0.453094
Si Si4 0.418414 0.934441 0.573911
Si Si5 0.955589 0.138156 0.278857
O O1 0.199955 0.750000 0.402816
O O2 0.345416 0.870005 0.488929
O O3 0.298291 0.877025 0.271527
O O4 0.180351 0.961552 0.408930
O O5 0.332649 0.005061 0.642224
O O6 0.132520 0.950980 0.695600
O O7 0.169760 0.099758 0.556778
O O8 0.059784 0.373632 0.360113
O O9 0.000000 0.500000 0.500000
O O10 0.493777 0.875132 0.659607
O O11 0.500000 0.000000 0.500000
O O12 0.904655 0.250000 0.292979
#
# Coordination Sequence:
#
# PCOD9466708 Si02
#       5
#     8   8   8   8   8
#     4  11  22  40  66  94 127 169 207 253 319 378
#     4  10  22  41  62  92 132 162 204 269 311 372
#     4   9  21  39  61  91 126 160 206 258 301 367
#     4  11  22  41  65  91 130 165 211 265 315 372
#     4  11  22  40  67  94 124 168 212 255 316 377
#
# _framework density 20.450448999999999
#
# number of rings (size 3 to 8) (size 9 to 14) (size 15 to 20)
#    0.000    1.600    4.000    0.600    0.000    8.800 
#    0.000    9.000    0.000    0.000    0.000    0.000 
#    0.000    0.000    0.000    0.000    0.000    0.000 
#
# Total GULP energy -223110.714681 kJ/mol
# GULP energy per Si atom -5577.767867 kJ/mol
# Density = 2.040390 g / cm^3
# Si number density = 20.450449 Si / 1000 Ang^3
#
#
#
# Elastic Constant Matrix: (Units=GPa)
#
#
# Indices 1 2 3 4 5 6 
#
# 1 58.1046 8.0961 11.4649 0.0000 0.0000 0.0000
# 2 8.0961 56.5148 27.2673 0.0000 0.0000 0.0000
# 3 11.4649 27.2673 125.8943 0.0000 0.0000 0.0000
# 4 0.0000 0.0000 0.0000 3.4767 0.0000 0.0000
# 5 0.0000 0.0000 0.0000 0.0000 31.4100 0.0000
# 6 0.0000 0.0000 0.0000 0.0000 0.0000 13.7574
#
#
#
# Elastic Compliance Matrix: (Units=1/GPa)
#
#
# Indices 1 2 3 4 5 6 
#
# 1 0.017719 -0.001965 -0.001188 0.000000 0.000000 0.000000
# 2 -0.001965 0.019977 -0.004148 0.000000 0.000000 0.000000
# 3 -0.001188 -0.004148 0.008950 0.000000 0.000000 0.000000
# 4 0.000000 0.000000 0.000000 0.287629 0.000000 0.000000
# 5 0.000000 0.000000 0.000000 0.000000 0.031837 0.000000
# 6 0.000000 0.000000 0.000000 0.000000 0.000000 0.072688
#
#
# Mechanical properties :
#
#
# Convention : Reuss Voigt Hill
#
# Bulk Modulus (GPa) = 31.20748 37.13004 34.16876
# Shear Modulus (GPa) = 10.77392 22.64117 16.70755
#
# Velocity S-wave (km/s) = 2.29777 3.33096 2.86138
# Velocity P-wave (km/s) = 4.72576 5.74362 5.25937
#
# Compressibility (1/GPa) = 0.03204360
#
# Stress axis : x y z
#
# Youngs Moduli (GPa) = 56.43800 50.05689 111.73503
#
# Poissons Ratio (x) = 0.09837 0.13274
# Poissons Ratio (y) = 0.11091 0.46346
# Poissons Ratio (z) = 0.06705 0.20763
#
# Static dielectric constant tensor:
#      x y z
#    x 1.646640 0.000000 0.000000 
#    y 0.000000 1.693800 0.000000 
#    z 0.000000 0.000000 1.755540 
# 
# From -- ./inp_files/12064.got.cif
#   From: 2010.05.17/outbox.cif.g08.bks.cpg/sg62_7_cif.got.tgz:12064.got - 2010.06.03 15:25:27.
