data_PCOD9466228
_publ_section_title
;
Structure prediction by ZEFSAII (Michael W. Deem and Ramdas Pophale) SiO2 
 PCOD9466228
Probable space group: P N M A
;
_chemical_formula_sum "Si O2"
_cell_formula_units_Z 64
_cell_length_a 22.590665
_cell_length_b 9.085814
_cell_length_c 14.959874
_cell_angle_alpha 90.000000
_cell_angle_beta 90.000000
_cell_angle_gamma 90.000000
_cell_volume 3070.582660
_symmetry_space_group_name_H-M "P N M A"
_symmetry_group_IT_number 62
_symmetry_cell_setting 'orthorhombic'
loop_
_space_group_symop_operation_xyz
x,y,z
1/2-x,-y,1/2+z
1/2+x,1/2-y,1/2-z
-x,1/2+y,-z
-x,-y,-z
1/2+x,y,1/2-z
1/2-x,1/2+y,1/2+z
x,1/2-y,z
loop_
_atom_site_type_symbol
_atom_site_label
_atom_site_fract_x
_atom_site_fract_y
_atom_site_fract_z
Si Si1 0.004971 0.925921 0.192822
Si Si2 0.130036 0.574381 0.127075
Si Si3 0.462421 0.418837 0.130834
Si Si4 0.255332 0.073619 0.120786
Si Si5 0.590019 0.418709 0.033723
Si Si6 0.916076 0.075022 0.073320
Si Si7 0.703927 0.573743 0.077795
Si Si8 0.303923 0.426123 0.304361
O O1 0.001706 0.750000 0.198335
O O2 0.074184 0.968682 0.188192
O O3 0.972076 0.000344 0.275851
O O4 0.972539 0.982239 0.103533
O O5 0.139022 0.750000 0.135765
O O6 0.191476 0.493650 0.143663
O O7 0.109012 0.544966 0.025176
O O8 0.442766 0.250000 0.143937
O O9 0.420366 0.501832 0.061166
O O10 0.527057 0.418345 0.083872
O O11 0.250019 0.250000 0.118730
O O12 0.301022 0.035442 0.199747
O O13 0.275324 0.027328 0.022092
O O14 0.608787 0.250000 0.021652
O O15 0.638769 0.507774 0.088697
O O16 0.929122 0.250000 0.078842
O O17 0.864058 0.038669 0.143861
O O18 0.702535 0.750000 0.083145
O O19 0.750307 0.507976 0.146967
O O20 0.295419 0.250000 0.312764
#
# Coordination Sequence:
#
# PCOD9466228 Si02
#       8
#     8   8   8   8   8   8   8   8
#     4  11  24  38  59  91 123 153 198 251 305 364
#     4  10  22  41  62  87 119 158 200 251 305 359
#     4  10  22  41  62  87 120 159 202 247 299 357
#     4  10  23  40  61  90 122 159 203 251 303 365
#     4  10  22  40  63  89 121 160 201 247 301 358
#     4  10  21  40  64  86 116 159 204 252 307 361
#     4  11  23  39  62  93 125 161 203 252 308 367
#     4  10  22  41  63  88 122 161 206 253 304 366
#
# _framework density 20.842949000000001
#
# number of rings (size 3 to 8) (size 9 to 14) (size 15 to 20)
#    0.000    1.750    1.250    1.875    3.500    4.500 
#    0.000    0.000    0.000    0.000    0.000    0.000 
#    0.000    0.000    0.000    0.000    0.000    0.000 
#
# Total GULP energy -357909.495611 kJ/mol
# GULP energy per Si atom -5592.335869 kJ/mol
# Density = 2.079551 g / cm^3
# Si number density = 20.842949 Si / 1000 Ang^3
#
#
#
# Elastic Constant Matrix: (Units=GPa)
#
#
# Indices 1 2 3 4 5 6 
#
# 1 50.5343 14.6283 -5.0571 0.0000 0.0000 0.0000
# 2 14.6283 32.4033 15.2015 0.0000 0.0000 0.0000
# 3 -5.0571 15.2015 67.2339 0.0000 0.0000 0.0000
# 4 0.0000 0.0000 0.0000 17.1884 0.0000 0.0000
# 5 0.0000 0.0000 0.0000 0.0000 12.1253 0.0000
# 6 0.0000 0.0000 0.0000 0.0000 0.0000 32.2975
#
#
#
# Elastic Compliance Matrix: (Units=1/GPa)
#
#
# Indices 1 2 3 4 5 6 
#
# 1 0.024058 -0.013099 0.004771 0.000000 0.000000 0.000000
# 2 -0.013099 0.041655 -0.010403 0.000000 0.000000 0.000000
# 3 0.004771 -0.010403 0.017585 0.000000 0.000000 0.000000
# 4 0.000000 0.000000 0.000000 0.058179 0.000000 0.000000
# 5 0.000000 0.000000 0.000000 0.000000 0.082472 0.000000
# 6 0.000000 0.000000 0.000000 0.000000 0.000000 0.030962
#
#
# Mechanical properties :
#
#
# Convention : Reuss Voigt Hill
#
# Bulk Modulus (GPa) = 21.81744 22.19077 22.00411
# Shear Modulus (GPa) = 16.25216 20.68217 18.46717
#
# Velocity S-wave (km/s) = 2.79542 3.15347 2.97983
# Velocity P-wave (km/s) = 4.57268 4.89172 4.73489
#
# Compressibility (1/GPa) = 0.04583488
#
# Stress axis : x y z
#
# Youngs Moduli (GPa) = 41.56649 24.00662 56.86825
#
# Poissons Ratio (x) = 0.31447 -0.27133
# Poissons Ratio (y) = 0.54448 0.59162
# Poissons Ratio (z) = -0.19832 0.24975
#
# Static dielectric constant tensor:
#      x y z
#    x 1.729390 0.000000 0.000000 
#    y 0.000000 1.691680 0.000000 
#    z 0.000000 0.000000 1.757930 
# 
# From -- ./inp_files/20777.got.cif
#   From: 2010.05.17/outbox.cif.g08.bks.cpg/sg62_11_cif.got.tgz:20777.got - 2010.06.03 15:25:27.
