data_PCOD9466737
_publ_section_title
;
Structure prediction by ZEFSAII (Michael W. Deem and Ramdas Pophale) SiO2 
 PCOD9466737
Probable space group: P N M A
;
_chemical_formula_sum "Si O2"
_cell_formula_units_Z 56
_cell_length_a 21.464272
_cell_length_b 8.820746
_cell_length_c 14.751366
_cell_angle_alpha 90.000000
_cell_angle_beta 90.000000
_cell_angle_gamma 90.000000
_cell_volume 2792.889274
_symmetry_space_group_name_H-M "P N M A"
_symmetry_group_IT_number 62
_symmetry_cell_setting 'orthorhombic'
loop_
_space_group_symop_operation_xyz
x,y,z
1/2-x,-y,1/2+z
1/2+x,1/2-y,1/2-z
-x,1/2+y,-z
-x,-y,-z
1/2+x,y,1/2-z
1/2-x,1/2+y,1/2+z
x,1/2-y,z
loop_
_atom_site_type_symbol
_atom_site_label
_atom_site_fract_x
_atom_site_fract_y
_atom_site_fract_z
Si Si1 0.021377 0.569536 0.273251
Si Si2 0.154253 0.933386 0.351494
Si Si3 0.606217 0.571387 0.746115
Si Si4 0.240208 0.432056 0.703912
Si Si5 0.041385 0.072859 0.078943
Si Si6 0.760301 0.930805 0.508537
Si Si7 0.136858 0.075022 0.931930
O O1 0.014570 0.750000 0.277402
O O2 0.082907 0.525127 0.329317
O O3 0.037103 0.519179 0.170797
O O4 0.954558 0.495722 0.295725
O O5 0.157731 0.750000 0.358546
O O6 0.202362 0.979380 0.269717
O O7 0.177085 0.009994 0.444316
O O8 0.607848 0.750000 0.757456
O O9 0.673076 0.501605 0.771448
O O10 0.599908 0.526088 0.640114
O O11 0.235862 0.250000 0.712483
O O12 0.248401 0.466926 0.597376
O O13 0.026057 0.250000 0.093898
O O14 0.109134 0.064673 0.032471
O O15 0.000000 0.000000 0.000000
O O16 0.754464 0.750000 0.519622
O O17 0.706627 0.016691 0.563645
O O18 0.132370 0.250000 0.902605
#
# Coordination Sequence:
#
# PCOD9466737 Si02
#       7
#     8   8   8   8   8   8   8
#     4  11  23  40  61  87 124 167 206 255 317 374
#     4  10  22  41  65  90 123 167 207 252 315 374
#     4  12  24  38  61  91 121 161 209 254 302 366
#     4  10  22  42  65  91 126 165 204 255 314 370
#     4  11  22  34  54  84 119 160 200 245 300 367
#     4  11  23  39  64  95 123 158 207 259 310 366
#     4  11  22  37  58  85 122 163 199 247 309 367
#
# _framework density 20.050920999999999
#
# number of rings (size 3 to 8) (size 9 to 14) (size 15 to 20)
#    0.000    1.143    2.857    3.857    0.000    5.143 
#    0.000    0.714    0.000    0.000    0.000    0.000 
#    0.000    0.000    0.000    0.000    0.000    0.000 
#
# Total GULP energy -312775.092720 kJ/mol
# GULP energy per Si atom -5585.269513 kJ/mol
# Density = 2.000528 g / cm^3
# Si number density = 20.050921 Si / 1000 Ang^3
#
#
#
# Elastic Constant Matrix: (Units=GPa)
#
#
# Indices 1 2 3 4 5 6 
#
# 1 103.0615 31.1522 0.0170 0.0000 0.0000 0.0000
# 2 31.1522 37.5408 10.9387 0.0000 0.0000 0.0000
# 3 0.0170 10.9387 26.3204 0.0000 0.0000 0.0000
# 4 0.0000 0.0000 0.0000 28.6545 0.0000 0.0000
# 5 0.0000 0.0000 0.0000 0.0000 31.8904 0.0000
# 6 0.0000 0.0000 0.0000 0.0000 0.0000 25.6119
#
#
#
# Elastic Compliance Matrix: (Units=1/GPa)
#
#
# Indices 1 2 3 4 5 6 
#
# 1 0.013575 -0.012814 0.005317 0.000000 0.000000 0.000000
# 2 -0.012814 0.042404 -0.017615 0.000000 0.000000 0.000000
# 3 0.005317 -0.017615 0.045311 0.000000 0.000000 0.000000
# 4 0.000000 0.000000 0.000000 0.034899 0.000000 0.000000
# 5 0.000000 0.000000 0.000000 0.000000 0.031357 0.000000
# 6 0.000000 0.000000 0.000000 0.000000 0.000000 0.039044
#
#
# Mechanical properties :
#
#
# Convention : Reuss Voigt Hill
#
# Bulk Modulus (GPa) = 19.58269 27.90425 23.74347
# Shear Modulus (GPa) = 18.25908 25.55236 21.90572
#
# Velocity S-wave (km/s) = 3.02095 3.57371 3.30889
# Velocity P-wave (km/s) = 4.68571 5.56556 5.14448
#
# Compressibility (1/GPa) = 0.05106552
#
# Stress axis : x y z
#
# Youngs Moduli (GPa) = 73.66235 23.58275 22.06991
#
# Poissons Ratio (x) = 0.30220 -0.11734
# Poissons Ratio (y) = 0.94394 0.38875
# Poissons Ratio (z) = -0.39165 0.41540
#
# Static dielectric constant tensor:
#      x y z
#    x 1.782410 0.000000 0.000000 
#    y 0.000000 1.673300 0.000000 
#    z 0.000000 0.000000 2.007150 
# 
# From -- ./inp_files/20344.got.cif
#   From: 2010.05.17/outbox.cif.g08.bks.cpg/sg62_11_cif.got.tgz:20344.got - 2010.06.03 15:25:27.
