data_PCOD9466210
_publ_section_title
;
Structure prediction by ZEFSAII (Michael W. Deem and Ramdas Pophale) SiO2 
 PCOD9466210
Probable space group: P N M A
;
_chemical_formula_sum "Si O2"
_cell_formula_units_Z 56
_cell_length_a 32.470115
_cell_length_b 13.958370
_cell_length_c 5.391272
_cell_angle_alpha 90.000000
_cell_angle_beta 90.000000
_cell_angle_gamma 90.000000
_cell_volume 2443.485557
_symmetry_space_group_name_H-M "P N M A"
_symmetry_group_IT_number 62
_symmetry_cell_setting 'orthorhombic'
loop_
_space_group_symop_operation_xyz
x,y,z
1/2-x,-y,1/2+z
1/2+x,1/2-y,1/2-z
-x,1/2+y,-z
-x,-y,-z
1/2+x,y,1/2-z
1/2-x,1/2+y,1/2+z
x,1/2-y,z
loop_
_atom_site_type_symbol
_atom_site_label
_atom_site_fract_x
_atom_site_fract_y
_atom_site_fract_z
Si Si1 0.880386 0.364859 0.301629
Si Si2 0.882734 0.866476 0.536596
Si Si3 0.660965 0.863978 0.298401
Si Si4 0.337286 0.864265 0.461968
Si Si5 0.036228 0.638528 0.958696
Si Si6 0.034231 0.035224 0.309116
Si Si7 0.749783 0.942587 0.192615
O O1 0.873181 0.250000 0.308597
O O2 0.864288 0.402258 0.562764
O O3 0.928829 0.375700 0.250868
O O4 0.854724 0.401825 0.063607
O O5 0.885366 0.750000 0.538970
O O6 0.864521 0.896625 0.271781
O O7 0.927547 0.910860 0.573577
O O8 0.854054 0.895842 0.770148
O O9 0.653775 0.750000 0.308283
O O10 0.708941 0.882227 0.250702
O O11 0.340397 0.750000 0.464983
O O12 0.290162 0.889600 0.407673
O O13 0.038078 0.750000 0.037897
O O14 0.990817 0.608808 0.868491
O O15 0.047529 0.559780 0.162395
O O16 0.000000 0.000000 0.500000
O O17 0.760897 0.989566 0.458065
#
# Coordination Sequence:
#
# PCOD9466210 Si02
#       7
#     8   8   8   8   8   8   8
#     4   9  20  38  63  92 119 163 212 252 319 385
#     4  10  23  44  72  99 133 177 231 290 345 407
#     4  10  21  40  63  88 122 165 209 256 311 387
#     4  10  23  45  70  96 130 181 229 279 338 404
#     4  10  24  44  65  94 136 177 221 278 337 412
#     4  11  26  43  65 103 130 176 229 279 351 408
#     4  12  25  40  59  97 131 168 215 269 335 384
#
# _framework density 22.918081000000001
#
# number of rings (size 3 to 8) (size 9 to 14) (size 15 to 20)
#    0.000    1.714    0.000    2.571    6.000    4.571 
#    0.000    5.714    0.000    0.000    0.000    0.000 
#    0.000    0.000    0.000    0.000    0.000    0.000 
#
# Total GULP energy -313474.412310 kJ/mol
# GULP energy per Si atom -5597.757363 kJ/mol
# Density = 2.286592 g / cm^3
# Si number density = 22.918081 Si / 1000 Ang^3
#
#
#
# Elastic Constant Matrix: (Units=GPa)
#
#
# Indices 1 2 3 4 5 6 
#
# 1 120.1402 35.6237 52.5197 0.0000 0.0000 0.0000
# 2 35.6237 99.2131 61.8889 0.0000 0.0000 0.0000
# 3 52.5197 61.8889 134.8721 0.0000 0.0000 0.0000
# 4 0.0000 0.0000 0.0000 33.2088 0.0000 0.0000
# 5 0.0000 0.0000 0.0000 0.0000 47.8165 0.0000
# 6 0.0000 0.0000 0.0000 0.0000 0.0000 31.4927
#
#
#
# Elastic Compliance Matrix: (Units=1/GPa)
#
#
# Indices 1 2 3 4 5 6 
#
# 1 0.010224 -0.001664 -0.003218 0.000000 0.000000 0.000000
# 2 -0.001664 0.014392 -0.005956 0.000000 0.000000 0.000000
# 3 -0.003218 -0.005956 0.011401 0.000000 0.000000 0.000000
# 4 0.000000 0.000000 0.000000 0.030112 0.000000 0.000000
# 5 0.000000 0.000000 0.000000 0.000000 0.020913 0.000000
# 6 0.000000 0.000000 0.000000 0.000000 0.000000 0.031753
#
#
# Mechanical properties :
#
#
# Convention : Reuss Voigt Hill
#
# Bulk Modulus (GPa) = 69.73031 72.69888 71.21460
# Shear Modulus (GPa) = 34.42313 36.11648 35.26980
#
# Velocity S-wave (km/s) = 3.87978 3.97406 3.92720
# Velocity P-wave (km/s) = 7.11071 7.26964 7.19061
#
# Compressibility (1/GPa) = 0.01434097
#
# Stress axis : x y z
#
# Youngs Moduli (GPa) = 97.81353 69.48189 87.71479
#
# Poissons Ratio (x) = 0.11560 0.28224
# Poissons Ratio (y) = 0.16273 0.52246
# Poissons Ratio (z) = 0.31473 0.41386
#
# Static dielectric constant tensor:
#      x y z
#    x 1.947190 0.000000 0.000000 
#    y 0.000000 1.869130 0.000000 
#    z 0.000000 0.000000 1.954480 
# 
# From -- ./inp_files/3600.got.cif
#   From: 2010.05.17/outbox.cif.g08.bks.cpg/sg62_2_cif.got.tgz:3600.got - 2010.06.03 15:25:27.
