data_PCOD9466319
_publ_section_title
;
Structure prediction by ZEFSAII (Michael W. Deem and Ramdas Pophale) SiO2 
 PCOD9466319
Probable space group: P N M A
;
_chemical_formula_sum "Si O2"
_cell_formula_units_Z 32
_cell_length_a 8.198003
_cell_length_b 8.021219
_cell_length_c 22.470026
_cell_angle_alpha 90.000000
_cell_angle_beta 90.000000
_cell_angle_gamma 90.000000
_cell_volume 1477.583462
_symmetry_space_group_name_H-M "P N M A"
_symmetry_group_IT_number 62
_symmetry_cell_setting 'orthorhombic'
loop_
_space_group_symop_operation_xyz
x,y,z
1/2-x,-y,1/2+z
1/2+x,1/2-y,1/2-z
-x,1/2+y,-z
-x,-y,-z
1/2+x,y,1/2-z
1/2-x,1/2+y,1/2+z
x,1/2-y,z
loop_
_atom_site_type_symbol
_atom_site_label
_atom_site_fract_x
_atom_site_fract_y
_atom_site_fract_z
Si Si1 0.153627 0.250000 0.339491
Si Si2 0.835388 0.444155 0.467919
Si Si3 0.205888 0.750000 0.714990
Si Si4 0.642221 0.940921 0.577894
Si Si5 0.832043 0.065393 0.853951
O O1 0.284162 0.250000 0.286031
O O2 0.197046 0.407123 0.381466
O O3 0.976690 0.250000 0.310941
O O4 0.844375 0.250000 0.452134
O O5 0.694211 0.475689 0.516642
O O6 0.793728 0.545165 0.408774
O O7 0.000000 0.500000 0.500000
O O8 0.295285 0.584478 0.691006
O O9 0.582055 0.750000 0.567012
O O10 0.507346 0.036654 0.615258
O O11 0.821116 0.250000 0.827689
#
# Coordination Sequence:
#
# PCOD9466319 Si02
#       5
#     4   8   4   8   8
#     4  10  24  42  76  90 136 178 213 286 329 394
#     4  12  23  38  60  97 138 176 222 273 328 400
#     4  12  22  48  68 100 130 174 229 268 339 388
#     4  10  21  41  63  96 126 174 216 267 335 385
#     4  12  24  41  67  97 133 176 220 273 330 396
#
# _framework density 21.656984000000001
#
# number of rings (size 3 to 8) (size 9 to 14) (size 15 to 20)
#    0.750    0.000    2.500    6.750    0.000    0.000 
#    0.000    7.500    0.000    0.000    0.000    0.000 
#    0.000    0.000    0.000    0.000    0.000    0.000 
#
# Total GULP energy -179019.519496 kJ/mol
# GULP energy per Si atom -5594.359984 kJ/mol
# Density = 2.160769 g / cm^3
# Si number density = 21.656984 Si / 1000 Ang^3
#
#
#
# Elastic Constant Matrix: (Units=GPa)
#
#
# Indices 1 2 3 4 5 6 
#
# 1 67.9947 11.6949 -12.8755 0.0000 0.0000 0.0000
# 2 11.6949 141.9467 8.3321 0.0000 0.0000 0.0000
# 3 -12.8755 8.3321 65.9213 0.0000 0.0000 0.0000
# 4 0.0000 0.0000 0.0000 20.7294 0.0000 0.0000
# 5 0.0000 0.0000 0.0000 0.0000 37.6207 0.0000
# 6 0.0000 0.0000 0.0000 0.0000 0.0000 24.6044
#
#
#
# Elastic Compliance Matrix: (Units=1/GPa)
#
#
# Indices 1 2 3 4 5 6 
#
# 1 0.015571 -0.001472 0.003227 0.000000 0.000000 0.000000
# 2 -0.001472 0.007237 -0.001202 0.000000 0.000000 0.000000
# 3 0.003227 -0.001202 0.015952 0.000000 0.000000 0.000000
# 4 0.000000 0.000000 0.000000 0.048241 0.000000 0.000000
# 5 0.000000 0.000000 0.000000 0.000000 0.026581 0.000000
# 6 0.000000 0.000000 0.000000 0.000000 0.000000 0.040643
#
#
# Mechanical properties :
#
#
# Convention : Reuss Voigt Hill
#
# Bulk Modulus (GPa) = 25.08419 32.24064 28.66242
# Shear Modulus (GPa) = 30.04662 34.50498 32.27580
#
# Velocity S-wave (km/s) = 3.72881 3.99588 3.86465
# Velocity P-wave (km/s) = 5.49056 6.01737 5.75999
#
# Compressibility (1/GPa) = 0.03986575
#
# Stress axis : x y z
#
# Youngs Moduli (GPa) = 64.22023 138.18312 62.68833
#
# Poissons Ratio (x) = 0.20346 -0.20232
# Poissons Ratio (y) = 0.09456 0.07537
# Poissons Ratio (z) = -0.20727 0.16613
#
# Static dielectric constant tensor:
#      x y z
#    x 1.840290 0.000000 0.000000 
#    y 0.000000 1.824160 0.000000 
#    z 0.000000 0.000000 1.745260 
# 
# From -- ./inp_files/28539.got.cif
#   From: 2010.05.17/outbox.cif.g08.bks.cpg/sg62_15_cif.got.tgz:28539.got - 2010.06.03 15:25:27.
