data_PCOD9466692
_publ_section_title
;
Structure prediction by ZEFSAII (Michael W. Deem and Ramdas Pophale) SiO2 
 PCOD9466692
Probable space group: P N M A
;
_chemical_formula_sum "Si O2"
_cell_formula_units_Z 40
_cell_length_a 7.861542
_cell_length_b 11.331672
_cell_length_c 19.065409
_cell_angle_alpha 90.000000
_cell_angle_beta 90.000000
_cell_angle_gamma 90.000000
_cell_volume 1698.430814
_symmetry_space_group_name_H-M "P N M A"
_symmetry_group_IT_number 62
_symmetry_cell_setting 'orthorhombic'
loop_
_space_group_symop_operation_xyz
x,y,z
1/2-x,-y,1/2+z
1/2+x,1/2-y,1/2-z
-x,1/2+y,-z
-x,-y,-z
1/2+x,y,1/2-z
1/2-x,1/2+y,1/2+z
x,1/2-y,z
loop_
_atom_site_type_symbol
_atom_site_label
_atom_site_fract_x
_atom_site_fract_y
_atom_site_fract_z
Si Si1 0.149667 0.250000 0.859738
Si Si2 0.150979 0.750000 0.242019
Si Si3 0.261629 0.007326 0.195774
Si Si4 0.881146 0.614237 0.666313
Si Si5 0.437980 0.450363 0.572957
Si Si6 0.614812 0.382156 0.007886
O O1 0.335623 0.250000 0.826654
O O2 0.039088 0.250000 0.788213
O O3 0.085116 0.136356 0.900269
O O4 0.225572 0.629193 0.211344
O O5 0.449044 0.035797 0.169506
O O6 0.234897 0.072481 0.269718
O O7 0.123157 0.037135 0.135274
O O8 0.930128 0.750000 0.678768
O O9 0.810424 0.608532 0.587275
O O10 0.500000 0.500000 0.500000
O O11 0.262594 0.385778 0.550014
O O12 0.531124 0.250000 0.004536
O O13 0.500000 0.500000 0.000000
#
# Coordination Sequence:
#
# PCOD9466692 Si02
#       6
#     4   4   8   8   8   8
#     4  10  22  44  64 100 132 168 226 282 346 410
#     4  10  22  40  70  98 128 166 222 286 348 386
#     4  11  23  44  68  97 134 171 224 284 331 409
#     4  11  25  43  66  95 132 178 228 269 338 400
#     4  11  24  44  65  98 141 178 224 278 350 413
#     4  11  24  48  70  98 139 184 227 287 346 416
#
# _framework density 23.55115
#
# number of rings (size 3 to 8) (size 9 to 14) (size 15 to 20)
#    0.000    1.200    3.000    3.000    5.600    0.000 
#    7.200    0.000    0.000    0.000    0.000    0.000 
#    0.000    0.000    0.000    0.000    0.000    0.000 
#
# Total GULP energy -223527.493342 kJ/mol
# GULP energy per Si atom -5588.187334 kJ/mol
# Density = 2.349755 g / cm^3
# Si number density = 23.551150 Si / 1000 Ang^3
#
#
#
# Elastic Constant Matrix: (Units=GPa)
#
#
# Indices 1 2 3 4 5 6 
#
# 1 15.2332 16.0090 11.9247 0.0000 0.0000 0.0000
# 2 16.0090 81.7237 8.2499 0.0000 0.0000 0.0000
# 3 11.9247 8.2499 154.2378 0.0000 0.0000 0.0000
# 4 0.0000 0.0000 0.0000 -21.2066 0.0000 0.0000
# 5 0.0000 0.0000 0.0000 0.0000 56.7622 0.0000
# 6 0.0000 0.0000 0.0000 0.0000 0.0000 17.6412
#
#
#
# Elastic Compliance Matrix: (Units=1/GPa)
#
#
# Indices 1 2 3 4 5 6 
#
# 1 0.087685 -0.016582 -0.005892 0.000000 0.000000 0.000000
# 2 -0.016582 0.015439 0.000456 0.000000 0.000000 0.000000
# 3 -0.005892 0.000456 0.006915 0.000000 0.000000 0.000000
# 4 0.000000 0.000000 0.000000 -0.047155 0.000000 0.000000
# 5 0.000000 0.000000 0.000000 0.000000 0.017617 0.000000
# 6 0.000000 0.000000 0.000000 0.000000 0.000000 0.056685
#
#
# Mechanical properties :
#
#
# Convention : Reuss Voigt Hill
#
# Bulk Modulus (GPa) = 15.15101 35.95134 25.55118
# Shear Modulus (GPa) = 24.60351 24.97344 24.78848
#
# Velocity S-wave (km/s) = 3.23566 3.25990 3.24780
# Velocity P-wave (km/s) = 4.51736 5.42841 4.99370
#
# Compressibility (1/GPa) = 0.06600218
#
# Stress axis : x y z
#
# Youngs Moduli (GPa) = 11.40443 64.77275 144.62052
#
# Poissons Ratio (x) = 1.07406 0.85215
# Poissons Ratio (y) = 0.18911 -0.06598
# Poissons Ratio (z) = 0.06720 -0.02955
#
# Static dielectric constant tensor:
#      x y z
#    x 2.041350 0.000000 0.000000 
#    y 0.000000 1.890560 0.000000 
#    z 0.000000 0.000000 1.940750 
# 
# From -- ./inp_files/21925.got.cif
#   From: 2010.05.17/outbox.cif.g08.bks.cpg/sg62_11_cif.got.tgz:21925.got - 2010.06.03 15:25:27.
