data_PCOD9466754
_publ_section_title
;
Structure prediction by ZEFSAII (Michael W. Deem and Ramdas Pophale) SiO2 
 PCOD9466754
Probable space group: P N M A
;
_chemical_formula_sum "Si O2"
_cell_formula_units_Z 40
_cell_length_a 7.336008
_cell_length_b 13.963068
_cell_length_c 15.247244
_cell_angle_alpha 90.000000
_cell_angle_beta 90.000000
_cell_angle_gamma 90.000000
_cell_volume 1561.823667
_symmetry_space_group_name_H-M "P N M A"
_symmetry_group_IT_number 62
_symmetry_cell_setting 'orthorhombic'
loop_
_space_group_symop_operation_xyz
x,y,z
1/2-x,-y,1/2+z
1/2+x,1/2-y,1/2-z
-x,1/2+y,-z
-x,-y,-z
1/2+x,y,1/2-z
1/2-x,1/2+y,1/2+z
x,1/2-y,z
loop_
_atom_site_type_symbol
_atom_site_label
_atom_site_fract_x
_atom_site_fract_y
_atom_site_fract_z
Si Si1 0.930590 0.546880 0.365149
Si Si2 0.481327 0.863834 0.626059
Si Si3 0.615759 0.362744 0.173509
Si Si4 0.443067 0.138099 0.681657
Si Si5 0.248158 0.638016 0.464399
O O1 0.963297 0.433523 0.361653
O O2 0.012463 0.587663 0.273262
O O3 0.058865 0.588729 0.440695
O O4 0.726917 0.586917 0.364923
O O5 0.500435 0.750000 0.610430
O O6 0.388010 0.872732 0.721007
O O7 0.689502 0.897775 0.636973
O O8 0.369156 0.902008 0.544212
O O9 0.586331 0.250000 0.154546
O O10 0.397300 0.250000 0.696626
O O11 0.619276 0.133147 0.619969
O O12 0.209773 0.750000 0.481788
#
# Coordination Sequence:
#
# PCOD9466754 Si02
#       5
#     8   8   8   8   8
#     4  12  22  38  66  98 131 181 222 262 336 401
#     4   9  20  42  67  91 127 174 219 276 336 383
#     4  10  22  43  66  90 128 174 225 276 326 386
#     4  11  22  38  62  95 135 173 215 268 333 405
#     4  10  22  41  66  99 137 170 214 276 334 399
#
# _framework density 25.611086
#
# number of rings (size 3 to 8) (size 9 to 14) (size 15 to 20)
#    0.000    1.600    2.000    3.000    0.000    0.800 
#    3.600    1.000    0.000    0.000    0.000    0.000 
#    0.000    0.000    0.000    0.000    0.000    0.000 
#
# Total GULP energy -224475.347296 kJ/mol
# GULP energy per Si atom -5611.883682 kJ/mol
# Density = 2.555279 g / cm^3
# Si number density = 25.611086 Si / 1000 Ang^3
#
#
#
# Elastic Constant Matrix: (Units=GPa)
#
#
# Indices 1 2 3 4 5 6 
#
# 1 97.4923 19.5163 20.8851 0.0000 0.0000 0.0000
# 2 19.5163 147.1743 25.2058 0.0000 0.0000 0.0000
# 3 20.8851 25.2058 93.3647 0.0000 0.0000 0.0000
# 4 0.0000 0.0000 0.0000 16.9160 0.0000 0.0000
# 5 0.0000 0.0000 0.0000 0.0000 11.9591 0.0000
# 6 0.0000 0.0000 0.0000 0.0000 0.0000 31.3810
#
#
#
# Elastic Compliance Matrix: (Units=1/GPa)
#
#
# Indices 1 2 3 4 5 6 
#
# 1 0.010935 -0.001081 -0.002154 0.000000 0.000000 0.000000
# 2 -0.001081 0.007231 -0.001710 0.000000 0.000000 0.000000
# 3 -0.002154 -0.001710 0.011654 0.000000 0.000000 0.000000
# 4 0.000000 0.000000 0.000000 0.059116 0.000000 0.000000
# 5 0.000000 0.000000 0.000000 0.000000 0.083618 0.000000
# 6 0.000000 0.000000 0.000000 0.000000 0.000000 0.031866
#
#
# Mechanical properties :
#
#
# Convention : Reuss Voigt Hill
#
# Bulk Modulus (GPa) = 50.17805 52.13840 51.15823
# Shear Modulus (GPa) = 22.62905 30.21284 26.42095
#
# Velocity S-wave (km/s) = 2.97571 3.43837 3.21537
# Velocity P-wave (km/s) = 5.60725 6.01375 5.81405
#
# Compressibility (1/GPa) = 0.01992903
#
# Stress axis : x y z
#
# Youngs Moduli (GPa) = 91.44833 138.29451 85.80521
#
# Poissons Ratio (x) = 0.14951 0.18485
# Poissons Ratio (y) = 0.09887 0.14675
# Poissons Ratio (z) = 0.19700 0.23653
#
# Static dielectric constant tensor:
#      x y z
#    x 1.986730 0.000000 0.000000 
#    y 0.000000 2.014800 0.000000 
#    z 0.000000 0.000000 1.974790 
# 
# From -- ./inp_files/16678.got.cif
#   From: 2010.05.17/outbox.cif.g08.bks.cpg/sg62_9_cif.got.tgz:16678.got - 2010.06.03 15:25:27.
