data_PCOD9466254
_publ_section_title
;
Structure prediction by ZEFSAII (Michael W. Deem and Ramdas Pophale) SiO2 
 PCOD9466254
Probable space group: P N M A
;
_chemical_formula_sum "Si O2"
_cell_formula_units_Z 40
_cell_length_a 7.928991
_cell_length_b 14.527838
_cell_length_c 13.677249
_cell_angle_alpha 90.000000
_cell_angle_beta 90.000000
_cell_angle_gamma 90.000000
_cell_volume 1575.497313
_symmetry_space_group_name_H-M "P N M A"
_symmetry_group_IT_number 62
_symmetry_cell_setting 'orthorhombic'
loop_
_space_group_symop_operation_xyz
x,y,z
1/2-x,-y,1/2+z
1/2+x,1/2-y,1/2-z
-x,1/2+y,-z
-x,-y,-z
1/2+x,y,1/2-z
1/2-x,1/2+y,1/2+z
x,1/2-y,z
loop_
_atom_site_type_symbol
_atom_site_label
_atom_site_fract_x
_atom_site_fract_y
_atom_site_fract_z
Si Si1 0.298032 0.250000 0.588623
Si Si2 0.914131 0.637066 0.901183
Si Si3 0.157920 0.250000 0.796328
Si Si4 0.705147 0.904512 0.072524
Si Si5 0.891442 0.145047 0.273198
Si Si6 0.619772 0.382953 0.053258
O O1 0.164653 0.250000 0.678811
O O2 0.476627 0.250000 0.647086
O O3 0.263105 0.165749 0.512583
O O4 0.912695 0.750000 0.904937
O O5 0.066132 0.605084 0.832611
O O6 0.752097 0.601139 0.838800
O O7 0.874375 0.602163 0.007771
O O8 0.256032 0.341983 0.833715
O O9 0.548205 0.862192 0.011908
O O10 0.651872 0.010101 0.073312
O O11 0.842678 0.250000 0.256727
O O12 0.059555 0.149539 0.339823
#
# Coordination Sequence:
#
# PCOD9466254 Si02
#       6
#     4   8   4   8   8   8
#     4  12  26  44  67  92 129 176 223 274 326 392
#     4   9  17  31  53  81 113 147 185 235 296 361
#     4  12  26  44  67  92 129 176 223 274 326 392
#     4  10  21  40  65  92 125 164 210 266 325 385
#     4   9  17  31  53  81 113 147 185 235 296 361
#     4  10  21  40  65  92 125 164 210 266 325 385
#
# _framework density 25.388808999999998
#
# number of rings (size 3 to 8) (size 9 to 14) (size 15 to 20)
#    0.000    2.000    2.000    1.800    0.000    4.000 
#    0.000    4.000    0.000    0.000    0.000    0.000 
#    0.000    0.000    0.000    0.000    0.000    0.000 
#
# Total GULP energy -223362.782222 kJ/mol
# GULP energy per Si atom -5584.069556 kJ/mol
# Density = 2.533102 g / cm^3
# Si number density = 25.388809 Si / 1000 Ang^3
#
#
#
# Elastic Constant Matrix: (Units=GPa)
#
#
# Indices 1 2 3 4 5 6 
#
# 1 88.3793 5.9118 6.9629 0.0000 0.0000 0.0000
# 2 5.9118 80.5432 31.0574 0.0000 0.0000 0.0000
# 3 6.9629 31.0574 148.7952 0.0000 0.0000 0.0000
# 4 0.0000 0.0000 0.0000 15.4655 0.0000 0.0000
# 5 0.0000 0.0000 0.0000 0.0000 52.3702 0.0000
# 6 0.0000 0.0000 0.0000 0.0000 0.0000 -13.8571
#
#
#
# Elastic Compliance Matrix: (Units=1/GPa)
#
#
# Indices 1 2 3 4 5 6 
#
# 1 0.011391 -0.000686 -0.000390 0.000000 0.000000 0.000000
# 2 -0.000686 0.013544 -0.002795 0.000000 0.000000 0.000000
# 3 -0.000390 -0.002795 0.007322 0.000000 0.000000 0.000000
# 4 0.000000 0.000000 0.000000 0.064660 0.000000 0.000000
# 5 0.000000 0.000000 0.000000 0.000000 0.019095 0.000000
# 6 0.000000 0.000000 0.000000 0.000000 0.000000 -0.072165
#
#
# Mechanical properties :
#
#
# Convention : Reuss Voigt Hill
#
# Bulk Modulus (GPa) = 40.78905 45.06463 42.92684
# Shear Modulus (GPa) = 83.66744 29.04810 56.35777
#
# Velocity S-wave (km/s) = 5.74682 3.38617 4.71657
# Velocity P-wave (km/s) = 7.75470 5.75122 6.82685
#
# Compressibility (1/GPa) = 0.02451638
#
# Stress axis : x y z
#
# Youngs Moduli (GPa) = 87.78503 73.83495 136.57006
#
# Poissons Ratio (x) = 0.05063 0.05325
# Poissons Ratio (y) = 0.06020 0.38169
# Poissons Ratio (z) = 0.03423 0.20636
#
# Static dielectric constant tensor:
#      x y z
#    x 2.210650 0.000000 0.000000 
#    y 0.000000 2.000930 0.000000 
#    z 0.000000 0.000000 1.987620 
# 
# From -- ./inp_files/16706.got.cif
#   From: 2010.05.17/outbox.cif.g08.bks.cpg/sg62_9_cif.got.tgz:16706.got - 2010.06.03 15:25:27.
