data_PCOD9466017
_publ_section_title
;
Structure prediction by ZEFSAII (Michael W. Deem and Ramdas Pophale) SiO2 
 PCOD9466017
Probable space group: P N M A
;
_chemical_formula_sum "Si O2"
_cell_formula_units_Z 28
_cell_length_a 4.916478
_cell_length_b 13.249616
_cell_length_c 16.689295
_cell_angle_alpha 90.000000
_cell_angle_beta 90.000000
_cell_angle_gamma 90.000000
_cell_volume 1087.164802
_symmetry_space_group_name_H-M "P N M A"
_symmetry_group_IT_number 62
_symmetry_cell_setting 'orthorhombic'
loop_
_space_group_symop_operation_xyz
x,y,z
1/2-x,-y,1/2+z
1/2+x,1/2-y,1/2-z
-x,1/2+y,-z
-x,-y,-z
1/2+x,y,1/2-z
1/2-x,1/2+y,1/2+z
x,1/2-y,z
loop_
_atom_site_type_symbol
_atom_site_label
_atom_site_fract_x
_atom_site_fract_y
_atom_site_fract_z
Si Si1 0.088820 0.921900 0.115660
Si Si2 0.817640 0.916514 0.543632
Si Si3 0.734556 0.250000 0.702264
Si Si4 0.128192 0.907504 0.694861
O O1 0.880439 0.848238 0.158527
O O2 0.319145 0.973245 0.172194
O O3 0.194011 0.866140 0.035463
O O4 0.922180 0.021777 0.087399
O O5 0.004816 0.866097 0.611340
O O6 0.000000 0.000000 0.500000
O O7 0.056826 0.250000 0.715137
O O8 0.409347 0.881057 0.737200
#
# Coordination Sequence:
#
# PCOD9466017 Si02
#       4
#     8   8   4   8
#     4  10  21  39  53  83 119 164 199 238 292 361
#     4   9  20  35  59  78 114 158 207 245 285 348
#     4  12  28  38  58  90 130 168 190 232 300 372
#     4  11  19  31  54  82 112 142 186 245 290 332
#
# _framework density 25.755067
#
# number of rings (size 3 to 8) (size 9 to 14) (size 15 to 20)
#    0.000    1.714    2.857    1.714    8.000    0.000 
#    0.000    0.000    0.000    0.000    0.000    2.000 
#    0.000    0.000    0.000    0.000    0.000    0.000 
#
# Total GULP energy -156235.760926 kJ/mol
# GULP energy per Si atom -5579.848604 kJ/mol
# Density = 2.569645 g / cm^3
# Si number density = 25.755067 Si / 1000 Ang^3
#
#
#
# Elastic Constant Matrix: (Units=GPa)
#
#
# Indices 1 2 3 4 5 6 
#
# 1 124.8820 5.3638 12.8195 0.0000 0.0000 0.0000
# 2 5.3638 78.7195 6.8137 0.0000 0.0000 0.0000
# 3 12.8195 6.8137 106.9366 0.0000 0.0000 0.0000
# 4 0.0000 0.0000 0.0000 9.8858 0.0000 0.0000
# 5 0.0000 0.0000 0.0000 0.0000 57.2474 0.0000
# 6 0.0000 0.0000 0.0000 0.0000 0.0000 -2.5838
#
#
#
# Elastic Compliance Matrix: (Units=1/GPa)
#
#
# Indices 1 2 3 4 5 6 
#
# 1 0.008125 -0.000472 -0.000944 0.000000 0.000000 0.000000
# 2 -0.000472 0.012801 -0.000759 0.000000 0.000000 0.000000
# 3 -0.000944 -0.000759 0.009513 0.000000 0.000000 0.000000
# 4 0.000000 0.000000 0.000000 0.101155 0.000000 0.000000
# 5 0.000000 0.000000 0.000000 0.000000 0.017468 0.000000
# 6 0.000000 0.000000 0.000000 0.000000 0.000000 -0.387028
#
#
# Mechanical properties :
#
#
# Convention : Reuss Voigt Hill
#
# Bulk Modulus (GPa) = 38.33040 40.05914 39.19477
# Shear Modulus (GPa) = -22.23013 31.94594 4.85791
#
# Velocity S-wave (km/s) = -2.94111 3.52572 1.37488
# Velocity P-wave (km/s) = 1.83889 5.67115 4.21565
#
# Compressibility (1/GPa) = 0.02608895
#
# Stress axis : x y z
#
# Youngs Moduli (GPa) = 123.08113 78.11776 105.12083
#
# Poissons Ratio (x) = 0.03686 0.09923
# Poissons Ratio (y) = 0.05808 0.07980
# Poissons Ratio (z) = 0.11618 0.05930
#
# Static dielectric constant tensor:
#      x y z
#    x 2.110020 0.000000 0.000000 
#    y 0.000000 2.105630 0.000000 
#    z 0.000000 0.000000 2.167500 
# 
# From -- ./inp_files/21384.got.cif
#   From: 2010.05.17/outbox.cif.g08.bks.cpg/sg62_11_cif.got.tgz:21384.got - 2010.06.03 15:25:27.
