data_PCOD9466678
_publ_section_title
;
Structure prediction by ZEFSAII (Michael W. Deem and Ramdas Pophale) SiO2 
 PCOD9466678
Probable space group: P N M A
;
_chemical_formula_sum "Si O2"
_cell_formula_units_Z 48
_cell_length_a 14.073031
_cell_length_b 15.395333
_cell_length_c 9.932228
_cell_angle_alpha 90.000000
_cell_angle_beta 90.000000
_cell_angle_gamma 90.000000
_cell_volume 2151.906572
_symmetry_space_group_name_H-M "P N M A"
_symmetry_group_IT_number 62
_symmetry_cell_setting 'orthorhombic'
loop_
_space_group_symop_operation_xyz
x,y,z
1/2-x,-y,1/2+z
1/2+x,1/2-y,1/2-z
-x,1/2+y,-z
-x,-y,-z
1/2+x,y,1/2-z
1/2-x,1/2+y,1/2+z
x,1/2-y,z
loop_
_atom_site_type_symbol
_atom_site_label
_atom_site_fract_x
_atom_site_fract_y
_atom_site_fract_z
Si Si1 0.735706 0.150373 0.575942
Si Si2 0.641808 0.903408 0.320825
Si Si3 0.127568 0.853761 0.663726
Si Si4 0.963550 0.598248 0.022585
Si Si5 0.254196 0.149748 0.432174
Si Si6 0.572428 0.408815 0.224623
O O1 0.707268 0.250000 0.552057
O O2 0.805656 0.145850 0.701832
O O3 0.794596 0.119771 0.446166
O O4 0.637841 0.099158 0.595465
O O5 0.547604 0.861320 0.388206
O O6 0.716634 0.909840 0.443170
O O7 0.610427 0.995379 0.258664
O O8 0.109573 0.750000 0.645453
O O9 0.172347 0.866087 0.810748
O O10 0.029548 0.905096 0.653912
O O11 0.944432 0.634760 0.872318
O O12 0.000000 0.500000 0.000000
O O13 0.262874 0.250000 0.476188
O O14 0.151224 0.135448 0.367762
#
# Coordination Sequence:
#
# PCOD9466678 Si02
#       6
#     8   8   8   8   8   8
#     4  11  25  45  69 103 143 184 228 293 362 419
#     4  11  26  42  70 103 144 182 230 290 361 427
#     4  10  22  40  66  99 136 181 242 291 340 415
#     4  10  23  44  66  99 133 184 231 276 345 418
#     4  11  23  41  68 102 137 186 241 293 345 421
#     4  11  23  40  71  99 139 181 237 292 352 418
#
# _framework density 22.305802
#
# number of rings (size 3 to 8) (size 9 to 14) (size 15 to 20)
#    0.000    1.333    3.333    1.000    4.667    4.000 
#    0.000    1.667    0.000    0.000    0.000    0.000 
#    0.000    0.000    0.000    0.000    0.000    0.000 
#
# Total GULP energy -268435.825263 kJ/mol
# GULP energy per Si atom -5592.413026 kJ/mol
# Density = 2.225503 g / cm^3
# Si number density = 22.305802 Si / 1000 Ang^3
#
#
#
# Elastic Constant Matrix: (Units=GPa)
#
#
# Indices 1 2 3 4 5 6 
#
# 1 137.0541 49.9308 22.9738 0.0000 0.0000 0.0000
# 2 49.9308 75.2518 24.9700 0.0000 0.0000 0.0000
# 3 22.9738 24.9700 73.3637 0.0000 0.0000 0.0000
# 4 0.0000 0.0000 0.0000 21.1838 0.0000 0.0000
# 5 0.0000 0.0000 0.0000 0.0000 35.6906 0.0000
# 6 0.0000 0.0000 0.0000 0.0000 0.0000 -15.6946
#
#
#
# Elastic Compliance Matrix: (Units=1/GPa)
#
#
# Indices 1 2 3 4 5 6 
#
# 1 0.009681 -0.006107 -0.000953 0.000000 0.000000 0.000000
# 2 -0.006107 0.018833 -0.004498 0.000000 0.000000 0.000000
# 3 -0.000953 -0.004498 0.015460 0.000000 0.000000 0.000000
# 4 0.000000 0.000000 0.000000 0.047206 0.000000 0.000000
# 5 0.000000 0.000000 0.000000 0.000000 0.028019 0.000000
# 6 0.000000 0.000000 0.000000 0.000000 0.000000 -0.063716
#
#
# Mechanical properties :
#
#
# Convention : Reuss Voigt Hill
#
# Bulk Modulus (GPa) = 47.94173 53.49097 50.71635
# Shear Modulus (GPa) = 58.44438 20.75564 39.60001
#
# Velocity S-wave (km/s) = 5.12429 3.05373 4.21803
# Velocity P-wave (km/s) = 7.52002 6.03875 6.81972
#
# Compressibility (1/GPa) = 0.02085866
#
# Stress axis : x y z
#
# Youngs Moduli (GPa) = 103.29368 53.09693 64.68329
#
# Poissons Ratio (x) = 0.32428 0.06164
# Poissons Ratio (y) = 0.63085 0.29092
# Poissons Ratio (z) = 0.09843 0.23881
#
# Static dielectric constant tensor:
#      x y z
#    x 1.830030 0.000000 0.000000 
#    y 0.000000 1.843800 0.000000 
#    z 0.000000 0.000000 1.819600 
# 
# From -- ./inp_files/12269.got.cif
#   From: 2010.05.17/outbox.cif.g08.bks.cpg/sg62_7_cif.got.tgz:12269.got - 2010.06.03 15:25:27.
