data_PCOD9466178
_publ_section_title
;
Structure prediction by ZEFSAII (Michael W. Deem and Ramdas Pophale) SiO2 
 PCOD9466178
Probable space group: P N M A
;
_chemical_formula_sum "Si O2"
_cell_formula_units_Z 64
_cell_length_a 13.839614
_cell_length_b 24.566421
_cell_length_c 8.230419
_cell_angle_alpha 90.000000
_cell_angle_beta 90.000000
_cell_angle_gamma 90.000000
_cell_volume 2798.258378
_symmetry_space_group_name_H-M "P N M A"
_symmetry_group_IT_number 62
_symmetry_cell_setting 'orthorhombic'
loop_
_space_group_symop_operation_xyz
x,y,z
1/2-x,-y,1/2+z
1/2+x,1/2-y,1/2-z
-x,1/2+y,-z
-x,-y,-z
1/2+x,y,1/2-z
1/2-x,1/2+y,1/2+z
x,1/2-y,z
loop_
_atom_site_type_symbol
_atom_site_label
_atom_site_fract_x
_atom_site_fract_y
_atom_site_fract_z
Si Si1 0.133084 0.114172 0.346951
Si Si2 0.479664 0.893535 0.188312
Si Si3 0.397610 0.503413 0.333423
Si Si4 0.229450 0.026975 0.132670
Si Si5 0.326329 0.811527 0.327232
Si Si6 0.795562 0.187261 0.005316
Si Si7 0.947066 0.123749 0.177252
Si Si8 0.164432 0.630284 0.500681
O O1 0.072329 0.102373 0.510513
O O2 0.184616 0.059919 0.283552
O O3 0.214441 0.158332 0.383965
O O4 0.059428 0.133622 0.207301
O O5 0.474041 0.950931 0.282077
O O6 0.414749 0.851515 0.290070
O O7 0.586487 0.873576 0.143392
O O8 0.354280 0.508084 0.513429
O O9 0.306850 0.513665 0.210627
O O10 0.433104 0.441571 0.316543
O O11 0.292212 0.070496 0.031202
O O12 0.360136 0.750000 0.350315
O O13 0.255370 0.831900 0.467033
O O14 0.255394 0.813402 0.170009
O O15 0.814480 0.250000 0.048407
O O16 0.892099 0.151404 0.028229
O O17 0.892316 0.146616 0.336760
#
# Coordination Sequence:
#
# PCOD9466178 Si02
#       8
#     8   8   8   8   8   8   8   8
#     4  10  21  41  61  87 125 158 208 245 305 365
#     4  10  22  39  63  91 123 166 196 254 305 367
#     4  11  22  36  60  92 124 160 204 247 309 367
#     4  11  22  37  61  90 124 169 202 250 302 374
#     4  10  22  41  63  87 118 158 204 252 304 358
#     4  10  21  41  62  84 118 158 201 251 303 356
#     4  10  23  39  60  93 120 160 201 250 302 371
#     4  10  21  40  61  91 124 155 208 246 304 362
#
# _framework density 22.871369000000001
#
# number of rings (size 3 to 8) (size 9 to 14) (size 15 to 20)
#    0.000    1.750    3.750    0.750    1.750    8.500 
#    0.000    2.500    0.000    0.000    0.000    0.000 
#    0.000    0.000    0.000    0.000    0.000    0.000 
#
# Total GULP energy -358035.204298 kJ/mol
# GULP energy per Si atom -5594.300067 kJ/mol
# Density = 2.281931 g / cm^3
# Si number density = 22.871369 Si / 1000 Ang^3
#
#
#
# Elastic Constant Matrix: (Units=GPa)
#
#
# Indices 1 2 3 4 5 6 
#
# 1 83.1141 12.9025 16.8474 0.0000 0.0000 0.0000
# 2 12.9025 73.3886 19.7507 0.0000 0.0000 0.0000
# 3 16.8474 19.7507 60.0156 0.0000 0.0000 0.0000
# 4 0.0000 0.0000 0.0000 -28.1704 0.0000 0.0000
# 5 0.0000 0.0000 0.0000 0.0000 39.2292 0.0000
# 6 0.0000 0.0000 0.0000 0.0000 0.0000 6.9134
#
#
#
# Elastic Compliance Matrix: (Units=1/GPa)
#
#
# Indices 1 2 3 4 5 6 
#
# 1 0.012891 -0.001418 -0.003152 0.000000 0.000000 0.000000
# 2 -0.001418 0.015106 -0.004573 0.000000 0.000000 0.000000
# 3 -0.003152 -0.004573 0.019052 0.000000 0.000000 0.000000
# 4 0.000000 0.000000 0.000000 -0.035498 0.000000 0.000000
# 5 0.000000 0.000000 0.000000 0.000000 0.025491 0.000000
# 6 0.000000 0.000000 0.000000 0.000000 0.000000 0.144646
#
#
# Mechanical properties :
#
#
# Convention : Reuss Voigt Hill
#
# Bulk Modulus (GPa) = 34.76751 35.05772 34.91261
# Shear Modulus (GPa) = 23.85926 14.72895 19.29411
#
# Velocity S-wave (km/s) = 3.23335 2.54045 2.90762
# Velocity P-wave (km/s) = 5.40127 4.89558 5.15463
#
# Compressibility (1/GPa) = 0.02876249
#
# Stress axis : x y z
#
# Youngs Moduli (GPa) = 77.57533 66.19814 52.48749
#
# Poissons Ratio (x) = 0.09387 0.16544
# Poissons Ratio (y) = 0.11001 0.24004
# Poissons Ratio (z) = 0.24452 0.30274
#
# Static dielectric constant tensor:
#      x y z
#    x 1.833310 0.000000 0.000000 
#    y 0.000000 1.804870 0.000000 
#    z 0.000000 0.000000 1.909410 
# 
# From -- ./inp_files/6938.got.cif
#   From: 2010.05.17/outbox.cif.g08.bks.cpg/sg62_4_cif.got.tgz:6938.got - 2010.06.03 15:25:27.
