data_PCOD9466439
_publ_section_title
;
Structure prediction by ZEFSAII (Michael W. Deem and Ramdas Pophale) SiO2 
 PCOD9466439
Probable space group: P N M A
;
_chemical_formula_sum "Si O2"
_cell_formula_units_Z 28
_cell_length_a 7.099571
_cell_length_b 5.550091
_cell_length_c 29.289801
_cell_angle_alpha 90.000000
_cell_angle_beta 90.000000
_cell_angle_gamma 90.000000
_cell_volume 1154.113794
_symmetry_space_group_name_H-M "P N M A"
_symmetry_group_IT_number 62
_symmetry_cell_setting 'orthorhombic'
loop_
_space_group_symop_operation_xyz
x,y,z
1/2-x,-y,1/2+z
1/2+x,1/2-y,1/2-z
-x,1/2+y,-z
-x,-y,-z
1/2+x,y,1/2-z
1/2-x,1/2+y,1/2+z
x,1/2-y,z
loop_
_atom_site_type_symbol
_atom_site_label
_atom_site_fract_x
_atom_site_fract_y
_atom_site_fract_z
Si Si1 0.780845 0.498716 0.015171
Si Si2 0.417893 0.250000 0.842360
Si Si3 0.966803 0.250000 0.858327
Si Si4 0.674748 0.250000 0.931093
Si Si5 0.879304 0.750000 0.704610
Si Si6 0.439325 0.750000 0.688246
O O1 0.731934 0.750000 0.037258
O O2 0.669407 0.468738 0.967259
O O3 0.751052 0.250000 0.042072
O O4 0.000000 0.500000 0.000000
O O5 0.193029 0.250000 0.853300
O O6 0.538173 0.250000 0.888539
O O7 0.460366 0.496852 0.814288
O O8 0.890047 0.497349 0.835777
O O9 0.884169 0.250000 0.909091
O O10 0.664834 0.750000 0.688603
O O11 0.877201 0.750000 0.759311
#
# Coordination Sequence:
#
# PCOD9466439 Si02
#       6
#     8   4   4   4   4   4
#     4   8  16  30  50  82 106 134 176 212 256 316
#     4  10  23  37  52  82 107 134 179 224 265 310
#     4  10  23  37  52  82 107 134 179 224 265 310
#     4  10  22  32  64  76 110 144 178 214 272 318
#     4  10  22  38  55  74 106 138 176 226 267 317
#     4  10  22  38  55  74 106 138 176 226 267 317
#
# _framework density 24.261037999999999
#
# number of rings (size 3 to 8) (size 9 to 14) (size 15 to 20)
#    0.857    1.714    0.000    0.857    8.000    0.000 
#    0.000    0.000    0.000    1.714    0.000    0.000 
#    0.000    0.000    0.000    0.000    0.000    0.000 
#
# Total GULP energy -156301.494669 kJ/mol
# GULP energy per Si atom -5582.196238 kJ/mol
# Density = 2.420582 g / cm^3
# Si number density = 24.261038 Si / 1000 Ang^3
#
#
#
# Elastic Constant Matrix: (Units=GPa)
#
#
# Indices 1 2 3 4 5 6 
#
# 1 73.4499 17.7120 13.4540 0.0000 0.0000 0.0000
# 2 17.7120 261.8475 62.4591 0.0000 0.0000 0.0000
# 3 13.4540 62.4591 119.5672 0.0000 0.0000 0.0000
# 4 0.0000 0.0000 0.0000 20.7361 0.0000 0.0000
# 5 0.0000 0.0000 0.0000 0.0000 44.6817 0.0000
# 6 0.0000 0.0000 0.0000 0.0000 0.0000 -5.3916
#
#
#
# Elastic Compliance Matrix: (Units=1/GPa)
#
#
# Indices 1 2 3 4 5 6 
#
# 1 0.013998 -0.000652 -0.001234 0.000000 0.000000 0.000000
# 2 -0.000652 0.004393 -0.002221 0.000000 0.000000 0.000000
# 3 -0.001234 -0.002221 0.009663 0.000000 0.000000 0.000000
# 4 0.000000 0.000000 0.000000 0.048225 0.000000 0.000000
# 5 0.000000 0.000000 0.000000 0.000000 0.022381 0.000000
# 6 0.000000 0.000000 0.000000 0.000000 0.000000 -0.185474
#
#
# Mechanical properties :
#
#
# Convention : Reuss Voigt Hill
#
# Bulk Modulus (GPa) = 50.40907 71.34607 60.87757
# Shear Modulus (GPa) = -69.45807 36.08788 -16.68510
#
# Velocity S-wave (km/s) = -5.35646 3.86097 -2.62531
# Velocity P-wave (km/s) = 4.17524 7.02479 3.99469
#
# Compressibility (1/GPa) = 0.01983770
#
# Stress axis : x y z
#
# Youngs Moduli (GPa) = 71.43806 227.63356 103.48979
#
# Poissons Ratio (x) = 0.14852 0.12773
# Poissons Ratio (y) = 0.04661 0.22989
# Poissons Ratio (z) = 0.08817 0.50566
#
# Static dielectric constant tensor:
#      x y z
#    x 2.015450 0.000000 0.000000 
#    y 0.000000 1.988930 0.000000 
#    z 0.000000 0.000000 1.982400 
# 
# From -- ./inp_files/30613.got.cif
#   From: 2010.05.17/outbox.cif.g08.bks.cpg/sg62_16_cif.got.tgz:30613.got - 2010.06.03 15:25:27.
