data_PCOD9466968
_publ_section_title
;
Structure prediction by ZEFSAII (Michael W. Deem and Ramdas Pophale) SiO2 
 PCOD9466968
Probable space group: P N M A
;
_chemical_formula_sum "Si O2"
_cell_formula_units_Z 64
_cell_length_a 28.107811
_cell_length_b 18.180696
_cell_length_c 6.608025
_cell_angle_alpha 90.000000
_cell_angle_beta 90.000000
_cell_angle_gamma 90.000000
_cell_volume 3376.830074
_symmetry_space_group_name_H-M "P N M A"
_symmetry_group_IT_number 62
_symmetry_cell_setting 'orthorhombic'
loop_
_space_group_symop_operation_xyz
x,y,z
1/2-x,-y,1/2+z
1/2+x,1/2-y,1/2-z
-x,1/2+y,-z
-x,-y,-z
1/2+x,y,1/2-z
1/2-x,1/2+y,1/2+z
x,1/2-y,z
loop_
_atom_site_type_symbol
_atom_site_label
_atom_site_fract_x
_atom_site_fract_y
_atom_site_fract_z
Si Si1 0.837832 0.833485 0.924190
Si Si2 0.905592 0.911892 0.216151
Si Si3 0.492764 0.423887 0.877959
Si Si4 0.678933 0.432947 0.036973
Si Si5 0.241782 0.333075 0.730423
Si Si6 0.582425 0.662353 0.855796
Si Si7 0.836959 0.403933 0.639142
Si Si8 0.583307 0.936445 0.470555
O O1 0.840862 0.750000 0.846474
O O2 0.832046 0.891857 0.746079
O O3 0.883589 0.853596 0.060150
O O4 0.792704 0.838734 0.074725
O O5 0.866742 0.923428 0.391678
O O6 0.956099 0.893067 0.313863
O O7 0.911759 0.988546 0.096376
O O8 0.461921 0.439644 0.677385
O O9 0.500000 0.500000 0.000000
O O10 0.461953 0.369284 0.016205
O O11 0.722806 0.392186 0.930058
O O12 0.686159 0.519426 0.067447
O O13 0.236842 0.250000 0.649868
O O14 0.295364 0.349730 0.794116
O O15 0.583306 0.750000 0.856715
O O16 0.579342 0.629062 0.631672
O O17 0.629452 0.630229 0.966127
O O18 0.871392 0.423534 0.826530
#
# Coordination Sequence:
#
# PCOD9466968 Si02
#       8
#     8   8   8   8   8   8   8   8
#     4  10  23  41  61  88 125 161 200 258 315 368
#     4  11  21  39  64  92 120 161 209 253 308 370
#     4  11  23  39  68  92 123 165 210 257 309 374
#     4  11  22  38  65  93 124 161 213 258 307 372
#     4  10  24  41  60  89 128 164 206 259 318 374
#     4  11  25  43  63  95 133 163 207 265 313 368
#     4  11  23  40  67  93 124 169 213 257 309 378
#     4  11  22  40  65  94 123 164 212 253 311 373
#
# _framework density 18.952684999999999
#
# number of rings (size 3 to 8) (size 9 to 14) (size 15 to 20)
#    0.000    1.250    3.750    1.875    1.750    4.500 
#    0.000    1.250    0.000    0.000    0.000    0.000 
#    0.000    0.000    0.000    0.000    0.000    0.000 
#
# Total GULP energy -357764.992457 kJ/mol
# GULP energy per Si atom -5590.078007 kJ/mol
# Density = 1.890955 g / cm^3
# Si number density = 18.952685 Si / 1000 Ang^3
#
#
#
# Elastic Constant Matrix: (Units=GPa)
#
#
# Indices 1 2 3 4 5 6 
#
# 1 82.2053 6.1427 15.0493 0.0000 0.0000 0.0000
# 2 6.1427 108.6779 23.6863 0.0000 0.0000 0.0000
# 3 15.0493 23.6863 72.5277 0.0000 0.0000 0.0000
# 4 0.0000 0.0000 0.0000 22.9212 0.0000 0.0000
# 5 0.0000 0.0000 0.0000 0.0000 12.2682 0.0000
# 6 0.0000 0.0000 0.0000 0.0000 0.0000 18.0968
#
#
#
# Elastic Compliance Matrix: (Units=1/GPa)
#
#
# Indices 1 2 3 4 5 6 
#
# 1 0.012647 -0.000154 -0.002574 0.000000 0.000000 0.000000
# 2 -0.000154 0.009909 -0.003204 0.000000 0.000000 0.000000
# 3 -0.002574 -0.003204 0.015368 0.000000 0.000000 0.000000
# 4 0.000000 0.000000 0.000000 0.043628 0.000000 0.000000
# 5 0.000000 0.000000 0.000000 0.000000 0.081512 0.000000
# 6 0.000000 0.000000 0.000000 0.000000 0.000000 0.055259
#
#
# Mechanical properties :
#
#
# Convention : Reuss Voigt Hill
#
# Bulk Modulus (GPa) = 38.37242 39.24082 38.80662
# Shear Modulus (GPa) = 20.93164 25.22607 23.07886
#
# Velocity S-wave (km/s) = 3.32688 3.65225 3.49335
# Velocity P-wave (km/s) = 5.92013 6.20764 6.06559
#
# Compressibility (1/GPa) = 0.02606038
#
# Stress axis : x y z
#
# Youngs Moduli (GPa) = 79.06767 100.92335 65.06890
#
# Poissons Ratio (x) = 0.01553 0.16749
# Poissons Ratio (y) = 0.01216 0.20848
# Poissons Ratio (z) = 0.20353 0.32336
#
# Static dielectric constant tensor:
#      x y z
#    x 1.637540 0.000000 0.000000 
#    y 0.000000 1.637590 0.000000 
#    z 0.000000 0.000000 1.642980 
# 
# From -- ./inp_files/3706.got.cif
#   From: 2010.05.17/outbox.cif.g08.bks.cpg/sg62_2_cif.got.tgz:3706.got - 2010.06.03 15:25:27.
