data_PCOD9466979
_publ_section_title
;
Structure prediction by ZEFSAII (Michael W. Deem and Ramdas Pophale) SiO2 
 PCOD9466979
Probable space group: P N M A
;
_chemical_formula_sum "Si O2"
_cell_formula_units_Z 56
_cell_length_a 14.769742
_cell_length_b 9.065280
_cell_length_c 21.067348
_cell_angle_alpha 90.000000
_cell_angle_beta 90.000000
_cell_angle_gamma 90.000000
_cell_volume 2820.746130
_symmetry_space_group_name_H-M "P N M A"
_symmetry_group_IT_number 62
_symmetry_cell_setting 'orthorhombic'
loop_
_space_group_symop_operation_xyz
x,y,z
1/2-x,-y,1/2+z
1/2+x,1/2-y,1/2-z
-x,1/2+y,-z
-x,-y,-z
1/2+x,y,1/2-z
1/2-x,1/2+y,1/2+z
x,1/2-y,z
loop_
_atom_site_type_symbol
_atom_site_label
_atom_site_fract_x
_atom_site_fract_y
_atom_site_fract_z
Si Si1 0.052987 0.417200 0.633037
Si Si2 0.723481 0.921336 0.519461
Si Si3 0.935548 0.579753 0.550459
Si Si4 0.190353 0.075274 0.248147
Si Si5 0.827277 0.571957 0.150034
Si Si6 0.499511 0.081284 0.726616
Si Si7 0.235607 0.923495 0.605299
O O1 0.059998 0.250000 0.608430
O O2 0.056933 0.414536 0.708414
O O3 0.133861 0.513914 0.605898
O O4 0.957787 0.488596 0.613567
O O5 0.695383 0.750000 0.520223
O O6 0.831734 0.926628 0.531433
O O7 0.684088 0.009988 0.579092
O O8 0.709735 0.992727 0.450076
O O9 0.961294 0.750000 0.558300
O O10 0.000000 0.500000 0.500000
O O11 0.190082 0.250000 0.262660
O O12 0.230452 0.053572 0.177147
O O13 0.251998 0.995396 0.301578
O O14 0.088546 0.014875 0.240519
O O15 0.819585 0.750000 0.151376
O O16 0.928044 0.530662 0.174614
O O17 0.470557 0.250000 0.712629
O O18 0.236039 0.750000 0.591392
#
# Coordination Sequence:
#
# PCOD9466979 Si02
#       7
#     8   8   8   8   8   8   8
#     4  11  21  36  58  86 119 157 201 248 306 369
#     4  11  24  40  60  89 124 164 208 257 314 371
#     4  11  22  34  52  82 119 156 198 244 302 370
#     4  11  24  41  65  96 127 164 211 260 313 371
#     4  11  23  42  66  93 127 166 209 258 315 375
#     4  10  23  41  64  92 122 162 209 258 312 370
#     4  11  23  39  61  89 122 162 204 251 308 367
#
# _framework density 19.852903000000001
#
# number of rings (size 3 to 8) (size 9 to 14) (size 15 to 20)
#    0.000    1.143    2.857    3.429    0.000    8.000 
#    0.000    0.714    0.000    0.000    0.000    0.000 
#    0.000    0.000    0.000    0.000    0.000    0.000 
#
# Total GULP energy -312779.056620 kJ/mol
# GULP energy per Si atom -5585.340297 kJ/mol
# Density = 1.980772 g / cm^3
# Si number density = 19.852903 Si / 1000 Ang^3
#
#
#
# Elastic Constant Matrix: (Units=GPa)
#
#
# Indices 1 2 3 4 5 6 
#
# 1 46.5423 21.7986 1.5507 0.0000 0.0000 0.0000
# 2 21.7986 85.8789 41.9434 0.0000 0.0000 0.0000
# 3 1.5507 41.9434 55.6568 0.0000 0.0000 0.0000
# 4 0.0000 0.0000 0.0000 33.2108 0.0000 0.0000
# 5 0.0000 0.0000 0.0000 0.0000 29.8825 0.0000
# 6 0.0000 0.0000 0.0000 0.0000 0.0000 23.6759
#
#
#
# Elastic Compliance Matrix: (Units=1/GPa)
#
#
# Indices 1 2 3 4 5 6 
#
# 1 0.025869 -0.009834 0.006690 0.000000 0.000000 0.000000
# 2 -0.009834 0.022164 -0.016429 0.000000 0.000000 0.000000
# 3 0.006690 -0.016429 0.030162 0.000000 0.000000 0.000000
# 4 0.000000 0.000000 0.000000 0.030111 0.000000 0.000000
# 5 0.000000 0.000000 0.000000 0.000000 0.033464 0.000000
# 6 0.000000 0.000000 0.000000 0.000000 0.000000 0.042237
#
#
# Mechanical properties :
#
#
# Convention : Reuss Voigt Hill
#
# Bulk Modulus (GPa) = 25.60873 35.40706 30.50790
# Shear Modulus (GPa) = 21.17120 25.53951 23.35536
#
# Velocity S-wave (km/s) = 3.26913 3.59058 3.43362
# Velocity P-wave (km/s) = 5.21314 5.92141 5.57853
#
# Compressibility (1/GPa) = 0.03904918
#
# Stress axis : x y z
#
# Youngs Moduli (GPa) = 38.65693 45.11724 33.15410
#
# Poissons Ratio (x) = 0.44366 -0.22180
# Poissons Ratio (y) = 0.38014 0.54470
# Poissons Ratio (z) = -0.25861 0.74125
#
# Static dielectric constant tensor:
#      x y z
#    x 1.683820 0.000000 0.000000 
#    y 0.000000 1.688240 0.000000 
#    z 0.000000 0.000000 1.811990 
# 
# From -- ./inp_files/27114.got.cif
#   From: 2010.05.17/outbox.cif.g08.bks.cpg/sg62_14_cif.got.tgz:27114.got - 2010.06.03 15:25:27.
