data_PCOD9466689
_publ_section_title
;
Structure prediction by ZEFSAII (Michael W. Deem and Ramdas Pophale) SiO2 
 PCOD9466689
Probable space group: P N M A
;
_chemical_formula_sum "Si O2"
_cell_formula_units_Z 32
_cell_length_a 28.201270
_cell_length_b 9.653451
_cell_length_c 5.194617
_cell_angle_alpha 90.000000
_cell_angle_beta 90.000000
_cell_angle_gamma 90.000000
_cell_volume 1414.180340
_symmetry_space_group_name_H-M "P N M A"
_symmetry_group_IT_number 62
_symmetry_cell_setting 'orthorhombic'
loop_
_space_group_symop_operation_xyz
x,y,z
1/2-x,-y,1/2+z
1/2+x,1/2-y,1/2-z
-x,1/2+y,-z
-x,-y,-z
1/2+x,y,1/2-z
1/2-x,1/2+y,1/2+z
x,1/2-y,z
loop_
_atom_site_type_symbol
_atom_site_label
_atom_site_fract_x
_atom_site_fract_y
_atom_site_fract_z
Si Si1 0.465620 0.096087 0.834223
Si Si2 0.264422 0.411426 0.153900
Si Si3 0.131396 0.514452 0.528262
Si Si4 0.094638 0.402050 0.036311
O O1 0.484405 0.250000 0.787974
O O2 0.415849 0.104564 0.989455
O O3 0.500000 0.000000 0.000000
O O4 0.446962 0.013749 0.582706
O O5 0.243778 0.504191 0.919142
O O6 0.247853 0.250000 0.163324
O O7 0.320789 0.409537 0.097991
O O8 0.133783 0.436946 0.254237
O O9 0.117761 0.413158 0.759619
O O10 0.075625 0.250000 0.089151
#
# Coordination Sequence:
#
# PCOD9466689 Si02
#       4
#     8   8   8   8
#     4  10  23  42  67  99 136 177 225 274 333 402
#     4  12  27  47  72 104 140 183 233 291 353 419
#     4  10  24  43  69  95 138 174 221 273 341 404
#     4  10  22  40  68  98 131 173 221 272 328 392
#
# _framework density 22.627949000000001
#
# number of rings (size 3 to 8) (size 9 to 14) (size 15 to 20)
#    1.500    0.000    0.000    4.500    0.000    9.000 
#    0.000    0.000    0.000    0.000    0.000    0.000 
#    0.000    0.000    0.000    0.000    0.000    0.000 
#
# Total GULP energy -178497.356444 kJ/mol
# GULP energy per Si atom -5578.042389 kJ/mol
# Density = 2.257645 g / cm^3
# Si number density = 22.627949 Si / 1000 Ang^3
#
#
#
# Elastic Constant Matrix: (Units=GPa)
#
#
# Indices 1 2 3 4 5 6 
#
# 1 80.3632 14.4933 -11.2115 0.0000 0.0000 0.0000
# 2 14.4933 187.0716 30.6879 0.0000 0.0000 0.0000
# 3 -11.2115 30.6879 106.7758 0.0000 0.0000 0.0000
# 4 0.0000 0.0000 0.0000 5.2519 0.0000 0.0000
# 5 0.0000 0.0000 0.0000 0.0000 33.8422 0.0000
# 6 0.0000 0.0000 0.0000 0.0000 0.0000 6.0964
#
#
#
# Elastic Compliance Matrix: (Units=1/GPa)
#
#
# Indices 1 2 3 4 5 6 
#
# 1 0.012916 -0.001284 0.001725 0.000000 0.000000 0.000000
# 2 -0.001284 0.005738 -0.001784 0.000000 0.000000 0.000000
# 3 0.001725 -0.001784 0.010059 0.000000 0.000000 0.000000
# 4 0.000000 0.000000 0.000000 0.190408 0.000000 0.000000
# 5 0.000000 0.000000 0.000000 0.000000 0.029549 0.000000
# 6 0.000000 0.000000 0.000000 0.000000 0.000000 0.164031
#
#
# Mechanical properties :
#
#
# Convention : Reuss Voigt Hill
#
# Bulk Modulus (GPa) = 38.42044 49.12776 43.77410
# Shear Modulus (GPa) = 11.79076 31.72083 21.75579
#
# Velocity S-wave (km/s) = 2.28517 3.74818 3.10410
# Velocity P-wave (km/s) = 4.89681 6.36318 5.67753
#
# Compressibility (1/GPa) = 0.02602781
#
# Stress axis : x y z
#
# Youngs Moduli (GPa) = 77.42534 174.28836 99.41119
#
# Poissons Ratio (x) = 0.22372 -0.17149
# Poissons Ratio (y) = 0.09938 0.17733
# Poissons Ratio (z) = -0.13356 0.31090
#
# Static dielectric constant tensor:
#      x y z
#    x 1.868810 0.000000 0.000000 
#    y 0.000000 1.824710 0.000000 
#    z 0.000000 0.000000 1.843800 
# 
# From -- ./inp_files/3458.got.cif
#   From: 2010.05.17/outbox.cif.g08.bks.cpg/sg62_2_cif.got.tgz:3458.got - 2010.06.03 15:25:27.
