data_PCOD9466172
_publ_section_title
;
Structure prediction by ZEFSAII (Michael W. Deem and Ramdas Pophale) SiO2 
 PCOD9466172
Probable space group: P N M A
;
_chemical_formula_sum "Si O2"
_cell_formula_units_Z 48
_cell_length_a 17.058282
_cell_length_b 8.572973
_cell_length_c 18.381269
_cell_angle_alpha 90.000000
_cell_angle_beta 90.000000
_cell_angle_gamma 90.000000
_cell_volume 2688.080290
_symmetry_space_group_name_H-M "P N M A"
_symmetry_group_IT_number 62
_symmetry_cell_setting 'orthorhombic'
loop_
_space_group_symop_operation_xyz
x,y,z
1/2-x,-y,1/2+z
1/2+x,1/2-y,1/2-z
-x,1/2+y,-z
-x,-y,-z
1/2+x,y,1/2-z
1/2-x,1/2+y,1/2+z
x,1/2-y,z
loop_
_atom_site_type_symbol
_atom_site_label
_atom_site_fract_x
_atom_site_fract_y
_atom_site_fract_z
Si Si1 0.736987 0.061517 0.446209
Si Si2 0.663955 0.437460 0.666554
Si Si3 0.177759 0.561211 0.405242
Si Si4 0.584977 0.935870 0.521262
Si Si5 0.642016 0.562949 0.826508
Si Si6 0.004065 0.561910 0.417815
O O1 0.730142 0.250000 0.447347
O O2 0.794053 0.016066 0.513589
O O3 0.780365 0.014102 0.372129
O O4 0.652386 0.991789 0.464940
O O5 0.660878 0.250000 0.664413
O O6 0.753218 0.489312 0.648485
O O7 0.611442 0.500834 0.600340
O O8 0.640789 0.496901 0.745500
O O9 0.176881 0.750000 0.404576
O O10 0.089760 0.510542 0.388882
O O11 0.583400 0.750000 0.522812
O O12 0.500000 0.000000 0.500000
O O13 0.641404 0.750000 0.824576
O O14 0.566738 0.504935 0.870998
O O15 0.000258 0.750000 0.418058
O O16 0.000000 0.500000 0.500000
#
# Coordination Sequence:
#
# PCOD9466172 Si02
#       6
#     8   8   8   8   8   8
#     4   9  18  36  59  81 113 152 190 235 284 335
#     4  10  21  40  61  83 114 154 193 240 294 341
#     4   8  16  34  57  79 108 148 188 228 279 335
#     4  11  22  39  63  89 114 149 197 242 290 346
#     4  11  22  38  57  85 121 156 192 238 291 345
#     4  11  20  34  57  87 118 154 192 236 288 345
#
# _framework density 17.856608999999999
#
# number of rings (size 3 to 8) (size 9 to 14) (size 15 to 20)
#    0.000    2.000    1.667    4.000    0.000    1.333 
#    3.000    2.500    0.000    0.000    0.000    0.000 
#    0.000    0.000    0.000    0.000    0.000    0.000 
#
# Total GULP energy -267871.386686 kJ/mol
# GULP energy per Si atom -5580.653889 kJ/mol
# Density = 1.781597 g / cm^3
# Si number density = 17.856609 Si / 1000 Ang^3
#
#
#
# Elastic Constant Matrix: (Units=GPa)
#
#
# Indices 1 2 3 4 5 6 
#
# 1 173.5884 51.0230 90.5932 0.0000 0.0000 0.0000
# 2 51.0230 75.3707 44.0335 0.0000 0.0000 0.0000
# 3 90.5932 44.0335 129.9557 0.0000 0.0000 0.0000
# 4 0.0000 0.0000 0.0000 29.4851 0.0000 0.0000
# 5 0.0000 0.0000 0.0000 0.0000 24.0939 0.0000
# 6 0.0000 0.0000 0.0000 0.0000 0.0000 27.9725
#
#
#
# Elastic Compliance Matrix: (Units=1/GPa)
#
#
# Indices 1 2 3 4 5 6 
#
# 1 0.009653 -0.003246 -0.005629 0.000000 0.000000 0.000000
# 2 -0.003246 0.017634 -0.003712 0.000000 0.000000 0.000000
# 3 -0.005629 -0.003712 0.012877 0.000000 0.000000 0.000000
# 4 0.000000 0.000000 0.000000 0.033915 0.000000 0.000000
# 5 0.000000 0.000000 0.000000 0.000000 0.041504 0.000000
# 6 0.000000 0.000000 0.000000 0.000000 0.000000 0.035749
#
#
# Mechanical properties :
#
#
# Convention : Reuss Voigt Hill
#
# Bulk Modulus (GPa) = 66.71583 83.35712 75.03647
# Shear Modulus (GPa) = 27.54776 29.19463 28.37119
#
# Velocity S-wave (km/s) = 3.93201 4.04784 3.99034
# Velocity P-wave (km/s) = 7.61954 8.28428 7.95885
#
# Compressibility (1/GPa) = 0.01498895
#
# Stress axis : x y z
#
# Youngs Moduli (GPa) = 103.60000 56.70920 77.65855
#
# Poissons Ratio (x) = 0.18406 0.43715
# Poissons Ratio (y) = 0.33626 0.28829
# Poissons Ratio (z) = 0.58317 0.21052
#
# Static dielectric constant tensor:
#      x y z
#    x 1.616040 0.000000 0.000000 
#    y 0.000000 1.604120 0.000000 
#    z 0.000000 0.000000 1.584420 
# 
# From -- ./inp_files/24235.got.cif
#   From: 2010.05.17/outbox.cif.g08.bks.cpg/sg62_13_cif.got.tgz:24235.got - 2010.06.03 15:25:27.
