data_PCOD9466058
_publ_section_title
;
Structure prediction by ZEFSAII (Michael W. Deem and Ramdas Pophale) SiO2 
 PCOD9466058
Probable space group: P N M A
;
_chemical_formula_sum "Si O2"
_cell_formula_units_Z 40
_cell_length_a 15.795362
_cell_length_b 24.768823
_cell_length_c 5.003978
_cell_angle_alpha 90.000000
_cell_angle_beta 90.000000
_cell_angle_gamma 90.000000
_cell_volume 1957.718951
_symmetry_space_group_name_H-M "P N M A"
_symmetry_group_IT_number 62
_symmetry_cell_setting 'orthorhombic'
loop_
_space_group_symop_operation_xyz
x,y,z
1/2-x,-y,1/2+z
1/2+x,1/2-y,1/2-z
-x,1/2+y,-z
-x,-y,-z
1/2+x,y,1/2-z
1/2-x,1/2+y,1/2+z
x,1/2-y,z
loop_
_atom_site_type_symbol
_atom_site_label
_atom_site_fract_x
_atom_site_fract_y
_atom_site_fract_z
Si Si1 0.390517 0.686053 0.665989
Si Si2 0.581051 0.471910 0.131386
Si Si3 0.856486 0.413957 0.654986
Si Si4 0.174741 0.124439 0.654624
Si Si5 0.035890 0.611927 0.856483
O O1 0.384190 0.750000 0.661642
O O2 0.327414 0.660055 0.884490
O O3 0.485238 0.664999 0.733429
O O4 0.371660 0.659766 0.378774
O O5 0.639983 0.521589 0.214662
O O6 0.627939 0.430714 0.933941
O O7 0.536950 0.434441 0.353363
O O8 0.500000 0.500000 0.000000
O O9 0.891131 0.403646 0.356382
O O10 0.765277 0.390910 0.724521
O O11 0.923170 0.386231 0.854602
#
# Coordination Sequence:
#
# PCOD9466058 Si02
#       5
#     8   8   8   8   8
#     4  11  23  44  65  84 115 163 211 256 303 359
#     4   9  20  36  59  87 122 161 193 232 290 362
#     4  11  22  38  59  92 128 155 191 250 306 360
#     4  11  24  39  62  94 125 159 203 250 306 367
#     4  10  21  39  61  87 118 158 206 244 293 364
#
# _framework density 20.431943
#
# number of rings (size 3 to 8) (size 9 to 14) (size 15 to 20)
#    0.000    1.600    0.000    6.000    0.000   11.200 
#    0.000    6.000    0.000    0.000    0.000    0.000 
#    0.000    0.000    0.000    0.000    0.000    0.000 
#
# Total GULP energy -223426.683695 kJ/mol
# GULP energy per Si atom -5585.667092 kJ/mol
# Density = 2.038544 g / cm^3
# Si number density = 20.431943 Si / 1000 Ang^3
#
#
#
# Elastic Constant Matrix: (Units=GPa)
#
#
# Indices 1 2 3 4 5 6 
#
# 1 67.7739 55.5318 6.4082 0.0000 0.0000 0.0000
# 2 55.5318 132.1301 10.7643 0.0000 0.0000 0.0000
# 3 6.4082 10.7643 66.2414 0.0000 0.0000 0.0000
# 4 0.0000 0.0000 0.0000 18.4522 0.0000 0.0000
# 5 0.0000 0.0000 0.0000 0.0000 29.9882 0.0000
# 6 0.0000 0.0000 0.0000 0.0000 0.0000 14.8307
#
#
#
# Elastic Compliance Matrix: (Units=1/GPa)
#
#
# Indices 1 2 3 4 5 6 
#
# 1 0.022532 -0.009417 -0.000649 0.000000 0.000000 0.000000
# 2 -0.009417 0.011606 -0.000975 0.000000 0.000000 0.000000
# 3 -0.000649 -0.000975 0.015318 0.000000 0.000000 0.000000
# 4 0.000000 0.000000 0.000000 0.054194 0.000000 0.000000
# 5 0.000000 0.000000 0.000000 0.000000 0.033346 0.000000
# 6 0.000000 0.000000 0.000000 0.000000 0.000000 0.067428
#
#
# Mechanical properties :
#
#
# Convention : Reuss Voigt Hill
#
# Bulk Modulus (GPa) = 36.53291 45.72821 41.13056
# Shear Modulus (GPa) = 21.21965 25.55031 23.38498
#
# Velocity S-wave (km/s) = 3.22615 3.54009 3.38676
# Velocity P-wave (km/s) = 5.63884 6.25611 5.95548
#
# Compressibility (1/GPa) = 0.02737258
#
# Stress axis : x y z
#
# Youngs Moduli (GPa) = 44.38067 86.16603 65.28462
#
# Poissons Ratio (x) = 0.81143 0.04240
# Poissons Ratio (y) = 0.41793 0.06365
# Poissons Ratio (z) = 0.02883 0.08400
#
# Static dielectric constant tensor:
#      x y z
#    x 1.738540 0.000000 0.000000 
#    y 0.000000 1.737670 0.000000 
#    z 0.000000 0.000000 1.751150 
# 
# From -- ./inp_files/1046.got.cif
#   From: 2010.05.17/outbox.cif.g08.bks.cpg/sg62_1_cif.got.tgz:1046.got - 2010.06.03 15:25:27.
