data_PCOD9467828
_publ_section_title
;
Structure prediction by ZEFSAII (Michael W. Deem and Ramdas Pophale) SiO2 
 PCOD9467828
Probable space group: P N M A
;
_chemical_formula_sum "Si O2"
_cell_formula_units_Z 64
_cell_length_a 21.000000
_cell_length_b 9.000000
_cell_length_c 18.000000
_cell_angle_alpha 90.000000
_cell_angle_beta 90.000000
_cell_angle_gamma 90.000000
_cell_volume 3402.000000
_symmetry_space_group_name_H-M "P N M A"
_symmetry_group_IT_number 62
_symmetry_cell_setting 'orthorhombic'
loop_
_space_group_symop_operation_xyz
x,y,z
1/2-x,-y,1/2+z
1/2+x,1/2-y,1/2-z
-x,1/2+y,-z
-x,-y,-z
1/2+x,y,1/2-z
1/2-x,1/2+y,1/2+z
x,1/2-y,z
loop_
_atom_site_type_symbol
_atom_site_label
_atom_site_fract_x
_atom_site_fract_y
_atom_site_fract_z
Si Si1 0.940359 0.572600 0.957123
Si Si2 0.900970 0.070700 0.295605
Si Si3 0.351123 0.077390 0.780636
Si Si4 0.026142 0.072844 0.216161
Si Si5 0.698922 0.928263 0.469942
Si Si6 0.310327 0.076860 0.951379
Si Si7 0.061820 0.570931 0.537976
Si Si8 0.255337 0.070598 0.180126
O O1 0.936927 0.750000 0.971637
O O2 0.954774 0.551721 0.869514
O O3 0.872151 0.497116 0.975366
O O4 0.000000 0.500000 0.000000
O O5 0.897307 0.250000 0.291218
O O6 0.931463 0.032051 0.375382
O O7 0.826912 0.021993 0.295406
O O8 0.953649 0.023800 0.234852
O O9 0.348398 0.250000 0.755957
O O10 0.333827 0.071624 0.867034
O O11 0.421005 0.012548 0.764172
O O12 0.298290 0.981594 0.737703
O O13 0.030318 0.250000 0.232258
O O14 0.694822 0.750000 0.466401
O O15 0.747043 0.981591 0.534564
O O16 0.733534 0.995335 0.396835
O O17 0.296661 0.250000 0.971010
O O18 0.371096 0.026850 0.000167
O O19 0.057094 0.750000 0.531479
O O20 0.000000 0.500000 0.500000
O O21 0.254922 0.250000 0.171872
#
# Coordination Sequence:
#
# PCOD9467828 Si02
#       8
#     8   8   8   8   8   8   8   8
#     4  11  24  42  66  94 127 167 212 262 321 379
#     4   9  19  36  60  86 115 154 202 247 296 364
#     4  11  23  38  60  92 126 161 205 256 308 375
#     4  10  21  39  63  90 123 165 208 255 310 375
#     4  12  24  40  65  93 123 161 214 268 314 378
#     4  10  22  40  60  87 126 165 204 253 317 376
#     4  10  19  34  55  81 117 158 197 242 296 358
#     4  11  21  39  64  87 121 167 207 253 313 373
#
# _framework density 18.812463000000001
#
# number of rings (size 3 to 8) (size 9 to 14) (size 15 to 20)
#    0.000    1.500    2.500    3.000    0.000    3.000 
#    0.000    2.500    0.000    0.000    0.000    0.000 
#    0.000    0.000    0.000    0.000    0.000    0.000 
#
# Total GULP energy -357438.708458 kJ/mol
# GULP energy per Si atom -5584.979820 kJ/mol
# Density = 1.876965 g / cm^3
# Si number density = 18.812463 Si / 1000 Ang^3
#
#
#
# Elastic Constant Matrix: (Units=GPa)
#
#
# Indices 1 2 3 4 5 6 
#
# 1 176.8942 60.8815 29.5352 0.0000 0.0000 0.0000
# 2 60.8815 95.2332 29.1542 0.0000 0.0000 0.0000
# 3 29.5352 29.1542 40.5731 0.0000 0.0000 0.0000
# 4 0.0000 0.0000 0.0000 22.9142 0.0000 0.0000
# 5 0.0000 0.0000 0.0000 0.0000 41.9563 0.0000
# 6 0.0000 0.0000 0.0000 0.0000 0.0000 36.3271
#
#
#
# Elastic Compliance Matrix: (Units=1/GPa)
#
#
# Indices 1 2 3 4 5 6 
#
# 1 0.007450 -0.003978 -0.002565 0.000000 0.000000 0.000000
# 2 -0.003978 0.015585 -0.008304 0.000000 0.000000 0.000000
# 3 -0.002565 -0.008304 0.032481 0.000000 0.000000 0.000000
# 4 0.000000 0.000000 0.000000 0.043641 0.000000 0.000000
# 5 0.000000 0.000000 0.000000 0.000000 0.023834 0.000000
# 6 0.000000 0.000000 0.000000 0.000000 0.000000 0.027528
#
#
# Mechanical properties :
#
#
# Convention : Reuss Voigt Hill
#
# Bulk Modulus (GPa) = 38.72418 61.31583 50.02000
# Shear Modulus (GPa) = 26.48019 33.11484 29.79751
#
# Velocity S-wave (km/s) = 3.75585 4.20010 3.98417
# Velocity P-wave (km/s) = 6.27993 7.49567 6.91457
#
# Compressibility (1/GPa) = 0.02582366
#
# Stress axis : x y z
#
# Youngs Moduli (GPa) = 134.22113 64.16278 30.78737
#
# Poissons Ratio (x) = 0.25521 0.07898
# Poissons Ratio (y) = 0.53388 0.25564
# Poissons Ratio (z) = 0.34433 0.53278
#
# Static dielectric constant tensor:
#      x y z
#    x 1.633170 0.000000 0.000000 
#    y 0.000000 1.640260 0.000000 
#    z 0.000000 0.000000 1.685740 
# 
# From -- ./inp_files/24719.got.cif
#   From: 2010.05.17/outbox.ucp.g08.bks.cvg/sg62_13_cif.got.tgz:24719.got - 2010.06.11 16:29:25.
