data_PCOD9467544
_publ_section_title
;
Structure prediction by ZEFSAII (Michael W. Deem and Ramdas Pophale) SiO2 
 PCOD9467544
Probable space group: P N M A
;
_chemical_formula_sum "Si O2"
_cell_formula_units_Z 28
_cell_length_a 9.983919
_cell_length_b 13.027946
_cell_length_c 9.632830
_cell_angle_alpha 90.000000
_cell_angle_beta 90.000000
_cell_angle_gamma 90.000000
_cell_volume 1252.941790
_symmetry_space_group_name_H-M "P N M A"
_symmetry_group_IT_number 62
_symmetry_cell_setting 'orthorhombic'
loop_
_space_group_symop_operation_xyz
x,y,z
1/2-x,-y,1/2+z
1/2+x,1/2-y,1/2-z
-x,1/2+y,-z
-x,-y,-z
1/2+x,y,1/2-z
1/2-x,1/2+y,1/2+z
x,1/2-y,z
loop_
_atom_site_type_symbol
_atom_site_label
_atom_site_fract_x
_atom_site_fract_y
_atom_site_fract_z
Si Si1 0.862162 0.250000 0.776792
Si Si2 0.752950 0.080790 0.244268
Si Si3 0.184373 0.250000 0.469681
Si Si4 0.137085 0.750000 0.547521
Si Si5 0.999243 0.964055 0.159056
O O1 0.948858 0.349969 0.816321
O O2 0.730488 0.250000 0.872549
O O3 0.327796 0.250000 0.885648
O O4 0.748106 0.152313 0.108547
O O5 0.803405 0.151704 0.371266
O O6 0.605442 0.039099 0.267996
O O7 0.854319 0.987445 0.222093
O O8 0.024916 0.250000 0.447033
O O9 0.000000 0.000000 0.000000
#
# Coordination Sequence:
#
# PCOD9467544 Si02
#       5
#     4   8   4   4   8
#     4  12  30  42  74 109 152 188 257 310 367 447
#     4  11  26  50  77 104 151 204 240 307 379 447
#     4  11  23  50  73 111 143 198 253 299 373 450
#     4  11  27  46  77 112 151 192 254 305 378 443
#     4  12  28  48  77 110 151 196 253 311 375 442
#
# _framework density 22.347407
#
# number of rings (size 3 to 8) (size 9 to 14) (size 15 to 20)
#    0.000    0.571    5.714    0.000    8.000    3.429 
#    0.000    0.000    0.000    0.000    0.000    0.000 
#    0.000    0.000    0.000    0.000    0.000    0.000 
#
# Total GULP energy -156941.089493 kJ/mol
# GULP energy per Si atom -5605.038910 kJ/mol
# Density = 2.229654 g / cm^3
# Si number density = 22.347407 Si / 1000 Ang^3
#
#
#
# Elastic Constant Matrix: (Units=GPa)
#
#
# Indices 1 2 3 4 5 6 
#
# 1 69.7289 -15.1855 2.5960 0.0000 0.0000 0.0000
# 2 -15.1855 86.1922 25.1509 0.0000 0.0000 0.0000
# 3 2.5960 25.1509 137.7098 0.0000 0.0000 0.0000
# 4 0.0000 0.0000 0.0000 7.7505 0.0000 0.0000
# 5 0.0000 0.0000 0.0000 0.0000 41.5998 0.0000
# 6 0.0000 0.0000 0.0000 0.0000 0.0000 -2.8723
#
#
#
# Elastic Compliance Matrix: (Units=1/GPa)
#
#
# Indices 1 2 3 4 5 6 
#
# 1 0.014998 0.002878 -0.000808 0.000000 0.000000 0.000000
# 2 0.002878 0.012807 -0.002393 0.000000 0.000000 0.000000
# 3 -0.000808 -0.002393 0.007714 0.000000 0.000000 0.000000
# 4 0.000000 0.000000 0.000000 0.129025 0.000000 0.000000
# 5 0.000000 0.000000 0.000000 0.000000 0.024039 0.000000
# 6 0.000000 0.000000 0.000000 0.000000 0.000000 -0.348150
#
#
# Mechanical properties :
#
#
# Convention : Reuss Voigt Hill
#
# Bulk Modulus (GPa) = 28.67577 35.41710 32.04644
# Shear Modulus (GPa) = -33.94521 28.03354 -2.95584
#
# Velocity S-wave (km/s) = -3.90163 3.54565 -1.15132
# Velocity P-wave (km/s) = 2.72715 5.71358 3.55019
#
# Compressibility (1/GPa) = 0.03487265
#
# Stress axis : x y z
#
# Youngs Moduli (GPa) = 66.67478 78.07941 129.63427
#
# Poissons Ratio (x) = -0.22474 0.10480
# Poissons Ratio (y) = -0.19191 0.31026
# Poissons Ratio (z) = 0.05390 0.18687
#
# Static dielectric constant tensor:
#      x y z
#    x 1.772870 0.000000 0.000000 
#    y 0.000000 1.788740 0.000000 
#    z 0.000000 0.000000 1.798010 
# 
# From -- ./inp_files/10902.got.cif
#   From: 2010.05.17/outbox.cif.g08.bks.cpg/sg62_6_cif.got.tgz:10902.got - 2010.06.03 15:25:27.
