data_PCOD9467801
_publ_section_title
;
Structure prediction by ZEFSAII (Michael W. Deem and Ramdas Pophale) SiO2 
 PCOD9467801
Probable space group: P N M A
;
_chemical_formula_sum "Si O2"
_cell_formula_units_Z 48
_cell_length_a 15.000000
_cell_length_b 9.000000
_cell_length_c 21.000000
_cell_angle_alpha 90.000000
_cell_angle_beta 90.000000
_cell_angle_gamma 90.000000
_cell_volume 2835.000000
_symmetry_space_group_name_H-M "P N M A"
_symmetry_group_IT_number 62
_symmetry_cell_setting 'orthorhombic'
loop_
_space_group_symop_operation_xyz
x,y,z
1/2-x,-y,1/2+z
1/2+x,1/2-y,1/2-z
-x,1/2+y,-z
-x,-y,-z
1/2+x,y,1/2-z
1/2-x,1/2+y,1/2+z
x,1/2-y,z
loop_
_atom_site_type_symbol
_atom_site_label
_atom_site_fract_x
_atom_site_fract_y
_atom_site_fract_z
Si Si1 0.940680 0.575369 0.053394
Si Si2 0.062963 0.072426 0.448012
Si Si3 0.263301 0.415943 0.450669
Si Si4 0.431625 0.927301 0.300370
Si Si5 0.572153 0.925279 0.189742
Si Si6 0.248882 0.583677 0.797321
O O1 0.955372 0.750000 0.051920
O O2 0.839401 0.533255 0.035985
O O3 0.955603 0.524639 0.127067
O O4 0.000000 0.500000 0.000000
O O5 0.052299 0.250000 0.444839
O O6 0.164300 0.042532 0.470796
O O7 0.051159 0.006975 0.376919
O O8 0.000000 0.000000 0.500000
O O9 0.286935 0.250000 0.474224
O O10 0.256526 0.406775 0.374111
O O11 0.415040 0.750000 0.303976
O O12 0.504552 0.955663 0.246918
O O13 0.342988 0.009950 0.278012
O O14 0.573894 0.750000 0.176809
O O15 0.667271 0.980714 0.214785
O O16 0.260858 0.750000 0.772213
#
# Coordination Sequence:
#
# PCOD9467801 Si02
#       6
#     8   8   8   8   8   8
#     4  10  19  32  51  74  99 128 164 204 246 294
#     4  10  20  34  53  77 103 132 167 207 250 296
#     4   8  16  31  49  70  96 127 163 200 241 291
#     4   9  19  34  52  74  99 131 168 204 247 298
#     4  10  19  33  53  75 101 133 168 207 250 299
#     4   9  17  30  50  74  99 129 165 206 249 296
#
# _framework density 16.931217
#
# number of rings (size 3 to 8) (size 9 to 14) (size 15 to 20)
#    0.000    2.667    0.000    3.000    0.000    6.667 
#    0.000    1.667    0.000    4.000    0.000    0.000 
#    0.000    0.000    0.000    0.000    0.000    0.000 
#
# Total GULP energy -267212.014459 kJ/mol
# GULP energy per Si atom -5566.916968 kJ/mol
# Density = 1.689268 g / cm^3
# Si number density = 16.931217 Si / 1000 Ang^3
#
#
#
# Elastic Constant Matrix: (Units=GPa)
#
#
# Indices 1 2 3 4 5 6 
#
# 1 101.5984 84.2200 53.1098 0.0000 0.0000 0.0000
# 2 84.2200 46.2370 66.1870 0.0000 0.0000 0.0000
# 3 53.1098 66.1870 65.6636 0.0000 0.0000 0.0000
# 4 0.0000 0.0000 0.0000 22.5885 0.0000 0.0000
# 5 0.0000 0.0000 0.0000 0.0000 34.8025 0.0000
# 6 0.0000 0.0000 0.0000 0.0000 0.0000 23.8672
#
#
#
# Elastic Compliance Matrix: (Units=1/GPa)
#
#
# Indices 1 2 3 4 5 6 
#
# 1 0.009558 0.014323 -0.022167 0.000000 0.000000 0.000000
# 2 0.014323 -0.027371 0.016004 0.000000 0.000000 0.000000
# 3 -0.022167 0.016004 0.017026 0.000000 0.000000 0.000000
# 4 0.000000 0.000000 0.000000 0.044270 0.000000 0.000000
# 5 0.000000 0.000000 0.000000 0.000000 0.028734 0.000000
# 6 0.000000 0.000000 0.000000 0.000000 0.000000 0.041898
#
#
# Mechanical properties :
#
#
# Convention : Reuss Voigt Hill
#
# Bulk Modulus (GPa) = 64.37872 68.94808 66.66340
# Shear Modulus (GPa) = 48.55581 16.91711 32.73646
#
# Velocity S-wave (km/s) = 5.36102 3.16439 4.40193
# Velocity P-wave (km/s) = 8.74225 7.35948 8.08050
#
# Compressibility (1/GPa) = 0.01553308
#
# Stress axis : x y z
#
# Youngs Moduli (GPa) = 104.62834 -36.53568 58.73205
#
# Poissons Ratio (x) = 0.52329 1.30193
# Poissons Ratio (y) = -1.49856 -0.93996
# Poissons Ratio (z) = 2.31932 0.58473
#
# Static dielectric constant tensor:
#      x y z
#    x 1.598490 0.000000 0.000000 
#    y 0.000000 1.579640 0.000000 
#    z 0.000000 0.000000 1.540720 
# 
# From -- ./inp_files/26854.got.cif
#   From: 2010.05.17/outbox.ucp.g08.bks.cvg/sg62_14_cif.got.tgz:26854.got - 2010.06.11 16:29:25.
