data_PCOD9467415
_publ_section_title
;
Structure prediction by ZEFSAII (Michael W. Deem and Ramdas Pophale) SiO2 
 PCOD9467415
Probable space group: P N M A
;
_chemical_formula_sum "Si O2"
_cell_formula_units_Z 48
_cell_length_a 14.253720
_cell_length_b 19.466369
_cell_length_c 8.914749
_cell_angle_alpha 90.000000
_cell_angle_beta 90.000000
_cell_angle_gamma 90.000000
_cell_volume 2473.559119
_symmetry_space_group_name_H-M "P N M A"
_symmetry_group_IT_number 62
_symmetry_cell_setting 'orthorhombic'
loop_
_space_group_symop_operation_xyz
x,y,z
1/2-x,-y,1/2+z
1/2+x,1/2-y,1/2-z
-x,1/2+y,-z
-x,-y,-z
1/2+x,y,1/2-z
1/2-x,1/2+y,1/2+z
x,1/2-y,z
loop_
_atom_site_type_symbol
_atom_site_label
_atom_site_fract_x
_atom_site_fract_y
_atom_site_fract_z
Si Si1 0.742755 0.898062 0.397298
Si Si2 0.439289 0.453071 0.897324
Si Si3 0.558826 0.049688 0.392728
Si Si4 0.456743 0.329452 0.515841
Si Si5 0.741269 0.031162 0.576966
Si Si6 0.433415 0.673489 0.180952
O O1 0.640174 0.861380 0.411903
O O2 0.828414 0.845052 0.374120
O O3 0.574463 0.002349 0.247678
O O4 0.656493 0.060062 0.479046
O O5 0.752805 0.449868 0.039048
O O6 0.497131 0.384666 0.875317
O O7 0.500000 0.500000 0.000000
O O8 0.340086 0.437474 0.970959
O O9 0.497541 0.119429 0.387892
O O10 0.737621 0.053181 0.751272
O O11 0.500000 0.000000 0.500000
O O12 0.439577 0.250000 0.472275
O O13 0.539723 0.328456 0.641674
O O14 0.456435 0.750000 0.129051
#
# Coordination Sequence:
#
# PCOD9467415 Si02
#       6
#     8   8   8   8   8   8
#     4  12  22  37  62  94 125 163 213 265 320 380
#     4  12  24  40  64  95 125 168 211 265 316 378
#     4  12  21  40  62  91 125 161 214 260 313 381
#     4  11  23  39  62  91 127 170 210 260 323 380
#     4  12  21  35  61  96 122 159 208 264 318 370
#     4  11  22  38  59  90 128 163 206 261 318 373
#
# _framework density 19.405237
#
# number of rings (size 3 to 8) (size 9 to 14) (size 15 to 20)
#    0.000    0.333   10.000    0.500    0.000    0.000 
#    0.000    1.667    0.000    0.000    0.000    0.000 
#    0.000    0.000    0.000    0.000    0.000    0.000 
#
# Total GULP energy -267301.309548 kJ/mol
# GULP energy per Si atom -5568.777282 kJ/mol
# Density = 1.936107 g / cm^3
# Si number density = 19.405237 Si / 1000 Ang^3
#
#
#
# Elastic Constant Matrix: (Units=GPa)
#
#
# Indices 1 2 3 4 5 6 
#
# 1 146.2239 53.4427 43.7376 0.0000 0.0000 0.0000
# 2 53.4427 165.1755 44.0591 0.0000 0.0000 0.0000
# 3 43.7376 44.0591 44.1307 0.0000 0.0000 0.0000
# 4 0.0000 0.0000 0.0000 23.8906 0.0000 0.0000
# 5 0.0000 0.0000 0.0000 0.0000 25.3230 0.0000
# 6 0.0000 0.0000 0.0000 0.0000 0.0000 23.7737
#
#
#
# Elastic Compliance Matrix: (Units=1/GPa)
#
#
# Indices 1 2 3 4 5 6 
#
# 1 0.009796 -0.000790 -0.008919 0.000000 0.000000 0.000000
# 2 -0.000790 0.008315 -0.007519 0.000000 0.000000 0.000000
# 3 -0.008919 -0.007519 0.039006 0.000000 0.000000 0.000000
# 4 0.000000 0.000000 0.000000 0.041858 0.000000 0.000000
# 5 0.000000 0.000000 0.000000 0.000000 0.039490 0.000000
# 6 0.000000 0.000000 0.000000 0.000000 0.000000 0.042063
#
#
# Mechanical properties :
#
#
# Convention : Reuss Voigt Hill
#
# Bulk Modulus (GPa) = 44.12923 70.88989 57.50956
# Shear Modulus (GPa) = 22.46807 28.88351 25.67579
#
# Velocity S-wave (km/s) = 3.40639 3.86221 3.64144
# Velocity P-wave (km/s) = 6.18559 7.51662 6.88335
#
# Compressibility (1/GPa) = 0.02266072
#
# Stress axis : x y z
#
# Youngs Moduli (GPa) = 102.08725 120.25901 25.63683
#
# Poissons Ratio (x) = 0.09503 0.22866
# Poissons Ratio (y) = 0.08067 0.19276
# Poissons Ratio (z) = 0.91055 0.90419
#
# Static dielectric constant tensor:
#      x y z
#    x 1.736780 0.000000 0.000000 
#    y 0.000000 1.712950 0.000000 
#    z 0.000000 0.000000 1.730320 
# 
# From -- ./inp_files/12364.got.cif
#   From: 2010.05.17/outbox.cif.g08.bks.cpg/sg62_7_cif.got.tgz:12364.got - 2010.06.03 15:25:27.
