data_PCOD9467548
_publ_section_title
;
Structure prediction by ZEFSAII (Michael W. Deem and Ramdas Pophale) SiO2 
 PCOD9467548
Probable space group: P N M A
;
_chemical_formula_sum "Si O2"
_cell_formula_units_Z 48
_cell_length_a 8.570127
_cell_length_b 26.343559
_cell_length_c 8.702401
_cell_angle_alpha 90.000000
_cell_angle_beta 90.000000
_cell_angle_gamma 90.000000
_cell_volume 1964.720591
_symmetry_space_group_name_H-M "P N M A"
_symmetry_group_IT_number 62
_symmetry_cell_setting 'orthorhombic'
loop_
_space_group_symop_operation_xyz
x,y,z
1/2-x,-y,1/2+z
1/2+x,1/2-y,1/2-z
-x,1/2+y,-z
-x,-y,-z
1/2+x,y,1/2-z
1/2-x,1/2+y,1/2+z
x,1/2-y,z
loop_
_atom_site_type_symbol
_atom_site_label
_atom_site_fract_x
_atom_site_fract_y
_atom_site_fract_z
Si Si1 0.760162 0.469454 0.621312
Si Si2 0.271223 0.874796 0.163480
Si Si3 0.980134 0.807367 0.121287
Si Si4 0.259036 0.192939 0.158321
Si Si5 0.048966 0.126931 0.370989
Si Si6 0.372603 0.464192 0.226973
O O1 0.780596 0.418349 0.716393
O O2 0.799906 0.524664 0.695379
O O3 0.580909 0.486169 0.670673
O O4 0.831141 0.467940 0.453453
O O5 0.372858 0.832360 0.249015
O O6 0.121798 0.845805 0.098905
O O7 0.378723 0.895853 0.026525
O O8 0.031230 0.750000 0.160063
O O9 0.873155 0.805116 0.971142
O O10 0.292714 0.250000 0.214017
O O11 0.413677 0.167554 0.089926
O O12 0.185306 0.157402 0.287411
O O13 0.959569 0.088093 0.257208
#
# Coordination Sequence:
#
# PCOD9467548 Si02
#       6
#     8   8   8   8   8   8
#     4  11  24  43  67  98 134 174 223 276 332 397
#     4  12  24  42  68  97 135 179 226 280 338 403
#     4  11  24  41  64  97 135 177 225 277 336 400
#     4  11  25  44  68 101 137 176 227 281 336 402
#     4  12  25  44  70  98 133 176 224 278 337 401
#     4  11  24  43  67  98 134 174 221 274 333 398
#
# _framework density 24.430955999999998
#
# number of rings (size 3 to 8) (size 9 to 14) (size 15 to 20)
#    0.000    0.667    0.000    9.000    0.000    7.333 
#    0.000    0.000    0.000    0.000    0.000    0.000 
#    0.000    0.000    0.000    0.000    0.000    0.000 
#
# Total GULP energy -267277.564779 kJ/mol
# GULP energy per Si atom -5568.282600 kJ/mol
# Density = 2.437535 g / cm^3
# Si number density = 24.430956 Si / 1000 Ang^3
#
#
#
# Elastic Constant Matrix: (Units=GPa)
#
#
# Indices 1 2 3 4 5 6 
#
# 1 68.0633 11.0104 20.7367 0.0000 0.0000 0.0000
# 2 11.0104 90.2230 34.7999 0.0000 0.0000 0.0000
# 3 20.7367 34.7999 92.8039 0.0000 0.0000 0.0000
# 4 0.0000 0.0000 0.0000 31.9244 0.0000 0.0000
# 5 0.0000 0.0000 0.0000 0.0000 542.6454 0.0000
# 6 0.0000 0.0000 0.0000 0.0000 0.0000 113.4156
#
#
#
# Elastic Compliance Matrix: (Units=1/GPa)
#
#
# Indices 1 2 3 4 5 6 
#
# 1 0.015799 -0.000662 -0.003282 0.000000 0.000000 0.000000
# 2 -0.000662 0.012986 -0.004721 0.000000 0.000000 0.000000
# 3 -0.003282 -0.004721 0.013279 0.000000 0.000000 0.000000
# 4 0.000000 0.000000 0.000000 0.031324 0.000000 0.000000
# 5 0.000000 0.000000 0.000000 0.000000 0.001843 0.000000
# 6 0.000000 0.000000 0.000000 0.000000 0.000000 0.008817
#
#
# Mechanical properties :
#
#
# Convention : Reuss Voigt Hill
#
# Bulk Modulus (GPa) = 40.43200 42.68713 41.55957
# Shear Modulus (GPa) = 45.61073 149.89996 97.75535
#
# Velocity S-wave (km/s) = 4.32548 7.84154 6.33244
# Velocity P-wave (km/s) = 6.44452 9.97481 8.39728
#
# Compressibility (1/GPa) = 0.02473288
#
# Stress axis : x y z
#
# Youngs Moduli (GPa) = 63.29418 77.00871 75.30580
#
# Poissons Ratio (x) = 0.05099 0.24715
# Poissons Ratio (y) = 0.04191 0.35555
# Poissons Ratio (z) = 0.20773 0.36359
#
# Static dielectric constant tensor:
#      x y z
#    x 1.970440 0.000000 0.000000 
#    y 0.000000 1.918620 0.000000 
#    z 0.000000 0.000000 1.871740 
# 
# From -- ./inp_files/11286.got.cif
#   From: 2010.05.17/outbox.cif.g08.bks.cpg/sg62_6_cif.got.tgz:11286.got - 2010.06.03 15:25:27.
