data_PCOD9467283
_publ_section_title
;
Structure prediction by ZEFSAII (Michael W. Deem and Ramdas Pophale) SiO2 
 PCOD9467283
Probable space group: P N M A
;
_chemical_formula_sum "Si O2"
_cell_formula_units_Z 48
_cell_length_a 16.075743
_cell_length_b 11.206350
_cell_length_c 12.941563
_cell_angle_alpha 90.000000
_cell_angle_beta 90.000000
_cell_angle_gamma 90.000000
_cell_volume 2331.427784
_symmetry_space_group_name_H-M "P N M A"
_symmetry_group_IT_number 62
_symmetry_cell_setting 'orthorhombic'
loop_
_space_group_symop_operation_xyz
x,y,z
1/2-x,-y,1/2+z
1/2+x,1/2-y,1/2-z
-x,1/2+y,-z
-x,-y,-z
1/2+x,y,1/2-z
1/2-x,1/2+y,1/2+z
x,1/2-y,z
loop_
_atom_site_type_symbol
_atom_site_label
_atom_site_fract_x
_atom_site_fract_y
_atom_site_fract_z
Si Si1 0.727950 0.018201 0.594115
Si Si2 0.592334 0.750000 0.384610
Si Si3 0.617022 0.250000 0.882765
Si Si4 0.261511 0.250000 0.444936
Si Si5 0.014597 0.494036 0.654310
Si Si6 0.263291 0.250000 0.777038
Si Si7 0.878305 0.108337 0.515155
Si Si8 0.532309 0.465653 0.612854
O O1 0.762896 0.122423 0.666836
O O2 0.787383 0.048562 0.495836
O O3 0.630512 0.047336 0.592795
O O4 0.737434 0.876832 0.614543
O O5 0.652141 0.750000 0.486516
O O6 0.658077 0.750000 0.294869
O O7 0.529104 0.856611 0.370077
O O8 0.561649 0.131654 0.870177
O O9 0.678930 0.250000 0.787109
O O10 0.678799 0.250000 0.982118
O O11 0.062362 0.588926 0.583231
O O12 0.021904 0.529368 0.774954
O O13 0.923619 0.467712 0.606483
O O14 0.873000 0.250000 0.536328
O O15 0.500000 0.500000 0.500000
#
# Coordination Sequence:
#
# PCOD9467283 Si02
#       8
#     8   4   4   4   8   4   8   8
#     4  12  23  43  68 106 139 188 242 300 363 434
#     4  11  24  45  71 100 136 194 245 299 358 438
#     4  11  19  40  68  98 128 180 235 291 348 419
#     4  11  24  41  68  96 150 183 229 303 377 424
#     4  11  23  43  69 101 140 180 239 297 360 427
#     4  11  23  40  77 102 134 183 255 297 347 429
#     4  11  24  42  71 104 140 185 237 300 361 430
#     4  12  25  44  69 102 142 189 241 297 359 437
#
# _framework density 20.588242999999999
#
# number of rings (size 3 to 8) (size 9 to 14) (size 15 to 20)
#    0.000    0.667    6.667    2.000    0.000    0.000 
#    6.000    0.000    0.000    2.000    0.000    0.000 
#    0.000    0.000    0.000    0.000    0.000    0.000 
#
# Total GULP energy -267210.412523 kJ/mol
# GULP energy per Si atom -5566.883594 kJ/mol
# Density = 2.054138 g / cm^3
# Si number density = 20.588243 Si / 1000 Ang^3
#
#
#
# Elastic Constant Matrix: (Units=GPa)
#
#
# Indices 1 2 3 4 5 6 
#
# 1 104.2298 31.7918 34.9162 0.0000 0.0000 0.0000
# 2 31.7918 117.7561 18.5847 0.0000 0.0000 0.0000
# 3 34.9162 18.5847 94.0298 0.0000 0.0000 0.0000
# 4 0.0000 0.0000 0.0000 11.7257 0.0000 0.0000
# 5 0.0000 0.0000 0.0000 0.0000 3.0747 0.0000
# 6 0.0000 0.0000 0.0000 0.0000 0.0000 29.4436
#
#
#
# Elastic Compliance Matrix: (Units=1/GPa)
#
#
# Indices 1 2 3 4 5 6 
#
# 1 0.011650 -0.002542 -0.003824 0.000000 0.000000 0.000000
# 2 -0.002542 0.009320 -0.000898 0.000000 0.000000 0.000000
# 3 -0.003824 -0.000898 0.012232 0.000000 0.000000 0.000000
# 4 0.000000 0.000000 0.000000 0.085283 0.000000 0.000000
# 5 0.000000 0.000000 0.000000 0.000000 0.325237 0.000000
# 6 0.000000 0.000000 0.000000 0.000000 0.000000 0.033963
#
#
# Mechanical properties :
#
#
# Convention : Reuss Voigt Hill
#
# Bulk Modulus (GPa) = 53.54706 54.06678 53.80692
# Shear Modulus (GPa) = 10.03131 24.23032 17.13081
#
# Velocity S-wave (km/s) = 2.20973 3.43432 2.88769
# Velocity P-wave (km/s) = 5.70750 6.48414 6.10818
#
# Compressibility (1/GPa) = 0.01867516
#
# Stress axis : x y z
#
# Youngs Moduli (GPa) = 85.83362 107.29441 81.75046
#
# Poissons Ratio (x) = 0.27273 0.31260
# Poissons Ratio (y) = 0.21818 0.07343
# Poissons Ratio (z) = 0.32821 0.09637
#
# Static dielectric constant tensor:
#      x y z
#    x 1.925950 0.000000 0.000000 
#    y 0.000000 1.737090 0.000000 
#    z 0.000000 0.000000 1.974750 
# 
# From -- ./inp_files/18963.got.cif
#   From: 2010.05.17/outbox.cif.g08.bks.cpg/sg62_10_cif.got.tgz:18963.got - 2010.06.03 15:25:27.
