data_PCOD9467716
_publ_section_title
;
Structure prediction by ZEFSAII (Michael W. Deem and Ramdas Pophale) SiO2 
 PCOD9467716
Probable space group: P N M A
;
_chemical_formula_sum "Si O2"
_cell_formula_units_Z 64
_cell_length_a 14.791951
_cell_length_b 11.435686
_cell_length_c 13.514896
_cell_angle_alpha 90.000000
_cell_angle_beta 90.000000
_cell_angle_gamma 90.000000
_cell_volume 2286.127193
_symmetry_space_group_name_H-M "P N M A"
_symmetry_group_IT_number 62
_symmetry_cell_setting 'orthorhombic'
loop_
_space_group_symop_operation_xyz
x,y,z
1/2-x,-y,1/2+z
1/2+x,1/2-y,1/2-z
-x,1/2+y,-z
-x,-y,-z
1/2+x,y,1/2-z
1/2-x,1/2+y,1/2+z
x,1/2-y,z
loop_
_atom_site_type_symbol
_atom_site_label
_atom_site_fract_x
_atom_site_fract_y
_atom_site_fract_z
Si Si1 0.789599 0.125204 0.962061
Si Si2 0.295176 0.377717 0.836310
Si Si3 0.445130 0.378099 0.162779
Si Si4 0.732780 0.877717 0.699315
Si Si5 0.983188 0.875437 0.866384
Si Si6 0.997038 0.122336 0.630156
Si Si7 0.992234 0.374969 0.870225
Si Si8 0.713791 0.375250 0.462012
O O1 0.746817 0.250000 0.934117
O O2 0.789079 0.123551 0.081936
O O3 0.745373 0.001082 0.934025
O O4 0.889492 0.124977 0.912300
O O5 0.293427 0.250000 0.784467
O O6 0.284391 0.500304 0.781054
O O7 0.390482 0.382422 0.893369
O O8 0.217779 0.374900 0.919162
O O9 0.450863 0.250000 0.113613
O O10 0.356582 0.381932 0.232924
O O11 0.522943 0.379157 0.247731
O O12 0.457607 0.498667 0.104059
O O13 0.776730 0.750000 0.718528
O O14 0.027609 0.750000 0.890031
O O15 0.029555 0.997151 0.897540
O O16 0.885567 0.874614 0.916275
O O17 0.033028 0.250000 0.597648
O O18 0.996707 0.126299 0.751080
O O19 0.031746 0.250000 0.902513
O O20 0.756584 0.250000 0.434114
#
# Coordination Sequence:
#
# PCOD9467716 Si02
#       8
#     8   8   8   8   8   8   8   8
#     4   8  13  22  35  50  70  95 121 152 189 226
#     4   9  17  28  40  54  74 102 136 170 199 228
#     4   9  17  28  41  58  80 105 133 165 199 234
#     4   9  17  28  41  58  80 105 133 165 199 234
#     4   8  13  22  35  50  70  95 121 152 189 226
#     4   9  17  28  40  54  74 102 136 170 199 228
#     4   8  13  22  35  50  69  95 126 157 188 222
#     4   8  13  22  35  50  69  95 126 157 188 222
#
# _framework density 27.994942000000002
#
# number of rings (size 3 to 8) (size 9 to 14) (size 15 to 20)
#    0.000    3.500    0.000    0.000    0.000    1.000 
#    0.000   10.000    0.000   15.000    0.000    0.000 
#    0.000    0.000    0.000   18.000    0.000  232.500 
#
# Total GULP energy -357339.742539 kJ/mol
# GULP energy per Si atom -5583.433477 kJ/mol
# Density = 2.793122 g / cm^3
# Si number density = 27.994942 Si / 1000 Ang^3
#
#
#
# Elastic Constant Matrix: (Units=GPa)
#
#
# Indices 1 2 3 4 5 6 
#
# 1 83.4686 68.8234 14.3391 0.0000 0.0000 0.0000
# 2 68.8234 433.3072 15.0885 0.0000 0.0000 0.0000
# 3 14.3391 15.0885 114.8944 0.0000 0.0000 0.0000
# 4 0.0000 0.0000 0.0000 -34.7045 0.0000 0.0000
# 5 0.0000 0.0000 0.0000 0.0000 32.4639 0.0000
# 6 0.0000 0.0000 0.0000 0.0000 0.0000 -38.6956
#
#
#
# Elastic Compliance Matrix: (Units=1/GPa)
#
#
# Indices 1 2 3 4 5 6 
#
# 1 0.014027 -0.002177 -0.001465 0.000000 0.000000 0.000000
# 2 -0.002177 0.002656 -0.000077 0.000000 0.000000 0.000000
# 3 -0.001465 -0.000077 0.008897 0.000000 0.000000 0.000000
# 4 0.000000 0.000000 0.000000 -0.028815 0.000000 0.000000
# 5 0.000000 0.000000 0.000000 0.000000 0.030803 0.000000
# 6 0.000000 0.000000 0.000000 0.000000 0.000000 -0.025843
#
#
# Mechanical properties :
#
#
# Convention : Reuss Voigt Hill
#
# Bulk Modulus (GPa) = 55.11969 92.01916 73.56942
# Shear Modulus (GPa) = 328.70458 27.37404 178.03931
#
# Velocity S-wave (km/s) = 10.84761 3.13041 7.98342
# Velocity P-wave (km/s) = 13.29007 6.78286 10.55067
#
# Compressibility (1/GPa) = 0.01814234
#
# Stress axis : x y z
#
# Youngs Moduli (GPa) = 71.29015 376.46460 112.40272
#
# Poissons Ratio (x) = 0.81955 0.16464
# Poissons Ratio (y) = 0.15520 0.00867
# Poissons Ratio (z) = 0.10442 0.02904
#
# Static dielectric constant tensor:
#      x y z
#    x 2.104630 0.000000 0.000000 
#    y 0.000000 2.210500 0.000000 
#    z 0.000000 0.000000 2.140970 
# 
# From -- ./inp_files/24482.got.cif
#   From: 2010.05.17/outbox.cif.g08.bks.cpg/sg62_13_cif.got.tgz:24482.got - 2010.06.03 15:25:27.
