data_PCOD9467287
_publ_section_title
;
Structure prediction by ZEFSAII (Michael W. Deem and Ramdas Pophale) SiO2 
 PCOD9467287
Probable space group: P N M A
;
_chemical_formula_sum "Si O2"
_cell_formula_units_Z 48
_cell_length_a 15.506879
_cell_length_b 7.686542
_cell_length_c 20.711258
_cell_angle_alpha 90.000000
_cell_angle_beta 90.000000
_cell_angle_gamma 90.000000
_cell_volume 2468.663417
_symmetry_space_group_name_H-M "P N M A"
_symmetry_group_IT_number 62
_symmetry_cell_setting 'orthorhombic'
loop_
_space_group_symop_operation_xyz
x,y,z
1/2-x,-y,1/2+z
1/2+x,1/2-y,1/2-z
-x,1/2+y,-z
-x,-y,-z
1/2+x,y,1/2-z
1/2-x,1/2+y,1/2+z
x,1/2-y,z
loop_
_atom_site_type_symbol
_atom_site_label
_atom_site_fract_x
_atom_site_fract_y
_atom_site_fract_z
Si Si1 0.612745 0.462701 0.813600
Si Si2 0.304887 0.461890 0.663230
Si Si3 0.507115 0.963859 0.303677
Si Si4 0.915983 0.541448 0.459176
Si Si5 0.561933 0.046370 0.559559
Si Si6 0.273102 0.459292 0.516529
O O1 0.612207 0.250000 0.813074
O O2 0.713044 0.516409 0.807428
O O3 0.550751 0.521717 0.756384
O O4 0.581680 0.519332 0.884789
O O5 0.304853 0.250000 0.663077
O O6 0.392645 0.517765 0.697573
O O7 0.305442 0.516183 0.587748
O O8 0.506290 0.750000 0.302681
O O9 0.467525 0.027999 0.371699
O O10 0.909708 0.750000 0.456170
O O11 0.825476 0.478619 0.489830
O O12 0.000000 0.500000 0.500000
O O13 0.552270 0.250000 0.567647
O O14 0.500000 0.000000 0.500000
O O15 0.659338 0.010036 0.537923
O O16 0.272566 0.250000 0.517917
#
# Coordination Sequence:
#
# PCOD9467287 Si02
#       6
#     8   8   8   8   8   8
#     4   8  15  28  45  68  94 124 162 198 241 287
#     4   8  13  25  45  63  88 125 157 190 237 286
#     4   9  16  27  44  68  95 123 159 205 245 279
#     4   9  18  33  54  75  98 130 165 201 243 293
#     4  11  20  30  48  75 102 127 161 204 247 291
#     4   9  17  32  50  69  97 132 163 194 242 297
#
# _framework density 19.443719999999999
#
# number of rings (size 3 to 8) (size 9 to 14) (size 15 to 20)
#    0.000    3.000    1.667    2.500    0.000    0.667 
#    3.000    0.000    0.000    2.000    0.000    0.000 
#    0.000    0.000    0.000    0.000    0.000    0.000 
#
# Total GULP energy -267563.698829 kJ/mol
# GULP energy per Si atom -5574.243726 kJ/mol
# Density = 1.939947 g / cm^3
# Si number density = 19.443720 Si / 1000 Ang^3
#
#
#
# Elastic Constant Matrix: (Units=GPa)
#
#
# Indices 1 2 3 4 5 6 
#
# 1 199.5311 2.1239 119.8370 0.0000 0.0000 0.0000
# 2 2.1239 28.7748 5.0299 0.0000 0.0000 0.0000
# 3 119.8370 5.0299 122.3987 0.0000 0.0000 0.0000
# 4 0.0000 0.0000 0.0000 13.6581 0.0000 0.0000
# 5 0.0000 0.0000 0.0000 0.0000 37.7556 0.0000
# 6 0.0000 0.0000 0.0000 0.0000 0.0000 18.6948
#
#
#
# Elastic Compliance Matrix: (Units=1/GPa)
#
#
# Indices 1 2 3 4 5 6 
#
# 1 0.012206 0.001197 -0.012000 0.000000 0.000000 0.000000
# 2 0.001197 0.035121 -0.002615 0.000000 0.000000 0.000000
# 3 -0.012000 -0.002615 0.020026 0.000000 0.000000 0.000000
# 4 0.000000 0.000000 0.000000 0.073217 0.000000 0.000000
# 5 0.000000 0.000000 0.000000 0.000000 0.026486 0.000000
# 6 0.000000 0.000000 0.000000 0.000000 0.000000 0.053491
#
#
# Mechanical properties :
#
#
# Convention : Reuss Voigt Hill
#
# Bulk Modulus (GPa) = 24.68067 67.18734 45.93401
# Shear Modulus (GPa) = 19.16529 28.93595 24.05062
#
# Velocity S-wave (km/s) = 3.14296 3.86189 3.52082
# Velocity P-wave (km/s) = 5.08841 7.38345 6.34063
#
# Compressibility (1/GPa) = 0.04051754
#
# Stress axis : x y z
#
# Youngs Moduli (GPa) = 81.92752 28.47268 49.93518
#
# Poissons Ratio (x) = -0.03407 0.59920
# Poissons Ratio (y) = -0.09804 0.13057
# Poissons Ratio (z) = 0.98310 0.07445
#
# Static dielectric constant tensor:
#      x y z
#    x 1.686710 0.000000 0.000000 
#    y 0.000000 1.754020 0.000000 
#    z 0.000000 0.000000 1.658650 
# 
# From -- ./inp_files/26861.got.cif
#   From: 2010.05.17/outbox.cif.g08.bks.cpg/sg62_14_cif.got.tgz:26861.got - 2010.06.03 15:25:27.
