data_PCOD9467289
_publ_section_title
;
Structure prediction by ZEFSAII (Michael W. Deem and Ramdas Pophale) SiO2 
 PCOD9467289
Probable space group: P N M A
;
_chemical_formula_sum "Si O2"
_cell_formula_units_Z 64
_cell_length_a 18.627473
_cell_length_b 20.007561
_cell_length_c 7.705192
_cell_angle_alpha 90.000000
_cell_angle_beta 90.000000
_cell_angle_gamma 90.000000
_cell_volume 2871.650336
_symmetry_space_group_name_H-M "P N M A"
_symmetry_group_IT_number 62
_symmetry_cell_setting 'orthorhombic'
loop_
_space_group_symop_operation_xyz
x,y,z
1/2-x,-y,1/2+z
1/2+x,1/2-y,1/2-z
-x,1/2+y,-z
-x,-y,-z
1/2+x,y,1/2-z
1/2-x,1/2+y,1/2+z
x,1/2-y,z
loop_
_atom_site_type_symbol
_atom_site_label
_atom_site_fract_x
_atom_site_fract_y
_atom_site_fract_z
Si Si1 0.581286 0.176551 0.689347
Si Si2 0.694985 0.824849 0.438597
Si Si3 0.259098 0.825082 0.448768
Si Si4 0.229513 0.536937 0.607536
Si Si5 0.605684 0.467274 0.100053
Si Si6 0.479759 0.961114 0.269340
Si Si7 0.355243 0.823234 0.918930
Si Si8 0.641956 0.535780 0.539162
O O1 0.551907 0.250000 0.647402
O O2 0.655920 0.166317 0.586560
O O3 0.528524 0.114747 0.666067
O O4 0.607486 0.178110 0.890707
O O5 0.665811 0.750000 0.466135
O O6 0.719796 0.830440 0.237752
O O7 0.770278 0.829939 0.543904
O O8 0.645342 0.886625 0.488297
O O9 0.246680 0.750000 0.515828
O O10 0.232559 0.884855 0.566144
O O11 0.178828 0.499879 0.468094
O O12 0.308997 0.506234 0.594521
O O13 0.189838 0.526353 0.787122
O O14 0.558941 0.512597 0.228573
O O15 0.617322 0.391397 0.166267
O O16 0.559789 0.462202 0.919440
O O17 0.434218 0.008055 0.397893
O O18 0.368701 0.750000 0.837215
#
# Coordination Sequence:
#
# PCOD9467289 Si02
#       8
#     8   8   8   8   8   8   8   8
#     4   8  13  24  44  67  90 121 163 201 235 284
#     4   9  17  31  51  74  99 129 167 207 248 297
#     4   9  17  31  51  74  99 129 167 207 248 297
#     4  11  20  31  50  75 103 130 163 207 253 299
#     4   9  17  29  45  69 100 130 163 207 250 288
#     4   9  17  29  45  69 100 130 163 207 250 288
#     4   8  13  24  44  67  90 121 163 201 235 284
#     4  11  20  31  50  75 103 130 163 207 253 299
#
# _framework density 22.286835
#
# number of rings (size 3 to 8) (size 9 to 14) (size 15 to 20)
#    0.000    2.750    2.500    2.250    0.000    0.500 
#    0.000    1.250    0.000    7.500    0.000    0.000 
#    0.000    0.000    0.000    0.000    0.000    0.000 
#
# Total GULP energy -357786.321393 kJ/mol
# GULP energy per Si atom -5590.411272 kJ/mol
# Density = 2.223611 g / cm^3
# Si number density = 22.286835 Si / 1000 Ang^3
#
#
#
# Elastic Constant Matrix: (Units=GPa)
#
#
# Indices 1 2 3 4 5 6 
#
# 1 108.5087 61.8143 16.6871 0.0000 0.0000 0.0000
# 2 61.8143 168.0674 15.3654 0.0000 0.0000 0.0000
# 3 16.6871 15.3654 56.0995 0.0000 0.0000 0.0000
# 4 0.0000 0.0000 0.0000 22.0899 0.0000 0.0000
# 5 0.0000 0.0000 0.0000 0.0000 24.7995 0.0000
# 6 0.0000 0.0000 0.0000 0.0000 0.0000 24.7552
#
#
#
# Elastic Compliance Matrix: (Units=1/GPa)
#
#
# Indices 1 2 3 4 5 6 
#
# 1 0.011969 -0.004181 -0.002415 0.000000 0.000000 0.000000
# 2 -0.004181 0.007564 -0.000828 0.000000 0.000000 0.000000
# 3 -0.002415 -0.000828 0.018771 0.000000 0.000000 0.000000
# 4 0.000000 0.000000 0.000000 0.045270 0.000000 0.000000
# 5 0.000000 0.000000 0.000000 0.000000 0.040323 0.000000
# 6 0.000000 0.000000 0.000000 0.000000 0.000000 0.040396
#
#
# Mechanical properties :
#
#
# Convention : Reuss Voigt Hill
#
# Bulk Modulus (GPa) = 42.63520 57.82324 50.22922
# Shear Modulus (GPa) = 26.74381 30.24948 28.49664
#
# Velocity S-wave (km/s) = 3.46783 3.68813 3.57967
# Velocity P-wave (km/s) = 5.93349 6.64362 6.29857
#
# Compressibility (1/GPa) = 0.02345480
#
# Stress axis : x y z
#
# Youngs Moduli (GPa) = 83.54698 132.21224 53.27484
#
# Poissons Ratio (x) = 0.55284 0.12866
# Poissons Ratio (y) = 0.34935 0.04410
# Poissons Ratio (z) = 0.20177 0.10945
#
# Static dielectric constant tensor:
#      x y z
#    x 1.784650 0.000000 0.000000 
#    y 0.000000 1.814760 0.000000 
#    z 0.000000 0.000000 1.887110 
# 
# From -- ./inp_files/8968.got.cif
#   From: 2010.05.17/outbox.cif.g08.bks.cpg/sg62_5_cif.got.tgz:8968.got - 2010.06.03 15:25:27.
