data_PCOD9467427
_publ_section_title
;
Structure prediction by ZEFSAII (Michael W. Deem and Ramdas Pophale) SiO2 
 PCOD9467427
Probable space group: P N M A
;
_chemical_formula_sum "Si O2"
_cell_formula_units_Z 48
_cell_length_a 9.517369
_cell_length_b 8.567749
_cell_length_c 31.836402
_cell_angle_alpha 90.000000
_cell_angle_beta 90.000000
_cell_angle_gamma 90.000000
_cell_volume 2596.017541
_symmetry_space_group_name_H-M "P N M A"
_symmetry_group_IT_number 62
_symmetry_cell_setting 'orthorhombic'
loop_
_space_group_symop_operation_xyz
x,y,z
1/2-x,-y,1/2+z
1/2+x,1/2-y,1/2-z
-x,1/2+y,-z
-x,-y,-z
1/2+x,y,1/2-z
1/2-x,1/2+y,1/2+z
x,1/2-y,z
loop_
_atom_site_type_symbol
_atom_site_label
_atom_site_fract_x
_atom_site_fract_y
_atom_site_fract_z
Si Si1 0.913071 0.435458 0.288196
Si Si2 0.588995 0.439778 0.632593
Si Si3 0.087616 0.438062 0.961188
Si Si4 0.588058 0.562401 0.038653
Si Si5 0.917135 0.439154 0.633315
Si Si6 0.403077 0.062371 0.711395
O O1 0.918003 0.250000 0.283580
O O2 0.752556 0.492728 0.286260
O O3 0.984297 0.486154 0.331932
O O4 0.004187 0.512957 0.251201
O O5 0.588210 0.250000 0.632687
O O6 0.543595 0.490056 0.585758
O O7 0.752594 0.483543 0.639605
O O8 0.486308 0.491423 0.669573
O O9 0.081679 0.250000 0.961529
O O10 0.249847 0.485670 0.966029
O O11 0.000000 0.500000 0.000000
O O12 0.583856 0.750000 0.038010
O O13 0.541948 0.515191 0.085664
O O14 0.500000 0.500000 0.000000
O O15 0.924963 0.250000 0.636535
O O16 0.391852 0.250000 0.710397
#
# Coordination Sequence:
#
# PCOD9467427 Si02
#       6
#     8   8   8   8   8   8
#     4  12  25  39  56  85 119 145 175 230 289 331
#     4   8  17  35  59  80 102 136 185 232 265 310
#     4   9  18  34  53  78 108 140 178 224 272 320
#     4   9  19  34  54  79 110 145 186 232 278 329
#     4   9  18  37  60  80 105 146 192 230 272 334
#     4  11  22  39  62  84 107 146 191 226 268 336
#
# _framework density 18.489861000000001
#
# number of rings (size 3 to 8) (size 9 to 14) (size 15 to 20)
#    0.000    2.333    0.000    5.000    0.000    4.000 
#    0.000   10.000    0.000    0.000    0.000    0.000 
#    0.000    0.000    0.000    0.000    0.000    0.000 
#
# Total GULP energy -267896.668909 kJ/mol
# GULP energy per Si atom -5581.180602 kJ/mol
# Density = 1.844778 g / cm^3
# Si number density = 18.489861 Si / 1000 Ang^3
#
#
#
# Elastic Constant Matrix: (Units=GPa)
#
#
# Indices 1 2 3 4 5 6 
#
# 1 96.5154 6.9668 81.2354 0.0000 0.0000 0.0000
# 2 6.9668 17.1632 5.8513 0.0000 0.0000 0.0000
# 3 81.2354 5.8513 154.5684 0.0000 0.0000 0.0000
# 4 0.0000 0.0000 0.0000 30.0407 0.0000 0.0000
# 5 0.0000 0.0000 0.0000 0.0000 42.7463 0.0000
# 6 0.0000 0.0000 0.0000 0.0000 0.0000 26.2214
#
#
#
# Elastic Compliance Matrix: (Units=1/GPa)
#
#
# Indices 1 2 3 4 5 6 
#
# 1 0.018894 -0.004340 -0.009766 0.000000 0.000000 0.000000
# 2 -0.004340 0.060023 0.000009 0.000000 0.000000 0.000000
# 3 -0.009766 0.000009 0.011602 0.000000 0.000000 0.000000
# 4 0.000000 0.000000 0.000000 0.033288 0.000000 0.000000
# 5 0.000000 0.000000 0.000000 0.000000 0.023394 0.000000
# 6 0.000000 0.000000 0.000000 0.000000 0.000000 0.038137
#
#
# Mechanical properties :
#
#
# Convention : Reuss Voigt Hill
#
# Bulk Modulus (GPa) = 16.04498 50.70601 33.37550
# Shear Modulus (GPa) = 21.33960 31.41458 26.37709
#
# Velocity S-wave (km/s) = 3.40093 4.12638 3.78109
# Velocity P-wave (km/s) = 4.91104 7.08420 6.09525
#
# Compressibility (1/GPa) = 0.06232478
#
# Stress axis : x y z
#
# Youngs Moduli (GPa) = 52.92721 16.66028 86.19395
#
# Poissons Ratio (x) = 0.07231 0.84174
# Poissons Ratio (y) = 0.22971 -0.00076
# Poissons Ratio (z) = 0.51687 -0.00015
#
# Static dielectric constant tensor:
#      x y z
#    x 1.608940 0.000000 0.000000 
#    y 0.000000 1.636250 0.000000 
#    z 0.000000 0.000000 1.639100 
# 
# From -- ./inp_files/31936.got.cif
#   From: 2010.05.17/outbox.cif.g08.bks.cpg/sg62_16_cif.got.tgz:31936.got - 2010.06.03 15:25:27.
