data_PCOD9467468
_publ_section_title
;
Structure prediction by ZEFSAII (Michael W. Deem and Ramdas Pophale) SiO2 
 PCOD9467468
Probable space group: P N M A
;
_chemical_formula_sum "Si O2"
_cell_formula_units_Z 64
_cell_length_a 8.954835
_cell_length_b 29.466471
_cell_length_c 11.043645
_cell_angle_alpha 90.000000
_cell_angle_beta 90.000000
_cell_angle_gamma 90.000000
_cell_volume 2914.057736
_symmetry_space_group_name_H-M "P N M A"
_symmetry_group_IT_number 62
_symmetry_cell_setting 'orthorhombic'
loop_
_space_group_symop_operation_xyz
x,y,z
1/2-x,-y,1/2+z
1/2+x,1/2-y,1/2-z
-x,1/2+y,-z
-x,-y,-z
1/2+x,y,1/2-z
1/2-x,1/2+y,1/2+z
x,1/2-y,z
loop_
_atom_site_type_symbol
_atom_site_label
_atom_site_fract_x
_atom_site_fract_y
_atom_site_fract_z
Si Si1 0.981887 0.645978 0.297905
Si Si2 0.811503 0.067994 0.400449
Si Si3 0.223662 0.197937 0.862456
Si Si4 0.566654 0.196898 0.377418
Si Si5 0.319441 0.023707 0.662787
Si Si6 0.716734 0.643911 0.709840
Si Si7 0.621146 0.433754 0.636893
Si Si8 0.628778 0.417887 0.011776
O O1 0.143757 0.662517 0.338278
O O2 0.892213 0.688812 0.246026
O O3 0.967439 0.609789 0.188519
O O4 0.907498 0.619658 0.409256
O O5 0.834883 0.112775 0.321688
O O6 0.690377 0.074766 0.506417
O O7 0.973723 0.057563 0.455504
O O8 0.744476 0.026595 0.324251
O O9 0.276719 0.250000 0.860455
O O10 0.145587 0.190370 0.992380
O O11 0.529387 0.250000 0.366781
O O12 0.419835 0.166508 0.360967
O O13 0.677912 0.181733 0.270228
O O14 0.257919 0.052636 0.775874
O O15 0.496398 0.027058 0.646504
O O16 0.243564 0.046243 0.544695
O O17 0.804623 0.609798 0.622871
#
# Coordination Sequence:
#
# PCOD9467468 Si02
#       8
#     8   8   8   8   8   8   8   8
#     4  11  22  45  68  97 142 178 226 283 343 428
#     4  12  26  45  71  99 149 181 248 291 344 429
#     4  11  25  43  73 106 138 177 228 291 354 422
#     4  11  26  49  72 102 142 182 235 294 354 423
#     4  11  26  41  70 102 142 186 233 297 352 408
#     4  12  26  45  72 104 136 189 237 289 354 424
#     4  11  24  44  69 102 134 193 230 285 356 411
#     4  11  25  44  67 100 137 190 233 287 352 419
#
# _framework density 21.962502000000001
#
# number of rings (size 3 to 8) (size 9 to 14) (size 15 to 20)
#    0.000    0.750    1.250    6.750    8.750    0.000 
#    0.000    1.250    0.000    0.000    0.000    0.000 
#    0.000    0.000    0.000    0.000    0.000    0.000 
#
# Total GULP energy -358306.921275 kJ/mol
# GULP energy per Si atom -5598.545645 kJ/mol
# Density = 2.191251 g / cm^3
# Si number density = 21.962502 Si / 1000 Ang^3
#
#
#
# Elastic Constant Matrix: (Units=GPa)
#
#
# Indices 1 2 3 4 5 6 
#
# 1 101.8526 16.0487 13.5213 0.0000 0.0000 0.0000
# 2 16.0487 88.9882 18.9733 0.0000 0.0000 0.0000
# 3 13.5213 18.9733 25.6748 0.0000 0.0000 0.0000
# 4 0.0000 0.0000 0.0000 26.8941 0.0000 0.0000
# 5 0.0000 0.0000 0.0000 0.0000 22.7483 0.0000
# 6 0.0000 0.0000 0.0000 0.0000 0.0000 36.5820
#
#
#
# Elastic Compliance Matrix: (Units=1/GPa)
#
#
# Indices 1 2 3 4 5 6 
#
# 1 0.010611 -0.000857 -0.004955 0.000000 0.000000 0.000000
# 2 -0.000857 0.013408 -0.009457 0.000000 0.000000 0.000000
# 3 -0.004955 -0.009457 0.048547 0.000000 0.000000 0.000000
# 4 0.000000 0.000000 0.000000 0.037183 0.000000 0.000000
# 5 0.000000 0.000000 0.000000 0.000000 0.043959 0.000000
# 6 0.000000 0.000000 0.000000 0.000000 0.000000 0.027336
#
#
# Mechanical properties :
#
#
# Convention : Reuss Voigt Hill
#
# Bulk Modulus (GPa) = 23.79370 34.84470 29.31920
# Shear Modulus (GPa) = 22.16398 28.44305 25.30351
#
# Velocity S-wave (km/s) = 3.18020 3.60262 3.39798
# Velocity P-wave (km/s) = 4.93378 5.76239 5.36411
#
# Compressibility (1/GPa) = 0.04202794
#
# Stress axis : x y z
#
# Youngs Moduli (GPa) = 94.24247 74.58001 20.59875
#
# Poissons Ratio (x) = 0.06393 0.10206
# Poissons Ratio (y) = 0.08079 0.19481
# Poissons Ratio (z) = 0.46693 0.70531
#
# Static dielectric constant tensor:
#      x y z
#    x 1.809990 0.000000 0.000000 
#    y 0.000000 1.809080 0.000000 
#    z 0.000000 0.000000 1.782720 
# 
# From -- ./inp_files/11555.got.cif
#   From: 2010.05.17/outbox.cif.g08.bks.cpg/sg62_6_cif.got.tgz:11555.got - 2010.06.03 15:25:27.
