data_PCOD9467035
_publ_section_title
;
Structure prediction by ZEFSAII (Michael W. Deem and Ramdas Pophale) SiO2 
 PCOD9467035
Probable space group: P N M A
;
_chemical_formula_sum "Si O2"
_cell_formula_units_Z 56
_cell_length_a 14.622261
_cell_length_b 30.817211
_cell_length_c 5.423270
_cell_angle_alpha 90.000000
_cell_angle_beta 90.000000
_cell_angle_gamma 90.000000
_cell_volume 2443.819298
_symmetry_space_group_name_H-M "P N M A"
_symmetry_group_IT_number 62
_symmetry_cell_setting 'orthorhombic'
loop_
_space_group_symop_operation_xyz
x,y,z
1/2-x,-y,1/2+z
1/2+x,1/2-y,1/2-z
-x,1/2+y,-z
-x,-y,-z
1/2+x,y,1/2-z
1/2-x,1/2+y,1/2+z
x,1/2-y,z
loop_
_atom_site_type_symbol
_atom_site_label
_atom_site_fract_x
_atom_site_fract_y
_atom_site_fract_z
Si Si1 0.194858 0.492893 0.011259
Si Si2 0.347119 0.592258 0.220999
Si Si3 0.713658 0.750000 0.331083
Si Si4 0.404532 0.834848 0.528087
Si Si5 0.983552 0.110312 0.389913
Si Si6 0.818768 0.750000 0.828457
Si Si7 0.845784 0.418380 0.024043
Si Si8 0.415384 0.330704 0.742507
O O1 0.243930 0.509708 0.757387
O O2 0.159876 0.446347 0.921395
O O3 0.129164 0.533585 0.075620
O O4 0.336141 0.639765 0.345631
O O5 0.447527 0.591204 0.094859
O O6 0.263311 0.586268 0.028437
O O7 0.744850 0.750000 0.613268
O O8 0.655629 0.793007 0.285227
O O9 0.789432 0.750000 0.116153
O O10 0.446643 0.874514 0.681346
O O11 0.368363 0.796325 0.695863
O O12 0.488560 0.816247 0.372310
O O13 0.897965 0.083518 0.286534
O O14 0.937219 0.154902 0.481508
O O15 0.884724 0.376106 0.883456
#
# Coordination Sequence:
#
# PCOD9467035 Si02
#       8
#     8   8   4   8   8   4   8   8
#     4  10  24  41  67 106 139 189 236 289 353 414
#     4  10  23  42  70 100 141 186 237 292 353 420
#     4  12  29  43  70 106 136 180 237 278 355 421
#     4  10  24  45  68  97 138 182 233 295 352 415
#     4  10  24  42  71 102 134 192 233 290 359 409
#     4  12  29  43  70 106 132 182 235 282 347 425
#     4  10  23  42  71  99 142 184 233 292 350 420
#     4  10  24  45  66  99 137 182 230 295 352 414
#
# _framework density 22.914952
#
# number of rings (size 3 to 8) (size 9 to 14) (size 15 to 20)
#    0.000    1.714    0.000    1.286   18.000    1.143 
#    0.000    6.429    0.000    0.000    0.000    0.000 
#    0.000    0.000    0.000    0.000    0.000    0.000 
#
# Total GULP energy -312197.590532 kJ/mol
# GULP energy per Si atom -5574.956974 kJ/mol
# Density = 2.286280 g / cm^3
# Si number density = 22.914952 Si / 1000 Ang^3
#
#
#
# Elastic Constant Matrix: (Units=GPa)
#
#
# Indices 1 2 3 4 5 6 
#
# 1 72.7132 62.2227 18.9156 0.0000 0.0000 0.0000
# 2 62.2227 101.7684 23.0359 0.0000 0.0000 0.0000
# 3 18.9156 23.0359 62.1251 0.0000 0.0000 0.0000
# 4 0.0000 0.0000 0.0000 37.3287 0.0000 0.0000
# 5 0.0000 0.0000 0.0000 0.0000 38.2454 0.0000
# 6 0.0000 0.0000 0.0000 0.0000 0.0000 3.2753
#
#
#
# Elastic Compliance Matrix: (Units=1/GPa)
#
#
# Indices 1 2 3 4 5 6 
#
# 1 0.029189 -0.017286 -0.002478 0.000000 0.000000 0.000000
# 2 -0.017286 0.020963 -0.002510 0.000000 0.000000 0.000000
# 3 -0.002478 -0.002510 0.017782 0.000000 0.000000 0.000000
# 4 0.000000 0.000000 0.000000 0.026789 0.000000 0.000000
# 5 0.000000 0.000000 0.000000 0.000000 0.026147 0.000000
# 6 0.000000 0.000000 0.000000 0.000000 0.000000 0.305314
#
#
# Mechanical properties :
#
#
# Convention : Reuss Voigt Hill
#
# Bulk Modulus (GPa) = 42.75924 49.43945 46.09935
# Shear Modulus (GPa) = 10.44871 24.59870 17.52370
#
# Velocity S-wave (km/s) = 2.13768 3.27995 2.76837
# Velocity P-wave (km/s) = 4.97930 5.99718 5.51178
#
# Compressibility (1/GPa) = 0.02338676
#
# Stress axis : x y z
#
# Youngs Moduli (GPa) = 34.25913 47.70248 56.23754
#
# Poissons Ratio (x) = 0.82458 0.13935
# Poissons Ratio (y) = 0.59220 0.14116
# Poissons Ratio (z) = 0.08489 0.11973
#
# Static dielectric constant tensor:
#      x y z
#    x 1.866260 0.000000 0.000000 
#    y 0.000000 1.915530 0.000000 
#    z 0.000000 0.000000 1.967170 
# 
# From -- ./inp_files/1318.got.cif
#   From: 2010.05.17/outbox.cif.g08.bks.cpg/sg62_1_cif.got.tgz:1318.got - 2010.06.03 15:25:27.
