data_PCOD9467735
_publ_section_title
;
Structure prediction by ZEFSAII (Michael W. Deem and Ramdas Pophale) SiO2 
 PCOD9467735
Probable space group: P N M A
;
_chemical_formula_sum "Si O2"
_cell_formula_units_Z 40
_cell_length_a 16.384590
_cell_length_b 7.550200
_cell_length_c 16.288707
_cell_angle_alpha 90.000000
_cell_angle_beta 90.000000
_cell_angle_gamma 90.000000
_cell_volume 2015.025960
_symmetry_space_group_name_H-M "P N M A"
_symmetry_group_IT_number 62
_symmetry_cell_setting 'orthorhombic'
loop_
_space_group_symop_operation_xyz
x,y,z
1/2-x,-y,1/2+z
1/2+x,1/2-y,1/2-z
-x,1/2+y,-z
-x,-y,-z
1/2+x,y,1/2-z
1/2-x,1/2+y,1/2+z
x,1/2-y,z
loop_
_atom_site_type_symbol
_atom_site_label
_atom_site_fract_x
_atom_site_fract_y
_atom_site_fract_z
Si Si1 0.460647 0.035525 0.624864
Si Si2 0.431240 0.455801 0.805126
Si Si3 0.063979 0.959839 0.573012
Si Si4 0.374106 0.539567 0.456901
Si Si5 0.309156 0.032084 0.946742
O O1 0.464840 0.250000 0.628733
O O2 0.434318 0.967582 0.713988
O O3 0.550406 0.969857 0.597189
O O4 0.399529 0.989312 0.551354
O O5 0.409057 0.250000 0.796576
O O6 0.521058 0.464081 0.846495
O O7 0.366501 0.529303 0.871283
O O8 0.068928 0.750000 0.585233
O O9 0.148807 0.022514 0.533095
O O10 0.000000 0.000000 0.500000
O O11 0.370785 0.750000 0.442605
O O12 0.283634 0.471108 0.439466
O O13 0.311107 0.250000 0.946952
#
# Coordination Sequence:
#
# PCOD9467735 Si02
#       5
#     8   8   8   8   8
#     4   9  18  32  49  70  94 122 158 197 234 276
#     4   9  17  31  48  70  98 124 154 194 239 280
#     4   9  16  28  47  69  94 126 157 188 233 279
#     4   9  17  32  51  66  89 128 163 188 232 285
#     4   8  15  29  48  67  92 125 155 188 232 282
#
# _framework density 19.850860999999998
#
# number of rings (size 3 to 8) (size 9 to 14) (size 15 to 20)
#    0.000    3.200    0.000    1.800    0.000    0.800 
#    3.600    5.000    0.000    0.000    0.000    0.000 
#    0.000    0.000    0.000    0.000    0.000    0.000 
#
# Total GULP energy -222777.997029 kJ/mol
# GULP energy per Si atom -5569.449926 kJ/mol
# Density = 1.980568 g / cm^3
# Si number density = 19.850861 Si / 1000 Ang^3
#
#
#
# Elastic Constant Matrix: (Units=GPa)
#
#
# Indices 1 2 3 4 5 6 
#
# 1 137.6370 3.5177 60.6876 0.0000 0.0000 0.0000
# 2 3.5177 43.3865 -6.4760 0.0000 0.0000 0.0000
# 3 60.6876 -6.4760 108.4860 0.0000 0.0000 0.0000
# 4 0.0000 0.0000 0.0000 14.0394 0.0000 0.0000
# 5 0.0000 0.0000 0.0000 0.0000 10.3799 0.0000
# 6 0.0000 0.0000 0.0000 0.0000 0.0000 12.8072
#
#
#
# Elastic Compliance Matrix: (Units=1/GPa)
#
#
# Indices 1 2 3 4 5 6 
#
# 1 0.009756 -0.001620 -0.005554 0.000000 0.000000 0.000000
# 2 -0.001620 0.023525 0.002311 0.000000 0.000000 0.000000
# 3 -0.005554 0.002311 0.012463 0.000000 0.000000 0.000000
# 4 0.000000 0.000000 0.000000 0.071228 0.000000 0.000000
# 5 0.000000 0.000000 0.000000 0.000000 0.096340 0.000000
# 6 0.000000 0.000000 0.000000 0.000000 0.000000 0.078081
#
#
# Mechanical properties :
#
#
# Convention : Reuss Voigt Hill
#
# Bulk Modulus (GPa) = 27.76531 44.99644 36.38087
# Shear Modulus (GPa) = 15.96806 22.89733 19.43270
#
# Velocity S-wave (km/s) = 2.83927 3.39996 3.13219
# Velocity P-wave (km/s) = 4.97654 6.17490 5.60782
#
# Compressibility (1/GPa) = 0.03601617
#
# Stress axis : x y z
#
# Youngs Moduli (GPa) = 102.50234 42.50822 80.23916
#
# Poissons Ratio (x) = 0.06886 0.44566
# Poissons Ratio (y) = 0.16606 -0.18540
# Poissons Ratio (z) = 0.56932 -0.09822
#
# Static dielectric constant tensor:
#      x y z
#    x 1.710780 0.000000 0.000000 
#    y 0.000000 1.736720 0.000000 
#    z 0.000000 0.000000 1.694260 
# 
# From -- ./inp_files/18615.got.cif
#   From: 2010.05.17/outbox.cif.g08.bks.cpg/sg62_10_cif.got.tgz:18615.got - 2010.06.03 15:25:27.
