data_PCOD9467509
_publ_section_title
;
Structure prediction by ZEFSAII (Michael W. Deem and Ramdas Pophale) SiO2 
 PCOD9467509
Probable space group: P N M A
;
_chemical_formula_sum "Si O2"
_cell_formula_units_Z 40
_cell_length_a 26.335991
_cell_length_b 13.025914
_cell_length_c 5.113624
_cell_angle_alpha 90.000000
_cell_angle_beta 90.000000
_cell_angle_gamma 90.000000
_cell_volume 1754.230523
_symmetry_space_group_name_H-M "P N M A"
_symmetry_group_IT_number 62
_symmetry_cell_setting 'orthorhombic'
loop_
_space_group_symop_operation_xyz
x,y,z
1/2-x,-y,1/2+z
1/2+x,1/2-y,1/2-z
-x,1/2+y,-z
-x,-y,-z
1/2+x,y,1/2-z
1/2-x,1/2+y,1/2+z
x,1/2-y,z
loop_
_atom_site_type_symbol
_atom_site_label
_atom_site_fract_x
_atom_site_fract_y
_atom_site_fract_z
Si Si1 0.865464 0.938341 0.706634
Si Si2 0.929627 0.750000 0.856652
Si Si3 0.948120 0.439871 0.453951
Si Si4 0.217499 0.994894 0.615012
Si Si5 0.995599 0.250000 0.657089
Si Si6 0.364948 0.369268 0.409206
O O1 0.857895 0.042390 0.873550
O O2 0.891778 0.847100 0.861040
O O3 0.815553 0.918601 0.536560
O O4 0.908099 0.971308 0.502777
O O5 0.967342 0.750000 0.601641
O O6 0.967290 0.750000 0.099337
O O7 0.921899 0.385341 0.206115
O O8 0.000000 0.500000 0.500000
O O9 0.957978 0.346252 0.648295
O O10 0.242816 0.033554 0.884696
O O11 0.178282 0.903987 0.696294
O O12 0.357630 0.250000 0.481224
#
# Coordination Sequence:
#
# PCOD9467509 Si02
#       6
#     8   4   8   8   4   8
#     4  11  26  45  75 106 151 190 247 305 371 435
#     4  12  28  46  68 106 148 201 243 298 356 439
#     4  11  23  41  68 104 147 198 245 300 355 433
#     4  11  24  51  76 103 144 182 240 304 374 449
#     4  12  26  42  68 100 148 197 251 288 358 423
#     4  11  25  45  75 112 149 191 243 308 369 437
#
# _framework density 22.802019999999999
#
# number of rings (size 3 to 8) (size 9 to 14) (size 15 to 20)
#    0.000    0.800    5.000    1.200    7.000    2.400 
#    3.600    0.000    0.000    0.000    0.000    0.000 
#    0.000    0.000    0.000    0.000    0.000    0.000 
#
# Total GULP energy -222883.147453 kJ/mol
# GULP energy per Si atom -5572.078686 kJ/mol
# Density = 2.275012 g / cm^3
# Si number density = 22.802020 Si / 1000 Ang^3
#
#
#
# Elastic Constant Matrix: (Units=GPa)
#
#
# Indices 1 2 3 4 5 6 
#
# 1 80.4335 -11.2555 25.5605 0.0000 0.0000 0.0000
# 2 -11.2555 88.6908 10.9396 0.0000 0.0000 0.0000
# 3 25.5605 10.9396 121.2311 0.0000 0.0000 0.0000
# 4 0.0000 0.0000 0.0000 20.7816 0.0000 0.0000
# 5 0.0000 0.0000 0.0000 0.0000 48.5540 0.0000
# 6 0.0000 0.0000 0.0000 0.0000 0.0000 21.4277
#
#
#
# Elastic Compliance Matrix: (Units=1/GPa)
#
#
# Indices 1 2 3 4 5 6 
#
# 1 0.013709 0.002120 -0.003082 0.000000 0.000000 0.000000
# 2 0.002120 0.011730 -0.001505 0.000000 0.000000 0.000000
# 3 -0.003082 -0.001505 0.009034 0.000000 0.000000 0.000000
# 4 0.000000 0.000000 0.000000 0.048119 0.000000 0.000000
# 5 0.000000 0.000000 0.000000 0.000000 0.020596 0.000000
# 6 0.000000 0.000000 0.000000 0.000000 0.000000 0.046669
#
#
# Mechanical properties :
#
#
# Convention : Reuss Voigt Hill
#
# Bulk Modulus (GPa) = 33.85439 37.87160 35.86299
# Shear Modulus (GPa) = 30.36986 35.82670 33.09828
#
# Velocity S-wave (km/s) = 3.65347 3.96815 3.81405
# Velocity P-wave (km/s) = 5.71633 6.13513 5.92943
#
# Compressibility (1/GPa) = 0.02953827
#
# Stress axis : x y z
#
# Youngs Moduli (GPa) = 72.94714 85.25266 110.68944
#
# Poissons Ratio (x) = -0.18072 0.34110
# Poissons Ratio (y) = -0.15464 0.16663
# Poissons Ratio (z) = 0.22479 0.12834
#
# Static dielectric constant tensor:
#      x y z
#    x 1.944680 0.000000 0.000000 
#    y 0.000000 1.925910 0.000000 
#    z 0.000000 0.000000 1.994540 
# 
# From -- ./inp_files/3074.got.cif
#   From: 2010.05.17/outbox.cif.g08.bks.cpg/sg62_2_cif.got.tgz:3074.got - 2010.06.03 15:25:27.
