data_PCOD9467561
_publ_section_title
;
Structure prediction by ZEFSAII (Michael W. Deem and Ramdas Pophale) SiO2 
 PCOD9467561
Probable space group: P N M A
;
_chemical_formula_sum "Si O2"
_cell_formula_units_Z 32
_cell_length_a 9.358592
_cell_length_b 15.790933
_cell_length_c 10.050338
_cell_angle_alpha 90.000000
_cell_angle_beta 90.000000
_cell_angle_gamma 90.000000
_cell_volume 1485.247987
_symmetry_space_group_name_H-M "P N M A"
_symmetry_group_IT_number 62
_symmetry_cell_setting 'orthorhombic'
loop_
_space_group_symop_operation_xyz
x,y,z
1/2-x,-y,1/2+z
1/2+x,1/2-y,1/2-z
-x,1/2+y,-z
-x,-y,-z
1/2+x,y,1/2-z
1/2-x,1/2+y,1/2+z
x,1/2-y,z
loop_
_atom_site_type_symbol
_atom_site_label
_atom_site_fract_x
_atom_site_fract_y
_atom_site_fract_z
Si Si1 0.302008 0.654465 0.006591
Si Si2 0.034366 0.351351 0.042136
Si Si3 0.446292 0.539407 0.800040
Si Si4 0.687875 0.423180 0.719246
O O1 0.330645 0.750000 0.962951
O O2 0.136513 0.633711 0.973114
O O3 0.408077 0.591675 0.930950
O O4 0.316941 0.645536 0.164540
O O5 0.057350 0.250000 0.049098
O O6 0.084752 0.399803 0.174219
O O7 0.114008 0.390794 0.914720
O O8 0.604228 0.504549 0.777738
O O9 0.347342 0.456214 0.801680
#
# Coordination Sequence:
#
# PCOD9467561 Si02
#       4
#     8   8   8   8
#     4  11  24  43  65  96 132 169 213 266 322 379
#     4  11  24  44  65  95 134 169 209 266 326 379
#     4  12  23  43  68  95 129 168 216 263 317 380
#     4  12  23  43  68  95 129 168 216 263 317 380
#
# _framework density 21.545224000000001
#
# number of rings (size 3 to 8) (size 9 to 14) (size 15 to 20)
#    0.000    0.500    5.000    4.500    0.000    0.000 
#    0.000    2.500    0.000    0.000    0.000    0.000 
#    0.000    0.000    0.000    0.000    0.000    0.000 
#
# Total GULP energy -179075.513738 kJ/mol
# GULP energy per Si atom -5596.109804 kJ/mol
# Density = 2.149619 g / cm^3
# Si number density = 21.545224 Si / 1000 Ang^3
#
#
#
# Elastic Constant Matrix: (Units=GPa)
#
#
# Indices 1 2 3 4 5 6 
#
# 1 37.0857 3.2392 -9.6896 0.0000 0.0000 0.0000
# 2 3.2392 59.0090 14.2583 0.0000 0.0000 0.0000
# 3 -9.6896 14.2583 70.6730 0.0000 0.0000 0.0000
# 4 0.0000 0.0000 0.0000 40.0668 0.0000 0.0000
# 5 0.0000 0.0000 0.0000 0.0000 25.3103 0.0000
# 6 0.0000 0.0000 0.0000 0.0000 0.0000 30.0600
#
#
#
# Elastic Compliance Matrix: (Units=1/GPa)
#
#
# Indices 1 2 3 4 5 6 
#
# 1 0.028347 -0.002623 0.004416 0.000000 0.000000 0.000000
# 2 -0.002623 0.018058 -0.004003 0.000000 0.000000 0.000000
# 3 0.004416 -0.004003 0.015563 0.000000 0.000000 0.000000
# 4 0.000000 0.000000 0.000000 0.024958 0.000000 0.000000
# 5 0.000000 0.000000 0.000000 0.000000 0.039510 0.000000
# 6 0.000000 0.000000 0.000000 0.000000 0.000000 0.033267
#
#
# Mechanical properties :
#
#
# Convention : Reuss Voigt Hill
#
# Bulk Modulus (GPa) = 17.37692 20.26485 18.82088
# Shear Modulus (GPa) = 27.27692 29.68476 28.48084
#
# Velocity S-wave (km/s) = 3.56199 3.71588 3.63975
# Velocity P-wave (km/s) = 4.99999 5.27603 5.13987
#
# Compressibility (1/GPa) = 0.05754760
#
# Stress axis : x y z
#
# Youngs Moduli (GPa) = 35.27660 55.37792 64.25643
#
# Poissons Ratio (x) = 0.14526 -0.28374
# Poissons Ratio (y) = 0.09253 0.25720
# Poissons Ratio (z) = -0.15577 0.22167
#
# Static dielectric constant tensor:
#      x y z
#    x 1.730290 0.000000 0.000000 
#    y 0.000000 1.755710 0.000000 
#    z 0.000000 0.000000 1.760950 
# 
# From -- ./inp_files/10932.got.cif
#   From: 2010.05.17/outbox.cif.g08.bks.cpg/sg62_6_cif.got.tgz:10932.got - 2010.06.03 15:25:27.
