data_PCOD9467788
_publ_section_title
;
Structure prediction by ZEFSAII (Michael W. Deem and Ramdas Pophale) SiO2 
 PCOD9467788
Probable space group: P N M A
;
_chemical_formula_sum "Si O2"
_cell_formula_units_Z 64
_cell_length_a 15.000000
_cell_length_b 9.000000
_cell_length_c 30.000000
_cell_angle_alpha 90.000000
_cell_angle_beta 90.000000
_cell_angle_gamma 90.000000
_cell_volume 4050.000000
_symmetry_space_group_name_H-M "P N M A"
_symmetry_group_IT_number 62
_symmetry_cell_setting 'orthorhombic'
loop_
_space_group_symop_operation_xyz
x,y,z
1/2-x,-y,1/2+z
1/2+x,1/2-y,1/2-z
-x,1/2+y,-z
-x,-y,-z
1/2+x,y,1/2-z
1/2-x,1/2+y,1/2+z
x,1/2-y,z
loop_
_atom_site_type_symbol
_atom_site_label
_atom_site_fract_x
_atom_site_fract_y
_atom_site_fract_z
Si Si1 0.322813 0.074566 0.363137
Si Si2 0.329693 0.572860 0.796797
Si Si3 0.331356 0.078684 0.632203
Si Si4 0.216264 0.428679 0.716493
Si Si5 0.897088 0.426341 0.043312
Si Si6 0.476525 0.074550 0.224297
Si Si7 0.984777 0.579531 0.185051
Si Si8 0.102867 0.425798 0.048626
O O1 0.345984 0.250000 0.355740
O O2 0.227165 0.049002 0.341419
O O3 0.332964 0.045958 0.415278
O O4 0.395097 0.972387 0.338842
O O5 0.329613 0.750000 0.787017
O O6 0.274764 0.493312 0.757281
O O7 0.432975 0.527328 0.800969
O O8 0.310983 0.250000 0.621821
O O9 0.264611 0.027348 0.670591
O O10 0.430396 0.073355 0.653088
O O11 0.335538 0.985804 0.587582
O O12 0.216811 0.250000 0.719864
O O13 0.115799 0.489609 0.716088
O O14 0.899332 0.250000 0.034457
O O15 0.998796 0.472254 0.055638
O O16 0.870607 0.510563 0.999007
O O17 0.461911 0.250000 0.218332
O O18 0.500281 0.034496 0.275104
O O19 0.976652 0.750000 0.201404
O O20 0.104202 0.250000 0.048386
#
# Coordination Sequence:
#
# PCOD9467788 Si02
#       8
#     8   8   8   8   8   8   8   8
#     4  10  19  33  50  72  98 132 171 204 246 295
#     4  10  21  34  51  73  99 132 169 209 248 293
#     4  10  21  34  48  70 101 133 168 206 248 296
#     4  11  22  35  51  73  99 132 172 209 250 295
#     4   9  18  31  47  69 100 132 161 199 246 297
#     4  11  22  35  49  70 101 135 170 208 250 293
#     4  11  20  30  47  71  99 133 169 206 245 287
#     4  10  19  30  48  73  98 129 166 200 244 299
#
# _framework density 15.802469
#
# number of rings (size 3 to 8) (size 9 to 14) (size 15 to 20)
#    0.000    1.750    3.750    1.500    0.000    3.000 
#    0.000    0.000    0.000    0.000    0.000    0.875 
#    0.000    0.000    0.000    0.000    0.000    0.000 
#
# Total GULP energy -356828.434686 kJ/mol
# GULP energy per Si atom -5575.444292 kJ/mol
# Density = 1.576650 g / cm^3
# Si number density = 15.802469 Si / 1000 Ang^3
#
#
#
# Elastic Constant Matrix: (Units=GPa)
#
#
# Indices 1 2 3 4 5 6 
#
# 1 38.2688 6.3764 0.2193 0.0000 0.0000 0.0000
# 2 6.3764 9.8326 17.4021 0.0000 0.0000 0.0000
# 3 0.2193 17.4021 62.2081 0.0000 0.0000 0.0000
# 4 0.0000 0.0000 0.0000 18.3288 0.0000 0.0000
# 5 0.0000 0.0000 0.0000 0.0000 16.3228 0.0000
# 6 0.0000 0.0000 0.0000 0.0000 0.0000 13.4684
#
#
#
# Elastic Compliance Matrix: (Units=1/GPa)
#
#
# Indices 1 2 3 4 5 6 
#
# 1 0.033074 -0.042071 0.011652 0.000000 0.000000 0.000000
# 2 -0.042071 0.254944 -0.071170 0.000000 0.000000 0.000000
# 3 0.011652 -0.071170 0.035943 0.000000 0.000000 0.000000
# 4 0.000000 0.000000 0.000000 0.054559 0.000000 0.000000
# 5 0.000000 0.000000 0.000000 0.000000 0.061264 0.000000
# 6 0.000000 0.000000 0.000000 0.000000 0.000000 0.074248
#
#
# Mechanical properties :
#
#
# Convention : Reuss Voigt Hill
#
# Bulk Modulus (GPa) = 8.27922 17.58945 12.93434
# Shear Modulus (GPa) = 6.60091 15.37813 10.98952
#
# Velocity S-wave (km/s) = 2.04602 3.12291 2.63996
# Velocity P-wave (km/s) = 3.29123 4.91512 4.18274
#
# Compressibility (1/GPa) = 0.12078427
#
# Stress axis : x y z
#
# Youngs Moduli (GPa) = 30.23512 3.92242 27.82180
#
# Poissons Ratio (x) = 0.16502 -0.32419
# Poissons Ratio (y) = 1.27203 1.98007
# Poissons Ratio (z) = -0.35231 0.27916
#
# Static dielectric constant tensor:
#      x y z
#    x 1.554350 0.000000 0.000000 
#    y 0.000000 1.532740 0.000000 
#    z 0.000000 0.000000 1.529340 
# 
# From -- ./inp_files/32687.got.cif
#   From: 2010.05.17/outbox.ucp.g08.bks.cvg/sg62_17_cif.got.tgz:32687.got - 2010.06.11 16:29:25.
