data_PCOD9467443
_publ_section_title
;
Structure prediction by ZEFSAII (Michael W. Deem and Ramdas Pophale) SiO2 
 PCOD9467443
Probable space group: P N M A
;
_chemical_formula_sum "Si O2"
_cell_formula_units_Z 40
_cell_length_a 10.832064
_cell_length_b 16.934243
_cell_length_c 9.429836
_cell_angle_alpha 90.000000
_cell_angle_beta 90.000000
_cell_angle_gamma 90.000000
_cell_volume 1729.741258
_symmetry_space_group_name_H-M "P N M A"
_symmetry_group_IT_number 62
_symmetry_cell_setting 'orthorhombic'
loop_
_space_group_symop_operation_xyz
x,y,z
1/2-x,-y,1/2+z
1/2+x,1/2-y,1/2-z
-x,1/2+y,-z
-x,-y,-z
1/2+x,y,1/2-z
1/2-x,1/2+y,1/2+z
x,1/2-y,z
loop_
_atom_site_type_symbol
_atom_site_label
_atom_site_fract_x
_atom_site_fract_y
_atom_site_fract_z
Si Si1 0.654032 0.046246 0.619564
Si Si2 0.762737 0.369278 0.057892
Si Si3 0.992668 0.095924 0.509536
Si Si4 0.384191 0.398001 0.699520
Si Si5 0.266046 0.339443 0.116624
O O1 0.753131 0.062188 0.748548
O O2 0.509489 0.052909 0.659975
O O3 0.685061 0.104757 0.487233
O O4 0.688369 0.958864 0.571759
O O5 0.626531 0.369585 0.997577
O O6 0.742639 0.338271 0.215680
O O7 0.852772 0.341130 0.931708
O O8 0.928330 0.132214 0.648353
O O9 0.903671 0.124616 0.386512
O O10 0.000000 0.000000 0.500000
O O11 0.259411 0.250000 0.063329
#
# Coordination Sequence:
#
# PCOD9467443 Si02
#       5
#     8   8   8   8   8
#     4  11  23  42  71 102 141 185 243 293 354 437
#     4  12  23  40  71 101 138 190 243 287 357 437
#     4  11  22  42  71 102 141 185 243 295 353 435
#     4  11  22  40  67 100 133 181 241 296 341 417
#     4  11  27  45  68 105 149 185 233 308 371 419
#
# _framework density 23.124845000000001
#
# number of rings (size 3 to 8) (size 9 to 14) (size 15 to 20)
#    0.000    0.800    6.000    3.000    2.800    0.800 
#    0.000    8.000    0.000    0.000    0.000    0.000 
#    0.000    0.000    0.000    0.000    0.000    0.000 
#
# Total GULP energy -222887.131518 kJ/mol
# GULP energy per Si atom -5572.178288 kJ/mol
# Density = 2.307221 g / cm^3
# Si number density = 23.124845 Si / 1000 Ang^3
#
#
#
# Elastic Constant Matrix: (Units=GPa)
#
#
# Indices 1 2 3 4 5 6 
#
# 1 122.3590 -3.3623 40.2703 0.0000 0.0000 0.0000
# 2 -3.3623 107.9819 25.2614 0.0000 0.0000 0.0000
# 3 40.2703 25.2614 126.3649 0.0000 0.0000 0.0000
# 4 0.0000 0.0000 0.0000 4.0938 0.0000 0.0000
# 5 0.0000 0.0000 0.0000 0.0000 28.8062 0.0000
# 6 0.0000 0.0000 0.0000 0.0000 0.0000 1.9770
#
#
#
# Elastic Compliance Matrix: (Units=1/GPa)
#
#
# Indices 1 2 3 4 5 6 
#
# 1 0.009237 0.001024 -0.003148 0.000000 0.000000 0.000000
# 2 0.001024 0.009829 -0.002291 0.000000 0.000000 0.000000
# 3 -0.003148 -0.002291 0.009375 0.000000 0.000000 0.000000
# 4 0.000000 0.000000 0.000000 0.244273 0.000000 0.000000
# 5 0.000000 0.000000 0.000000 0.000000 0.034715 0.000000
# 6 0.000000 0.000000 0.000000 0.000000 0.000000 0.505806
#
#
# Mechanical properties :
#
#
# Convention : Reuss Voigt Hill
#
# Bulk Modulus (GPa) = 50.99507 53.44940 52.22223
# Shear Modulus (GPa) = 6.03426 26.61117 16.32272
#
# Velocity S-wave (km/s) = 1.61713 3.39597 2.65967
# Velocity P-wave (km/s) = 5.05833 6.20809 5.66247
#
# Compressibility (1/GPa) = 0.01960974
#
# Stress axis : x y z
#
# Youngs Moduli (GPa) = 108.26015 101.74273 106.66708
#
# Poissons Ratio (x) = -0.10420 0.33583
# Poissons Ratio (y) = -0.11088 0.24440
# Poissons Ratio (z) = 0.34085 0.23312
#
# Static dielectric constant tensor:
#      x y z
#    x 1.904670 0.000000 0.000000 
#    y 0.000000 1.866860 0.000000 
#    z 0.000000 0.000000 2.076520 
# 
# From -- ./inp_files/5023.got.cif
#   From: 2010.05.17/outbox.cif.g08.bks.cpg/sg62_3_cif.got.tgz:5023.got - 2010.06.03 15:25:27.
