data_PCOD9467046
_publ_section_title
;
Structure prediction by ZEFSAII (Michael W. Deem and Ramdas Pophale) SiO2 
 PCOD9467046
Probable space group: P N M A
;
_chemical_formula_sum "Si O2"
_cell_formula_units_Z 48
_cell_length_a 17.402494
_cell_length_b 27.418871
_cell_length_c 5.192766
_cell_angle_alpha 90.000000
_cell_angle_beta 90.000000
_cell_angle_gamma 90.000000
_cell_volume 2477.763286
_symmetry_space_group_name_H-M "P N M A"
_symmetry_group_IT_number 62
_symmetry_cell_setting 'orthorhombic'
loop_
_space_group_symop_operation_xyz
x,y,z
1/2-x,-y,1/2+z
1/2+x,1/2-y,1/2-z
-x,1/2+y,-z
-x,-y,-z
1/2+x,y,1/2-z
1/2-x,1/2+y,1/2+z
x,1/2-y,z
loop_
_atom_site_type_symbol
_atom_site_label
_atom_site_fract_x
_atom_site_fract_y
_atom_site_fract_z
Si Si1 0.047788 0.191214 0.305318
Si Si2 0.205773 0.629348 0.204945
Si Si3 0.397796 0.375088 0.209342
Si Si4 0.718744 0.475169 0.724886
Si Si5 0.950421 0.012483 0.249850
Si Si6 0.145840 0.191804 0.808524
O O1 0.035032 0.250000 0.292984
O O2 0.088553 0.179240 0.575061
O O3 0.969224 0.161717 0.277750
O O4 0.106008 0.177207 0.076024
O O5 0.143804 0.628958 0.434283
O O6 0.248743 0.577460 0.205293
O O7 0.271754 0.668314 0.261967
O O8 0.162654 0.636555 0.935362
O O9 0.426451 0.430670 0.247748
O O10 0.744333 0.488529 0.435801
O O11 0.627634 0.481111 0.746936
O O12 0.000000 0.000000 0.500000
O O13 0.000000 0.000000 0.000000
O O14 0.154145 0.250000 0.811027
#
# Coordination Sequence:
#
# PCOD9467046 Si02
#       6
#     8   8   8   8   8   8
#     4  10  23  43  65  91 126 162 201 257 312 364
#     4  12  24  41  65  93 123 166 204 256 307 368
#     4  12  25  42  62  95 127 160 212 252 309 366
#     4  12  23  44  62  87 130 165 200 250 313 359
#     4  12  26  41  62  92 125 165 208 256 300 369
#     4  10  23  43  66  94 123 160 209 253 309 374
#
# _framework density 19.372309999999999
#
# number of rings (size 3 to 8) (size 9 to 14) (size 15 to 20)
#    0.000    0.667    3.333    4.000    4.667    1.333 
#    0.000    0.000    0.000    0.000    0.000    0.000 
#    0.000    0.000    0.000    0.000    0.000    0.000 
#
# Total GULP energy -268617.319590 kJ/mol
# GULP energy per Si atom -5596.194158 kJ/mol
# Density = 1.932822 g / cm^3
# Si number density = 19.372310 Si / 1000 Ang^3
#
#
#
# Elastic Constant Matrix: (Units=GPa)
#
#
# Indices 1 2 3 4 5 6 
#
# 1 94.3110 10.8048 -4.3986 0.0000 0.0000 0.0000
# 2 10.8048 18.7723 -11.7127 0.0000 0.0000 0.0000
# 3 -4.3986 -11.7127 62.6426 0.0000 0.0000 0.0000
# 4 0.0000 0.0000 0.0000 16.3921 0.0000 0.0000
# 5 0.0000 0.0000 0.0000 0.0000 41.3860 0.0000
# 6 0.0000 0.0000 0.0000 0.0000 0.0000 45.9021
#
#
#
# Elastic Compliance Matrix: (Units=1/GPa)
#
#
# Indices 1 2 3 4 5 6 
#
# 1 0.011365 -0.006841 -0.000481 0.000000 0.000000 0.000000
# 2 -0.006841 0.064424 0.011565 0.000000 0.000000 0.000000
# 3 -0.000481 0.011565 0.018092 0.000000 0.000000 0.000000
# 4 0.000000 0.000000 0.000000 0.061005 0.000000 0.000000
# 5 0.000000 0.000000 0.000000 0.000000 0.024163 0.000000
# 6 0.000000 0.000000 0.000000 0.000000 0.000000 0.021785
#
#
# Mechanical properties :
#
#
# Convention : Reuss Voigt Hill
#
# Bulk Modulus (GPa) = 9.76882 18.34585 14.05734
# Shear Modulus (GPa) = 22.07795 32.80488 27.44142
#
# Velocity S-wave (km/s) = 3.37956 4.11955 3.76776
# Velocity P-wave (km/s) = 4.50357 5.66730 5.11861
#
# Compressibility (1/GPa) = 0.10236651
#
# Stress axis : x y z
#
# Youngs Moduli (GPa) = 87.99283 15.52219 55.27221
#
# Poissons Ratio (x) = 0.10619 0.02660
# Poissons Ratio (y) = 0.60199 -0.63925
# Poissons Ratio (z) = 0.04234 -0.17952
#
# Static dielectric constant tensor:
#      x y z
#    x 1.637790 0.000000 0.000000 
#    y 0.000000 1.639640 0.000000 
#    z 0.000000 0.000000 1.657480 
# 
# From -- ./inp_files/1147.got.cif
#   From: 2010.05.17/outbox.cif.g08.bks.cpg/sg62_1_cif.got.tgz:1147.got - 2010.06.03 15:25:27.
