data_PCOD9467308
_publ_section_title
;
Structure prediction by ZEFSAII (Michael W. Deem and Ramdas Pophale) SiO2 
 PCOD9467308
Probable space group: P N M A
;
_chemical_formula_sum "Si O2"
_cell_formula_units_Z 48
_cell_length_a 13.596480
_cell_length_b 18.043186
_cell_length_c 9.794869
_cell_angle_alpha 90.000000
_cell_angle_beta 90.000000
_cell_angle_gamma 90.000000
_cell_volume 2402.914656
_symmetry_space_group_name_H-M "P N M A"
_symmetry_group_IT_number 62
_symmetry_cell_setting 'orthorhombic'
loop_
_space_group_symop_operation_xyz
x,y,z
1/2-x,-y,1/2+z
1/2+x,1/2-y,1/2-z
-x,1/2+y,-z
-x,-y,-z
1/2+x,y,1/2-z
1/2-x,1/2+y,1/2+z
x,1/2-y,z
loop_
_atom_site_type_symbol
_atom_site_label
_atom_site_fract_x
_atom_site_fract_y
_atom_site_fract_z
Si Si1 0.555513 0.567012 0.077185
Si Si2 0.912738 0.432115 0.111247
Si Si3 0.608683 0.399184 0.725981
Si Si4 0.409919 0.830991 0.562879
Si Si5 0.207380 0.889496 0.640632
Si Si6 0.692793 0.547173 0.330301
O O1 0.472426 0.612081 0.158059
O O2 0.628868 0.536487 0.193953
O O3 0.500000 0.500000 0.000000
O O4 0.620737 0.613311 0.970716
O O5 0.908817 0.516997 0.164871
O O6 0.840337 0.387596 0.210706
O O7 0.020032 0.395795 0.119809
O O8 0.874449 0.428120 0.956353
O O9 0.597983 0.345075 0.599005
O O10 0.717549 0.399026 0.789571
O O11 0.452050 0.750000 0.592025
O O12 0.299536 0.836988 0.618980
O O13 0.254710 0.971488 0.623885
#
# Coordination Sequence:
#
# PCOD9467308 Si02
#       6
#     8   8   8   8   8   8
#     4  12  21  34  60 100 126 154 200 265 318 374
#     4  11  22  39  67  94 126 159 218 270 317 369
#     4  11  22  38  63  95 128 160 215 264 319 373
#     4  12  25  43  62  89 133 178 211 256 328 394
#     4  11  23  37  62  96 125 161 205 268 321 373
#     4  11  20  36  64  98 127 155 208 265 326 364
#
# _framework density 19.975739999999998
#
# number of rings (size 3 to 8) (size 9 to 14) (size 15 to 20)
#    0.000    0.667    8.333    2.500    0.000    0.667 
#    0.000    3.333    0.000    2.000    0.000    0.000 
#    0.000    0.000    0.000    0.000    0.000    0.000 
#
# Total GULP energy -268249.287073 kJ/mol
# GULP energy per Si atom -5588.526814 kJ/mol
# Density = 1.993027 g / cm^3
# Si number density = 19.975740 Si / 1000 Ang^3
#
#
#
# Elastic Constant Matrix: (Units=GPa)
#
#
# Indices 1 2 3 4 5 6 
#
# 1 120.4370 10.7918 40.5871 0.0000 0.0000 0.0000
# 2 10.7918 30.1188 12.1275 0.0000 0.0000 0.0000
# 3 40.5871 12.1275 102.7490 0.0000 0.0000 0.0000
# 4 0.0000 0.0000 0.0000 2.9319 0.0000 0.0000
# 5 0.0000 0.0000 0.0000 0.0000 56.2073 0.0000
# 6 0.0000 0.0000 0.0000 0.0000 0.0000 10.7927
#
#
#
# Elastic Compliance Matrix: (Units=1/GPa)
#
#
# Indices 1 2 3 4 5 6 
#
# 1 0.009695 -0.002028 -0.003590 0.000000 0.000000 0.000000
# 2 -0.002028 0.035283 -0.003363 0.000000 0.000000 0.000000
# 3 -0.003590 -0.003363 0.011548 0.000000 0.000000 0.000000
# 4 0.000000 0.000000 0.000000 0.341076 0.000000 0.000000
# 5 0.000000 0.000000 0.000000 0.000000 0.017791 0.000000
# 6 0.000000 0.000000 0.000000 0.000000 0.000000 0.092655
#
#
# Mechanical properties :
#
#
# Convention : Reuss Voigt Hill
#
# Bulk Modulus (GPa) = 25.93228 42.25751 34.09489
# Shear Modulus (GPa) = 9.27877 26.63962 17.95919
#
# Velocity S-wave (km/s) = 2.15757 3.65581 3.00167
# Velocity P-wave (km/s) = 4.38371 6.24662 5.39616
#
# Compressibility (1/GPa) = 0.03856198
#
# Stress axis : x y z
#
# Youngs Moduli (GPa) = 103.14918 28.34243 86.59824
#
# Poissons Ratio (x) = 0.05748 0.31090
# Poissons Ratio (y) = 0.20920 0.29126
# Poissons Ratio (z) = 0.37032 0.09532
#
# Static dielectric constant tensor:
#      x y z
#    x 1.748670 0.000000 0.000000 
#    y 0.000000 1.725210 0.000000 
#    z 0.000000 0.000000 1.707360 
# 
# From -- ./inp_files/6487.got.cif
#   From: 2010.05.17/outbox.cif.g08.bks.cpg/sg62_4_cif.got.tgz:6487.got - 2010.06.03 15:25:27.
