data_PCOD9467982
_publ_section_title
;
Structure prediction by ZEFSAII (Michael W. Deem and Ramdas Pophale) SiO2 
 PCOD9467982
Probable space group: P N M A
;
_chemical_formula_sum "Si O2"
_cell_formula_units_Z 64
_cell_length_a 15.000000
_cell_length_b 9.000000
_cell_length_c 24.000000
_cell_angle_alpha 90.000000
_cell_angle_beta 90.000000
_cell_angle_gamma 90.000000
_cell_volume 3240.000000
_symmetry_space_group_name_H-M "P N M A"
_symmetry_group_IT_number 62
_symmetry_cell_setting 'orthorhombic'
loop_
_space_group_symop_operation_xyz
x,y,z
1/2-x,-y,1/2+z
1/2+x,1/2-y,1/2-z
-x,1/2+y,-z
-x,-y,-z
1/2+x,y,1/2-z
1/2-x,1/2+y,1/2+z
x,1/2-y,z
loop_
_atom_site_type_symbol
_atom_site_label
_atom_site_fract_x
_atom_site_fract_y
_atom_site_fract_z
Si Si1 0.364998 0.580870 0.351586
Si Si2 0.808652 0.569570 0.827750
Si Si3 0.261916 0.929618 0.548726
Si Si4 0.096588 0.427423 0.492662
Si Si5 0.340264 0.080194 0.880569
Si Si6 0.428199 0.930070 0.774904
Si Si7 0.869829 0.427904 0.265462
Si Si8 0.079636 0.429172 0.966584
O O1 0.391441 0.750000 0.336742
O O2 0.266115 0.587462 0.376969
O O3 0.362468 0.481164 0.297630
O O4 0.423388 0.521213 0.402453
O O5 0.809315 0.750000 0.827743
O O6 0.806264 0.525268 0.892374
O O7 0.888390 0.525789 0.785761
O O8 0.714954 0.517947 0.800505
O O9 0.249279 0.750000 0.548959
O O10 0.329450 0.967969 0.498901
O O11 0.167745 0.006900 0.536767
O O12 0.092366 0.250000 0.496437
O O13 0.130000 0.480129 0.432008
O O14 0.000000 0.500000 0.500000
O O15 0.373286 0.250000 0.887538
O O16 0.372872 0.009148 0.823001
O O17 0.420329 0.750000 0.779290
O O18 0.531181 0.972497 0.783902
O O19 0.866735 0.250000 0.267551
O O20 0.074387 0.250000 0.966373
O O21 0.000000 0.500000 0.000000
#
# Coordination Sequence:
#
# PCOD9467982 Si02
#       8
#     8   8   8   8   8   8   8   8
#     4  10  21  39  60  85 119 157 198 250 305 355
#     4   9  19  36  57  84 121 158 194 243 295 349
#     4  10  21  41  63  86 124 166 204 251 308 363
#     4  12  26  43  65  93 123 159 203 253 305 368
#     4  11  22  41  65  89 119 158 202 251 308 361
#     4  10  21  37  59  91 121 155 203 247 296 357
#     4  10  21  36  59  89 117 153 201 244 292 358
#     4  10  22  39  60  87 120 158 203 253 304 362
#
# _framework density 19.753086
#
# number of rings (size 3 to 8) (size 9 to 14) (size 15 to 20)
#    0.000    1.750    2.500    1.500    3.500    2.000 
#    0.000    1.250    0.000    0.000    0.000    0.000 
#    0.000    0.000    0.000    0.000    0.000    0.000 
#
# Total GULP energy -357248.771474 kJ/mol
# GULP energy per Si atom -5582.012054 kJ/mol
# Density = 1.970813 g / cm^3
# Si number density = 19.753086 Si / 1000 Ang^3
#
#
#
# Elastic Constant Matrix: (Units=GPa)
#
#
# Indices 1 2 3 4 5 6 
#
# 1 29.3660 4.6738 -29.4464 0.0000 0.0000 0.0000
# 2 4.6738 23.2069 -11.0004 0.0000 0.0000 0.0000
# 3 -29.4464 -11.0004 50.6739 0.0000 0.0000 0.0000
# 4 0.0000 0.0000 0.0000 21.3054 0.0000 0.0000
# 5 0.0000 0.0000 0.0000 0.0000 29.7944 0.0000
# 6 0.0000 0.0000 0.0000 0.0000 0.0000 23.1909
#
#
#
# Elastic Compliance Matrix: (Units=1/GPa)
#
#
# Indices 1 2 3 4 5 6 
#
# 1 0.082556 0.006814 0.049452 0.000000 0.000000 0.000000
# 2 0.006814 0.048596 0.014509 0.000000 0.000000 0.000000
# 3 0.049452 0.014509 0.051620 0.000000 0.000000 0.000000
# 4 0.000000 0.000000 0.000000 0.046937 0.000000 0.000000
# 5 0.000000 0.000000 0.000000 0.000000 0.033563 0.000000
# 6 0.000000 0.000000 0.000000 0.000000 0.000000 0.043120
#
#
# Mechanical properties :
#
#
# Convention : Reuss Voigt Hill
#
# Bulk Modulus (GPa) = 3.08336 3.52234 3.30285
# Shear Modulus (GPa) = 18.31850 24.12613 21.22232
#
# Velocity S-wave (km/s) = 3.04859 3.49862 3.28133
# Velocity P-wave (km/s) = 3.73580 4.25530 4.00398
#
# Compressibility (1/GPa) = 0.32432157
#
# Stress axis : x y z
#
# Youngs Moduli (GPa) = 12.11304 20.57800 19.37237
#
# Poissons Ratio (x) = -0.14022 -0.95800
# Poissons Ratio (y) = -0.08254 -0.28107
# Poissons Ratio (z) = -0.59901 -0.29857
#
# Static dielectric constant tensor:
#      x y z
#    x 1.711290 0.000000 0.000000 
#    y 0.000000 1.662610 0.000000 
#    z 0.000000 0.000000 1.681280 
# 
# From -- ./inp_files/29801.got.cif
#   From: 2010.05.17/outbox.ucp.g08.bks.cvg/sg62_15_cif.got.tgz:29801.got - 2010.06.11 16:29:25.
