data_PCOD9467436
_publ_section_title
;
Structure prediction by ZEFSAII (Michael W. Deem and Ramdas Pophale) SiO2 
 PCOD9467436
Probable space group: P N M A
;
_chemical_formula_sum "Si O2"
_cell_formula_units_Z 64
_cell_length_a 11.372473
_cell_length_b 15.553612
_cell_length_c 16.627816
_cell_angle_alpha 90.000000
_cell_angle_beta 90.000000
_cell_angle_gamma 90.000000
_cell_volume 2941.178518
_symmetry_space_group_name_H-M "P N M A"
_symmetry_group_IT_number 62
_symmetry_cell_setting 'orthorhombic'
loop_
_space_group_symop_operation_xyz
x,y,z
1/2-x,-y,1/2+z
1/2+x,1/2-y,1/2-z
-x,1/2+y,-z
-x,-y,-z
1/2+x,y,1/2-z
1/2-x,1/2+y,1/2+z
x,1/2-y,z
loop_
_atom_site_type_symbol
_atom_site_label
_atom_site_fract_x
_atom_site_fract_y
_atom_site_fract_z
Si Si1 0.225973 0.151367 0.438091
Si Si2 0.654669 0.509926 0.809700
Si Si3 0.228827 0.848293 0.122930
Si Si4 0.549241 0.602915 0.662049
Si Si5 0.803683 0.659506 0.879407
Si Si6 0.068382 0.989929 0.415899
Si Si7 0.734617 0.152720 0.568412
Si Si8 0.002283 0.059169 0.918265
O O1 0.195938 0.250000 0.415867
O O2 0.209527 0.143262 0.534889
O O3 0.359729 0.134277 0.407066
O O4 0.147359 0.075090 0.402545
O O5 0.724520 0.419141 0.813837
O O6 0.631897 0.573893 0.734935
O O7 0.728816 0.574514 0.865094
O O8 0.528400 0.486828 0.846767
O O9 0.240111 0.750000 0.150607
O O10 0.096462 0.870265 0.094658
O O11 0.432403 0.660313 0.661734
O O12 0.482762 0.513835 0.646005
O O13 0.743058 0.750000 0.855591
O O14 0.810952 0.659784 0.976108
O O15 0.150730 0.906165 0.422347
O O16 0.000000 0.000000 0.500000
O O17 0.751344 0.250000 0.598146
O O18 0.626995 0.099552 0.604138
O O19 0.000000 0.000000 0.000000
#
# Coordination Sequence:
#
# PCOD9467436 Si02
#       8
#     8   8   8   8   8   8   8   8
#     4  11  23  41  70 103 130 171 230 286 339 406
#     4  12  27  44  64  98 141 185 223 278 350 419
#     4  11  22  42  72 101 131 175 232 289 339 406
#     4  12  25  41  70  95 136 176 223 282 358 409
#     4  11  23  42  67  99 136 174 220 280 343 410
#     4  12  23  42  65  95 134 183 228 270 334 414
#     4  11  22  39  69 103 129 167 226 288 339 395
#     4  12  19  39  71  97 126 166 218 283 346 406
#
# _framework density 21.759986000000001
#
# number of rings (size 3 to 8) (size 9 to 14) (size 15 to 20)
#    0.000    0.500    7.500    0.750    1.750    4.500 
#    0.000    1.250    0.000    0.000    0.000    0.000 
#    0.000    0.000    0.000    0.000    0.000    0.000 
#
# Total GULP energy -356540.972764 kJ/mol
# GULP energy per Si atom -5570.952699 kJ/mol
# Density = 2.171046 g / cm^3
# Si number density = 21.759986 Si / 1000 Ang^3
#
#
#
# Elastic Constant Matrix: (Units=GPa)
#
#
# Indices 1 2 3 4 5 6 
#
# 1 96.3751 47.4239 -6.6677 0.0000 0.0000 0.0000
# 2 47.4239 170.7792 -1.4845 0.0000 0.0000 0.0000
# 3 -6.6677 -1.4845 20.3681 0.0000 0.0000 0.0000
# 4 0.0000 0.0000 0.0000 3.5614 0.0000 0.0000
# 5 0.0000 0.0000 0.0000 0.0000 14.8713 0.0000
# 6 0.0000 0.0000 0.0000 0.0000 0.0000 16.6625
#
#
#
# Elastic Compliance Matrix: (Units=1/GPa)
#
#
# Indices 1 2 3 4 5 6 
#
# 1 0.012303 -0.003383 0.003781 0.000000 0.000000 0.000000
# 2 -0.003383 0.006790 -0.000613 0.000000 0.000000 0.000000
# 3 0.003781 -0.000613 0.050289 0.000000 0.000000 0.000000
# 4 0.000000 0.000000 0.000000 0.280790 0.000000 0.000000
# 5 0.000000 0.000000 0.000000 0.000000 0.067244 0.000000
# 6 0.000000 0.000000 0.000000 0.000000 0.000000 0.060015
#
#
# Mechanical properties :
#
#
# Convention : Reuss Voigt Hill
#
# Bulk Modulus (GPa) = 14.50306 40.67395 27.58850
# Shear Modulus (GPa) = 9.98312 23.56908 16.77610
#
# Velocity S-wave (km/s) = 2.14425 3.29468 2.77963
# Velocity P-wave (km/s) = 3.57909 5.76245 4.79665
#
# Compressibility (1/GPa) = 0.06895098
#
# Stress axis : x y z
#
# Youngs Moduli (GPa) = 81.28348 147.28090 19.88489
#
# Poissons Ratio (x) = 0.49832 -0.07518
# Poissons Ratio (y) = 0.27502 0.01218
# Poissons Ratio (z) = -0.30732 0.09024
#
# Static dielectric constant tensor:
#      x y z
#    x 1.578640 0.000000 0.000000 
#    y 0.000000 1.776280 0.000000 
#    z 0.000000 0.000000 2.966690 
# 
# From -- ./inp_files/23242.got.cif
#   From: 2010.05.17/outbox.cif.g08.bks.cpg/sg62_12_cif.got.tgz:23242.got - 2010.06.03 15:25:27.
