data_PCOD9467886
_publ_section_title
;
Structure prediction by ZEFSAII (Michael W. Deem and Ramdas Pophale) SiO2 
 PCOD9467886
Probable space group: P N M A
;
_chemical_formula_sum "Si O2"
_cell_formula_units_Z 48
_cell_length_a 18.000000
_cell_length_b 15.000000
_cell_length_c 9.000000
_cell_angle_alpha 90.000000
_cell_angle_beta 90.000000
_cell_angle_gamma 90.000000
_cell_volume 2430.000000
_symmetry_space_group_name_H-M "P N M A"
_symmetry_group_IT_number 62
_symmetry_cell_setting 'orthorhombic'
loop_
_space_group_symop_operation_xyz
x,y,z
1/2-x,-y,1/2+z
1/2+x,1/2-y,1/2-z
-x,1/2+y,-z
-x,-y,-z
1/2+x,y,1/2-z
1/2-x,1/2+y,1/2+z
x,1/2-y,z
loop_
_atom_site_type_symbol
_atom_site_label
_atom_site_fract_x
_atom_site_fract_y
_atom_site_fract_z
Si Si1 0.221396 0.349400 0.139687
Si Si2 0.480225 0.645716 0.026538
Si Si3 0.871841 0.476241 0.862725
Si Si4 0.350593 0.355616 0.360763
Si Si5 0.653309 0.847043 0.111892
Si Si6 0.520734 0.979476 0.770708
O O1 0.187158 0.250000 0.141808
O O2 0.165625 0.429124 0.107448
O O3 0.268863 0.363077 0.289632
O O4 0.285951 0.349703 0.015938
O O5 0.453086 0.750000 0.028253
O O6 0.569245 0.652089 0.050851
O O7 0.454069 0.572046 0.148750
O O8 0.473087 0.588090 0.876215
O O9 0.841498 0.434574 0.710280
O O10 0.960316 0.489275 0.849436
O O11 0.851923 0.399115 0.978214
O O12 0.371108 0.250000 0.354221
O O13 0.409939 0.419584 0.277946
O O14 0.662060 0.750000 0.189575
#
# Coordination Sequence:
#
# PCOD9467886 Si02
#       6
#     8   8   8   8   8   8
#     4  10  21  37  57  78 107 149 189 228 277 330
#     4   9  17  33  57  83 108 141 189 231 273 335
#     4  11  22  35  55  86 114 142 181 237 280 321
#     4  11  22  39  60  83 114 152 188 222 275 343
#     4   9  17  34  57  77 102 143 187 223 269 332
#     4  10  20  34  57  85 113 149 183 230 286 329
#
# _framework density 19.753086
#
# number of rings (size 3 to 8) (size 9 to 14) (size 15 to 20)
#    0.000    2.000    1.667    2.500    0.000    2.000 
#    0.000    0.833    0.000    1.000    0.000    0.000 
#    0.000    0.000    0.000    0.000    0.000    0.000 
#
# Total GULP energy -267329.600314 kJ/mol
# GULP energy per Si atom -5569.366673 kJ/mol
# Density = 1.970813 g / cm^3
# Si number density = 19.753086 Si / 1000 Ang^3
#
#
#
# Elastic Constant Matrix: (Units=GPa)
#
#
# Indices 1 2 3 4 5 6 
#
# 1 -10.3580 -14.1090 -3.8923 0.0000 0.0000 0.0000
# 2 -14.1090 118.6943 20.0376 0.0000 0.0000 0.0000
# 3 -3.8923 20.0376 43.8616 0.0000 0.0000 0.0000
# 4 0.0000 0.0000 0.0000 30.1144 0.0000 0.0000
# 5 0.0000 0.0000 0.0000 0.0000 10.1202 0.0000
# 6 0.0000 0.0000 0.0000 0.0000 0.0000 35.4879
#
#
#
# Elastic Compliance Matrix: (Units=1/GPa)
#
#
# Indices 1 2 3 4 5 6 
#
# 1 -0.082703 -0.009310 -0.003086 0.000000 0.000000 0.000000
# 2 -0.009310 0.008081 -0.004518 0.000000 0.000000 0.000000
# 3 -0.003086 -0.004518 0.024589 0.000000 0.000000 0.000000
# 4 0.000000 0.000000 0.000000 0.033207 0.000000 0.000000
# 5 0.000000 0.000000 0.000000 0.000000 0.098812 0.000000
# 6 0.000000 0.000000 0.000000 0.000000 0.000000 0.028179
#
#
# Mechanical properties :
#
#
# Convention : Reuss Voigt Hill
#
# Bulk Modulus (GPa) = -11.92464 17.36340 2.71938
# Shear Modulus (GPa) = 43.08895 25.15527 34.12211
#
# Velocity S-wave (km/s) = 4.67559 3.57246 4.16075
# Velocity P-wave (km/s) = 4.80606 5.08193 4.94592
#
# Compressibility (1/GPa) = -0.08385996
#
# Stress axis : x y z
#
# Youngs Moduli (GPa) = -12.09150 123.74604 40.66849
#
# Poissons Ratio (x) = 1.15205 0.12550
# Poissons Ratio (y) = -0.11257 0.18374
# Poissons Ratio (z) = -0.03731 0.55907
#
# Static dielectric constant tensor:
#      x y z
#    x 1.662510 0.000000 0.000000 
#    y 0.000000 1.677060 0.000000 
#    z 0.000000 0.000000 1.787300 
# 
# From -- ./inp_files/7608.got.cif
#   From: 2010.05.17/outbox.ucp.g08.bks.cvg/sg62_4_cif.got.tgz:7608.got - 2010.06.11 16:29:25.
