data_PCOD9467371
_publ_section_title
;
Structure prediction by ZEFSAII (Michael W. Deem and Ramdas Pophale) SiO2 
 PCOD9467371
Probable space group: P N M A
;
_chemical_formula_sum "Si O2"
_cell_formula_units_Z 64
_cell_length_a 9.733464
_cell_length_b 14.789719
_cell_length_c 21.536870
_cell_angle_alpha 90.000000
_cell_angle_beta 90.000000
_cell_angle_gamma 90.000000
_cell_volume 3100.344373
_symmetry_space_group_name_H-M "P N M A"
_symmetry_group_IT_number 62
_symmetry_cell_setting 'orthorhombic'
loop_
_space_group_symop_operation_xyz
x,y,z
1/2-x,-y,1/2+z
1/2+x,1/2-y,1/2-z
-x,1/2+y,-z
-x,-y,-z
1/2+x,y,1/2-z
1/2-x,1/2+y,1/2+z
x,1/2-y,z
loop_
_atom_site_type_symbol
_atom_site_label
_atom_site_fract_x
_atom_site_fract_y
_atom_site_fract_z
Si Si1 0.170781 0.930369 0.736052
Si Si2 0.599715 0.145013 0.169590
Si Si3 0.865874 0.342817 0.685036
Si Si4 0.532165 0.647326 0.421162
Si Si5 0.758291 0.857798 0.996319
Si Si6 0.742856 0.502487 0.895771
Si Si7 0.418400 0.887399 0.284898
Si Si8 0.923444 0.017561 0.584257
O O1 0.281350 0.881940 0.780493
O O2 0.244973 0.982836 0.678629
O O3 0.048632 0.874422 0.702336
O O4 0.093610 0.005254 0.777523
O O5 0.611704 0.250000 0.154981
O O6 0.606658 0.085325 0.105890
O O7 0.869227 0.250000 0.647153
O O8 0.730658 0.347061 0.724932
O O9 0.863426 0.428707 0.642519
O O10 0.989795 0.350211 0.730775
O O11 0.583736 0.750000 0.431699
O O12 0.403470 0.631888 0.467432
O O13 0.649574 0.571022 0.421537
O O14 0.469925 0.641409 0.352002
O O15 0.723598 0.750000 0.996534
O O16 0.648190 0.926915 0.028639
O O17 0.771242 0.900743 0.928012
O O18 0.587869 0.471836 0.913328
#
# Coordination Sequence:
#
# PCOD9467371 Si02
#       8
#     8   8   8   8   8   8   8   8
#     4  11  21  40  60  89 128 163 204 258 306 365
#     4  11  22  38  62  89 122 163 204 253 313 374
#     4  12  22  35  59  92 129 166 202 247 310 382
#     4  11  23  40  63  94 128 166 207 257 315 377
#     4  11  24  45  69  89 119 167 216 261 317 375
#     4  11  24  41  64  91 125 167 212 264 309 367
#     4  12  21  39  60  92 132 167 201 253 317 377
#     4  11  23  42  63  91 128 158 205 261 319 370
#
# _framework density 20.642868
#
# number of rings (size 3 to 8) (size 9 to 14) (size 15 to 20)
#    0.000    0.750    5.000    4.125    0.000    3.500 
#    0.000    0.625    0.000    3.750    0.000    0.000 
#    0.000    0.000    0.000    0.000    0.000    0.000 
#
# Total GULP energy -357164.194061 kJ/mol
# GULP energy per Si atom -5580.690532 kJ/mol
# Density = 2.059588 g / cm^3
# Si number density = 20.642868 Si / 1000 Ang^3
#
#
#
# Elastic Constant Matrix: (Units=GPa)
#
#
# Indices 1 2 3 4 5 6 
#
# 1 102.9722 68.7694 14.9511 0.0000 0.0000 0.0000
# 2 68.7694 134.2274 12.1746 0.0000 0.0000 0.0000
# 3 14.9511 12.1746 45.6480 0.0000 0.0000 0.0000
# 4 0.0000 0.0000 0.0000 13.6257 0.0000 0.0000
# 5 0.0000 0.0000 0.0000 0.0000 7.5512 0.0000
# 6 0.0000 0.0000 0.0000 0.0000 0.0000 30.7538
#
#
#
# Elastic Compliance Matrix: (Units=1/GPa)
#
#
# Indices 1 2 3 4 5 6 
#
# 1 0.015144 -0.007490 -0.002962 0.000000 0.000000 0.000000
# 2 -0.007490 0.011339 -0.000571 0.000000 0.000000 0.000000
# 3 -0.002962 -0.000571 0.023029 0.000000 0.000000 0.000000
# 4 0.000000 0.000000 0.000000 0.073391 0.000000 0.000000
# 5 0.000000 0.000000 0.000000 0.000000 0.132429 0.000000
# 6 0.000000 0.000000 0.000000 0.000000 0.000000 0.032516
#
#
# Mechanical properties :
#
#
# Convention : Reuss Voigt Hill
#
# Bulk Modulus (GPa) = 36.40940 52.73752 44.57346
# Shear Modulus (GPa) = 15.67153 22.84965 19.26059
#
# Velocity S-wave (km/s) = 2.75830 3.33062 3.05788
# Velocity P-wave (km/s) = 5.27450 6.35561 5.84013
#
# Compressibility (1/GPa) = 0.02746544
#
# Stress axis : x y z
#
# Youngs Moduli (GPa) = 66.03471 88.18990 43.42287
#
# Poissons Ratio (x) = 0.66053 0.12863
# Poissons Ratio (y) = 0.49459 0.02480
# Poissons Ratio (z) = 0.19562 0.05036
#
# Static dielectric constant tensor:
#      x y z
#    x 1.754140 0.000000 0.000000 
#    y 0.000000 1.767120 0.000000 
#    z 0.000000 0.000000 1.752140 
# 
# From -- ./inp_files/29003.got.cif
#   From: 2010.05.17/outbox.cif.g08.bks.cpg/sg62_15_cif.got.tgz:29003.got - 2010.06.03 15:25:27.
