data_PCOD9467866
_publ_section_title
;
Structure prediction by ZEFSAII (Michael W. Deem and Ramdas Pophale) SiO2 
 PCOD9467866
Probable space group: P N M A
;
_chemical_formula_sum "Si O2"
_cell_formula_units_Z 64
_cell_length_a 15.000000
_cell_length_b 9.000000
_cell_length_c 24.000000
_cell_angle_alpha 90.000000
_cell_angle_beta 90.000000
_cell_angle_gamma 90.000000
_cell_volume 3240.000000
_symmetry_space_group_name_H-M "P N M A"
_symmetry_group_IT_number 62
_symmetry_cell_setting 'orthorhombic'
loop_
_space_group_symop_operation_xyz
x,y,z
1/2-x,-y,1/2+z
1/2+x,1/2-y,1/2-z
-x,1/2+y,-z
-x,-y,-z
1/2+x,y,1/2-z
1/2-x,1/2+y,1/2+z
x,1/2-y,z
loop_
_atom_site_type_symbol
_atom_site_label
_atom_site_fract_x
_atom_site_fract_y
_atom_site_fract_z
Si Si1 0.958543 0.579726 0.363856
Si Si2 0.628266 0.422061 0.426959
Si Si3 0.788446 0.421782 0.341104
Si Si4 0.055287 0.928160 0.872655
Si Si5 0.811831 0.929363 0.736526
Si Si6 0.858451 0.929225 0.612334
Si Si7 0.496226 0.421995 0.734049
Si Si8 0.205135 0.927377 0.963697
O O1 0.963876 0.750000 0.381199
O O2 0.042037 0.490916 0.387765
O O3 0.966625 0.571074 0.296583
O O4 0.862794 0.510328 0.374596
O O5 0.614115 0.250000 0.442359
O O6 0.697981 0.427139 0.376400
O O7 0.533984 0.480283 0.404645
O O8 0.668753 0.502822 0.480090
O O9 0.817727 0.250000 0.336333
O O10 0.765412 0.478935 0.278914
O O11 0.049398 0.750000 0.863859
O O12 0.137314 0.957827 0.913030
O O13 0.057496 0.006049 0.813030
O O14 0.811463 0.750000 0.737892
O O15 0.813072 0.975389 0.671640
O O16 0.904028 0.987737 0.762432
O O17 0.860110 0.750000 0.612815
O O18 0.800429 0.979405 0.559704
O O19 0.478792 0.250000 0.720587
O O20 0.208562 0.750000 0.971154
#
# Coordination Sequence:
#
# PCOD9467866 Si02
#       8
#     8   8   8   8   8   8   8   8
#     4  10  22  37  54  82 117 150 184 229 285 337
#     4  10  21  38  57  82 115 148 187 229 277 334
#     4  10  20  35  58  85 110 147 191 229 276 333
#     4  10  20  36  57  82 114 150 189 230 269 331
#     4   9  17  33  56  80 109 145 182 226 278 327
#     4   9  19  37  58  82 110 144 189 234 277 332
#     4  10  20  33  51  81 117 149 181 221 277 335
#     4  10  22  37  58  85 110 145 192 235 279 330
#
# _framework density 19.753086
#
# number of rings (size 3 to 8) (size 9 to 14) (size 15 to 20)
#    0.000    2.250    1.250    1.125    1.750    4.000 
#    0.000    0.625    0.000    0.000    0.000    0.000 
#    0.000    0.000    0.000    0.000    0.000    0.000 
#
# Total GULP energy -357088.377357 kJ/mol
# GULP energy per Si atom -5579.505896 kJ/mol
# Density = 1.970813 g / cm^3
# Si number density = 19.753086 Si / 1000 Ang^3
#
#
#
# Elastic Constant Matrix: (Units=GPa)
#
#
# Indices 1 2 3 4 5 6 
#
# 1 32.2348 4.7644 -28.8430 0.0000 0.0000 0.0000
# 2 4.7644 4.0054 0.5272 0.0000 0.0000 0.0000
# 3 -28.8430 0.5272 2.3165 0.0000 0.0000 0.0000
# 4 0.0000 0.0000 0.0000 26.9024 0.0000 0.0000
# 5 0.0000 0.0000 0.0000 0.0000 5.9112 0.0000
# 6 0.0000 0.0000 0.0000 0.0000 0.0000 4.3810
#
#
#
# Elastic Compliance Matrix: (Units=1/GPa)
#
#
# Indices 1 2 3 4 5 6 
#
# 1 -0.002778 0.008101 -0.036438 0.000000 0.000000 0.000000
# 2 0.008101 0.233753 0.047666 0.000000 0.000000 0.000000
# 3 -0.036438 0.047666 -0.032849 0.000000 0.000000 0.000000
# 4 0.000000 0.000000 0.000000 0.037171 0.000000 0.000000
# 5 0.000000 0.000000 0.000000 0.000000 0.169171 0.000000
# 6 0.000000 0.000000 0.000000 0.000000 0.000000 0.228258
#
#
# Mechanical properties :
#
#
# Convention : Reuss Voigt Hill
#
# Bulk Modulus (GPa) = 4.22326 -0.94956 1.63685
# Shear Modulus (GPa) = 7.42946 11.57946 9.50446
#
# Velocity S-wave (km/s) = 1.94148 2.42380 2.19592
# Velocity P-wave (km/s) = 2.67739 2.71134 2.69442
#
# Compressibility (1/GPa) = 0.23678381
#
# Stress axis : x y z
#
# Youngs Moduli (GPa) = -359.91724 4.27801 -30.44238
#
# Poissons Ratio (x) = -0.03466 -1.10924
# Poissons Ratio (y) = 2.91564 1.45105
# Poissons Ratio (z) = -13.11449 -0.20391
#
# Static dielectric constant tensor:
#      x y z
#    x 1.711320 0.000000 0.000000 
#    y 0.000000 1.676930 0.000000 
#    z 0.000000 0.000000 1.681230 
# 
# From -- ./inp_files/29751.got.cif
#   From: 2010.05.17/outbox.ucp.g08.bks.cvg/sg62_15_cif.got.tgz:29751.got - 2010.06.11 16:29:25.
