data_PCOD9467972
_publ_section_title
;
Structure prediction by ZEFSAII (Michael W. Deem and Ramdas Pophale) SiO2 
 PCOD9467972
Probable space group: P N M A
;
_chemical_formula_sum "Si O2"
_cell_formula_units_Z 56
_cell_length_a 6.000000
_cell_length_b 30.000000
_cell_length_c 15.000000
_cell_angle_alpha 90.000000
_cell_angle_beta 90.000000
_cell_angle_gamma 90.000000
_cell_volume 2700.000000
_symmetry_space_group_name_H-M "P N M A"
_symmetry_group_IT_number 62
_symmetry_cell_setting 'orthorhombic'
loop_
_space_group_symop_operation_xyz
x,y,z
1/2-x,-y,1/2+z
1/2+x,1/2-y,1/2-z
-x,1/2+y,-z
-x,-y,-z
1/2+x,y,1/2-z
1/2-x,1/2+y,1/2+z
x,1/2-y,z
loop_
_atom_site_type_symbol
_atom_site_label
_atom_site_fract_x
_atom_site_fract_y
_atom_site_fract_z
Si Si1 0.972629 0.750000 0.952487
Si Si2 0.496082 0.350323 0.208187
Si Si3 0.386185 0.087820 0.885480
Si Si4 0.406403 0.160677 0.733233
Si Si5 0.491375 0.849437 0.465441
Si Si6 0.774011 0.507495 0.697632
Si Si7 0.477290 0.750000 0.856727
Si Si8 0.331527 0.589458 0.940271
O O1 0.723656 0.750000 0.906077
O O2 0.225628 0.750000 0.904928
O O3 0.967323 0.701984 0.003490
O O4 0.745876 0.360923 0.251532
O O5 0.511538 0.296862 0.195445
O O6 0.505158 0.378401 0.116550
O O7 0.438954 0.116793 0.795875
O O8 0.224854 0.122110 0.938143
O O9 0.283802 0.041218 0.849860
O O10 0.570625 0.076839 0.961693
O O11 0.662134 0.181837 0.739176
O O12 0.376831 0.151669 0.628469
O O13 0.621377 0.878599 0.538504
O O14 0.524450 0.510770 0.749293
O O15 0.780609 0.546832 0.622829
#
# Coordination Sequence:
#
# PCOD9467972 Si02
#       8
#     4   8   8   8   8   8   4   8
#     4  12  26  45  72 115 146 189 249 314 355 435
#     4  12  26  45  71 103 146 191 242 304 367 437
#     4  11  25  46  77 103 147 194 251 298 375 445
#     4  10  20  40  66  98 132 184 233 286 356 426
#     4  11  25  44  75 105 150 195 245 306 373 438
#     4  12  29  50  74 110 153 190 245 310 367 441
#     4  12  24  47  72 103 142 195 251 294 373 439
#     4  12  26  45  75 108 145 197 243 304 373 442
#
# _framework density 20.740741
#
# number of rings (size 3 to 8) (size 9 to 14) (size 15 to 20)
#    0.000    0.571    2.857    5.143    6.000    0.571 
#    0.000    2.857    0.000    0.000    0.000    0.000 
#    0.000    0.000    0.000    0.000    0.000    0.000 
#
# Total GULP energy -311804.120051 kJ/mol
# GULP energy per Si atom -5567.930715 kJ/mol
# Density = 2.069353 g / cm^3
# Si number density = 20.740741 Si / 1000 Ang^3
#
#
#
# Elastic Constant Matrix: (Units=GPa)
#
#
# Indices 1 2 3 4 5 6 
#
# 1 148.5413 21.1297 41.2023 0.0000 0.0000 0.0000
# 2 21.1297 95.9062 22.5863 0.0000 0.0000 0.0000
# 3 41.2023 22.5863 87.3753 0.0000 0.0000 0.0000
# 4 0.0000 0.0000 0.0000 38.9316 0.0000 0.0000
# 5 0.0000 0.0000 0.0000 0.0000 57.0615 0.0000
# 6 0.0000 0.0000 0.0000 0.0000 0.0000 32.3893
#
#
#
# Elastic Compliance Matrix: (Units=1/GPa)
#
#
# Indices 1 2 3 4 5 6 
#
# 1 0.007819 -0.000910 -0.003452 0.000000 0.000000 0.000000
# 2 -0.000910 0.011209 -0.002468 0.000000 0.000000 0.000000
# 3 -0.003452 -0.002468 0.013711 0.000000 0.000000 0.000000
# 4 0.000000 0.000000 0.000000 0.025686 0.000000 0.000000
# 5 0.000000 0.000000 0.000000 0.000000 0.017525 0.000000
# 6 0.000000 0.000000 0.000000 0.000000 0.000000 0.030874
#
#
# Mechanical properties :
#
#
# Convention : Reuss Voigt Hill
#
# Bulk Modulus (GPa) = 52.41577 55.73994 54.07785
# Shear Modulus (GPa) = 39.41871 42.13679 40.77775
#
# Velocity S-wave (km/s) = 4.36425 4.51221 4.43885
# Velocity P-wave (km/s) = 7.12196 7.35389 7.23886
#
# Compressibility (1/GPa) = 0.01907823
#
# Stress axis : x y z
#
# Youngs Moduli (GPa) = 127.89292 89.21724 72.93548
#
# Poissons Ratio (x) = 0.08116 0.25177
# Poissons Ratio (y) = 0.11635 0.18003
# Poissons Ratio (z) = 0.44148 0.22022
#
# Static dielectric constant tensor:
#      x y z
#    x 1.844400 0.000000 0.000000 
#    y 0.000000 1.712370 0.000000 
#    z 0.000000 0.000000 1.791290 
# 
# From -- ./inp_files/16302.got.cif
#   From: 2010.05.17/outbox.ucp.g08.bks.cvg/sg62_9_cif.got.tgz:16302.got - 2010.06.11 16:29:25.
