data_PCOD9467350
_publ_section_title
;
Structure prediction by ZEFSAII (Michael W. Deem and Ramdas Pophale) SiO2 
 PCOD9467350
Probable space group: P N M A
;
_chemical_formula_sum "Si O2"
_cell_formula_units_Z 64
_cell_length_a 11.153152
_cell_length_b 9.110729
_cell_length_c 31.187299
_cell_angle_alpha 90.000000
_cell_angle_beta 90.000000
_cell_angle_gamma 90.000000
_cell_volume 3169.045784
_symmetry_space_group_name_H-M "P N M A"
_symmetry_group_IT_number 62
_symmetry_cell_setting 'orthorhombic'
loop_
_space_group_symop_operation_xyz
x,y,z
1/2-x,-y,1/2+z
1/2+x,1/2-y,1/2-z
-x,1/2+y,-z
-x,-y,-z
1/2+x,y,1/2-z
1/2-x,1/2+y,1/2+z
x,1/2-y,z
loop_
_atom_site_type_symbol
_atom_site_label
_atom_site_fract_x
_atom_site_fract_y
_atom_site_fract_z
Si Si1 0.567064 0.429026 0.779398
Si Si2 0.482309 0.921400 0.546406
Si Si3 0.754015 0.416570 0.082235
Si Si4 0.883463 0.082584 0.410893
Si Si5 0.649513 0.924927 0.282861
Si Si6 0.078838 0.576215 0.365621
Si Si7 0.624434 0.581423 0.006653
Si Si8 0.333300 0.422391 0.619748
O O1 0.573143 0.250000 0.778198
O O2 0.465504 0.479015 0.744772
O O3 0.709279 0.476838 0.775876
O O4 0.498607 0.467089 0.824020
O O5 0.442334 0.750000 0.540462
O O6 0.605911 0.913757 0.573189
O O7 0.500000 0.000000 0.500000
O O8 0.404230 0.020098 0.578630
O O9 0.708272 0.250000 0.083065
O O10 0.705225 0.498534 0.124523
O O11 0.704975 0.499101 0.040382
O O12 0.917265 0.250000 0.402031
O O13 0.826784 0.078237 0.458187
O O14 0.785604 0.019277 0.379398
O O15 0.997399 0.978317 0.405265
O O16 0.656314 0.750000 0.273954
O O17 0.613859 0.942237 0.332839
O O18 0.094295 0.750000 0.365107
O O19 0.608186 0.750000 0.019297
O O20 0.500000 0.500000 0.000000
O O21 0.304310 0.250000 0.614705
#
# Coordination Sequence:
#
# PCOD9467350 Si02
#       8
#     8   8   8   8   8   8   8   8
#     4   9  18  34  57  90 127 162 204 261 323 375
#     4  11  25  44  64  88 123 166 210 259 311 373
#     4  11  24  40  57  83 121 161 201 251 311 371
#     4  11  22  36  57  84 118 158 199 246 303 364
#     4   9  18  34  58  90 126 160 201 258 317 376
#     4  11  21  35  59  89 119 154 201 256 310 367
#     4  11  22  34  53  81 113 152 198 247 298 357
#     4  11  22  38  63  92 120 158 208 256 305 367
#
# _framework density 20.195352
#
# number of rings (size 3 to 8) (size 9 to 14) (size 15 to 20)
#    0.000    1.500    2.500    3.000    0.000    6.500 
#    0.000    2.500    0.000    3.000    0.000    0.000 
#    0.000    0.000    0.000    0.000    0.000    0.000 
#
# Total GULP energy -356485.216075 kJ/mol
# GULP energy per Si atom -5570.081501 kJ/mol
# Density = 2.014939 g / cm^3
# Si number density = 20.195352 Si / 1000 Ang^3
#
#
#
# Elastic Constant Matrix: (Units=GPa)
#
#
# Indices 1 2 3 4 5 6 
#
# 1 73.6478 9.6485 25.4432 0.0000 0.0000 0.0000
# 2 9.6485 64.1938 11.9387 0.0000 0.0000 0.0000
# 3 25.4432 11.9387 75.9010 0.0000 0.0000 0.0000
# 4 0.0000 0.0000 0.0000 14.8390 0.0000 0.0000
# 5 0.0000 0.0000 0.0000 0.0000 36.5342 0.0000
# 6 0.0000 0.0000 0.0000 0.0000 0.0000 26.1541
#
#
#
# Elastic Compliance Matrix: (Units=1/GPa)
#
#
# Indices 1 2 3 4 5 6 
#
# 1 0.015478 -0.001402 -0.004968 0.000000 0.000000 0.000000
# 2 -0.001402 0.016174 -0.002074 0.000000 0.000000 0.000000
# 3 -0.004968 -0.002074 0.015167 0.000000 0.000000 0.000000
# 4 0.000000 0.000000 0.000000 0.067390 0.000000 0.000000
# 5 0.000000 0.000000 0.000000 0.000000 0.027372 0.000000
# 6 0.000000 0.000000 0.000000 0.000000 0.000000 0.038235
#
#
# Mechanical properties :
#
#
# Convention : Reuss Voigt Hill
#
# Bulk Modulus (GPa) = 33.41092 34.20039 33.80566
# Shear Modulus (GPa) = 24.19182 26.61959 25.40571
#
# Velocity S-wave (km/s) = 3.46481 3.63451 3.55067
# Velocity P-wave (km/s) = 5.70844 5.88085 5.79529
#
# Compressibility (1/GPa) = 0.02993033
#
# Stress axis : x y z
#
# Youngs Moduli (GPa) = 64.60715 61.82632 65.93428
#
# Poissons Ratio (x) = 0.08671 0.32756
# Poissons Ratio (y) = 0.09061 0.13675
# Poissons Ratio (z) = 0.32096 0.12823
#
# Static dielectric constant tensor:
#      x y z
#    x 1.875800 0.000000 0.000000 
#    y 0.000000 1.689140 0.000000 
#    z 0.000000 0.000000 1.750530 
# 
# From -- ./inp_files/32477.got.cif
#   From: 2010.05.17/outbox.cif.g08.bks.cpg/sg62_17_cif.got.tgz:32477.got - 2010.06.03 15:25:27.
