data_PCOD9467773
_publ_section_title
;
Structure prediction by ZEFSAII (Michael W. Deem and Ramdas Pophale) SiO2 
 PCOD9467773
Probable space group: P N M A
;
_chemical_formula_sum "Si O2"
_cell_formula_units_Z 64
_cell_length_a 21.000000
_cell_length_b 9.000000
_cell_length_c 18.000000
_cell_angle_alpha 90.000000
_cell_angle_beta 90.000000
_cell_angle_gamma 90.000000
_cell_volume 3402.000000
_symmetry_space_group_name_H-M "P N M A"
_symmetry_group_IT_number 62
_symmetry_cell_setting 'orthorhombic'
loop_
_space_group_symop_operation_xyz
x,y,z
1/2-x,-y,1/2+z
1/2+x,1/2-y,1/2-z
-x,1/2+y,-z
-x,-y,-z
1/2+x,y,1/2-z
1/2-x,1/2+y,1/2+z
x,1/2-y,z
loop_
_atom_site_type_symbol
_atom_site_label
_atom_site_fract_x
_atom_site_fract_y
_atom_site_fract_z
Si Si1 0.536327 0.574724 0.855193
Si Si2 0.592717 0.572786 0.094017
Si Si3 0.603849 0.430075 0.361004
Si Si4 0.188500 0.570354 0.271148
Si Si5 0.841021 0.070342 0.437677
Si Si6 0.321029 0.569933 0.346933
Si Si7 0.960719 0.074242 0.179363
Si Si8 0.796802 0.569655 0.982825
O O1 0.534546 0.750000 0.873744
O O2 0.476193 0.499788 0.894760
O O3 0.606822 0.517739 0.877790
O O4 0.527849 0.558443 0.767433
O O5 0.584086 0.750000 0.096539
O O6 0.643243 0.533945 0.158349
O O7 0.625318 0.536165 0.015969
O O8 0.603685 0.250000 0.353191
O O9 0.650886 0.496034 0.297582
O O10 0.529027 0.477043 0.355949
O O11 0.639514 0.470952 0.437788
O O12 0.188686 0.750000 0.261878
O O13 0.262170 0.526091 0.291222
O O14 0.836463 0.250000 0.429749
O O15 0.768118 0.015499 0.442292
O O16 0.325063 0.750000 0.343415
O O17 0.392513 0.504796 0.335979
O O18 0.299412 0.526795 0.430715
O O19 0.953161 0.250000 0.161939
O O20 0.793885 0.750000 0.982438
#
# Coordination Sequence:
#
# PCOD9467773 Si02
#       8
#     8   8   8   8   8   8   8   8
#     4  10  20  33  51  79 114 145 177 218 264 321
#     4  10  18  32  55  78 105 142 179 219 266 319
#     4  10  21  37  59  82 109 144 183 223 266 322
#     4  10  20  35  56  81 110 139 175 225 273 319
#     4   9  17  31  52  78 107 141 180 221 265 319
#     4  10  21  38  59  81 105 140 185 228 268 319
#     4  10  22  37  52  81 115 142 179 226 271 320
#     4   9  18  35  58  80 101 137 188 227 263 317
#
# _framework density 18.812463000000001
#
# number of rings (size 3 to 8) (size 9 to 14) (size 15 to 20)
#    0.000    2.250    2.500    0.375    1.750    2.000 
#    0.000    0.625    0.000    1.500    0.000    0.000 
#    0.000    0.000    0.000    0.000    0.000    0.000 
#
# Total GULP energy -356664.353078 kJ/mol
# GULP energy per Si atom -5572.880517 kJ/mol
# Density = 1.876965 g / cm^3
# Si number density = 18.812463 Si / 1000 Ang^3
#
#
#
# Elastic Constant Matrix: (Units=GPa)
#
#
# Indices 1 2 3 4 5 6 
#
# 1 170.7827 18.6654 12.2902 0.0000 0.0000 0.0000
# 2 18.6654 8.5153 4.2435 0.0000 0.0000 0.0000
# 3 12.2902 4.2435 18.7300 0.0000 0.0000 0.0000
# 4 0.0000 0.0000 0.0000 12.8637 0.0000 0.0000
# 5 0.0000 0.0000 0.0000 0.0000 36.9954 0.0000
# 6 0.0000 0.0000 0.0000 0.0000 0.0000 38.1169
#
#
#
# Elastic Compliance Matrix: (Units=1/GPa)
#
#
# Indices 1 2 3 4 5 6 
#
# 1 0.007732 -0.016256 -0.001391 0.000000 0.000000 0.000000
# 2 -0.016256 0.166558 -0.027069 0.000000 0.000000 0.000000
# 3 -0.001391 -0.027069 0.060435 0.000000 0.000000 0.000000
# 4 0.000000 0.000000 0.000000 0.077738 0.000000 0.000000
# 5 0.000000 0.000000 0.000000 0.000000 0.027030 0.000000
# 6 0.000000 0.000000 0.000000 0.000000 0.000000 0.026235
#
#
# Mechanical properties :
#
#
# Convention : Reuss Voigt Hill
#
# Bulk Modulus (GPa) = 6.88253 29.82512 18.35383
# Shear Modulus (GPa) = 9.92868 28.45046 19.18957
#
# Velocity S-wave (km/s) = 2.29982 3.89307 3.19728
# Velocity P-wave (km/s) = 3.27394 6.00803 4.83813
#
# Compressibility (1/GPa) = 0.14529533
#
# Stress axis : x y z
#
# Youngs Moduli (GPa) = 129.33060 6.00391 16.54658
#
# Poissons Ratio (x) = 0.09760 0.02301
# Poissons Ratio (y) = 2.10237 0.44790
# Poissons Ratio (z) = 0.17986 0.16252
#
# Static dielectric constant tensor:
#      x y z
#    x 1.664480 0.000000 0.000000 
#    y 0.000000 1.640520 0.000000 
#    z 0.000000 0.000000 1.678190 
# 
# From -- ./inp_files/24760.got.cif
#   From: 2010.05.17/outbox.ucp.g08.bks.cvg/sg62_13_cif.got.tgz:24760.got - 2010.06.11 16:29:25.
