data_PCOD9467672
_publ_section_title
;
Structure prediction by ZEFSAII (Michael W. Deem and Ramdas Pophale) SiO2 
 PCOD9467672
Probable space group: P N M A
;
_chemical_formula_sum "Si O2"
_cell_formula_units_Z 32
_cell_length_a 8.167751
_cell_length_b 32.145698
_cell_length_c 4.925965
_cell_angle_alpha 90.000000
_cell_angle_beta 90.000000
_cell_angle_gamma 90.000000
_cell_volume 1293.351799
_symmetry_space_group_name_H-M "P N M A"
_symmetry_group_IT_number 62
_symmetry_cell_setting 'orthorhombic'
loop_
_space_group_symop_operation_xyz
x,y,z
1/2-x,-y,1/2+z
1/2+x,1/2-y,1/2-z
-x,1/2+y,-z
-x,-y,-z
1/2+x,y,1/2-z
1/2-x,1/2+y,1/2+z
x,1/2-y,z
loop_
_atom_site_type_symbol
_atom_site_label
_atom_site_fract_x
_atom_site_fract_y
_atom_site_fract_z
Si Si1 0.257533 0.076541 0.098202
Si Si2 0.072980 0.955657 0.083896
Si Si3 0.603853 0.669253 0.880066
Si Si4 0.426345 0.701678 0.357415
O O1 0.366700 0.049915 0.888471
O O2 0.072970 0.076168 0.989949
O O3 0.329560 0.122534 0.117117
O O4 0.274600 0.055231 0.390257
O O5 0.000000 0.000000 0.000000
O O6 0.550959 0.685087 0.586337
O O7 0.748007 0.696277 0.013039
O O8 0.451503 0.675015 0.085123
O O9 0.455220 0.750000 0.296659
#
# Coordination Sequence:
#
# PCOD9467672 Si02
#       4
#     8   8   8   8
#     4  12  24  43  67  96 129 168 213 264 319 379
#     4  12  25  44  67  96 130 170 214 264 319 380
#     4  12  25  43  66  96 129 168 213 264 318 379
#     4  12  25  44  67  96 130 170 214 264 319 380
#
# _framework density 24.741917999999998
#
# number of rings (size 3 to 8) (size 9 to 14) (size 15 to 20)
#    0.000    0.000    0.000   12.000    0.000    0.000 
#    0.000    0.000    0.000    0.000    0.000    0.000 
#    0.000    0.000    0.000    0.000    0.000    0.000 
#
# Total GULP energy -179670.487152 kJ/mol
# GULP energy per Si atom -5614.702723 kJ/mol
# Density = 2.468560 g / cm^3
# Si number density = 24.741918 Si / 1000 Ang^3
#
#
#
# Elastic Constant Matrix: (Units=GPa)
#
#
# Indices 1 2 3 4 5 6 
#
# 1 81.4227 -18.0147 -9.9383 0.0000 0.0000 0.0000
# 2 -18.0147 99.5116 7.8444 0.0000 0.0000 0.0000
# 3 -9.9383 7.8444 76.4602 0.0000 0.0000 0.0000
# 4 0.0000 0.0000 0.0000 31.8209 0.0000 0.0000
# 5 0.0000 0.0000 0.0000 0.0000 22.5956 0.0000
# 6 0.0000 0.0000 0.0000 0.0000 0.0000 42.3939
#
#
#
# Elastic Compliance Matrix: (Units=1/GPa)
#
#
# Indices 1 2 3 4 5 6 
#
# 1 0.012953 0.002230 0.001455 0.000000 0.000000 0.000000
# 2 0.002230 0.010515 -0.000789 0.000000 0.000000 0.000000
# 3 0.001455 -0.000789 0.013349 0.000000 0.000000 0.000000
# 4 0.000000 0.000000 0.000000 0.031426 0.000000 0.000000
# 5 0.000000 0.000000 0.000000 0.000000 0.044256 0.000000
# 6 0.000000 0.000000 0.000000 0.000000 0.000000 0.023588
#
#
# Mechanical properties :
#
#
# Convention : Reuss Voigt Hill
#
# Bulk Modulus (GPa) = 23.46960 24.13081 23.80020
# Shear Modulus (GPa) = 34.60262 37.86228 36.23245
#
# Velocity S-wave (km/s) = 3.74377 3.91613 3.83092
# Velocity P-wave (km/s) = 5.30981 5.49748 5.40446
#
# Compressibility (1/GPa) = 0.04260831
#
# Stress axis : x y z
#
# Youngs Moduli (GPa) = 77.20473 95.10230 74.91353
#
# Poissons Ratio (x) = -0.21209 -0.10898
# Poissons Ratio (y) = -0.17218 0.05910
# Poissons Ratio (z) = -0.11232 0.07503
#
# Static dielectric constant tensor:
#      x y z
#    x 1.993070 0.000000 0.000000 
#    y 0.000000 1.921490 0.000000 
#    z 0.000000 0.000000 1.889300 
# 
# From -- ./inp_files/223.got.cif
#   From: 2010.05.17/outbox.cif.g08.bks.cpg/sg62_1_cif.got.tgz:223.got - 2010.06.03 15:25:27.
