data_PCOD9467094
_publ_section_title
;
Structure prediction by ZEFSAII (Michael W. Deem and Ramdas Pophale) SiO2 
 PCOD9467094
Probable space group: P N M A
;
_chemical_formula_sum "Si O2"
_cell_formula_units_Z 40
_cell_length_a 13.167346
_cell_length_b 14.620931
_cell_length_c 8.643008
_cell_angle_alpha 90.000000
_cell_angle_beta 90.000000
_cell_angle_gamma 90.000000
_cell_volume 1663.942024
_symmetry_space_group_name_H-M "P N M A"
_symmetry_group_IT_number 62
_symmetry_cell_setting 'orthorhombic'
loop_
_space_group_symop_operation_xyz
x,y,z
1/2-x,-y,1/2+z
1/2+x,1/2-y,1/2-z
-x,1/2+y,-z
-x,-y,-z
1/2+x,y,1/2-z
1/2-x,1/2+y,1/2+z
x,1/2-y,z
loop_
_atom_site_type_symbol
_atom_site_label
_atom_site_fract_x
_atom_site_fract_y
_atom_site_fract_z
Si Si1 0.942670 0.905014 0.471932
Si Si2 0.917668 0.144888 0.053401
Si Si3 0.289430 0.997475 0.255799
Si Si4 0.139017 0.651694 0.306641
Si Si5 0.636347 0.146897 0.310525
O O1 0.853996 0.929356 0.351638
O O2 0.099578 0.135248 0.368403
O O3 0.000000 0.000000 0.500000
O O4 0.033641 0.847639 0.398367
O O5 0.892128 0.250000 0.105567
O O6 0.860500 0.064593 0.144482
O O7 0.037318 0.133284 0.083913
O O8 0.889899 0.139587 0.873745
O O9 0.218761 0.069232 0.165148
O O10 0.211134 0.932547 0.346478
O O11 0.190899 0.750000 0.326227
O O12 0.674511 0.250000 0.332067
#
# Coordination Sequence:
#
# PCOD9467094 Si02
#       5
#     8   8   8   8   8
#     4  12  24  46  68 102 141 184 225 286 349 408
#     4  10  23  44  68  98 139 183 227 283 343 410
#     4  12  23  40  73  98 137 175 236 281 341 405
#     4  11  26  45  68 100 139 182 232 286 349 413
#     4  11  24  45  71 101 138 183 230 285 347 415
#
# _framework density 24.039300000000001
#
# number of rings (size 3 to 8) (size 9 to 14) (size 15 to 20)
#    0.000    0.800    4.000    2.400    0.000    8.000 
#    0.000    0.000    0.000    0.000    0.000    0.000 
#    0.000    0.000    0.000    0.000    0.000    0.000 
#
# Total GULP energy -224114.744683 kJ/mol
# GULP energy per Si atom -5602.868617 kJ/mol
# Density = 2.398459 g / cm^3
# Si number density = 24.039300 Si / 1000 Ang^3
#
#
#
# Elastic Constant Matrix: (Units=GPa)
#
#
# Indices 1 2 3 4 5 6 
#
# 1 53.3392 -1.0882 0.3285 0.0000 0.0000 0.0000
# 2 -1.0882 109.2333 -6.4765 0.0000 0.0000 0.0000
# 3 0.3285 -6.4765 66.0136 0.0000 0.0000 0.0000
# 4 0.0000 0.0000 0.0000 23.2859 0.0000 0.0000
# 5 0.0000 0.0000 0.0000 0.0000 16.1712 0.0000
# 6 0.0000 0.0000 0.0000 0.0000 0.0000 -27.5656
#
#
#
# Elastic Compliance Matrix: (Units=1/GPa)
#
#
# Indices 1 2 3 4 5 6 
#
# 1 0.018752 0.000182 -0.000075 0.000000 0.000000 0.000000
# 2 0.000182 0.009210 0.000903 0.000000 0.000000 0.000000
# 3 -0.000075 0.000903 0.015237 0.000000 0.000000 0.000000
# 4 0.000000 0.000000 0.000000 0.042944 0.000000 0.000000
# 5 0.000000 0.000000 0.000000 0.000000 0.061838 0.000000
# 6 0.000000 0.000000 0.000000 0.000000 0.000000 -0.036277
#
#
# Mechanical properties :
#
#
# Convention : Reuss Voigt Hill
#
# Bulk Modulus (GPa) = 22.11474 23.79040 22.95257
# Shear Modulus (GPa) = 40.07739 18.09981 29.08860
#
# Velocity S-wave (km/s) = 4.08752 2.74693 3.48234
# Velocity P-wave (km/s) = 5.61217 4.46976 5.07322
#
# Compressibility (1/GPa) = 0.04521871
#
# Stress axis : x y z
#
# Youngs Moduli (GPa) = 53.32731 108.57695 65.62827
#
# Poissons Ratio (x) = -0.01980 0.00495
# Poissons Ratio (y) = -0.00972 -0.05924
# Poissons Ratio (z) = 0.00402 -0.09801
#
# Static dielectric constant tensor:
#      x y z
#    x 1.953380 0.000000 0.000000 
#    y 0.000000 1.914980 0.000000 
#    z 0.000000 0.000000 1.937480 
# 
# From -- ./inp_files/12057.got.cif
#   From: 2010.05.17/outbox.cif.g08.bks.cpg/sg62_7_cif.got.tgz:12057.got - 2010.06.03 15:25:27.
