data_PCOD9467079
_publ_section_title
;
Structure prediction by ZEFSAII (Michael W. Deem and Ramdas Pophale) SiO2 
 PCOD9467079
Probable space group: P N M A
;
_chemical_formula_sum "Si O2"
_cell_formula_units_Z 48
_cell_length_a 24.911884
_cell_length_b 10.125034
_cell_length_c 9.884066
_cell_angle_alpha 90.000000
_cell_angle_beta 90.000000
_cell_angle_gamma 90.000000
_cell_volume 2493.094266
_symmetry_space_group_name_H-M "P N M A"
_symmetry_group_IT_number 62
_symmetry_cell_setting 'orthorhombic'
loop_
_space_group_symop_operation_xyz
x,y,z
1/2-x,-y,1/2+z
1/2+x,1/2-y,1/2-z
-x,1/2+y,-z
-x,-y,-z
1/2+x,y,1/2-z
1/2-x,1/2+y,1/2+z
x,1/2-y,z
loop_
_atom_site_type_symbol
_atom_site_label
_atom_site_fract_x
_atom_site_fract_y
_atom_site_fract_z
Si Si1 0.439097 0.250000 0.060435
Si Si2 0.951278 0.250000 0.866332
Si Si3 0.037190 0.250000 0.654386
Si Si4 0.606779 0.034961 0.982910
Si Si5 0.083964 0.039139 0.206030
Si Si6 0.205247 0.402069 0.140605
Si Si7 0.270983 0.904488 0.954481
Si Si8 0.996702 0.250000 0.150814
O O1 0.404256 0.381582 0.042374
O O2 0.466343 0.250000 0.206894
O O3 0.486479 0.250000 0.948511
O O4 0.923375 0.383491 0.815971
O O5 0.010894 0.250000 0.801392
O O6 0.956106 0.250000 0.026849
O O7 0.073183 0.377158 0.621617
O O8 0.669346 0.070264 0.986315
O O9 0.585051 0.068093 0.133355
O O10 0.140962 0.083709 0.147317
O O11 0.035228 0.122157 0.144667
O O12 0.219144 0.250000 0.109723
O O13 0.225696 0.431955 0.293465
O O14 0.230606 0.501191 0.033325
O O15 0.257649 0.750000 0.971811
#
# Coordination Sequence:
#
# PCOD9467079 Si02
#       8
#     4   4   4   8   8   8   8   4
#     4  12  22  36  67  92 120 164 207 248 296 364
#     4  12  26  38  59  96 130 164 205 248 302 376
#     4  12  20  40  63  90 124 158 209 252 292 356
#     4  11  21  39  66  95 117 159 212 259 300 356
#     4  11  21  42  65  88 125 166 205 247 309 371
#     4  10  23  44  69  92 123 164 207 261 316 376
#     4  10  23  44  66  93 127 159 206 264 317 371
#     4  12  24  42  59  88 132 168 203 248 308 364
#
# _framework density 19.253181999999999
#
# number of rings (size 3 to 8) (size 9 to 14) (size 15 to 20)
#    0.000    1.000    5.000    2.000    2.333    0.667 
#    6.000    0.000    0.000    0.000    0.000    0.000 
#    0.000    0.000    0.000    0.000    0.000    0.000 
#
# Total GULP energy -268415.491069 kJ/mol
# GULP energy per Si atom -5591.989397 kJ/mol
# Density = 1.920936 g / cm^3
# Si number density = 19.253182 Si / 1000 Ang^3
#
#
#
# Elastic Constant Matrix: (Units=GPa)
#
#
# Indices 1 2 3 4 5 6 
#
# 1 21.2457 4.7746 6.3972 0.0000 0.0000 0.0000
# 2 4.7746 91.5422 -10.6403 0.0000 0.0000 0.0000
# 3 6.3972 -10.6403 28.6537 0.0000 0.0000 0.0000
# 4 0.0000 0.0000 0.0000 43.6403 0.0000 0.0000
# 5 0.0000 0.0000 0.0000 0.0000 29.2418 0.0000
# 6 0.0000 0.0000 0.0000 0.0000 0.0000 23.0644
#
#
#
# Elastic Compliance Matrix: (Units=1/GPa)
#
#
# Indices 1 2 3 4 5 6 
#
# 1 0.051992 -0.004244 -0.013184 0.000000 0.000000 0.000000
# 2 -0.004244 0.011763 0.005316 0.000000 0.000000 0.000000
# 3 -0.013184 0.005316 0.039817 0.000000 0.000000 0.000000
# 4 0.000000 0.000000 0.000000 0.022915 0.000000 0.000000
# 5 0.000000 0.000000 0.000000 0.000000 0.034198 0.000000
# 6 0.000000 0.000000 0.000000 0.000000 0.000000 0.043357
#
#
# Mechanical properties :
#
#
# Convention : Reuss Voigt Hill
#
# Bulk Modulus (GPa) = 12.60277 15.83384 14.21831
# Shear Modulus (GPa) = 19.62983 28.58329 24.10656
#
# Velocity S-wave (km/s) = 3.19652 3.85723 3.54232
# Velocity P-wave (km/s) = 4.49263 5.29901 4.91239
#
# Compressibility (1/GPa) = 0.07934762
#
# Stress axis : x y z
#
# Youngs Moduli (GPa) = 19.23378 85.01122 25.11502
#
# Poissons Ratio (x) = 0.36080 0.33111
# Poissons Ratio (y) = 0.08163 -0.13350
# Poissons Ratio (z) = 0.25357 -0.45189
#
# Static dielectric constant tensor:
#      x y z
#    x 1.646470 0.000000 0.000000 
#    y 0.000000 1.662310 0.000000 
#    z 0.000000 0.000000 1.645120 
# 
# From -- ./inp_files/10342.got.cif
#   From: 2010.05.17/outbox.cif.g08.bks.cpg/sg62_6_cif.got.tgz:10342.got - 2010.06.03 15:25:27.
