data_PCOD9467940
_publ_section_title
;
Structure prediction by ZEFSAII (Michael W. Deem and Ramdas Pophale) SiO2 
 PCOD9467940
Probable space group: P N M A
;
_chemical_formula_sum "Si O2"
_cell_formula_units_Z 64
_cell_length_a 15.000000
_cell_length_b 18.000000
_cell_length_c 12.000000
_cell_angle_alpha 90.000000
_cell_angle_beta 90.000000
_cell_angle_gamma 90.000000
_cell_volume 3240.000000
_symmetry_space_group_name_H-M "P N M A"
_symmetry_group_IT_number 62
_symmetry_cell_setting 'orthorhombic'
loop_
_space_group_symop_operation_xyz
x,y,z
1/2-x,-y,1/2+z
1/2+x,1/2-y,1/2-z
-x,1/2+y,-z
-x,-y,-z
1/2+x,y,1/2-z
1/2-x,1/2+y,1/2+z
x,1/2-y,z
loop_
_atom_site_type_symbol
_atom_site_label
_atom_site_fract_x
_atom_site_fract_y
_atom_site_fract_z
Si Si1 0.602644 0.662907 0.350841
Si Si2 0.613874 0.836217 0.094136
Si Si3 0.629726 0.046389 0.803735
Si Si4 0.537598 0.163301 0.459038
Si Si5 0.460847 0.583220 0.982320
Si Si6 0.036852 0.444786 0.238219
Si Si7 0.197100 0.408752 0.925846
Si Si8 0.806108 0.477212 0.896033
O O1 0.621735 0.750000 0.363338
O O2 0.579648 0.650665 0.220789
O O3 0.523594 0.642123 0.435259
O O4 0.684445 0.610872 0.384879
O O5 0.637146 0.750000 0.084916
O O6 0.701063 0.885287 0.077722
O O7 0.540183 0.860049 0.006040
O O8 0.658695 0.094000 0.697916
O O9 0.547185 0.996114 0.766690
O O10 0.714477 0.997373 0.840040
O O11 0.606727 0.091428 0.915573
O O12 0.528469 0.250000 0.440346
O O13 0.511202 0.118062 0.349965
O O14 0.638051 0.142745 0.494216
O O15 0.428021 0.586313 0.856155
O O16 0.500000 0.500000 0.000000
O O17 0.112326 0.491900 0.176279
O O18 0.188009 0.490275 0.980284
#
# Coordination Sequence:
#
# PCOD9467940 Si02
#       8
#     8   8   8   8   8   8   8   8
#     4  10  20  37  59  85 121 156 194 251 311 360
#     4  11  22  38  60  88 124 160 199 255 312 359
#     4  11  22  34  63  89 116 154 204 250 302 364
#     4  10  21  38  60  86 120 163 202 245 303 367
#     4  10  21  38  59  85 118 157 204 245 294 360
#     4  10  22  39  59  88 123 155 203 253 299 356
#     4  11  21  35  59  90 119 160 206 251 303 364
#     4  11  22  37  60  88 124 158 201 256 306 362
#
# _framework density 19.753086
#
# number of rings (size 3 to 8) (size 9 to 14) (size 15 to 20)
#    0.000    1.500    1.250    5.625    1.750    2.500 
#    0.000    1.250    0.000    0.750    0.000    0.000 
#    0.000    0.000    0.000    0.000    0.000    0.000 
#
# Total GULP energy -357131.188768 kJ/mol
# GULP energy per Si atom -5580.174825 kJ/mol
# Density = 1.970813 g / cm^3
# Si number density = 19.753086 Si / 1000 Ang^3
#
#
#
# Elastic Constant Matrix: (Units=GPa)
#
#
# Indices 1 2 3 4 5 6 
#
# 1 60.1925 12.2549 5.8274 0.0000 0.0000 0.0000
# 2 12.2549 40.8902 39.1770 0.0000 0.0000 0.0000
# 3 5.8274 39.1770 80.0529 0.0000 0.0000 0.0000
# 4 0.0000 0.0000 0.0000 24.0560 0.0000 0.0000
# 5 0.0000 0.0000 0.0000 0.0000 18.6282 0.0000
# 6 0.0000 0.0000 0.0000 0.0000 0.0000 11.3819
#
#
#
# Elastic Compliance Matrix: (Units=1/GPa)
#
#
# Indices 1 2 3 4 5 6 
#
# 1 0.017954 -0.007774 0.002497 0.000000 0.000000 0.000000
# 2 -0.007774 0.049412 -0.023616 0.000000 0.000000 0.000000
# 3 0.002497 -0.023616 0.023867 0.000000 0.000000 0.000000
# 4 0.000000 0.000000 0.000000 0.041570 0.000000 0.000000
# 5 0.000000 0.000000 0.000000 0.000000 0.053682 0.000000
# 6 0.000000 0.000000 0.000000 0.000000 0.000000 0.087859
#
#
# Mechanical properties :
#
#
# Convention : Reuss Voigt Hill
#
# Bulk Modulus (GPa) = 29.89604 32.85047 31.37325
# Shear Modulus (GPa) = 14.56544 19.07162 16.81853
#
# Velocity S-wave (km/s) = 2.71841 3.11062 2.92111
# Velocity P-wave (km/s) = 5.00207 5.43764 5.22440
#
# Compressibility (1/GPa) = 0.03344925
#
# Stress axis : x y z
#
# Youngs Moduli (GPa) = 55.69703 20.23803 41.89845
#
# Poissons Ratio (x) = 0.15733 -0.10464
# Poissons Ratio (y) = 0.43298 0.98946
# Poissons Ratio (z) = -0.13910 0.47794
#
# Static dielectric constant tensor:
#      x y z
#    x 1.734670 0.000000 0.000000 
#    y 0.000000 1.704320 0.000000 
#    z 0.000000 0.000000 1.694650 
# 
# From -- ./inp_files/13588.got.cif
#   From: 2010.05.17/outbox.ucp.g08.bks.cvg/sg62_7_cif.got.tgz:13588.got - 2010.06.11 16:29:25.
