data_PCOD9467815
_publ_section_title
;
Structure prediction by ZEFSAII (Michael W. Deem and Ramdas Pophale) SiO2 
 PCOD9467815
Probable space group: P N M A
;
_chemical_formula_sum "Si O2"
_cell_formula_units_Z 64
_cell_length_a 15.000000
_cell_length_b 9.000000
_cell_length_c 24.000000
_cell_angle_alpha 90.000000
_cell_angle_beta 90.000000
_cell_angle_gamma 90.000000
_cell_volume 3240.000000
_symmetry_space_group_name_H-M "P N M A"
_symmetry_group_IT_number 62
_symmetry_cell_setting 'orthorhombic'
loop_
_space_group_symop_operation_xyz
x,y,z
1/2-x,-y,1/2+z
1/2+x,1/2-y,1/2-z
-x,1/2+y,-z
-x,-y,-z
1/2+x,y,1/2-z
1/2-x,1/2+y,1/2+z
x,1/2-y,z
loop_
_atom_site_type_symbol
_atom_site_label
_atom_site_fract_x
_atom_site_fract_y
_atom_site_fract_z
Si Si1 0.147096 0.427780 0.113991
Si Si2 0.192297 0.928264 0.544383
Si Si3 0.779198 0.571710 0.161117
Si Si4 0.194007 0.572533 0.229358
Si Si5 0.059253 0.427683 0.629216
Si Si6 0.870364 0.070038 0.576749
Si Si7 0.514430 0.420922 0.234603
Si Si8 0.954097 0.419692 0.137512
O O1 0.143487 0.250000 0.123959
O O2 0.204629 0.455105 0.059147
O O3 0.192322 0.497730 0.168942
O O4 0.045119 0.479211 0.110695
O O5 0.177084 0.750000 0.548233
O O6 0.159720 0.980975 0.484158
O O7 0.138921 0.010401 0.592685
O O8 0.777011 0.750000 0.162180
O O9 0.768046 0.523942 0.225576
O O10 0.696398 0.516609 0.124482
O O11 0.867653 0.517856 0.131160
O O12 0.197514 0.750000 0.222614
O O13 0.101658 0.523574 0.258850
O O14 0.064496 0.250000 0.636669
O O15 0.970218 0.466577 0.594188
O O16 0.048643 0.507887 0.688295
O O17 0.864888 0.250000 0.575986
O O18 0.537524 0.250000 0.220086
O O19 0.473204 0.418101 0.296157
O O20 0.938316 0.250000 0.119422
#
# Coordination Sequence:
#
# PCOD9467815 Si02
#       8
#     8   8   8   8   8   8   8   8
#     4   9  20  38  56  78 110 146 187 230 275 328
#     4  10  21  38  60  80 105 148 193 232 276 331
#     4  10  20  35  55  81 110 145 184 222 277 336
#     4  10  19  33  54  80 111 144 177 224 280 327
#     4  11  21  35  55  82 117 148 180 230 281 333
#     4   9  19  38  58  79 111 146 184 228 278 334
#     4  10  20  35  54  80 113 149 185 220 269 333
#     4   9  20  36  53  77 110 144 181 228 273 322
#
# _framework density 19.753086
#
# number of rings (size 3 to 8) (size 9 to 14) (size 15 to 20)
#    0.000    2.250    1.250    2.250    1.750    4.000 
#    0.000    1.875    0.000    0.000    0.000    0.000 
#    0.000    0.000    0.000    0.000    0.000    0.000 
#
# Total GULP energy -356972.772992 kJ/mol
# GULP energy per Si atom -5577.699578 kJ/mol
# Density = 1.970813 g / cm^3
# Si number density = 19.753086 Si / 1000 Ang^3
#
#
#
# Elastic Constant Matrix: (Units=GPa)
#
#
# Indices 1 2 3 4 5 6 
#
# 1 53.3487 -11.6381 -18.4970 0.0000 0.0000 0.0000
# 2 -11.6381 -3.5816 -17.4889 0.0000 0.0000 0.0000
# 3 -18.4970 -17.4889 4.7158 0.0000 0.0000 0.0000
# 4 0.0000 0.0000 0.0000 12.6529 0.0000 0.0000
# 5 0.0000 0.0000 0.0000 0.0000 0.6007 0.0000
# 6 0.0000 0.0000 0.0000 0.0000 0.0000 24.2810
#
#
#
# Elastic Compliance Matrix: (Units=1/GPa)
#
#
# Indices 1 2 3 4 5 6 
#
# 1 0.013358 -0.015660 -0.005682 0.000000 0.000000 0.000000
# 2 -0.015660 0.003748 -0.047526 0.000000 0.000000 0.000000
# 3 -0.005682 -0.047526 0.013514 0.000000 0.000000 0.000000
# 4 0.000000 0.000000 0.000000 0.079033 0.000000 0.000000
# 5 0.000000 0.000000 0.000000 0.000000 1.664708 0.000000
# 6 0.000000 0.000000 0.000000 0.000000 0.000000 0.041184
#
#
# Mechanical properties :
#
#
# Convention : Reuss Voigt Hill
#
# Bulk Modulus (GPa) = -9.33570 -4.52945 -6.93258
# Shear Modulus (GPa) = 2.60746 14.31406 8.46076
#
# Velocity S-wave (km/s) = 1.15017 2.69485 2.07185
# Velocity P-wave (km/s) = 1.72412 2.71753 1.48532
#
# Compressibility (1/GPa) = -0.10711568
#
# Stress axis : x y z
#
# Youngs Moduli (GPa) = 74.86062 266.80653 73.99631
#
# Poissons Ratio (x) = 4.17829 0.42046
# Poissons Ratio (y) = 1.17234 3.51671
# Poissons Ratio (z) = 0.42537 12.68012
#
# Static dielectric constant tensor:
#      x y z
#    x 1.733090 0.000000 0.000000 
#    y 0.000000 1.670090 0.000000 
#    z 0.000000 0.000000 1.681340 
# 
# From -- ./inp_files/29844.got.cif
#   From: 2010.05.17/outbox.ucp.g08.bks.cvg/sg62_15_cif.got.tgz:29844.got - 2010.06.11 16:29:25.
