data_PCOD9467859
_publ_section_title
;
Structure prediction by ZEFSAII (Michael W. Deem and Ramdas Pophale) SiO2 
 PCOD9467859
Probable space group: P N M A
;
_chemical_formula_sum "Si O2"
_cell_formula_units_Z 56
_cell_length_a 15.000000
_cell_length_b 9.000000
_cell_length_c 21.000000
_cell_angle_alpha 90.000000
_cell_angle_beta 90.000000
_cell_angle_gamma 90.000000
_cell_volume 2835.000000
_symmetry_space_group_name_H-M "P N M A"
_symmetry_group_IT_number 62
_symmetry_cell_setting 'orthorhombic'
loop_
_space_group_symop_operation_xyz
x,y,z
1/2-x,-y,1/2+z
1/2+x,1/2-y,1/2-z
-x,1/2+y,-z
-x,-y,-z
1/2+x,y,1/2-z
1/2-x,1/2+y,1/2+z
x,1/2-y,z
loop_
_atom_site_type_symbol
_atom_site_label
_atom_site_fract_x
_atom_site_fract_y
_atom_site_fract_z
Si Si1 0.669285 0.074612 0.736683
Si Si2 0.930421 0.928147 0.451775
Si Si3 0.625130 0.921283 0.256996
Si Si4 0.770936 0.074377 0.974381
Si Si5 0.055726 0.574639 0.099764
Si Si6 0.868579 0.424550 0.105428
Si Si7 0.480389 0.075281 0.179163
O O1 0.647847 0.250000 0.743570
O O2 0.769400 0.050460 0.762286
O O3 0.664043 0.024793 0.663639
O O4 0.596802 0.975494 0.772412
O O5 0.931106 0.750000 0.458692
O O6 0.828315 0.983016 0.461839
O O7 0.962222 0.978458 0.382825
O O8 0.000000 0.000000 0.500000
O O9 0.615026 0.750000 0.234843
O O10 0.577155 0.932489 0.325190
O O11 0.574923 0.030902 0.209607
O O12 0.767491 0.250000 0.957402
O O13 0.855255 0.015073 0.934661
O O14 0.799966 0.061459 0.047400
O O15 0.042640 0.750000 0.082880
O O16 0.966528 0.483211 0.085519
O O17 0.874518 0.250000 0.122967
O O18 0.476191 0.250000 0.165982
#
# Coordination Sequence:
#
# PCOD9467859 Si02
#       7
#     8   8   8   8   8   8   8
#     4  11  23  41  64  92 125 168 215 261 315 378
#     4  11  24  45  68  93 126 169 216 266 317 374
#     4  10  22  39  64  92 122 164 213 261 312 376
#     4   9  21  40  63  89 124 167 209 257 312 369
#     4  10  19  38  64  90 121 164 209 253 310 377
#     4  11  22  37  59  93 129 163 203 259 320 372
#     4  12  25  42  65  95 129 166 207 262 322 379
#
# _framework density 19.753086
#
# number of rings (size 3 to 8) (size 9 to 14) (size 15 to 20)
#    0.000    1.429    1.429    3.857    2.000    3.429 
#    0.000    5.714    0.000    0.000    0.000    0.000 
#    0.000    0.000    0.000    0.000    0.000    0.000 
#
# Total GULP energy -312930.685858 kJ/mol
# GULP energy per Si atom -5588.047962 kJ/mol
# Density = 1.970813 g / cm^3
# Si number density = 19.753086 Si / 1000 Ang^3
#
#
#
# Elastic Constant Matrix: (Units=GPa)
#
#
# Indices 1 2 3 4 5 6 
#
# 1 6.3843 4.7808 -15.3755 0.0000 0.0000 0.0000
# 2 4.7808 49.2972 -3.9840 0.0000 0.0000 0.0000
# 3 -15.3755 -3.9840 23.3574 0.0000 0.0000 0.0000
# 4 0.0000 0.0000 0.0000 23.2515 0.0000 0.0000
# 5 0.0000 0.0000 0.0000 0.0000 24.1941 0.0000
# 6 0.0000 0.0000 0.0000 0.0000 0.0000 26.2273
#
#
#
# Elastic Compliance Matrix: (Units=1/GPa)
#
#
# Indices 1 2 3 4 5 6 
#
# 1 -0.260905 0.011582 -0.169771 0.000000 0.000000 0.000000
# 2 0.011582 0.020054 0.011045 0.000000 0.000000 0.000000
# 3 -0.169771 0.011045 -0.067059 0.000000 0.000000 0.000000
# 4 0.000000 0.000000 0.000000 0.043008 0.000000 0.000000
# 5 0.000000 0.000000 0.000000 0.000000 0.041332 0.000000
# 6 0.000000 0.000000 0.000000 0.000000 0.000000 0.038128
#
#
# Mechanical properties :
#
#
# Convention : Reuss Voigt Hill
#
# Bulk Modulus (GPa) = -1.66059 5.54239 1.94090
# Shear Modulus (GPa) = -54.41591 20.97574 -16.72009
#
# Velocity S-wave (km/s) = -5.25432 3.26221 -2.91255
# Velocity P-wave (km/s) = 6.13620 4.12326 3.21339
#
# Compressibility (1/GPa) = -0.60219714
#
# Stress axis : x y z
#
# Youngs Moduli (GPa) = -3.83281 49.86417 -14.91230
#
# Poissons Ratio (x) = -0.57754 -2.53168
# Poissons Ratio (y) = 0.04439 0.16470
# Poissons Ratio (z) = -0.65070 -0.55074
#
# Static dielectric constant tensor:
#      x y z
#    x 1.687750 0.000000 0.000000 
#    y 0.000000 1.665940 0.000000 
#    z 0.000000 0.000000 1.837930 
# 
# From -- ./inp_files/27124.got.cif
#   From: 2010.05.17/outbox.ucp.g08.bks.cvg/sg62_14_cif.got.tgz:27124.got - 2010.06.11 16:29:25.
