data_PCOD9467226
_publ_section_title
;
Structure prediction by ZEFSAII (Michael W. Deem and Ramdas Pophale) SiO2 
 PCOD9467226
Probable space group: P N M A
;
_chemical_formula_sum "Si O2"
_cell_formula_units_Z 56
_cell_length_a 15.659332
_cell_length_b 26.117491
_cell_length_c 5.309473
_cell_angle_alpha 90.000000
_cell_angle_beta 90.000000
_cell_angle_gamma 90.000000
_cell_volume 2171.481343
_symmetry_space_group_name_H-M "P N M A"
_symmetry_group_IT_number 62
_symmetry_cell_setting 'orthorhombic'
loop_
_space_group_symop_operation_xyz
x,y,z
1/2-x,-y,1/2+z
1/2+x,1/2-y,1/2-z
-x,1/2+y,-z
-x,-y,-z
1/2+x,y,1/2-z
1/2-x,1/2+y,1/2+z
x,1/2-y,z
loop_
_atom_site_type_symbol
_atom_site_label
_atom_site_fract_x
_atom_site_fract_y
_atom_site_fract_z
Si Si1 0.706729 0.750000 0.119985
Si Si2 0.007631 0.336369 0.380461
Si Si3 0.629444 0.506707 0.782763
Si Si4 0.567980 0.417980 0.482578
Si Si5 0.590514 0.750000 0.618329
Si Si6 0.089313 0.915444 0.348760
Si Si7 0.748914 0.576555 0.491772
Si Si8 0.665924 0.334566 0.813354
O O1 0.637215 0.750000 0.349296
O O2 0.771356 0.702695 0.167011
O O3 0.659407 0.750000 0.849887
O O4 0.970723 0.299007 0.169016
O O5 0.927755 0.359864 0.531466
O O6 0.080963 0.311756 0.555345
O O7 0.052441 0.387716 0.273482
O O8 0.399479 0.524363 0.466906
O O9 0.566850 0.538996 0.957750
O O10 0.696162 0.550941 0.712715
O O11 0.674893 0.462862 0.943578
O O12 0.630371 0.379431 0.633186
O O13 0.476477 0.417733 0.618962
O O14 0.183597 0.922651 0.242337
O O15 0.778664 0.634610 0.521448
#
# Coordination Sequence:
#
# PCOD9467226 Si02
#       8
#     4   8   8   8   4   8   8   8
#     4  12  29  53  82 118 146 192 244 324 381 458
#     4  11  26  48  74 104 144 196 242 313 370 468
#     4  11  23  39  65  96 142 189 242 294 367 434
#     4  10  25  43  68 101 140 191 240 301 365 454
#     4  12  31  49  82 112 152 188 250 308 393 446
#     4  11  23  41  66  98 143 188 244 300 368 438
#     4  11  23  39  65 100 138 185 236 303 351 442
#     4  10  26  45  74 102 144 185 247 298 380 439
#
# _framework density 25.788844999999998
#
# number of rings (size 3 to 8) (size 9 to 14) (size 15 to 20)
#    0.000    1.143    1.429    2.571   12.000    4.000 
#    0.000    0.000    0.000    0.000    0.000    0.000 
#    0.000    0.000    0.000    0.000    0.000    0.000 
#
# Total GULP energy -313381.194306 kJ/mol
# GULP energy per Si atom -5596.092755 kJ/mol
# Density = 2.573015 g / cm^3
# Si number density = 25.788845 Si / 1000 Ang^3
#
#
#
# Elastic Constant Matrix: (Units=GPa)
#
#
# Indices 1 2 3 4 5 6 
#
# 1 73.4103 43.1243 11.7426 0.0000 0.0000 0.0000
# 2 43.1243 98.9595 11.5876 0.0000 0.0000 0.0000
# 3 11.7426 11.5876 68.0419 0.0000 0.0000 0.0000
# 4 0.0000 0.0000 0.0000 30.4179 0.0000 0.0000
# 5 0.0000 0.0000 0.0000 0.0000 35.6673 0.0000
# 6 0.0000 0.0000 0.0000 0.0000 0.0000 26.6109
#
#
#
# Elastic Compliance Matrix: (Units=1/GPa)
#
#
# Indices 1 2 3 4 5 6 
#
# 1 0.018537 -0.007860 -0.001861 0.000000 0.000000 0.000000
# 2 -0.007860 0.013644 -0.000967 0.000000 0.000000 0.000000
# 3 -0.001861 -0.000967 0.015183 0.000000 0.000000 0.000000
# 4 0.000000 0.000000 0.000000 0.032875 0.000000 0.000000
# 5 0.000000 0.000000 0.000000 0.000000 0.028037 0.000000
# 6 0.000000 0.000000 0.000000 0.000000 0.000000 0.037579
#
#
# Mechanical properties :
#
#
# Convention : Reuss Voigt Hill
#
# Bulk Modulus (GPa) = 38.47945 41.48008 39.97976
# Shear Modulus (GPa) = 28.42649 30.13636 29.28142
#
# Velocity S-wave (km/s) = 3.32366 3.42216 3.37327
# Velocity P-wave (km/s) = 5.44815 5.63332 5.54151
#
# Compressibility (1/GPa) = 0.02598790
#
# Stress axis : x y z
#
# Youngs Moduli (GPa) = 53.94597 73.29404 65.86484
#
# Poissons Ratio (x) = 0.57610 0.12254
# Poissons Ratio (y) = 0.42403 0.06369
# Poissons Ratio (z) = 0.10037 0.07088
#
# Static dielectric constant tensor:
#      x y z
#    x 2.069530 0.000000 0.000000 
#    y 0.000000 1.981690 0.000000 
#    z 0.000000 0.000000 2.072450 
# 
# From -- ./inp_files/1313.got.cif
#   From: 2010.05.17/outbox.cif.g08.bks.cpg/sg62_1_cif.got.tgz:1313.got - 2010.06.03 15:25:27.
