data_PCOD9467847
_publ_section_title
;
Structure prediction by ZEFSAII (Michael W. Deem and Ramdas Pophale) SiO2 
 PCOD9467847
Probable space group: P N M A
;
_chemical_formula_sum "Si O2"
_cell_formula_units_Z 48
_cell_length_a 18.000000
_cell_length_b 9.000000
_cell_length_c 15.000000
_cell_angle_alpha 90.000000
_cell_angle_beta 90.000000
_cell_angle_gamma 90.000000
_cell_volume 2430.000000
_symmetry_space_group_name_H-M "P N M A"
_symmetry_group_IT_number 62
_symmetry_cell_setting 'orthorhombic'
loop_
_space_group_symop_operation_xyz
x,y,z
1/2-x,-y,1/2+z
1/2+x,1/2-y,1/2-z
-x,1/2+y,-z
-x,-y,-z
1/2+x,y,1/2-z
1/2-x,1/2+y,1/2+z
x,1/2-y,z
loop_
_atom_site_type_symbol
_atom_site_label
_atom_site_fract_x
_atom_site_fract_y
_atom_site_fract_z
Si Si1 0.425701 0.926111 0.380980
Si Si2 0.347679 0.928715 0.876937
Si Si3 0.282850 0.573108 0.255335
Si Si4 0.432134 0.428236 0.727639
Si Si5 0.867241 0.577487 0.935086
Si Si6 0.695100 0.577417 0.938862
O O1 0.438601 0.750000 0.394586
O O2 0.353806 0.940542 0.319799
O O3 0.493879 0.982559 0.322820
O O4 0.413007 0.985656 0.480799
O O5 0.345529 0.750000 0.879067
O O6 0.281134 0.991572 0.813436
O O7 0.417826 0.990835 0.820949
O O8 0.343309 0.994113 0.977479
O O9 0.265442 0.750000 0.244947
O O10 0.303751 0.501810 0.158721
O O11 0.432714 0.250000 0.739776
O O12 0.372517 0.477549 0.652790
O O13 0.887899 0.750000 0.914350
O O14 0.782048 0.581210 0.965417
O O15 0.670060 0.750000 0.931167
#
# Coordination Sequence:
#
# PCOD9467847 Si02
#       6
#     8   8   8   8   8   8
#     4   9  20  38  59  85 119 157 194 239 294 350
#     4  12  24  39  59  86 119 157 200 242 289 345
#     4  11  21  39  63  87 118 155 196 244 295 347
#     4  11  22  37  59  87 119 157 198 239 293 352
#     4  10  19  35  58  87 123 154 186 239 296 348
#     4  11  22  38  61  90 120 150 195 247 294 345
#
# _framework density 19.753086
#
# number of rings (size 3 to 8) (size 9 to 14) (size 15 to 20)
#    0.000    1.333    3.333    3.500    0.000    0.667 
#    0.000    5.000    0.000    0.000    0.000    0.000 
#    0.000    0.000    0.000    0.000    0.000    0.000 
#
# Total GULP energy -267778.761326 kJ/mol
# GULP energy per Si atom -5578.724194 kJ/mol
# Density = 1.970813 g / cm^3
# Si number density = 19.753086 Si / 1000 Ang^3
#
#
#
# Elastic Constant Matrix: (Units=GPa)
#
#
# Indices 1 2 3 4 5 6 
#
# 1 3.3506 -12.5173 -31.8119 0.0000 0.0000 0.0000
# 2 -12.5173 115.4289 32.3766 0.0000 0.0000 0.0000
# 3 -31.8119 32.3766 91.8182 0.0000 0.0000 0.0000
# 4 0.0000 0.0000 0.0000 30.4708 0.0000 0.0000
# 5 0.0000 0.0000 0.0000 0.0000 24.6258 0.0000
# 6 0.0000 0.0000 0.0000 0.0000 0.0000 17.9586
#
#
#
# Elastic Compliance Matrix: (Units=1/GPa)
#
#
# Indices 1 2 3 4 5 6 
#
# 1 -0.130084 -0.001626 -0.044496 0.000000 0.000000 0.000000
# 2 -0.001626 0.009594 -0.003946 0.000000 0.000000 0.000000
# 3 -0.044496 -0.003946 -0.003134 0.000000 0.000000 0.000000
# 4 0.000000 0.000000 0.000000 0.032818 0.000000 0.000000
# 5 0.000000 0.000000 0.000000 0.000000 0.040608 0.000000
# 6 0.000000 0.000000 0.000000 0.000000 0.000000 0.055684
#
#
# Mechanical properties :
#
#
# Convention : Reuss Voigt Hill
#
# Bulk Modulus (GPa) = -4.46906 20.74361 8.13728
# Shear Modulus (GPa) = 161.10545 29.44773 95.27659
#
# Velocity S-wave (km/s) = 9.04083 3.86527 6.95259
# Velocity P-wave (km/s) = 10.33029 5.51766 8.28129
#
# Compressibility (1/GPa) = -0.22376082
#
# Stress axis : x y z
#
# Youngs Moduli (GPa) = -7.68734 104.23264 -319.09193
#
# Poissons Ratio (x) = 0.16946 -14.19845
# Poissons Ratio (y) = -0.01250 -1.25921
# Poissons Ratio (z) = -0.34206 0.41133
#
# Static dielectric constant tensor:
#      x y z
#    x 1.814440 0.000000 0.000000 
#    y 0.000000 1.680180 0.000000 
#    z 0.000000 0.000000 1.671830 
# 
# From -- ./inp_files/19556.got.cif
#   From: 2010.05.17/outbox.ucp.g08.bks.cvg/sg62_10_cif.got.tgz:19556.got - 2010.06.11 16:29:25.
