data_PCOD9467431
_publ_section_title
;
Structure prediction by ZEFSAII (Michael W. Deem and Ramdas Pophale) SiO2 
 PCOD9467431
Probable space group: P N M A
;
_chemical_formula_sum "Si O2"
_cell_formula_units_Z 40
_cell_length_a 23.316072
_cell_length_b 16.907574
_cell_length_c 5.037511
_cell_angle_alpha 90.000000
_cell_angle_beta 90.000000
_cell_angle_gamma 90.000000
_cell_volume 1985.878583
_symmetry_space_group_name_H-M "P N M A"
_symmetry_group_IT_number 62
_symmetry_cell_setting 'orthorhombic'
loop_
_space_group_symop_operation_xyz
x,y,z
1/2-x,-y,1/2+z
1/2+x,1/2-y,1/2-z
-x,1/2+y,-z
-x,-y,-z
1/2+x,y,1/2-z
1/2-x,1/2+y,1/2+z
x,1/2-y,z
loop_
_atom_site_type_symbol
_atom_site_label
_atom_site_fract_x
_atom_site_fract_y
_atom_site_fract_z
Si Si1 0.636632 0.341492 0.330748
Si Si2 0.401851 0.437246 0.287488
Si Si3 0.786321 0.981610 0.004232
Si Si4 0.063509 0.109214 0.673409
Si Si5 0.935886 0.342370 0.698547
O O1 0.651529 0.250000 0.293202
O O2 0.689717 0.396438 0.414208
O O3 0.590108 0.350539 0.565703
O O4 0.607439 0.375880 0.066306
O O5 0.341199 0.469800 0.391090
O O6 0.439417 0.515483 0.228764
O O7 0.428779 0.384012 0.517797
O O8 0.397727 0.387326 0.018853
O O9 0.757363 0.021687 0.749221
O O10 0.001753 0.144737 0.610300
O O11 0.922722 0.250000 0.713420
#
# Coordination Sequence:
#
# PCOD9467431 Si02
#       5
#     8   8   8   8   8
#     4  11  22  39  63  95 121 150 203 263 302 343
#     4  11  23  41  62  88 120 161 208 247 291 362
#     4  11  23  43  65  84 115 160 208 254 306 356
#     4  11  22  39  64  90 124 163 198 240 298 362
#     4  12  23  38  60  93 131 164 193 236 295 363
#
# _framework density 20.142219000000001
#
# number of rings (size 3 to 8) (size 9 to 14) (size 15 to 20)
#    0.000    0.800    0.000   10.800    0.000    0.000 
#    0.000    6.000    0.000    0.000    0.000    0.000 
#    0.000    0.000    0.000    0.000    0.000    0.000 
#
# Total GULP energy -223892.601850 kJ/mol
# GULP energy per Si atom -5597.315046 kJ/mol
# Density = 2.009637 g / cm^3
# Si number density = 20.142219 Si / 1000 Ang^3
#
#
#
# Elastic Constant Matrix: (Units=GPa)
#
#
# Indices 1 2 3 4 5 6 
#
# 1 36.4942 15.6516 -3.4972 0.0000 0.0000 0.0000
# 2 15.6516 148.3140 37.5634 0.0000 0.0000 0.0000
# 3 -3.4972 37.5634 111.8785 0.0000 0.0000 0.0000
# 4 0.0000 0.0000 0.0000 32.6373 0.0000 0.0000
# 5 0.0000 0.0000 0.0000 0.0000 35.7499 0.0000
# 6 0.0000 0.0000 0.0000 0.0000 0.0000 47.4615
#
#
#
# Elastic Compliance Matrix: (Units=1/GPa)
#
#
# Indices 1 2 3 4 5 6 
#
# 1 0.029156 -0.003615 0.002125 0.000000 0.000000 0.000000
# 2 -0.003615 0.007817 -0.002738 0.000000 0.000000 0.000000
# 3 0.002125 -0.002738 0.009924 0.000000 0.000000 0.000000
# 4 0.000000 0.000000 0.000000 0.030640 0.000000 0.000000
# 5 0.000000 0.000000 0.000000 0.000000 0.027972 0.000000
# 6 0.000000 0.000000 0.000000 0.000000 0.000000 0.021070
#
#
# Mechanical properties :
#
#
# Convention : Reuss Voigt Hill
#
# Bulk Modulus (GPa) = 26.01340 44.01360 35.01350
# Shear Modulus (GPa) = 33.81860 39.63432 36.72646
#
# Velocity S-wave (km/s) = 4.10199 4.44072 4.27471
# Velocity P-wave (km/s) = 5.94794 6.94205 6.46414
#
# Compressibility (1/GPa) = 0.03844172
#
# Stress axis : x y z
#
# Youngs Moduli (GPa) = 34.29860 127.92111 100.76707
#
# Poissons Ratio (x) = 0.46244 -0.21414
# Poissons Ratio (y) = 0.12399 0.27587
# Poissons Ratio (z) = -0.07289 0.35021
#
# Static dielectric constant tensor:
#      x y z
#    x 1.704510 0.000000 0.000000 
#    y 0.000000 1.655190 0.000000 
#    z 0.000000 0.000000 1.704500 
# 
# From -- ./inp_files/2667.got.cif
#   From: 2010.05.17/outbox.cif.g08.bks.cpg/sg62_2_cif.got.tgz:2667.got - 2010.06.03 15:25:27.
