data_PCOD9467411
_publ_section_title
;
Structure prediction by ZEFSAII (Michael W. Deem and Ramdas Pophale) SiO2 
 PCOD9467411
Probable space group: P N M A
;
_chemical_formula_sum "Si O2"
_cell_formula_units_Z 56
_cell_length_a 14.711037
_cell_length_b 8.638676
_cell_length_c 21.386287
_cell_angle_alpha 90.000000
_cell_angle_beta 90.000000
_cell_angle_gamma 90.000000
_cell_volume 2717.852379
_symmetry_space_group_name_H-M "P N M A"
_symmetry_group_IT_number 62
_symmetry_cell_setting 'orthorhombic'
loop_
_space_group_symop_operation_xyz
x,y,z
1/2-x,-y,1/2+z
1/2+x,1/2-y,1/2-z
-x,1/2+y,-z
-x,-y,-z
1/2+x,y,1/2-z
1/2-x,1/2+y,1/2+z
x,1/2-y,z
loop_
_atom_site_type_symbol
_atom_site_label
_atom_site_fract_x
_atom_site_fract_y
_atom_site_fract_z
Si Si1 0.224357 0.933424 0.979883
Si Si2 0.506889 0.065961 0.740236
Si Si3 0.206741 0.566047 0.244974
Si Si4 0.649786 0.936086 0.653896
Si Si5 0.079562 0.569616 0.457207
Si Si6 0.958063 0.071758 0.365288
Si Si7 0.753387 0.431417 0.390009
O O1 0.214749 0.750000 0.987110
O O2 0.170597 0.983174 0.917677
O O3 0.328465 0.975994 0.964104
O O4 0.204751 0.010507 0.047073
O O5 0.519194 0.250000 0.748370
O O6 0.400615 0.028303 0.747666
O O7 0.556230 0.012711 0.677217
O O8 0.558108 0.969169 0.793613
O O9 0.218066 0.750000 0.252690
O O10 0.269115 0.487448 0.298408
O O11 0.232610 0.519482 0.174104
O O12 0.643716 0.750000 0.656335
O O13 0.094887 0.750000 0.469716
O O14 0.000000 0.500000 0.500000
O O15 0.035775 0.542523 0.389269
O O16 0.986486 0.250000 0.373293
O O17 0.862216 0.050053 0.399928
O O18 0.735747 0.250000 0.380432
#
# Coordination Sequence:
#
# PCOD9467411 Si02
#       7
#     8   8   8   8   8   8   8
#     4  11  24  41  62  89 126 167 208 260 317 374
#     4  11  24  41  65  95 124 163 210 261 315 372
#     4  11  24  42  66  95 127 165 212 261 313 373
#     4  11  24  42  65  95 128 166 209 259 318 375
#     4  12  23  35  55  85 121 160 202 247 305 374
#     4  11  22  37  59  89 122 160 203 253 311 371
#     4  11  23  39  63  92 123 163 208 254 310 371
#
# _framework density 20.604503999999999
#
# number of rings (size 3 to 8) (size 9 to 14) (size 15 to 20)
#    0.000    0.857    2.857    4.714    0.000    8.000 
#    0.000    0.714    0.000    0.000    0.000    0.000 
#    0.000    0.000    0.000    0.000    0.000    0.000 
#
# Total GULP energy -312964.344135 kJ/mol
# GULP energy per Si atom -5588.649002 kJ/mol
# Density = 2.055761 g / cm^3
# Si number density = 20.604504 Si / 1000 Ang^3
#
#
#
# Elastic Constant Matrix: (Units=GPa)
#
#
# Indices 1 2 3 4 5 6 
#
# 1 38.3984 15.7665 0.1755 0.0000 0.0000 0.0000
# 2 15.7665 42.0155 8.4986 0.0000 0.0000 0.0000
# 3 0.1755 8.4986 81.9385 0.0000 0.0000 0.0000
# 4 0.0000 0.0000 0.0000 32.9534 0.0000 0.0000
# 5 0.0000 0.0000 0.0000 0.0000 31.9159 0.0000
# 6 0.0000 0.0000 0.0000 0.0000 0.0000 27.2655
#
#
#
# Elastic Compliance Matrix: (Units=1/GPa)
#
#
# Indices 1 2 3 4 5 6 
#
# 1 0.030894 -0.011828 0.001161 0.000000 0.000000 0.000000
# 2 -0.011828 0.028839 -0.002966 0.000000 0.000000 0.000000
# 3 0.001161 -0.002966 0.012509 0.000000 0.000000 0.000000
# 4 0.000000 0.000000 0.000000 0.030346 0.000000 0.000000
# 5 0.000000 0.000000 0.000000 0.000000 0.031332 0.000000
# 6 0.000000 0.000000 0.000000 0.000000 0.000000 0.036676
#
#
# Mechanical properties :
#
#
# Convention : Reuss Voigt Hill
#
# Bulk Modulus (GPa) = 22.23394 23.47042 22.85218
# Shear Modulus (GPa) = 23.49012 27.62108 25.55560
#
# Velocity S-wave (km/s) = 3.38012 3.66531 3.52560
# Velocity P-wave (km/s) = 5.10371 5.41556 5.26195
#
# Compressibility (1/GPa) = 0.04497628
#
# Stress axis : x y z
#
# Youngs Moduli (GPa) = 32.36873 34.67511 79.93991
#
# Poissons Ratio (x) = 0.41013 -0.09278
# Poissons Ratio (y) = 0.38285 0.23709
# Poissons Ratio (z) = -0.03757 0.10284
#
# Static dielectric constant tensor:
#      x y z
#    x 5.936210 0.000000 0.000000 
#    y 0.000000 1.699040 0.000000 
#    z 0.000000 0.000000 1.926350 
# 
# From -- ./inp_files/27138.got.cif
#   From: 2010.05.17/outbox.cif.g08.bks.cpg/sg62_14_cif.got.tgz:27138.got - 2010.06.03 15:25:27.
