data_PCOD9467372
_publ_section_title
;
Structure prediction by ZEFSAII (Michael W. Deem and Ramdas Pophale) SiO2 
 PCOD9467372
Probable space group: P N M A
;
_chemical_formula_sum "Si O2"
_cell_formula_units_Z 48
_cell_length_a 16.550548
_cell_length_b 27.401657
_cell_length_c 4.939097
_cell_angle_alpha 90.000000
_cell_angle_beta 90.000000
_cell_angle_gamma 90.000000
_cell_volume 2239.941929
_symmetry_space_group_name_H-M "P N M A"
_symmetry_group_IT_number 62
_symmetry_cell_setting 'orthorhombic'
loop_
_space_group_symop_operation_xyz
x,y,z
1/2-x,-y,1/2+z
1/2+x,1/2-y,1/2-z
-x,1/2+y,-z
-x,-y,-z
1/2+x,y,1/2-z
1/2-x,1/2+y,1/2+z
x,1/2-y,z
loop_
_atom_site_type_symbol
_atom_site_label
_atom_site_fract_x
_atom_site_fract_y
_atom_site_fract_z
Si Si1 0.223096 0.839266 0.678064
Si Si2 0.430349 0.750000 0.429734
Si Si3 0.149052 0.875317 0.176181
Si Si4 0.376068 0.899207 0.818384
Si Si5 0.820125 0.750000 0.575961
Si Si6 0.970014 0.639934 0.184323
Si Si7 0.235900 0.031731 0.598849
O O1 0.191944 0.836386 0.374654
O O2 0.292277 0.880194 0.691901
O O3 0.266895 0.794914 0.822380
O O4 0.150470 0.855955 0.870285
O O5 0.400359 0.750000 0.738300
O O6 0.473787 0.801896 0.378496
O O7 0.351205 0.750000 0.231644
O O8 0.057213 0.880679 0.264948
O O9 0.204750 0.923454 0.176077
O O10 0.438192 0.890866 0.573984
O O11 0.347409 0.949028 0.962598
O O12 0.407912 0.866779 0.068326
O O13 0.221929 0.000866 0.868585
#
# Coordination Sequence:
#
# PCOD9467372 Si02
#       7
#     8   4   8   8   4   8   8
#     4  11  21  40  61  91 123 171 214 262 303 376
#     4  12  22  38  62  94 132 172 214 254 306 378
#     4  11  25  41  64  94 133 164 209 272 339 367
#     4  11  22  41  66  91 125 172 213 254 326 389
#     4  12  22  36  64  94 122 164 240 254 290 380
#     4  12  23  41  62  97 133 173 206 261 321 387
#     4  11  23  44  69  94 123 166 223 277 330 397
#
# _framework density 21.429126
#
# number of rings (size 3 to 8) (size 9 to 14) (size 15 to 20)
#    0.000    0.667    3.333    7.000    0.000    1.333 
#    0.000    5.000    0.000    0.000    0.000    0.000 
#    0.000    0.000    0.000    0.000    0.000    0.000 
#
# Total GULP energy -267951.315458 kJ/mol
# GULP energy per Si atom -5582.319072 kJ/mol
# Density = 2.138035 g / cm^3
# Si number density = 21.429126 Si / 1000 Ang^3
#
#
#
# Elastic Constant Matrix: (Units=GPa)
#
#
# Indices 1 2 3 4 5 6 
#
# 1 68.4867 16.3634 25.2130 0.0000 0.0000 0.0000
# 2 16.3634 54.7187 16.2008 0.0000 0.0000 0.0000
# 3 25.2130 16.2008 97.2445 0.0000 0.0000 0.0000
# 4 0.0000 0.0000 0.0000 21.0036 0.0000 0.0000
# 5 0.0000 0.0000 0.0000 0.0000 26.7448 0.0000
# 6 0.0000 0.0000 0.0000 0.0000 0.0000 9.8271
#
#
#
# Elastic Compliance Matrix: (Units=1/GPa)
#
#
# Indices 1 2 3 4 5 6 
#
# 1 0.016919 -0.003956 -0.003728 0.000000 0.000000 0.000000
# 2 -0.003956 0.020148 -0.002331 0.000000 0.000000 0.000000
# 3 -0.003728 -0.002331 0.011638 0.000000 0.000000 0.000000
# 4 0.000000 0.000000 0.000000 0.047611 0.000000 0.000000
# 5 0.000000 0.000000 0.000000 0.000000 0.037390 0.000000
# 6 0.000000 0.000000 0.000000 0.000000 0.000000 0.101759
#
#
# Mechanical properties :
#
#
# Convention : Reuss Voigt Hill
#
# Bulk Modulus (GPa) = 34.87183 37.33384 36.10284
# Shear Modulus (GPa) = 18.86410 22.35994 20.61202
#
# Velocity S-wave (km/s) = 2.97021 3.23373 3.10477
# Velocity P-wave (km/s) = 5.29823 5.60380 5.45315
#
# Compressibility (1/GPa) = 0.02867644
#
# Stress axis : x y z
#
# Youngs Moduli (GPa) = 59.10577 49.63161 85.92414
#
# Poissons Ratio (x) = 0.19634 0.32029
# Poissons Ratio (y) = 0.23381 0.20029
# Poissons Ratio (z) = 0.22032 0.11569
#
# Static dielectric constant tensor:
#      x y z
#    x 1.756280 0.000000 0.000000 
#    y 0.000000 1.840840 0.000000 
#    z 0.000000 0.000000 1.767500 
# 
# From -- ./inp_files/1202.got.cif
#   From: 2010.05.17/outbox.cif.g08.bks.cpg/sg62_1_cif.got.tgz:1202.got - 2010.06.03 15:25:27.
