data_PCOD9467161
_publ_section_title
;
Structure prediction by ZEFSAII (Michael W. Deem and Ramdas Pophale) SiO2 
 PCOD9467161
Probable space group: P N M A
;
_chemical_formula_sum "Si O2"
_cell_formula_units_Z 48
_cell_length_a 5.361830
_cell_length_b 14.119231
_cell_length_c 27.815479
_cell_angle_alpha 90.000000
_cell_angle_beta 90.000000
_cell_angle_gamma 90.000000
_cell_volume 2105.768511
_symmetry_space_group_name_H-M "P N M A"
_symmetry_group_IT_number 62
_symmetry_cell_setting 'orthorhombic'
loop_
_space_group_symop_operation_xyz
x,y,z
1/2-x,-y,1/2+z
1/2+x,1/2-y,1/2-z
-x,1/2+y,-z
-x,-y,-z
1/2+x,y,1/2-z
1/2-x,1/2+y,1/2+z
x,1/2-y,z
loop_
_atom_site_type_symbol
_atom_site_label
_atom_site_fract_x
_atom_site_fract_y
_atom_site_fract_z
Si Si1 0.714637 0.250000 0.080413
Si Si2 0.266071 0.250000 0.220084
Si Si3 0.218972 0.250000 0.017355
Si Si4 0.610979 0.250000 0.722628
Si Si5 0.274903 0.458911 0.793233
Si Si6 0.614925 0.944350 0.616639
Si Si7 0.748957 0.955834 0.023289
Si Si8 0.230267 0.459570 0.180909
O O1 0.447694 0.250000 0.055143
O O2 0.762880 0.156207 0.111028
O O3 0.945883 0.250000 0.042271
O O4 0.484825 0.250000 0.259548
O O5 0.294357 0.349698 0.193164
O O6 0.245948 0.344657 0.986333
O O7 0.316962 0.250000 0.734082
O O8 0.676927 0.147873 0.700945
O O9 0.094744 0.525368 0.826120
O O10 0.322349 0.496051 0.739690
O O11 0.527983 0.472118 0.822661
O O12 0.317833 0.944771 0.619136
O O13 0.725679 0.015850 0.579044
O O14 0.500000 0.000000 0.000000
O O15 0.000000 0.000000 0.000000
#
# Coordination Sequence:
#
# PCOD9467161 Si02
#       8
#     4   4   4   4   8   8   8   8
#     4  12  23  39  70  90 132 181 222 267 343 396
#     4  12  25  41  68 102 138 172 214 268 328 415
#     4  12  24  41  61 100 126 175 228 289 332 405
#     4  12  26  47  75 100 132 178 232 282 335 410
#     4  10  25  43  68  99 130 176 224 278 336 396
#     4  10  25  42  70  93 140 175 228 281 329 411
#     4  12  24  42  66  98 134 179 236 283 340 391
#     4  10  24  43  64 100 135 175 217 269 340 401
#
# _framework density 22.794529000000001
#
# number of rings (size 3 to 8) (size 9 to 14) (size 15 to 20)
#    1.000    0.000    3.333    2.500    4.667    5.333 
#    0.000    0.000    0.000    0.000    0.000    0.000 
#    0.000    0.000    0.000    0.000    0.000    0.000 
#
# Total GULP energy -267452.243008 kJ/mol
# GULP energy per Si atom -5571.921729 kJ/mol
# Density = 2.274265 g / cm^3
# Si number density = 22.794529 Si / 1000 Ang^3
#
#
#
# Elastic Constant Matrix: (Units=GPa)
#
#
# Indices 1 2 3 4 5 6 
#
# 1 89.4003 19.1470 35.5867 0.0000 0.0000 0.0000
# 2 19.1470 192.5824 56.5929 0.0000 0.0000 0.0000
# 3 35.5867 56.5929 104.0786 0.0000 0.0000 0.0000
# 4 0.0000 0.0000 0.0000 22.7278 0.0000 0.0000
# 5 0.0000 0.0000 0.0000 0.0000 36.6842 0.0000
# 6 0.0000 0.0000 0.0000 0.0000 0.0000 40.2199
#
#
#
# Elastic Compliance Matrix: (Units=1/GPa)
#
#
# Indices 1 2 3 4 5 6 
#
# 1 0.012948 0.000016 -0.004436 0.000000 0.000000 0.000000
# 2 0.000016 0.006180 -0.003366 0.000000 0.000000 0.000000
# 3 -0.004436 -0.003366 0.012955 0.000000 0.000000 0.000000
# 4 0.000000 0.000000 0.000000 0.043999 0.000000 0.000000
# 5 0.000000 0.000000 0.000000 0.000000 0.027260 0.000000
# 6 0.000000 0.000000 0.000000 0.000000 0.000000 0.024863
#
#
# Mechanical properties :
#
#
# Convention : Reuss Voigt Hill
#
# Bulk Modulus (GPa) = 60.56310 67.63496 64.09903
# Shear Modulus (GPa) = 33.49394 38.24201 35.86797
#
# Velocity S-wave (km/s) = 3.83741 4.10040 3.97108
# Velocity P-wave (km/s) = 6.80155 7.22175 7.01480
#
# Compressibility (1/GPa) = 0.01651170
#
# Stress axis : x y z
#
# Youngs Moduli (GPa) = 77.23221 161.80942 77.18933
#
# Poissons Ratio (x) = -0.00263 0.34241
# Poissons Ratio (y) = -0.00126 0.25982
# Poissons Ratio (z) = 0.34260 0.54465
#
# Static dielectric constant tensor:
#      x y z
#    x 2.097080 0.000000 0.000000 
#    y 0.000000 2.195030 0.000000 
#    z 0.000000 0.000000 1.981750 
# 
# From -- ./inp_files/30443.got.cif
#   From: 2010.05.17/outbox.cif.g08.bks.cpg/sg62_16_cif.got.tgz:30443.got - 2010.06.03 15:25:27.
