data_PCOD9467384
_publ_section_title
;
Structure prediction by ZEFSAII (Michael W. Deem and Ramdas Pophale) SiO2 
 PCOD9467384
Probable space group: P N M A
;
_chemical_formula_sum "Si O2"
_cell_formula_units_Z 48
_cell_length_a 14.693671
_cell_length_b 16.436417
_cell_length_c 9.820764
_cell_angle_alpha 90.000000
_cell_angle_beta 90.000000
_cell_angle_gamma 90.000000
_cell_volume 2371.825518
_symmetry_space_group_name_H-M "P N M A"
_symmetry_group_IT_number 62
_symmetry_cell_setting 'orthorhombic'
loop_
_space_group_symop_operation_xyz
x,y,z
1/2-x,-y,1/2+z
1/2+x,1/2-y,1/2-z
-x,1/2+y,-z
-x,-y,-z
1/2+x,y,1/2-z
1/2-x,1/2+y,1/2+z
x,1/2-y,z
loop_
_atom_site_type_symbol
_atom_site_label
_atom_site_fract_x
_atom_site_fract_y
_atom_site_fract_z
Si Si1 0.995905 0.515367 0.338589
Si Si2 0.850463 0.338510 0.038029
Si Si3 0.965129 0.580902 0.919387
Si Si4 0.199249 0.966359 0.744133
Si Si5 0.229161 0.156895 0.029026
Si Si6 0.835286 0.388079 0.734421
O O1 0.891077 0.518222 0.290239
O O2 0.000000 0.500000 0.500000
O O3 0.034491 0.443458 0.240356
O O4 0.060394 0.591947 0.304911
O O5 0.821620 0.250000 0.090637
O O6 0.830788 0.344774 0.878729
O O7 0.808405 0.415573 0.116451
O O8 0.958197 0.351474 0.058122
O O9 0.868577 0.612173 0.971827
O O10 0.000000 0.500000 0.000000
O O11 0.210084 0.897612 0.629558
O O12 0.284294 0.025671 0.747865
O O13 0.218295 0.250000 0.074269
O O14 0.279916 0.154942 0.884782
#
# Coordination Sequence:
#
# PCOD9467384 Si02
#       6
#     8   8   8   8   8   8
#     4  11  22  38  65  95 119 162 222 271 311 376
#     4  11  24  41  62  92 130 168 211 275 332 379
#     4  11  21  42  65  92 123 172 226 264 319 402
#     4  11  23  41  66  91 126 170 224 261 317 402
#     4  12  24  40  63  97 133 169 213 281 338 380
#     4  12  23  41  67  92 127 170 222 269 314 399
#
# _framework density 20.237575
#
# number of rings (size 3 to 8) (size 9 to 14) (size 15 to 20)
#    0.000    0.667    5.000    4.500    0.000    0.000 
#    0.000    0.000    0.000    2.000    0.000    0.000 
#    0.000    0.000    0.000    0.000    0.000    0.000 
#
# Total GULP energy -268162.881309 kJ/mol
# GULP energy per Si atom -5586.726694 kJ/mol
# Density = 2.019151 g / cm^3
# Si number density = 20.237575 Si / 1000 Ang^3
#
#
#
# Elastic Constant Matrix: (Units=GPa)
#
#
# Indices 1 2 3 4 5 6 
#
# 1 97.2379 29.0728 14.9141 0.0000 0.0000 0.0000
# 2 29.0728 90.9019 23.0121 0.0000 0.0000 0.0000
# 3 14.9141 23.0121 124.7391 0.0000 0.0000 0.0000
# 4 0.0000 0.0000 0.0000 -3.4175 0.0000 0.0000
# 5 0.0000 0.0000 0.0000 0.0000 23.9023 0.0000
# 6 0.0000 0.0000 0.0000 0.0000 0.0000 7.2082
#
#
#
# Elastic Compliance Matrix: (Units=1/GPa)
#
#
# Indices 1 2 3 4 5 6 
#
# 1 0.011434 -0.003473 -0.000726 0.000000 0.000000 0.000000
# 2 -0.003473 0.012595 -0.001908 0.000000 0.000000 0.000000
# 3 -0.000726 -0.001908 0.008456 0.000000 0.000000 0.000000
# 4 0.000000 0.000000 0.000000 -0.292615 0.000000 0.000000
# 5 0.000000 0.000000 0.000000 0.000000 0.041837 0.000000
# 6 0.000000 0.000000 0.000000 0.000000 0.000000 0.138731
#
#
# Mechanical properties :
#
#
# Convention : Reuss Voigt Hill
#
# Bulk Modulus (GPa) = 49.33646 49.65301 49.49474
# Shear Modulus (GPa) = -82.52024 21.93059 -30.29483
#
# Velocity S-wave (km/s) = -6.39252 3.29547 -3.87325
# Velocity P-wave (km/s) = 5.48217 6.25048 2.12301
#
# Compressibility (1/GPa) = 0.02026898
#
# Stress axis : x y z
#
# Youngs Moduli (GPa) = 87.45975 79.39850 118.26453
#
# Poissons Ratio (x) = 0.27575 0.08590
# Poissons Ratio (y) = 0.30374 0.22568
# Poissons Ratio (z) = 0.06353 0.15151
#
# Static dielectric constant tensor:
#      x y z
#    x 1.720680 0.000000 0.000000 
#    y 0.000000 1.696960 0.000000 
#    z 0.000000 0.000000 1.737810 
# 
# From -- ./inp_files/6479.got.cif
#   From: 2010.05.17/outbox.cif.g08.bks.cpg/sg62_4_cif.got.tgz:6479.got - 2010.06.03 15:25:27.
