data_PCOD9467063
_publ_section_title
;
Structure prediction by ZEFSAII (Michael W. Deem and Ramdas Pophale) SiO2 
 PCOD9467063
Probable space group: P N M A
;
_chemical_formula_sum "Si O2"
_cell_formula_units_Z 40
_cell_length_a 6.982612
_cell_length_b 13.231037
_cell_length_c 18.002316
_cell_angle_alpha 90.000000
_cell_angle_beta 90.000000
_cell_angle_gamma 90.000000
_cell_volume 1663.183528
_symmetry_space_group_name_H-M "P N M A"
_symmetry_group_IT_number 62
_symmetry_cell_setting 'orthorhombic'
loop_
_space_group_symop_operation_xyz
x,y,z
1/2-x,-y,1/2+z
1/2+x,1/2-y,1/2-z
-x,1/2+y,-z
-x,-y,-z
1/2+x,y,1/2-z
1/2-x,1/2+y,1/2+z
x,1/2-y,z
loop_
_atom_site_type_symbol
_atom_site_label
_atom_site_fract_x
_atom_site_fract_y
_atom_site_fract_z
Si Si1 0.261742 0.511616 0.795654
Si Si2 0.778337 0.635760 0.097050
Si Si3 0.303275 0.020742 0.043143
Si Si4 0.301234 0.363362 0.656689
Si Si5 0.600063 0.367188 0.331063
O O1 0.359675 0.437388 0.854963
O O2 0.242280 0.436951 0.724196
O O3 0.355955 0.607436 0.755284
O O4 0.086079 0.561892 0.840998
O O5 0.709736 0.750000 0.084118
O O6 0.818404 0.578829 0.020193
O O7 0.967154 0.642705 0.148832
O O8 0.269191 0.094931 0.114229
O O9 0.500000 0.000000 0.000000
O O10 0.248480 0.913025 0.077690
O O11 0.227543 0.250000 0.667627
O O12 0.563423 0.250000 0.342561
#
# Coordination Sequence:
#
# PCOD9467063 Si02
#       5
#     8   8   8   8   8
#     4  11  22  43  67 101 138 174 235 287 334 415
#     4  11  23  43  72 101 136 179 223 283 348 409
#     4  11  25  44  68 100 142 179 230 286 341 418
#     4  10  23  43  68  99 134 177 227 280 342 406
#     4  11  25  45  68  98 137 184 231 284 349 414
#
# _framework density 24.050263999999999
#
# number of rings (size 3 to 8) (size 9 to 14) (size 15 to 20)
#    0.000    1.200    4.000    2.400    5.600    1.600 
#    0.000    1.000    0.000    0.000    0.000    0.000 
#    0.000    0.000    0.000    0.000    0.000    0.000 
#
# Total GULP energy -222865.484245 kJ/mol
# GULP energy per Si atom -5571.637106 kJ/mol
# Density = 2.399552 g / cm^3
# Si number density = 24.050264 Si / 1000 Ang^3
#
#
#
# Elastic Constant Matrix: (Units=GPa)
#
#
# Indices 1 2 3 4 5 6 
#
# 1 62.3351 18.2972 16.5140 0.0000 0.0000 0.0000
# 2 18.2972 207.5365 49.1984 0.0000 0.0000 0.0000
# 3 16.5140 49.1984 138.9111 0.0000 0.0000 0.0000
# 4 0.0000 0.0000 0.0000 32.8151 0.0000 0.0000
# 5 0.0000 0.0000 0.0000 0.0000 43.7880 0.0000
# 6 0.0000 0.0000 0.0000 0.0000 0.0000 20.5641
#
#
#
# Elastic Compliance Matrix: (Units=1/GPa)
#
#
# Indices 1 2 3 4 5 6 
#
# 1 0.016791 -0.001099 -0.001607 0.000000 0.000000 0.000000
# 2 -0.001099 0.005332 -0.001758 0.000000 0.000000 0.000000
# 3 -0.001607 -0.001758 0.008012 0.000000 0.000000 0.000000
# 4 0.000000 0.000000 0.000000 0.030474 0.000000 0.000000
# 5 0.000000 0.000000 0.000000 0.000000 0.022837 0.000000
# 6 0.000000 0.000000 0.000000 0.000000 0.000000 0.048628
#
#
# Mechanical properties :
#
#
# Convention : Reuss Voigt Hill
#
# Bulk Modulus (GPa) = 47.15352 64.08910 55.62131
# Shear Modulus (GPa) = 33.76742 41.08497 37.42619
#
# Velocity S-wave (km/s) = 3.75111 4.13764 3.94911
# Velocity P-wave (km/s) = 6.19757 7.03794 6.63108
#
# Compressibility (1/GPa) = 0.02120733
#
# Stress axis : x y z
#
# Youngs Moduli (GPa) = 59.55673 187.54505 124.80645
#
# Poissons Ratio (x) = 0.20619 0.20053
# Poissons Ratio (y) = 0.06548 0.21938
# Poissons Ratio (z) = 0.09569 0.32966
#
# Static dielectric constant tensor:
#      x y z
#    x 2.135280 0.000000 0.000000 
#    y 0.000000 1.922880 0.000000 
#    z 0.000000 0.000000 1.922320 
# 
# From -- ./inp_files/22057.got.cif
#   From: 2010.05.17/outbox.cif.g08.bks.cpg/sg62_12_cif.got.tgz:22057.got - 2010.06.03 15:25:27.
