data_PCOD9467890
_publ_section_title
;
Structure prediction by ZEFSAII (Michael W. Deem and Ramdas Pophale) SiO2 
 PCOD9467890
Probable space group: P N M A
;
_chemical_formula_sum "Si O2"
_cell_formula_units_Z 56
_cell_length_a 15.000000
_cell_length_b 9.000000
_cell_length_c 21.000000
_cell_angle_alpha 90.000000
_cell_angle_beta 90.000000
_cell_angle_gamma 90.000000
_cell_volume 2835.000000
_symmetry_space_group_name_H-M "P N M A"
_symmetry_group_IT_number 62
_symmetry_cell_setting 'orthorhombic'
loop_
_space_group_symop_operation_xyz
x,y,z
1/2-x,-y,1/2+z
1/2+x,1/2-y,1/2-z
-x,1/2+y,-z
-x,-y,-z
1/2+x,y,1/2-z
1/2-x,1/2+y,1/2+z
x,1/2-y,z
loop_
_atom_site_type_symbol
_atom_site_label
_atom_site_fract_x
_atom_site_fract_y
_atom_site_fract_z
Si Si1 0.673396 0.427870 0.879946
Si Si2 0.682047 0.421860 0.299541
Si Si3 0.533836 0.421608 0.408971
Si Si4 0.338833 0.569701 0.838030
Si Si5 0.496394 0.929639 0.929721
Si Si6 0.655343 0.919158 0.624543
Si Si7 0.322152 0.416427 0.521607
O O1 0.659589 0.250000 0.880320
O O2 0.733958 0.479639 0.820676
O O3 0.581033 0.512723 0.889467
O O4 0.736108 0.471593 0.940511
O O5 0.712721 0.250000 0.294469
O O6 0.607569 0.427537 0.353872
O O7 0.633463 0.462485 0.233962
O O8 0.513645 0.250000 0.425755
O O9 0.441941 0.488859 0.382877
O O10 0.587437 0.495606 0.466051
O O11 0.333355 0.750000 0.845296
O O12 0.407367 0.521092 0.891863
O O13 0.237771 0.509113 0.839780
O O14 0.497314 0.750000 0.934185
O O15 0.500000 0.000000 0.000000
O O16 0.641974 0.750000 0.649567
O O17 0.693367 0.910339 0.552884
O O18 0.337847 0.250000 0.546390
#
# Coordination Sequence:
#
# PCOD9467890 Si02
#       7
#     8   8   8   8   8   8   8
#     4  10  20  35  55  78 106 142 180 222 271 326
#     4   9  18  34  54  78 104 133 173 218 263 319
#     4   9  17  28  47  74 100 124 157 203 253 304
#     4   9  19  34  53  76 104 138 179 224 269 322
#     4  11  22  37  58  84 112 147 190 236 284 334
#     4   9  16  28  47  71  97 127 162 204 252 304
#     4   9  17  30  49  71  98 131 165 201 251 313
#
# _framework density 19.753086
#
# number of rings (size 3 to 8) (size 9 to 14) (size 15 to 20)
#    0.000    2.571    0.000    2.143    0.000    4.000 
#    0.000    5.714    0.000    6.857    0.000    0.000 
#    0.000    0.000    0.000    0.000    0.000    0.000 
#
# Total GULP energy -311760.457505 kJ/mol
# GULP energy per Si atom -5567.151027 kJ/mol
# Density = 1.970813 g / cm^3
# Si number density = 19.753086 Si / 1000 Ang^3
#
#
#
# Elastic Constant Matrix: (Units=GPa)
#
#
# Indices 1 2 3 4 5 6 
#
# 1 79.2067 12.6483 -1.6371 0.0000 0.0000 0.0000
# 2 12.6483 25.6873 5.9739 0.0000 0.0000 0.0000
# 3 -1.6371 5.9739 54.3126 0.0000 0.0000 0.0000
# 4 0.0000 0.0000 0.0000 15.1440 0.0000 0.0000
# 5 0.0000 0.0000 0.0000 0.0000 20.8049 0.0000
# 6 0.0000 0.0000 0.0000 0.0000 0.0000 14.7875
#
#
#
# Elastic Compliance Matrix: (Units=1/GPa)
#
#
# Indices 1 2 3 4 5 6 
#
# 1 0.013777 -0.007061 0.001192 0.000000 0.000000 0.000000
# 2 -0.007061 0.043571 -0.005005 0.000000 0.000000 0.000000
# 3 0.001192 -0.005005 0.018998 0.000000 0.000000 0.000000
# 4 0.000000 0.000000 0.000000 0.066033 0.000000 0.000000
# 5 0.000000 0.000000 0.000000 0.000000 0.048066 0.000000
# 6 0.000000 0.000000 0.000000 0.000000 0.000000 0.067625
#
#
# Mechanical properties :
#
#
# Convention : Reuss Voigt Hill
#
# Bulk Modulus (GPa) = 18.31583 21.46410 19.88996
# Shear Modulus (GPa) = 16.77753 19.62870 18.20311
#
# Velocity S-wave (km/s) = 2.91754 3.15572 3.03897
# Velocity P-wave (km/s) = 4.54334 4.91609 4.73338
#
# Compressibility (1/GPa) = 0.05459758
#
# Stress axis : x y z
#
# Youngs Moduli (GPa) = 72.58263 22.95129 52.63609
#
# Poissons Ratio (x) = 0.16206 -0.06274
# Poissons Ratio (y) = 0.51251 0.26345
# Poissons Ratio (z) = -0.08651 0.11488
#
# Static dielectric constant tensor:
#      x y z
#    x 1.724650 0.000000 0.000000 
#    y 0.000000 1.706420 0.000000 
#    z 0.000000 0.000000 1.776430 
# 
# From -- ./inp_files/27307.got.cif
#   From: 2010.05.17/outbox.ucp.g08.bks.cvg/sg62_14_cif.got.tgz:27307.got - 2010.06.11 16:29:25.
