data_PCOD9467724
_publ_section_title
;
Structure prediction by ZEFSAII (Michael W. Deem and Ramdas Pophale) SiO2 
 PCOD9467724
Probable space group: P N M A
;
_chemical_formula_sum "Si O2"
_cell_formula_units_Z 56
_cell_length_a 30.502709
_cell_length_b 7.588624
_cell_length_c 14.256971
_cell_angle_alpha 90.000000
_cell_angle_beta 90.000000
_cell_angle_gamma 90.000000
_cell_volume 3300.112254
_symmetry_space_group_name_H-M "P N M A"
_symmetry_group_IT_number 62
_symmetry_cell_setting 'orthorhombic'
loop_
_space_group_symop_operation_xyz
x,y,z
1/2-x,-y,1/2+z
1/2+x,1/2-y,1/2-z
-x,1/2+y,-z
-x,-y,-z
1/2+x,y,1/2-z
1/2-x,1/2+y,1/2+z
x,1/2-y,z
loop_
_atom_site_type_symbol
_atom_site_label
_atom_site_fract_x
_atom_site_fract_y
_atom_site_fract_z
Si Si1 0.319180 0.538854 0.288693
Si Si2 0.768664 0.963317 0.392180
Si Si3 0.906493 0.533315 0.110787
Si Si4 0.901528 0.956816 0.895403
Si Si5 0.319462 0.540287 0.716787
Si Si6 0.997926 0.041205 0.888989
Si Si7 0.269202 0.537966 0.897058
O O1 0.322953 0.750000 0.281510
O O2 0.302506 0.472844 0.187541
O O3 0.365482 0.473399 0.327617
O O4 0.279906 0.501348 0.361362
O O5 0.770548 0.750000 0.393103
O O6 0.776474 0.027596 0.497592
O O7 0.720345 0.013145 0.355908
O O8 0.906839 0.750000 0.109523
O O9 0.954684 0.477359 0.146782
O O10 0.900823 0.473179 0.002404
O O11 0.891692 0.750000 0.905453
O O12 0.864068 0.032371 0.828087
O O13 0.950947 0.971511 0.856425
O O14 0.325225 0.750000 0.730110
O O15 0.302081 0.469163 0.816538
O O16 0.996390 0.250000 0.876359
O O17 0.000000 0.000000 0.000000
O O18 0.273311 0.750000 0.899265
#
# Coordination Sequence:
#
# PCOD9467724 Si02
#       7
#     8   8   8   8   8   8   8
#     4   9  16  27  42  58  76 104 136 160 187 232
#     4   9  17  27  40  59  82 103 130 167 198 225
#     4   8  14  24  38  55  75  97 125 156 186 223
#     4   9  16  26  39  56  76 101 131 160 189 229
#     4   9  17  28  42  57  78 108 136 158 191 237
#     4   9  16  26  39  56  78 102 126 157 194 233
#     4   9  17  28  39  57  83 105 127 162 199 227
#
# _framework density 16.969121000000001
#
# number of rings (size 3 to 8) (size 9 to 14) (size 15 to 20)
#    0.000    3.143    0.000    2.143    0.000    2.286 
#    0.000    5.000    0.000    0.000    0.000    1.000 
#    0.000    0.000    0.000    0.000    0.000    0.000 
#
# Total GULP energy -311833.015375 kJ/mol
# GULP energy per Si atom -5568.446703 kJ/mol
# Density = 1.693050 g / cm^3
# Si number density = 16.969121 Si / 1000 Ang^3
#
#
#
# Elastic Constant Matrix: (Units=GPa)
#
#
# Indices 1 2 3 4 5 6 
#
# 1 164.3309 -4.9710 76.9767 0.0000 0.0000 0.0000
# 2 -4.9710 29.8572 0.0462 0.0000 0.0000 0.0000
# 3 76.9767 0.0462 112.1224 0.0000 0.0000 0.0000
# 4 0.0000 0.0000 0.0000 7.7458 0.0000 0.0000
# 5 0.0000 0.0000 0.0000 0.0000 25.5574 0.0000
# 6 0.0000 0.0000 0.0000 0.0000 0.0000 15.8023
#
#
#
# Elastic Compliance Matrix: (Units=1/GPa)
#
#
# Indices 1 2 3 4 5 6 
#
# 1 0.009038 0.001514 -0.006206 0.000000 0.000000 0.000000
# 2 0.001514 0.033747 -0.001054 0.000000 0.000000 0.000000
# 3 -0.006206 -0.001054 0.013180 0.000000 0.000000 0.000000
# 4 0.000000 0.000000 0.000000 0.129102 0.000000 0.000000
# 5 0.000000 0.000000 0.000000 0.000000 0.039128 0.000000
# 6 0.000000 0.000000 0.000000 0.000000 0.000000 0.063282
#
#
# Mechanical properties :
#
#
# Convention : Reuss Voigt Hill
#
# Bulk Modulus (GPa) = 22.48477 50.04604 36.26541
# Shear Modulus (GPa) = 15.93425 25.43836 20.68630
#
# Velocity S-wave (km/s) = 3.06766 3.87602 3.49529
# Velocity P-wave (km/s) = 5.08198 7.04186 6.14062
#
# Compressibility (1/GPa) = 0.04447455
#
# Stress axis : x y z
#
# Youngs Moduli (GPa) = 110.64496 29.63267 75.87472
#
# Poissons Ratio (x) = -0.04487 0.47084
# Poissons Ratio (y) = -0.16755 0.07994
# Poissons Ratio (z) = 0.68661 0.03122
#
# Static dielectric constant tensor:
#      x y z
#    x 1.593150 0.000000 0.000000 
#    y 0.000000 1.628160 0.000000 
#    z 0.000000 0.000000 1.574640 
# 
# From -- ./inp_files/15541.got.cif
#   From: 2010.05.17/outbox.cif.g08.bks.cpg/sg62_8_cif.got.tgz:15541.got - 2010.06.03 15:25:27.
