data_PCOD9467064
_publ_section_title
;
Structure prediction by ZEFSAII (Michael W. Deem and Ramdas Pophale) SiO2 
 PCOD9467064
Probable space group: P N M A
;
_chemical_formula_sum "Si O2"
_cell_formula_units_Z 48
_cell_length_a 4.981634
_cell_length_b 18.215226
_cell_length_c 19.987992
_cell_angle_alpha 90.000000
_cell_angle_beta 90.000000
_cell_angle_gamma 90.000000
_cell_volume 1813.742158
_symmetry_space_group_name_H-M "P N M A"
_symmetry_group_IT_number 62
_symmetry_cell_setting 'orthorhombic'
loop_
_space_group_symop_operation_xyz
x,y,z
1/2-x,-y,1/2+z
1/2+x,1/2-y,1/2-z
-x,1/2+y,-z
-x,-y,-z
1/2+x,y,1/2-z
1/2-x,1/2+y,1/2+z
x,1/2-y,z
loop_
_atom_site_type_symbol
_atom_site_label
_atom_site_fract_x
_atom_site_fract_y
_atom_site_fract_z
Si Si1 0.678717 0.169172 0.900755
Si Si2 0.549630 0.161039 0.714705
Si Si3 0.194086 0.012245 0.436274
Si Si4 0.528713 0.548144 0.796906
Si Si5 0.851568 0.870788 0.018889
Si Si6 0.443975 0.836502 0.901561
O O1 0.617849 0.250000 0.873547
O O2 0.871330 0.132800 0.845916
O O3 0.399952 0.143501 0.930401
O O4 0.890507 0.175193 0.961532
O O5 0.855691 0.138821 0.723703
O O6 0.557892 0.250000 0.710635
O O7 0.418780 0.953361 0.454647
O O8 0.043971 0.002586 0.364538
O O9 0.000000 0.000000 0.500000
O O10 0.262774 0.099012 0.428180
O O11 0.812780 0.536074 0.761840
O O12 0.508881 0.631130 0.827749
O O13 0.702897 0.851057 0.949377
O O14 0.376612 0.750000 0.902082
#
# Coordination Sequence:
#
# PCOD9467064 Si02
#       6
#     8   8   8   8   8   8
#     4  11  22  35  59  90 126 168 228 286 332 396
#     4   9  17  31  49  72 107 154 207 265 329 386
#     4   8  20  44  66  98 135 186 224 283 341 412
#     4  10  23  43  69 102 141 180 229 283 345 416
#     4  11  22  41  63  95 132 178 224 279 342 401
#     4   9  20  42  71 101 137 182 230 283 344 412
#
# _framework density 26.464621999999999
#
# number of rings (size 3 to 8) (size 9 to 14) (size 15 to 20)
#    1.000    1.333    0.000    2.500    0.000    6.000 
#    0.000   10.000    0.000    0.000    0.000    0.000 
#    0.000   12.000    0.000    0.000    0.000    0.000 
#
# Total GULP energy -267645.725377 kJ/mol
# GULP energy per Si atom -5575.952612 kJ/mol
# Density = 2.640439 g / cm^3
# Si number density = 26.464622 Si / 1000 Ang^3
#
#
#
# Elastic Constant Matrix: (Units=GPa)
#
#
# Indices 1 2 3 4 5 6 
#
# 1 106.3698 26.1688 -5.0698 0.0000 0.0000 0.0000
# 2 26.1688 151.1377 18.8046 0.0000 0.0000 0.0000
# 3 -5.0698 18.8046 113.6221 0.0000 0.0000 0.0000
# 4 0.0000 0.0000 0.0000 42.3352 0.0000 0.0000
# 5 0.0000 0.0000 0.0000 0.0000 32.7711 0.0000
# 6 0.0000 0.0000 0.0000 0.0000 0.0000 -687.4777
#
#
#
# Elastic Compliance Matrix: (Units=1/GPa)
#
#
# Indices 1 2 3 4 5 6 
#
# 1 0.009880 -0.001803 0.000739 0.000000 0.000000 0.000000
# 2 -0.001803 0.007084 -0.001253 0.000000 0.000000 0.000000
# 3 0.000739 -0.001253 0.009041 0.000000 0.000000 0.000000
# 4 0.000000 0.000000 0.000000 0.023621 0.000000 0.000000
# 5 0.000000 0.000000 0.000000 0.000000 0.030515 0.000000
# 6 0.000000 0.000000 0.000000 0.000000 0.000000 -0.001455
#
#
# Mechanical properties :
#
#
# Convention : Reuss Voigt Hill
#
# Bulk Modulus (GPa) = 46.78786 50.10407 48.44597
# Shear Modulus (GPa) = 55.28283 -100.39254 -22.55485
#
# Velocity S-wave (km/s) = 4.57544 -6.16579 -2.92252
# Velocity P-wave (km/s) = 6.75505 5.63167 2.63770
#
# Compressibility (1/GPa) = 0.02137306
#
# Stress axis : x y z
#
# Youngs Moduli (GPa) = 101.21592 141.15346 110.60174
#
# Poissons Ratio (x) = 0.25445 -0.08175
# Poissons Ratio (y) = 0.18245 0.13858
# Poissons Ratio (z) = -0.07482 0.17685
#
# Static dielectric constant tensor:
#      x y z
#    x 2.079350 0.000000 0.000000 
#    y 0.000000 2.155370 0.000000 
#    z 0.000000 0.000000 2.259330 
# 
# From -- ./inp_files/25310.got.cif
#   From: 2010.05.17/outbox.cif.g08.bks.cpg/sg62_13_cif.got.tgz:25310.got - 2010.06.03 15:25:27.
