data_PCOD9467266
_publ_section_title
;
Structure prediction by ZEFSAII (Michael W. Deem and Ramdas Pophale) SiO2 
 PCOD9467266
Probable space group: P N M A
;
_chemical_formula_sum "Si O2"
_cell_formula_units_Z 64
_cell_length_a 9.557924
_cell_length_b 31.970227
_cell_length_c 12.780531
_cell_angle_alpha 90.000000
_cell_angle_beta 90.000000
_cell_angle_gamma 90.000000
_cell_volume 3905.334076
_symmetry_space_group_name_H-M "P N M A"
_symmetry_group_IT_number 62
_symmetry_cell_setting 'orthorhombic'
loop_
_space_group_symop_operation_xyz
x,y,z
1/2-x,-y,1/2+z
1/2+x,1/2-y,1/2-z
-x,1/2+y,-z
-x,-y,-z
1/2+x,y,1/2-z
1/2-x,1/2+y,1/2+z
x,1/2-y,z
loop_
_atom_site_type_symbol
_atom_site_label
_atom_site_fract_x
_atom_site_fract_y
_atom_site_fract_z
Si Si1 0.131119 0.016780 0.362129
Si Si2 0.277940 0.072636 0.954641
Si Si3 0.973948 0.203790 0.889709
Si Si4 0.842210 0.703954 0.311487
Si Si5 0.777619 0.557455 0.428664
Si Si6 0.980391 0.112961 0.913198
Si Si7 0.308450 0.472357 0.168795
Si Si8 0.491916 0.619480 0.165798
O O1 0.136755 0.042867 0.469721
O O2 0.234671 0.037022 0.277761
O O3 0.972442 0.016590 0.321449
O O4 0.183477 0.970186 0.392350
O O5 0.122392 0.088326 0.933592
O O6 0.381313 0.107842 0.909874
O O7 0.295022 0.061612 0.076971
O O8 0.974596 0.250000 0.940633
O O9 0.103342 0.202878 0.808144
O O10 0.982925 0.160809 0.953768
O O11 0.824793 0.201125 0.827398
O O12 0.884672 0.750000 0.352520
O O13 0.920389 0.663983 0.359196
O O14 0.647023 0.586100 0.456863
O O15 0.733139 0.514640 0.372711
O O16 0.875363 0.584190 0.352911
O O17 0.962582 0.117272 0.786940
#
# Coordination Sequence:
#
# PCOD9467266 Si02
#       8
#     8   8   8   8   8   8   8   8
#     4  11  23  38  54  71 101 135 165 215 258 295
#     4  11  23  36  51  74 103 130 176 209 247 297
#     4   9  18  31  44  67 101 135 167 202 244 295
#     4   9  18  29  45  68  98 134 168 200 246 297
#     4  11  21  36  52  73 102 130 175 207 246 295
#     4  11  22  30  52  79  98 140 172 206 242 299
#     4  11  23  38  54  72 100 134 166 213 261 292
#     4  11  18  34  50  72 102 139 165 208 243 293
#
# _framework density 16.387841999999999
#
# number of rings (size 3 to 8) (size 9 to 14) (size 15 to 20)
#    0.000    1.500    3.750    3.000    8.750    1.000 
#    0.000    0.000    0.000    0.000    0.000    0.000 
#    0.000    6.000    0.000    0.000    0.000    0.000 
#
# Total GULP energy -356865.700440 kJ/mol
# GULP energy per Si atom -5576.026569 kJ/mol
# Density = 1.635054 g / cm^3
# Si number density = 16.387842 Si / 1000 Ang^3
#
#
#
# Elastic Constant Matrix: (Units=GPa)
#
#
# Indices 1 2 3 4 5 6 
#
# 1 59.7948 18.7782 -4.1862 0.0000 0.0000 0.0000
# 2 18.7782 84.9260 6.8110 0.0000 0.0000 0.0000
# 3 -4.1862 6.8110 34.8923 0.0000 0.0000 0.0000
# 4 0.0000 0.0000 0.0000 14.1277 0.0000 0.0000
# 5 0.0000 0.0000 0.0000 0.0000 20.8982 0.0000
# 6 0.0000 0.0000 0.0000 0.0000 0.0000 25.8875
#
#
#
# Elastic Compliance Matrix: (Units=1/GPa)
#
#
# Indices 1 2 3 4 5 6 
#
# 1 0.018282 -0.004285 0.003030 0.000000 0.000000 0.000000
# 2 -0.004285 0.012967 -0.003045 0.000000 0.000000 0.000000
# 3 0.003030 -0.003045 0.029618 0.000000 0.000000 0.000000
# 4 0.000000 0.000000 0.000000 0.070783 0.000000 0.000000
# 5 0.000000 0.000000 0.000000 0.000000 0.047851 0.000000
# 6 0.000000 0.000000 0.000000 0.000000 0.000000 0.038629
#
#
# Mechanical properties :
#
#
# Convention : Reuss Voigt Hill
#
# Bulk Modulus (GPa) = 19.13340 24.71323 21.92332
# Shear Modulus (GPa) = 20.47909 22.73004 21.60456
#
# Velocity S-wave (km/s) = 3.53888 3.72829 3.63482
# Velocity P-wave (km/s) = 5.32906 5.80056 5.56980
#
# Compressibility (1/GPa) = 0.05226462
#
# Stress axis : x y z
#
# Youngs Moduli (GPa) = 54.69930 77.12048 33.76377
#
# Poissons Ratio (x) = 0.33049 -0.10230
# Poissons Ratio (y) = 0.23440 0.10282
# Poissons Ratio (z) = -0.16573 0.23485
#
# Static dielectric constant tensor:
#      x y z
#    x 1.576890 0.000000 0.000000 
#    y 0.000000 1.589050 0.000000 
#    z 0.000000 0.000000 1.532610 
# 
# From -- ./inp_files/17441.got.cif
#   From: 2010.05.17/outbox.cif.g08.bks.cpg/sg62_9_cif.got.tgz:17441.got - 2010.06.03 15:25:27.
