data_PCOD9467558
_publ_section_title
;
Structure prediction by ZEFSAII (Michael W. Deem and Ramdas Pophale) SiO2 
 PCOD9467558
Probable space group: P N M A
;
_chemical_formula_sum "Si O2"
_cell_formula_units_Z 48
_cell_length_a 14.251449
_cell_length_b 25.553125
_cell_length_c 4.961837
_cell_angle_alpha 90.000000
_cell_angle_beta 90.000000
_cell_angle_gamma 90.000000
_cell_volume 1806.947505
_symmetry_space_group_name_H-M "P N M A"
_symmetry_group_IT_number 62
_symmetry_cell_setting 'orthorhombic'
loop_
_space_group_symop_operation_xyz
x,y,z
1/2-x,-y,1/2+z
1/2+x,1/2-y,1/2-z
-x,1/2+y,-z
-x,-y,-z
1/2+x,y,1/2-z
1/2-x,1/2+y,1/2+z
x,1/2-y,z
loop_
_atom_site_type_symbol
_atom_site_label
_atom_site_fract_x
_atom_site_fract_y
_atom_site_fract_z
Si Si1 0.019303 0.152498 0.118094
Si Si2 0.355792 0.520987 0.348495
Si Si3 0.231872 0.310671 0.161385
Si Si4 0.211230 0.582564 0.608861
Si Si5 0.422047 0.307704 0.877392
Si Si6 0.460803 0.445866 0.739098
O O1 0.951096 0.186672 0.929864
O O2 0.994441 0.095509 0.993284
O O3 0.988450 0.158112 0.426888
O O4 0.124526 0.175229 0.091747
O O5 0.297651 0.572538 0.409958
O O6 0.291240 0.472525 0.263509
O O7 0.409723 0.494317 0.596795
O O8 0.439246 0.535851 0.144133
O O9 0.235010 0.250000 0.267918
O O10 0.269904 0.366143 0.290221
O O11 0.310062 0.312048 0.922489
O O12 0.116997 0.579714 0.431085
O O13 0.446730 0.250000 0.972521
#
# Coordination Sequence:
#
# PCOD9467558 Si02
#       6
#     8   8   8   8   8   8
#     4  12  25  48  74 108 150 194 249 309 367 444
#     4  11  24  42  68 104 135 182 237 297 369 436
#     4  11  25  46  72 105 148 199 249 302 371 445
#     4  12  22  45  68 103 139 182 237 302 364 438
#     4  11  25  46  73 103 145 197 251 304 365 435
#     4  11  24  43  68 102 138 185 239 295 373 435
#
# _framework density 26.564138
#
# number of rings (size 3 to 8) (size 9 to 14) (size 15 to 20)
#    0.000    0.667    5.000    3.000    0.000    1.333 
#    6.000    1.667    0.000    0.000    0.000    0.000 
#    0.000    0.000    0.000    0.000    0.000    0.000 
#
# Total GULP energy -267932.106488 kJ/mol
# GULP energy per Si atom -5581.918885 kJ/mol
# Density = 2.650368 g / cm^3
# Si number density = 26.564138 Si / 1000 Ang^3
#
#
#
# Elastic Constant Matrix: (Units=GPa)
#
#
# Indices 1 2 3 4 5 6 
#
# 1 155.9347 49.4914 8.1508 0.0000 0.0000 0.0000
# 2 49.4914 181.7405 15.2830 0.0000 0.0000 0.0000
# 3 8.1508 15.2830 40.6773 0.0000 0.0000 0.0000
# 4 0.0000 0.0000 0.0000 32.0430 0.0000 0.0000
# 5 0.0000 0.0000 0.0000 0.0000 18.5218 0.0000
# 6 0.0000 0.0000 0.0000 0.0000 0.0000 44.8650
#
#
#
# Elastic Compliance Matrix: (Units=1/GPa)
#
#
# Indices 1 2 3 4 5 6 
#
# 1 0.007040 -0.001857 -0.000713 0.000000 0.000000 0.000000
# 2 -0.001857 0.006172 -0.001947 0.000000 0.000000 0.000000
# 3 -0.000713 -0.001947 0.025458 0.000000 0.000000 0.000000
# 4 0.000000 0.000000 0.000000 0.031208 0.000000 0.000000
# 5 0.000000 0.000000 0.000000 0.000000 0.053991 0.000000
# 6 0.000000 0.000000 0.000000 0.000000 0.000000 0.022289
#
#
# Mechanical properties :
#
#
# Convention : Reuss Voigt Hill
#
# Bulk Modulus (GPa) = 33.74261 58.24475 45.99368
# Shear Modulus (GPa) = 30.29035 39.44776 34.86905
#
# Velocity S-wave (km/s) = 3.38045 3.85775 3.62696
# Velocity P-wave (km/s) = 5.28834 6.46658 5.90691
#
# Compressibility (1/GPa) = 0.02963612
#
# Stress axis : x y z
#
# Youngs Moduli (GPa) = 142.05330 162.02807 39.28039
#
# Poissons Ratio (x) = 0.30090 0.02800
# Poissons Ratio (y) = 0.26380 0.07647
# Poissons Ratio (z) = 0.10126 0.31542
#
# Static dielectric constant tensor:
#      x y z
#    x 2.118160 0.000000 0.000000 
#    y 0.000000 2.266840 0.000000 
#    z 0.000000 0.000000 2.067210 
# 
# From -- ./inp_files/1168.got.cif
#   From: 2010.05.17/outbox.cif.g08.bks.cpg/sg62_1_cif.got.tgz:1168.got - 2010.06.03 15:25:27.
