data_PCOD9467417
_publ_section_title
;
Structure prediction by ZEFSAII (Michael W. Deem and Ramdas Pophale) SiO2 
 PCOD9467417
Probable space group: P N M A
;
_chemical_formula_sum "Si O2"
_cell_formula_units_Z 48
_cell_length_a 31.861053
_cell_length_b 8.604048
_cell_length_c 9.513857
_cell_angle_alpha 90.000000
_cell_angle_beta 90.000000
_cell_angle_gamma 90.000000
_cell_volume 2608.071954
_symmetry_space_group_name_H-M "P N M A"
_symmetry_group_IT_number 62
_symmetry_cell_setting 'orthorhombic'
loop_
_space_group_symop_operation_xyz
x,y,z
1/2-x,-y,1/2+z
1/2+x,1/2-y,1/2-z
-x,1/2+y,-z
-x,-y,-z
1/2+x,y,1/2-z
1/2-x,1/2+y,1/2+z
x,1/2-y,z
loop_
_atom_site_type_symbol
_atom_site_label
_atom_site_fract_x
_atom_site_fract_y
_atom_site_fract_z
Si Si1 0.461284 0.937321 0.908896
Si Si2 0.710731 0.063207 0.581404
Si Si3 0.616037 0.061680 0.581479
Si Si4 0.538303 0.935136 0.407342
Si Si5 0.118402 0.061112 0.590322
Si Si6 0.788012 0.937190 0.406377
O O1 0.462241 0.750000 0.907994
O O2 0.463359 0.997780 0.750042
O O3 0.418428 0.989491 0.986850
O O4 0.500000 0.000000 0.000000
O O5 0.711637 0.250000 0.576030
O O6 0.663488 0.016704 0.537985
O O7 0.716037 0.016334 0.743647
O O8 0.748918 0.999202 0.492248
O O9 0.612651 0.250000 0.573661
O O10 0.610605 0.017600 0.746367
O O11 0.581002 0.986809 0.484376
O O12 0.535371 0.750000 0.401142
O O13 0.500000 0.000000 0.500000
O O14 0.118664 0.250000 0.589524
O O15 0.165328 0.010314 0.547147
O O16 0.787647 0.750000 0.412885
#
# Coordination Sequence:
#
# PCOD9467417 Si02
#       6
#     8   8   8   8   8   8
#     4  11  22  38  60  86 114 146 186 229 277 331
#     4   9  19  34  53  79 110 144 181 225 276 325
#     4   9  18  37  60  80 107 143 183 227 276 328
#     4  12  25  40  58  83 113 145 183 227 278 333
#     4   8  17  35  58  79 104 142 183 225 274 326
#     4   9  18  34  54  77 107 144 185 225 268 323
#
# _framework density 18.404399000000002
#
# number of rings (size 3 to 8) (size 9 to 14) (size 15 to 20)
#    0.000    2.333    0.000    5.000    0.000    4.000 
#    0.000   10.000    0.000    0.000    0.000    0.000 
#    0.000    0.000    0.000    0.000    0.000    0.000 
#
# Total GULP energy -267893.974059 kJ/mol
# GULP energy per Si atom -5581.124460 kJ/mol
# Density = 1.836251 g / cm^3
# Si number density = 18.404399 Si / 1000 Ang^3
#
#
#
# Elastic Constant Matrix: (Units=GPa)
#
#
# Indices 1 2 3 4 5 6 
#
# 1 214.3511 52.1312 127.8350 0.0000 0.0000 0.0000
# 2 52.1312 51.5073 42.4994 0.0000 0.0000 0.0000
# 3 127.8350 42.4994 132.6411 0.0000 0.0000 0.0000
# 4 0.0000 0.0000 0.0000 31.2273 0.0000 0.0000
# 5 0.0000 0.0000 0.0000 0.0000 42.3099 0.0000
# 6 0.0000 0.0000 0.0000 0.0000 0.0000 33.8730
#
#
#
# Elastic Compliance Matrix: (Units=1/GPa)
#
#
# Indices 1 2 3 4 5 6 
#
# 1 0.011383 -0.003356 -0.009895 0.000000 0.000000 0.000000
# 2 -0.003356 0.027382 -0.005539 0.000000 0.000000 0.000000
# 3 -0.009895 -0.005539 0.018850 0.000000 0.000000 0.000000
# 4 0.000000 0.000000 0.000000 0.032023 0.000000 0.000000
# 5 0.000000 0.000000 0.000000 0.000000 0.023635 0.000000
# 6 0.000000 0.000000 0.000000 0.000000 0.000000 0.029522
#
#
# Mechanical properties :
#
#
# Convention : Reuss Voigt Hill
#
# Bulk Modulus (GPa) = 49.91303 93.71451 71.81377
# Shear Modulus (GPa) = 26.73049 33.21762 29.97405
#
# Velocity S-wave (km/s) = 3.81517 4.25299 4.04001
# Velocity P-wave (km/s) = 6.82542 8.66876 7.80172
#
# Compressibility (1/GPa) = 0.02003485
#
# Stress axis : x y z
#
# Youngs Moduli (GPa) = 87.85405 36.52085 53.05019
#
# Poissons Ratio (x) = 0.12257 0.52492
# Poissons Ratio (y) = 0.29485 0.29384
# Poissons Ratio (z) = 0.86930 0.20228
#
# Static dielectric constant tensor:
#      x y z
#    x 1.635240 0.000000 0.000000 
#    y 0.000000 1.628930 0.000000 
#    z 0.000000 0.000000 1.605310 
# 
# From -- ./inp_files/10135.got.cif
#   From: 2010.05.17/outbox.cif.g08.bks.cpg/sg62_6_cif.got.tgz:10135.got - 2010.06.03 15:25:27.
