data_PCOD9467651
_publ_section_title
;
Structure prediction by ZEFSAII (Michael W. Deem and Ramdas Pophale) SiO2 
 PCOD9467651
Probable space group: P N M A
;
_chemical_formula_sum "Si O2"
_cell_formula_units_Z 40
_cell_length_a 9.382575
_cell_length_b 10.854398
_cell_length_c 15.423348
_cell_angle_alpha 90.000000
_cell_angle_beta 90.000000
_cell_angle_gamma 90.000000
_cell_volume 1570.747743
_symmetry_space_group_name_H-M "P N M A"
_symmetry_group_IT_number 62
_symmetry_cell_setting 'orthorhombic'
loop_
_space_group_symop_operation_xyz
x,y,z
1/2-x,-y,1/2+z
1/2+x,1/2-y,1/2-z
-x,1/2+y,-z
-x,-y,-z
1/2+x,y,1/2-z
1/2-x,1/2+y,1/2+z
x,1/2-y,z
loop_
_atom_site_type_symbol
_atom_site_label
_atom_site_fract_x
_atom_site_fract_y
_atom_site_fract_z
Si Si1 0.750774 0.250000 0.636364
Si Si2 0.921463 0.518661 0.755231
Si Si3 0.166659 0.474545 0.988503
Si Si4 0.324414 0.117352 0.334423
Si Si5 0.937648 0.401817 0.428130
Si Si6 0.004764 0.250000 0.745525
O O1 0.698595 0.134258 0.580588
O O2 0.921334 0.250000 0.652863
O O3 0.671003 0.250000 0.729460
O O4 0.007195 0.602477 0.822241
O O5 0.993081 0.558440 0.662945
O O6 0.757023 0.529421 0.731706
O O7 0.952243 0.379432 0.783007
O O8 0.216288 0.593647 0.933569
O O9 0.268891 0.437624 0.067096
O O10 0.000000 0.500000 0.000000
O O11 0.275339 0.250000 0.306377
O O12 0.950877 0.250000 0.440096
O O13 0.000000 0.500000 0.500000
#
# Coordination Sequence:
#
# PCOD9467651 Si02
#       6
#     4   8   8   8   8   4
#     4  12  24  50  72 108 142 182 249 303 369 433
#     4  12  26  45  74 105 141 191 243 302 369 437
#     4  12  28  47  71 104 148 194 242 303 368 446
#     4  12  26  47  69 104 142 184 241 295 360 438
#     4  12  26  47  75 107 151 196 243 307 373 446
#     4  12  22  46  80 104 144 184 249 321 361 437
#
# _framework density 25.465578000000001
#
# number of rings (size 3 to 8) (size 9 to 14) (size 15 to 20)
#    0.000    0.000    7.000    1.800    5.600    1.600 
#    0.000    0.000    0.000    0.000    0.000    0.000 
#    0.000    0.000    0.000    0.000    0.000    0.000 
#
# Total GULP energy -223177.099871 kJ/mol
# GULP energy per Si atom -5579.427497 kJ/mol
# Density = 2.540762 g / cm^3
# Si number density = 25.465578 Si / 1000 Ang^3
#
#
#
# Elastic Constant Matrix: (Units=GPa)
#
#
# Indices 1 2 3 4 5 6 
#
# 1 121.6336 1.6501 22.6849 0.0000 0.0000 0.0000
# 2 1.6501 130.1830 -7.9953 0.0000 0.0000 0.0000
# 3 22.6849 -7.9953 81.3839 0.0000 0.0000 0.0000
# 4 0.0000 0.0000 0.0000 21.4757 0.0000 0.0000
# 5 0.0000 0.0000 0.0000 0.0000 58.4784 0.0000
# 6 0.0000 0.0000 0.0000 0.0000 0.0000 36.6264
#
#
#
# Elastic Compliance Matrix: (Units=1/GPa)
#
#
# Indices 1 2 3 4 5 6 
#
# 1 0.008681 -0.000260 -0.002445 0.000000 0.000000 0.000000
# 2 -0.000260 0.007736 0.000833 0.000000 0.000000 0.000000
# 3 -0.002445 0.000833 0.013051 0.000000 0.000000 0.000000
# 4 0.000000 0.000000 0.000000 0.046564 0.000000 0.000000
# 5 0.000000 0.000000 0.000000 0.000000 0.017100 0.000000
# 6 0.000000 0.000000 0.000000 0.000000 0.000000 0.027303
#
#
# Mechanical properties :
#
#
# Convention : Reuss Voigt Hill
#
# Bulk Modulus (GPa) = 38.87759 40.65334 39.76547
# Shear Modulus (GPa) = 37.66335 44.44013 41.05174
#
# Velocity S-wave (km/s) = 3.84994 4.18198 4.01939
# Velocity P-wave (km/s) = 5.92136 6.27035 6.09835
#
# Compressibility (1/GPa) = 0.02572176
#
# Stress axis : x y z
#
# Youngs Moduli (GPa) = 115.19411 129.26709 76.62347
#
# Poissons Ratio (x) = 0.03364 0.18737
# Poissons Ratio (y) = 0.02998 -0.06379
# Poissons Ratio (z) = 0.28168 -0.10762
#
# Static dielectric constant tensor:
#      x y z
#    x 2.107760 0.000000 0.000000 
#    y 0.000000 2.055570 0.000000 
#    z 0.000000 0.000000 2.050780 
# 
# From -- ./inp_files/21945.got.cif
#   From: 2010.05.17/outbox.cif.g08.bks.cpg/sg62_11_cif.got.tgz:21945.got - 2010.06.03 15:25:27.
