data_PCOD9467347
_publ_section_title
;
Structure prediction by ZEFSAII (Michael W. Deem and Ramdas Pophale) SiO2 
 PCOD9467347
Probable space group: P N M A
;
_chemical_formula_sum "Si O2"
_cell_formula_units_Z 56
_cell_length_a 22.531244
_cell_length_b 8.554865
_cell_length_c 14.949620
_cell_angle_alpha 90.000000
_cell_angle_beta 90.000000
_cell_angle_gamma 90.000000
_cell_volume 2881.565427
_symmetry_space_group_name_H-M "P N M A"
_symmetry_group_IT_number 62
_symmetry_cell_setting 'orthorhombic'
loop_
_space_group_symop_operation_xyz
x,y,z
1/2-x,-y,1/2+z
1/2+x,1/2-y,1/2-z
-x,1/2+y,-z
-x,-y,-z
1/2+x,y,1/2-z
1/2-x,1/2+y,1/2+z
x,1/2-y,z
loop_
_atom_site_type_symbol
_atom_site_label
_atom_site_fract_x
_atom_site_fract_y
_atom_site_fract_z
Si Si1 0.782708 0.060444 0.400744
Si Si2 0.500979 0.565244 0.100271
Si Si3 0.609550 0.064461 0.211208
Si Si4 0.646734 0.440829 0.400361
Si Si5 0.892412 0.436893 0.283918
Si Si6 0.282628 0.062292 0.894422
Si Si7 0.356790 0.937831 0.399480
O O1 0.781242 0.250000 0.395661
O O2 0.715132 0.006862 0.386391
O O3 0.831520 0.003837 0.330818
O O4 0.799922 0.022838 0.503032
O O5 0.495123 0.750000 0.096144
O O6 0.561820 0.519923 0.149637
O O7 0.447303 0.496238 0.158349
O O8 0.500000 0.500000 0.000000
O O9 0.598888 0.250000 0.207664
O O10 0.608602 0.011651 0.314767
O O11 0.674736 0.026849 0.172861
O O12 0.647814 0.250000 0.401012
O O13 0.627331 0.490161 0.499687
O O14 0.891879 0.250000 0.286637
O O15 0.893417 0.491402 0.181618
O O16 0.289102 0.250000 0.883077
O O17 0.213040 0.023548 0.885171
O O18 0.361508 0.750000 0.396697
#
# Coordination Sequence:
#
# PCOD9467347 Si02
#       7
#     8   8   8   8   8   8   8
#     4   8  15  29  51  79 111 145 178 218 271 326
#     4  12  26  44  62  82 110 143 182 227 277 334
#     4  11  21  35  57  83 110 145 190 235 282 333
#     4   8  16  32  54  80 111 146 183 224 272 326
#     4  11  21  35  57  84 113 147 188 232 281 334
#     4   9  17  31  53  81 114 151 187 226 277 334
#     4   9  18  34  55  81 114 151 189 230 278 329
#
# _framework density 19.433881
#
# number of rings (size 3 to 8) (size 9 to 14) (size 15 to 20)
#    0.000    2.286    0.000    5.571    0.000    2.857 
#    0.000    2.857    0.000    3.429    0.000    0.000 
#    0.000    0.000    0.000    0.000    0.000    0.000 
#
# Total GULP energy -312643.954473 kJ/mol
# GULP energy per Si atom -5582.927758 kJ/mol
# Density = 1.938965 g / cm^3
# Si number density = 19.433881 Si / 1000 Ang^3
#
#
#
# Elastic Constant Matrix: (Units=GPa)
#
#
# Indices 1 2 3 4 5 6 
#
# 1 37.8302 18.3624 59.2953 0.0000 0.0000 0.0000
# 2 18.3624 27.3948 33.6268 0.0000 0.0000 0.0000
# 3 59.2953 33.6268 172.3027 0.0000 0.0000 0.0000
# 4 0.0000 0.0000 0.0000 24.4041 0.0000 0.0000
# 5 0.0000 0.0000 0.0000 0.0000 32.8547 0.0000
# 6 0.0000 0.0000 0.0000 0.0000 0.0000 25.7858
#
#
#
# Elastic Compliance Matrix: (Units=1/GPa)
#
#
# Indices 1 2 3 4 5 6 
#
# 1 0.065740 -0.021428 -0.018442 0.000000 0.000000 0.000000
# 2 -0.021428 0.054987 -0.003357 0.000000 0.000000 0.000000
# 3 -0.018442 -0.003357 0.012805 0.000000 0.000000 0.000000
# 4 0.000000 0.000000 0.000000 0.040977 0.000000 0.000000
# 5 0.000000 0.000000 0.000000 0.000000 0.030437 0.000000
# 6 0.000000 0.000000 0.000000 0.000000 0.000000 0.038781
#
#
# Mechanical properties :
#
#
# Convention : Reuss Voigt Hill
#
# Bulk Modulus (GPa) = 21.24088 51.12186 36.18137
# Shear Modulus (GPa) = 14.45614 25.02512 19.74063
#
# Velocity S-wave (km/s) = 2.73034 3.59236 3.19059
# Velocity P-wave (km/s) = 4.57091 6.60071 5.67726
#
# Compressibility (1/GPa) = 0.04707904
#
# Stress axis : x y z
#
# Youngs Moduli (GPa) = 15.21142 18.18608 78.09264
#
# Poissons Ratio (x) = 0.38969 1.44015
# Poissons Ratio (y) = 0.32595 0.26218
# Poissons Ratio (z) = 0.28052 0.06106
#
# Static dielectric constant tensor:
#      x y z
#    x 1.661200 0.000000 0.000000 
#    y 0.000000 1.662150 0.000000 
#    z 0.000000 0.000000 1.684630 
# 
# From -- ./inp_files/20406.got.cif
#   From: 2010.05.17/outbox.cif.g08.bks.cpg/sg62_11_cif.got.tgz:20406.got - 2010.06.03 15:25:27.
