data_PCOD9467076
_publ_section_title
;
Structure prediction by ZEFSAII (Michael W. Deem and Ramdas Pophale) SiO2 
 PCOD9467076
Probable space group: P N M A
;
_chemical_formula_sum "Si O2"
_cell_formula_units_Z 64
_cell_length_a 18.977025
_cell_length_b 16.717071
_cell_length_c 9.432508
_cell_angle_alpha 90.000000
_cell_angle_beta 90.000000
_cell_angle_gamma 90.000000
_cell_volume 2992.371425
_symmetry_space_group_name_H-M "P N M A"
_symmetry_group_IT_number 62
_symmetry_cell_setting 'orthorhombic'
loop_
_space_group_symop_operation_xyz
x,y,z
1/2-x,-y,1/2+z
1/2+x,1/2-y,1/2-z
-x,1/2+y,-z
-x,-y,-z
1/2+x,y,1/2-z
1/2-x,1/2+y,1/2+z
x,1/2-y,z
loop_
_atom_site_type_symbol
_atom_site_label
_atom_site_fract_x
_atom_site_fract_y
_atom_site_fract_z
Si Si1 0.021143 0.063257 0.309994
Si Si2 0.094367 0.421749 0.025862
Si Si3 0.881840 0.156996 0.305019
Si Si4 0.404216 0.661496 0.036139
Si Si5 0.256632 0.653859 0.515181
Si Si6 0.256875 0.654366 0.185980
Si Si7 0.623537 0.891078 0.480156
Si Si8 0.503007 0.880135 0.272129
O O1 0.042754 0.096184 0.155880
O O2 0.078300 0.095122 0.420336
O O3 0.945734 0.099778 0.349728
O O4 0.018728 0.968461 0.290181
O O5 0.171164 0.388175 0.059976
O O6 0.098413 0.517192 0.003900
O O7 0.060158 0.385223 0.886034
O O8 0.897530 0.250000 0.338461
O O9 0.810105 0.134307 0.386652
O O10 0.874681 0.148056 0.134914
O O11 0.392756 0.750000 0.972093
O O12 0.335495 0.640139 0.128245
O O13 0.471326 0.666040 0.140141
O O14 0.266159 0.750000 0.520627
O O15 0.246512 0.631297 0.349936
O O16 0.244639 0.750000 0.176001
O O17 0.200554 0.611259 0.087549
O O18 0.570420 0.853094 0.363514
#
# Coordination Sequence:
#
# PCOD9467076 Si02
#       8
#     8   8   8   8   8   8   8   8
#     4  11  23  43  65  97 133 164 213 279 323 387
#     4  11  22  44  68  91 126 170 217 263 321 390
#     4  11  23  40  64  96 133 170 211 270 331 385
#     4  11  25  42  65  96 129 170 219 269 326 389
#     4  10  24  42  62  91 129 170 214 265 320 387
#     4  10  23  44  62  88 130 168 212 265 314 385
#     4  11  23  41  64  94 128 165 214 268 324 387
#     4  11  22  45  68  92 128 173 216 268 325 388
#
# _framework density 21.387719000000001
#
# number of rings (size 3 to 8) (size 9 to 14) (size 15 to 20)
#    0.000    1.250    3.750    1.875    3.500    4.000 
#    2.250    0.000    0.000    0.000    0.000    0.000 
#    0.000    0.000    0.000    0.000    0.000    0.000 
#
# Total GULP energy -357831.872718 kJ/mol
# GULP energy per Si atom -5591.123011 kJ/mol
# Density = 2.133904 g / cm^3
# Si number density = 21.387719 Si / 1000 Ang^3
#
#
#
# Elastic Constant Matrix: (Units=GPa)
#
#
# Indices 1 2 3 4 5 6 
#
# 1 95.5597 26.2156 44.9741 0.0000 0.0000 0.0000
# 2 26.2156 33.9254 30.4872 0.0000 0.0000 0.0000
# 3 44.9741 30.4872 76.7292 0.0000 0.0000 0.0000
# 4 0.0000 0.0000 0.0000 20.2865 0.0000 0.0000
# 5 0.0000 0.0000 0.0000 0.0000 47.3851 0.0000
# 6 0.0000 0.0000 0.0000 0.0000 0.0000 -4.1741
#
#
#
# Elastic Compliance Matrix: (Units=1/GPa)
#
#
# Indices 1 2 3 4 5 6 
#
# 1 0.015150 -0.005797 -0.006577 0.000000 0.000000 0.000000
# 2 -0.005797 0.048065 -0.015700 0.000000 0.000000 0.000000
# 3 -0.006577 -0.015700 0.023126 0.000000 0.000000 0.000000
# 4 0.000000 0.000000 0.000000 0.049294 0.000000 0.000000
# 5 0.000000 0.000000 0.000000 0.000000 0.021104 0.000000
# 6 0.000000 0.000000 0.000000 0.000000 0.000000 -0.239573
#
#
# Mechanical properties :
#
#
# Convention : Reuss Voigt Hill
#
# Bulk Modulus (GPa) = 33.11975 45.50755 39.31365
# Shear Modulus (GPa) = -300.80251 19.66866 -140.56693
#
# Velocity S-wave (km/s) = -11.87215 3.03582 -8.11578
# Velocity P-wave (km/s) = 13.13056 5.79758 8.33066
#
# Compressibility (1/GPa) = 0.03019347
#
# Stress axis : x y z
#
# Youngs Moduli (GPa) = 66.00515 20.80524 43.24130
#
# Poissons Ratio (x) = 0.12061 0.28439
# Poissons Ratio (y) = 0.38263 0.67889
# Poissons Ratio (z) = 0.43411 0.32664
#
# Static dielectric constant tensor:
#      x y z
#    x 1.759960 0.000000 0.000000 
#    y 0.000000 1.763060 0.000000 
#    z 0.000000 0.000000 1.767330 
# 
# From -- ./inp_files/8920.got.cif
#   From: 2010.05.17/outbox.cif.g08.bks.cpg/sg62_5_cif.got.tgz:8920.got - 2010.06.03 15:25:27.
