data_PCOD9467730
_publ_section_title
;
Structure prediction by ZEFSAII (Michael W. Deem and Ramdas Pophale) SiO2 
 PCOD9467730
Probable space group: P N M A
;
_chemical_formula_sum "Si O2"
_cell_formula_units_Z 56
_cell_length_a 30.511716
_cell_length_b 7.828047
_cell_length_c 14.237256
_cell_angle_alpha 90.000000
_cell_angle_beta 90.000000
_cell_angle_gamma 90.000000
_cell_volume 3400.527975
_symmetry_space_group_name_H-M "P N M A"
_symmetry_group_IT_number 62
_symmetry_cell_setting 'orthorhombic'
loop_
_space_group_symop_operation_xyz
x,y,z
1/2-x,-y,1/2+z
1/2+x,1/2-y,1/2-z
-x,1/2+y,-z
-x,-y,-z
1/2+x,y,1/2-z
1/2-x,1/2+y,1/2+z
x,1/2-y,z
loop_
_atom_site_type_symbol
_atom_site_label
_atom_site_fract_x
_atom_site_fract_y
_atom_site_fract_z
Si Si1 0.182446 0.044071 0.711842
Si Si2 0.681685 0.455080 0.211177
Si Si3 0.594029 0.459794 0.110883
Si Si4 0.269118 0.044506 0.394248
Si Si5 0.902869 0.546775 0.394067
Si Si6 0.501462 0.953069 0.889665
Si Si7 0.770183 0.455957 0.893991
O O1 0.182184 0.250000 0.706609
O O2 0.136764 0.979278 0.669389
O O3 0.223722 0.983129 0.649113
O O4 0.193563 0.997896 0.818757
O O5 0.681284 0.250000 0.201658
O O6 0.635349 0.517753 0.171737
O O7 0.722940 0.519533 0.149249
O O8 0.692857 0.495956 0.318748
O O9 0.593852 0.250000 0.110168
O O10 0.545884 0.514521 0.147031
O O11 0.599235 0.516770 0.002088
O O12 0.265986 0.250000 0.398596
O O13 0.276429 0.981288 0.499917
O O14 0.896932 0.750000 0.400994
O O15 0.951697 0.517881 0.354508
O O16 0.502382 0.750000 0.880755
O O17 0.500000 0.000000 0.000000
O O18 0.768323 0.250000 0.896725
#
# Coordination Sequence:
#
# PCOD9467730 Si02
#       7
#     8   8   8   8   8   8   8
#     4   9  17  28  43  61  82 109 140 168 199 240
#     4   9  16  27  43  61  79 106 141 168 192 234
#     4   8  14  25  41  59  81 108 136 162 195 239
#     4   9  17  28  42  59  82 109 136 166 200 236
#     4   9  16  27  42  60  83 111 138 166 201 243
#     4   9  16  26  40  59  83 110 137 167 202 243
#     4   9  17  29  42  59  84 111 136 167 205 241
#
# _framework density 16.468032000000001
#
# number of rings (size 3 to 8) (size 9 to 14) (size 15 to 20)
#    0.000    3.143    0.000    2.143    0.000    4.571 
#    0.000    3.571    0.000    5.143    0.000    1.000 
#    0.000    0.000    0.000    0.000    0.000    0.000 
#
# Total GULP energy -311788.197906 kJ/mol
# GULP energy per Si atom -5567.646391 kJ/mol
# Density = 1.643055 g / cm^3
# Si number density = 16.468032 Si / 1000 Ang^3
#
#
#
# Elastic Constant Matrix: (Units=GPa)
#
#
# Indices 1 2 3 4 5 6 
#
# 1 154.0097 2.4758 79.2707 0.0000 0.0000 0.0000
# 2 2.4758 15.1276 4.0396 0.0000 0.0000 0.0000
# 3 79.2707 4.0396 117.8930 0.0000 0.0000 0.0000
# 4 0.0000 0.0000 0.0000 17.8305 0.0000 0.0000
# 5 0.0000 0.0000 0.0000 0.0000 26.4059 0.0000
# 6 0.0000 0.0000 0.0000 0.0000 0.0000 18.2091
#
#
#
# Elastic Compliance Matrix: (Units=1/GPa)
#
#
# Indices 1 2 3 4 5 6 
#
# 1 0.009930 0.000159 -0.006682 0.000000 0.000000 0.000000
# 2 0.000159 0.066717 -0.002393 0.000000 0.000000 0.000000
# 3 -0.006682 -0.002393 0.013057 0.000000 0.000000 0.000000
# 4 0.000000 0.000000 0.000000 0.056084 0.000000 0.000000
# 5 0.000000 0.000000 0.000000 0.000000 0.037870 0.000000
# 6 0.000000 0.000000 0.000000 0.000000 0.000000 0.054918
#
#
# Mechanical properties :
#
#
# Convention : Reuss Voigt Hill
#
# Bulk Modulus (GPa) = 13.91359 50.95581 32.43470
# Shear Modulus (GPa) = 17.83382 25.90537 21.86960
#
# Velocity S-wave (km/s) = 3.29437 3.97050 3.64813
# Velocity P-wave (km/s) = 4.78933 7.21313 6.12237
#
# Compressibility (1/GPa) = 0.07187217
#
# Stress axis : x y z
#
# Youngs Moduli (GPa) = 100.70458 14.98866 76.58455
#
# Poissons Ratio (x) = -0.00239 0.51177
# Poissons Ratio (y) = -0.01604 0.18328
# Poissons Ratio (z) = 0.67295 0.03587
#
# Static dielectric constant tensor:
#      x y z
#    x 1.583280 0.000000 0.000000 
#    y 0.000000 1.606230 0.000000 
#    z 0.000000 0.000000 1.533990 
# 
# From -- ./inp_files/21167.got.cif
#   From: 2010.05.17/outbox.cif.g08.bks.cpg/sg62_11_cif.got.tgz:21167.got - 2010.06.03 15:25:27.
