data_PCOD9467627
_publ_section_title
;
Structure prediction by ZEFSAII (Michael W. Deem and Ramdas Pophale) SiO2 
 PCOD9467627
Probable space group: P N M A
;
_chemical_formula_sum "Si O2"
_cell_formula_units_Z 20
_cell_length_a 8.896866
_cell_length_b 10.015036
_cell_length_c 10.128216
_cell_angle_alpha 90.000000
_cell_angle_beta 90.000000
_cell_angle_gamma 90.000000
_cell_volume 902.448690
_symmetry_space_group_name_H-M "P N M A"
_symmetry_group_IT_number 62
_symmetry_cell_setting 'orthorhombic'
loop_
_space_group_symop_operation_xyz
x,y,z
1/2-x,-y,1/2+z
1/2+x,1/2-y,1/2-z
-x,1/2+y,-z
-x,-y,-z
1/2+x,y,1/2-z
1/2-x,1/2+y,1/2+z
x,1/2-y,z
loop_
_atom_site_type_symbol
_atom_site_label
_atom_site_fract_x
_atom_site_fract_y
_atom_site_fract_z
Si Si1 0.640977 0.750000 0.498658
Si Si2 0.801042 0.750000 0.063953
Si Si3 0.219184 0.250000 0.244386
Si Si4 0.654435 0.024268 0.074934
O O1 0.481243 0.750000 0.430983
O O2 0.632262 0.750000 0.660425
O O3 0.738456 0.615541 0.479813
O O4 0.756287 0.750000 0.908852
O O5 0.731800 0.886614 0.116462
O O6 0.136155 0.381572 0.297984
O O7 0.500000 0.000000 0.000000
#
# Coordination Sequence:
#
# PCOD9467627 Si02
#       4
#     4   4   4   8
#     4   8  21  35  51  87 109 136 195 216 274 322
#     4  12  18  37  65  74 118 149 177 238 264 323
#     4   8  23  34  56  87 109 139 196 210 286 321
#     4   9  20  34  55  83 112 144 184 225 275 328
#
# _framework density 22.161925
#
# number of rings (size 3 to 8) (size 9 to 14) (size 15 to 20)
#    2.400    0.000    0.000    3.600    5.600    0.000 
#    0.000    4.000    0.000    0.000    0.000    0.000 
#    0.000    0.000    0.000    0.000    0.000    0.000 
#
# Total GULP energy -111437.093480 kJ/mol
# GULP energy per Si atom -5571.854674 kJ/mol
# Density = 2.211148 g / cm^3
# Si number density = 22.161925 Si / 1000 Ang^3
#
#
#
# Elastic Constant Matrix: (Units=GPa)
#
#
# Indices 1 2 3 4 5 6 
#
# 1 134.9601 74.4983 -10.7542 0.0000 0.0000 0.0000
# 2 74.4983 204.5359 12.1511 0.0000 0.0000 0.0000
# 3 -10.7542 12.1511 52.7096 0.0000 0.0000 0.0000
# 4 0.0000 0.0000 0.0000 11.3021 0.0000 0.0000
# 5 0.0000 0.0000 0.0000 0.0000 17.2927 0.0000
# 6 0.0000 0.0000 0.0000 0.0000 0.0000 43.6848
#
#
#
# Elastic Compliance Matrix: (Units=1/GPa)
#
#
# Indices 1 2 3 4 5 6 
#
# 1 0.009672 -0.003691 0.002824 0.000000 0.000000 0.000000
# 2 -0.003691 0.006365 -0.002220 0.000000 0.000000 0.000000
# 3 0.002824 -0.002220 0.020060 0.000000 0.000000 0.000000
# 4 0.000000 0.000000 0.000000 0.088479 0.000000 0.000000
# 5 0.000000 0.000000 0.000000 0.000000 0.057828 0.000000
# 6 0.000000 0.000000 0.000000 0.000000 0.000000 0.022891
#
#
# Mechanical properties :
#
#
# Convention : Reuss Voigt Hill
#
# Bulk Modulus (GPa) = 33.41867 60.44401 46.93134
# Shear Modulus (GPa) = 22.57915 35.54327 29.06121
#
# Velocity S-wave (km/s) = 3.19537 4.00909 3.62513
# Velocity P-wave (km/s) = 5.35965 6.98308 6.22452
#
# Compressibility (1/GPa) = 0.02992340
#
# Stress axis : x y z
#
# Youngs Moduli (GPa) = 103.39309 157.10335 49.85059
#
# Poissons Ratio (x) = 0.57980 -0.14078
# Poissons Ratio (y) = 0.38158 0.11069
# Poissons Ratio (z) = -0.29199 0.34882
#
# Static dielectric constant tensor:
#      x y z
#    x 1.831900 0.000000 0.000000 
#    y 0.000000 1.787250 0.000000 
#    z 0.000000 0.000000 1.752980 
# 
# From -- ./inp_files/3919.got.cif
#   From: 2010.05.17/outbox.cif.g08.bks.cpg/sg62_2_cif.got.tgz:3919.got - 2010.06.03 15:25:27.
