data_PCOD9467631
_publ_section_title
;
Structure prediction by ZEFSAII (Michael W. Deem and Ramdas Pophale) SiO2 
 PCOD9467631
Probable space group: P N M A
;
_chemical_formula_sum "Si O2"
_cell_formula_units_Z 32
_cell_length_a 9.764968
_cell_length_b 16.083296
_cell_length_c 9.564266
_cell_angle_alpha 90.000000
_cell_angle_beta 90.000000
_cell_angle_gamma 90.000000
_cell_volume 1502.095432
_symmetry_space_group_name_H-M "P N M A"
_symmetry_group_IT_number 62
_symmetry_cell_setting 'orthorhombic'
loop_
_space_group_symop_operation_xyz
x,y,z
1/2-x,-y,1/2+z
1/2+x,1/2-y,1/2-z
-x,1/2+y,-z
-x,-y,-z
1/2+x,y,1/2-z
1/2-x,1/2+y,1/2+z
x,1/2-y,z
loop_
_atom_site_type_symbol
_atom_site_label
_atom_site_fract_x
_atom_site_fract_y
_atom_site_fract_z
Si Si1 0.703602 0.464411 0.764994
Si Si2 0.563700 0.250000 0.605787
Si Si3 0.381434 0.068954 0.006342
Si Si4 0.608471 0.750000 0.104556
Si Si5 0.464117 0.418548 0.588784
O O1 0.685872 0.552663 0.841182
O O2 0.222468 0.541104 0.383973
O O3 0.554800 0.428291 0.730131
O O4 0.805412 0.415019 0.868374
O O5 0.726475 0.250000 0.632792
O O6 0.476769 0.250000 0.750827
O O7 0.518712 0.333165 0.525420
O O8 0.419265 0.164532 0.979111
O O9 0.500000 0.000000 0.000000
O O10 0.500000 0.500000 0.500000
#
# Coordination Sequence:
#
# PCOD9467631 Si02
#       5
#     8   4   8   4   8
#     4  12  22  41  67  93 132 177 220 273 343 401
#     4  12  20  40  65  97 133 175 225 287 330 410
#     4  12  25  43  71 100 141 178 231 289 347 411
#     4  12  24  42  69 105 133 179 239 281 340 422
#     4  12  23  39  65  97 130 171 223 278 341 402
#
# _framework density 21.303571000000002
#
# number of rings (size 3 to 8) (size 9 to 14) (size 15 to 20)
#    0.000    0.000   10.000    0.000    0.000    0.000 
#    0.000    2.500    0.000    0.000    0.000    0.000 
#    0.000    0.000    0.000    0.000    0.000    0.000 
#
# Total GULP energy -178525.488460 kJ/mol
# GULP energy per Si atom -5578.921514 kJ/mol
# Density = 2.125508 g / cm^3
# Si number density = 21.303571 Si / 1000 Ang^3
#
#
#
# Elastic Constant Matrix: (Units=GPa)
#
#
# Indices 1 2 3 4 5 6 
#
# 1 84.0239 38.9330 -8.5082 0.0000 0.0000 0.0000
# 2 38.9330 201.2998 51.1646 0.0000 0.0000 0.0000
# 3 -8.5082 51.1646 41.9922 0.0000 0.0000 0.0000
# 4 0.0000 0.0000 0.0000 34.3263 0.0000 0.0000
# 5 0.0000 0.0000 0.0000 0.0000 32.9658 0.0000
# 6 0.0000 0.0000 0.0000 0.0000 0.0000 30.3596
#
#
#
# Elastic Compliance Matrix: (Units=1/GPa)
#
#
# Indices 1 2 3 4 5 6 
#
# 1 0.015430 -0.005474 0.009796 0.000000 0.000000 0.000000
# 2 -0.005474 0.009138 -0.012244 0.000000 0.000000 0.000000
# 3 0.009796 -0.012244 0.040717 0.000000 0.000000 0.000000
# 4 0.000000 0.000000 0.000000 0.029132 0.000000 0.000000
# 5 0.000000 0.000000 0.000000 0.000000 0.030334 0.000000
# 6 0.000000 0.000000 0.000000 0.000000 0.000000 0.032938
#
#
# Mechanical properties :
#
#
# Convention : Reuss Voigt Hill
#
# Bulk Modulus (GPa) = 20.22584 54.49942 37.36263
# Shear Modulus (GPa) = 26.31383 35.91213 31.11298
#
# Velocity S-wave (km/s) = 3.51833 4.11022 3.82574
# Velocity P-wave (km/s) = 5.10094 6.93996 6.09026
#
# Compressibility (1/GPa) = 0.04944170
#
# Stress axis : x y z
#
# Youngs Moduli (GPa) = 64.80965 109.42765 24.55985
#
# Poissons Ratio (x) = 0.59902 -0.24059
# Poissons Ratio (y) = 0.35478 0.30070
# Poissons Ratio (z) = -0.63488 1.33980
#
# Static dielectric constant tensor:
#      x y z
#    x 1.880530 0.000000 0.000000 
#    y 0.000000 1.827920 0.000000 
#    z 0.000000 0.000000 1.818660 
# 
# From -- ./inp_files/11037.got.cif
#   From: 2010.05.17/outbox.cif.g08.bks.cpg/sg62_6_cif.got.tgz:11037.got - 2010.06.03 15:25:27.
