data_PCOD9467312
_publ_section_title
;
Structure prediction by ZEFSAII (Michael W. Deem and Ramdas Pophale) SiO2 
 PCOD9467312
Probable space group: P N M A
;
_chemical_formula_sum "Si O2"
_cell_formula_units_Z 48
_cell_length_a 9.651736
_cell_length_b 20.706119
_cell_length_c 12.964712
_cell_angle_alpha 90.000000
_cell_angle_beta 90.000000
_cell_angle_gamma 90.000000
_cell_volume 2590.997618
_symmetry_space_group_name_H-M "P N M A"
_symmetry_group_IT_number 62
_symmetry_cell_setting 'orthorhombic'
loop_
_space_group_symop_operation_xyz
x,y,z
1/2-x,-y,1/2+z
1/2+x,1/2-y,1/2-z
-x,1/2+y,-z
-x,-y,-z
1/2+x,y,1/2-z
1/2-x,1/2+y,1/2+z
x,1/2-y,z
loop_
_atom_site_type_symbol
_atom_site_label
_atom_site_fract_x
_atom_site_fract_y
_atom_site_fract_z
Si Si1 0.195180 0.960041 0.837637
Si Si2 0.482152 0.326349 0.909413
Si Si3 0.491455 0.823087 0.330656
Si Si4 0.777919 0.111475 0.954335
Si Si5 0.629104 0.474353 0.358487
Si Si6 0.728276 0.090680 0.561293
O O1 0.272789 0.947266 0.731213
O O2 0.031899 0.976458 0.825950
O O3 0.269700 0.023558 0.885084
O O4 0.205882 0.905435 0.925166
O O5 0.487586 0.250000 0.933937
O O6 0.458271 0.332547 0.786134
O O7 0.625335 0.362176 0.933281
O O8 0.357741 0.364269 0.963834
O O9 0.439399 0.750000 0.339339
O O10 0.615022 0.836492 0.409912
O O11 0.369759 0.871416 0.360168
O O12 0.816305 0.045244 0.892795
O O13 0.643270 0.430215 0.460197
#
# Coordination Sequence:
#
# PCOD9467312 Si02
#       6
#     8   8   8   8   8   8
#     4  11  23  39  63  90 118 154 196 243 297 352
#     4  11  24  37  59  93 121 155 199 240 288 353
#     4  11  20  37  61  85 117 161 195 238 296 349
#     4  11  22  39  59  88 125 152 193 244 295 349
#     4  11  23  39  63  90 118 154 196 243 297 352
#     4  11  22  39  59  88 125 152 193 244 295 349
#
# _framework density 18.525682
#
# number of rings (size 3 to 8) (size 9 to 14) (size 15 to 20)
#    0.000    1.000    3.333    5.000    4.667    4.000 
#    0.000    0.000    0.000    6.000    0.000    0.000 
#    0.000    0.000    0.000    0.000    0.000    0.000 
#
# Total GULP energy -268188.663339 kJ/mol
# GULP energy per Si atom -5587.263820 kJ/mol
# Density = 1.848352 g / cm^3
# Si number density = 18.525682 Si / 1000 Ang^3
#
#
#
# Elastic Constant Matrix: (Units=GPa)
#
#
# Indices 1 2 3 4 5 6 
#
# 1 75.2993 19.2875 -11.0257 0.0000 0.0000 0.0000
# 2 19.2875 64.9457 12.5749 0.0000 0.0000 0.0000
# 3 -11.0257 12.5749 53.5486 0.0000 0.0000 0.0000
# 4 0.0000 0.0000 0.0000 21.2132 0.0000 0.0000
# 5 0.0000 0.0000 0.0000 0.0000 29.0169 0.0000
# 6 0.0000 0.0000 0.0000 0.0000 0.0000 19.0309
#
#
#
# Elastic Compliance Matrix: (Units=1/GPa)
#
#
# Indices 1 2 3 4 5 6 
#
# 1 0.015312 -0.005403 0.004422 0.000000 0.000000 0.000000
# 2 -0.005403 0.018038 -0.005348 0.000000 0.000000 0.000000
# 3 0.004422 -0.005348 0.020841 0.000000 0.000000 0.000000
# 4 0.000000 0.000000 0.000000 0.047140 0.000000 0.000000
# 5 0.000000 0.000000 0.000000 0.000000 0.034463 0.000000
# 6 0.000000 0.000000 0.000000 0.000000 0.000000 0.052546
#
#
# Mechanical properties :
#
#
# Convention : Reuss Voigt Hill
#
# Bulk Modulus (GPa) = 24.07888 26.16301 25.12094
# Shear Modulus (GPa) = 23.27273 25.38265 24.32769
#
# Velocity S-wave (km/s) = 3.54819 3.70555 3.62772
# Velocity P-wave (km/s) = 5.46004 5.69748 5.58002
#
# Compressibility (1/GPa) = 0.04153018
#
# Stress axis : x y z
#
# Youngs Moduli (GPa) = 65.30895 55.43932 47.98228
#
# Poissons Ratio (x) = 0.29956 -0.21216
# Poissons Ratio (y) = 0.35289 0.25663
# Poissons Ratio (z) = -0.28877 0.29651
#
# Static dielectric constant tensor:
#      x y z
#    x 1.652940 0.000000 0.000000 
#    y 0.000000 1.636200 0.000000 
#    z 0.000000 0.000000 1.625590 
# 
# From -- ./inp_files/11325.got.cif
#   From: 2010.05.17/outbox.cif.g08.bks.cpg/sg62_6_cif.got.tgz:11325.got - 2010.06.03 15:25:27.
