data_PCOD9467211
_publ_section_title
;
Structure prediction by ZEFSAII (Michael W. Deem and Ramdas Pophale) SiO2 
 PCOD9467211
Probable space group: P N M A
;
_chemical_formula_sum "Si O2"
_cell_formula_units_Z 32
_cell_length_a 9.734058
_cell_length_b 10.348535
_cell_length_c 13.601051
_cell_angle_alpha 90.000000
_cell_angle_beta 90.000000
_cell_angle_gamma 90.000000
_cell_volume 1370.077933
_symmetry_space_group_name_H-M "P N M A"
_symmetry_group_IT_number 62
_symmetry_cell_setting 'orthorhombic'
loop_
_space_group_symop_operation_xyz
x,y,z
1/2-x,-y,1/2+z
1/2+x,1/2-y,1/2-z
-x,1/2+y,-z
-x,-y,-z
1/2+x,y,1/2-z
1/2-x,1/2+y,1/2+z
x,1/2-y,z
loop_
_atom_site_type_symbol
_atom_site_label
_atom_site_fract_x
_atom_site_fract_y
_atom_site_fract_z
Si Si1 0.130480 0.970993 0.566867
Si Si2 0.854201 0.608617 0.086118
Si Si3 0.362013 0.111715 0.648726
Si Si4 0.454245 0.102750 0.278497
O O1 0.249945 0.904645 0.502827
O O2 0.085811 0.897013 0.664557
O O3 0.210942 0.096459 0.607094
O O4 0.000000 0.000000 0.500000
O O5 0.827465 0.750000 0.132626
O O6 0.847427 0.485871 0.158949
O O7 0.018676 0.611892 0.064397
O O8 0.378601 0.250000 0.700141
O O9 0.409171 0.985896 0.709273
O O10 0.468300 0.250000 0.313656
#
# Coordination Sequence:
#
# PCOD9467211 Si02
#       4
#     8   8   8   8
#     4  12  26  44  72 116 149 187 244 314 367 438
#     4   9  22  47  73 102 145 198 242 294 366 440
#     4   9  23  47  73 100 143 199 243 296 369 439
#     4  10  24  45  72 106 146 192 244 300 365 432
#
# _framework density 23.356335999999999
#
# number of rings (size 3 to 8) (size 9 to 14) (size 15 to 20)
#    1.500    0.500    0.000    1.500    3.500    7.000 
#    0.000    0.000    0.000    0.000    0.000    0.000 
#    0.000    0.000    0.000    0.000    0.000    0.000 
#
# Total GULP energy -178203.205747 kJ/mol
# GULP energy per Si atom -5568.850180 kJ/mol
# Density = 2.330318 g / cm^3
# Si number density = 23.356336 Si / 1000 Ang^3
#
#
#
# Elastic Constant Matrix: (Units=GPa)
#
#
# Indices 1 2 3 4 5 6 
#
# 1 119.2597 35.4718 39.7569 0.0000 0.0000 0.0000
# 2 35.4718 231.2811 55.8876 0.0000 0.0000 0.0000
# 3 39.7569 55.8876 95.2144 0.0000 0.0000 0.0000
# 4 0.0000 0.0000 0.0000 8.5860 0.0000 0.0000
# 5 0.0000 0.0000 0.0000 0.0000 50.4199 0.0000
# 6 0.0000 0.0000 0.0000 0.0000 0.0000 -13.4963
#
#
#
# Elastic Compliance Matrix: (Units=1/GPa)
#
#
# Indices 1 2 3 4 5 6 
#
# 1 0.009812 -0.000600 -0.003745 0.000000 0.000000 0.000000
# 2 -0.000600 0.005075 -0.002728 0.000000 0.000000 0.000000
# 3 -0.003745 -0.002728 0.013668 0.000000 0.000000 0.000000
# 4 0.000000 0.000000 0.000000 0.116469 0.000000 0.000000
# 5 0.000000 0.000000 0.000000 0.000000 0.019833 0.000000
# 6 0.000000 0.000000 0.000000 0.000000 0.000000 -0.074094
#
#
# Mechanical properties :
#
#
# Convention : Reuss Voigt Hill
#
# Bulk Modulus (GPa) = 69.40399 78.66530 74.03465
# Shear Modulus (GPa) = 45.57398 30.07785 37.82592
#
# Velocity S-wave (km/s) = 4.42208 3.59246 4.02868
# Velocity P-wave (km/s) = 7.47348 7.13872 7.30802
#
# Compressibility (1/GPa) = 0.01440839
#
# Stress axis : x y z
#
# Youngs Moduli (GPa) = 101.91713 197.04234 73.16501
#
# Poissons Ratio (x) = 0.11821 0.27399
# Poissons Ratio (y) = 0.06114 0.19962
# Poissons Ratio (z) = 0.38166 0.53761
#
# Static dielectric constant tensor:
#      x y z
#    x 1.902720 0.000000 0.000000 
#    y 0.000000 1.939420 0.000000 
#    z 0.000000 0.000000 1.915890 
# 
# From -- ./inp_files/16444.got.cif
#   From: 2010.05.17/outbox.cif.g08.bks.cpg/sg62_9_cif.got.tgz:16444.got - 2010.06.03 15:25:27.
