data_PCOD9467827
_publ_section_title
;
Structure prediction by ZEFSAII (Michael W. Deem and Ramdas Pophale) SiO2 
 PCOD9467827
Probable space group: P N M A
;
_chemical_formula_sum "Si O2"
_cell_formula_units_Z 48
_cell_length_a 9.000000
_cell_length_b 18.000000
_cell_length_c 15.000000
_cell_angle_alpha 90.000000
_cell_angle_beta 90.000000
_cell_angle_gamma 90.000000
_cell_volume 2430.000000
_symmetry_space_group_name_H-M "P N M A"
_symmetry_group_IT_number 62
_symmetry_cell_setting 'orthorhombic'
loop_
_space_group_symop_operation_xyz
x,y,z
1/2-x,-y,1/2+z
1/2+x,1/2-y,1/2-z
-x,1/2+y,-z
-x,-y,-z
1/2+x,y,1/2-z
1/2-x,1/2+y,1/2+z
x,1/2-y,z
loop_
_atom_site_type_symbol
_atom_site_label
_atom_site_fract_x
_atom_site_fract_y
_atom_site_fract_z
Si Si1 0.510838 0.339835 0.291310
Si Si2 0.559750 0.837291 0.365874
Si Si3 0.998504 0.587670 0.482321
Si Si4 0.807818 0.340201 0.044931
Si Si5 0.399983 0.661185 0.194882
Si Si6 0.175808 0.659986 0.626193
O O1 0.520554 0.250000 0.287759
O O2 0.380930 0.358004 0.361097
O O3 0.455630 0.363164 0.194298
O O4 0.668868 0.364610 0.329702
O O5 0.524849 0.750000 0.375575
O O6 0.579489 0.865396 0.466313
O O7 0.724569 0.844424 0.323645
O O8 0.444396 0.866031 0.293257
O O9 0.849801 0.623207 0.525915
O O10 0.985364 0.613863 0.379975
O O11 0.000000 0.500000 0.500000
O O12 0.138718 0.624446 0.531686
O O13 0.789790 0.250000 0.039139
O O14 0.437624 0.750000 0.185903
O O15 0.176964 0.750000 0.618864
#
# Coordination Sequence:
#
# PCOD9467827 Si02
#       6
#     8   8   8   8   8   8
#     4   9  18  32  58  87 106 130 172 219 270 322
#     4   8  15  27  48  73  97 123 158 202 252 300
#     4  11  22  35  50  73 106 145 182 214 254 309
#     4   9  17  34  55  76 103 136 170 216 269 318
#     4   9  17  32  52  74  97 127 164 210 258 301
#     4  10  19  34  55  81 107 135 172 219 267 318
#
# _framework density 19.753086
#
# number of rings (size 3 to 8) (size 9 to 14) (size 15 to 20)
#    0.000    2.667    0.000    3.500    0.000    4.000 
#    0.000   12.500    0.000    0.000    0.000    0.000 
#    0.000    0.000    0.000    0.000    0.000    0.000 
#
# Total GULP energy -267638.461966 kJ/mol
# GULP energy per Si atom -5575.801291 kJ/mol
# Density = 1.970813 g / cm^3
# Si number density = 19.753086 Si / 1000 Ang^3
#
#
#
# Elastic Constant Matrix: (Units=GPa)
#
#
# Indices 1 2 3 4 5 6 
#
# 1 16.2065 -0.7870 -19.3581 0.0000 0.0000 0.0000
# 2 -0.7870 34.5073 -1.8522 0.0000 0.0000 0.0000
# 3 -19.3581 -1.8522 46.9108 0.0000 0.0000 0.0000
# 4 0.0000 0.0000 0.0000 7.3997 0.0000 0.0000
# 5 0.0000 0.0000 0.0000 0.0000 34.0602 0.0000
# 6 0.0000 0.0000 0.0000 0.0000 0.0000 3.4180
#
#
#
# Elastic Compliance Matrix: (Units=1/GPa)
#
#
# Indices 1 2 3 4 5 6 
#
# 1 0.122725 0.005529 0.050862 0.000000 0.000000 0.000000
# 2 0.005529 0.029290 0.003438 0.000000 0.000000 0.000000
# 3 0.050862 0.003438 0.042441 0.000000 0.000000 0.000000
# 4 0.000000 0.000000 0.000000 0.135141 0.000000 0.000000
# 5 0.000000 0.000000 0.000000 0.000000 0.029360 0.000000
# 6 0.000000 0.000000 0.000000 0.000000 0.000000 0.292570
#
#
# Mechanical properties :
#
#
# Convention : Reuss Voigt Hill
#
# Bulk Modulus (GPa) = 3.18356 5.95888 4.57122
# Shear Modulus (GPa) = 7.85455 16.95037 12.40246
#
# Velocity S-wave (km/s) = 1.99625 2.93253 2.50846
# Velocity P-wave (km/s) = 2.63221 3.80652 3.27247
#
# Compressibility (1/GPa) = 0.31411348
#
# Stress axis : x y z
#
# Youngs Moduli (GPa) = 8.14832 34.14136 23.56193
#
# Poissons Ratio (x) = -0.18877 -1.19840
# Poissons Ratio (y) = -0.04505 -0.08101
# Poissons Ratio (z) = -0.41444 -0.11738
#
# Static dielectric constant tensor:
#      x y z
#    x 1.704410 0.000000 0.000000 
#    y 0.000000 1.669780 0.000000 
#    z 0.000000 0.000000 1.721440 
# 
# From -- ./inp_files/16962.got.cif
#   From: 2010.05.17/outbox.ucp.g08.bks.cvg/sg62_9_cif.got.tgz:16962.got - 2010.06.11 16:29:25.
