data_PCOD9467565
_publ_section_title
;
Structure prediction by ZEFSAII (Michael W. Deem and Ramdas Pophale) SiO2 
 PCOD9467565
Probable space group: P N M A
;
_chemical_formula_sum "Si O2"
_cell_formula_units_Z 56
_cell_length_a 34.256585
_cell_length_b 14.033134
_cell_length_c 5.655231
_cell_angle_alpha 90.000000
_cell_angle_beta 90.000000
_cell_angle_gamma 90.000000
_cell_volume 2718.623634
_symmetry_space_group_name_H-M "P N M A"
_symmetry_group_IT_number 62
_symmetry_cell_setting 'orthorhombic'
loop_
_space_group_symop_operation_xyz
x,y,z
1/2-x,-y,1/2+z
1/2+x,1/2-y,1/2-z
-x,1/2+y,-z
-x,-y,-z
1/2+x,y,1/2-z
1/2-x,1/2+y,1/2+z
x,1/2-y,z
loop_
_atom_site_type_symbol
_atom_site_label
_atom_site_fract_x
_atom_site_fract_y
_atom_site_fract_z
Si Si1 0.023070 0.500000 0.750000
Si Si2 0.585350 0.357288 0.599122
Si Si3 0.664767 0.142736 0.900532
Si Si4 0.374836 0.000000 0.750000
Si Si5 0.273060 0.500000 0.249999
Si Si6 0.335232 0.357264 0.400532
Si Si7 0.914650 0.357288 0.400878
O O1 0.050789 0.406734 0.756215
O O2 0.050789 0.593265 0.743785
O O3 0.000000 0.500000 0.500000
O O4 0.000000 0.500000 0.000000
O O5 0.575751 0.250000 0.520345
O O6 0.624993 0.352946 0.750483
O O7 0.596884 0.430576 0.394871
O O8 0.674482 0.250000 0.978889
O O9 0.699206 0.093259 0.754858
O O10 0.653429 0.069472 0.105199
O O11 0.346571 0.069472 0.605199
O O12 0.403116 0.069425 0.894870
O O13 0.250000 0.498897 0.499999
O O14 0.300794 0.406741 0.254856
O O15 0.325518 0.250000 0.478889
O O16 0.375007 0.352946 0.250483
O O17 0.924249 0.250000 0.479652
#
# Coordination Sequence:
#
# PCOD9467565 Si02
#       7
#     8   8   8   8   8   8   8
#     4  12  26  46  69 101 150 188 222 286 354 424
#     4  11  24  43  71 102 135 186 246 298 350 419
#     4  11  24  43  71 101 132 184 244 296 350 421
#     4  12  18  44  72 104 134 178 238 314 346 412
#     4  12  26  46  69 101 152 190 226 294 364 434
#     4  11  24  43  71 101 132 184 244 296 350 421
#     4  11  24  43  71 102 135 186 246 298 350 419
#
# _framework density 20.598661
#
# number of rings (size 3 to 8) (size 9 to 14) (size 15 to 20)
#    0.000    0.571    5.714    2.571    0.000    2.286 
#    0.000    0.000    0.000    0.000    0.000    0.000 
#    0.000    0.000    0.000    0.000    0.000    0.000 
#
# Total GULP energy -312779.130297 kJ/mol
# GULP energy per Si atom -5585.341612 kJ/mol
# Density = 2.055178 g / cm^3
# Si number density = 20.598661 Si / 1000 Ang^3
#
#
#
# Elastic Constant Matrix: (Units=GPa)
#
#
# Indices 1 2 3 4 5 6 
#
# 1 110.4869 54.4906 53.0664 0.0000 0.0000 0.0000
# 2 54.4906 214.4307 65.2174 0.0000 0.0000 0.0000
# 3 53.0664 65.2174 108.3133 0.0000 0.0000 0.0000
# 4 0.0000 0.0000 0.000013760.9350 0.0000 0.0000
# 5 0.0000 0.0000 0.0000 0.0000 36.7564 0.0000
# 6 0.0000 0.0000 0.0000 0.0000 0.0000 -35.2148
#
#
#
# Elastic Compliance Matrix: (Units=1/GPa)
#
#
# Indices 1 2 3 4 5 6 
#
# 1 0.012257 -0.001577 -0.005055 0.000000 0.000000 0.000000
# 2 -0.001577 0.005912 -0.002787 0.000000 0.000000 0.000000
# 3 -0.005055 -0.002787 0.013387 0.000000 0.000000 0.000000
# 4 0.000000 0.000000 0.000000 0.000073 0.000000 0.000000
# 5 0.000000 0.000000 0.000000 0.000000 0.027206 0.000000
# 6 0.000000 0.000000 0.000000 0.000000 0.000000 -0.028397
#
#
# Mechanical properties :
#
#
# Convention : Reuss Voigt Hill
#
# Bulk Modulus (GPa) = 78.63453 86.53109 82.58281
# Shear Modulus (GPa) = 93.43050 2769.85909 1431.64480
#
# Velocity S-wave (km/s) = 6.74211 36.70965 26.39180
# Velocity P-wave (km/s) = 9.94311 42.88236 31.12686
#
# Compressibility (1/GPa) = 0.01271706
#
# Stress axis : x y z
#
# Youngs Moduli (GPa) = 81.58780 169.14976 74.69715
#
# Poissons Ratio (x) = 0.26676 0.37762
# Poissons Ratio (y) = 0.12867 0.20818
# Poissons Ratio (z) = 0.41246 0.47142
#
# Static dielectric constant tensor:
#      x y z
#    x 1.782800 0.000000 0.000000 
#    y 0.000000 1.751540 0.000000 
#    z 0.000000 0.000000 1.790090 
# 
# From -- ./inp_files/3604.got.cif
#   From: 2010.05.17/outbox.cif.g08.bks.cpg/sg62_2_cif.got.tgz:3604.got - 2010.06.03 15:25:27.
