data_PCOD9467689
_publ_section_title
;
Structure prediction by ZEFSAII (Michael W. Deem and Ramdas Pophale) SiO2 
 PCOD9467689
Probable space group: P N M A
;
_chemical_formula_sum "Si O2"
_cell_formula_units_Z 40
_cell_length_a 10.153604
_cell_length_b 26.294873
_cell_length_c 6.646678
_cell_angle_alpha 90.000000
_cell_angle_beta 90.000000
_cell_angle_gamma 90.000000
_cell_volume 1774.581456
_symmetry_space_group_name_H-M "P N M A"
_symmetry_group_IT_number 62
_symmetry_cell_setting 'orthorhombic'
loop_
_space_group_symop_operation_xyz
x,y,z
1/2-x,-y,1/2+z
1/2+x,1/2-y,1/2-z
-x,1/2+y,-z
-x,-y,-z
1/2+x,y,1/2-z
1/2-x,1/2+y,1/2+z
x,1/2-y,z
loop_
_atom_site_type_symbol
_atom_site_label
_atom_site_fract_x
_atom_site_fract_y
_atom_site_fract_z
Si Si1 0.612757 0.037035 0.926259
Si Si2 0.677570 0.309737 0.020925
Si Si3 0.776163 0.435754 0.296841
Si Si4 0.944810 0.152270 0.199009
Si Si5 0.625473 0.123522 0.644188
O O1 0.683573 0.067960 0.102524
O O2 0.559930 0.076971 0.765238
O O3 0.500000 0.000000 0.000000
O O4 0.714190 0.995900 0.834839
O O5 0.676023 0.250000 0.980017
O O6 0.540699 0.325077 0.131796
O O7 0.802295 0.322139 0.165659
O O8 0.690486 0.340942 0.812726
O O9 0.523268 0.345442 0.510204
O O10 0.721956 0.404940 0.487921
O O11 0.911187 0.407020 0.241945
#
# Coordination Sequence:
#
# PCOD9467689 Si02
#       5
#     8   8   8   8   8
#     4  12  26  41  71 111 148 204 247 301 370 447
#     4  12  29  51  81 111 144 195 257 320 392 456
#     4  12  25  46  71 109 154 198 252 303 366 453
#     4  12  27  52  77 109 154 195 248 324 377 452
#     4  12  26  48  74 106 153 198 248 310 378 445
#
# _framework density 22.540527000000001
#
# number of rings (size 3 to 8) (size 9 to 14) (size 15 to 20)
#    0.000    0.000    6.000    3.000    8.400    3.200 
#    0.000    0.000    0.000    0.000    0.000    0.000 
#    0.000    0.000    0.000    0.000    0.000    0.000 
#
# Total GULP energy -223791.282589 kJ/mol
# GULP energy per Si atom -5594.782065 kJ/mol
# Density = 2.248922 g / cm^3
# Si number density = 22.540527 Si / 1000 Ang^3
#
#
#
# Elastic Constant Matrix: (Units=GPa)
#
#
# Indices 1 2 3 4 5 6 
#
# 1 57.7531 -6.9979 3.3008 0.0000 0.0000 0.0000
# 2 -6.9979 105.6281 20.6479 0.0000 0.0000 0.0000
# 3 3.3008 20.6479 89.9827 0.0000 0.0000 0.0000
# 4 0.0000 0.0000 0.0000 27.7740 0.0000 0.0000
# 5 0.0000 0.0000 0.0000 0.0000 34.6856 0.0000
# 6 0.0000 0.0000 0.0000 0.0000 0.0000 32.1281
#
#
#
# Elastic Compliance Matrix: (Units=1/GPa)
#
#
# Indices 1 2 3 4 5 6 
#
# 1 0.017533 0.001348 -0.000952 0.000000 0.000000 0.000000
# 2 0.001348 0.010015 -0.002348 0.000000 0.000000 0.000000
# 3 -0.000952 -0.002348 0.011687 0.000000 0.000000 0.000000
# 4 0.000000 0.000000 0.000000 0.036005 0.000000 0.000000
# 5 0.000000 0.000000 0.000000 0.000000 0.028830 0.000000
# 6 0.000000 0.000000 0.000000 0.000000 0.000000 0.031125
#
#
# Mechanical properties :
#
#
# Convention : Reuss Voigt Hill
#
# Bulk Modulus (GPa) = 28.30418 31.91840 30.11129
# Shear Modulus (GPa) = 33.13952 34.67841 33.90896
#
# Velocity S-wave (km/s) = 3.83850 3.92662 3.88281
# Velocity P-wave (km/s) = 5.67713 5.89482 5.78700
#
# Compressibility (1/GPa) = 0.03533048
#
# Stress axis : x y z
#
# Youngs Moduli (GPa) = 57.03586 99.84651 85.56603
#
# Poissons Ratio (x) = -0.13457 0.08149
# Poissons Ratio (y) = -0.07687 0.20088
# Poissons Ratio (z) = 0.05432 0.23440
#
# Static dielectric constant tensor:
#      x y z
#    x 1.882030 0.000000 0.000000 
#    y 0.000000 1.884600 0.000000 
#    z 0.000000 0.000000 1.866620 
# 
# From -- ./inp_files/4409.got.cif
#   From: 2010.05.17/outbox.cif.g08.bks.cpg/sg62_3_cif.got.tgz:4409.got - 2010.06.03 15:25:27.
