data_PCOD9467284
_publ_section_title
;
Structure prediction by ZEFSAII (Michael W. Deem and Ramdas Pophale) SiO2 
 PCOD9467284
Probable space group: P N M A
;
_chemical_formula_sum "Si O2"
_cell_formula_units_Z 60
_cell_length_a 18.220574
_cell_length_b 17.189854
_cell_length_c 8.953203
_cell_angle_alpha 90.000000
_cell_angle_beta 90.000000
_cell_angle_gamma 90.000000
_cell_volume 2804.223820
_symmetry_space_group_name_H-M "P N M A"
_symmetry_group_IT_number 62
_symmetry_cell_setting 'orthorhombic'
loop_
_space_group_symop_operation_xyz
x,y,z
1/2-x,-y,1/2+z
1/2+x,1/2-y,1/2-z
-x,1/2+y,-z
-x,-y,-z
1/2+x,y,1/2-z
1/2-x,1/2+y,1/2+z
x,1/2-y,z
loop_
_atom_site_type_symbol
_atom_site_label
_atom_site_fract_x
_atom_site_fract_y
_atom_site_fract_z
Si Si1 0.184246 0.382736 0.837159
Si Si2 0.667221 0.583005 0.011109
Si Si3 0.490945 0.965975 0.663616
Si Si4 0.006297 0.886633 0.385269
Si Si5 0.647532 0.937435 0.669826
Si Si6 0.620033 0.085189 0.131801
Si Si7 0.743828 0.160722 0.987388
Si Si8 0.568791 0.250000 0.693394
O O1 0.261896 0.376538 0.920113
O O2 0.154658 0.470293 0.857847
O O3 0.205307 0.369591 0.662800
O O4 0.123808 0.318598 0.872159
O O5 0.588904 0.621596 0.052086
O O6 0.658566 0.495642 0.080189
O O7 0.678963 0.577182 0.834299
O O8 0.562647 0.913426 0.680961
O O9 0.415339 0.924394 0.705654
O O10 0.500000 0.000000 0.500000
O O11 0.495538 0.034748 0.786315
O O12 0.947442 0.897340 0.518735
O O13 0.979994 0.817582 0.279949
O O14 0.688579 0.891042 0.540683
O O15 0.680921 0.150607 0.112324
O O16 0.764517 0.250000 0.966934
#
# Coordination Sequence:
#
# PCOD9467284 Si02
#       8
#     8   8   8   8   8   8   8   4
#     4  12  22  41  70  98 129 178 225 270 345 407
#     4  11  22  39  65  99 125 176 227 275 322 415
#     4  11  23  38  67 100 127 171 224 274 330 405
#     4  11  21  42  67  94 128 173 227 278 338 392
#     4  12  22  43  65  97 139 174 226 273 335 418
#     4  11  19  42  70  93 126 175 226 273 328 410
#     4  12  25  43  65 100 137 172 219 286 351 401
#     4  12  22  42  70  96 132 168 226 296 328 394
#
# _framework density 21.396296
#
# number of rings (size 3 to 8) (size 9 to 14) (size 15 to 20)
#    0.000    0.533    8.667    0.800    3.733    1.600 
#    2.400    0.667    0.000    0.000    0.000    0.000 
#    0.000    0.000    0.000    0.000    0.000    0.000 
#
# Total GULP energy -334382.917219 kJ/mol
# GULP energy per Si atom -5573.048620 kJ/mol
# Density = 2.134760 g / cm^3
# Si number density = 21.396296 Si / 1000 Ang^3
#
#
#
# Elastic Constant Matrix: (Units=GPa)
#
#
# Indices 1 2 3 4 5 6 
#
# 1 30.5460 11.9691 -9.8543 0.0000 0.0000 0.0000
# 2 11.9691 80.8634 -16.5730 0.0000 0.0000 0.0000
# 3 -9.8543 -16.5730 40.3593 0.0000 0.0000 0.0000
# 4 0.0000 0.0000 0.0000 6.0273 0.0000 0.0000
# 5 0.0000 0.0000 0.0000 0.0000 33.8986 0.0000
# 6 0.0000 0.0000 0.0000 0.0000 0.0000 25.1614
#
#
#
# Elastic Compliance Matrix: (Units=1/GPa)
#
#
# Indices 1 2 3 4 5 6 
#
# 1 0.036640 -0.003920 0.007337 0.000000 0.000000 0.000000
# 2 -0.003920 0.013922 0.004760 0.000000 0.000000 0.000000
# 3 0.007337 0.004760 0.028523 0.000000 0.000000 0.000000
# 4 0.000000 0.000000 0.000000 0.165911 0.000000 0.000000
# 5 0.000000 0.000000 0.000000 0.000000 0.029500 0.000000
# 6 0.000000 0.000000 0.000000 0.000000 0.000000 0.039743
#
#
# Mechanical properties :
#
#
# Convention : Reuss Voigt Hill
#
# Bulk Modulus (GPa) = 10.47780 13.65024 12.06402
# Shear Modulus (GPa) = 15.16534 24.09926 19.63230
#
# Velocity S-wave (km/s) = 2.66519 3.35972 3.03240
# Velocity P-wave (km/s) = 3.79191 4.63075 4.23217
#
# Compressibility (1/GPa) = 0.09543991
#
# Stress axis : x y z
#
# Youngs Moduli (GPa) = 27.29237 71.82742 35.05889
#
# Poissons Ratio (x) = 0.28154 -0.25722
# Poissons Ratio (y) = 0.10698 -0.16688
# Poissons Ratio (z) = -0.20024 -0.34189
#
# Static dielectric constant tensor:
#      x y z
#    x 1.839660 0.000000 0.000000 
#    y 0.000000 1.790510 0.000000 
#    z 0.000000 0.000000 1.807920 
# 
# From -- ./inp_files/7957.got.cif
#   From: 2010.05.17/outbox.cif.g08.bks.cpg/sg62_4_cif.got.tgz:7957.got - 2010.06.03 15:25:27.
