data_PCOD9467438
_publ_section_title
;
Structure prediction by ZEFSAII (Michael W. Deem and Ramdas Pophale) SiO2 
 PCOD9467438
Probable space group: P N M A
;
_chemical_formula_sum "Si O2"
_cell_formula_units_Z 48
_cell_length_a 9.034411
_cell_length_b 18.868708
_cell_length_c 14.151063
_cell_angle_alpha 90.000000
_cell_angle_beta 90.000000
_cell_angle_gamma 90.000000
_cell_volume 2412.298640
_symmetry_space_group_name_H-M "P N M A"
_symmetry_group_IT_number 62
_symmetry_cell_setting 'orthorhombic'
loop_
_space_group_symop_operation_xyz
x,y,z
1/2-x,-y,1/2+z
1/2+x,1/2-y,1/2-z
-x,1/2+y,-z
-x,-y,-z
1/2+x,y,1/2-z
1/2-x,1/2+y,1/2+z
x,1/2-y,z
loop_
_atom_site_type_symbol
_atom_site_label
_atom_site_fract_x
_atom_site_fract_y
_atom_site_fract_z
Si Si1 0.731693 0.048965 0.469658
Si Si2 0.427531 0.404016 0.731527
Si Si3 0.180379 0.501950 0.729837
Si Si4 0.921292 0.167679 0.576340
Si Si5 0.271515 0.332101 0.555727
Si Si6 0.899609 0.078734 0.094928
O O1 0.573348 0.074230 0.428506
O O2 0.820308 0.112042 0.519977
O O3 0.825864 0.018759 0.381159
O O4 0.685434 0.986444 0.541743
O O5 0.347392 0.478713 0.751940
O O6 0.595355 0.430135 0.738136
O O7 0.397803 0.347239 0.812429
O O8 0.366759 0.377242 0.631522
O O9 0.130763 0.566166 0.795364
O O10 0.890670 0.250000 0.553736
O O11 0.096064 0.153228 0.559522
O O12 0.292623 0.250000 0.578414
O O13 0.332430 0.352111 0.453077
#
# Coordination Sequence:
#
# PCOD9467438 Si02
#       6
#     8   8   8   8   8   8
#     4  11  23  40  64  93 125 163 212 263 309 374
#     4  12  21  40  62  94 128 160 202 258 319 375
#     4  12  23  38  65  96 123 161 209 261 314 369
#     4  11  25  41  61  92 129 169 210 256 318 384
#     4  11  25  42  61  92 131 170 209 258 317 379
#     4  11  22  40  62  93 127 160 212 262 311 373
#
# _framework density 19.898033999999999
#
# number of rings (size 3 to 8) (size 9 to 14) (size 15 to 20)
#    0.000    0.667    6.667    1.500    2.333    2.000 
#    0.000    0.833    0.000    0.000    0.000    0.000 
#    0.000    0.000    0.000    0.000    0.000    0.000 
#
# Total GULP energy -268055.877228 kJ/mol
# GULP energy per Si atom -5584.497442 kJ/mol
# Density = 1.985274 g / cm^3
# Si number density = 19.898034 Si / 1000 Ang^3
#
#
#
# Elastic Constant Matrix: (Units=GPa)
#
#
# Indices 1 2 3 4 5 6 
#
# 1 63.2630 39.1863 32.3622 0.0000 0.0000 0.0000
# 2 39.1863 61.4191 38.7584 0.0000 0.0000 0.0000
# 3 32.3622 38.7584 86.2706 0.0000 0.0000 0.0000
# 4 0.0000 0.0000 0.0000 31.7317 0.0000 0.0000
# 5 0.0000 0.0000 0.0000 0.0000 28.3610 0.0000
# 6 0.0000 0.0000 0.0000 0.0000 0.0000 27.7403
#
#
#
# Elastic Compliance Matrix: (Units=1/GPa)
#
#
# Indices 1 2 3 4 5 6 
#
# 1 0.026796 -0.015008 -0.003309 0.000000 0.000000 0.000000
# 2 -0.015008 0.031130 -0.008356 0.000000 0.000000 0.000000
# 3 -0.003309 -0.008356 0.016587 0.000000 0.000000 0.000000
# 4 0.000000 0.000000 0.000000 0.031514 0.000000 0.000000
# 5 0.000000 0.000000 0.000000 0.000000 0.035260 0.000000
# 6 0.000000 0.000000 0.000000 0.000000 0.000000 0.036049
#
#
# Mechanical properties :
#
#
# Convention : Reuss Voigt Hill
#
# Bulk Modulus (GPa) = 47.24403 47.95183 47.59793
# Shear Modulus (GPa) = 21.03165 24.27632 22.65398
#
# Velocity S-wave (km/s) = 3.25464 3.49669 3.37783
# Velocity P-wave (km/s) = 6.15777 6.36031 6.25986
#
# Compressibility (1/GPa) = 0.02116670
#
# Stress axis : x y z
#
# Youngs Moduli (GPa) = 37.31870 32.12352 60.28911
#
# Poissons Ratio (x) = 0.48211 0.19951
# Poissons Ratio (y) = 0.56008 0.50376
# Poissons Ratio (z) = 0.12350 0.26841
#
# Static dielectric constant tensor:
#      x y z
#    x 1.697990 0.000000 0.000000 
#    y 0.000000 1.682200 0.000000 
#    z 0.000000 0.000000 1.712490 
# 
# From -- ./inp_files/16980.got.cif
#   From: 2010.05.17/outbox.cif.g08.bks.cpg/sg62_9_cif.got.tgz:16980.got - 2010.06.03 15:25:27.
