data_PCOD9467246
_publ_section_title
;
Structure prediction by ZEFSAII (Michael W. Deem and Ramdas Pophale) SiO2 
 PCOD9467246
Probable space group: P N M A
;
_chemical_formula_sum "Si O2"
_cell_formula_units_Z 32
_cell_length_a 8.232028
_cell_length_b 11.448249
_cell_length_c 14.713420
_cell_angle_alpha 90.000000
_cell_angle_beta 90.000000
_cell_angle_gamma 90.000000
_cell_volume 1386.626635
_symmetry_space_group_name_H-M "P N M A"
_symmetry_group_IT_number 62
_symmetry_cell_setting 'orthorhombic'
loop_
_space_group_symop_operation_xyz
x,y,z
1/2-x,-y,1/2+z
1/2+x,1/2-y,1/2-z
-x,1/2+y,-z
-x,-y,-z
1/2+x,y,1/2-z
1/2-x,1/2+y,1/2+z
x,1/2-y,z
loop_
_atom_site_type_symbol
_atom_site_label
_atom_site_fract_x
_atom_site_fract_y
_atom_site_fract_z
Si Si1 0.775830 0.750000 0.889798
Si Si2 0.044525 0.250000 0.272278
Si Si3 0.694599 0.016902 0.148864
Si Si4 0.022375 0.612617 0.206621
Si Si5 0.317762 0.002931 0.540076
O O1 0.629713 0.750000 0.818041
O O2 0.948006 0.750000 0.836647
O O3 0.766777 0.630249 0.943015
O O4 0.138190 0.365674 0.302693
O O5 0.575001 0.919356 0.191034
O O6 0.869433 0.967821 0.180149
O O7 0.703063 0.043829 0.041874
O O8 0.988144 0.750000 0.196168
O O9 0.163381 0.574138 0.134176
O O10 0.500000 0.000000 0.500000
#
# Coordination Sequence:
#
# PCOD9467246 Si02
#       5
#     4   4   8   8   8
#     4  12  26  48  72 113 141 192 248 299 362 430
#     4  12  26  46  78 101 149 184 248 311 354 426
#     4  11  25  46  70 103 141 190 234 299 362 424
#     4  11  24  44  68 102 140 189 236 289 366 439
#     4  10  26  42  73 101 144 186 242 286 367 433
#
# _framework density 23.077590000000001
#
# number of rings (size 3 to 8) (size 9 to 14) (size 15 to 20)
#    0.000    1.000    2.500    2.250   14.000    1.000 
#    0.000    0.000    0.000    0.000    0.000    0.000 
#    0.000    0.000    0.000    0.000    0.000    0.000 
#
# Total GULP energy -178890.756558 kJ/mol
# GULP energy per Si atom -5590.336142 kJ/mol
# Density = 2.302506 g / cm^3
# Si number density = 23.077590 Si / 1000 Ang^3
#
#
#
# Elastic Constant Matrix: (Units=GPa)
#
#
# Indices 1 2 3 4 5 6 
#
# 1 67.1531 11.1071 13.4066 0.0000 0.0000 0.0000
# 2 11.1071 96.7123 -7.1303 0.0000 0.0000 0.0000
# 3 13.4066 -7.1303 34.4920 0.0000 0.0000 0.0000
# 4 0.0000 0.0000 0.0000 22.4062 0.0000 0.0000
# 5 0.0000 0.0000 0.0000 0.0000 34.8263 0.0000
# 6 0.0000 0.0000 0.0000 0.0000 0.0000 6.6967
#
#
#
# Elastic Compliance Matrix: (Units=1/GPa)
#
#
# Indices 1 2 3 4 5 6 
#
# 1 0.016689 -0.002432 -0.006990 0.000000 0.000000 0.000000
# 2 -0.002432 0.010854 0.003189 0.000000 0.000000 0.000000
# 3 -0.006990 0.003189 0.032368 0.000000 0.000000 0.000000
# 4 0.000000 0.000000 0.000000 0.044631 0.000000 0.000000
# 5 0.000000 0.000000 0.000000 0.000000 0.028714 0.000000
# 6 0.000000 0.000000 0.000000 0.000000 0.000000 0.149328
#
#
# Mechanical properties :
#
#
# Convention : Reuss Voigt Hill
#
# Bulk Modulus (GPa) = 21.07625 25.90270 23.48947
# Shear Modulus (GPa) = 16.08417 24.85076 20.46747
#
# Velocity S-wave (km/s) = 2.64286 3.28508 2.98131
# Velocity P-wave (km/s) = 4.29716 5.06335 4.69591
#
# Compressibility (1/GPa) = 0.04744678
#
# Stress axis : x y z
#
# Youngs Moduli (GPa) = 59.91974 92.12879 30.89449
#
# Poissons Ratio (x) = 0.22406 0.21594
# Poissons Ratio (y) = 0.14572 -0.09853
# Poissons Ratio (z) = 0.41881 -0.29381
#
# Static dielectric constant tensor:
#      x y z
#    x 1.912590 0.000000 0.000000 
#    y 0.000000 1.791400 0.000000 
#    z 0.000000 0.000000 1.887530 
# 
# From -- ./inp_files/16454.got.cif
#   From: 2010.05.17/outbox.cif.g08.bks.cpg/sg62_9_cif.got.tgz:16454.got - 2010.06.03 15:25:27.
