data_PCOD9467910
_publ_section_title
;
Structure prediction by ZEFSAII (Michael W. Deem and Ramdas Pophale) SiO2 
 PCOD9467910
Probable space group: P N M A
;
_chemical_formula_sum "Si O2"
_cell_formula_units_Z 64
_cell_length_a 24.000000
_cell_length_b 9.000000
_cell_length_c 15.000000
_cell_angle_alpha 90.000000
_cell_angle_beta 90.000000
_cell_angle_gamma 90.000000
_cell_volume 3240.000000
_symmetry_space_group_name_H-M "P N M A"
_symmetry_group_IT_number 62
_symmetry_cell_setting 'orthorhombic'
loop_
_space_group_symop_operation_xyz
x,y,z
1/2-x,-y,1/2+z
1/2+x,1/2-y,1/2-z
-x,1/2+y,-z
-x,-y,-z
1/2+x,y,1/2-z
1/2-x,1/2+y,1/2+z
x,1/2-y,z
loop_
_atom_site_type_symbol
_atom_site_label
_atom_site_fract_x
_atom_site_fract_y
_atom_site_fract_z
Si Si1 0.454898 0.924785 0.223639
Si Si2 0.351209 0.577906 0.914450
Si Si3 0.127934 0.575550 0.589817
Si Si4 0.138451 0.929593 0.070771
Si Si5 0.887720 0.426096 0.121229
Si Si6 0.741028 0.922259 0.676634
Si Si7 0.744436 0.073735 0.858117
Si Si8 0.086008 0.926059 0.258693
O O1 0.444077 0.750000 0.215290
O O2 0.520857 0.948658 0.223556
O O3 0.422577 0.008452 0.145482
O O4 0.427743 0.985120 0.314159
O O5 0.361715 0.750000 0.936773
O O6 0.284602 0.558198 0.903726
O O7 0.378257 0.531655 0.821596
O O8 0.376864 0.470513 0.987538
O O9 0.130241 0.750000 0.603553
O O10 0.186411 0.504220 0.620052
O O11 0.142417 0.750000 0.062502
O O12 0.201899 0.980671 0.086736
O O13 0.102048 0.960936 0.157244
O O14 0.111023 0.982240 0.979878
O O15 0.900951 0.250000 0.126078
O O16 0.823162 0.441692 0.150885
O O17 0.748071 0.750000 0.706799
O O18 0.756214 0.034158 0.755313
O O19 0.738386 0.250000 0.870508
O O20 0.099056 0.750000 0.273738
#
# Coordination Sequence:
#
# PCOD9467910 Si02
#       8
#     8   8   8   8   8   8   8   8
#     4  11  24  41  61  86 118 157 205 256 301 353
#     4  11  23  40  64  93 124 156 199 247 300 362
#     4  12  25  41  62  88 122 160 201 246 302 363
#     4   9  19  37  62  90 120 158 196 238 297 357
#     4  10  20  37  61  87 121 160 195 237 295 357
#     4  10  20  35  58  90 126 159 190 236 295 357
#     4  11  20  35  63  92 122 157 196 241 297 358
#     4  10  22  42  63  86 119 159 204 251 302 357
#
# _framework density 19.753086
#
# number of rings (size 3 to 8) (size 9 to 14) (size 15 to 20)
#    0.000    1.500    2.500    3.000    0.000    4.500 
#    0.000    3.125    0.000    0.000    0.000    0.000 
#    0.000    0.000    0.000    0.000    0.000    0.000 
#
# Total GULP energy -357545.984260 kJ/mol
# GULP energy per Si atom -5586.656004 kJ/mol
# Density = 1.970813 g / cm^3
# Si number density = 19.753086 Si / 1000 Ang^3
#
#
#
# Elastic Constant Matrix: (Units=GPa)
#
#
# Indices 1 2 3 4 5 6 
#
# 1 36.6885 23.8856 -13.7665 0.0000 0.0000 0.0000
# 2 23.8856 50.6427 0.2859 0.0000 0.0000 0.0000
# 3 -13.7665 0.2859 45.7223 0.0000 0.0000 0.0000
# 4 0.0000 0.0000 0.0000 21.3829 0.0000 0.0000
# 5 0.0000 0.0000 0.0000 0.0000 -112.0020 0.0000
# 6 0.0000 0.0000 0.0000 0.0000 0.0000 12.8932
#
#
#
# Elastic Compliance Matrix: (Units=1/GPa)
#
#
# Indices 1 2 3 4 5 6 
#
# 1 0.047178 -0.022333 0.014345 0.000000 0.000000 0.000000
# 2 -0.022333 0.030318 -0.006914 0.000000 0.000000 0.000000
# 3 0.014345 -0.006914 0.026233 0.000000 0.000000 0.000000
# 4 0.000000 0.000000 0.000000 0.046766 0.000000 0.000000
# 5 0.000000 0.000000 0.000000 0.000000 -0.008928 0.000000
# 6 0.000000 0.000000 0.000000 0.000000 0.000000 0.077560
#
#
# Mechanical properties :
#
#
# Convention : Reuss Voigt Hill
#
# Bulk Modulus (GPa) = 13.52695 17.09595 15.31145
# Shear Modulus (GPa) = 18.27660 -7.36862 5.45399
#
# Velocity S-wave (km/s) = 3.04510 -1.93351 1.66345
# Velocity P-wave (km/s) = 4.38479 1.92068 3.38492
#
# Compressibility (1/GPa) = 0.07392650
#
# Stress axis : x y z
#
# Youngs Moduli (GPa) = 21.19617 32.98327 38.11939
#
# Poissons Ratio (x) = 0.73660 -0.54681
# Poissons Ratio (y) = 0.47337 0.26355
# Poissons Ratio (z) = -0.30405 0.22804
#
# Static dielectric constant tensor:
#      x y z
#    x 1.673040 0.000000 0.000000 
#    y 0.000000 1.667170 0.000000 
#    z 0.000000 0.000000 1.743960 
# 
# From -- ./inp_files/21004.got.cif
#   From: 2010.05.17/outbox.ucp.g08.bks.cvg/sg62_11_cif.got.tgz:21004.got - 2010.06.11 16:29:25.
