data_PCOD9467073
_publ_section_title
;
Structure prediction by ZEFSAII (Michael W. Deem and Ramdas Pophale) SiO2 
 PCOD9467073
Probable space group: P N M A
;
_chemical_formula_sum "Si O2"
_cell_formula_units_Z 48
_cell_length_a 18.372013
_cell_length_b 13.466205
_cell_length_c 7.527380
_cell_angle_alpha 90.000000
_cell_angle_beta 90.000000
_cell_angle_gamma 90.000000
_cell_volume 1862.283547
_symmetry_space_group_name_H-M "P N M A"
_symmetry_group_IT_number 62
_symmetry_cell_setting 'orthorhombic'
loop_
_space_group_symop_operation_xyz
x,y,z
1/2-x,-y,1/2+z
1/2+x,1/2-y,1/2-z
-x,1/2+y,-z
-x,-y,-z
1/2+x,y,1/2-z
1/2-x,1/2+y,1/2+z
x,1/2-y,z
loop_
_atom_site_type_symbol
_atom_site_label
_atom_site_fract_x
_atom_site_fract_y
_atom_site_fract_z
Si Si1 0.617606 0.636290 0.715834
Si Si2 0.630691 0.363710 0.060137
Si Si3 0.742429 0.498346 0.649588
Si Si4 0.022364 0.455336 0.725139
Si Si5 0.629131 0.863890 0.288238
Si Si6 0.382074 0.864356 0.519794
O O1 0.616416 0.750000 0.779316
O O2 0.690669 0.574235 0.762087
O O3 0.549631 0.568984 0.774049
O O4 0.619597 0.638513 0.501041
O O5 0.646923 0.250000 0.014719
O O6 0.703582 0.427888 0.045928
O O7 0.569314 0.402753 0.928195
O O8 0.610227 0.367311 0.268672
O O9 0.797766 0.420829 0.738018
O O10 0.685072 0.432114 0.540826
O O11 0.050207 0.408539 0.911663
O O12 0.938744 0.425273 0.709445
O O13 0.628624 0.750000 0.225499
O O14 0.371405 0.750000 0.467775
#
# Coordination Sequence:
#
# PCOD9467073 Si02
#       6
#     8   8   8   8   8   8
#     4  10  24  44  73 110 153 200 255 313 376 447
#     4  11  25  44  71 107 147 191 248 310 371 446
#     4  11  23  42  67 104 151 198 250 310 367 438
#     4  11  24  47  80 110 151 196 245 306 384 449
#     4  11  24  46  78 117 154 197 251 311 376 452
#     4  10  23  43  72 106 146 197 251 307 376 449
#
# _framework density 25.774806000000002
#
# number of rings (size 3 to 8) (size 9 to 14) (size 15 to 20)
#    0.000    1.333    0.000    5.000    9.333    0.667 
#    0.000    4.167    0.000    6.000    0.000    0.000 
#    0.000    0.000    0.000    0.000    0.000    0.000 
#
# Total GULP energy -269407.749458 kJ/mol
# GULP energy per Si atom -5612.661447 kJ/mol
# Density = 2.571614 g / cm^3
# Si number density = 25.774806 Si / 1000 Ang^3
#
#
#
# Elastic Constant Matrix: (Units=GPa)
#
#
# Indices 1 2 3 4 5 6 
#
# 1 160.5433 81.5684 38.4991 0.0000 0.0000 0.0000
# 2 81.5684 277.5297 41.8031 0.0000 0.0000 0.0000
# 3 38.4991 41.8031 93.0672 0.0000 0.0000 0.0000
# 4 0.0000 0.0000 0.0000 39.2154 0.0000 0.0000
# 5 0.0000 0.0000 0.0000 0.0000 41.3127 0.0000
# 6 0.0000 0.0000 0.0000 0.0000 0.0000 10.9056
#
#
#
# Elastic Compliance Matrix: (Units=1/GPa)
#
#
# Indices 1 2 3 4 5 6 
#
# 1 0.007773 -0.001931 -0.002348 0.000000 0.000000 0.000000
# 2 -0.001931 0.004344 -0.001153 0.000000 0.000000 0.000000
# 3 -0.002348 -0.001153 0.012234 0.000000 0.000000 0.000000
# 4 0.000000 0.000000 0.000000 0.025500 0.000000 0.000000
# 5 0.000000 0.000000 0.000000 0.000000 0.024206 0.000000
# 6 0.000000 0.000000 0.000000 0.000000 0.000000 0.091696
#
#
# Mechanical properties :
#
#
# Convention : Reuss Voigt Hill
#
# Bulk Modulus (GPa) = 74.13966 94.98684 84.56325
# Shear Modulus (GPa) = 27.60723 42.90472 35.25597
#
# Velocity S-wave (km/s) = 3.27631 4.08438 3.70245
# Velocity P-wave (km/s) = 6.56804 7.69256 7.15243
#
# Compressibility (1/GPa) = 0.01348806
#
# Stress axis : x y z
#
# Youngs Moduli (GPa) = 128.65094 230.18531 81.73931
#
# Poissons Ratio (x) = 0.44445 0.19194
# Poissons Ratio (y) = 0.24841 0.09421
# Poissons Ratio (z) = 0.30209 0.26531
#
# Static dielectric constant tensor:
#      x y z
#    x 1.985630 0.000000 0.000000 
#    y 0.000000 1.987840 0.000000 
#    z 0.000000 0.000000 2.128880 
# 
# From -- ./inp_files/7669.got.cif
#   From: 2010.05.17/outbox.cif.g08.bks.cpg/sg62_4_cif.got.tgz:7669.got - 2010.06.03 15:25:27.
