data_PCOD9467978
_publ_section_title
;
Structure prediction by ZEFSAII (Michael W. Deem and Ramdas Pophale) SiO2 
 PCOD9467978
Probable space group: P N M A
;
_chemical_formula_sum "Si O2"
_cell_formula_units_Z 48
_cell_length_a 12.000000
_cell_length_b 9.000000
_cell_length_c 24.000000
_cell_angle_alpha 90.000000
_cell_angle_beta 90.000000
_cell_angle_gamma 90.000000
_cell_volume 2592.000000
_symmetry_space_group_name_H-M "P N M A"
_symmetry_group_IT_number 62
_symmetry_cell_setting 'orthorhombic'
loop_
_space_group_symop_operation_xyz
x,y,z
1/2-x,-y,1/2+z
1/2+x,1/2-y,1/2-z
-x,1/2+y,-z
-x,-y,-z
1/2+x,y,1/2-z
1/2-x,1/2+y,1/2+z
x,1/2-y,z
loop_
_atom_site_type_symbol
_atom_site_label
_atom_site_fract_x
_atom_site_fract_y
_atom_site_fract_z
Si Si1 0.430849 0.929419 0.348920
Si Si2 0.666496 0.926401 0.951764
Si Si3 0.330191 0.924955 0.651767
Si Si4 0.764251 0.069169 0.574611
Si Si5 0.852047 0.929005 0.273979
Si Si6 0.009975 0.571486 0.374097
O O1 0.439029 0.750000 0.350107
O O2 0.351974 0.979714 0.399398
O O3 0.377420 0.970075 0.289292
O O4 0.551306 0.999318 0.352551
O O5 0.642055 0.750000 0.955353
O O6 0.762754 0.947130 0.905811
O O7 0.560997 0.009508 0.925790
O O8 0.705359 0.979941 0.012340
O O9 0.340206 0.750000 0.661470
O O10 0.258035 0.998778 0.700690
O O11 0.761573 0.250000 0.573025
O O12 0.863211 0.025456 0.616575
O O13 0.841762 0.750000 0.276595
O O14 0.951658 0.974685 0.316381
O O15 0.005716 0.750000 0.375758
#
# Coordination Sequence:
#
# PCOD9467978 Si02
#       6
#     8   8   8   8   8   8
#     4  10  21  35  55  79 104 137 178 219 258 303
#     4   9  18  34  53  74 104 141 173 207 258 313
#     4  10  21  36  53  74 106 141 173 210 259 315
#     4   9  18  32  52  78 106 135 172 216 260 303
#     4   9  19  34  56  79 101 132 174 219 260 306
#     4   9  17  31  53  80 103 129 170 219 262 302
#
# _framework density 18.518519000000001
#
# number of rings (size 3 to 8) (size 9 to 14) (size 15 to 20)
#    0.000    2.667    0.000    1.000    2.333    2.000 
#    0.000    1.667    0.000    0.000    0.000    0.000 
#    0.000    0.000    0.000    0.000    0.000    0.000 
#
# Total GULP energy -267711.641655 kJ/mol
# GULP energy per Si atom -5577.325868 kJ/mol
# Density = 1.847637 g / cm^3
# Si number density = 18.518519 Si / 1000 Ang^3
#
#
#
# Elastic Constant Matrix: (Units=GPa)
#
#
# Indices 1 2 3 4 5 6 
#
# 1 66.6309 17.7024 -20.9749 0.0000 0.0000 0.0000
# 2 17.7024 -1.9620 6.9496 0.0000 0.0000 0.0000
# 3 -20.9749 6.9496 10.2026 0.0000 0.0000 0.0000
# 4 0.0000 0.0000 0.0000 19.0451 0.0000 0.0000
# 5 0.0000 0.0000 0.0000 0.0000 2.5456 0.0000
# 6 0.0000 0.0000 0.0000 0.0000 0.0000 18.5670
#
#
#
# Elastic Compliance Matrix: (Units=1/GPa)
#
#
# Indices 1 2 3 4 5 6 
#
# 1 0.005671 0.027092 -0.006796 0.000000 0.000000 0.000000
# 2 0.027092 -0.019911 0.069260 0.000000 0.000000 0.000000
# 3 -0.006796 0.069260 0.036865 0.000000 0.000000 0.000000
# 4 0.000000 0.000000 0.000000 0.052507 0.000000 0.000000
# 5 0.000000 0.000000 0.000000 0.000000 0.392831 0.000000
# 6 0.000000 0.000000 0.000000 0.000000 0.000000 0.053859
#
#
# Mechanical properties :
#
#
# Convention : Reuss Voigt Hill
#
# Bulk Modulus (GPa) = 4.95694 9.13621 7.04657
# Shear Modulus (GPa) = 12.19648 12.77785 12.48716
#
# Velocity S-wave (km/s) = 2.56912 2.62964 2.59956
# Velocity P-wave (km/s) = 3.38867 3.76355 3.58102
#
# Compressibility (1/GPa) = 0.20173737
#
# Stress axis : x y z
#
# Youngs Moduli (GPa) = 176.34277 -50.22398 27.12615
#
# Poissons Ratio (x) = 1.36069 0.18435
# Poissons Ratio (y) = -4.77756 -1.87876
# Poissons Ratio (z) = 1.19845 3.47851
#
# Static dielectric constant tensor:
#      x y z
#    x 1.632140 0.000000 0.000000 
#    y 0.000000 1.614580 0.000000 
#    z 0.000000 0.000000 1.629560 
# 
# From -- ./inp_files/29215.got.cif
#   From: 2010.05.17/outbox.ucp.g08.bks.cvg/sg62_15_cif.got.tgz:29215.got - 2010.06.11 16:29:25.
