data_PCOD9467733
_publ_section_title
;
Structure prediction by ZEFSAII (Michael W. Deem and Ramdas Pophale) SiO2 
 PCOD9467733
Probable space group: P N M A
;
_chemical_formula_sum "Si O2"
_cell_formula_units_Z 40
_cell_length_a 7.044988
_cell_length_b 9.117119
_cell_length_c 27.123590
_cell_angle_alpha 90.000000
_cell_angle_beta 90.000000
_cell_angle_gamma 90.000000
_cell_volume 1742.148022
_symmetry_space_group_name_H-M "P N M A"
_symmetry_group_IT_number 62
_symmetry_cell_setting 'orthorhombic'
loop_
_space_group_symop_operation_xyz
x,y,z
1/2-x,-y,1/2+z
1/2+x,1/2-y,1/2-z
-x,1/2+y,-z
-x,-y,-z
1/2+x,y,1/2-z
1/2-x,1/2+y,1/2+z
x,1/2-y,z
loop_
_atom_site_type_symbol
_atom_site_label
_atom_site_fract_x
_atom_site_fract_y
_atom_site_fract_z
Si Si1 0.297981 0.428479 0.985288
Si Si2 0.956972 0.417661 0.709116
Si Si3 0.399635 0.415985 0.683224
Si Si4 0.639083 0.420784 0.113785
Si Si5 0.815563 0.919200 0.911281
O O1 0.308944 0.250000 0.983694
O O2 0.169317 0.472395 0.032338
O O3 0.500000 0.500000 0.000000
O O4 0.261651 0.493825 0.931272
O O5 0.885075 0.250000 0.713898
O O6 0.965174 0.481329 0.764407
O O7 0.842403 0.504629 0.667456
O O8 0.172084 0.409164 0.690647
O O9 0.471698 0.250000 0.678342
O O10 0.424015 0.500369 0.632441
O O11 0.691098 0.250000 0.114740
O O12 0.411134 0.426252 0.101533
O O13 0.869582 0.750000 0.910586
#
# Coordination Sequence:
#
# PCOD9467733 Si02
#       5
#     8   8   8   8   8
#     4   9  15  23  36  56  82 110 137 169 209 252
#     4   9  17  29  43  61  84 111 140 171 205 245
#     4   9  17  28  43  61  83 110 140 170 203 242
#     4   9  16  25  38  58  82 109 138 170 208 250
#     4   8  15  25  37  56  82 108 135 166 204 245
#
# _framework density 22.960163999999999
#
# number of rings (size 3 to 8) (size 9 to 14) (size 15 to 20)
#    0.000    3.200    0.000    2.400    0.000    6.400 
#    0.000    0.000    0.000    0.000    0.000    1.400 
#    0.000    0.000    0.000    0.000    0.000    0.000 
#
# Total GULP energy -223299.831285 kJ/mol
# GULP energy per Si atom -5582.495782 kJ/mol
# Density = 2.290791 g / cm^3
# Si number density = 22.960164 Si / 1000 Ang^3
#
#
#
# Elastic Constant Matrix: (Units=GPa)
#
#
# Indices 1 2 3 4 5 6 
#
# 1 69.0638 0.2664 35.5250 0.0000 0.0000 0.0000
# 2 0.2664 73.6345 92.5830 0.0000 0.0000 0.0000
# 3 35.5250 92.5830 257.5350 0.0000 0.0000 0.0000
# 4 0.0000 0.0000 0.0000 44.7376 0.0000 0.0000
# 5 0.0000 0.0000 0.0000 0.0000 44.4165 0.0000
# 6 0.0000 0.0000 0.0000 0.0000 0.0000 -4.2350
#
#
#
# Elastic Compliance Matrix: (Units=1/GPa)
#
#
# Indices 1 2 3 4 5 6 
#
# 1 0.016587 0.005140 -0.004136 0.000000 0.000000 0.000000
# 2 0.005140 0.026375 -0.010191 0.000000 0.000000 0.000000
# 3 -0.004136 -0.010191 0.008117 0.000000 0.000000 0.000000
# 4 0.000000 0.000000 0.000000 0.022353 0.000000 0.000000
# 5 0.000000 0.000000 0.000000 0.000000 0.022514 0.000000
# 6 0.000000 0.000000 0.000000 0.000000 0.000000 -0.236126
#
#
# Mechanical properties :
#
#
# Convention : Reuss Voigt Hill
#
# Bulk Modulus (GPa) = 30.57523 72.99801 51.78662
# Shear Modulus (GPa) = -45.08366 35.10773 -4.98797
#
# Velocity S-wave (km/s) = -4.43602 3.91458 -1.47552
# Velocity P-wave (km/s) = 3.59056 7.23147 4.43859
#
# Compressibility (1/GPa) = 0.03270621
#
# Stress axis : x y z
#
# Youngs Moduli (GPa) = 60.28824 37.91415 123.19678
#
# Poissons Ratio (x) = -0.19489 0.50954
# Poissons Ratio (y) = -0.30990 1.25549
# Poissons Ratio (z) = 0.24935 0.38638
#
# Static dielectric constant tensor:
#      x y z
#    x 1.953670 0.000000 0.000000 
#    y 0.000000 1.790020 0.000000 
#    z 0.000000 0.000000 1.876960 
# 
# From -- ./inp_files/26440.got.cif
#   From: 2010.05.17/outbox.cif.g08.bks.cpg/sg62_14_cif.got.tgz:26440.got - 2010.06.03 15:25:27.
