data_PCOD9467998
_publ_section_title
;
Structure prediction by ZEFSAII (Michael W. Deem and Ramdas Pophale) SiO2 
 PCOD9467998
Probable space group: P N M A
;
_chemical_formula_sum "Si O2"
_cell_formula_units_Z 48
_cell_length_a 30.000000
_cell_length_b 9.000000
_cell_length_c 9.000000
_cell_angle_alpha 90.000000
_cell_angle_beta 90.000000
_cell_angle_gamma 90.000000
_cell_volume 2430.000000
_symmetry_space_group_name_H-M "P N M A"
_symmetry_group_IT_number 62
_symmetry_cell_setting 'orthorhombic'
loop_
_space_group_symop_operation_xyz
x,y,z
1/2-x,-y,1/2+z
1/2+x,1/2-y,1/2-z
-x,1/2+y,-z
-x,-y,-z
1/2+x,y,1/2-z
1/2-x,1/2+y,1/2+z
x,1/2-y,z
loop_
_atom_site_type_symbol
_atom_site_label
_atom_site_fract_x
_atom_site_fract_y
_atom_site_fract_z
Si Si1 0.541107 0.081317 0.571666
Si Si2 0.958497 0.920921 0.427338
Si Si3 0.359468 0.570427 0.404782
Si Si4 0.132823 0.923641 0.588450
Si Si5 0.213922 0.581455 0.108329
Si Si6 0.701208 0.084169 0.100073
O O1 0.540472 0.250000 0.517805
O O2 0.536134 0.080692 0.749409
O O3 0.590918 0.022971 0.543621
O O4 0.500000 0.000000 0.500000
O O5 0.953020 0.750000 0.476157
O O6 0.915340 0.018573 0.459008
O O7 0.000000 0.000000 0.500000
O O8 0.356368 0.750000 0.410479
O O9 0.354305 0.517186 0.235149
O O10 0.323600 0.490371 0.505296
O O11 0.133050 0.750000 0.623103
O O12 0.165864 0.966697 0.457938
O O13 0.202156 0.750000 0.153017
O O14 0.220157 0.473330 0.246049
O O15 0.259143 0.588610 0.016701
O O16 0.681711 0.250000 0.113626
#
# Coordination Sequence:
#
# PCOD9467998 Si02
#       6
#     8   8   8   8   8   8
#     4   9  20  36  56  82 112 148 188 231 280 336
#     4  10  21  38  58  84 117 153 194 239 291 347
#     4  10  21  39  60  84 117 154 192 237 292 348
#     4  11  22  38  61  87 115 151 196 243 291 345
#     4  11  24  40  61  89 117 150 194 239 286 345
#     4  11  24  41  61  86 118 154 190 235 291 347
#
# _framework density 19.753086
#
# number of rings (size 3 to 8) (size 9 to 14) (size 15 to 20)
#    0.000    1.667    0.000    5.500    0.000   10.667 
#    0.000    3.333    0.000    0.000    0.000    0.000 
#    0.000    0.000    0.000    0.000    0.000    0.000 
#
# Total GULP energy -267972.989808 kJ/mol
# GULP energy per Si atom -5582.770621 kJ/mol
# Density = 1.970813 g / cm^3
# Si number density = 19.753086 Si / 1000 Ang^3
#
#
#
# Elastic Constant Matrix: (Units=GPa)
#
#
# Indices 1 2 3 4 5 6 
#
# 1 56.3896 28.8876 27.8239 0.0000 0.0000 0.0000
# 2 28.8876 69.4452 -0.6575 0.0000 0.0000 0.0000
# 3 27.8239 -0.6575 17.9259 0.0000 0.0000 0.0000
# 4 0.0000 0.0000 0.0000 19.6844 0.0000 0.0000
# 5 0.0000 0.0000 0.0000 0.0000 26.1172 0.0000
# 6 0.0000 0.0000 0.0000 0.0000 0.0000 22.2027
#
#
#
# Elastic Compliance Matrix: (Units=1/GPa)
#
#
# Indices 1 2 3 4 5 6 
#
# 1 3.153367 -1.358541 -4.944380 0.000000 0.000000 0.000000
# 2 -1.358541 0.599695 2.130678 0.000000 0.000000 0.000000
# 3 -4.944380 2.130678 7.808435 0.000000 0.000000 0.000000
# 4 0.000000 0.000000 0.000000 0.050802 0.000000 0.000000
# 5 0.000000 0.000000 0.000000 0.000000 0.038289 0.000000
# 6 0.000000 0.000000 0.000000 0.000000 0.000000 0.045040
#
#
# Mechanical properties :
#
#
# Convention : Reuss Voigt Hill
#
# Bulk Modulus (GPa) = 0.31085 28.42985 14.37035
# Shear Modulus (GPa) = 0.23683 19.44796 9.84239
#
# Velocity S-wave (km/s) = 0.34663 3.14116 2.23462
# Velocity P-wave (km/s) = 0.56384 5.25164 3.73481
#
# Compressibility (1/GPa) = 3.21701151
#
# Stress axis : x y z
#
# Youngs Moduli (GPa) = 0.31712 1.66751 0.12807
#
# Poissons Ratio (x) = 2.26539 0.63321
# Poissons Ratio (y) = 0.43082 -0.27287
# Poissons Ratio (z) = 1.56797 -3.55294
#
# Static dielectric constant tensor:
#      x y z
#    x 1.648840 0.000000 0.000000 
#    y 0.000000 1.675500 0.000000 
#    z 0.000000 0.000000 1.682830 
# 
# From -- ./inp_files/10249.got.cif
#   From: 2010.05.17/outbox.ucp.g08.bks.cvg/sg62_6_cif.got.tgz:10249.got - 2010.06.11 16:29:25.
