data_PCOD9467854
_publ_section_title
;
Structure prediction by ZEFSAII (Michael W. Deem and Ramdas Pophale) SiO2 
 PCOD9467854
Probable space group: P N M A
;
_chemical_formula_sum "Si O2"
_cell_formula_units_Z 64
_cell_length_a 21.000000
_cell_length_b 9.000000
_cell_length_c 18.000000
_cell_angle_alpha 90.000000
_cell_angle_beta 90.000000
_cell_angle_gamma 90.000000
_cell_volume 3402.000000
_symmetry_space_group_name_H-M "P N M A"
_symmetry_group_IT_number 62
_symmetry_cell_setting 'orthorhombic'
loop_
_space_group_symop_operation_xyz
x,y,z
1/2-x,-y,1/2+z
1/2+x,1/2-y,1/2-z
-x,1/2+y,-z
-x,-y,-z
1/2+x,y,1/2-z
1/2-x,1/2+y,1/2+z
x,1/2-y,z
loop_
_atom_site_type_symbol
_atom_site_label
_atom_site_fract_x
_atom_site_fract_y
_atom_site_fract_z
Si Si1 0.313463 0.073315 0.077131
Si Si2 0.528280 0.427656 0.715178
Si Si3 0.957610 0.428935 0.936643
Si Si4 0.161477 0.924643 0.753157
Si Si5 0.915914 0.417961 0.680275
Si Si6 0.314980 0.427723 0.590902
Si Si7 0.434662 0.083604 0.993491
Si Si8 0.799527 0.573210 0.748069
O O1 0.306657 0.250000 0.063421
O O2 0.328316 0.054034 0.164581
O O3 0.248154 0.994699 0.054286
O O4 0.374533 0.013016 0.034163
O O5 0.535042 0.250000 0.714736
O O6 0.488443 0.472147 0.642313
O O7 0.598335 0.494948 0.719831
O O8 0.482915 0.467830 0.784470
O O9 0.959757 0.250000 0.941448
O O10 0.883522 0.473751 0.941085
O O11 0.000000 0.500000 0.000000
O O12 0.152963 0.750000 0.767301
O O13 0.230541 0.971550 0.784806
O O14 0.902941 0.250000 0.710823
O O15 0.920352 0.406834 0.592947
O O16 0.859019 0.527227 0.699355
O O17 0.311989 0.250000 0.591116
O O18 0.311304 0.489672 0.674525
O O19 0.442030 0.250000 0.024985
O O20 0.500000 0.000000 0.000000
O O21 0.796797 0.750000 0.761710
#
# Coordination Sequence:
#
# PCOD9467854 Si02
#       8
#     8   8   8   8   8   8   8   8
#     4   9  19  36  55  82 118 150 188 230 270 325
#     4  10  20  36  56  81 110 139 180 228 273 326
#     4  10  22  39  57  80 109 142 181 231 280 332
#     4   9  19  34  53  80 112 144 180 223 268 320
#     4  10  20  36  57  81 112 147 186 230 274 328
#     4  10  19  36  60  82 108 143 185 230 275 328
#     4  10  21  36  56  82 116 153 188 232 279 329
#     4  10  20  35  56  82 110 142 182 228 274 326
#
# _framework density 18.812463000000001
#
# number of rings (size 3 to 8) (size 9 to 14) (size 15 to 20)
#    0.000    2.250    1.250    2.250    0.000    5.500 
#    2.250    0.000    0.000    0.000    0.000    0.000 
#    0.000    0.000    0.000    0.000    0.000    0.000 
#
# Total GULP energy -356751.398463 kJ/mol
# GULP energy per Si atom -5574.240601 kJ/mol
# Density = 1.876965 g / cm^3
# Si number density = 18.812463 Si / 1000 Ang^3
#
#
#
# Elastic Constant Matrix: (Units=GPa)
#
#
# Indices 1 2 3 4 5 6 
#
# 1 183.3020 54.8563 16.1985 0.0000 0.0000 0.0000
# 2 54.8563 33.9853 9.1070 0.0000 0.0000 0.0000
# 3 16.1985 9.1070 3.1177 0.0000 0.0000 0.0000
# 4 0.0000 0.0000 0.0000 17.7926 0.0000 0.0000
# 5 0.0000 0.0000 0.0000 0.0000 28.9397 0.0000
# 6 0.0000 0.0000 0.0000 0.0000 0.0000 36.2242
#
#
#
# Elastic Compliance Matrix: (Units=1/GPa)
#
#
# Indices 1 2 3 4 5 6 
#
# 1 0.010936 -0.011167 -0.024200 0.000000 0.000000 0.000000
# 2 -0.011167 0.146842 -0.370912 0.000000 0.000000 0.000000
# 3 -0.024200 -0.370912 1.529931 0.000000 0.000000 0.000000
# 4 0.000000 0.000000 0.000000 0.056203 0.000000 0.000000
# 5 0.000000 0.000000 0.000000 0.000000 0.034555 0.000000
# 6 0.000000 0.000000 0.000000 0.000000 0.000000 0.027606
#
#
# Mechanical properties :
#
#
# Convention : Reuss Voigt Hill
#
# Bulk Modulus (GPa) = 1.14266 42.30317 21.72291
# Shear Modulus (GPa) = 1.71801 25.94086 13.82943
#
# Velocity S-wave (km/s) = 0.95667 3.71741 2.71425
# Velocity P-wave (km/s) = 1.35240 6.40009 4.62548
#
# Compressibility (1/GPa) = 0.87515259
#
# Stress axis : x y z
#
# Youngs Moduli (GPa) = 91.44099 6.81003 0.65362
#
# Poissons Ratio (x) = 0.07605 0.01582
# Poissons Ratio (y) = 1.02115 0.24244
# Poissons Ratio (z) = 2.21283 2.52592
#
# Static dielectric constant tensor:
#      x y z
#    x 1.669310 0.000000 0.000000 
#    y 0.000000 1.662030 0.000000 
#    z 0.000000 0.000000 1.650890 
# 
# From -- ./inp_files/24713.got.cif
#   From: 2010.05.17/outbox.ucp.g08.bks.cvg/sg62_13_cif.got.tgz:24713.got - 2010.06.11 16:29:25.
