data_PCOD9467244
_publ_section_title
;
Structure prediction by ZEFSAII (Michael W. Deem and Ramdas Pophale) SiO2 
 PCOD9467244
Probable space group: P N M A
;
_chemical_formula_sum "Si O2"
_cell_formula_units_Z 32
_cell_length_a 6.880845
_cell_length_b 23.362012
_cell_length_c 7.560831
_cell_angle_alpha 90.000000
_cell_angle_beta 90.000000
_cell_angle_gamma 90.000000
_cell_volume 1215.406483
_symmetry_space_group_name_H-M "P N M A"
_symmetry_group_IT_number 62
_symmetry_cell_setting 'orthorhombic'
loop_
_space_group_symop_operation_xyz
x,y,z
1/2-x,-y,1/2+z
1/2+x,1/2-y,1/2-z
-x,1/2+y,-z
-x,-y,-z
1/2+x,y,1/2-z
1/2-x,1/2+y,1/2+z
x,1/2-y,z
loop_
_atom_site_type_symbol
_atom_site_label
_atom_site_fract_x
_atom_site_fract_y
_atom_site_fract_z
Si Si1 0.722265 0.475724 0.017571
Si Si2 0.601718 0.135259 0.894078
Si Si3 0.765405 0.589738 0.886387
Si Si4 0.019549 0.684951 0.013159
O O1 0.762862 0.442318 0.199507
O O2 0.500000 0.500000 0.000000
O O3 0.724447 0.424286 0.875070
O O4 0.838437 0.534625 0.997704
O O5 0.748969 0.177938 0.991232
O O6 0.541845 0.163565 0.709811
O O7 0.417799 0.117919 0.013242
O O8 0.919601 0.640495 0.881660
O O9 0.958835 0.750000 0.985664
#
# Coordination Sequence:
#
# PCOD9467244 Si02
#       4
#     8   8   8   8
#     4  10  25  47  80 117 152 198 251 328 402 472
#     4  11  25  45  75 112 149 200 256 315 390 467
#     4  11  25  49  76 114 159 200 255 325 396 464
#     4  12  26  47  77 107 152 214 266 316 379 467
#
# _framework density 26.328638000000002
#
# number of rings (size 3 to 8) (size 9 to 14) (size 15 to 20)
#    0.000    1.000    2.500    2.250   10.500    2.000 
#    0.000    2.500    0.000    0.000    0.000    0.000 
#    0.000    0.000    0.000    0.000    0.000    0.000 
#
# Total GULP energy -179201.595100 kJ/mol
# GULP energy per Si atom -5600.049847 kJ/mol
# Density = 2.626871 g / cm^3
# Si number density = 26.328638 Si / 1000 Ang^3
#
#
#
# Elastic Constant Matrix: (Units=GPa)
#
#
# Indices 1 2 3 4 5 6 
#
# 1 81.6121 51.2747 27.1205 0.0000 0.0000 0.0000
# 2 51.2747 245.0618 69.8837 0.0000 0.0000 0.0000
# 3 27.1205 69.8837 149.9231 0.0000 0.0000 0.0000
# 4 0.0000 0.0000 0.0000 35.0405 0.0000 0.0000
# 5 0.0000 0.0000 0.0000 0.0000 36.6568 0.0000
# 6 0.0000 0.0000 0.0000 0.0000 0.0000 42.3908
#
#
#
# Elastic Compliance Matrix: (Units=1/GPa)
#
#
# Indices 1 2 3 4 5 6 
#
# 1 0.014351 -0.002609 -0.001380 0.000000 0.000000 0.000000
# 2 -0.002609 0.005181 -0.001943 0.000000 0.000000 0.000000
# 3 -0.001380 -0.001943 0.007825 0.000000 0.000000 0.000000
# 4 0.000000 0.000000 0.000000 0.028538 0.000000 0.000000
# 5 0.000000 0.000000 0.000000 0.000000 0.027280 0.000000
# 6 0.000000 0.000000 0.000000 0.000000 0.000000 0.023590
#
#
# Mechanical properties :
#
#
# Convention : Reuss Voigt Hill
#
# Bulk Modulus (GPa) = 64.54478 85.90609 75.22543
# Shear Modulus (GPa) = 40.38992 44.70549 42.54771
#
# Velocity S-wave (km/s) = 3.92097 4.12512 4.02434
# Velocity P-wave (km/s) = 6.71319 7.44232 7.08714
#
# Compressibility (1/GPa) = 0.01549312
#
# Stress axis : x y z
#
# Youngs Moduli (GPa) = 69.68208 193.02936 127.79072
#
# Poissons Ratio (x) = 0.50365 0.17633
# Poissons Ratio (y) = 0.18181 0.24827
# Poissons Ratio (z) = 0.09615 0.37502
#
# Static dielectric constant tensor:
#      x y z
#    x 2.237130 0.000000 0.000000 
#    y 0.000000 2.022880 0.000000 
#    z 0.000000 0.000000 2.117910 
# 
# From -- ./inp_files/4134.got.cif
#   From: 2010.05.17/outbox.cif.g08.bks.cpg/sg62_3_cif.got.tgz:4134.got - 2010.06.03 15:25:27.
