data_PCOD9467674
_publ_section_title
;
Structure prediction by ZEFSAII (Michael W. Deem and Ramdas Pophale) SiO2 
 PCOD9467674
Probable space group: P N M A
;
_chemical_formula_sum "Si O2"
_cell_formula_units_Z 32
_cell_length_a 4.697365
_cell_length_b 14.264095
_cell_length_c 19.652574
_cell_angle_alpha 90.000000
_cell_angle_beta 90.000000
_cell_angle_gamma 90.000000
_cell_volume 1316.794398
_symmetry_space_group_name_H-M "P N M A"
_symmetry_group_IT_number 62
_symmetry_cell_setting 'orthorhombic'
loop_
_space_group_symop_operation_xyz
x,y,z
1/2-x,-y,1/2+z
1/2+x,1/2-y,1/2-z
-x,1/2+y,-z
-x,-y,-z
1/2+x,y,1/2-z
1/2-x,1/2+y,1/2+z
x,1/2-y,z
loop_
_atom_site_type_symbol
_atom_site_label
_atom_site_fract_x
_atom_site_fract_y
_atom_site_fract_z
Si Si1 0.901883 0.588964 0.202200
Si Si2 0.830070 0.909319 0.973340
Si Si3 0.283905 0.750000 0.410755
Si Si4 0.607508 0.750000 0.793127
Si Si5 0.184098 0.409876 0.378429
O O1 0.725348 0.596170 0.272597
O O2 0.831047 0.669060 0.148393
O O3 0.821452 0.491319 0.166889
O O4 0.059608 0.864797 0.921240
O O5 0.754893 0.833354 0.030547
O O6 0.446784 0.056777 0.067502
O O7 0.000000 0.000000 0.000000
O O8 0.939858 0.750000 0.778655
O O9 0.493363 0.659949 0.831786
#
# Coordination Sequence:
#
# PCOD9467674 Si02
#       5
#     8   8   4   4   8
#     4  12  27  47  73 106 146 194 238 297 361 435
#     4  12  26  47  73 108 140 191 236 307 359 423
#     4  12  28  47  76 105 153 184 248 300 368 444
#     4  12  24  43  72 105 143 190 236 288 354 428
#     4  12  25  48  73 106 147 185 248 294 362 428
#
# _framework density 24.301441000000001
#
# number of rings (size 3 to 8) (size 9 to 14) (size 15 to 20)
#    0.000    0.000    2.500    7.500    0.000    2.000 
#    0.000    0.000    0.000    0.000    0.000    0.000 
#    0.000    0.000    0.000    0.000    0.000    0.000 
#
# Total GULP energy -178319.340862 kJ/mol
# GULP energy per Si atom -5572.479402 kJ/mol
# Density = 2.424613 g / cm^3
# Si number density = 24.301441 Si / 1000 Ang^3
#
#
#
# Elastic Constant Matrix: (Units=GPa)
#
#
# Indices 1 2 3 4 5 6 
#
# 1 73.8448 -39.5738 -10.1564 0.0000 0.0000 0.0000
# 2 -39.5738 110.6763 11.4419 0.0000 0.0000 0.0000
# 3 -10.1564 11.4419 95.4547 0.0000 0.0000 0.0000
# 4 0.0000 0.0000 0.0000 67.0226 0.0000 0.0000
# 5 0.0000 0.0000 0.0000 0.0000 29.0656 0.0000
# 6 0.0000 0.0000 0.0000 0.0000 0.0000 0.3777
#
#
#
# Elastic Compliance Matrix: (Units=1/GPa)
#
#
# Indices 1 2 3 4 5 6 
#
# 1 0.016862 0.005917 0.001085 0.000000 0.000000 0.000000
# 2 0.005917 0.011225 -0.000716 0.000000 0.000000 0.000000
# 3 0.001085 -0.000716 0.010677 0.000000 0.000000 0.000000
# 4 0.000000 0.000000 0.000000 0.014920 0.000000 0.000000
# 5 0.000000 0.000000 0.000000 0.000000 0.034405 0.000000
# 6 0.000000 0.000000 0.000000 0.000000 0.000000 2.647681
#
#
# Mechanical properties :
#
#
# Convention : Reuss Voigt Hill
#
# Bulk Modulus (GPa) = 19.47918 22.59989 21.03953
# Shear Modulus (GPa) = 1.82461 40.51078 21.16770
#
# Velocity S-wave (km/s) = 0.86744 4.08733 2.95455
# Velocity P-wave (km/s) = 3.00605 5.62095 4.50729
#
# Compressibility (1/GPa) = 0.05133686
#
# Stress axis : x y z
#
# Youngs Moduli (GPa) = 59.30440 89.08583 93.65554
#
# Poissons Ratio (x) = -0.52713 -0.10160
# Poissons Ratio (y) = -0.35091 0.06705
# Poissons Ratio (z) = -0.06434 0.06378
#
# Static dielectric constant tensor:
#      x y z
#    x 1.920080 0.000000 0.000000 
#    y 0.000000 1.885240 0.000000 
#    z 0.000000 0.000000 1.976890 
# 
# From -- ./inp_files/21419.got.cif
#   From: 2010.05.17/outbox.cif.g08.bks.cpg/sg62_11_cif.got.tgz:21419.got - 2010.06.03 15:25:27.
