data_PCOD9467527
_publ_section_title
;
Structure prediction by ZEFSAII (Michael W. Deem and Ramdas Pophale) SiO2 
 PCOD9467527
Probable space group: P N M A
;
_chemical_formula_sum "Si O2"
_cell_formula_units_Z 40
_cell_length_a 9.163723
_cell_length_b 11.407123
_cell_length_c 16.024753
_cell_angle_alpha 90.000000
_cell_angle_beta 90.000000
_cell_angle_gamma 90.000000
_cell_volume 1675.094920
_symmetry_space_group_name_H-M "P N M A"
_symmetry_group_IT_number 62
_symmetry_cell_setting 'orthorhombic'
loop_
_space_group_symop_operation_xyz
x,y,z
1/2-x,-y,1/2+z
1/2+x,1/2-y,1/2-z
-x,1/2+y,-z
-x,-y,-z
1/2+x,y,1/2-z
1/2-x,1/2+y,1/2+z
x,1/2-y,z
loop_
_atom_site_type_symbol
_atom_site_label
_atom_site_fract_x
_atom_site_fract_y
_atom_site_fract_z
Si Si1 0.762570 0.470432 0.101600
Si Si2 0.520813 0.880785 0.390433
Si Si3 0.823297 0.504134 0.427704
Si Si4 0.792912 0.250000 0.354474
Si Si5 0.939180 0.250000 0.170902
Si Si6 0.450246 0.117763 0.804716
O O1 0.871469 0.572966 0.072603
O O2 0.863338 0.362183 0.126910
O O3 0.672391 0.520144 0.179393
O O4 0.653739 0.457117 0.023805
O O5 0.553635 0.750000 0.418904
O O6 0.501268 0.883045 0.290675
O O7 0.656361 0.960914 0.410461
O O8 0.836471 0.367562 0.404503
O O9 0.919089 0.582509 0.365403
O O10 0.882858 0.250000 0.266954
O O11 0.615990 0.250000 0.336854
O O12 0.396737 0.250000 0.823526
#
# Coordination Sequence:
#
# PCOD9467527 Si02
#       6
#     8   8   8   4   4   8
#     4  12  27  44  71 103 145 182 234 296 353 417
#     4  11  23  43  75  97 133 181 237 291 347 419
#     4  12  27  44  71 103 145 182 234 296 353 417
#     4  12  28  48  76 106 145 191 238 288 357 437
#     4  12  28  48  76 106 145 191 238 288 357 437
#     4  11  25  47  71 101 137 185 235 289 353 421
#
# _framework density 23.879244
#
# number of rings (size 3 to 8) (size 9 to 14) (size 15 to 20)
#    0.000    0.400    2.000    6.000    8.400    3.200 
#    0.000    0.000    0.000    0.000    0.000    0.000 
#    0.000    0.000    0.000    0.000    0.000    0.000 
#
# Total GULP energy -224090.562964 kJ/mol
# GULP energy per Si atom -5602.264074 kJ/mol
# Density = 2.382489 g / cm^3
# Si number density = 23.879244 Si / 1000 Ang^3
#
#
#
# Elastic Constant Matrix: (Units=GPa)
#
#
# Indices 1 2 3 4 5 6 
#
# 1 69.5502 1.4421 10.9760 0.0000 0.0000 0.0000
# 2 1.4421 106.8423 37.2660 0.0000 0.0000 0.0000
# 3 10.9760 37.2660 83.7977 0.0000 0.0000 0.0000
# 4 0.0000 0.0000 0.0000 4.0001 0.0000 0.0000
# 5 0.0000 0.0000 0.0000 0.0000 34.9966 0.0000
# 6 0.0000 0.0000 0.0000 0.0000 0.0000 37.4953
#
#
#
# Elastic Compliance Matrix: (Units=1/GPa)
#
#
# Indices 1 2 3 4 5 6 
#
# 1 0.014710 0.000560 -0.002176 0.000000 0.000000 0.000000
# 2 0.000560 0.011099 -0.005009 0.000000 0.000000 0.000000
# 3 -0.002176 -0.005009 0.014446 0.000000 0.000000 0.000000
# 4 0.000000 0.000000 0.000000 0.249993 0.000000 0.000000
# 5 0.000000 0.000000 0.000000 0.000000 0.028574 0.000000
# 6 0.000000 0.000000 0.000000 0.000000 0.000000 0.026670
#
#
# Mechanical properties :
#
#
# Convention : Reuss Voigt Hill
#
# Bulk Modulus (GPa) = 37.02943 39.95091 38.49017
# Shear Modulus (GPa) = 13.59640 29.33214 21.46427
#
# Velocity S-wave (km/s) = 2.38876 3.50859 3.00136
# Velocity P-wave (km/s) = 4.81133 5.76023 5.30703
#
# Compressibility (1/GPa) = 0.02700554
#
# Stress axis : x y z
#
# Youngs Moduli (GPa) = 67.98153 90.09599 69.22206
#
# Poissons Ratio (x) = -0.05049 0.15062
# Poissons Ratio (y) = -0.03810 0.34676
# Poissons Ratio (z) = 0.14792 0.45133
#
# Static dielectric constant tensor:
#      x y z
#    x 1.890320 0.000000 0.000000 
#    y 0.000000 1.872020 0.000000 
#    z 0.000000 0.000000 2.015570 
# 
# From -- ./inp_files/21930.got.cif
#   From: 2010.05.17/outbox.cif.g08.bks.cpg/sg62_11_cif.got.tgz:21930.got - 2010.06.03 15:25:27.
