data_PCOD9467473
_publ_section_title
;
Structure prediction by ZEFSAII (Michael W. Deem and Ramdas Pophale) SiO2 
 PCOD9467473
Probable space group: P N M A
;
_chemical_formula_sum "Si O2"
_cell_formula_units_Z 36
_cell_length_a 24.858080
_cell_length_b 9.838102
_cell_length_c 6.845521
_cell_angle_alpha 90.000000
_cell_angle_beta 90.000000
_cell_angle_gamma 90.000000
_cell_volume 1674.115469
_symmetry_space_group_name_H-M "P N M A"
_symmetry_group_IT_number 62
_symmetry_cell_setting 'orthorhombic'
loop_
_space_group_symop_operation_xyz
x,y,z
1/2-x,-y,1/2+z
1/2+x,1/2-y,1/2-z
-x,1/2+y,-z
-x,-y,-z
1/2+x,y,1/2-z
1/2-x,1/2+y,1/2+z
x,1/2-y,z
loop_
_atom_site_type_symbol
_atom_site_label
_atom_site_fract_x
_atom_site_fract_y
_atom_site_fract_z
Si Si1 0.777899 0.750000 0.647850
Si Si2 0.157707 0.043620 0.604052
Si Si3 0.929111 0.250000 0.854041
Si Si4 0.041230 0.250000 0.065933
Si Si5 0.344316 0.250000 0.285575
Si Si6 0.335263 0.750000 0.439261
Si Si7 0.553602 0.019854 0.123216
O O1 0.802133 0.613239 0.550304
O O2 0.714465 0.750000 0.618360
O O3 0.797921 0.750000 0.871488
O O4 0.172709 0.118402 0.805007
O O5 0.099119 0.080889 0.518166
O O6 0.154717 0.884644 0.651851
O O7 0.922472 0.383953 0.722098
O O8 0.890868 0.250000 0.047067
O O9 0.991742 0.250000 0.918711
O O10 0.037812 0.381081 0.202304
O O11 0.101536 0.250000 0.986873
O O12 0.500000 0.000000 0.000000
#
# Coordination Sequence:
#
# PCOD9467473 Si02
#       7
#     4   8   4   4   4   4   8
#     4  11  27  48  72  99 135 197 238 302 348 433
#     4  11  25  47  70 105 139 181 243 289 358 426
#     4  12  26  41  66 110 146 188 232 294 372 420
#     4  12  21  41  70  96 137 186 230 274 351 430
#     4  12  28  45  71 102 147 181 239 302 369 415
#     4  11  22  47  73 103 133 184 247 284 352 432
#     4  12  23  42  68 102 147 181 231 293 352 425
#
# _framework density 21.503893999999999
#
# number of rings (size 3 to 8) (size 9 to 14) (size 15 to 20)
#    0.000    0.444    2.222    6.667    3.111    0.000 
#    4.000    0.000    0.000    0.000    0.000    0.000 
#    0.000    0.000    0.000    0.000    0.000    0.000 
#
# Total GULP energy -201329.086611 kJ/mol
# GULP energy per Si atom -5592.474628 kJ/mol
# Density = 2.145495 g / cm^3
# Si number density = 21.503894 Si / 1000 Ang^3
#
#
#
# Elastic Constant Matrix: (Units=GPa)
#
#
# Indices 1 2 3 4 5 6 
#
# 1 56.9995 -24.5411 -21.2007 0.0000 0.0000 0.0000
# 2 -24.5411 128.2566 35.8109 0.0000 0.0000 0.0000
# 3 -21.2007 35.8109 79.1747 0.0000 0.0000 0.0000
# 4 0.0000 0.0000 0.0000 -2.6008 0.0000 0.0000
# 5 0.0000 0.0000 0.0000 0.0000 20.5900 0.0000
# 6 0.0000 0.0000 0.0000 0.0000 0.0000 44.5345
#
#
#
# Elastic Compliance Matrix: (Units=1/GPa)
#
#
# Indices 1 2 3 4 5 6 
#
# 1 0.020273 0.002705 0.004205 0.000000 0.000000 0.000000
# 2 0.002705 0.009285 -0.003475 0.000000 0.000000 0.000000
# 3 0.004205 -0.003475 0.015328 0.000000 0.000000 0.000000
# 4 0.000000 0.000000 0.000000 -0.384500 0.000000 0.000000
# 5 0.000000 0.000000 0.000000 0.000000 0.048567 0.000000
# 6 0.000000 0.000000 0.000000 0.000000 0.000000 0.022454
#
#
# Mechanical properties :
#
#
# Convention : Reuss Voigt Hill
#
# Bulk Modulus (GPa) = 19.32183 27.17434 23.24809
# Shear Modulus (GPa) = -19.36401 30.79553 5.71576
#
# Velocity S-wave (km/s) = -3.00407 3.78840 1.63211
# Velocity P-wave (km/s) = 1.74006 5.63918 3.79293
#
# Compressibility (1/GPa) = 0.05175494
#
# Stress axis : x y z
#
# Youngs Moduli (GPa) = 49.32757 107.70325 65.23966
#
# Poissons Ratio (x) = -0.29133 -0.27433
# Poissons Ratio (y) = -0.13343 0.22672
# Poissons Ratio (z) = -0.20742 0.37429
#
# Static dielectric constant tensor:
#      x y z
#    x 1.272040 0.000000 0.000000 
#    y 0.000000 1.821680 0.000000 
#    z 0.000000 0.000000 1.746390 
# 
# From -- ./inp_files/2601.got.cif
#   From: 2010.05.17/outbox.cif.g08.bks.cpg/sg62_2_cif.got.tgz:2601.got - 2010.06.03 15:25:27.
