data_PCOD9467114
_publ_section_title
;
Structure prediction by ZEFSAII (Michael W. Deem and Ramdas Pophale) SiO2 
 PCOD9467114
Probable space group: P N M A
;
_chemical_formula_sum "Si O2"
_cell_formula_units_Z 32
_cell_length_a 10.015318
_cell_length_b 16.139265
_cell_length_c 7.143898
_cell_angle_alpha 90.000000
_cell_angle_beta 90.000000
_cell_angle_gamma 90.000000
_cell_volume 1154.738753
_symmetry_space_group_name_H-M "P N M A"
_symmetry_group_IT_number 62
_symmetry_cell_setting 'orthorhombic'
loop_
_space_group_symop_operation_xyz
x,y,z
1/2-x,-y,1/2+z
1/2+x,1/2-y,1/2-z
-x,1/2+y,-z
-x,-y,-z
1/2+x,y,1/2-z
1/2-x,1/2+y,1/2+z
x,1/2-y,z
loop_
_atom_site_type_symbol
_atom_site_label
_atom_site_fract_x
_atom_site_fract_y
_atom_site_fract_z
Si Si1 0.722455 0.025360 0.456332
Si Si2 0.984460 0.589808 0.638564
Si Si3 0.863602 0.338494 0.039406
Si Si4 0.600083 0.341629 0.739277
O O1 0.880887 0.038069 0.417083
O O2 0.620759 0.045315 0.282496
O O3 0.681789 0.090380 0.619733
O O4 0.691509 0.931889 0.518768
O O5 0.046445 0.657964 0.776097
O O6 0.042341 0.664141 0.140321
O O7 0.789482 0.250000 0.055889
O O8 0.071907 0.366931 0.547395
O O9 0.661476 0.250000 0.717071
#
# Coordination Sequence:
#
# PCOD9467114 Si02
#       4
#     8   8   8   8
#     4  11  27  49  82 119 163 214 274 337 412 493
#     4  11  25  49  82 116 162 217 266 342 413 482
#     4  10  24  49  76 115 160 213 276 333 403 492
#     4  10  23  45  76 115 158 208 268 328 400 486
#
# _framework density 27.711894999999998
#
# number of rings (size 3 to 8) (size 9 to 14) (size 15 to 20)
#    0.000    1.500    0.000    3.750    3.500   11.000 
#    0.000    3.750    0.000    0.000    0.000    0.000 
#    0.000    0.000    0.000    0.000    0.000    0.000 
#
# Total GULP energy -179063.798756 kJ/mol
# GULP energy per Si atom -5595.743711 kJ/mol
# Density = 2.764882 g / cm^3
# Si number density = 27.711895 Si / 1000 Ang^3
#
#
#
# Elastic Constant Matrix: (Units=GPa)
#
#
# Indices 1 2 3 4 5 6 
#
# 1 164.7081 118.9000 77.9263 0.0000 0.0000 0.0000
# 2 118.9000 312.6469 109.0344 0.0000 0.0000 0.0000
# 3 77.9263 109.0344 249.3445 0.0000 0.0000 0.0000
# 4 0.0000 0.0000 0.0000 -155.5560 0.0000 0.0000
# 5 0.0000 0.0000 0.0000 0.0000 61.9966 0.0000
# 6 0.0000 0.0000 0.0000 0.0000 0.0000 16.9481
#
#
#
# Elastic Compliance Matrix: (Units=1/GPa)
#
#
# Indices 1 2 3 4 5 6 
#
# 1 0.008834 -0.002828 -0.001524 0.000000 0.000000 0.000000
# 2 -0.002828 0.004679 -0.001162 0.000000 0.000000 0.000000
# 3 -0.001524 -0.001162 0.004995 0.000000 0.000000 0.000000
# 4 0.000000 0.000000 0.000000 -0.006429 0.000000 0.000000
# 5 0.000000 0.000000 0.000000 0.000000 0.016130 0.000000
# 6 0.000000 0.000000 0.000000 0.000000 0.000000 0.059004
#
#
# Mechanical properties :
#
#
# Convention : Reuss Voigt Hill
#
# Bulk Modulus (GPa) = 133.70217 148.71343 141.20780
# Shear Modulus (GPa) = 49.63471 12.73365 31.18418
#
# Velocity S-wave (km/s) = 4.23673 2.14592 3.35819
# Velocity P-wave (km/s) = 8.50206 7.74084 8.13037
#
# Compressibility (1/GPa) = 0.00747931
#
# Stress axis : x y z
#
# Youngs Moduli (GPa) = 113.19956 213.70383 200.19395
#
# Poissons Ratio (x) = 0.60436 0.30513
# Poissons Ratio (y) = 0.32013 0.23270
# Poissons Ratio (z) = 0.17254 0.24841
#
# Static dielectric constant tensor:
#      x y z
#    x 2.259820 0.000000 0.000000 
#    y 0.000000 2.154080 0.000000 
#    z 0.000000 0.000000 2.226780 
# 
# From -- ./inp_files/4894.got.cif
#   From: 2010.05.17/outbox.cif.g08.bks.cpg/sg62_3_cif.got.tgz:4894.got - 2010.06.03 15:25:27.
