data_PCOD9467521
_publ_section_title
;
Structure prediction by ZEFSAII (Michael W. Deem and Ramdas Pophale) SiO2 
 PCOD9467521
Probable space group: P N M A
;
_chemical_formula_sum "Si O2"
_cell_formula_units_Z 32
_cell_length_a 9.782770
_cell_length_b 8.690347
_cell_length_c 16.926125
_cell_angle_alpha 90.000000
_cell_angle_beta 90.000000
_cell_angle_gamma 90.000000
_cell_volume 1438.985788
_symmetry_space_group_name_H-M "P N M A"
_symmetry_group_IT_number 62
_symmetry_cell_setting 'orthorhombic'
loop_
_space_group_symop_operation_xyz
x,y,z
1/2-x,-y,1/2+z
1/2+x,1/2-y,1/2-z
-x,1/2+y,-z
-x,-y,-z
1/2+x,y,1/2-z
1/2-x,1/2+y,1/2+z
x,1/2-y,z
loop_
_atom_site_type_symbol
_atom_site_label
_atom_site_fract_x
_atom_site_fract_y
_atom_site_fract_z
Si Si1 0.681190 0.067002 0.666901
Si Si2 0.558431 0.066073 0.238428
Si Si3 0.090533 0.932926 0.571559
Si Si4 0.152197 0.567538 0.000324
O O1 0.689374 0.250000 0.658106
O O2 0.531966 0.014463 0.695021
O O3 0.712058 0.983520 0.584439
O O4 0.792010 0.004909 0.728949
O O5 0.565147 0.250000 0.250980
O O6 0.480725 0.035122 0.155293
O O7 0.098020 0.750000 0.561965
O O8 0.242865 0.000671 0.564249
O O9 0.000000 0.000000 0.500000
O O10 0.146342 0.750000 0.006878
O O11 0.000000 0.500000 0.000000
#
# Coordination Sequence:
#
# PCOD9467521 Si02
#       4
#     8   8   8   8
#     4  12  26  45  69  99 135 175 224 275 329 396
#     4  11  25  45  69  97 135 178 220 271 334 397
#     4  11  23  42  70  99 131 172 218 269 328 394
#     4  12  26  45  69  98 136 176 222 277 335 394
#
# _framework density 22.237884000000001
#
# number of rings (size 3 to 8) (size 9 to 14) (size 15 to 20)
#    0.000    0.500    2.500    6.000    3.500    3.000 
#    0.000    0.000    0.000    0.000    0.000    0.000 
#    0.000    0.000    0.000    0.000    0.000    0.000 
#
# Total GULP energy -179354.477948 kJ/mol
# GULP energy per Si atom -5604.827436 kJ/mol
# Density = 2.218727 g / cm^3
# Si number density = 22.237884 Si / 1000 Ang^3
#
#
#
# Elastic Constant Matrix: (Units=GPa)
#
#
# Indices 1 2 3 4 5 6 
#
# 1 110.8707 -1.0002 -6.8759 0.0000 0.0000 0.0000
# 2 -1.0002 71.1486 12.9798 0.0000 0.0000 0.0000
# 3 -6.8759 12.9798 35.8103 0.0000 0.0000 0.0000
# 4 0.0000 0.0000 0.0000 30.3530 0.0000 0.0000
# 5 0.0000 0.0000 0.0000 0.0000 44.9610 0.0000
# 6 0.0000 0.0000 0.0000 0.0000 0.0000 44.7851
#
#
#
# Elastic Compliance Matrix: (Units=1/GPa)
#
#
# Indices 1 2 3 4 5 6 
#
# 1 0.009131 -0.000205 0.001828 0.000000 0.000000 0.000000
# 2 -0.000205 0.015055 -0.005496 0.000000 0.000000 0.000000
# 3 0.001828 -0.005496 0.030268 0.000000 0.000000 0.000000
# 4 0.000000 0.000000 0.000000 0.032946 0.000000 0.000000
# 5 0.000000 0.000000 0.000000 0.000000 0.022241 0.000000
# 6 0.000000 0.000000 0.000000 0.000000 0.000000 0.022329
#
#
# Mechanical properties :
#
#
# Convention : Reuss Voigt Hill
#
# Bulk Modulus (GPa) = 21.41026 25.33743 23.37384
# Shear Modulus (GPa) = 32.19866 38.20156 35.20011
#
# Velocity S-wave (km/s) = 3.80928 4.14920 3.98287
# Velocity P-wave (km/s) = 5.38482 5.86285 5.62891
#
# Compressibility (1/GPa) = 0.04670658
#
# Stress axis : x y z
#
# Youngs Moduli (GPa) = 109.51695 66.42365 33.03826
#
# Poissons Ratio (x) = 0.01362 -0.06038
# Poissons Ratio (y) = 0.02246 0.18158
# Poissons Ratio (z) = -0.20015 0.36507
#
# Static dielectric constant tensor:
#      x y z
#    x 1.852730 0.000000 0.000000 
#    y 0.000000 1.578190 0.000000 
#    z 0.000000 0.000000 2.180470 
# 
# From -- ./inp_files/25533.got.cif
#   From: 2010.05.17/outbox.cif.g08.bks.cpg/sg62_13_cif.got.tgz:25533.got - 2010.06.03 15:25:27.
