data_PCOD9467341
_publ_section_title
;
Structure prediction by ZEFSAII (Michael W. Deem and Ramdas Pophale) SiO2 
 PCOD9467341
Probable space group: P N M A
;
_chemical_formula_sum "Si O2"
_cell_formula_units_Z 48
_cell_length_a 10.459886
_cell_length_b 8.594437
_cell_length_c 30.165319
_cell_angle_alpha 90.000000
_cell_angle_beta 90.000000
_cell_angle_gamma 90.000000
_cell_volume 2711.766592
_symmetry_space_group_name_H-M "P N M A"
_symmetry_group_IT_number 62
_symmetry_cell_setting 'orthorhombic'
loop_
_space_group_symop_operation_xyz
x,y,z
1/2-x,-y,1/2+z
1/2+x,1/2-y,1/2-z
-x,1/2+y,-z
-x,-y,-z
1/2+x,y,1/2-z
1/2-x,1/2+y,1/2+z
x,1/2-y,z
loop_
_atom_site_type_symbol
_atom_site_label
_atom_site_fract_x
_atom_site_fract_y
_atom_site_fract_z
Si Si1 0.978090 0.564795 0.115909
Si Si2 0.722686 0.938833 0.785892
Si Si3 0.763150 0.061956 0.386048
Si Si4 0.482914 0.061158 0.286489
Si Si5 0.371821 0.063707 0.021553
Si Si6 0.621704 0.564599 0.526902
O O1 0.969374 0.750000 0.114543
O O2 0.948204 0.502402 0.165010
O O3 0.892116 0.491496 0.077464
O O4 0.124045 0.512025 0.106452
O O5 0.720792 0.750000 0.784436
O O6 0.692719 0.984004 0.836715
O O7 0.618100 0.992331 0.750470
O O8 0.869808 0.986010 0.776634
O O9 0.746974 0.250000 0.386179
O O10 0.854448 0.019513 0.426673
O O11 0.481295 0.250000 0.288339
O O12 0.371164 0.250000 0.019132
O O13 0.500000 0.000000 0.000000
O O14 0.249423 0.999188 0.995570
O O15 0.500000 0.500000 0.500000
O O16 0.619708 0.750000 0.525010
#
# Coordination Sequence:
#
# PCOD9467341 Si02
#       6
#     8   8   8   8   8   8
#     4  11  21  34  56  84 112 145 187 233 284 337
#     4   8  15  30  54  79 103 135 182 228 271 324
#     4   9  18  35  58  81 109 148 192 231 273 334
#     4   9  17  33  54  78 107 141 181 229 276 330
#     4  11  23  39  58  84 121 156 191 234 283 339
#     4  12  23  38  61  87 113 146 191 238 285 337
#
# _framework density 17.700638999999999
#
# number of rings (size 3 to 8) (size 9 to 14) (size 15 to 20)
#    0.000    2.000    1.667    4.500    0.000    0.667 
#    3.000    3.333    0.000    0.000    0.000    0.000 
#    0.000    0.000    0.000    0.000    0.000    0.000 
#
# Total GULP energy -267901.526552 kJ/mol
# GULP energy per Si atom -5581.281803 kJ/mol
# Density = 1.766035 g / cm^3
# Si number density = 17.700639 Si / 1000 Ang^3
#
#
#
# Elastic Constant Matrix: (Units=GPa)
#
#
# Indices 1 2 3 4 5 6 
#
# 1 127.4421 34.5859 105.9334 0.0000 0.0000 0.0000
# 2 34.5859 55.0627 42.5379 0.0000 0.0000 0.0000
# 3 105.9334 42.5379 170.9898 0.0000 0.0000 0.0000
# 4 0.0000 0.0000 0.0000 25.7446 0.0000 0.0000
# 5 0.0000 0.0000 0.0000 0.0000 37.9275 0.0000
# 6 0.0000 0.0000 0.0000 0.0000 0.0000 23.5283
#
#
#
# Elastic Compliance Matrix: (Units=1/GPa)
#
#
# Indices 1 2 3 4 5 6 
#
# 1 0.016587 -0.003070 -0.009512 0.000000 0.000000 0.000000
# 2 -0.003070 0.023050 -0.003832 0.000000 0.000000 0.000000
# 3 -0.009512 -0.003832 0.012695 0.000000 0.000000 0.000000
# 4 0.000000 0.000000 0.000000 0.038843 0.000000 0.000000
# 5 0.000000 0.000000 0.000000 0.000000 0.026366 0.000000
# 6 0.000000 0.000000 0.000000 0.000000 0.000000 0.042502
#
#
# Mechanical properties :
#
#
# Convention : Reuss Voigt Hill
#
# Bulk Modulus (GPa) = 51.27537 79.95654 65.61595
# Shear Modulus (GPa) = 25.07870 28.80258 26.94064
#
# Velocity S-wave (km/s) = 3.76816 4.03824 3.90553
# Velocity P-wave (km/s) = 6.92553 8.18613 7.58208
#
# Compressibility (1/GPa) = 0.01950254
#
# Stress axis : x y z
#
# Youngs Moduli (GPa) = 60.28948 43.38394 78.77229
#
# Poissons Ratio (x) = 0.13318 0.74930
# Poissons Ratio (y) = 0.18508 0.30189
# Poissons Ratio (z) = 0.57349 0.16626
#
# Static dielectric constant tensor:
#      x y z
#    x 1.575700 0.000000 0.000000 
#    y 0.000000 1.597090 0.000000 
#    z 0.000000 0.000000 1.615080 
# 
# From -- ./inp_files/31928.got.cif
#   From: 2010.05.17/outbox.cif.g08.bks.cpg/sg62_16_cif.got.tgz:31928.got - 2010.06.03 15:25:27.
