data_PCOD9467951
_publ_section_title
;
Structure prediction by ZEFSAII (Michael W. Deem and Ramdas Pophale) SiO2 
 PCOD9467951
Probable space group: P N M A
;
_chemical_formula_sum "Si O2"
_cell_formula_units_Z 48
_cell_length_a 18.000000
_cell_length_b 15.000000
_cell_length_c 9.000000
_cell_angle_alpha 90.000000
_cell_angle_beta 90.000000
_cell_angle_gamma 90.000000
_cell_volume 2430.000000
_symmetry_space_group_name_H-M "P N M A"
_symmetry_group_IT_number 62
_symmetry_cell_setting 'orthorhombic'
loop_
_space_group_symop_operation_xyz
x,y,z
1/2-x,-y,1/2+z
1/2+x,1/2-y,1/2-z
-x,1/2+y,-z
-x,-y,-z
1/2+x,y,1/2-z
1/2-x,1/2+y,1/2+z
x,1/2-y,z
loop_
_atom_site_type_symbol
_atom_site_label
_atom_site_fract_x
_atom_site_fract_y
_atom_site_fract_z
Si Si1 0.834492 0.250000 0.529051
Si Si2 0.790809 0.557855 0.718794
Si Si3 0.431983 0.750000 0.386273
Si Si4 0.819749 0.750000 0.845335
Si Si5 0.612417 0.750000 0.373752
Si Si6 0.895710 0.056226 0.924858
Si Si7 0.944909 0.944987 0.212917
Si Si8 0.652195 0.952572 0.925727
O O1 0.749184 0.250000 0.465457
O O2 0.854153 0.250000 0.705621
O O3 0.862549 0.151389 0.472429
O O4 0.813746 0.661556 0.743012
O O5 0.837293 0.503609 0.840527
O O6 0.809632 0.508647 0.562097
O O7 0.707381 0.550094 0.782770
O O8 0.393093 0.750000 0.548991
O O9 0.522113 0.750000 0.388663
O O10 0.412336 0.655578 0.307542
O O11 0.634584 0.843637 0.448311
O O12 0.966659 0.062633 0.813436
O O13 0.919762 0.007085 0.074831
O O14 0.918571 0.992768 0.363460
#
# Coordination Sequence:
#
# PCOD9467951 Si02
#       8
#     4   8   4   4   4   8   8   8
#     4  10  22  41  60  90 127 161 199 265 313 350
#     4  11  22  40  62  88 119 160 204 251 311 363
#     4  10  20  37  62  91 128 160 208 250 310 367
#     4  10  22  39  64  89 126 159 204 261 309 363
#     4  10  20  37  62  94 123 166 207 248 306 374
#     4  10  20  38  63  89 123 162 206 250 300 369
#     4  10  22  38  61  92 125 163 204 251 306 363
#     4  11  24  41  64  90 123 161 207 254 310 370
#
# _framework density 19.753086
#
# number of rings (size 3 to 8) (size 9 to 14) (size 15 to 20)
#    0.000    1.667    3.333    1.000    2.333    2.000 
#    0.000    5.000    0.000    0.000    0.000    0.000 
#    0.000    0.000    0.000    0.000    0.000    0.000 
#
# Total GULP energy -267680.180152 kJ/mol
# GULP energy per Si atom -5576.670420 kJ/mol
# Density = 1.970813 g / cm^3
# Si number density = 19.753086 Si / 1000 Ang^3
#
#
#
# Elastic Constant Matrix: (Units=GPa)
#
#
# Indices 1 2 3 4 5 6 
#
# 1 41.2473 12.5972 8.0112 0.0000 0.0000 0.0000
# 2 12.5972 188.4005 12.6452 0.0000 0.0000 0.0000
# 3 8.0112 12.6452 46.0898 0.0000 0.0000 0.0000
# 4 0.0000 0.0000 0.0000 34.2803 0.0000 0.0000
# 5 0.0000 0.0000 0.0000 0.0000 41.8040 0.0000
# 6 0.0000 0.0000 0.0000 0.0000 0.0000 21.6623
#
#
#
# Elastic Compliance Matrix: (Units=1/GPa)
#
#
# Indices 1 2 3 4 5 6 
#
# 1 0.025465 -0.001432 -0.004033 0.000000 0.000000 0.000000
# 2 -0.001432 0.005488 -0.001257 0.000000 0.000000 0.000000
# 3 -0.004033 -0.001257 0.022743 0.000000 0.000000 0.000000
# 4 0.000000 0.000000 0.000000 0.029171 0.000000 0.000000
# 5 0.000000 0.000000 0.000000 0.000000 0.023921 0.000000
# 6 0.000000 0.000000 0.000000 0.000000 0.000000 0.046163
#
#
# Mechanical properties :
#
#
# Convention : Reuss Voigt Hill
#
# Bulk Modulus (GPa) = 24.84401 38.02722 31.43562
# Shear Modulus (GPa) = 27.80681 35.71493 31.76087
#
# Velocity S-wave (km/s) = 3.75603 4.25675 4.01421
# Velocity P-wave (km/s) = 5.60490 6.59189 6.11833
#
# Compressibility (1/GPa) = 0.04025115
#
# Stress axis : x y z
#
# Youngs Moduli (GPa) = 39.27004 182.21771 43.97022
#
# Poissons Ratio (x) = 0.26093 0.17735
# Poissons Ratio (y) = 0.05623 0.05526
# Poissons Ratio (z) = 0.15839 0.22901
#
# Static dielectric constant tensor:
#      x y z
#    x 1.734660 0.000000 0.000000 
#    y 0.000000 1.727850 0.000000 
#    z 0.000000 0.000000 1.664500 
# 
# From -- ./inp_files/7721.got.cif
#   From: 2010.05.17/outbox.ucp.g08.bks.cvg/sg62_4_cif.got.tgz:7721.got - 2010.06.11 16:29:25.
