data_PCOD9467803
_publ_section_title
;
Structure prediction by ZEFSAII (Michael W. Deem and Ramdas Pophale) SiO2 
 PCOD9467803
Probable space group: P N M A
;
_chemical_formula_sum "Si O2"
_cell_formula_units_Z 56
_cell_length_a 21.000000
_cell_length_b 9.000000
_cell_length_c 15.000000
_cell_angle_alpha 90.000000
_cell_angle_beta 90.000000
_cell_angle_gamma 90.000000
_cell_volume 2835.000000
_symmetry_space_group_name_H-M "P N M A"
_symmetry_group_IT_number 62
_symmetry_cell_setting 'orthorhombic'
loop_
_space_group_symop_operation_xyz
x,y,z
1/2-x,-y,1/2+z
1/2+x,1/2-y,1/2-z
-x,1/2+y,-z
-x,-y,-z
1/2+x,y,1/2-z
1/2-x,1/2+y,1/2+z
x,1/2-y,z
loop_
_atom_site_type_symbol
_atom_site_label
_atom_site_fract_x
_atom_site_fract_y
_atom_site_fract_z
Si Si1 0.271904 0.572030 0.820713
Si Si2 0.612471 0.071539 0.303440
Si Si3 0.430525 0.429621 0.512581
Si Si4 0.835686 0.080505 0.520691
Si Si5 0.369501 0.430338 0.325680
Si Si6 0.583202 0.571166 0.862374
Si Si7 0.959207 0.080242 0.646687
O O1 0.272786 0.750000 0.818132
O O2 0.322030 0.523284 0.745512
O O3 0.291336 0.521294 0.919611
O O4 0.201286 0.516483 0.805017
O O5 0.611125 0.250000 0.313716
O O6 0.600416 0.993846 0.397539
O O7 0.560193 0.020547 0.231009
O O8 0.500000 0.500000 0.500000
O O9 0.433913 0.250000 0.517022
O O10 0.392546 0.474281 0.423134
O O11 0.811371 0.250000 0.518749
O O12 0.854825 0.034271 0.421241
O O13 0.901666 0.079787 0.576389
O O14 0.368899 0.250000 0.325631
O O15 0.410975 0.473409 0.240766
O O16 0.575458 0.750000 0.869354
O O17 0.521950 0.486203 0.896889
O O18 0.968650 0.250000 0.675843
#
# Coordination Sequence:
#
# PCOD9467803 Si02
#       7
#     8   8   8   8   8   8   8
#     4   9  19  37  57  76 102 139 181 220 265 325
#     4  10  20  35  57  81 106 141 183 224 269 323
#     4  11  22  37  58  83 113 147 186 231 279 329
#     4   9  19  33  52  79 108 138 170 213 265 314
#     4   9  20  37  55  76 104 139 178 223 271 320
#     4  10  19  33  53  76 105 139 173 211 262 318
#     4  10  19  32  51  79 112 139 171 214 261 315
#
# _framework density 19.753086
#
# number of rings (size 3 to 8) (size 9 to 14) (size 15 to 20)
#    0.000    2.286    0.000    2.571    0.000    4.000 
#    0.000    4.286    0.000    0.000    0.000    0.000 
#    0.000    0.000    0.000    0.000    0.000    0.000 
#
# Total GULP energy -312278.379792 kJ/mol
# GULP energy per Si atom -5576.399639 kJ/mol
# Density = 1.970813 g / cm^3
# Si number density = 19.753086 Si / 1000 Ang^3
#
#
#
# Elastic Constant Matrix: (Units=GPa)
#
#
# Indices 1 2 3 4 5 6 
#
# 1 82.3150 17.8733 22.6394 0.0000 0.0000 0.0000
# 2 17.8733 34.1914 23.6668 0.0000 0.0000 0.0000
# 3 22.6394 23.6668 116.2027 0.0000 0.0000 0.0000
# 4 0.0000 0.0000 0.0000 28.4100 0.0000 0.0000
# 5 0.0000 0.0000 0.0000 0.0000 16.5446 0.0000
# 6 0.0000 0.0000 0.0000 0.0000 0.0000 15.9987
#
#
#
# Elastic Compliance Matrix: (Units=1/GPa)
#
#
# Indices 1 2 3 4 5 6 
#
# 1 0.013905 -0.006279 -0.001430 0.000000 0.000000 0.000000
# 2 -0.006279 0.036882 -0.006288 0.000000 0.000000 0.000000
# 3 -0.001430 -0.006288 0.010165 0.000000 0.000000 0.000000
# 4 0.000000 0.000000 0.000000 0.035199 0.000000 0.000000
# 5 0.000000 0.000000 0.000000 0.000000 0.060443 0.000000
# 6 0.000000 0.000000 0.000000 0.000000 0.000000 0.062505
#
#
# Mechanical properties :
#
#
# Convention : Reuss Voigt Hill
#
# Bulk Modulus (GPa) = 30.34234 40.11867 35.23051
# Shear Modulus (GPa) = 19.37387 23.42597 21.39992
#
# Velocity S-wave (km/s) = 3.13517 3.44748 3.29503
# Velocity P-wave (km/s) = 5.33853 6.01673 5.68775
#
# Compressibility (1/GPa) = 0.03295724
#
# Stress axis : x y z
#
# Youngs Moduli (GPa) = 71.91568 27.11349 98.37622
#
# Poissons Ratio (x) = 0.17024 0.14071
# Poissons Ratio (y) = 0.45154 0.61863
# Poissons Ratio (z) = 0.10286 0.17050
#
# Static dielectric constant tensor:
#      x y z
#    x 1.326170 0.000000 0.000000 
#    y 0.000000 1.664370 0.000000 
#    z 0.000000 0.000000 1.700350 
# 
# From -- ./inp_files/20225.got.cif
#   From: 2010.05.17/outbox.ucp.g08.bks.cvg/sg62_11_cif.got.tgz:20225.got - 2010.06.11 16:29:25.
