data_PCOD9467850
_publ_section_title
;
Structure prediction by ZEFSAII (Michael W. Deem and Ramdas Pophale) SiO2 
 PCOD9467850
Probable space group: P N M A
;
_chemical_formula_sum "Si O2"
_cell_formula_units_Z 64
_cell_length_a 15.000000
_cell_length_b 9.000000
_cell_length_c 24.000000
_cell_angle_alpha 90.000000
_cell_angle_beta 90.000000
_cell_angle_gamma 90.000000
_cell_volume 3240.000000
_symmetry_space_group_name_H-M "P N M A"
_symmetry_group_IT_number 62
_symmetry_cell_setting 'orthorhombic'
loop_
_space_group_symop_operation_xyz
x,y,z
1/2-x,-y,1/2+z
1/2+x,1/2-y,1/2-z
-x,1/2+y,-z
-x,-y,-z
1/2+x,y,1/2-z
1/2-x,1/2+y,1/2+z
x,1/2-y,z
loop_
_atom_site_type_symbol
_atom_site_label
_atom_site_fract_x
_atom_site_fract_y
_atom_site_fract_z
Si Si1 0.728240 0.928357 0.050498
Si Si2 0.035428 0.571889 0.401316
Si Si3 0.433139 0.069853 0.781989
Si Si4 0.117624 0.925750 0.880793
Si Si5 0.263571 0.578918 0.154152
Si Si6 0.365448 0.075896 0.060288
Si Si7 0.775252 0.576225 0.215964
Si Si8 0.551223 0.573033 0.341866
O O1 0.740415 0.750000 0.054289
O O2 0.637347 0.965861 0.083967
O O3 0.815328 0.007141 0.073576
O O4 0.701873 0.972144 0.988170
O O5 0.029065 0.750000 0.404136
O O6 0.017613 0.521903 0.337720
O O7 0.960624 0.503182 0.440097
O O8 0.436810 0.250000 0.779982
O O9 0.328692 0.033528 0.789356
O O10 0.465374 0.018811 0.721807
O O11 0.115241 0.750000 0.884511
O O12 0.162507 0.979460 0.822852
O O13 0.017950 0.991531 0.881651
O O14 0.281381 0.750000 0.136501
O O15 0.317432 0.465734 0.117186
O O16 0.292556 0.567649 0.218388
O O17 0.157045 0.553216 0.149140
O O18 0.380353 0.250000 0.053292
O O19 0.784172 0.750000 0.198966
O O20 0.534065 0.750000 0.344297
#
# Coordination Sequence:
#
# PCOD9467850 Si02
#       8
#     8   8   8   8   8   8   8   8
#     4  10  22  42  62  80 111 158 201 237 281 339
#     4  10  19  35  60  85 112 151 198 237 274 335
#     4   8  15  31  57  84 107 143 191 232 266 321
#     4  12  24  35  55  89 120 149 187 238 298 343
#     4   9  20  39  63  86 110 152 202 240 278 335
#     4  11  24  38  57  86 119 152 188 239 300 345
#     4   9  17  35  59  81 111 151 193 231 274 337
#     4   9  19  37  60  84 113 150 195 237 280 340
#
# _framework density 19.753086
#
# number of rings (size 3 to 8) (size 9 to 14) (size 15 to 20)
#    0.000    2.250    1.250    3.375    1.750    2.500 
#    0.000    2.500    0.000    0.000    0.000    0.000 
#    0.000    0.000    0.000    0.000    0.000    0.000 
#
# Total GULP energy -357134.883584 kJ/mol
# GULP energy per Si atom -5580.232556 kJ/mol
# Density = 1.970813 g / cm^3
# Si number density = 19.753086 Si / 1000 Ang^3
#
#
#
# Elastic Constant Matrix: (Units=GPa)
#
#
# Indices 1 2 3 4 5 6 
#
# 1 -4.5262 -4.9525 -3.5741 0.0000 0.0000 0.0000
# 2 -4.9525 19.8268 4.5515 0.0000 0.0000 0.0000
# 3 -3.5741 4.5515 38.1177 0.0000 0.0000 0.0000
# 4 0.0000 0.0000 0.0000 17.6179 0.0000 0.0000
# 5 0.0000 0.0000 0.0000 0.0000 24.1064 0.0000
# 6 0.0000 0.0000 0.0000 0.0000 0.0000 -17.2733
#
#
#
# Elastic Compliance Matrix: (Units=1/GPa)
#
#
# Indices 1 2 3 4 5 6 
#
# 1 -0.168820 -0.039621 -0.011099 0.000000 0.000000 0.000000
# 2 -0.039621 0.042559 -0.008797 0.000000 0.000000 0.000000
# 3 -0.011099 -0.008797 0.026244 0.000000 0.000000 0.000000
# 4 0.000000 0.000000 0.000000 0.056760 0.000000 0.000000
# 5 0.000000 0.000000 0.000000 0.000000 0.041483 0.000000
# 6 0.000000 0.000000 0.000000 0.000000 0.000000 -0.057893
#
#
# Mechanical properties :
#
#
# Convention : Reuss Voigt Hill
#
# Bulk Modulus (GPa) = -4.56517 5.05202 0.24343
# Shear Modulus (GPa) = -366.30875 8.71644 -178.79616
#
# Velocity S-wave (km/s) = -13.63255 2.10292 -9.52429
# Velocity P-wave (km/s) = 15.81491 2.90852 10.99208
#
# Compressibility (1/GPa) = -0.21904988
#
# Stress axis : x y z
#
# Youngs Moduli (GPa) = -5.92346 23.49652 38.10357
#
# Poissons Ratio (x) = 0.93096 0.42289
# Poissons Ratio (y) = -0.23469 0.33520
# Poissons Ratio (z) = -0.06574 0.20670
#
# Static dielectric constant tensor:
#      x y z
#    x 1.688820 0.000000 0.000000 
#    y 0.000000 1.531220 0.000000 
#    z 0.000000 0.000000 1.752630 
# 
# From -- ./inp_files/29741.got.cif
#   From: 2010.05.17/outbox.ucp.g08.bks.cvg/sg62_15_cif.got.tgz:29741.got - 2010.06.11 16:29:25.
