data_PCOD9467338
_publ_section_title
;
Structure prediction by ZEFSAII (Michael W. Deem and Ramdas Pophale) SiO2 
 PCOD9467338
Probable space group: P N M A
;
_chemical_formula_sum "Si O2"
_cell_formula_units_Z 48
_cell_length_a 7.940805
_cell_length_b 15.669434
_cell_length_c 17.405515
_cell_angle_alpha 90.000000
_cell_angle_beta 90.000000
_cell_angle_gamma 90.000000
_cell_volume 2165.732025
_symmetry_space_group_name_H-M "P N M A"
_symmetry_group_IT_number 62
_symmetry_cell_setting 'orthorhombic'
loop_
_space_group_symop_operation_xyz
x,y,z
1/2-x,-y,1/2+z
1/2+x,1/2-y,1/2-z
-x,1/2+y,-z
-x,-y,-z
1/2+x,y,1/2-z
1/2-x,1/2+y,1/2+z
x,1/2-y,z
loop_
_atom_site_type_symbol
_atom_site_label
_atom_site_fract_x
_atom_site_fract_y
_atom_site_fract_z
Si Si1 0.173150 0.409705 0.566083
Si Si2 0.427584 0.519889 0.628590
Si Si3 0.814204 0.844099 0.985404
Si Si4 0.132907 0.845403 0.352024
Si Si5 0.009908 0.405755 0.412769
Si Si6 0.219274 0.021981 0.284370
O O1 0.358716 0.429760 0.596336
O O2 0.152703 0.388109 0.477017
O O3 0.059590 0.348618 0.617869
O O4 0.072578 0.500411 0.572961
O O5 0.423011 0.584433 0.557149
O O6 0.601367 0.521782 0.673961
O O7 0.292149 0.544115 0.695215
O O8 0.890944 0.750000 0.985724
O O9 0.642605 0.844089 0.934173
O O10 0.746278 0.863941 0.071368
O O11 0.173273 0.750000 0.324315
O O12 0.156829 0.923789 0.294261
O O13 0.098970 0.414153 0.331386
#
# Coordination Sequence:
#
# PCOD9467338 Si02
#       6
#     8   8   8   8   8   8
#     4   8  15  30  52  75  99 131 169 206 250 308
#     4  11  21  34  52  76 107 144 182 217 259 314
#     4   9  18  35  58  81 106 136 172 218 268 314
#     4   9  18  35  58  81 106 136 172 218 268 314
#     4   8  15  30  52  75  99 131 169 206 250 308
#     4  11  21  34  52  76 107 144 182 217 259 314
#
# _framework density 22.163406999999999
#
# number of rings (size 3 to 8) (size 9 to 14) (size 15 to 20)
#    0.000    2.667    0.000    6.000    0.000    2.667 
#    0.000    8.333    0.000    4.000    0.000    0.000 
#    0.000    0.000    0.000    0.000    0.000    0.000 
#
# Total GULP energy -267663.088183 kJ/mol
# GULP energy per Si atom -5576.314337 kJ/mol
# Density = 2.211296 g / cm^3
# Si number density = 22.163407 Si / 1000 Ang^3
#
#
#
# Elastic Constant Matrix: (Units=GPa)
#
#
# Indices 1 2 3 4 5 6 
#
# 1 64.3244 -11.3838 -0.7470 0.0000 0.0000 0.0000
# 2 -11.3838 42.4003 -13.5802 0.0000 0.0000 0.0000
# 3 -0.7470 -13.5802 64.3064 0.0000 0.0000 0.0000
# 4 0.0000 0.0000 0.0000 13.3775 0.0000 0.0000
# 5 0.0000 0.0000 0.0000 0.0000 37.8154 0.0000
# 6 0.0000 0.0000 0.0000 0.0000 0.0000 11.7195
#
#
#
# Elastic Compliance Matrix: (Units=1/GPa)
#
#
# Indices 1 2 3 4 5 6 
#
# 1 0.016408 0.004790 0.001202 0.000000 0.000000 0.000000
# 2 0.004790 0.026694 0.005693 0.000000 0.000000 0.000000
# 3 0.001202 0.005693 0.016767 0.000000 0.000000 0.000000
# 4 0.000000 0.000000 0.000000 0.074753 0.000000 0.000000
# 5 0.000000 0.000000 0.000000 0.000000 0.026444 0.000000
# 6 0.000000 0.000000 0.000000 0.000000 0.000000 0.085328
#
#
# Mechanical properties :
#
#
# Convention : Reuss Voigt Hill
#
# Bulk Modulus (GPa) = 12.01347 13.28989 12.65168
# Shear Modulus (GPa) = 19.93863 25.69861 22.81862
#
# Velocity S-wave (km/s) = 3.00262 3.40885 3.21216
# Velocity P-wave (km/s) = 4.17770 4.63713 4.41340
#
# Compressibility (1/GPa) = 0.08323987
#
# Stress axis : x y z
#
# Youngs Moduli (GPa) = 60.94615 37.46126 59.64186
#
# Poissons Ratio (x) = -0.17945 -0.07170
# Poissons Ratio (y) = -0.29195 -0.33954
# Poissons Ratio (z) = -0.07327 -0.21326
#
# Static dielectric constant tensor:
#      x y z
#    x 1.921810 0.000000 0.000000 
#    y 0.000000 1.829810 0.000000 
#    z 0.000000 0.000000 1.790750 
# 
# From -- ./inp_files/7834.got.cif
#   From: 2010.05.17/outbox.cif.g08.bks.cpg/sg62_4_cif.got.tgz:7834.got - 2010.06.03 15:25:27.
