data_PCOD9467564
_publ_section_title
;
Structure prediction by ZEFSAII (Michael W. Deem and Ramdas Pophale) SiO2 
 PCOD9467564
Probable space group: P N M A
;
_chemical_formula_sum "Si O2"
_cell_formula_units_Z 32
_cell_length_a 10.123196
_cell_length_b 26.722034
_cell_length_c 4.917421
_cell_angle_alpha 90.000000
_cell_angle_beta 90.000000
_cell_angle_gamma 90.000000
_cell_volume 1330.223296
_symmetry_space_group_name_H-M "P N M A"
_symmetry_group_IT_number 62
_symmetry_cell_setting 'orthorhombic'
loop_
_space_group_symop_operation_xyz
x,y,z
1/2-x,-y,1/2+z
1/2+x,1/2-y,1/2-z
-x,1/2+y,-z
-x,-y,-z
1/2+x,y,1/2-z
1/2-x,1/2+y,1/2+z
x,1/2-y,z
loop_
_atom_site_type_symbol
_atom_site_label
_atom_site_fract_x
_atom_site_fract_y
_atom_site_fract_z
Si Si1 0.970183 0.591565 0.431942
Si Si2 0.130512 0.750000 0.804555
Si Si3 0.030872 0.342128 0.044186
Si Si4 0.817699 0.750000 0.189016
Si Si5 0.732872 0.532796 0.131967
O O1 0.926615 0.620690 0.708796
O O2 0.840570 0.568776 0.281056
O O3 0.094467 0.554881 0.483399
O O4 0.035264 0.625070 0.189542
O O5 0.230342 0.750000 0.570327
O O6 0.049279 0.800446 0.793094
O O7 0.219304 0.750000 0.066882
O O8 0.110374 0.303235 0.846029
O O9 0.699639 0.493389 0.371596
#
# Coordination Sequence:
#
# PCOD9467564 Si02
#       5
#     8   4   8   4   8
#     4  12  26  44  76 103 143 182 244 290 351 435
#     4  11  24  43  70  95 149 183 230 284 347 418
#     4  11  26  43  66 109 137 188 234 292 351 411
#     4  11  24  43  70  95 149 183 230 284 347 418
#     4  12  26  48  72 103 142 187 236 300 372 424
#
# _framework density 24.056113
#
# number of rings (size 3 to 8) (size 9 to 14) (size 15 to 20)
#    0.000    0.500    0.000    7.500   10.500    4.000 
#    0.000    0.000    0.000    0.000    0.000    0.000 
#    0.000    0.000    0.000    0.000    0.000    0.000 
#
# Total GULP energy -178371.418895 kJ/mol
# GULP energy per Si atom -5574.106840 kJ/mol
# Density = 2.400136 g / cm^3
# Si number density = 24.056113 Si / 1000 Ang^3
#
#
#
# Elastic Constant Matrix: (Units=GPa)
#
#
# Indices 1 2 3 4 5 6 
#
# 1 71.3775 28.3536 -8.3769 0.0000 0.0000 0.0000
# 2 28.3536 90.7367 30.0037 0.0000 0.0000 0.0000
# 3 -8.3769 30.0037 136.8970 0.0000 0.0000 0.0000
# 4 0.0000 0.0000 0.0000 63.0311 0.0000 0.0000
# 5 0.0000 0.0000 0.0000 0.0000 36.3892 0.0000
# 6 0.0000 0.0000 0.0000 0.0000 0.0000 132.7328
#
#
#
# Elastic Compliance Matrix: (Units=1/GPa)
#
#
# Indices 1 2 3 4 5 6 
#
# 1 0.016657 -0.005975 0.002329 0.000000 0.000000 0.000000
# 2 -0.005975 0.014025 -0.003440 0.000000 0.000000 0.000000
# 3 0.002329 -0.003440 0.008201 0.000000 0.000000 0.000000
# 4 0.000000 0.000000 0.000000 0.015865 0.000000 0.000000
# 5 0.000000 0.000000 0.000000 0.000000 0.027481 0.000000
# 6 0.000000 0.000000 0.000000 0.000000 0.000000 0.007534
#
#
# Mechanical properties :
#
#
# Convention : Reuss Voigt Hill
#
# Bulk Modulus (GPa) = 40.46665 44.33022 42.39843
# Shear Modulus (GPa) = 44.57448 63.03268 53.80358
#
# Velocity S-wave (km/s) = 4.30925 5.12438 4.73439
# Velocity P-wave (km/s) = 6.45118 7.31301 6.89558
#
# Compressibility (1/GPa) = 0.02471171
#
# Stress axis : x y z
#
# Youngs Moduli (GPa) = 60.03554 71.29962 121.93475
#
# Poissons Ratio (x) = 0.42602 -0.28396
# Poissons Ratio (y) = 0.35871 0.41940
# Poissons Ratio (z) = -0.13981 0.24524
#
# Static dielectric constant tensor:
#      x y z
#    x 1.930050 0.000000 0.000000 
#    y 0.000000 1.912380 0.000000 
#    z 0.000000 0.000000 1.827100 
# 
# From -- ./inp_files/503.got.cif
#   From: 2010.05.17/outbox.cif.g08.bks.cpg/sg62_1_cif.got.tgz:503.got - 2010.06.03 15:25:27.
