data_PCOD9467754
_publ_section_title
;
Structure prediction by ZEFSAII (Michael W. Deem and Ramdas Pophale) SiO2 
 PCOD9467754
Probable space group: P N M A
;
_chemical_formula_sum "Si O2"
_cell_formula_units_Z 48
_cell_length_a 8.236776
_cell_length_b 21.926718
_cell_length_c 9.572668
_cell_angle_alpha 90.000000
_cell_angle_beta 90.000000
_cell_angle_gamma 90.000000
_cell_volume 1728.876151
_symmetry_space_group_name_H-M "P N M A"
_symmetry_group_IT_number 62
_symmetry_cell_setting 'orthorhombic'
loop_
_space_group_symop_operation_xyz
x,y,z
1/2-x,-y,1/2+z
1/2+x,1/2-y,1/2-z
-x,1/2+y,-z
-x,-y,-z
1/2+x,y,1/2-z
1/2-x,1/2+y,1/2+z
x,1/2-y,z
loop_
_atom_site_type_symbol
_atom_site_label
_atom_site_fract_x
_atom_site_fract_y
_atom_site_fract_z
Si Si1 0.444930 0.348645 0.779795
Si Si2 0.756205 0.843818 0.463748
Si Si3 0.752630 0.675907 0.964556
Si Si4 0.051145 0.486094 0.778195
Si Si5 0.753757 0.491987 0.963466
Si Si6 0.046969 0.320870 0.278282
O O1 0.394843 0.321988 0.629932
O O2 0.587688 0.321390 0.873660
O O3 0.497873 0.417442 0.751417
O O4 0.286565 0.346296 0.880405
O O5 0.751127 0.917936 0.465447
O O6 0.794301 0.824324 0.620724
O O7 0.753486 0.750000 0.969418
O O8 0.599108 0.654008 0.870619
O O9 0.906139 0.654138 0.873595
O O10 0.100665 0.513339 0.628546
O O11 0.908189 0.513679 0.871087
O O12 0.208463 0.487449 0.880117
O O13 0.010724 0.250000 0.257853
#
# Coordination Sequence:
#
# PCOD9467754 Si02
#       6
#     8   8   8   8   8   8
#     4   9  18  33  51  72 100 130 162 202 244 289
#     4   9  18  33  50  72 100 129 162 200 243 288
#     4   9  18  33  52  74 100 129 163 202 243 289
#     4   9  18  34  52  72 100 130 164 205 246 291
#     4   9  18  34  52  73 100 130 165 204 246 292
#     4   9  18  33  51  72 100 130 162 202 242 285
#
# _framework density 27.763701999999999
#
# number of rings (size 3 to 8) (size 9 to 14) (size 15 to 20)
#    0.000    3.000    0.000    0.000    0.000    2.667 
#    0.000   20.000    0.000    0.000    0.000    0.000 
#    0.000    0.000    0.000    0.000    0.000    0.000 
#
# Total GULP energy -268591.051843 kJ/mol
# GULP energy per Si atom -5595.646913 kJ/mol
# Density = 2.770051 g / cm^3
# Si number density = 27.763702 Si / 1000 Ang^3
#
#
#
# Elastic Constant Matrix: (Units=GPa)
#
#
# Indices 1 2 3 4 5 6 
#
# 1 33.9621 -3.8819 20.7087 0.0000 0.0000 0.0000
# 2 -3.8819 136.6896 -5.4231 0.0000 0.0000 0.0000
# 3 20.7087 -5.4231 188.4217 0.0000 0.0000 0.0000
# 4 0.0000 0.0000 0.0000 30.9579 0.0000 0.0000
# 5 0.0000 0.0000 0.0000 0.0000 71.6641 0.0000
# 6 0.0000 0.0000 0.0000 0.0000 0.0000 16.4199
#
#
#
# Elastic Compliance Matrix: (Units=1/GPa)
#
#
# Indices 1 2 3 4 5 6 
#
# 1 0.031639 0.000761 -0.003455 0.000000 0.000000 0.000000
# 2 0.000761 0.007343 0.000128 0.000000 0.000000 0.000000
# 3 -0.003455 0.000128 0.005691 0.000000 0.000000 0.000000
# 4 0.000000 0.000000 0.000000 0.032302 0.000000 0.000000
# 5 0.000000 0.000000 0.000000 0.000000 0.013954 0.000000
# 6 0.000000 0.000000 0.000000 0.000000 0.000000 0.060902
#
#
# Mechanical properties :
#
#
# Convention : Reuss Voigt Hill
#
# Bulk Modulus (GPa) = 25.29132 42.43119 33.86126
# Shear Modulus (GPa) = 29.38724 46.98636 38.18680
#
# Velocity S-wave (km/s) = 3.25695 4.11830 3.71269
# Velocity P-wave (km/s) = 4.82420 6.15874 5.53186
#
# Compressibility (1/GPa) = 0.03953926
#
# Stress axis : x y z
#
# Youngs Moduli (GPa) = 31.60697 136.19280 175.72586
#
# Poissons Ratio (x) = -0.10370 0.60720
# Poissons Ratio (y) = -0.02407 -0.02243
# Poissons Ratio (z) = 0.10921 -0.01738
#
# Static dielectric constant tensor:
#      x y z
#    x 2.291830 0.000000 0.000000 
#    y 0.000000 2.031880 0.000000 
#    z 0.000000 0.000000 2.118060 
# 
# From -- ./inp_files/4487.got.cif
#   From: 2010.05.17/outbox.cif.g08.bks.cpg/sg62_3_cif.got.tgz:4487.got - 2010.06.03 15:25:27.
