data_PCOD9467123
_publ_section_title
;
Structure prediction by ZEFSAII (Michael W. Deem and Ramdas Pophale) SiO2 
 PCOD9467123
Probable space group: P N M A
;
_chemical_formula_sum "Si O2"
_cell_formula_units_Z 40
_cell_length_a 4.895940
_cell_length_b 17.525771
_cell_length_c 16.018989
_cell_angle_alpha 90.000000
_cell_angle_beta 90.000000
_cell_angle_gamma 90.000000
_cell_volume 1374.511326
_symmetry_space_group_name_H-M "P N M A"
_symmetry_group_IT_number 62
_symmetry_cell_setting 'orthorhombic'
loop_
_space_group_symop_operation_xyz
x,y,z
1/2-x,-y,1/2+z
1/2+x,1/2-y,1/2-z
-x,1/2+y,-z
-x,-y,-z
1/2+x,y,1/2-z
1/2-x,1/2+y,1/2+z
x,1/2-y,z
loop_
_atom_site_type_symbol
_atom_site_label
_atom_site_fract_x
_atom_site_fract_y
_atom_site_fract_z
Si Si1 0.975730 0.162631 0.536727
Si Si2 0.028019 0.664313 0.152982
Si Si3 0.325285 0.450980 0.433296
Si Si4 0.949544 0.463354 0.715638
Si Si5 0.871062 0.838663 0.808576
O O1 0.027913 0.250000 0.508645
O O2 0.169544 0.150181 0.618808
O O3 0.086802 0.099537 0.475336
O O4 0.671160 0.160561 0.573295
O O5 0.010765 0.750000 0.186425
O O6 0.676368 0.510865 0.127989
O O7 0.500000 0.500000 0.500000
O O8 0.510215 0.390225 0.383114
O O9 0.578398 0.393113 0.723584
O O10 0.750486 0.501467 0.783919
O O11 0.064512 0.847152 0.726555
O O12 0.897232 0.750000 0.836653
#
# Coordination Sequence:
#
# PCOD9467123 Si02
#       5
#     8   8   8   8   8
#     4  10  23  47  79 112 151 204 268 336 397 466
#     4  10  23  47  78 109 147 204 272 330 387 468
#     4  12  27  48  76 120 171 213 258 330 417 491
#     4  12  27  48  73 109 158 210 260 316 394 484
#     4  10  23  48  81 112 150 211 279 330 378 461
#
# _framework density 29.101251000000001
#
# number of rings (size 3 to 8) (size 9 to 14) (size 15 to 20)
#    0.000    1.200    0.000    4.200    0.000    4.000 
#    0.000   22.000    0.000    4.800    0.000    0.000 
#    0.000    3.200    0.000    0.000    0.000    0.000 
#
# Total GULP energy -224247.044439 kJ/mol
# GULP energy per Si atom -5606.176111 kJ/mol
# Density = 2.903501 g / cm^3
# Si number density = 29.101251 Si / 1000 Ang^3
#
#
#
# Elastic Constant Matrix: (Units=GPa)
#
#
# Indices 1 2 3 4 5 6 
#
# 1 -177.7168 -48.8404 71.3453 0.0000 0.0000 0.0000
# 2 -48.8404 173.8258 84.7827 0.0000 0.0000 0.0000
# 3 71.3453 84.7827 180.0469 0.0000 0.0000 0.0000
# 4 0.0000 0.0000 0.0000 58.2490 0.0000 0.0000
# 5 0.0000 0.0000 0.0000 0.0000 60.1807 0.0000
# 6 0.0000 0.0000 0.0000 0.0000 0.0000 33.7734
#
#
#
# Elastic Compliance Matrix: (Units=1/GPa)
#
#
# Indices 1 2 3 4 5 6 
#
# 1 -0.003895 -0.002398 0.002673 0.000000 0.000000 0.000000
# 2 -0.002398 0.005992 -0.001871 0.000000 0.000000 0.000000
# 3 0.002673 -0.001871 0.005376 0.000000 0.000000 0.000000
# 4 0.000000 0.000000 0.000000 0.017168 0.000000 0.000000
# 5 0.000000 0.000000 0.000000 0.000000 0.016617 0.000000
# 6 0.000000 0.000000 0.000000 0.000000 0.000000 0.029609
#
#
# Mechanical properties :
#
#
# Convention : Reuss Voigt Hill
#
# Bulk Modulus (GPa) = 233.65529 43.41458 138.53493
# Shear Modulus (GPa) = 66.23707 35.03184 50.63446
#
# Velocity S-wave (km/s) = 4.77601 3.47333 4.17579
# Velocity P-wave (km/s) = 10.52989 5.57102 8.42362
#
# Compressibility (1/GPa) = 0.00427981
#
# Stress axis : x y z
#
# Youngs Moduli (GPa) = -256.73970 166.89335 186.00323
#
# Poissons Ratio (x) = 0.40020 -0.49711
# Poissons Ratio (y) = -0.61565 0.34807
# Poissons Ratio (z) = 0.68616 0.31231
#
# Static dielectric constant tensor:
#      x y z
#    x 2.883350 0.000000 0.000000 
#    y 0.000000 2.503190 0.000000 
#    z 0.000000 0.000000 2.241140 
# 
# From -- ./inp_files/21485.got.cif
#   From: 2010.05.17/outbox.cif.g08.bks.cpg/sg62_11_cif.got.tgz:21485.got - 2010.06.03 15:25:27.
