data_PCOD9467132
_publ_section_title
;
Structure prediction by ZEFSAII (Michael W. Deem and Ramdas Pophale) SiO2 
 PCOD9467132
Probable space group: P N M A
;
_chemical_formula_sum "Si O2"
_cell_formula_units_Z 64
_cell_length_a 10.365485
_cell_length_b 26.308680
_cell_length_c 12.398258
_cell_angle_alpha 90.000000
_cell_angle_beta 90.000000
_cell_angle_gamma 90.000000
_cell_volume 3381.032579
_symmetry_space_group_name_H-M "P N M A"
_symmetry_group_IT_number 62
_symmetry_cell_setting 'orthorhombic'
loop_
_space_group_symop_operation_xyz
x,y,z
1/2-x,-y,1/2+z
1/2+x,1/2-y,1/2-z
-x,1/2+y,-z
-x,-y,-z
1/2+x,y,1/2-z
1/2-x,1/2+y,1/2+z
x,1/2-y,z
loop_
_atom_site_type_symbol
_atom_site_label
_atom_site_fract_x
_atom_site_fract_y
_atom_site_fract_z
Si Si1 0.373207 0.495216 0.567398
Si Si2 0.480293 0.023876 0.791136
Si Si3 0.738638 0.112312 0.949438
Si Si4 0.082301 0.349604 0.217241
Si Si5 0.226952 0.398961 0.019045
Si Si6 0.496933 0.920916 0.911094
Si Si7 0.189236 0.691500 0.863291
Si Si8 0.726278 0.090744 0.715990
O O1 0.500000 0.500000 0.500000
O O2 0.413390 0.504031 0.689953
O O3 0.324485 0.438461 0.551302
O O4 0.283739 0.539788 0.525885
O O5 0.614327 0.049842 0.750445
O O6 0.366208 0.065126 0.811590
O O7 0.505385 0.980836 0.880854
O O8 0.735035 0.125905 0.822373
O O9 0.602762 0.091325 0.993770
O O10 0.787111 0.154149 0.034233
O O11 0.135371 0.373139 0.106330
O O12 0.051959 0.393949 0.302510
O O13 0.196078 0.318252 0.276545
O O14 0.948961 0.321065 0.190573
O O15 0.372994 0.391981 0.056031
O O16 0.190402 0.383886 0.897461
O O17 0.192545 0.750000 0.897534
#
# Coordination Sequence:
#
# PCOD9467132 Si02
#       8
#     8   8   8   8   8   8   8   8
#     4  11  20  33  55  87 126 169 209 243 296 368
#     4  11  22  34  54  84 126 174 209 246 287 357
#     4  10  24  39  58  89 122 164 213 256 301 373
#     4  11  23  40  66 101 122 153 202 258 322 381
#     4  12  22  37  62  89 134 170 197 252 305 373
#     4  11  22  37  58  88 126 164 207 252 309 361
#     4  11  24  45  71  92 120 156 204 270 324 367
#     4  11  24  37  54  86 123 172 214 243 291 359
#
# _framework density 18.929127999999999
#
# number of rings (size 3 to 8) (size 9 to 14) (size 15 to 20)
#    0.000    1.000    3.750    4.125    1.750    1.500 
#    0.000    0.000    0.000    1.500    0.000    0.000 
#    0.000    0.000    0.000    0.000    0.000    0.000 
#
# Total GULP energy -357047.176830 kJ/mol
# GULP energy per Si atom -5578.862138 kJ/mol
# Density = 1.888604 g / cm^3
# Si number density = 18.929128 Si / 1000 Ang^3
#
#
#
# Elastic Constant Matrix: (Units=GPa)
#
#
# Indices 1 2 3 4 5 6 
#
# 1 115.7792 29.9608 35.1657 0.0000 0.0000 0.0000
# 2 29.9608 71.2490 28.9896 0.0000 0.0000 0.0000
# 3 35.1657 28.9896 128.3209 0.0000 0.0000 0.0000
# 4 0.0000 0.0000 0.0000 14.6524 0.0000 0.0000
# 5 0.0000 0.0000 0.0000 0.0000 23.2412 0.0000
# 6 0.0000 0.0000 0.0000 0.0000 0.0000 7.9972
#
#
#
# Elastic Compliance Matrix: (Units=1/GPa)
#
#
# Indices 1 2 3 4 5 6 
#
# 1 0.010137 -0.003449 -0.001999 0.000000 0.000000 0.000000
# 2 -0.003449 0.016630 -0.002812 0.000000 0.000000 0.000000
# 3 -0.001999 -0.002812 0.008976 0.000000 0.000000 0.000000
# 4 0.000000 0.000000 0.000000 0.068248 0.000000 0.000000
# 5 0.000000 0.000000 0.000000 0.000000 0.043027 0.000000
# 6 0.000000 0.000000 0.000000 0.000000 0.000000 0.125044
#
#
# Mechanical properties :
#
#
# Convention : Reuss Voigt Hill
#
# Bulk Modulus (GPa) = 52.02083 55.95347 53.98715
# Shear Modulus (GPa) = 16.94982 23.92703 20.43842
#
# Velocity S-wave (km/s) = 2.99563 3.55918 3.28950
# Velocity P-wave (km/s) = 6.28543 6.82012 6.55822
#
# Compressibility (1/GPa) = 0.01922307
#
# Stress axis : x y z
#
# Youngs Moduli (GPa) = 98.65041 60.13313 111.40978
#
# Poissons Ratio (x) = 0.20742 0.22267
# Poissons Ratio (y) = 0.34028 0.31324
# Poissons Ratio (z) = 0.19717 0.16907
#
# Static dielectric constant tensor:
#      x y z
#    x 2.380620 0.000000 0.000000 
#    y 0.000000 1.949000 0.000000 
#    z 0.000000 0.000000 1.628030 
# 
# From -- ./inp_files/11577.got.cif
#   From: 2010.05.17/outbox.cif.g08.bks.cpg/sg62_6_cif.got.tgz:11577.got - 2010.06.03 15:25:27.
