data_PCOD9467157
_publ_section_title
;
Structure prediction by ZEFSAII (Michael W. Deem and Ramdas Pophale) SiO2 
 PCOD9467157
Probable space group: P N M A
;
_chemical_formula_sum "Si O2"
_cell_formula_units_Z 36
_cell_length_a 9.234345
_cell_length_b 9.203475
_cell_length_c 19.467527
_cell_angle_alpha 90.000000
_cell_angle_beta 90.000000
_cell_angle_gamma 90.000000
_cell_volume 1654.507418
_symmetry_space_group_name_H-M "P N M A"
_symmetry_group_IT_number 62
_symmetry_cell_setting 'orthorhombic'
loop_
_space_group_symop_operation_xyz
x,y,z
1/2-x,-y,1/2+z
1/2+x,1/2-y,1/2-z
-x,1/2+y,-z
-x,-y,-z
1/2+x,y,1/2-z
1/2-x,1/2+y,1/2+z
x,1/2-y,z
loop_
_atom_site_type_symbol
_atom_site_label
_atom_site_fract_x
_atom_site_fract_y
_atom_site_fract_z
Si Si1 0.967506 0.084005 0.195055
Si Si2 0.005524 0.750000 0.032210
Si Si3 0.659742 0.574349 0.192611
Si Si4 0.983402 0.419321 0.427614
Si Si5 0.651517 0.457068 0.437248
O O1 0.946979 0.250000 0.221244
O O2 0.036331 0.094365 0.119591
O O3 0.819171 0.994819 0.192109
O O4 0.076907 0.991345 0.241602
O O5 0.122594 0.624443 0.051666
O O6 0.887465 0.625454 0.007269
O O7 0.663901 0.750000 0.192818
O O8 0.573283 0.509783 0.127911
O O9 0.030226 0.250000 0.429618
O O10 0.812209 0.423645 0.411700
O O11 0.000000 0.500000 0.500000
#
# Coordination Sequence:
#
# PCOD9467157 Si02
#       5
#     8   4   8   8   8
#     4  12  25  48  76 101 139 184 236 287 350 423
#     4  10  24  42  70 104 138 180 228 284 346 416
#     4  12  29  47  72 105 139 184 234 290 355 417
#     4  12  27  46  70 103 145 185 234 291 351 417
#     4  11  25  43  72 100 142 179 235 281 350 408
#
# _framework density 21.758742000000002
#
# number of rings (size 3 to 8) (size 9 to 14) (size 15 to 20)
#    0.000    0.444    2.222    4.667   12.444    0.000 
#    0.000    0.000    0.000    0.000    0.000    0.000 
#    0.000    0.000    0.000    0.000    0.000    0.000 
#
# Total GULP energy -200470.115442 kJ/mol
# GULP energy per Si atom -5568.614318 kJ/mol
# Density = 2.170922 g / cm^3
# Si number density = 21.758742 Si / 1000 Ang^3
#
#
#
# Elastic Constant Matrix: (Units=GPa)
#
#
# Indices 1 2 3 4 5 6 
#
# 1 143.0199 53.3553 24.7691 0.0000 0.0000 0.0000
# 2 53.3553 276.2030 25.3427 0.0000 0.0000 0.0000
# 3 24.7691 25.3427 33.1690 0.0000 0.0000 0.0000
# 4 0.0000 0.0000 0.0000 29.4502 0.0000 0.0000
# 5 0.0000 0.0000 0.0000 0.0000 37.4309 0.0000
# 6 0.0000 0.0000 0.0000 0.0000 0.0000 27.0387
#
#
#
# Elastic Compliance Matrix: (Units=1/GPa)
#
#
# Indices 1 2 3 4 5 6 
#
# 1 0.008340 -0.001118 -0.005374 0.000000 0.000000 0.000000
# 2 -0.001118 0.004043 -0.002254 0.000000 0.000000 0.000000
# 3 -0.005374 -0.002254 0.035884 0.000000 0.000000 0.000000
# 4 0.000000 0.000000 0.000000 0.033956 0.000000 0.000000
# 5 0.000000 0.000000 0.000000 0.000000 0.026716 0.000000
# 6 0.000000 0.000000 0.000000 0.000000 0.000000 0.036984
#
#
# Mechanical properties :
#
#
# Convention : Reuss Voigt Hill
#
# Bulk Modulus (GPa) = 32.49396 73.25847 52.87622
# Shear Modulus (GPa) = 28.78980 42.04562 35.41771
#
# Velocity S-wave (km/s) = 3.64144 4.40063 4.03891
# Velocity P-wave (km/s) = 5.71369 7.71766 6.79001
#
# Compressibility (1/GPa) = 0.03077495
#
# Stress axis : x y z
#
# Youngs Moduli (GPa) = 119.90792 247.31993 27.86772
#
# Poissons Ratio (x) = 0.27650 0.14975
# Poissons Ratio (y) = 0.13405 0.06283
# Poissons Ratio (z) = 0.64433 0.55757
#
# Static dielectric constant tensor:
#      x y z
#    x 1.782850 0.000000 0.000000 
#    y 0.000000 1.786310 0.000000 
#    z 0.000000 0.000000 1.861460 
# 
# From -- ./inp_files/25598.got.cif
#   From: 2010.05.17/outbox.cif.g08.bks.cpg/sg62_13_cif.got.tgz:25598.got - 2010.06.03 15:25:27.
