data_PCOD9467868
_publ_section_title
;
Structure prediction by ZEFSAII (Michael W. Deem and Ramdas Pophale) SiO2 
 PCOD9467868
Probable space group: P N M A
;
_chemical_formula_sum "Si O2"
_cell_formula_units_Z 64
_cell_length_a 15.000000
_cell_length_b 9.000000
_cell_length_c 24.000000
_cell_angle_alpha 90.000000
_cell_angle_beta 90.000000
_cell_angle_gamma 90.000000
_cell_volume 3240.000000
_symmetry_space_group_name_H-M "P N M A"
_symmetry_group_IT_number 62
_symmetry_cell_setting 'orthorhombic'
loop_
_space_group_symop_operation_xyz
x,y,z
1/2-x,-y,1/2+z
1/2+x,1/2-y,1/2-z
-x,1/2+y,-z
-x,-y,-z
1/2+x,y,1/2-z
1/2-x,1/2+y,1/2+z
x,1/2-y,z
loop_
_atom_site_type_symbol
_atom_site_label
_atom_site_fract_x
_atom_site_fract_y
_atom_site_fract_z
Si Si1 0.285073 0.428486 0.462207
Si Si2 0.143099 0.572512 0.390724
Si Si3 0.724344 0.927372 0.834004
Si Si4 0.444161 0.429720 0.383616
Si Si5 0.517017 0.077414 0.266749
Si Si6 0.865242 0.928234 0.928047
Si Si7 0.037469 0.578468 0.639350
Si Si8 0.802811 0.426127 0.732177
O O1 0.281112 0.250000 0.462671
O O2 0.192192 0.496708 0.442185
O O3 0.357020 0.481102 0.415727
O O4 0.319993 0.488822 0.520796
O O5 0.147958 0.750000 0.394198
O O6 0.190880 0.523843 0.332295
O O7 0.041371 0.519306 0.385138
O O8 0.717379 0.750000 0.826465
O O9 0.810464 0.958083 0.871596
O O10 0.637972 0.974861 0.869457
O O11 0.732098 0.000331 0.773480
O O12 0.441218 0.250000 0.384283
O O13 0.457711 0.471833 0.319085
O O14 0.532880 0.474388 0.417276
O O15 0.545743 0.250000 0.277550
O O16 0.470835 0.077182 0.206727
O O17 0.602765 0.975048 0.258578
O O18 0.862697 0.750000 0.937615
O O19 0.026569 0.750000 0.621111
O O20 0.792614 0.250000 0.732699
#
# Coordination Sequence:
#
# PCOD9467868 Si02
#       8
#     8   8   8   8   8   8   8   8
#     4  11  23  37  58  84 110 146 197 244 279 330
#     4  10  22  40  57  79 115 154 187 229 290 341
#     4  10  20  35  59  86 113 150 190 230 282 338
#     4   9  18  33  55  84 114 147 184 227 280 334
#     4   9  16  32  54  79 112 145 179 221 274 332
#     4  10  20  38  58  79 115 152 186 228 283 344
#     4   9  19  34  58  87 112 143 187 235 278 332
#     4  10  20  33  52  81 115 148 183 225 274 332
#
# _framework density 19.753086
#
# number of rings (size 3 to 8) (size 9 to 14) (size 15 to 20)
#    0.000    2.250    1.250    1.500    1.750    2.500 
#    0.000    2.500    0.000    0.000    0.000    0.000 
#    0.000    0.000    0.000    0.000    0.000    0.000 
#
# Total GULP energy -357096.236540 kJ/mol
# GULP energy per Si atom -5579.628696 kJ/mol
# Density = 1.970813 g / cm^3
# Si number density = 19.753086 Si / 1000 Ang^3
#
#
#
# Elastic Constant Matrix: (Units=GPa)
#
#
# Indices 1 2 3 4 5 6 
#
# 1 58.1284 8.0189 -18.6555 0.0000 0.0000 0.0000
# 2 8.0189 21.5060 -0.7720 0.0000 0.0000 0.0000
# 3 -18.6555 -0.7720 4.8812 0.0000 0.0000 0.0000
# 4 0.0000 0.0000 0.0000 24.1147 0.0000 0.0000
# 5 0.0000 0.0000 0.0000 0.0000 10.9019 0.0000
# 6 0.0000 0.0000 0.0000 0.0000 0.0000 8.8251
#
#
#
# Elastic Compliance Matrix: (Units=1/GPa)
#
#
# Indices 1 2 3 4 5 6 
#
# 1 -0.069575 0.016490 -0.263304 0.000000 0.000000 0.000000
# 2 0.016490 0.042856 0.069802 0.000000 0.000000 0.000000
# 3 -0.263304 0.069802 -0.790422 0.000000 0.000000 0.000000
# 4 0.000000 0.000000 0.000000 0.041468 0.000000 0.000000
# 5 0.000000 0.000000 0.000000 0.000000 0.091727 0.000000
# 6 0.000000 0.000000 0.000000 0.000000 0.000000 0.113313
#
#
# Mechanical properties :
#
#
# Convention : Reuss Voigt Hill
#
# Bulk Modulus (GPa) = -0.85385 6.85535 3.00075
# Shear Modulus (GPa) = -8.23727 15.16330 3.46301
#
# Velocity S-wave (km/s) = -2.04430 2.77364 1.32550
# Velocity P-wave (km/s) = 2.45060 3.70614 1.96597
#
# Compressibility (1/GPa) = -1.17116576
#
# Stress axis : x y z
#
# Youngs Moduli (GPa) = -14.37291 23.33397 -1.26515
#
# Poissons Ratio (x) = -0.38478 -0.33312
# Poissons Ratio (y) = 0.23701 0.08831
# Poissons Ratio (z) = -3.78445 -1.62876
#
# Static dielectric constant tensor:
#      x y z
#    x 1.727830 0.000000 0.000000 
#    y 0.000000 1.659600 0.000000 
#    z 0.000000 0.000000 1.689620 
# 
# From -- ./inp_files/29735.got.cif
#   From: 2010.05.17/outbox.ucp.g08.bks.cvg/sg62_15_cif.got.tgz:29735.got - 2010.06.11 16:29:25.
