data_PCOD9467810
_publ_section_title
;
Structure prediction by ZEFSAII (Michael W. Deem and Ramdas Pophale) SiO2 
 PCOD9467810
Probable space group: P N M A
;
_chemical_formula_sum "Si O2"
_cell_formula_units_Z 64
_cell_length_a 24.000000
_cell_length_b 9.000000
_cell_length_c 15.000000
_cell_angle_alpha 90.000000
_cell_angle_beta 90.000000
_cell_angle_gamma 90.000000
_cell_volume 3240.000000
_symmetry_space_group_name_H-M "P N M A"
_symmetry_group_IT_number 62
_symmetry_cell_setting 'orthorhombic'
loop_
_space_group_symop_operation_xyz
x,y,z
1/2-x,-y,1/2+z
1/2+x,1/2-y,1/2-z
-x,1/2+y,-z
-x,-y,-z
1/2+x,y,1/2-z
1/2-x,1/2+y,1/2+z
x,1/2-y,z
loop_
_atom_site_type_symbol
_atom_site_label
_atom_site_fract_x
_atom_site_fract_y
_atom_site_fract_z
Si Si1 0.620285 0.074737 0.512823
Si Si2 0.421932 0.072548 0.317121
Si Si3 0.360381 0.419022 0.982056
Si Si4 0.141913 0.074956 0.660287
Si Si5 0.131249 0.427679 0.295411
Si Si6 0.045505 0.430127 0.144746
Si Si7 0.266777 0.582666 0.437056
Si Si8 0.244813 0.574607 0.752123
O O1 0.608639 0.250000 0.525796
O O2 0.577486 0.012803 0.441605
O O3 0.685312 0.060990 0.489776
O O4 0.615688 0.987656 0.603921
O O5 0.420432 0.250000 0.311157
O O6 0.483171 0.019349 0.343881
O O7 0.400896 0.001405 0.227251
O O8 0.379864 0.250000 0.994774
O O9 0.375846 0.525244 0.062281
O O10 0.375504 0.483782 0.886315
O O11 0.293235 0.418752 0.980526
O O12 0.141930 0.250000 0.670244
O O13 0.202510 0.012369 0.689043
O O14 0.132113 0.250000 0.312954
O O15 0.081440 0.466005 0.230438
O O16 0.189688 0.462167 0.246359
O O17 0.044988 0.250000 0.138030
O O18 0.275621 0.750000 0.398808
O O19 0.267551 0.469209 0.355102
O O20 0.236662 0.750000 0.738188
#
# Coordination Sequence:
#
# PCOD9467810 Si02
#       8
#     8   8   8   8   8   8   8   8
#     4  10  19  34  57  85 118 157 189 225 281 345
#     4  11  22  38  58  84 116 151 196 246 285 332
#     4  10  21  37  58  86 118 150 187 237 290 343
#     4  12  24  38  57  82 114 154 197 239 289 344
#     4   9  19  38  61  85 115 151 189 233 288 347
#     4   9  20  37  60  85 113 152 196 237 285 342
#     4   9  18  32  54  82 118 153 182 220 277 341
#     4  10  19  32  56  84 114 148 186 231 283 339
#
# _framework density 19.753086
#
# number of rings (size 3 to 8) (size 9 to 14) (size 15 to 20)
#    0.000    2.000    1.250    2.625    1.750    1.000 
#    0.000    3.125    0.000    0.000    0.000    0.000 
#    0.000    0.000    0.000    0.000    0.000    0.000 
#
# Total GULP energy -356870.322725 kJ/mol
# GULP energy per Si atom -5576.098793 kJ/mol
# Density = 1.970813 g / cm^3
# Si number density = 19.753086 Si / 1000 Ang^3
#
#
#
# Elastic Constant Matrix: (Units=GPa)
#
#
# Indices 1 2 3 4 5 6 
#
# 1 22.4488 -14.0610 -22.3525 0.0000 0.0000 0.0000
# 2 -14.0610 22.3589 -13.7022 0.0000 0.0000 0.0000
# 3 -22.3525 -13.7022 30.9475 0.0000 0.0000 0.0000
# 4 0.0000 0.0000 0.0000 321.5598 0.0000 0.0000
# 5 0.0000 0.0000 0.0000 0.0000 6.9386 0.0000
# 6 0.0000 0.0000 0.0000 0.0000 0.0000 12.5201
#
#
#
# Elastic Compliance Matrix: (Units=1/GPa)
#
#
# Indices 1 2 3 4 5 6 
#
# 1 -0.034571 -0.050837 -0.047478 0.000000 0.000000 0.000000
# 2 -0.050837 -0.013377 -0.042641 0.000000 0.000000 0.000000
# 3 -0.047478 -0.042641 -0.020859 0.000000 0.000000 0.000000
# 4 0.000000 0.000000 0.000000 0.003110 0.000000 0.000000
# 5 0.000000 0.000000 0.000000 0.000000 0.144121 0.000000
# 6 0.000000 0.000000 0.000000 0.000000 0.000000 0.079872
#
#
# Mechanical properties :
#
#
# Convention : Reuss Voigt Hill
#
# Bulk Modulus (GPa) = -2.85126 -2.71958 -2.78542
# Shear Modulus (GPa) = 15.46545 76.59510 46.03027
#
# Velocity S-wave (km/s) = 2.80114 6.23381 4.83254
# Velocity P-wave (km/s) = 3.00254 7.10170 5.45204
#
# Compressibility (1/GPa) = -0.35072153
#
# Stress axis : x y z
#
# Youngs Moduli (GPa) = -28.92578 -74.75339 -47.94043
#
# Poissons Ratio (x) = -3.80026 -2.27614
# Poissons Ratio (y) = -1.47051 -2.04424
# Poissons Ratio (z) = -1.37335 -3.18757
#
# Static dielectric constant tensor:
#      x y z
#    x 0.824850 0.000000 0.000000 
#    y 0.000000 1.666290 0.000000 
#    z 0.000000 0.000000 -40.130880 
# 
# From -- ./inp_files/20889.got.cif
#   From: 2010.05.17/outbox.ucp.g08.bks.cvg/sg62_11_cif.got.tgz:20889.got - 2010.06.11 16:29:25.
