data_PCOD9467780
_publ_section_title
;
Structure prediction by ZEFSAII (Michael W. Deem and Ramdas Pophale) SiO2 
 PCOD9467780
Probable space group: P N M A
;
_chemical_formula_sum "Si O2"
_cell_formula_units_Z 56
_cell_length_a 21.000000
_cell_length_b 15.000000
_cell_length_c 9.000000
_cell_angle_alpha 90.000000
_cell_angle_beta 90.000000
_cell_angle_gamma 90.000000
_cell_volume 2835.000000
_symmetry_space_group_name_H-M "P N M A"
_symmetry_group_IT_number 62
_symmetry_cell_setting 'orthorhombic'
loop_
_space_group_symop_operation_xyz
x,y,z
1/2-x,-y,1/2+z
1/2+x,1/2-y,1/2-z
-x,1/2+y,-z
-x,-y,-z
1/2+x,y,1/2-z
1/2-x,1/2+y,1/2+z
x,1/2-y,z
loop_
_atom_site_type_symbol
_atom_site_label
_atom_site_fract_x
_atom_site_fract_y
_atom_site_fract_z
Si Si1 0.028556 0.851341 0.848703
Si Si2 0.691273 0.853241 0.868054
Si Si3 0.604632 0.967396 0.082931
Si Si4 0.465165 0.959296 0.184584
Si Si5 0.686437 0.023094 0.366528
Si Si6 0.094790 0.148056 0.952662
Si Si7 0.655199 0.849401 0.523092
O O1 0.039481 0.750000 0.786657
O O2 0.079119 0.864004 0.983763
O O3 0.959561 0.851172 0.921652
O O4 0.033264 0.937597 0.743455
O O5 0.708910 0.750000 0.901327
O O6 0.748873 0.922669 0.852778
O O7 0.663449 0.853374 0.701134
O O8 0.643811 0.892703 0.992092
O O9 0.537839 0.932674 0.150098
O O10 0.648273 0.009448 0.212200
O O11 0.579002 0.038483 0.961545
O O12 0.434820 0.895728 0.306497
O O13 0.647237 0.081691 0.484216
O O14 0.692739 0.925065 0.437380
O O15 0.116238 0.250000 0.929063
O O16 0.671592 0.750000 0.472063
#
# Coordination Sequence:
#
# PCOD9467780 Si02
#       7
#     8   8   8   8   8   8   8
#     4  10  18  34  63  91 119 160 204 248 305 371
#     4  11  24  42  61  86 122 167 213 257 309 373
#     4  11  24  37  65  92 125 161 203 264 324 374
#     4  11  21  40  61  95 129 161 199 261 330 377
#     4  12  22  40  63  89 124 164 211 256 308 372
#     4  11  22  37  61  91 124 165 206 251 309 381
#     4  10  21  39  64  87 116 161 212 256 305 371
#
# _framework density 19.753086
#
# number of rings (size 3 to 8) (size 9 to 14) (size 15 to 20)
#    0.000    1.143    4.286    2.571    0.000    1.143 
#    0.000    3.571    0.000    4.286    0.000    0.000 
#    0.000    0.000    0.000    0.000    0.000    0.000 
#
# Total GULP energy -312564.234934 kJ/mol
# GULP energy per Si atom -5581.504195 kJ/mol
# Density = 1.970813 g / cm^3
# Si number density = 19.753086 Si / 1000 Ang^3
#
#
#
# Elastic Constant Matrix: (Units=GPa)
#
#
# Indices 1 2 3 4 5 6 
#
# 1 63.6265 43.1604 23.3015 0.0000 0.0000 0.0000
# 2 43.1604 126.5527 46.0604 0.0000 0.0000 0.0000
# 3 23.3015 46.0604 91.7014 0.0000 0.0000 0.0000
# 4 0.0000 0.0000 0.0000 25.4265 0.0000 0.0000
# 5 0.0000 0.0000 0.0000 0.0000 14.3801 0.0000
# 6 0.0000 0.0000 0.0000 0.0000 0.0000 18.8034
#
#
#
# Elastic Compliance Matrix: (Units=1/GPa)
#
#
# Indices 1 2 3 4 5 6 
#
# 1 0.020774 -0.006319 -0.002105 0.000000 0.000000 0.000000
# 2 -0.006319 0.011592 -0.004217 0.000000 0.000000 0.000000
# 3 -0.002105 -0.004217 0.013558 0.000000 0.000000 0.000000
# 4 0.000000 0.000000 0.000000 0.039329 0.000000 0.000000
# 5 0.000000 0.000000 0.000000 0.000000 0.069540 0.000000
# 6 0.000000 0.000000 0.000000 0.000000 0.000000 0.053182
#
#
# Mechanical properties :
#
#
# Convention : Reuss Voigt Hill
#
# Bulk Modulus (GPa) = 48.44349 56.32502 52.38425
# Shear Modulus (GPa) = 20.82155 23.01257 21.91706
#
# Velocity S-wave (km/s) = 3.25020 3.41693 3.33461
# Velocity P-wave (km/s) = 6.21794 6.64407 6.43453
#
# Compressibility (1/GPa) = 0.02064261
#
# Stress axis : x y z
#
# Youngs Moduli (GPa) = 48.13748 86.26982 73.75840
#
# Poissons Ratio (x) = 0.54512 0.15525
# Poissons Ratio (y) = 0.30417 0.31101
# Poissons Ratio (z) = 0.10132 0.36377
#
# Static dielectric constant tensor:
#      x y z
#    x 1.759080 0.000000 0.000000 
#    y 0.000000 1.697840 0.000000 
#    z 0.000000 0.000000 1.693860 
# 
# From -- ./inp_files/8738.got.cif
#   From: 2010.05.17/outbox.ucp.g08.bks.cvg/sg62_5_cif.got.tgz:8738.got - 2010.06.11 16:29:25.
