data_PCOD9467833
_publ_section_title
;
Structure prediction by ZEFSAII (Michael W. Deem and Ramdas Pophale) SiO2 
 PCOD9467833
Probable space group: P N M A
;
_chemical_formula_sum "Si O2"
_cell_formula_units_Z 64
_cell_length_a 30.000000
_cell_length_b 9.000000
_cell_length_c 12.000000
_cell_angle_alpha 90.000000
_cell_angle_beta 90.000000
_cell_angle_gamma 90.000000
_cell_volume 3240.000000
_symmetry_space_group_name_H-M "P N M A"
_symmetry_group_IT_number 62
_symmetry_cell_setting 'orthorhombic'
loop_
_space_group_symop_operation_xyz
x,y,z
1/2-x,-y,1/2+z
1/2+x,1/2-y,1/2-z
-x,1/2+y,-z
-x,-y,-z
1/2+x,y,1/2-z
1/2-x,1/2+y,1/2+z
x,1/2-y,z
loop_
_atom_site_type_symbol
_atom_site_label
_atom_site_fract_x
_atom_site_fract_y
_atom_site_fract_z
Si Si1 0.314229 0.571786 0.731280
Si Si2 0.393439 0.570736 0.569641
Si Si3 0.561848 0.921031 0.040803
Si Si4 0.556624 0.072363 0.812793
Si Si5 0.785455 0.429263 0.309807
Si Si6 0.966524 0.071754 0.787721
Si Si7 0.140716 0.429343 0.825160
Si Si8 0.331678 0.078434 0.962800
O O1 0.315745 0.750000 0.728940
O O2 0.355096 0.518658 0.655481
O O3 0.265939 0.525587 0.687302
O O4 0.318868 0.515873 0.856223
O O5 0.396236 0.750000 0.572649
O O6 0.439493 0.504613 0.614175
O O7 0.378053 0.528461 0.446004
O O8 0.546240 0.750000 0.035876
O O9 0.551882 0.976504 0.165575
O O10 0.615120 0.924077 0.027173
O O11 0.544405 0.007483 0.933106
O O12 0.558025 0.250000 0.823516
O O13 0.518768 0.037068 0.721946
O O14 0.604114 0.021565 0.766187
O O15 0.788202 0.250000 0.301802
O O16 0.812426 0.499921 0.207764
O O17 0.809154 0.476076 0.424141
O O18 0.960861 0.250000 0.795645
O O19 0.144197 0.250000 0.822163
O O20 0.317907 0.250000 0.945274
#
# Coordination Sequence:
#
# PCOD9467833 Si02
#       8
#     8   8   8   8   8   8   8   8
#     4  10  22  38  57  82 111 143 182 227 274 325
#     4  10  22  39  57  79 110 147 187 230 275 328
#     4  10  19  34  56  83 113 145 182 224 277 333
#     4  10  21  36  56  83 114 146 184 231 278 329
#     4  10  22  39  58  83 113 145 182 227 277 327
#     4  10  21  37  56  82 114 146 184 231 279 329
#     4  10  22  39  58  81 111 148 188 228 277 331
#     4  10  20  36  60  85 113 146 182 227 277 328
#
# _framework density 19.753086
#
# number of rings (size 3 to 8) (size 9 to 14) (size 15 to 20)
#    0.000    2.000    2.500    0.375    1.750    3.500 
#    0.000    0.000    0.000    0.000    0.000    0.000 
#    0.000    0.000    0.000    0.000    0.000    0.000 
#
# Total GULP energy -357210.518963 kJ/mol
# GULP energy per Si atom -5581.414359 kJ/mol
# Density = 1.970813 g / cm^3
# Si number density = 19.753086 Si / 1000 Ang^3
#
#
#
# Elastic Constant Matrix: (Units=GPa)
#
#
# Indices 1 2 3 4 5 6 
#
# 1 44.9857 9.0853 -8.6828 0.0000 0.0000 0.0000
# 2 9.0853 -1.5433 3.8053 0.0000 0.0000 0.0000
# 3 -8.6828 3.8053 48.2934 0.0000 0.0000 0.0000
# 4 0.0000 0.0000 0.0000 26.6900 0.0000 0.0000
# 5 0.0000 0.0000 0.0000 0.0000 20.8229 0.0000
# 6 0.0000 0.0000 0.0000 0.0000 0.0000 23.1994
#
#
#
# Elastic Compliance Matrix: (Units=1/GPa)
#
#
# Indices 1 2 3 4 5 6 
#
# 1 0.010504 0.055672 -0.002498 0.000000 0.000000 0.000000
# 2 0.055672 -0.247460 0.029508 0.000000 0.000000 0.000000
# 3 -0.002498 0.029508 0.017933 0.000000 0.000000 0.000000
# 4 0.000000 0.000000 0.000000 0.037467 0.000000 0.000000
# 5 0.000000 0.000000 0.000000 0.000000 0.048024 0.000000
# 6 0.000000 0.000000 0.000000 0.000000 0.000000 0.043104
#
#
# Mechanical properties :
#
#
# Convention : Reuss Voigt Hill
#
# Bulk Modulus (GPa) = -18.63598 11.12791 -3.75404
# Shear Modulus (GPa) = -18.26961 19.97766 0.85402
#
# Velocity S-wave (km/s) = -3.04451 3.18365 0.65825
# Velocity P-wave (km/s) = 4.67051 4.37721 1.15191
#
# Compressibility (1/GPa) = -0.05365963
#
# Stress axis : x y z
#
# Youngs Moduli (GPa) = 95.20546 -4.04106 55.76461
#
# Poissons Ratio (x) = 0.22497 0.13931
# Poissons Ratio (y) = -5.30030 -1.64550
# Poissons Ratio (z) = 0.23784 0.11924
#
# Static dielectric constant tensor:
#      x y z
#    x 1.714580 0.000000 0.000000 
#    y 0.000000 1.670790 0.000000 
#    z 0.000000 0.000000 1.671430 
# 
# From -- ./inp_files/15788.got.cif
#   From: 2010.05.17/outbox.ucp.g08.bks.cvg/sg62_8_cif.got.tgz:15788.got - 2010.06.11 16:29:25.
