data_PCOD9467406
_publ_section_title
;
Structure prediction by ZEFSAII (Michael W. Deem and Ramdas Pophale) SiO2 
 PCOD9467406
Probable space group: P N M A
;
_chemical_formula_sum "Si O2"
_cell_formula_units_Z 48
_cell_length_a 12.089724
_cell_length_b 8.969379
_cell_length_c 23.120233
_cell_angle_alpha 90.000000
_cell_angle_beta 90.000000
_cell_angle_gamma 90.000000
_cell_volume 2507.096025
_symmetry_space_group_name_H-M "P N M A"
_symmetry_group_IT_number 62
_symmetry_cell_setting 'orthorhombic'
loop_
_space_group_symop_operation_xyz
x,y,z
1/2-x,-y,1/2+z
1/2+x,1/2-y,1/2-z
-x,1/2+y,-z
-x,-y,-z
1/2+x,y,1/2-z
1/2-x,1/2+y,1/2+z
x,1/2-y,z
loop_
_atom_site_type_symbol
_atom_site_label
_atom_site_fract_x
_atom_site_fract_y
_atom_site_fract_z
Si Si1 0.830733 0.074831 0.542774
Si Si2 0.858809 0.429855 0.733792
Si Si3 0.160802 0.076402 0.850848
Si Si4 0.258568 0.928204 0.075559
Si Si5 0.425522 0.926497 0.646515
Si Si6 0.517381 0.069069 0.869665
O O1 0.843400 0.250000 0.527143
O O2 0.735446 0.066103 0.591584
O O3 0.941843 0.022568 0.575695
O O4 0.798330 0.980726 0.487257
O O5 0.864568 0.250000 0.740911
O O6 0.742928 0.462693 0.701928
O O7 0.874372 0.508284 0.794454
O O8 0.956335 0.476752 0.689190
O O9 0.127920 0.250000 0.843398
O O10 0.052453 0.978032 0.854999
O O11 0.248094 0.750000 0.077534
O O12 0.356606 0.974800 0.119951
O O13 0.144812 0.003304 0.094386
O O14 0.417083 0.750000 0.645087
O O15 0.513152 0.250000 0.869577
#
# Coordination Sequence:
#
# PCOD9467406 Si02
#       6
#     8   8   8   8   8   8
#     4   9  18  37  62  88 116 146 186 241 292 334
#     4   9  19  39  64  85 109 147 194 239 285 344
#     4   9  20  40  64  84 109 150 195 235 286 349
#     4  11  22  36  57  87 119 155 195 230 279 349
#     4  12  26  39  54  83 120 154 192 241 291 337
#     4   8  17  35  61  89 114 147 190 233 284 343
#
# _framework density 19.145657
#
# number of rings (size 3 to 8) (size 9 to 14) (size 15 to 20)
#    0.000    2.333    0.000    4.500    2.333    2.000 
#    0.000    4.167    0.000    0.000    0.000    0.000 
#    0.000    0.000    0.000    0.000    0.000    0.000 
#
# Total GULP energy -268063.478296 kJ/mol
# GULP energy per Si atom -5584.655798 kJ/mol
# Density = 1.910208 g / cm^3
# Si number density = 19.145657 Si / 1000 Ang^3
#
#
#
# Elastic Constant Matrix: (Units=GPa)
#
#
# Indices 1 2 3 4 5 6 
#
# 1 76.1062 35.7837 -3.0833 0.0000 0.0000 0.0000
# 2 35.7837 54.7699 5.6685 0.0000 0.0000 0.0000
# 3 -3.0833 5.6685 22.7361 0.0000 0.0000 0.0000
# 4 0.0000 0.0000 0.0000 30.6173 0.0000 0.0000
# 5 0.0000 0.0000 0.0000 0.0000 5.2680 0.0000
# 6 0.0000 0.0000 0.0000 0.0000 0.0000 16.8252
#
#
#
# Elastic Compliance Matrix: (Units=1/GPa)
#
#
# Indices 1 2 3 4 5 6 
#
# 1 0.019744 -0.013526 0.006050 0.000000 0.000000 0.000000
# 2 -0.013526 0.028008 -0.008817 0.000000 0.000000 0.000000
# 3 0.006050 -0.008817 0.047002 0.000000 0.000000 0.000000
# 4 0.000000 0.000000 0.000000 0.032661 0.000000 0.000000
# 5 0.000000 0.000000 0.000000 0.000000 0.189824 0.000000
# 6 0.000000 0.000000 0.000000 0.000000 0.000000 0.059435
#
#
# Mechanical properties :
#
#
# Convention : Reuss Voigt Hill
#
# Bulk Modulus (GPa) = 16.08563 25.59444 20.84003
# Shear Modulus (GPa) = 11.62837 18.22499 14.92668
#
# Velocity S-wave (km/s) = 2.46715 3.08865 2.79523
# Velocity P-wave (km/s) = 4.06641 5.11048 4.61805
#
# Compressibility (1/GPa) = 0.06216730
#
# Stress axis : x y z
#
# Youngs Moduli (GPa) = 50.64739 35.70410 21.27582
#
# Poissons Ratio (x) = 0.48294 -0.12872
# Poissons Ratio (y) = 0.68506 0.18759
# Poissons Ratio (z) = -0.30641 0.31481
#
# Static dielectric constant tensor:
#      x y z
#    x 1.673580 0.000000 0.000000 
#    y 0.000000 1.638540 0.000000 
#    z 0.000000 0.000000 1.653770 
# 
# From -- ./inp_files/29223.got.cif
#   From: 2010.05.17/outbox.cif.g08.bks.cpg/sg62_15_cif.got.tgz:29223.got - 2010.06.03 15:25:27.
