data_PCOD9467697
_publ_section_title
;
Structure prediction by ZEFSAII (Michael W. Deem and Ramdas Pophale) SiO2 
 PCOD9467697
Probable space group: P N M A
;
_chemical_formula_sum "Si O2"
_cell_formula_units_Z 32
_cell_length_a 17.852253
_cell_length_b 12.989343
_cell_length_c 5.456195
_cell_angle_alpha 90.000000
_cell_angle_beta 90.000000
_cell_angle_gamma 90.000000
_cell_volume 1265.231807
_symmetry_space_group_name_H-M "P N M A"
_symmetry_group_IT_number 62
_symmetry_cell_setting 'orthorhombic'
loop_
_space_group_symop_operation_xyz
x,y,z
1/2-x,-y,1/2+z
1/2+x,1/2-y,1/2-z
-x,1/2+y,-z
-x,-y,-z
1/2+x,y,1/2-z
1/2-x,1/2+y,1/2+z
x,1/2-y,z
loop_
_atom_site_type_symbol
_atom_site_label
_atom_site_fract_x
_atom_site_fract_y
_atom_site_fract_z
Si Si1 0.530709 0.750000 0.376911
Si Si2 0.431957 0.750000 0.884147
Si Si3 0.920336 0.045931 0.069192
Si Si4 0.319462 0.576188 0.737647
Si Si5 0.330849 0.368547 0.022423
O O1 0.479167 0.750000 0.626904
O O2 0.580657 0.852553 0.398875
O O3 0.481318 0.750000 0.130869
O O4 0.378031 0.649869 0.875864
O O5 0.861159 0.955832 0.014798
O O6 0.904763 0.091602 0.335885
O O7 0.000000 0.000000 0.000000
O O8 0.239847 0.629517 0.710950
O O9 0.308763 0.463792 0.852310
O O10 0.336603 0.250000 0.948642
#
# Coordination Sequence:
#
# PCOD9467697 Si02
#       5
#     4   4   8   8   8
#     4  12  28  47  77 116 162 208 265 333 400 471
#     4  12  28  51  79 118 162 210 267 333 402 481
#     4  12  26  47  75 111 155 203 268 325 404 476
#     4  12  27  48  78 112 156 215 263 338 404 483
#     4  12  27  48  75 114 157 204 272 328 407 483
#
# _framework density 25.291809000000001
#
# number of rings (size 3 to 8) (size 9 to 14) (size 15 to 20)
#    0.000    0.000    7.500    1.500    5.250    2.000 
#    2.250    0.000    0.000    0.000    0.000    0.000 
#    0.000    0.000    0.000    0.000    0.000    0.000 
#
# Total GULP energy -179007.502663 kJ/mol
# GULP energy per Si atom -5593.984458 kJ/mol
# Density = 2.523424 g / cm^3
# Si number density = 25.291809 Si / 1000 Ang^3
#
#
#
# Elastic Constant Matrix: (Units=GPa)
#
#
# Indices 1 2 3 4 5 6 
#
# 1 83.7600 15.0129 0.3590 0.0000 0.0000 0.0000
# 2 15.0129 171.1400 10.6016 0.0000 0.0000 0.0000
# 3 0.3590 10.6016 68.0285 0.0000 0.0000 0.0000
# 4 0.0000 0.0000 0.0000 36.6401 0.0000 0.0000
# 5 0.0000 0.0000 0.0000 0.0000 35.5288 0.0000
# 6 0.0000 0.0000 0.0000 0.0000 0.0000 43.2599
#
#
#
# Elastic Compliance Matrix: (Units=1/GPa)
#
#
# Indices 1 2 3 4 5 6 
#
# 1 0.012130 -0.001070 0.000103 0.000000 0.000000 0.000000
# 2 -0.001070 0.005995 -0.000929 0.000000 0.000000 0.000000
# 3 0.000103 -0.000929 0.014844 0.000000 0.000000 0.000000
# 4 0.000000 0.000000 0.000000 0.027293 0.000000 0.000000
# 5 0.000000 0.000000 0.000000 0.000000 0.028146 0.000000
# 6 0.000000 0.000000 0.000000 0.000000 0.000000 0.023116
#
#
# Mechanical properties :
#
#
# Convention : Reuss Voigt Hill
#
# Bulk Modulus (GPa) = 34.27436 41.65284 37.96360
# Shear Modulus (GPa) = 39.98676 42.88277 41.43476
#
# Velocity S-wave (km/s) = 3.98051 4.12214 4.05194
# Velocity P-wave (km/s) = 5.89126 6.25785 6.07732
#
# Compressibility (1/GPa) = 0.02917633
#
# Stress axis : x y z
#
# Youngs Moduli (GPa) = 82.43822 166.81690 67.36782
#
# Poissons Ratio (x) = 0.17857 -0.00693
# Poissons Ratio (y) = 0.08825 0.06255
# Poissons Ratio (z) = -0.00847 0.15490
#
# Static dielectric constant tensor:
#      x y z
#    x 2.047740 0.000000 0.000000 
#    y 0.000000 1.930190 0.000000 
#    z 0.000000 0.000000 2.182350 
# 
# From -- ./inp_files/1464.got.cif
#   From: 2010.05.17/outbox.cif.g08.bks.cpg/sg62_1_cif.got.tgz:1464.got - 2010.06.03 15:25:27.
