data_PCOD9467721
_publ_section_title
;
Structure prediction by ZEFSAII (Michael W. Deem and Ramdas Pophale) SiO2 
 PCOD9467721
Probable space group: P N M A
;
_chemical_formula_sum "Si O2"
_cell_formula_units_Z 48
_cell_length_a 6.993165
_cell_length_b 9.211843
_cell_length_c 32.607891
_cell_angle_alpha 90.000000
_cell_angle_beta 90.000000
_cell_angle_gamma 90.000000
_cell_volume 2100.598318
_symmetry_space_group_name_H-M "P N M A"
_symmetry_group_IT_number 62
_symmetry_cell_setting 'orthorhombic'
loop_
_space_group_symop_operation_xyz
x,y,z
1/2-x,-y,1/2+z
1/2+x,1/2-y,1/2-z
-x,1/2+y,-z
-x,-y,-z
1/2+x,y,1/2-z
1/2-x,1/2+y,1/2+z
x,1/2-y,z
loop_
_atom_site_type_symbol
_atom_site_label
_atom_site_fract_x
_atom_site_fract_y
_atom_site_fract_z
Si Si1 0.133813 0.916823 0.383135
Si Si2 0.264331 0.925514 0.467477
Si Si3 0.661444 0.422356 0.443554
Si Si4 0.995531 0.084455 0.215973
Si Si5 0.949919 0.585912 0.694478
Si Si6 0.092113 0.581565 0.137562
O O1 0.078116 0.750000 0.380483
O O2 0.120864 0.963780 0.430534
O O3 0.363053 0.924855 0.373202
O O4 0.025950 0.002045 0.347686
O O5 0.305612 0.750000 0.463286
O O6 0.215472 0.948645 0.515119
O O7 0.451477 0.021402 0.457755
O O8 0.659712 0.250000 0.435287
O O9 0.694331 0.508177 0.401432
O O10 0.067757 0.250000 0.220537
O O11 0.985757 0.020588 0.261883
O O12 0.779342 0.092874 0.200414
O O13 0.111274 0.999864 0.181117
O O14 0.022839 0.750000 0.690431
O O15 0.141261 0.750000 0.141376
#
# Coordination Sequence:
#
# PCOD9467721 Si02
#       6
#     8   8   8   8   8   8
#     4   8  14  24  36  51  74 102 130 159 192 230
#     4   8  14  22  31  47  72 101 131 161 193 233
#     4   9  14  20  32  49  71 100 131 161 194 233
#     4   9  17  29  43  59  79 104 133 164 197 233
#     4   9  17  28  42  59  79 103 132 164 196 231
#     4   9  16  25  36  52  75 102 131 162 196 235
#
# _framework density 22.850633999999999
#
# number of rings (size 3 to 8) (size 9 to 14) (size 15 to 20)
#    0.000    3.333    0.000    2.000    0.000    5.333 
#    0.000    0.000    0.000    0.000    0.000    0.000 
#    0.000    1.333    0.000    2.667    0.000    8.333 
#
# Total GULP energy -267835.301285 kJ/mol
# GULP energy per Si atom -5579.902110 kJ/mol
# Density = 2.279862 g / cm^3
# Si number density = 22.850634 Si / 1000 Ang^3
#
#
#
# Elastic Constant Matrix: (Units=GPa)
#
#
# Indices 1 2 3 4 5 6 
#
# 1 65.0086 5.9485 29.8789 0.0000 0.0000 0.0000
# 2 5.9485 71.5366 102.6983 0.0000 0.0000 0.0000
# 3 29.8789 102.6983 242.8559 0.0000 0.0000 0.0000
# 4 0.0000 0.0000 0.0000 43.1960 0.0000 0.0000
# 5 0.0000 0.0000 0.0000 0.0000 43.5451 0.0000
# 6 0.0000 0.0000 0.0000 0.0000 0.0000 -4.6086
#
#
#
# Elastic Compliance Matrix: (Units=1/GPa)
#
#
# Indices 1 2 3 4 5 6 
#
# 1 0.016739 0.003982 -0.003743 0.000000 0.000000 0.000000
# 2 0.003982 0.036525 -0.015935 0.000000 0.000000 0.000000
# 3 -0.003743 -0.015935 0.011317 0.000000 0.000000 0.000000
# 4 0.000000 0.000000 0.000000 0.023150 0.000000 0.000000
# 5 0.000000 0.000000 0.000000 0.000000 0.022965 0.000000
# 6 0.000000 0.000000 0.000000 0.000000 0.000000 -0.216988
#
#
# Mechanical properties :
#
#
# Convention : Reuss Voigt Hill
#
# Bulk Modulus (GPa) = 30.13234 72.93916 51.53575
# Shear Modulus (GPa) = -78.32428 32.48487 -22.91971
#
# Velocity S-wave (km/s) = -5.86098 3.77453 -3.17049
# Velocity P-wave (km/s) = 5.70843 7.14040 3.03308
#
# Compressibility (1/GPa) = 0.03318694
#
# Stress axis : x y z
#
# Youngs Moduli (GPa) = 59.74185 27.37886 88.36346
#
# Poissons Ratio (x) = -0.10902 0.33077
# Poissons Ratio (y) = -0.23789 1.40810
# Poissons Ratio (z) = 0.22363 0.43629
#
# Static dielectric constant tensor:
#      x y z
#    x 1.920360 0.000000 0.000000 
#    y 0.000000 1.785550 0.000000 
#    z 0.000000 0.000000 1.878620 
# 
# From -- ./inp_files/30997.got.cif
#   From: 2010.05.17/outbox.cif.g08.bks.cpg/sg62_16_cif.got.tgz:30997.got - 2010.06.03 15:25:27.
