data_PCOD9467193
_publ_section_title
;
Structure prediction by ZEFSAII (Michael W. Deem and Ramdas Pophale) SiO2 
 PCOD9467193
Probable space group: P N M A
;
_chemical_formula_sum "Si O2"
_cell_formula_units_Z 24
_cell_length_a 23.060391
_cell_length_b 8.036829
_cell_length_c 4.746276
_cell_angle_alpha 90.000000
_cell_angle_beta 90.000000
_cell_angle_gamma 90.000000
_cell_volume 879.638813
_symmetry_space_group_name_H-M "P N M A"
_symmetry_group_IT_number 62
_symmetry_cell_setting 'orthorhombic'
loop_
_space_group_symop_operation_xyz
x,y,z
1/2-x,-y,1/2+z
1/2+x,1/2-y,1/2-z
-x,1/2+y,-z
-x,-y,-z
1/2+x,y,1/2-z
1/2-x,1/2+y,1/2+z
x,1/2-y,z
loop_
_atom_site_type_symbol
_atom_site_label
_atom_site_fract_x
_atom_site_fract_y
_atom_site_fract_z
Si Si1 0.213522 0.554464 0.157468
Si Si2 0.388782 0.931498 0.268508
Si Si3 0.990235 0.750000 0.963512
Si Si4 0.569189 0.750000 0.038512
O O1 0.268543 0.526485 0.950981
O O2 0.202908 0.750000 0.192080
O O3 0.160772 0.470241 0.994111
O O4 0.377868 0.750000 0.132558
O O5 0.448887 0.900937 0.438403
O O6 0.397442 0.084976 0.059040
O O7 0.049744 0.750000 0.140600
O O8 0.008694 0.750000 0.639801
#
# Coordination Sequence:
#
# PCOD9467193 Si02
#       4
#     8   8   4   4
#     4  12  26  48  73 104 142 182 235 293 353 420
#     4  10  24  44  69 102 133 181 226 279 341 410
#     4  10  26  40  72  92 144 174 230 274 338 404
#     4  12  22  48  60 104 134 184 220 282 330 404
#
# _framework density 27.283923999999999
#
# number of rings (size 3 to 8) (size 9 to 14) (size 15 to 20)
#    1.000    0.000    1.667    5.000    0.000    5.333 
#    0.000    0.000    0.000    0.000    0.000    0.000 
#    0.000    0.000    0.000    0.000    0.000    0.000 
#
# Total GULP energy -134891.500852 kJ/mol
# GULP energy per Si atom -5620.479202 kJ/mol
# Density = 2.722182 g / cm^3
# Si number density = 27.283924 Si / 1000 Ang^3
#
#
#
# Elastic Constant Matrix: (Units=GPa)
#
#
# Indices 1 2 3 4 5 6 
#
# 1 112.5307 42.7806 19.8680 0.0000 0.0000 0.0000
# 2 42.7806 226.4442 29.7969 0.0000 0.0000 0.0000
# 3 19.8680 29.7969 113.2175 0.0000 0.0000 0.0000
# 4 0.0000 0.0000 0.0000 40.2166 0.0000 0.0000
# 5 0.0000 0.0000 0.0000 0.0000 48.2611 0.0000
# 6 0.0000 0.0000 0.0000 0.0000 0.0000 57.8284
#
#
#
# Elastic Compliance Matrix: (Units=1/GPa)
#
#
# Indices 1 2 3 4 5 6 
#
# 1 0.009747 -0.001674 -0.001270 0.000000 0.000000 0.000000
# 2 -0.001674 0.004862 -0.000986 0.000000 0.000000 0.000000
# 3 -0.001270 -0.000986 0.009315 0.000000 0.000000 0.000000
# 4 0.000000 0.000000 0.000000 0.024865 0.000000 0.000000
# 5 0.000000 0.000000 0.000000 0.000000 0.020721 0.000000
# 6 0.000000 0.000000 0.000000 0.000000 0.000000 0.017293
#
#
# Mechanical properties :
#
#
# Convention : Reuss Voigt Hill
#
# Bulk Modulus (GPa) = 62.25032 70.78705 66.51868
# Shear Modulus (GPa) = 49.99127 53.24434 51.61781
#
# Velocity S-wave (km/s) = 4.28514 4.42236 4.35429
# Velocity P-wave (km/s) = 6.88102 7.21646 7.05074
#
# Compressibility (1/GPa) = 0.01606417
#
# Stress axis : x y z
#
# Youngs Moduli (GPa) = 102.59347 205.67044 107.35561
#
# Poissons Ratio (x) = 0.34437 0.13632
# Poissons Ratio (y) = 0.17178 0.10583
# Poissons Ratio (z) = 0.13028 0.20275
#
# Static dielectric constant tensor:
#      x y z
#    x 2.163390 0.000000 0.000000 
#    y 0.000000 2.105720 0.000000 
#    z 0.000000 0.000000 1.993210 
# 
# From -- ./inp_files/2479.got.cif
#   From: 2010.05.17/outbox.cif.g08.bks.cpg/sg62_2_cif.got.tgz:2479.got - 2010.06.03 15:25:27.
