data_PCOD9467442
_publ_section_title
;
Structure prediction by ZEFSAII (Michael W. Deem and Ramdas Pophale) SiO2 
 PCOD9467442
Probable space group: P N M A
;
_chemical_formula_sum "Si O2"
_cell_formula_units_Z 48
_cell_length_a 10.007322
_cell_length_b 16.873270
_cell_length_c 12.424318
_cell_angle_alpha 90.000000
_cell_angle_beta 90.000000
_cell_angle_gamma 90.000000
_cell_volume 2097.923698
_symmetry_space_group_name_H-M "P N M A"
_symmetry_group_IT_number 62
_symmetry_cell_setting 'orthorhombic'
loop_
_space_group_symop_operation_xyz
x,y,z
1/2-x,-y,1/2+z
1/2+x,1/2-y,1/2-z
-x,1/2+y,-z
-x,-y,-z
1/2+x,y,1/2-z
1/2-x,1/2+y,1/2+z
x,1/2-y,z
loop_
_atom_site_type_symbol
_atom_site_label
_atom_site_fract_x
_atom_site_fract_y
_atom_site_fract_z
Si Si1 0.664194 0.550311 0.962525
Si Si2 0.676994 0.839029 0.552966
Si Si3 0.160624 0.119775 0.650982
Si Si4 0.391283 0.077592 0.795410
Si Si5 0.452262 0.658053 0.843201
Si Si6 0.951707 0.565826 0.868790
O O1 0.645893 0.469482 0.896323
O O2 0.549242 0.609442 0.921522
O O3 0.812126 0.578511 0.929502
O O4 0.647075 0.538766 0.089992
O O5 0.619922 0.750000 0.568124
O O6 0.762240 0.836457 0.443162
O O7 0.574195 0.913081 0.551495
O O8 0.794024 0.855491 0.639092
O O9 0.258027 0.117276 0.751623
O O10 0.010446 0.139477 0.683466
O O11 0.440147 0.014584 0.703263
O O12 0.477598 0.750000 0.860227
O O13 0.480186 0.631202 0.722535
#
# Coordination Sequence:
#
# PCOD9467442 Si02
#       6
#     8   8   8   8   8   8
#     4  11  23  41  66  97 138 172 226 279 340 397
#     4  11  25  44  65  96 138 179 221 278 342 403
#     4  11  24  41  68  94 132 172 224 277 335 391
#     4  11  24  40  67  99 129 171 219 279 335 399
#     4  11  22  40  64  94 134 181 226 277 342 405
#     4  11  24  38  67  99 132 171 220 278 339 402
#
# _framework density 22.879764999999999
#
# number of rings (size 3 to 8) (size 9 to 14) (size 15 to 20)
#    0.000    1.000    3.333    3.000    7.000    4.000 
#    0.000    1.667    0.000    0.000    0.000    0.000 
#    0.000    0.000    0.000    0.000    0.000    0.000 
#
# Total GULP energy -268333.778274 kJ/mol
# GULP energy per Si atom -5590.287047 kJ/mol
# Density = 2.282769 g / cm^3
# Si number density = 22.879765 Si / 1000 Ang^3
#
#
#
# Elastic Constant Matrix: (Units=GPa)
#
#
# Indices 1 2 3 4 5 6 
#
# 1 98.8163 8.1307 40.3507 0.0000 0.0000 0.0000
# 2 8.1307 56.3996 -6.7014 0.0000 0.0000 0.0000
# 3 40.3507 -6.7014 86.2858 0.0000 0.0000 0.0000
# 4 0.0000 0.0000 0.0000 21.5646 0.0000 0.0000
# 5 0.0000 0.0000 0.0000 0.0000 40.6297 0.0000
# 6 0.0000 0.0000 0.0000 0.0000 0.0000 19.5677
#
#
#
# Elastic Compliance Matrix: (Units=1/GPa)
#
#
# Indices 1 2 3 4 5 6 
#
# 1 0.012874 -0.002595 -0.006222 0.000000 0.000000 0.000000
# 2 -0.002595 0.018419 0.002644 0.000000 0.000000 0.000000
# 3 -0.006222 0.002644 0.014704 0.000000 0.000000 0.000000
# 4 0.000000 0.000000 0.000000 0.046372 0.000000 0.000000
# 5 0.000000 0.000000 0.000000 0.000000 0.024613 0.000000
# 6 0.000000 0.000000 0.000000 0.000000 0.000000 0.051105
#
#
# Mechanical properties :
#
#
# Convention : Reuss Voigt Hill
#
# Bulk Modulus (GPa) = 29.71662 36.11798 32.91730
# Shear Modulus (GPa) = 26.08921 29.66716 27.87818
#
# Velocity S-wave (km/s) = 3.38046 3.60482 3.49444
# Velocity P-wave (km/s) = 5.31536 5.75730 5.54074
#
# Compressibility (1/GPa) = 0.03365121
#
# Stress axis : x y z
#
# Youngs Moduli (GPa) = 77.67582 54.29197 68.00688
#
# Poissons Ratio (x) = 0.14090 0.42314
# Poissons Ratio (y) = 0.20159 -0.17982
# Poissons Ratio (z) = 0.48330 -0.14356
#
# Static dielectric constant tensor:
#      x y z
#    x 1.961910 0.000000 0.000000 
#    y 0.000000 1.874350 0.000000 
#    z 0.000000 0.000000 1.928300 
# 
# From -- ./inp_files/16933.got.cif
#   From: 2010.05.17/outbox.cif.g08.bks.cpg/sg62_9_cif.got.tgz:16933.got - 2010.06.03 15:25:27.
