data_PCOD9467325
_publ_section_title
;
Structure prediction by ZEFSAII (Michael W. Deem and Ramdas Pophale) SiO2 
 PCOD9467325
Probable space group: P N M A
;
_chemical_formula_sum "Si O2"
_cell_formula_units_Z 56
_cell_length_a 19.420260
_cell_length_b 23.324379
_cell_length_c 4.764281
_cell_angle_alpha 90.000000
_cell_angle_beta 90.000000
_cell_angle_gamma 90.000000
_cell_volume 2158.054947
_symmetry_space_group_name_H-M "P N M A"
_symmetry_group_IT_number 62
_symmetry_cell_setting 'orthorhombic'
loop_
_space_group_symop_operation_xyz
x,y,z
1/2-x,-y,1/2+z
1/2+x,1/2-y,1/2-z
-x,1/2+y,-z
-x,-y,-z
1/2+x,y,1/2-z
1/2-x,1/2+y,1/2+z
x,1/2-y,z
loop_
_atom_site_type_symbol
_atom_site_label
_atom_site_fract_x
_atom_site_fract_y
_atom_site_fract_z
Si Si1 0.439856 0.750000 0.385606
Si Si2 0.181594 0.517141 0.366897
Si Si3 0.740321 0.598431 0.745808
Si Si4 0.590907 0.480439 0.616177
Si Si5 0.112100 0.138516 0.212702
Si Si6 0.991419 0.095199 0.627010
Si Si7 0.036573 0.750000 0.635045
Si Si8 0.091899 0.864542 0.840168
O O1 0.402951 0.806341 0.516146
O O2 0.468351 0.750000 0.065129
O O3 0.511517 0.750000 0.545817
O O4 0.237935 0.466218 0.342239
O O5 0.215925 0.578353 0.440144
O O6 0.136569 0.489815 0.613060
O O7 0.126996 0.521422 0.112474
O O8 0.807752 0.636979 0.701999
O O9 0.672668 0.627733 0.621698
O O10 0.605631 0.418325 0.474662
O O11 0.515535 0.464704 0.735566
O O12 0.560761 0.587054 0.868191
O O13 0.056057 0.127072 0.463766
O O14 0.920815 0.191499 0.356925
O O15 0.955039 0.130432 0.880367
#
# Coordination Sequence:
#
# PCOD9467325 Si02
#       8
#     4   8   8   8   8   8   4   8
#     4  12  26  43  80 113 136 200 255 291 372 453
#     4  11  24  43  77  98 145 199 253 299 398 439
#     4  11  26  49  72 113 146 197 252 325 374 449
#     4  11  20  43  74 102 135 197 245 306 353 454
#     4  11  24  43  79 105 146 193 260 307 358 449
#     4  12  22  46  72 107 147 197 247 308 371 447
#     4  12  24  47  72 109 150 194 235 299 380 457
#     4  12  27  43  75 108 157 196 243 310 396 441
#
# _framework density 25.949293999999998
#
# number of rings (size 3 to 8) (size 9 to 14) (size 15 to 20)
#    0.000    0.571    5.714    3.429    0.000    5.143 
#    0.000    4.286    0.000    3.429    0.000    0.000 
#    0.000    0.000    0.000    0.000    0.000    0.000 
#
# Total GULP energy -312745.921919 kJ/mol
# GULP energy per Si atom -5584.748606 kJ/mol
# Density = 2.589023 g / cm^3
# Si number density = 25.949294 Si / 1000 Ang^3
#
#
#
# Elastic Constant Matrix: (Units=GPa)
#
#
# Indices 1 2 3 4 5 6 
#
# 1 229.0714 53.3387 53.9767 0.0000 0.0000 0.0000
# 2 53.3387 114.8954 17.8859 0.0000 0.0000 0.0000
# 3 53.9767 17.8859 157.0163 0.0000 0.0000 0.0000
# 4 0.0000 0.0000 0.0000 35.8845 0.0000 0.0000
# 5 0.0000 0.0000 0.0000 0.0000 37.5427 0.0000
# 6 0.0000 0.0000 0.0000 0.0000 0.0000 38.9095
#
#
#
# Elastic Compliance Matrix: (Units=1/GPa)
#
#
# Indices 1 2 3 4 5 6 
#
# 1 0.005242 -0.002192 -0.001552 0.000000 0.000000 0.000000
# 2 -0.002192 0.009777 -0.000360 0.000000 0.000000 0.000000
# 3 -0.001552 -0.000360 0.006943 0.000000 0.000000 0.000000
# 4 0.000000 0.000000 0.000000 0.027867 0.000000 0.000000
# 5 0.000000 0.000000 0.000000 0.000000 0.026636 0.000000
# 6 0.000000 0.000000 0.000000 0.000000 0.000000 0.025701
#
#
# Mechanical properties :
#
#
# Convention : Reuss Voigt Hill
#
# Bulk Modulus (GPa) = 72.70775 83.48730 78.09753
# Shear Modulus (GPa) = 43.49369 47.51945 45.50657
#
# Velocity S-wave (km/s) = 4.09847 4.28394 4.19223
# Velocity P-wave (km/s) = 7.10469 7.53078 7.32083
#
# Compressibility (1/GPa) = 0.01375369
#
# Stress axis : x y z
#
# Youngs Moduli (GPa) = 190.78410 102.27964 144.02175
#
# Poissons Ratio (x) = 0.22416 0.22355
# Poissons Ratio (y) = 0.41814 0.05189
# Poissons Ratio (z) = 0.29613 0.03685
#
# Static dielectric constant tensor:
#      x y z
#    x 2.146820 0.000000 0.000000 
#    y 0.000000 2.228930 0.000000 
#    z 0.000000 0.000000 2.195300 
# 
# From -- ./inp_files/2327.got.cif
#   From: 2010.05.17/outbox.cif.g08.bks.cpg/sg62_2_cif.got.tgz:2327.got - 2010.06.03 15:25:27.
