data_PCOD9467640
_publ_section_title
;
Structure prediction by ZEFSAII (Michael W. Deem and Ramdas Pophale) SiO2 
 PCOD9467640
Probable space group: P N M A
;
_chemical_formula_sum "Si O2"
_cell_formula_units_Z 40
_cell_length_a 4.957306
_cell_length_b 24.008652
_cell_length_c 13.258679
_cell_angle_alpha 90.000000
_cell_angle_beta 90.000000
_cell_angle_gamma 90.000000
_cell_volume 1578.024568
_symmetry_space_group_name_H-M "P N M A"
_symmetry_group_IT_number 62
_symmetry_cell_setting 'orthorhombic'
loop_
_space_group_symop_operation_xyz
x,y,z
1/2-x,-y,1/2+z
1/2+x,1/2-y,1/2-z
-x,1/2+y,-z
-x,-y,-z
1/2+x,y,1/2-z
1/2-x,1/2+y,1/2+z
x,1/2-y,z
loop_
_atom_site_type_symbol
_atom_site_label
_atom_site_fract_x
_atom_site_fract_y
_atom_site_fract_z
Si Si1 0.821257 0.919462 0.042202
Si Si2 0.684337 0.121318 0.086109
Si Si3 0.734506 0.010444 0.185884
Si Si4 0.110241 0.250000 0.411050
Si Si5 0.884037 0.750000 0.030443
Si Si6 0.337264 0.165522 0.810812
O O1 0.727684 0.895533 0.151251
O O2 0.810928 0.983690 0.077435
O O3 0.598851 0.899687 0.961325
O O4 0.097506 0.891767 0.002868
O O5 0.757344 0.077095 0.171345
O O6 0.676534 0.185966 0.123247
O O7 0.438107 0.995984 0.224280
O O8 0.300764 0.250000 0.510987
O O9 0.788682 0.250000 0.427931
O O10 0.771683 0.699696 0.095361
O O11 0.642190 0.177756 0.782791
#
# Coordination Sequence:
#
# PCOD9467640 Si02
#       6
#     8   8   8   4   4   8
#     4  12  23  43  67  97 131 173 216 265 320 397
#     4  12  24  44  71  96 131 174 222 266 323 391
#     4  12  26  46  69 100 132 168 218 280 333 380
#     4  12  22  43  64  97 126 174 222 274 308 389
#     4  12  22  39  56  85 136 170 226 262 304 379
#     4  12  22  35  55  87 128 171 208 253 313 373
#
# _framework density 25.348147999999998
#
# number of rings (size 3 to 8) (size 9 to 14) (size 15 to 20)
#    0.000    0.000    4.000    7.800    0.000    0.000 
#    0.000    1.000    0.000    0.000    0.000    0.000 
#    0.000    0.000    0.000    0.000    0.000    0.000 
#
# Total GULP energy -223410.596093 kJ/mol
# GULP energy per Si atom -5585.264902 kJ/mol
# Density = 2.529045 g / cm^3
# Si number density = 25.348148 Si / 1000 Ang^3
#
#
#
# Elastic Constant Matrix: (Units=GPa)
#
#
# Indices 1 2 3 4 5 6 
#
# 1 74.3344 2.1905 9.0103 0.0000 0.0000 0.0000
# 2 2.1905 125.3026 -2.5442 0.0000 0.0000 0.0000
# 3 9.0103 -2.5442 12.0565 0.0000 0.0000 0.0000
# 4 0.0000 0.0000 0.0000 56.0758 0.0000 0.0000
# 5 0.0000 0.0000 0.0000 0.0000 30.7454 0.0000
# 6 0.0000 0.0000 0.0000 0.0000 0.0000 21.2127
#
#
#
# Elastic Compliance Matrix: (Units=1/GPa)
#
#
# Indices 1 2 3 4 5 6 
#
# 1 0.014822 -0.000486 -0.011180 0.000000 0.000000 0.000000
# 2 -0.000486 0.008031 0.002058 0.000000 0.000000 0.000000
# 3 -0.011180 0.002058 0.091732 0.000000 0.000000 0.000000
# 4 0.000000 0.000000 0.000000 0.017833 0.000000 0.000000
# 5 0.000000 0.000000 0.000000 0.000000 0.032525 0.000000
# 6 0.000000 0.000000 0.000000 0.000000 0.000000 0.047142
#
#
# Mechanical properties :
#
#
# Convention : Reuss Voigt Hill
#
# Bulk Modulus (GPa) = 10.48551 25.44520 17.96535
# Shear Modulus (GPa) = 19.00481 35.14255 27.07368
#
# Velocity S-wave (km/s) = 2.74113 3.72747 3.27168
# Velocity P-wave (km/s) = 3.76350 5.34654 4.62328
#
# Compressibility (1/GPa) = 0.09536971
#
# Stress axis : x y z
#
# Youngs Moduli (GPa) = 67.46641 124.51801 10.90127
#
# Poissons Ratio (x) = 0.06053 0.12187
# Poissons Ratio (y) = 0.03280 -0.02243
# Poissons Ratio (z) = 0.75426 -0.25626
#
# Static dielectric constant tensor:
#      x y z
#    x 1.946270 0.000000 0.000000 
#    y 0.000000 2.357110 0.000000 
#    z 0.000000 0.000000 1.968690 
# 
# From -- ./inp_files/16179.got.cif
#   From: 2010.05.17/outbox.cif.g08.bks.cpg/sg62_9_cif.got.tgz:16179.got - 2010.06.03 15:25:27.
