data_PCOD9467947
_publ_section_title
;
Structure prediction by ZEFSAII (Michael W. Deem and Ramdas Pophale) SiO2 
 PCOD9467947
Probable space group: P N M A
;
_chemical_formula_sum "Si O2"
_cell_formula_units_Z 48
_cell_length_a 30.000000
_cell_length_b 9.000000
_cell_length_c 9.000000
_cell_angle_alpha 90.000000
_cell_angle_beta 90.000000
_cell_angle_gamma 90.000000
_cell_volume 2430.000000
_symmetry_space_group_name_H-M "P N M A"
_symmetry_group_IT_number 62
_symmetry_cell_setting 'orthorhombic'
loop_
_space_group_symop_operation_xyz
x,y,z
1/2-x,-y,1/2+z
1/2+x,1/2-y,1/2-z
-x,1/2+y,-z
-x,-y,-z
1/2+x,y,1/2-z
1/2-x,1/2+y,1/2+z
x,1/2-y,z
loop_
_atom_site_type_symbol
_atom_site_label
_atom_site_fract_x
_atom_site_fract_y
_atom_site_fract_z
Si Si1 0.938533 0.076255 0.620007
Si Si2 0.720980 0.571817 0.118189
Si Si3 0.610960 0.927571 0.596491
Si Si4 0.698012 0.927453 0.778386
Si Si5 0.026672 0.925581 0.715904
Si Si6 0.140417 0.426597 0.211558
O O1 0.929089 0.250000 0.647479
O O2 0.949919 0.058322 0.445792
O O3 0.897284 0.978460 0.672210
O O4 0.982189 0.022591 0.709437
O O5 0.719353 0.750000 0.127937
O O6 0.769067 0.511971 0.166782
O O7 0.685986 0.500860 0.232731
O O8 0.707938 0.529565 0.948995
O O9 0.611004 0.750000 0.567100
O O10 0.647573 0.954718 0.725274
O O11 0.562310 0.968041 0.658831
O O12 0.625404 0.012197 0.448632
O O13 0.706105 0.750000 0.766570
O O14 0.015603 0.750000 0.731817
O O15 0.144974 0.250000 0.207752
#
# Coordination Sequence:
#
# PCOD9467947 Si02
#       6
#     8   8   8   8   8   8
#     4  10  20  37  61  87 116 151 191 236 289 344
#     4  11  23  40  62  87 117 152 190 234 286 341
#     4  10  21  39  61  84 116 154 191 235 286 338
#     4  10  22  40  62  89 118 150 190 234 282 339
#     4   9  19  37  61  88 116 149 191 237 286 342
#     4  12  25  39  57  84 117 152 195 241 285 339
#
# _framework density 19.753086
#
# number of rings (size 3 to 8) (size 9 to 14) (size 15 to 20)
#    0.000    1.667    0.000    4.500    0.000    9.333 
#    0.000    1.667    0.000    0.000    0.000    0.000 
#    0.000    0.000    0.000    0.000    0.000    0.000 
#
# Total GULP energy -268432.420504 kJ/mol
# GULP energy per Si atom -5592.342094 kJ/mol
# Density = 1.970813 g / cm^3
# Si number density = 19.753086 Si / 1000 Ang^3
#
#
#
# Elastic Constant Matrix: (Units=GPa)
#
#
# Indices 1 2 3 4 5 6 
#
# 1 34.9941 -1.1766 -34.3524 0.0000 0.0000 0.0000
# 2 -1.1766 38.2874 0.7967 0.0000 0.0000 0.0000
# 3 -34.3524 0.7967 16.9199 0.0000 0.0000 0.0000
# 4 0.0000 0.0000 0.0000 28.9409 0.0000 0.0000
# 5 0.0000 0.0000 0.0000 0.0000 28.2482 0.0000
# 6 0.0000 0.0000 0.0000 0.0000 0.0000 35.6499
#
#
#
# Elastic Compliance Matrix: (Units=1/GPa)
#
#
# Indices 1 2 3 4 5 6 
#
# 1 -0.028772 0.000332 -0.058431 0.000000 0.000000 0.000000
# 2 0.000332 0.026140 -0.000557 0.000000 0.000000 0.000000
# 3 -0.058431 -0.000557 -0.059503 0.000000 0.000000 0.000000
# 4 0.000000 0.000000 0.000000 0.034553 0.000000 0.000000
# 5 0.000000 0.000000 0.000000 0.000000 0.035401 0.000000
# 6 0.000000 0.000000 0.000000 0.000000 0.000000 0.028051
#
#
# Mechanical properties :
#
#
# Convention : Reuss Voigt Hill
#
# Bulk Modulus (GPa) = -5.57265 2.30409 -1.63428
# Shear Modulus (GPa) = 53.55232 26.89670 40.22451
#
# Velocity S-wave (km/s) = 5.21246 3.69405 4.51751
# Velocity P-wave (km/s) = 5.77919 4.40042 5.13628
#
# Compressibility (1/GPa) = -0.17944784
#
# Stress axis : x y z
#
# Youngs Moduli (GPa) = -34.75631 38.25546 -16.80585
#
# Poissons Ratio (x) = -0.01269 -0.98198
# Poissons Ratio (y) = 0.01153 -0.00937
# Poissons Ratio (z) = -2.03083 0.02133
#
# Static dielectric constant tensor:
#      x y z
#    x 1.688510 0.000000 0.000000 
#    y 0.000000 1.656020 0.000000 
#    z 0.000000 0.000000 1.680730 
# 
# From -- ./inp_files/10261.got.cif
#   From: 2010.05.17/outbox.ucp.g08.bks.cvg/sg62_6_cif.got.tgz:10261.got - 2010.06.11 16:29:25.
