data_PCOD9467419
_publ_section_title
;
Structure prediction by ZEFSAII (Michael W. Deem and Ramdas Pophale) SiO2 
 PCOD9467419
Probable space group: P N M A
;
_chemical_formula_sum "Si O2"
_cell_formula_units_Z 32
_cell_length_a 9.590667
_cell_length_b 12.988160
_cell_length_c 9.908250
_cell_angle_alpha 90.000000
_cell_angle_beta 90.000000
_cell_angle_gamma 90.000000
_cell_volume 1234.222325
_symmetry_space_group_name_H-M "P N M A"
_symmetry_group_IT_number 62
_symmetry_cell_setting 'orthorhombic'
loop_
_space_group_symop_operation_xyz
x,y,z
1/2-x,-y,1/2+z
1/2+x,1/2-y,1/2-z
-x,1/2+y,-z
-x,-y,-z
1/2+x,y,1/2-z
1/2-x,1/2+y,1/2+z
x,1/2-y,z
loop_
_atom_site_type_symbol
_atom_site_label
_atom_site_fract_x
_atom_site_fract_y
_atom_site_fract_z
Si Si1 0.902361 0.641351 0.029626
Si Si2 0.993132 0.865395 0.621183
Si Si3 0.799065 0.414693 0.029375
Si Si4 0.420211 0.590378 0.170567
O O1 0.835080 0.750000 0.993651
O O2 0.815319 0.537585 0.016161
O O3 0.944572 0.639529 0.186851
O O4 0.048066 0.629534 0.950822
O O5 0.028476 0.750000 0.663750
O O6 0.824086 0.882763 0.631421
O O7 0.013142 0.875928 0.457546
O O8 0.062599 0.966818 0.682874
O O9 0.733217 0.382207 0.885177
#
# Coordination Sequence:
#
# PCOD9467419 Si02
#       4
#     8   8   8   8
#     4  11  22  38  64  87 116 158 195 243 299 341
#     4   9  18  37  57  82 122 156 186 241 293 332
#     4   9  22  39  55  89 126 142 198 248 282 353
#     4   9  21  36  60  91 113 151 205 240 277 362
#
# _framework density 25.927257999999998
#
# number of rings (size 3 to 8) (size 9 to 14) (size 15 to 20)
#    1.500    1.000    0.000    1.500    3.500    1.000 
#    0.000    6.250    0.000    0.000    0.000    0.000 
#    0.000    0.000    0.000    0.000    0.000    0.000 
#
# Total GULP energy -178724.368153 kJ/mol
# GULP energy per Si atom -5585.136505 kJ/mol
# Density = 2.586825 g / cm^3
# Si number density = 25.927258 Si / 1000 Ang^3
#
#
#
# Elastic Constant Matrix: (Units=GPa)
#
#
# Indices 1 2 3 4 5 6 
#
# 1 77.4983 13.2414 -6.1800 0.0000 0.0000 0.0000
# 2 13.2414 198.1378 1.3965 0.0000 0.0000 0.0000
# 3 -6.1800 1.3965 70.1626 0.0000 0.0000 0.0000
# 4 0.0000 0.0000 0.0000 137.1331 0.0000 0.0000
# 5 0.0000 0.0000 0.0000 0.0000 17.9132 0.0000
# 6 0.0000 0.0000 0.0000 0.0000 0.0000 6.5575
#
#
#
# Elastic Compliance Matrix: (Units=1/GPa)
#
#
# Indices 1 2 3 4 5 6 
#
# 1 0.013149 -0.000887 0.001176 0.000000 0.000000 0.000000
# 2 -0.000887 0.005108 -0.000180 0.000000 0.000000 0.000000
# 3 0.001176 -0.000180 0.014360 0.000000 0.000000 0.000000
# 4 0.000000 0.000000 0.000000 0.007292 0.000000 0.000000
# 5 0.000000 0.000000 0.000000 0.000000 0.055825 0.000000
# 6 0.000000 0.000000 0.000000 0.000000 0.000000 0.152498
#
#
# Mechanical properties :
#
#
# Convention : Reuss Voigt Hill
#
# Bulk Modulus (GPa) = 30.45609 40.30161 35.37885
# Shear Modulus (GPa) = 19.30817 54.81016 37.05916
#
# Velocity S-wave (km/s) = 2.73189 4.60281 3.78478
# Velocity P-wave (km/s) = 4.66082 6.62010 5.72490
#
# Compressibility (1/GPa) = 0.03283415
#
# Stress axis : x y z
#
# Youngs Moduli (GPa) = 76.05243 195.78904 69.63912
#
# Poissons Ratio (x) = 0.17367 -0.08188
# Poissons Ratio (y) = 0.06746 0.01252
# Poissons Ratio (z) = -0.08942 0.03520
#
# Static dielectric constant tensor:
#      x y z
#    x 2.039070 0.000000 0.000000 
#    y 0.000000 2.004560 0.000000 
#    z 0.000000 0.000000 2.052020 
# 
# From -- ./inp_files/11951.got.cif
#   From: 2010.05.17/outbox.cif.g08.bks.cpg/sg62_6_cif.got.tgz:11951.got - 2010.06.03 15:25:27.
