data_PCOD9467663
_publ_section_title
;
Structure prediction by ZEFSAII (Michael W. Deem and Ramdas Pophale) SiO2 
 PCOD9467663
Probable space group: P N M A
;
_chemical_formula_sum "Si O2"
_cell_formula_units_Z 36
_cell_length_a 7.810611
_cell_length_b 13.390010
_cell_length_c 14.302225
_cell_angle_alpha 90.000000
_cell_angle_beta 90.000000
_cell_angle_gamma 90.000000
_cell_volume 1495.786179
_symmetry_space_group_name_H-M "P N M A"
_symmetry_group_IT_number 62
_symmetry_cell_setting 'orthorhombic'
loop_
_space_group_symop_operation_xyz
x,y,z
1/2-x,-y,1/2+z
1/2+x,1/2-y,1/2-z
-x,1/2+y,-z
-x,-y,-z
1/2+x,y,1/2-z
1/2-x,1/2+y,1/2+z
x,1/2-y,z
loop_
_atom_site_type_symbol
_atom_site_label
_atom_site_fract_x
_atom_site_fract_y
_atom_site_fract_z
Si Si1 0.019837 0.250000 0.125915
Si Si2 0.114413 0.546874 0.790039
Si Si3 0.695074 0.957203 0.376760
Si Si4 0.846488 0.250000 0.507031
Si Si5 0.172912 0.532221 0.446250
Si Si6 0.728886 0.250000 0.966577
O O1 0.977081 0.151793 0.187524
O O2 0.208919 0.250000 0.078196
O O3 0.885065 0.250000 0.039780
O O4 0.174981 0.520574 0.687017
O O5 0.279673 0.533499 0.857196
O O6 0.984326 0.461462 0.824546
O O7 0.757635 0.847246 0.401725
O O8 0.683425 0.011728 0.475846
O O9 0.825490 0.150236 0.568242
O O10 0.047380 0.250000 0.479032
O O11 0.000000 0.500000 0.500000
#
# Coordination Sequence:
#
# PCOD9467663 Si02
#       6
#     4   8   8   4   8   4
#     4  12  24  49  80 110 147 207 258 310 389 463
#     4  12  27  46  74 110 153 197 260 323 384 463
#     4  12  26  46  72 111 151 199 253 321 384 455
#     4  12  24  40  80 104 140 202 246 300 386 452
#     4  12  23  46  73 106 148 197 253 318 385 459
#     4  12  26  47  80 110 153 201 260 310 387 463
#
# _framework density 24.067613000000001
#
# number of rings (size 3 to 8) (size 9 to 14) (size 15 to 20)
#    0.000    0.000    6.667    3.333    0.000    3.556 
#    0.000    0.000    0.000    0.000    0.000    0.000 
#    0.000    0.000    0.000    0.000    0.000    0.000 
#
# Total GULP energy -201547.573687 kJ/mol
# GULP energy per Si atom -5598.543714 kJ/mol
# Density = 2.401283 g / cm^3
# Si number density = 24.067613 Si / 1000 Ang^3
#
#
#
# Elastic Constant Matrix: (Units=GPa)
#
#
# Indices 1 2 3 4 5 6 
#
# 1 163.0568 33.2222 35.9515 0.0000 0.0000 0.0000
# 2 33.2222 189.7681 34.3648 0.0000 0.0000 0.0000
# 3 35.9515 34.3648 110.6843 0.0000 0.0000 0.0000
# 4 0.0000 0.0000 0.0000 33.6407 0.0000 0.0000
# 5 0.0000 0.0000 0.0000 0.0000 42.1772 0.0000
# 6 0.0000 0.0000 0.0000 0.0000 0.0000 32.4930
#
#
#
# Elastic Compliance Matrix: (Units=1/GPa)
#
#
# Indices 1 2 3 4 5 6 
#
# 1 0.006727 -0.000829 -0.001928 0.000000 0.000000 0.000000
# 2 -0.000829 0.005686 -0.001496 0.000000 0.000000 0.000000
# 3 -0.001928 -0.001496 0.010125 0.000000 0.000000 0.000000
# 4 0.000000 0.000000 0.000000 0.029726 0.000000 0.000000
# 5 0.000000 0.000000 0.000000 0.000000 0.023709 0.000000
# 6 0.000000 0.000000 0.000000 0.000000 0.000000 0.030776
#
#
# Mechanical properties :
#
#
# Convention : Reuss Voigt Hill
#
# Bulk Modulus (GPa) = 71.26083 74.50956 72.88520
# Shear Modulus (GPa) = 41.69061 45.66023 43.67542
#
# Velocity S-wave (km/s) = 4.16652 4.36037 4.26455
# Velocity P-wave (km/s) = 7.26770 7.50840 7.38903
#
# Compressibility (1/GPa) = 0.01403295
#
# Stress axis : x y z
#
# Youngs Moduli (GPa) = 148.66218 175.88389 98.76216
#
# Poissons Ratio (x) = 0.14573 0.19038
# Poissons Ratio (y) = 0.12317 0.14776
# Poissons Ratio (z) = 0.28657 0.26314
#
# Static dielectric constant tensor:
#      x y z
#    x 2.015320 0.000000 0.000000 
#    y 0.000000 1.922740 0.000000 
#    z 0.000000 0.000000 1.910860 
# 
# From -- ./inp_files/16626.got.cif
#   From: 2010.05.17/outbox.cif.g08.bks.cpg/sg62_9_cif.got.tgz:16626.got - 2010.06.03 15:25:27.
