data_PCOD9467842
_publ_section_title
;
Structure prediction by ZEFSAII (Michael W. Deem and Ramdas Pophale) SiO2 
 PCOD9467842
Probable space group: P N M A
;
_chemical_formula_sum "Si O2"
_cell_formula_units_Z 64
_cell_length_a 24.000000
_cell_length_b 15.000000
_cell_length_c 9.000000
_cell_angle_alpha 90.000000
_cell_angle_beta 90.000000
_cell_angle_gamma 90.000000
_cell_volume 3240.000000
_symmetry_space_group_name_H-M "P N M A"
_symmetry_group_IT_number 62
_symmetry_cell_setting 'orthorhombic'
loop_
_space_group_symop_operation_xyz
x,y,z
1/2-x,-y,1/2+z
1/2+x,1/2-y,1/2-z
-x,1/2+y,-z
-x,-y,-z
1/2+x,y,1/2-z
1/2-x,1/2+y,1/2+z
x,1/2-y,z
loop_
_atom_site_type_symbol
_atom_site_label
_atom_site_fract_x
_atom_site_fract_y
_atom_site_fract_z
Si Si1 0.130622 0.475828 0.721391
Si Si2 0.585999 0.652312 0.109274
Si Si3 0.465181 0.606207 0.625276
Si Si4 0.582950 0.653726 0.752330
Si Si5 0.158669 0.348362 0.228482
Si Si6 0.819016 0.478641 0.593984
Si Si7 0.211799 0.352461 0.902915
Si Si8 0.986538 0.915333 0.209609
O O1 0.118256 0.569594 0.805562
O O2 0.165216 0.500159 0.575857
O O3 0.163971 0.401774 0.809939
O O4 0.067594 0.441530 0.694053
O O5 0.610503 0.750000 0.136062
O O6 0.628619 0.576496 0.157733
O O7 0.528165 0.643684 0.195269
O O8 0.578181 0.643496 0.931169
O O9 0.520874 0.651618 0.687975
O O10 0.407133 0.635212 0.697394
O O11 0.464531 0.621492 0.447782
O O12 0.478072 0.502868 0.662890
O O13 0.608941 0.750000 0.720910
O O14 0.165096 0.250000 0.296441
O O15 0.184353 0.427604 0.324022
O O16 0.189852 0.349567 0.071204
O O17 0.765935 0.415020 0.605737
O O18 0.221828 0.250000 0.855394
#
# Coordination Sequence:
#
# PCOD9467842 Si02
#       8
#     8   8   8   8   8   8   8   8
#     4  10  22  39  63  87 122 160 196 243 303 352
#     4  10  21  36  58  89 121 161 201 241 298 355
#     4  10  19  35  57  86 124 159 194 236 291 351
#     4   9  20  35  57  90 126 158 194 239 293 353
#     4  11  23  39  63  90 117 154 200 244 297 357
#     4  11  23  41  63  87 120 153 202 253 296 349
#     4  11  24  44  64  85 115 158 203 248 299 352
#     4  10  20  35  58  88 123 159 193 243 293 356
#
# _framework density 19.753086
#
# number of rings (size 3 to 8) (size 9 to 14) (size 15 to 20)
#    0.000    1.750    2.500    1.500    1.750    4.000 
#    0.000    0.625    0.000    0.750    0.000    0.000 
#    0.000    0.000    0.000    0.000    0.000    0.000 
#
# Total GULP energy -357059.617281 kJ/mol
# GULP energy per Si atom -5579.056520 kJ/mol
# Density = 1.970813 g / cm^3
# Si number density = 19.753086 Si / 1000 Ang^3
#
#
#
# Elastic Constant Matrix: (Units=GPa)
#
#
# Indices 1 2 3 4 5 6 
#
# 1 93.5643 59.2995 17.3818 0.0000 0.0000 0.0000
# 2 59.2995 162.0783 38.6870 0.0000 0.0000 0.0000
# 3 17.3818 38.6870 9.9456 0.0000 0.0000 0.0000
# 4 0.0000 0.0000 0.0000 34.9474 0.0000 0.0000
# 5 0.0000 0.0000 0.0000 0.0000 17.0980 0.0000
# 6 0.0000 0.0000 0.0000 0.0000 0.0000 46.5489
#
#
#
# Elastic Compliance Matrix: (Units=1/GPa)
#
#
# Indices 1 2 3 4 5 6 
#
# 1 0.017475 0.012534 -0.079298 0.000000 0.000000 0.000000
# 2 0.012534 0.095266 -0.392479 0.000000 0.000000 0.000000
# 3 -0.079298 -0.392479 1.765832 0.000000 0.000000 0.000000
# 4 0.000000 0.000000 0.000000 0.028614 0.000000 0.000000
# 5 0.000000 0.000000 0.000000 0.000000 0.058486 0.000000
# 6 0.000000 0.000000 0.000000 0.000000 0.000000 0.021483
#
#
# Mechanical properties :
#
#
# Convention : Reuss Voigt Hill
#
# Bulk Modulus (GPa) = 1.04157 55.14718 28.09438
# Shear Modulus (GPa) = 1.55006 29.73352 15.64179
#
# Velocity S-wave (km/s) = 0.88681 3.88398 2.81706
# Velocity P-wave (km/s) = 1.25579 6.93488 4.98345
#
# Compressibility (1/GPa) = 0.96008701
#
# Stress axis : x y z
#
# Youngs Moduli (GPa) = 57.22347 10.49690 0.56631
#
# Poissons Ratio (x) = -0.13157 0.04491
# Poissons Ratio (y) = -0.71725 0.22226
# Poissons Ratio (z) = 4.53770 4.11982
#
# Static dielectric constant tensor:
#      x y z
#    x 1.668820 0.000000 0.000000 
#    y 0.000000 1.773520 0.000000 
#    z 0.000000 0.000000 1.684890 
# 
# From -- ./inp_files/9473.got.cif
#   From: 2010.05.17/outbox.ucp.g08.bks.cvg/sg62_5_cif.got.tgz:9473.got - 2010.06.11 16:29:25.
