data_PCOD9467948
_publ_section_title
;
Structure prediction by ZEFSAII (Michael W. Deem and Ramdas Pophale) SiO2 
 PCOD9467948
Probable space group: P N M A
;
_chemical_formula_sum "Si O2"
_cell_formula_units_Z 48
_cell_length_a 18.000000
_cell_length_b 9.000000
_cell_length_c 15.000000
_cell_angle_alpha 90.000000
_cell_angle_beta 90.000000
_cell_angle_gamma 90.000000
_cell_volume 2430.000000
_symmetry_space_group_name_H-M "P N M A"
_symmetry_group_IT_number 62
_symmetry_cell_setting 'orthorhombic'
loop_
_space_group_symop_operation_xyz
x,y,z
1/2-x,-y,1/2+z
1/2+x,1/2-y,1/2-z
-x,1/2+y,-z
-x,-y,-z
1/2+x,y,1/2-z
1/2-x,1/2+y,1/2+z
x,1/2-y,z
loop_
_atom_site_type_symbol
_atom_site_label
_atom_site_fract_x
_atom_site_fract_y
_atom_site_fract_z
Si Si1 0.580102 0.078668 0.274677
Si Si2 0.087735 0.916825 0.718928
Si Si3 0.573721 0.076868 0.962849
Si Si4 0.152380 0.583584 0.390314
Si Si5 0.174241 0.082716 0.860218
Si Si6 0.076984 0.072155 0.029828
O O1 0.604803 0.250000 0.263259
O O2 0.490850 0.077655 0.269638
O O3 0.601518 0.021094 0.372126
O O4 0.609562 0.983191 0.193534
O O5 0.097985 0.750000 0.684307
O O6 0.085043 0.029091 0.637797
O O7 0.149805 0.965177 0.787526
O O8 0.566131 0.250000 0.973120
O O9 0.500000 0.000000 0.000000
O O10 0.639261 0.016562 0.024078
O O11 0.125075 0.750000 0.409091
O O12 0.238341 0.587828 0.368057
O O13 0.146917 0.250000 0.836187
O O14 0.137513 0.044069 0.954472
O O15 0.066044 0.250000 0.037200
O O16 0.000000 0.000000 0.000000
#
# Coordination Sequence:
#
# PCOD9467948 Si02
#       6
#     8   8   8   8   8   8
#     4  10  21  37  60  90 120 158 206 252 304 365
#     4  11  22  38  63  93 123 158 206 255 304 366
#     4  12  24  40  64  92 122 160 207 257 309 370
#     4  11  24  41  61  90 126 164 204 252 308 366
#     4  10  23  41  61  90 128 163 201 250 307 363
#     4  10  20  37  61  88 119 154 199 248 296 357
#
# _framework density 19.753086
#
# number of rings (size 3 to 8) (size 9 to 14) (size 15 to 20)
#    0.000    1.333    3.333    2.500    0.000    4.000 
#    0.000    1.667    0.000    0.000    0.000    0.000 
#    0.000    0.000    0.000    0.000    0.000    0.000 
#
# Total GULP energy -268020.464722 kJ/mol
# GULP energy per Si atom -5583.759682 kJ/mol
# Density = 1.970813 g / cm^3
# Si number density = 19.753086 Si / 1000 Ang^3
#
#
#
# Elastic Constant Matrix: (Units=GPa)
#
#
# Indices 1 2 3 4 5 6 
#
# 1 43.8135 18.8941 1.3604 0.0000 0.0000 0.0000
# 2 18.8941 90.9720 28.3739 0.0000 0.0000 0.0000
# 3 1.3604 28.3739 68.2675 0.0000 0.0000 0.0000
# 4 0.0000 0.0000 0.0000 28.1032 0.0000 0.0000
# 5 0.0000 0.0000 0.0000 0.0000 23.2631 0.0000
# 6 0.0000 0.0000 0.0000 0.0000 0.0000 15.9830
#
#
#
# Elastic Compliance Matrix: (Units=1/GPa)
#
#
# Indices 1 2 3 4 5 6 
#
# 1 0.025289 -0.005854 0.001929 0.000000 0.000000 0.000000
# 2 -0.005854 0.013985 -0.005696 0.000000 0.000000 0.000000
# 3 0.001929 -0.005696 0.016977 0.000000 0.000000 0.000000
# 4 0.000000 0.000000 0.000000 0.035583 0.000000 0.000000
# 5 0.000000 0.000000 0.000000 0.000000 0.042986 0.000000
# 6 0.000000 0.000000 0.000000 0.000000 0.000000 0.062566
#
#
# Mechanical properties :
#
#
# Convention : Reuss Voigt Hill
#
# Bulk Modulus (GPa) = 27.02030 33.36778 30.19404
# Shear Modulus (GPa) = 21.83751 23.76486 22.80119
#
# Velocity S-wave (km/s) = 3.32855 3.47233 3.40120
# Velocity P-wave (km/s) = 5.33676 5.74502 5.54465
#
# Compressibility (1/GPa) = 0.03700921
#
# Stress axis : x y z
#
# Youngs Moduli (GPa) = 39.54363 71.50676 58.90275
#
# Poissons Ratio (x) = 0.41859 -0.11363
# Poissons Ratio (y) = 0.23148 0.33550
# Poissons Ratio (z) = -0.07628 0.40729
#
# Static dielectric constant tensor:
#      x y z
#    x 1.675460 0.000000 0.000000 
#    y 0.000000 1.691160 0.000000 
#    z 0.000000 0.000000 1.648050 
# 
# From -- ./inp_files/19575.got.cif
#   From: 2010.05.17/outbox.ucp.g08.bks.cvg/sg62_10_cif.got.tgz:19575.got - 2010.06.11 16:29:25.
