data_PCOD9467995
_publ_section_title
;
Structure prediction by ZEFSAII (Michael W. Deem and Ramdas Pophale) SiO2 
 PCOD9467995
Probable space group: P N M A
;
_chemical_formula_sum "Si O2"
_cell_formula_units_Z 48
_cell_length_a 15.000000
_cell_length_b 9.000000
_cell_length_c 18.000000
_cell_angle_alpha 90.000000
_cell_angle_beta 90.000000
_cell_angle_gamma 90.000000
_cell_volume 2430.000000
_symmetry_space_group_name_H-M "P N M A"
_symmetry_group_IT_number 62
_symmetry_cell_setting 'orthorhombic'
loop_
_space_group_symop_operation_xyz
x,y,z
1/2-x,-y,1/2+z
1/2+x,1/2-y,1/2-z
-x,1/2+y,-z
-x,-y,-z
1/2+x,y,1/2-z
1/2-x,1/2+y,1/2+z
x,1/2-y,z
loop_
_atom_site_type_symbol
_atom_site_label
_atom_site_fract_x
_atom_site_fract_y
_atom_site_fract_z
Si Si1 0.970679 0.420258 0.575009
Si Si2 0.376969 0.581084 0.305181
Si Si3 0.113668 0.921340 0.658984
Si Si4 0.030166 0.572311 0.077153
Si Si5 0.738890 0.914305 0.066754
Si Si6 0.273523 0.076781 0.574961
O O1 0.999447 0.250000 0.571764
O O2 0.865251 0.427293 0.580306
O O3 0.000000 0.500000 0.500000
O O4 0.020875 0.499795 0.641199
O O5 0.389033 0.750000 0.274759
O O6 0.364338 0.460695 0.242610
O O7 0.459703 0.544756 0.358261
O O8 0.291506 0.582682 0.357375
O O9 0.106106 0.750000 0.642444
O O10 0.190974 0.990256 0.608785
O O11 0.033166 0.750000 0.065173
O O12 0.129213 0.524778 0.100789
O O13 0.000000 0.500000 0.000000
O O14 0.756624 0.750000 0.032100
O O15 0.771691 0.042056 0.012400
O O16 0.262911 0.250000 0.591078
#
# Coordination Sequence:
#
# PCOD9467995 Si02
#       6
#     8   8   8   8   8   8
#     4  11  22  38  63  94 123 158 203 252 305 369
#     4  10  22  42  63  88 125 163 199 249 308 366
#     4  12  26  42  60  87 124 165 207 256 309 359
#     4  10  21  37  63  94 123 159 201 247 301 364
#     4  10  21  38  64  92 121 158 201 248 303 366
#     4  11  22  37  62  93 123 159 203 251 302 363
#
# _framework density 19.753086
#
# number of rings (size 3 to 8) (size 9 to 14) (size 15 to 20)
#    0.000    1.333    3.333    2.500    0.000    4.000 
#    0.000    6.667    0.000    0.000    0.000    0.000 
#    0.000    0.000    0.000    0.000    0.000    0.000 
#
# Total GULP energy -267943.531654 kJ/mol
# GULP energy per Si atom -5582.156909 kJ/mol
# Density = 1.970813 g / cm^3
# Si number density = 19.753086 Si / 1000 Ang^3
#
#
#
# Elastic Constant Matrix: (Units=GPa)
#
#
# Indices 1 2 3 4 5 6 
#
# 1 53.4560 35.9423 9.3681 0.0000 0.0000 0.0000
# 2 35.9423 67.0633 14.4187 0.0000 0.0000 0.0000
# 3 9.3681 14.4187 27.8529 0.0000 0.0000 0.0000
# 4 0.0000 0.0000 0.0000 29.4155 0.0000 0.0000
# 5 0.0000 0.0000 0.0000 0.0000 12.0908 0.0000
# 6 0.0000 0.0000 0.0000 0.0000 0.0000 16.2966
#
#
#
# Elastic Compliance Matrix: (Units=1/GPa)
#
#
# Indices 1 2 3 4 5 6 
#
# 1 0.029339 -0.015306 -0.001944 0.000000 0.000000 0.000000
# 2 -0.015306 0.024764 -0.007672 0.000000 0.000000 0.000000
# 3 -0.001944 -0.007672 0.040528 0.000000 0.000000 0.000000
# 4 0.000000 0.000000 0.000000 0.033996 0.000000 0.000000
# 5 0.000000 0.000000 0.000000 0.000000 0.082708 0.000000
# 6 0.000000 0.000000 0.000000 0.000000 0.000000 0.061362
#
#
# Mechanical properties :
#
#
# Convention : Reuss Voigt Hill
#
# Bulk Modulus (GPa) = 22.32780 29.75891 26.04335
# Shear Modulus (GPa) = 14.81611 17.47012 16.14312
#
# Velocity S-wave (km/s) = 2.74170 2.97715 2.86185
# Velocity P-wave (km/s) = 4.62067 5.18807 4.91257
#
# Compressibility (1/GPa) = 0.04478722
#
# Stress axis : x y z
#
# Youngs Moduli (GPa) = 34.08412 40.38123 24.67414
#
# Poissons Ratio (x) = 0.61808 0.04798
# Poissons Ratio (y) = 0.52170 0.18929
# Poissons Ratio (z) = 0.06627 0.30979
#
# Static dielectric constant tensor:
#      x y z
#    x 1.701580 0.000000 0.000000 
#    y 0.000000 1.714750 0.000000 
#    z 0.000000 0.000000 1.683900 
# 
# From -- ./inp_files/23773.got.cif
#   From: 2010.05.17/outbox.ucp.g08.bks.cvg/sg62_12_cif.got.tgz:23773.got - 2010.06.11 16:29:25.
