data_PCOD9467465
_publ_section_title
;
Structure prediction by ZEFSAII (Michael W. Deem and Ramdas Pophale) SiO2 
 PCOD9467465
Probable space group: P N M A
;
_chemical_formula_sum "Si O2"
_cell_formula_units_Z 32
_cell_length_a 10.121789
_cell_length_b 12.602935
_cell_length_c 9.169889
_cell_angle_alpha 90.000000
_cell_angle_beta 90.000000
_cell_angle_gamma 90.000000
_cell_volume 1169.750002
_symmetry_space_group_name_H-M "P N M A"
_symmetry_group_IT_number 62
_symmetry_cell_setting 'orthorhombic'
loop_
_space_group_symop_operation_xyz
x,y,z
1/2-x,-y,1/2+z
1/2+x,1/2-y,1/2-z
-x,1/2+y,-z
-x,-y,-z
1/2+x,y,1/2-z
1/2-x,1/2+y,1/2+z
x,1/2-y,z
loop_
_atom_site_type_symbol
_atom_site_label
_atom_site_fract_x
_atom_site_fract_y
_atom_site_fract_z
Si Si1 0.225091 0.067786 0.262470
Si Si2 0.946033 0.750000 0.839920
Si Si3 0.469202 0.568734 0.186823
Si Si4 0.684622 0.250000 0.681650
Si Si5 0.800008 0.250000 0.008277
Si Si6 0.940853 0.250000 0.482762
O O1 0.258659 0.142835 0.401970
O O2 0.145350 0.148057 0.161226
O O3 0.357163 0.022413 0.187549
O O4 0.115484 0.977458 0.289822
O O5 0.045175 0.750000 0.970297
O O6 0.033936 0.750000 0.689954
O O7 0.406654 0.645816 0.308617
O O8 0.486468 0.646136 0.048547
O O9 0.259182 0.250000 0.659359
O O10 0.798476 0.250000 0.560546
#
# Coordination Sequence:
#
# PCOD9467465 Si02
#       6
#     8   4   8   4   4   4
#     4  11  22  44  73 103 140 186 241 290 360 419
#     4  11  25  46  73 105 147 192 238 294 359 435
#     4  11  22  44  73 103 140 186 241 290 360 419
#     4  11  25  46  71 107 147 184 240 304 353 427
#     4  11  25  46  71 107 147 184 240 304 353 427
#     4  11  25  46  73 105 147 192 238 294 359 435
#
# _framework density 27.356273000000002
#
# number of rings (size 3 to 8) (size 9 to 14) (size 15 to 20)
#    0.000    1.000    5.000    3.000    0.000    4.000 
#    0.000   12.500    0.000    0.000    0.000    0.000 
#    0.000    0.000    0.000    0.000    0.000    0.000 
#
# Total GULP energy -179431.888354 kJ/mol
# GULP energy per Si atom -5607.246511 kJ/mol
# Density = 2.729401 g / cm^3
# Si number density = 27.356273 Si / 1000 Ang^3
#
#
#
# Elastic Constant Matrix: (Units=GPa)
#
#
# Indices 1 2 3 4 5 6 
#
# 1 145.8271 82.3468 101.1638 0.0000 0.0000 0.0000
# 2 82.3468 161.1399 53.5435 0.0000 0.0000 0.0000
# 3 101.1638 53.5435 185.7266 0.0000 0.0000 0.0000
# 4 0.0000 0.0000 0.0000 433.1837 0.0000 0.0000
# 5 0.0000 0.0000 0.0000 0.0000 66.0415 0.0000
# 6 0.0000 0.0000 0.0000 0.0000 0.0000 88.7939
#
#
#
# Elastic Compliance Matrix: (Units=1/GPa)
#
#
# Indices 1 2 3 4 5 6 
#
# 1 0.014023 -0.005118 -0.006163 0.000000 0.000000 0.000000
# 2 -0.005118 0.008731 0.000271 0.000000 0.000000 0.000000
# 3 -0.006163 0.000271 0.008663 0.000000 0.000000 0.000000
# 4 0.000000 0.000000 0.000000 0.002308 0.000000 0.000000
# 5 0.000000 0.000000 0.000000 0.000000 0.015142 0.000000
# 6 0.000000 0.000000 0.000000 0.000000 0.000000 0.011262
#
#
# Mechanical properties :
#
#
# Convention : Reuss Voigt Hill
#
# Bulk Modulus (GPa) = 106.41897 107.42244 106.92070
# Shear Modulus (GPa) = 58.62885 134.64645 96.63765
#
# Velocity S-wave (km/s) = 4.63445 7.02328 5.94998
# Velocity P-wave (km/s) = 8.22332 10.25289 9.29368
#
# Compressibility (1/GPa) = 0.00939682
#
# Stress axis : x y z
#
# Youngs Moduli (GPa) = 71.31246 114.52857 115.43485
#
# Poissons Ratio (x) = 0.58620 0.71137
# Poissons Ratio (y) = 0.36500 -0.03125
# Poissons Ratio (z) = 0.43947 -0.03100
#
# Static dielectric constant tensor:
#      x y z
#    x 2.160350 0.000000 0.000000 
#    y 0.000000 2.207060 0.000000 
#    z 0.000000 0.000000 2.124300 
# 
# From -- ./inp_files/10979.got.cif
#   From: 2010.05.17/outbox.cif.g08.bks.cpg/sg62_6_cif.got.tgz:10979.got - 2010.06.03 15:25:27.
