data_PCOD9467611
_publ_section_title
;
Structure prediction by ZEFSAII (Michael W. Deem and Ramdas Pophale) SiO2 
 PCOD9467611
Probable space group: P N M A
;
_chemical_formula_sum "Si O2"
_cell_formula_units_Z 40
_cell_length_a 9.668285
_cell_length_b 29.627864
_cell_length_c 5.036805
_cell_angle_alpha 90.000000
_cell_angle_beta 90.000000
_cell_angle_gamma 90.000000
_cell_volume 1442.795981
_symmetry_space_group_name_H-M "P N M A"
_symmetry_group_IT_number 62
_symmetry_cell_setting 'orthorhombic'
loop_
_space_group_symop_operation_xyz
x,y,z
1/2-x,-y,1/2+z
1/2+x,1/2-y,1/2-z
-x,1/2+y,-z
-x,-y,-z
1/2+x,y,1/2-z
1/2-x,1/2+y,1/2+z
x,1/2-y,z
loop_
_atom_site_type_symbol
_atom_site_label
_atom_site_fract_x
_atom_site_fract_y
_atom_site_fract_z
Si Si1 0.102235 0.843228 0.820294
Si Si2 0.578532 0.250000 0.688122
Si Si3 0.001320 0.574535 0.011911
Si Si4 0.926623 0.657190 0.306941
Si Si5 0.615231 0.750000 0.813508
Si Si6 0.839093 0.998915 0.694816
O O1 0.124647 0.896537 0.864669
O O2 0.974198 0.845695 0.609957
O O3 0.184874 0.798871 0.731366
O O4 0.060399 0.832971 0.122686
O O5 0.655875 0.296876 0.752831
O O6 0.455572 0.250000 0.902900
O O7 0.513990 0.250000 0.394898
O O8 0.895701 0.609439 0.164594
O O9 0.071822 0.542634 0.227423
O O10 0.921628 0.544454 0.800234
O O11 0.793218 0.998092 0.391459
#
# Coordination Sequence:
#
# PCOD9467611 Si02
#       6
#     8   4   8   8   4   8
#     4   8  15  25  49  75 103 135 170 209 256 312
#     4   8  12  22  38  76 104 124 170 206 242 314
#     4   9  22  37  60  76 110 141 180 221 270 316
#     4   8  15  25  49  75 103 135 170 209 256 312
#     4   8  12  22  38  76 104 124 170 206 242 314
#     4  11  26  39  56  80 108 139 182 229 274 314
#
# _framework density 27.723945000000001
#
# number of rings (size 3 to 8) (size 9 to 14) (size 15 to 20)
#    1.200    2.000    0.000    0.000    5.600    1.600 
#    0.000    0.000    0.000    0.000    0.000   11.200 
#    0.000    0.000    0.000    0.000    0.000    0.000 
#
# Total GULP energy -222769.973713 kJ/mol
# GULP energy per Si atom -5569.249343 kJ/mol
# Density = 2.766084 g / cm^3
# Si number density = 27.723945 Si / 1000 Ang^3
#
#
#
# Elastic Constant Matrix: (Units=GPa)
#
#
# Indices 1 2 3 4 5 6 
#
# 1 66.4772 32.6867 41.4757 0.0000 0.0000 0.0000
# 2 32.6867 213.8328 13.6875 0.0000 0.0000 0.0000
# 3 41.4757 13.6875 134.9635 0.0000 0.0000 0.0000
# 4 0.0000 0.0000 0.0000 19.0035 0.0000 0.0000
# 5 0.0000 0.0000 0.0000 0.0000 56.8785 0.0000
# 6 0.0000 0.0000 0.0000 0.0000 0.0000 -37.0369
#
#
#
# Elastic Compliance Matrix: (Units=1/GPa)
#
#
# Indices 1 2 3 4 5 6 
#
# 1 0.020035 -0.002686 -0.005885 0.000000 0.000000 0.000000
# 2 -0.002686 0.005067 0.000312 0.000000 0.000000 0.000000
# 3 -0.005885 0.000312 0.009186 0.000000 0.000000 0.000000
# 4 0.000000 0.000000 0.000000 0.052622 0.000000 0.000000
# 5 0.000000 0.000000 0.000000 0.000000 0.017581 0.000000
# 6 0.000000 0.000000 0.000000 0.000000 0.000000 -0.027000
#
#
# Mechanical properties :
#
#
# Convention : Reuss Voigt Hill
#
# Bulk Modulus (GPa) = 56.27337 65.66371 60.96854
# Shear Modulus (GPa) = 50.03371 29.59724 39.81548
#
# Velocity S-wave (km/s) = 4.25280 3.27091 3.79376
# Velocity P-wave (km/s) = 6.66760 6.16453 6.42099
#
# Compressibility (1/GPa) = 0.01777040
#
# Stress axis : x y z
#
# Youngs Moduli (GPa) = 49.91318 197.34854 108.85904
#
# Poissons Ratio (x) = 0.53005 0.64058
# Poissons Ratio (y) = 0.13406 -0.03391
# Poissons Ratio (z) = 0.29371 -0.06147
#
# Static dielectric constant tensor:
#      x y z
#    x 2.301600 0.000000 0.000000 
#    y 0.000000 2.421620 0.000000 
#    z 0.000000 0.000000 2.019260 
# 
# From -- ./inp_files/692.got.cif
#   From: 2010.05.17/outbox.cif.g08.bks.cpg/sg62_1_cif.got.tgz:692.got - 2010.06.03 15:25:27.
