data_PCOD9467070
_publ_section_title
;
Structure prediction by ZEFSAII (Michael W. Deem and Ramdas Pophale) SiO2 
 PCOD9467070
Probable space group: P N M A
;
_chemical_formula_sum "Si O2"
_cell_formula_units_Z 40
_cell_length_a 9.521017
_cell_length_b 22.280621
_cell_length_c 8.516293
_cell_angle_alpha 90.000000
_cell_angle_beta 90.000000
_cell_angle_gamma 90.000000
_cell_volume 1806.596758
_symmetry_space_group_name_H-M "P N M A"
_symmetry_group_IT_number 62
_symmetry_cell_setting 'orthorhombic'
loop_
_space_group_symop_operation_xyz
x,y,z
1/2-x,-y,1/2+z
1/2+x,1/2-y,1/2-z
-x,1/2+y,-z
-x,-y,-z
1/2+x,y,1/2-z
1/2-x,1/2+y,1/2+z
x,1/2-y,z
loop_
_atom_site_type_symbol
_atom_site_label
_atom_site_fract_x
_atom_site_fract_y
_atom_site_fract_z
Si Si1 0.586272 0.358383 0.587872
Si Si2 0.192008 0.891423 0.895006
Si Si3 0.414720 0.515673 0.341063
Si Si4 0.170816 0.816424 0.604257
Si Si5 0.968223 0.895068 0.405954
O O1 0.451625 0.370485 0.479387
O O2 0.664775 0.423280 0.610192
O O3 0.697668 0.315378 0.512953
O O4 0.534260 0.346527 0.763665
O O5 0.228435 0.840953 0.769115
O O6 0.168570 0.955344 0.808544
O O7 0.313565 0.901216 0.021226
O O8 0.500000 0.500000 0.500000
O O9 0.498763 0.542498 0.189844
O O10 0.108420 0.750000 0.618900
O O11 0.064297 0.866659 0.539319
#
# Coordination Sequence:
#
# PCOD9467070 Si02
#       5
#     8   8   8   8   8
#     4   9  22  43  67  97 134 176 232 285 349 417
#     4  11  22  42  68 103 140 181 224 290 352 419
#     4   8  20  39  68  99 135 165 223 283 359 420
#     4  12  27  45  65  98 141 191 243 288 346 415
#     4  10  23  43  71 100 137 180 229 286 351 420
#
# _framework density 22.141076999999999
#
# number of rings (size 3 to 8) (size 9 to 14) (size 15 to 20)
#    1.200    0.800    0.000    2.400    2.800    4.800 
#    7.200    2.000    0.000    0.000    0.000    0.000 
#    0.000    0.000    0.000    0.000    0.000    0.000 
#
# Total GULP energy -222729.745931 kJ/mol
# GULP energy per Si atom -5568.243648 kJ/mol
# Density = 2.209068 g / cm^3
# Si number density = 22.141077 Si / 1000 Ang^3
#
#
#
# Elastic Constant Matrix: (Units=GPa)
#
#
# Indices 1 2 3 4 5 6 
#
# 1 50.2910 13.5542 3.0720 0.0000 0.0000 0.0000
# 2 13.5542 95.9935 26.8499 0.0000 0.0000 0.0000
# 3 3.0720 26.8499 87.8630 0.0000 0.0000 0.0000
# 4 0.0000 0.0000 0.0000 2727.0484 0.0000 0.0000
# 5 0.0000 0.0000 0.0000 0.0000 29.4010 0.0000
# 6 0.0000 0.0000 0.0000 0.0000 0.0000 15.8048
#
#
#
# Elastic Compliance Matrix: (Units=1/GPa)
#
#
# Indices 1 2 3 4 5 6 
#
# 1 0.020674 -0.002971 0.000185 0.000000 0.000000 0.000000
# 2 -0.002971 0.011818 -0.003508 0.000000 0.000000 0.000000
# 3 0.000185 -0.003508 0.012447 0.000000 0.000000 0.000000
# 4 0.000000 0.000000 0.000000 0.000367 0.000000 0.000000
# 5 0.000000 0.000000 0.000000 0.000000 0.034012 0.000000
# 6 0.000000 0.000000 0.000000 0.000000 0.000000 0.063272
#
#
# Mechanical properties :
#
#
# Convention : Reuss Voigt Hill
#
# Bulk Modulus (GPa) = 30.91035 35.67774 33.29405
# Shear Modulus (GPa) = 30.12777 567.16229 298.64503
#
# Velocity S-wave (km/s) = 3.69279 16.02231 11.62650
# Velocity P-wave (km/s) = 5.67215 18.93237 13.97512
#
# Compressibility (1/GPa) = 0.03235162
#
# Stress axis : x y z
#
# Youngs Moduli (GPa) = 48.37070 84.61718 80.34222
#
# Poissons Ratio (x) = 0.25139 -0.01487
# Poissons Ratio (y) = 0.14370 0.28180
# Poissons Ratio (z) = -0.00895 0.29680
#
# Static dielectric constant tensor:
#      x y z
#    x 1.833620 0.000000 0.000000 
#    y 0.000000 1.854460 0.000000 
#    z 0.000000 0.000000 2.582480 
# 
# From -- ./inp_files/4300.got.cif
#   From: 2010.05.17/outbox.cif.g08.bks.cpg/sg62_3_cif.got.tgz:4300.got - 2010.06.03 15:25:27.
