data_PCOD9467089
_publ_section_title
;
Structure prediction by ZEFSAII (Michael W. Deem and Ramdas Pophale) SiO2 
 PCOD9467089
Probable space group: P N M A
;
_chemical_formula_sum "Si O2"
_cell_formula_units_Z 48
_cell_length_a 9.362125
_cell_length_b 16.256793
_cell_length_c 13.506051
_cell_angle_alpha 90.000000
_cell_angle_beta 90.000000
_cell_angle_gamma 90.000000
_cell_volume 2055.595681
_symmetry_space_group_name_H-M "P N M A"
_symmetry_group_IT_number 62
_symmetry_cell_setting 'orthorhombic'
loop_
_space_group_symop_operation_xyz
x,y,z
1/2-x,-y,1/2+z
1/2+x,1/2-y,1/2-z
-x,1/2+y,-z
-x,-y,-z
1/2+x,y,1/2-z
1/2-x,1/2+y,1/2+z
x,1/2-y,z
loop_
_atom_site_type_symbol
_atom_site_label
_atom_site_fract_x
_atom_site_fract_y
_atom_site_fract_z
Si Si1 0.534758 0.655367 0.227928
Si Si2 0.183574 0.389234 0.091152
Si Si3 0.295561 0.250000 0.367255
Si Si4 0.185265 0.106910 0.870406
Si Si5 0.113925 0.024086 0.585249
Si Si6 0.635872 0.569662 0.555632
Si Si7 0.933832 0.750000 0.766191
O O1 0.503367 0.750000 0.202089
O O2 0.701614 0.639407 0.209450
O O3 0.470006 0.637747 0.336282
O O4 0.458592 0.587806 0.158543
O O5 0.317650 0.441249 0.131133
O O6 0.129770 0.326583 0.172917
O O7 0.036466 0.436886 0.061071
O O8 0.225807 0.359723 0.979985
O O9 0.336416 0.164373 0.415997
O O10 0.396715 0.250000 0.269973
O O11 0.130173 0.250000 0.341950
O O12 0.188119 0.007426 0.876335
O O13 0.257092 0.060489 0.536596
O O14 0.000000 0.000000 0.500000
#
# Coordination Sequence:
#
# PCOD9467089 Si02
#       7
#     8   8   4   8   8   8   4
#     4  12  28  43  65  99 133 176 230 284 334 391
#     4  10  23  44  70  95 132 180 218 262 343 400
#     4  10  24  42  64 107 129 162 222 263 333 392
#     4  11  25  45  67  94 136 174 227 274 331 402
#     4  11  22  43  66  95 125 174 224 272 330 395
#     4  10  23  44  68  97 134 173 213 270 337 404
#     4  10  24  42  68  95 133 172 208 277 325 396
#
# _framework density 23.350895000000001
#
# number of rings (size 3 to 8) (size 9 to 14) (size 15 to 20)
#    0.000    1.333    3.333    2.500   10.500    2.667 
#    0.000    0.000    0.000    0.000    0.000    0.000 
#    0.000    0.000    0.000    0.000    0.000    0.000 
#
# Total GULP energy -267798.720810 kJ/mol
# GULP energy per Si atom -5579.140017 kJ/mol
# Density = 2.329775 g / cm^3
# Si number density = 23.350895 Si / 1000 Ang^3
#
#
#
# Elastic Constant Matrix: (Units=GPa)
#
#
# Indices 1 2 3 4 5 6 
#
# 1 79.1033 -4.2717 -2.0279 0.0000 0.0000 0.0000
# 2 -4.2717 77.7823 -1.7230 0.0000 0.0000 0.0000
# 3 -2.0279 -1.7230 25.2840 0.0000 0.0000 0.0000
# 4 0.0000 0.0000 0.0000 39.9613 0.0000 0.0000
# 5 0.0000 0.0000 0.0000 0.0000 44.3433 0.0000
# 6 0.0000 0.0000 0.0000 0.0000 0.0000 10.4843
#
#
#
# Elastic Compliance Matrix: (Units=1/GPa)
#
#
# Indices 1 2 3 4 5 6 
#
# 1 0.012708 0.000722 0.001068 0.000000 0.000000 0.000000
# 2 0.000722 0.012917 0.000938 0.000000 0.000000 0.000000
# 3 0.001068 0.000938 0.039700 0.000000 0.000000 0.000000
# 4 0.000000 0.000000 0.000000 0.025024 0.000000 0.000000
# 5 0.000000 0.000000 0.000000 0.000000 0.022551 0.000000
# 6 0.000000 0.000000 0.000000 0.000000 0.000000 0.095380
#
#
# Mechanical properties :
#
#
# Convention : Reuss Voigt Hill
#
# Bulk Modulus (GPa) = 14.12798 18.45825 16.29312
# Shear Modulus (GPa) = 22.08297 31.63726 26.86012
#
# Velocity S-wave (km/s) = 3.07856 3.68484 3.39526
# Velocity P-wave (km/s) = 4.32437 5.10156 4.72896
#
# Compressibility (1/GPa) = 0.07078151
#
# Stress axis : x y z
#
# Youngs Moduli (GPa) = 78.69022 77.41852 25.18866
#
# Poissons Ratio (x) = -0.05586 -0.02691
# Poissons Ratio (y) = -0.05678 -0.02363
# Poissons Ratio (z) = -0.08408 -0.07263
#
# Static dielectric constant tensor:
#      x y z
#    x 1.871300 0.000000 0.000000 
#    y 0.000000 1.933200 0.000000 
#    z 0.000000 0.000000 1.932560 
# 
# From -- ./inp_files/17003.got.cif
#   From: 2010.05.17/outbox.cif.g08.bks.cpg/sg62_9_cif.got.tgz:17003.got - 2010.06.03 15:25:27.
