data_PCOD9467278
_publ_section_title
;
Structure prediction by ZEFSAII (Michael W. Deem and Ramdas Pophale) SiO2 
 PCOD9467278
Probable space group: P N M A
;
_chemical_formula_sum "Si O2"
_cell_formula_units_Z 40
_cell_length_a 8.320745
_cell_length_b 19.276360
_cell_length_c 12.262447
_cell_angle_alpha 90.000000
_cell_angle_beta 90.000000
_cell_angle_gamma 90.000000
_cell_volume 1966.818952
_symmetry_space_group_name_H-M "P N M A"
_symmetry_group_IT_number 62
_symmetry_cell_setting 'orthorhombic'
loop_
_space_group_symop_operation_xyz
x,y,z
1/2-x,-y,1/2+z
1/2+x,1/2-y,1/2-z
-x,1/2+y,-z
-x,-y,-z
1/2+x,y,1/2-z
1/2-x,1/2+y,1/2+z
x,1/2-y,z
loop_
_atom_site_type_symbol
_atom_site_label
_atom_site_fract_x
_atom_site_fract_y
_atom_site_fract_z
Si Si1 0.311548 0.427623 0.914280
Si Si2 0.134974 0.449278 0.703148
Si Si3 0.608572 0.611868 0.851952
Si Si4 0.749735 0.830127 0.638311
Si Si5 0.150034 0.947947 0.005944
O O1 0.174973 0.420193 0.822523
O O2 0.481774 0.416555 0.856172
O O3 0.304807 0.389668 0.030203
O O4 0.294838 0.508124 0.950093
O O5 0.109314 0.533161 0.698581
O O6 0.291465 0.436393 0.628473
O O7 0.430851 0.641290 0.870008
O O8 0.696095 0.658238 0.762549
O O9 0.742064 0.750000 0.608123
O O10 0.637283 0.877819 0.561643
O O11 0.000000 0.000000 0.000000
#
# Coordination Sequence:
#
# PCOD9467278 Si02
#       5
#     8   8   8   8   8
#     4  11  21  37  64  94 132 165 212 281 329 380
#     4  11  19  37  62  95 131 163 214 274 334 371
#     4  11  22  41  59  96 134 170 218 264 331 395
#     4  12  25  43  65  93 136 180 218 270 342 410
#     4  11  22  37  63  98 133 172 220 281 327 395
#
# _framework density 20.337409000000001
#
# number of rings (size 3 to 8) (size 9 to 14) (size 15 to 20)
#    0.000    0.800    6.000    3.000    5.600    0.000 
#    0.000    0.000    0.000    2.400    0.000    0.000 
#    0.000    0.000    0.000    0.000    0.000    0.000 
#
# Total GULP energy -223422.031694 kJ/mol
# GULP energy per Si atom -5585.550792 kJ/mol
# Density = 2.029112 g / cm^3
# Si number density = 20.337409 Si / 1000 Ang^3
#
#
#
# Elastic Constant Matrix: (Units=GPa)
#
#
# Indices 1 2 3 4 5 6 
#
# 1 87.4637 39.4419 33.7409 0.0000 0.0000 0.0000
# 2 39.4419 99.7354 58.1812 0.0000 0.0000 0.0000
# 3 33.7409 58.1812 88.1188 0.0000 0.0000 0.0000
# 4 0.0000 0.0000 0.0000 19.9563 0.0000 0.0000
# 5 0.0000 0.0000 0.0000 0.0000 38.6769 0.0000
# 6 0.0000 0.0000 0.0000 0.0000 0.0000 13.1500
#
#
#
# Elastic Compliance Matrix: (Units=1/GPa)
#
#
# Indices 1 2 3 4 5 6 
#
# 1 0.014339 -0.004014 -0.002840 0.000000 0.000000 0.000000
# 2 -0.004014 0.017431 -0.009972 0.000000 0.000000 0.000000
# 3 -0.002840 -0.009972 0.019020 0.000000 0.000000 0.000000
# 4 0.000000 0.000000 0.000000 0.050109 0.000000 0.000000
# 5 0.000000 0.000000 0.000000 0.000000 0.025855 0.000000
# 6 0.000000 0.000000 0.000000 0.000000 0.000000 0.076046
#
#
# Mechanical properties :
#
#
# Convention : Reuss Voigt Hill
#
# Bulk Modulus (GPa) = 58.35061 59.78288 59.06674
# Shear Modulus (GPa) = 20.64701 23.95357 22.30029
#
# Velocity S-wave (km/s) = 3.18971 3.43564 3.31496
# Velocity P-wave (km/s) = 6.50533 6.72291 6.61501
#
# Compressibility (1/GPa) = 0.01713778
#
# Stress axis : x y z
#
# Youngs Moduli (GPa) = 69.73981 57.36868 52.57581
#
# Poissons Ratio (x) = 0.23026 0.14934
# Poissons Ratio (y) = 0.27991 0.52430
# Poissons Ratio (z) = 0.19809 0.57209
#
# Static dielectric constant tensor:
#      x y z
#    x 1.798290 0.000000 0.000000 
#    y 0.000000 1.691230 0.000000 
#    z 0.000000 0.000000 1.802400 
# 
# From -- ./inp_files/11051.got.cif
#   From: 2010.05.17/outbox.cif.g08.bks.cpg/sg62_6_cif.got.tgz:11051.got - 2010.06.03 15:25:27.
