data_PCOD9467512
_publ_section_title
;
Structure prediction by ZEFSAII (Michael W. Deem and Ramdas Pophale) SiO2 
 PCOD9467512
Probable space group: P N M A
;
_chemical_formula_sum "Si O2"
_cell_formula_units_Z 60
_cell_length_a 9.492420
_cell_length_b 17.072958
_cell_length_c 17.460495
_cell_angle_alpha 90.000000
_cell_angle_beta 90.000000
_cell_angle_gamma 90.000000
_cell_volume 2829.712214
_symmetry_space_group_name_H-M "P N M A"
_symmetry_group_IT_number 62
_symmetry_cell_setting 'orthorhombic'
loop_
_space_group_symop_operation_xyz
x,y,z
1/2-x,-y,1/2+z
1/2+x,1/2-y,1/2-z
-x,1/2+y,-z
-x,-y,-z
1/2+x,y,1/2-z
1/2-x,1/2+y,1/2+z
x,1/2-y,z
loop_
_atom_site_type_symbol
_atom_site_label
_atom_site_fract_x
_atom_site_fract_y
_atom_site_fract_z
Si Si1 0.031697 0.655811 0.671311
Si Si2 0.198051 0.619337 0.827957
Si Si3 0.180111 0.447081 0.897054
Si Si4 0.363152 0.034322 0.044183
Si Si5 0.088392 0.661315 0.327974
Si Si6 0.796918 0.250000 0.048851
Si Si7 0.312863 0.636295 0.086254
Si Si8 0.964457 0.162609 0.838783
O O1 0.038163 0.750000 0.656591
O O2 0.118717 0.634278 0.747745
O O3 0.091863 0.604041 0.600810
O O4 0.866851 0.633531 0.681306
O O5 0.171506 0.533463 0.862439
O O6 0.151163 0.682241 0.890674
O O7 0.287664 0.398050 0.844284
O O8 0.034092 0.400832 0.893338
O O9 0.248501 0.443728 0.980747
O O10 0.305339 0.957482 0.086168
O O11 0.500000 0.000000 0.000000
O O12 0.141114 0.750000 0.320991
O O13 0.972653 0.657465 0.394333
O O14 0.008888 0.642269 0.249111
O O15 0.735420 0.180892 0.990269
O O16 0.202630 0.663485 0.149925
O O17 0.016797 0.250000 0.857303
#
# Coordination Sequence:
#
# PCOD9467512 Si02
#       8
#     8   8   8   8   8   4   8   8
#     4  12  26  48  74 106 142 188 241 303 358 430
#     4  12  27  47  73 104 140 188 241 295 363 424
#     4  12  26  42  68 103 142 185 231 306 351 419
#     4  12  25  46  71 107 136 178 250 290 355 425
#     4  11  23  41  71 100 137 190 239 284 354 434
#     4  12  22  48  76  98 142 190 246 278 354 424
#     4  12  23  44  74 102 138 197 235 291 350 438
#     4  11  26  45  63 105 149 183 230 285 369 430
#
# _framework density 21.203569000000002
#
# number of rings (size 3 to 8) (size 9 to 14) (size 15 to 20)
#    0.000    0.267    6.667    1.200    5.600    3.733 
#    2.400    0.000    0.000    0.000    0.000    0.000 
#    0.000    0.000    0.000    0.000    0.000    0.000 
#
# Total GULP energy -334462.111593 kJ/mol
# GULP energy per Si atom -5574.368527 kJ/mol
# Density = 2.115531 g / cm^3
# Si number density = 21.203569 Si / 1000 Ang^3
#
#
#
# Elastic Constant Matrix: (Units=GPa)
#
#
# Indices 1 2 3 4 5 6 
#
# 1 41.2523 17.8435 -6.5984 0.0000 0.0000 0.0000
# 2 17.8435 78.9989 14.4144 0.0000 0.0000 0.0000
# 3 -6.5984 14.4144 53.9154 0.0000 0.0000 0.0000
# 4 0.0000 0.0000 0.0000 29.3444 0.0000 0.0000
# 5 0.0000 0.0000 0.0000 0.0000 21.9764 0.0000
# 6 0.0000 0.0000 0.0000 0.0000 0.0000 9.6393
#
#
#
# Elastic Compliance Matrix: (Units=1/GPa)
#
#
# Indices 1 2 3 4 5 6 
#
# 1 0.028306 -0.007386 0.005439 0.000000 0.000000 0.000000
# 2 -0.007386 0.015235 -0.004977 0.000000 0.000000 0.000000
# 3 0.005439 -0.004977 0.020544 0.000000 0.000000 0.000000
# 4 0.000000 0.000000 0.000000 0.034078 0.000000 0.000000
# 5 0.000000 0.000000 0.000000 0.000000 0.045503 0.000000
# 6 0.000000 0.000000 0.000000 0.000000 0.000000 0.103742
#
#
# Mechanical properties :
#
#
# Convention : Reuss Voigt Hill
#
# Bulk Modulus (GPa) = 19.90593 25.05395 22.47994
# Shear Modulus (GPa) = 17.98557 22.09250 20.03903
#
# Velocity S-wave (km/s) = 2.91560 3.23139 3.07755
# Velocity P-wave (km/s) = 4.55442 5.07583 4.82218
#
# Compressibility (1/GPa) = 0.05023630
#
# Stress axis : x y z
#
# Youngs Moduli (GPa) = 35.32863 65.63948 48.67651
#
# Poissons Ratio (x) = 0.48480 -0.26474
# Poissons Ratio (y) = 0.26093 0.24226
# Poissons Ratio (z) = -0.19214 0.32668
#
# Static dielectric constant tensor:
#      x y z
#    x 1.784960 0.000000 0.000000 
#    y 0.000000 1.764850 0.000000 
#    z 0.000000 0.000000 1.834370 
# 
# From -- ./inp_files/22462.got.cif
#   From: 2010.05.17/outbox.cif.g08.bks.cpg/sg62_12_cif.got.tgz:22462.got - 2010.06.03 15:25:27.
