data_PCOD9467792
_publ_section_title
;
Structure prediction by ZEFSAII (Michael W. Deem and Ramdas Pophale) SiO2 
 PCOD9467792
Probable space group: P N M A
;
_chemical_formula_sum "Si O2"
_cell_formula_units_Z 64
_cell_length_a 15.000000
_cell_length_b 9.000000
_cell_length_c 30.000000
_cell_angle_alpha 90.000000
_cell_angle_beta 90.000000
_cell_angle_gamma 90.000000
_cell_volume 4050.000000
_symmetry_space_group_name_H-M "P N M A"
_symmetry_group_IT_number 62
_symmetry_cell_setting 'orthorhombic'
loop_
_space_group_symop_operation_xyz
x,y,z
1/2-x,-y,1/2+z
1/2+x,1/2-y,1/2-z
-x,1/2+y,-z
-x,-y,-z
1/2+x,y,1/2-z
1/2-x,1/2+y,1/2+z
x,1/2-y,z
loop_
_atom_site_type_symbol
_atom_site_label
_atom_site_fract_x
_atom_site_fract_y
_atom_site_fract_z
Si Si1 0.395257 0.927973 0.544804
Si Si2 0.708611 0.929258 0.214760
Si Si3 0.993658 0.918358 0.825786
Si Si4 0.838113 0.574416 0.134785
Si Si5 0.169112 0.072317 0.699936
Si Si6 0.801491 0.927553 0.865861
Si Si7 0.898260 0.073643 0.049505
Si Si8 0.484039 0.580283 0.780200
O O1 0.393726 0.750000 0.538978
O O2 0.326174 0.966766 0.583520
O O3 0.497273 0.966718 0.558586
O O4 0.376468 0.006959 0.498504
O O5 0.699918 0.750000 0.216948
O O6 0.762760 0.969341 0.170165
O O7 0.770067 0.974932 0.257177
O O8 0.611179 0.001286 0.213651
O O9 0.011031 0.750000 0.843420
O O10 0.999016 0.915247 0.772889
O O11 0.893477 0.957965 0.839436
O O12 0.067387 0.028933 0.843858
O O13 0.833819 0.750000 0.128214
O O14 0.836650 0.492543 0.087771
O O15 0.162848 0.250000 0.701287
O O16 0.222434 0.016123 0.656886
O O17 0.070510 0.003672 0.701166
O O18 0.785052 0.750000 0.862878
O O19 0.892335 0.250000 0.048578
O O20 0.480411 0.750000 0.796730
#
# Coordination Sequence:
#
# PCOD9467792 Si02
#       8
#     8   8   8   8   8   8   8   8
#     4   9  18  32  49  71 102 136 168 208 254 301
#     4  10  22  36  50  72 102 136 173 212 252 300
#     4  10  19  31  48  72 102 134 171 213 251 292
#     4  11  21  33  50  73 102 138 175 208 253 305
#     4  11  22  35  51  74 104 136 172 211 255 303
#     4  10  19  34  51  73 103 136 176 212 250 298
#     4  10  19  32  49  73 103 133 169 210 254 303
#     4  11  22  35  53  73  99 136 175 216 256 295
#
# _framework density 15.802469
#
# number of rings (size 3 to 8) (size 9 to 14) (size 15 to 20)
#    0.000    1.750    3.750    1.500    0.000    3.500 
#    0.000    0.000    0.000    0.000    0.000    0.875 
#    0.000    0.000    0.000    0.000    0.000    0.000 
#
# Total GULP energy -357056.905507 kJ/mol
# GULP energy per Si atom -5579.014149 kJ/mol
# Density = 1.576650 g / cm^3
# Si number density = 15.802469 Si / 1000 Ang^3
#
#
#
# Elastic Constant Matrix: (Units=GPa)
#
#
# Indices 1 2 3 4 5 6 
#
# 1 75.0299 35.6532 34.8474 0.0000 0.0000 0.0000
# 2 35.6532 38.3795 39.4195 0.0000 0.0000 0.0000
# 3 34.8474 39.4195 89.5982 0.0000 0.0000 0.0000
# 4 0.0000 0.0000 0.0000 22.2270 0.0000 0.0000
# 5 0.0000 0.0000 0.0000 0.0000 19.3579 0.0000
# 6 0.0000 0.0000 0.0000 0.0000 0.0000 26.7351
#
#
#
# Elastic Compliance Matrix: (Units=1/GPa)
#
#
# Indices 1 2 3 4 5 6 
#
# 1 0.023897 -0.023086 0.000862 0.000000 0.000000 0.000000
# 2 -0.023086 0.069837 -0.021747 0.000000 0.000000 0.000000
# 3 0.000862 -0.021747 0.020393 0.000000 0.000000 0.000000
# 4 0.000000 0.000000 0.000000 0.044990 0.000000 0.000000
# 5 0.000000 0.000000 0.000000 0.000000 0.051658 0.000000
# 6 0.000000 0.000000 0.000000 0.000000 0.000000 0.037404
#
#
# Mechanical properties :
#
#
# Convention : Reuss Voigt Hill
#
# Bulk Modulus (GPa) = 38.18568 46.98309 42.58439
# Shear Modulus (GPa) = 14.49902 19.86983 17.18442
#
# Velocity S-wave (km/s) = 3.03234 3.54981 3.30123
# Velocity P-wave (km/s) = 6.03961 6.82624 6.44494
#
# Compressibility (1/GPa) = 0.02618783
#
# Stress axis : x y z
#
# Youngs Moduli (GPa) = 41.84541 14.31896 49.03560
#
# Poissons Ratio (x) = 0.33056 -0.04228
# Poissons Ratio (y) = 0.96602 1.06638
# Poissons Ratio (z) = -0.03608 0.31139
#
# Static dielectric constant tensor:
#      x y z
#    x 1.498810 0.000000 0.000000 
#    y 0.000000 1.542180 0.000000 
#    z 0.000000 0.000000 1.541270 
# 
# From -- ./inp_files/32708.got.cif
#   From: 2010.05.17/outbox.ucp.g08.bks.cvg/sg62_17_cif.got.tgz:32708.got - 2010.06.11 16:29:25.
