data_PCOD9467394
_publ_section_title
;
Structure prediction by ZEFSAII (Michael W. Deem and Ramdas Pophale) SiO2 
 PCOD9467394
Probable space group: P N M A
;
_chemical_formula_sum "Si O2"
_cell_formula_units_Z 56
_cell_length_a 8.067624
_cell_length_b 7.259122
_cell_length_c 34.152513
_cell_angle_alpha 90.000000
_cell_angle_beta 90.000000
_cell_angle_gamma 90.000000
_cell_volume 2000.103224
_symmetry_space_group_name_H-M "P N M A"
_symmetry_group_IT_number 62
_symmetry_cell_setting 'orthorhombic'
loop_
_space_group_symop_operation_xyz
x,y,z
1/2-x,-y,1/2+z
1/2+x,1/2-y,1/2-z
-x,1/2+y,-z
-x,-y,-z
1/2+x,y,1/2-z
1/2-x,1/2+y,1/2+z
x,1/2-y,z
loop_
_atom_site_type_symbol
_atom_site_label
_atom_site_fract_x
_atom_site_fract_y
_atom_site_fract_z
Si Si1 0.052337 0.970526 0.168924
Si Si2 0.149030 0.544827 0.471052
Si Si3 0.768438 0.974266 0.261430
Si Si4 0.906489 0.473740 0.688101
Si Si5 0.640909 0.024256 0.596474
Si Si6 0.112232 0.029238 0.617639
Si Si7 0.816078 0.471949 0.953481
O O1 0.026788 0.750000 0.173203
O O2 0.114564 0.035608 0.211182
O O3 0.904063 0.036212 0.140554
O O4 0.218986 0.998380 0.142742
O O5 0.111940 0.750000 0.458832
O O6 0.208486 0.455742 0.430610
O O7 0.299617 0.540472 0.502418
O O8 0.000000 0.500000 0.500000
O O9 0.765833 0.750000 0.260921
O O10 0.934023 0.020745 0.284792
O O11 0.743212 0.032842 0.216507
O O12 0.894836 0.250000 0.685140
O O13 0.961419 0.537557 0.644931
O O14 0.648619 0.250000 0.598526
O O15 0.480585 0.977722 0.569965
O O16 0.092686 0.250000 0.615158
O O17 0.162586 0.964270 0.574359
O O18 0.810029 0.250000 0.955337
#
# Coordination Sequence:
#
# PCOD9467394 Si02
#       7
#     8   8   8   8   8   8   8
#     4   7  10  19  34  52  73 102 137 172 207 246
#     4  11  22  34  46  64  91 120 145 176 219 269
#     4   8  12  17  27  43  69 103 136 165 196 236
#     4   8  12  18  27  44  70 102 135 163 192 234
#     4   8  15  28  47  66  83 108 148 187 219 258
#     4   7  11  20  36  55  76 102 134 169 207 247
#     4   9  16  30  51  70  85 109 146 186 221 256
#
# _framework density 27.998555
#
# number of rings (size 3 to 8) (size 9 to 14) (size 15 to 20)
#    0.000    3.714    0.000    4.286    0.000    0.000 
#    0.000    2.143    0.000    6.857    0.000    0.000 
#    0.000    0.000    0.000   21.857    0.000   26.143 
#
# Total GULP energy -312820.596842 kJ/mol
# GULP energy per Si atom -5586.082086 kJ/mol
# Density = 2.793483 g / cm^3
# Si number density = 27.998555 Si / 1000 Ang^3
#
#
#
# Elastic Constant Matrix: (Units=GPa)
#
#
# Indices 1 2 3 4 5 6 
#
# 1 96.0502 -6.7803 30.8693 0.0000 0.0000 0.0000
# 2 -6.7803 104.1733 -10.5980 0.0000 0.0000 0.0000
# 3 30.8693 -10.5980 243.2760 0.0000 0.0000 0.0000
# 4 0.0000 0.0000 0.0000 -16.8910 0.0000 0.0000
# 5 0.0000 0.0000 0.0000 0.0000 67.3659 0.0000
# 6 0.0000 0.0000 0.0000 0.0000 0.0000 -2.5941
#
#
#
# Elastic Compliance Matrix: (Units=1/GPa)
#
#
# Indices 1 2 3 4 5 6 
#
# 1 0.010888 0.000571 -0.001357 0.000000 0.000000 0.000000
# 2 0.000571 0.009672 0.000349 0.000000 0.000000 0.000000
# 3 -0.001357 0.000349 0.004298 0.000000 0.000000 0.000000
# 4 0.000000 0.000000 0.000000 -0.059203 0.000000 0.000000
# 5 0.000000 0.000000 0.000000 0.000000 0.014844 0.000000
# 6 0.000000 0.000000 0.000000 0.000000 0.000000 -0.385484
#
#
# Mechanical properties :
#
#
# Convention : Reuss Voigt Hill
#
# Bulk Modulus (GPa) = 41.69577 52.27573 46.98575
# Shear Modulus (GPa) = -12.62254 38.24338 12.81042
#
# Velocity S-wave (km/s) = -2.12557 3.69983 2.14134
# Velocity P-wave (km/s) = 2.98335 6.07972 4.78870
#
# Compressibility (1/GPa) = 0.02398325
#
# Stress axis : x y z
#
# Youngs Moduli (GPa) = 91.84830 103.39093 232.67151
#
# Poissons Ratio (x) = -0.05900 0.31566
# Poissons Ratio (y) = -0.05241 -0.08119
# Poissons Ratio (z) = 0.12461 -0.03608
#
# Static dielectric constant tensor:
#      x y z
#    x 2.292270 0.000000 0.000000 
#    y 0.000000 2.209440 0.000000 
#    z 0.000000 0.000000 2.160940 
# 
# From -- ./inp_files/31180.got.cif
#   From: 2010.05.17/outbox.cif.g08.bks.cpg/sg62_16_cif.got.tgz:31180.got - 2010.06.03 15:25:27.
