data_PCOD9467232
_publ_section_title
;
Structure prediction by ZEFSAII (Michael W. Deem and Ramdas Pophale) SiO2 
 PCOD9467232
Probable space group: P N M A
;
_chemical_formula_sum "Si O2"
_cell_formula_units_Z 48
_cell_length_a 15.735655
_cell_length_b 14.074261
_cell_length_c 9.471639
_cell_angle_alpha 90.000000
_cell_angle_beta 90.000000
_cell_angle_gamma 90.000000
_cell_volume 2097.662251
_symmetry_space_group_name_H-M "P N M A"
_symmetry_group_IT_number 62
_symmetry_cell_setting 'orthorhombic'
loop_
_space_group_symop_operation_xyz
x,y,z
1/2-x,-y,1/2+z
1/2+x,1/2-y,1/2-z
-x,1/2+y,-z
-x,-y,-z
1/2+x,y,1/2-z
1/2-x,1/2+y,1/2+z
x,1/2-y,z
loop_
_atom_site_type_symbol
_atom_site_label
_atom_site_fract_x
_atom_site_fract_y
_atom_site_fract_z
Si Si1 0.064411 0.457410 0.610997
Si Si2 0.314534 0.571721 0.612241
Si Si3 0.813774 0.250000 0.418154
Si Si4 0.915357 0.250000 0.949784
Si Si5 0.007670 0.922861 0.880337
Si Si6 0.479709 0.250000 0.868662
Si Si7 0.222072 0.041240 0.409850
Si Si8 0.727768 0.750000 0.614571
O O1 0.050552 0.524409 0.747394
O O2 0.153955 0.472144 0.533601
O O3 0.000000 0.500000 0.500000
O O4 0.036646 0.346427 0.623456
O O5 0.248175 0.657030 0.571869
O O6 0.409432 0.608420 0.644984
O O7 0.306582 0.503386 0.475831
O O8 0.295056 0.506358 0.751000
O O9 0.898259 0.250000 0.519131
O O10 0.835198 0.250000 0.250755
O O11 0.944007 0.250000 0.790200
O O12 0.944959 0.338580 0.041924
O O13 0.814502 0.250000 0.961782
O O14 0.000000 0.000000 0.000000
O O15 0.222591 0.152962 0.377358
#
# Coordination Sequence:
#
# PCOD9467232 Si02
#       8
#     8   8   4   4   8   4   8   4
#     4  12  26  46  75 106 144 194 248 307 366 444
#     4  11  25  45  69 103 142 187 240 294 364 433
#     4  10  25  44  72 100 139 184 236 294 363 430
#     4  12  27  46  74 104 149 194 242 311 361 440
#     4  12  26  46  72 105 147 193 248 301 370 438
#     4  12  27  48  72 106 145 192 252 300 369 440
#     4  11  25  44  71 101 143 187 237 297 362 434
#     4  10  25  44  68 104 139 182 232 293 365 430
#
# _framework density 22.882615999999999
#
# number of rings (size 3 to 8) (size 9 to 14) (size 15 to 20)
#    0.000    0.667    3.333    3.000    9.333    0.000 
#    0.000    0.000    0.000    0.000    0.000    0.000 
#    0.000    0.000    0.000    0.000    0.000    0.000 
#
# Total GULP energy -267724.720341 kJ/mol
# GULP energy per Si atom -5577.598340 kJ/mol
# Density = 2.283053 g / cm^3
# Si number density = 22.882616 Si / 1000 Ang^3
#
#
#
# Elastic Constant Matrix: (Units=GPa)
#
#
# Indices 1 2 3 4 5 6 
#
# 1 78.5437 -0.4468 18.6432 0.0000 0.0000 0.0000
# 2 -0.4468 109.1889 17.4936 0.0000 0.0000 0.0000
# 3 18.6432 17.4936 136.9769 0.0000 0.0000 0.0000
# 4 0.0000 0.0000 0.0000 87.9108 0.0000 0.0000
# 5 0.0000 0.0000 0.0000 0.0000 45.9929 0.0000
# 6 0.0000 0.0000 0.0000 0.0000 0.0000 21.9284
#
#
#
# Elastic Compliance Matrix: (Units=1/GPa)
#
#
# Indices 1 2 3 4 5 6 
#
# 1 0.013170 0.000348 -0.001837 0.000000 0.000000 0.000000
# 2 0.000348 0.009359 -0.001243 0.000000 0.000000 0.000000
# 3 -0.001837 -0.001243 0.007709 0.000000 0.000000 0.000000
# 4 0.000000 0.000000 0.000000 0.011375 0.000000 0.000000
# 5 0.000000 0.000000 0.000000 0.000000 0.021742 0.000000
# 6 0.000000 0.000000 0.000000 0.000000 0.000000 0.045603
#
#
# Mechanical properties :
#
#
# Convention : Reuss Voigt Hill
#
# Bulk Modulus (GPa) = 40.36298 44.00994 42.18646
# Shear Modulus (GPa) = 40.75651 50.43439 45.59545
#
# Velocity S-wave (km/s) = 4.22490 4.69982 4.46868
# Velocity P-wave (km/s) = 6.44028 6.98038 6.71576
#
# Compressibility (1/GPa) = 0.02477518
#
# Stress axis : x y z
#
# Youngs Moduli (GPa) = 75.93149 106.84955 129.71484
#
# Poissons Ratio (x) = -0.03720 0.23828
# Poissons Ratio (y) = -0.02644 0.16119
# Poissons Ratio (z) = 0.13948 0.13278
#
# Static dielectric constant tensor:
#      x y z
#    x 2.126420 0.000000 0.000000 
#    y 0.000000 2.270860 0.000000 
#    z 0.000000 0.000000 2.952940 
# 
# From -- ./inp_files/7745.got.cif
#   From: 2010.05.17/outbox.cif.g08.bks.cpg/sg62_4_cif.got.tgz:7745.got - 2010.06.03 15:25:27.
