data_PCOD9467173
_publ_section_title
;
Structure prediction by ZEFSAII (Michael W. Deem and Ramdas Pophale) SiO2 
 PCOD9467173
Probable space group: P N M A
;
_chemical_formula_sum "Si O2"
_cell_formula_units_Z 56
_cell_length_a 8.223763
_cell_length_b 22.595656
_cell_length_c 14.561638
_cell_angle_alpha 90.000000
_cell_angle_beta 90.000000
_cell_angle_gamma 90.000000
_cell_volume 2705.862791
_symmetry_space_group_name_H-M "P N M A"
_symmetry_group_IT_number 62
_symmetry_cell_setting 'orthorhombic'
loop_
_space_group_symop_operation_xyz
x,y,z
1/2-x,-y,1/2+z
1/2+x,1/2-y,1/2-z
-x,1/2+y,-z
-x,-y,-z
1/2+x,y,1/2-z
1/2-x,1/2+y,1/2+z
x,1/2-y,z
loop_
_atom_site_type_symbol
_atom_site_label
_atom_site_fract_x
_atom_site_fract_y
_atom_site_fract_z
Si Si1 0.558458 0.062508 0.457361
Si Si2 0.447207 0.484638 0.286656
Si Si3 0.668301 0.571285 0.217943
Si Si4 0.975355 0.354910 0.563788
Si Si5 0.271945 0.185976 0.678162
Si Si6 0.440236 0.049624 0.071880
Si Si7 0.904130 0.683646 0.061908
O O1 0.475996 0.066950 0.357571
O O2 0.748968 0.055133 0.442905
O O3 0.539150 0.123907 0.510442
O O4 0.500000 0.000000 0.500000
O O5 0.579663 0.536698 0.299011
O O6 0.288797 0.520851 0.315167
O O7 0.459461 0.464949 0.180305
O O8 0.548930 0.592767 0.138937
O O9 0.750843 0.630083 0.256017
O O10 0.007153 0.387497 0.466847
O O11 0.794906 0.324359 0.568733
O O12 0.133149 0.319658 0.599543
O O13 0.249090 0.250000 0.724398
O O14 0.459667 0.183871 0.643790
O O15 0.500000 0.000000 0.000000
O O16 0.925415 0.750000 0.021042
#
# Coordination Sequence:
#
# PCOD9467173 Si02
#       7
#     8   8   8   8   8   8   8
#     4  11  24  39  66  95 126 171 214 271 334 389
#     4  12  23  37  61  92 128 161 208 264 325 385
#     4  12  21  38  55  87 132 161 201 262 318 385
#     4  11  23  40  64  89 127 171 213 263 321 387
#     4  11  24  40  61  89 124 172 217 258 313 392
#     4  11  22  39  59  92 128 165 206 270 328 385
#     4  10  24  44  64  91 128 168 217 269 326 388
#
# _framework density 20.695802
#
# number of rings (size 3 to 8) (size 9 to 14) (size 15 to 20)
#    0.000    0.857    4.286    3.857    2.000    1.143 
#    0.000    0.000    0.000    4.286    0.000    0.000 
#    0.000    0.000    0.000    0.000    0.000    0.000 
#
# Total GULP energy -312000.432463 kJ/mol
# GULP energy per Si atom -5571.436294 kJ/mol
# Density = 2.064870 g / cm^3
# Si number density = 20.695802 Si / 1000 Ang^3
#
#
#
# Elastic Constant Matrix: (Units=GPa)
#
#
# Indices 1 2 3 4 5 6 
#
# 1 68.0152 21.8266 1.9059 0.0000 0.0000 0.0000
# 2 21.8266 105.6392 41.3670 0.0000 0.0000 0.0000
# 3 1.9059 41.3670 84.7144 0.0000 0.0000 0.0000
# 4 0.0000 0.0000 0.0000 24.6567 0.0000 0.0000
# 5 0.0000 0.0000 0.0000 0.0000 25.1062 0.0000
# 6 0.0000 0.0000 0.0000 0.0000 0.0000 25.7711
#
#
#
# Elastic Compliance Matrix: (Units=1/GPa)
#
#
# Indices 1 2 3 4 5 6 
#
# 1 0.015908 -0.003891 0.001542 0.000000 0.000000 0.000000
# 2 -0.003891 0.012656 -0.006092 0.000000 0.000000 0.000000
# 3 0.001542 -0.006092 0.014745 0.000000 0.000000 0.000000
# 4 0.000000 0.000000 0.000000 0.040557 0.000000 0.000000
# 5 0.000000 0.000000 0.000000 0.000000 0.039831 0.000000
# 6 0.000000 0.000000 0.000000 0.000000 0.000000 0.038803
#
#
# Mechanical properties :
#
#
# Convention : Reuss Voigt Hill
#
# Bulk Modulus (GPa) = 37.84129 43.17420 40.50775
# Shear Modulus (GPa) = 26.56888 27.99142 27.28015
#
# Velocity S-wave (km/s) = 3.58688 3.68165 3.63457
# Velocity P-wave (km/s) = 5.95638 6.24334 6.10155
#
# Compressibility (1/GPa) = 0.02642616
#
# Stress axis : x y z
#
# Youngs Moduli (GPa) = 62.86180 79.01544 67.82110
#
# Poissons Ratio (x) = 0.30742 -0.10458
# Poissons Ratio (y) = 0.24457 0.41319
# Poissons Ratio (z) = -0.09693 0.48140
#
# Static dielectric constant tensor:
#      x y z
#    x 1.878760 0.000000 0.000000 
#    y 0.000000 1.756040 0.000000 
#    z 0.000000 0.000000 1.825040 
# 
# From -- ./inp_files/17199.got.cif
#   From: 2010.05.17/outbox.cif.g08.bks.cpg/sg62_9_cif.got.tgz:17199.got - 2010.06.03 15:25:27.
