data_PCOD9467882
_publ_section_title
;
Structure prediction by ZEFSAII (Michael W. Deem and Ramdas Pophale) SiO2 
 PCOD9467882
Probable space group: P N M A
;
_chemical_formula_sum "Si O2"
_cell_formula_units_Z 56
_cell_length_a 21.000000
_cell_length_b 9.000000
_cell_length_c 15.000000
_cell_angle_alpha 90.000000
_cell_angle_beta 90.000000
_cell_angle_gamma 90.000000
_cell_volume 2835.000000
_symmetry_space_group_name_H-M "P N M A"
_symmetry_group_IT_number 62
_symmetry_cell_setting 'orthorhombic'
loop_
_space_group_symop_operation_xyz
x,y,z
1/2-x,-y,1/2+z
1/2+x,1/2-y,1/2-z
-x,1/2+y,-z
-x,-y,-z
1/2+x,y,1/2-z
1/2-x,1/2+y,1/2+z
x,1/2-y,z
loop_
_atom_site_type_symbol
_atom_site_label
_atom_site_fract_x
_atom_site_fract_y
_atom_site_fract_z
Si Si1 0.463919 0.921955 0.711564
Si Si2 0.016535 0.413664 0.625896
Si Si3 0.690958 0.569422 0.508247
Si Si4 0.334292 0.072693 0.684246
Si Si5 0.192738 0.072002 0.371980
Si Si6 0.401980 0.085138 0.007176
Si Si7 0.553646 0.924323 0.557536
O O1 0.443868 0.750000 0.707761
O O2 0.529221 0.938672 0.657739
O O3 0.479827 0.975337 0.809622
O O4 0.407887 0.023467 0.672658
O O5 0.024930 0.250000 0.666918
O O6 0.081962 0.485415 0.592463
O O7 0.969236 0.394333 0.542815
O O8 0.689690 0.750000 0.508341
O O9 0.702447 0.527245 0.405608
O O10 0.742162 0.526359 0.580435
O O11 0.622384 0.512291 0.537811
O O12 0.331220 0.250000 0.695388
O O13 0.312170 0.992290 0.773342
O O14 0.186383 0.250000 0.370004
O O15 0.140714 0.000929 0.436811
O O16 0.377064 0.250000 0.028227
O O17 0.554689 0.750000 0.535455
O O18 0.500000 0.000000 0.500000
#
# Coordination Sequence:
#
# PCOD9467882 Si02
#       7
#     8   8   8   8   8   8   8
#     4  11  21  33  57  89 119 149 192 241 292 351
#     4  10  20  34  55  82 117 155 194 238 294 347
#     4   9  21  41  62  83 118 159 194 242 300 355
#     4  11  21  38  63  86 113 153 199 241 293 354
#     4  11  22  39  62  86 118 159 202 244 296 359
#     4  10  20  35  56  83 115 151 193 243 293 345
#     4  10  20  37  60  87 117 150 190 240 297 350
#
# _framework density 19.753086
#
# number of rings (size 3 to 8) (size 9 to 14) (size 15 to 20)
#    0.000    1.714    2.857    2.143    0.000    1.714 
#    2.571    4.286    0.000    0.000    0.000    0.000 
#    0.000    0.000    0.000    0.000    0.000    0.000 
#
# Total GULP energy -311985.511433 kJ/mol
# GULP energy per Si atom -5571.169847 kJ/mol
# Density = 1.970813 g / cm^3
# Si number density = 19.753086 Si / 1000 Ang^3
#
#
#
# Elastic Constant Matrix: (Units=GPa)
#
#
# Indices 1 2 3 4 5 6 
#
# 1 85.0155 36.3602 43.1465 0.0000 0.0000 0.0000
# 2 36.3602 9.1497 -32.1704 0.0000 0.0000 0.0000
# 3 43.1465 -32.1704 -30.6577 0.0000 0.0000 0.0000
# 4 0.0000 0.0000 0.0000 -10.8629 0.0000 0.0000
# 5 0.0000 0.0000 0.0000 0.0000 0.1720 0.0000
# 6 0.0000 0.0000 0.0000 0.0000 0.0000 11.9125
#
#
#
# Elastic Compliance Matrix: (Units=1/GPa)
#
#
# Indices 1 2 3 4 5 6 
#
# 1 0.006950 0.001444 0.008266 0.000000 0.000000 0.000000
# 2 0.001444 0.023606 -0.022739 0.000000 0.000000 0.000000
# 3 0.008266 -0.022739 0.002875 0.000000 0.000000 0.000000
# 4 0.000000 0.000000 0.000000 -0.092056 0.000000 0.000000
# 5 0.000000 0.000000 0.000000 0.000000 5.815034 0.000000
# 6 0.000000 0.000000 0.000000 0.000000 0.000000 0.083945
#
#
# Mechanical properties :
#
#
# Convention : Reuss Voigt Hill
#
# Bulk Modulus (GPa) = 135.61343 17.57557 76.59450
# Shear Modulus (GPa) = 0.85195 1.32239 1.08717
#
# Velocity S-wave (km/s) = 0.65745 0.81909 0.74268
# Velocity P-wave (km/s) = 8.32945 3.13233 6.29250
#
# Compressibility (1/GPa) = 0.00737390
#
# Stress axis : x y z
#
# Youngs Moduli (GPa) = 143.88590 42.36202 347.80237
#
# Poissons Ratio (x) = -0.06117 -2.87487
# Poissons Ratio (y) = -0.20778 7.90851
# Poissons Ratio (z) = -1.18933 0.96325
#
# Static dielectric constant tensor:
#      x y z
#    x 1.712750 0.000000 0.000000 
#    y 0.000000 1.722280 0.000000 
#    z 0.000000 0.000000 1.726420 
# 
# From -- ./inp_files/20288.got.cif
#   From: 2010.05.17/outbox.ucp.g08.bks.cvg/sg62_11_cif.got.tgz:20288.got - 2010.06.11 16:29:25.
