data_PCOD9467090
_publ_section_title
;
Structure prediction by ZEFSAII (Michael W. Deem and Ramdas Pophale) SiO2 
 PCOD9467090
Probable space group: P N M A
;
_chemical_formula_sum "Si O2"
_cell_formula_units_Z 40
_cell_length_a 11.892216
_cell_length_b 11.563858
_cell_length_c 13.579892
_cell_angle_alpha 90.000000
_cell_angle_beta 90.000000
_cell_angle_gamma 90.000000
_cell_volume 1867.505351
_symmetry_space_group_name_H-M "P N M A"
_symmetry_group_IT_number 62
_symmetry_cell_setting 'orthorhombic'
loop_
_space_group_symop_operation_xyz
x,y,z
1/2-x,-y,1/2+z
1/2+x,1/2-y,1/2-z
-x,1/2+y,-z
-x,-y,-z
1/2+x,y,1/2-z
1/2-x,1/2+y,1/2+z
x,1/2-y,z
loop_
_atom_site_type_symbol
_atom_site_label
_atom_site_fract_x
_atom_site_fract_y
_atom_site_fract_z
Si Si1 0.765483 0.960715 0.876171
Si Si2 0.070331 0.881348 0.493921
Si Si3 0.755362 0.380694 0.685380
Si Si4 0.125405 0.750000 0.806738
Si Si5 0.113648 0.528193 0.945261
Si Si6 0.124388 0.250000 0.205918
O O1 0.860845 0.864485 0.859341
O O2 0.758373 0.032368 0.776456
O O3 0.655586 0.892737 0.913387
O O4 0.796070 0.042519 0.967235
O O5 0.020010 0.750000 0.496011
O O6 0.140251 0.888755 0.391010
O O7 0.000000 0.000000 0.500000
O O8 0.747412 0.250000 0.720826
O O9 0.650261 0.417461 0.618625
O O10 0.117252 0.636834 0.874315
O O11 0.254818 0.750000 0.765060
O O12 0.002413 0.750000 0.749476
O O13 0.000000 0.500000 0.000000
#
# Coordination Sequence:
#
# PCOD9467090 Si02
#       6
#     8   8   8   4   8   4
#     4  11  23  45  66  98 139 186 236 294 368 426
#     4  10  23  44  68  97 140 188 238 295 367 437
#     4  10  24  44  65  94 137 182 232 296 364 435
#     4  12  26  46  74 111 143 187 251 302 360 439
#     4  11  24  41  69  99 134 186 239 295 355 439
#     4  12  24  46  74 103 145 189 241 300 362 429
#
# _framework density 21.418946999999999
#
# number of rings (size 3 to 8) (size 9 to 14) (size 15 to 20)
#    0.000    1.200    5.000    0.000    4.200    4.000 
#    7.200    2.000    0.000    0.000    0.000    0.000 
#    0.000    0.000    0.000    0.000    0.000    0.000 
#
# Total GULP energy -222980.377878 kJ/mol
# GULP energy per Si atom -5574.509447 kJ/mol
# Density = 2.137020 g / cm^3
# Si number density = 21.418947 Si / 1000 Ang^3
#
#
#
# Elastic Constant Matrix: (Units=GPa)
#
#
# Indices 1 2 3 4 5 6 
#
# 1 100.3461 44.3056 30.8396 0.0000 0.0000 0.0000
# 2 44.3056 133.5696 47.9502 0.0000 0.0000 0.0000
# 3 30.8396 47.9502 95.0528 0.0000 0.0000 0.0000
# 4 0.0000 0.0000 0.0000 36.2803 0.0000 0.0000
# 5 0.0000 0.0000 0.0000 0.0000 28.1075 0.0000
# 6 0.0000 0.0000 0.0000 0.0000 0.0000 31.0736
#
#
#
# Elastic Compliance Matrix: (Units=1/GPa)
#
#
# Indices 1 2 3 4 5 6 
#
# 1 0.012080 -0.003175 -0.002318 0.000000 0.000000 0.000000
# 2 -0.003175 0.009977 -0.004003 0.000000 0.000000 0.000000
# 3 -0.002318 -0.004003 0.013292 0.000000 0.000000 0.000000
# 4 0.000000 0.000000 0.000000 0.027563 0.000000 0.000000
# 5 0.000000 0.000000 0.000000 0.000000 0.035578 0.000000
# 6 0.000000 0.000000 0.000000 0.000000 0.000000 0.032182
#
#
# Mechanical properties :
#
#
# Convention : Reuss Voigt Hill
#
# Bulk Modulus (GPa) = 61.13399 63.90658 62.52028
# Shear Modulus (GPa) = 32.23443 32.81715 32.52579
#
# Velocity S-wave (km/s) = 3.88358 3.91852 3.90109
# Velocity P-wave (km/s) = 6.97951 7.09749 7.03874
#
# Compressibility (1/GPa) = 0.01635751
#
# Stress axis : x y z
#
# Youngs Moduli (GPa) = 82.78442 100.23236 75.23516
#
# Poissons Ratio (x) = 0.31822 0.17436
# Poissons Ratio (y) = 0.26283 0.30115
# Poissons Ratio (z) = 0.19186 0.40121
#
# Static dielectric constant tensor:
#      x y z
#    x 1.926060 0.000000 0.000000 
#    y 0.000000 1.779590 0.000000 
#    z 0.000000 0.000000 1.772600 
# 
# From -- ./inp_files/17819.got.cif
#   From: 2010.05.17/outbox.cif.g08.bks.cpg/sg62_9_cif.got.tgz:17819.got - 2010.06.03 15:25:27.
