data_PCOD9467913
_publ_section_title
;
Structure prediction by ZEFSAII (Michael W. Deem and Ramdas Pophale) SiO2 
 PCOD9467913
Probable space group: P N M A
;
_chemical_formula_sum "Si O2"
_cell_formula_units_Z 64
_cell_length_a 12.000000
_cell_length_b 9.000000
_cell_length_c 30.000000
_cell_angle_alpha 90.000000
_cell_angle_beta 90.000000
_cell_angle_gamma 90.000000
_cell_volume 3240.000000
_symmetry_space_group_name_H-M "P N M A"
_symmetry_group_IT_number 62
_symmetry_cell_setting 'orthorhombic'
loop_
_space_group_symop_operation_xyz
x,y,z
1/2-x,-y,1/2+z
1/2+x,1/2-y,1/2-z
-x,1/2+y,-z
-x,-y,-z
1/2+x,y,1/2-z
1/2-x,1/2+y,1/2+z
x,1/2-y,z
loop_
_atom_site_type_symbol
_atom_site_label
_atom_site_fract_x
_atom_site_fract_y
_atom_site_fract_z
Si Si1 0.557380 0.926206 0.572415
Si Si2 0.588106 0.074324 0.092212
Si Si3 0.249502 0.426806 0.492695
Si Si4 0.082622 0.432909 0.225518
Si Si5 0.723976 0.420653 0.638517
Si Si6 0.325334 0.072929 0.084018
Si Si7 0.875163 0.071933 0.870292
Si Si8 0.831599 0.573180 0.242491
O O1 0.533100 0.750000 0.572005
O O2 0.628690 0.963678 0.528000
O O3 0.646390 0.967552 0.610898
O O4 0.449745 0.019102 0.587323
O O5 0.599858 0.250000 0.102772
O O6 0.656516 0.049222 0.046102
O O7 0.457299 0.041322 0.087965
O O8 0.650683 0.975463 0.128947
O O9 0.249139 0.250000 0.503179
O O10 0.216152 0.521161 0.535418
O O11 0.082086 0.250000 0.229211
O O12 0.080356 0.489120 0.174034
O O13 0.210517 0.495857 0.240439
O O14 0.960707 0.497665 0.246831
O O15 0.709408 0.250000 0.622555
O O16 0.689705 0.426131 0.689597
O O17 0.308878 0.250000 0.089719
O O18 0.249841 0.983678 0.119275
O O19 0.881821 0.250000 0.865077
O O20 0.835610 0.750000 0.257126
#
# Coordination Sequence:
#
# PCOD9467913 Si02
#       8
#     8   8   8   8   8   8   8   8
#     4  10  20  37  62  88 119 156 202 253 304 366
#     4   9  20  37  58  85 122 163 207 258 310 370
#     4   9  19  36  58  87 119 157 203 259 318 372
#     4  12  26  45  71 101 133 173 220 270 328 393
#     4  10  20  35  62  93 120 157 203 245 302 368
#     4  11  23  38  57  85 121 164 210 260 315 373
#     4  12  25  42  63  87 121 164 206 256 318 380
#     4  11  24  44  69 100 137 173 214 268 326 392
#
# _framework density 19.753086
#
# number of rings (size 3 to 8) (size 9 to 14) (size 15 to 20)
#    0.000    1.500    1.250    4.875    0.000    6.500 
#    0.000    2.500    0.000    0.000    0.000    0.000 
#    0.000    0.000    0.000    0.000    0.000    0.000 
#
# Total GULP energy -356881.376869 kJ/mol
# GULP energy per Si atom -5576.271514 kJ/mol
# Density = 1.970813 g / cm^3
# Si number density = 19.753086 Si / 1000 Ang^3
#
#
#
# Elastic Constant Matrix: (Units=GPa)
#
#
# Indices 1 2 3 4 5 6 
#
# 1 140.5059 44.6128 13.9701 0.0000 0.0000 0.0000
# 2 44.6128 107.9288 10.8210 0.0000 0.0000 0.0000
# 3 13.9701 10.8210 29.7372 0.0000 0.0000 0.0000
# 4 0.0000 0.0000 0.0000 30.7694 0.0000 0.0000
# 5 0.0000 0.0000 0.0000 0.0000 32.1084 0.0000
# 6 0.0000 0.0000 0.0000 0.0000 0.0000 38.8405
#
#
#
# Elastic Compliance Matrix: (Units=1/GPa)
#
#
# Indices 1 2 3 4 5 6 
#
# 1 0.008409 -0.003197 -0.002787 0.000000 0.000000 0.000000
# 2 -0.003197 0.010831 -0.002440 0.000000 0.000000 0.000000
# 3 -0.002787 -0.002440 0.035825 0.000000 0.000000 0.000000
# 4 0.000000 0.000000 0.000000 0.032500 0.000000 0.000000
# 5 0.000000 0.000000 0.000000 0.000000 0.031145 0.000000
# 6 0.000000 0.000000 0.000000 0.000000 0.000000 0.025746
#
#
# Mechanical properties :
#
#
# Convention : Reuss Voigt Hill
#
# Bulk Modulus (GPa) = 26.16534 46.33109 36.24821
# Shear Modulus (GPa) = 28.72853 34.26151 31.49502
#
# Velocity S-wave (km/s) = 3.81777 4.16924 3.99737
# Velocity P-wave (km/s) = 5.71916 6.83248 6.30046
#
# Compressibility (1/GPa) = 0.03821850
#
# Stress axis : x y z
#
# Youngs Moduli (GPa) = 118.91707 92.32525 27.91335
#
# Poissons Ratio (x) = 0.29512 0.07780
# Poissons Ratio (y) = 0.38012 0.06810
# Poissons Ratio (z) = 0.33146 0.22525
#
# Static dielectric constant tensor:
#      x y z
#    x 1.759130 0.000000 0.000000 
#    y 0.000000 1.683130 0.000000 
#    z 0.000000 0.000000 1.707620 
# 
# From -- ./inp_files/32584.got.cif
#   From: 2010.05.17/outbox.ucp.g08.bks.cvg/sg62_17_cif.got.tgz:32584.got - 2010.06.11 16:29:25.
