data_PCOD9467380
_publ_section_title
;
Structure prediction by ZEFSAII (Michael W. Deem and Ramdas Pophale) SiO2 
 PCOD9467380
Probable space group: P N M A
;
_chemical_formula_sum "Si O2"
_cell_formula_units_Z 40
_cell_length_a 15.781568
_cell_length_b 20.030413
_cell_length_c 5.841707
_cell_angle_alpha 90.000000
_cell_angle_beta 90.000000
_cell_angle_gamma 90.000000
_cell_volume 1846.629739
_symmetry_space_group_name_H-M "P N M A"
_symmetry_group_IT_number 62
_symmetry_cell_setting 'orthorhombic'
loop_
_space_group_symop_operation_xyz
x,y,z
1/2-x,-y,1/2+z
1/2+x,1/2-y,1/2-z
-x,1/2+y,-z
-x,-y,-z
1/2+x,y,1/2-z
1/2-x,1/2+y,1/2+z
x,1/2-y,z
loop_
_atom_site_type_symbol
_atom_site_label
_atom_site_fract_x
_atom_site_fract_y
_atom_site_fract_z
Si Si1 0.120184 0.750000 0.028322
Si Si2 0.402032 0.634440 0.938866
Si Si3 0.700593 0.500093 0.137679
Si Si4 0.839114 0.750000 0.270974
Si Si5 0.903443 0.364069 0.605380
Si Si6 0.553245 0.250000 0.387566
Si Si7 0.800782 0.250000 0.378013
O O1 0.209176 0.750000 0.895832
O O2 0.045651 0.750000 0.843887
O O3 0.106952 0.816323 0.174247
O O4 0.343385 0.678590 0.106521
O O5 0.498043 0.627063 0.035764
O O6 0.358048 0.565484 0.879330
O O7 0.409668 0.683542 0.721945
O O8 0.748667 0.498032 0.388812
O O9 0.642005 0.565756 0.139753
O O10 0.932908 0.750000 0.155567
O O11 0.774627 0.750000 0.060164
O O12 0.849517 0.319455 0.427234
#
# Coordination Sequence:
#
# PCOD9467380 Si02
#       7
#     4   8   8   4   8   4   4
#     4  11  21  42  75 110 143 179 245 303 366 446
#     4  11  24  46  72 105 142 196 245 300 368 448
#     4  12  31  50  71 107 152 196 250 311 372 434
#     4  11  23  41  70 106 145 178 238 303 370 427
#     4  11  24  46  72 105 144 193 245 299 365 445
#     4  11  21  40  76 106 141 179 242 302 361 443
#     4  11  23  39  71 108 141 184 231 306 363 428
#
# _framework density 21.661083999999999
#
# number of rings (size 3 to 8) (size 9 to 14) (size 15 to 20)
#    0.000    0.800    4.000    3.000    8.400    3.200 
#    0.000    3.000    0.000    0.000    0.000    0.000 
#    0.000    0.000    0.000    0.000    0.000    0.000 
#
# Total GULP energy -223078.007426 kJ/mol
# GULP energy per Si atom -5576.950186 kJ/mol
# Density = 2.161178 g / cm^3
# Si number density = 21.661084 Si / 1000 Ang^3
#
#
#
# Elastic Constant Matrix: (Units=GPa)
#
#
# Indices 1 2 3 4 5 6 
#
# 1 119.5657 84.9070 36.4920 0.0000 0.0000 0.0000
# 2 84.9070 235.0292 59.6479 0.0000 0.0000 0.0000
# 3 36.4920 59.6479 75.5103 0.0000 0.0000 0.0000
# 4 0.0000 0.0000 0.0000 -322.9476 0.0000 0.0000
# 5 0.0000 0.0000 0.0000 0.0000 41.1723 0.0000
# 6 0.0000 0.0000 0.0000 0.0000 0.0000 936.9362
#
#
#
# Elastic Compliance Matrix: (Units=1/GPa)
#
#
# Indices 1 2 3 4 5 6 
#
# 1 0.011738 -0.003503 -0.002905 0.000000 0.000000 0.000000
# 2 -0.003503 0.006367 -0.003337 0.000000 0.000000 0.000000
# 3 -0.002905 -0.003337 0.017283 0.000000 0.000000 0.000000
# 4 0.000000 0.000000 0.000000 -0.003096 0.000000 0.000000
# 5 0.000000 0.000000 0.000000 0.000000 0.024288 0.000000
# 6 0.000000 0.000000 0.000000 0.000000 0.000000 0.001067
#
#
# Mechanical properties :
#
#
# Convention : Reuss Voigt Hill
#
# Bulk Modulus (GPa) = 62.90172 88.02213 75.46192
# Shear Modulus (GPa) = 60.65248 147.63607 104.14428
#
# Velocity S-wave (km/s) = 5.29731 8.26470 6.94142
# Velocity P-wave (km/s) = 8.15582 11.48033 9.95779
#
# Compressibility (1/GPa) = 0.01589782
#
# Stress axis : x y z
#
# Youngs Moduli (GPa) = 85.19320 157.05641 57.86019
#
# Poissons Ratio (x) = 0.55019 0.16811
# Poissons Ratio (y) = 0.29844 0.19306
# Poissons Ratio (z) = 0.24752 0.52404
#
# Static dielectric constant tensor:
#      x y z
#    x 1.883830 0.000000 0.000000 
#    y 0.000000 1.710980 0.000000 
#    z 0.000000 0.000000 1.921840 
# 
# From -- ./inp_files/1598.got.cif
#   From: 2010.05.17/outbox.cif.g08.bks.cpg/sg62_1_cif.got.tgz:1598.got - 2010.06.03 15:25:27.
