data_PCOD9467659
_publ_section_title
;
Structure prediction by ZEFSAII (Michael W. Deem and Ramdas Pophale) SiO2 
 PCOD9467659
Probable space group: P N M A
;
_chemical_formula_sum "Si O2"
_cell_formula_units_Z 40
_cell_length_a 11.939486
_cell_length_b 25.184724
_cell_length_c 4.770095
_cell_angle_alpha 90.000000
_cell_angle_beta 90.000000
_cell_angle_gamma 90.000000
_cell_volume 1434.332552
_symmetry_space_group_name_H-M "P N M A"
_symmetry_group_IT_number 62
_symmetry_cell_setting 'orthorhombic'
loop_
_space_group_symop_operation_xyz
x,y,z
1/2-x,-y,1/2+z
1/2+x,1/2-y,1/2-z
-x,1/2+y,-z
-x,-y,-z
1/2+x,y,1/2-z
1/2-x,1/2+y,1/2+z
x,1/2-y,z
loop_
_atom_site_type_symbol
_atom_site_label
_atom_site_fract_x
_atom_site_fract_y
_atom_site_fract_z
Si Si1 0.548330 0.189064 0.169638
Si Si2 0.052496 0.523200 0.283322
Si Si3 0.208871 0.041485 0.547337
Si Si4 0.181051 0.153522 0.837054
Si Si5 0.128866 0.625771 0.016629
O O1 0.519205 0.250000 0.212118
O O2 0.658055 0.173376 0.353472
O O3 0.454144 0.151195 0.297658
O O4 0.583054 0.178820 0.851658
O O5 0.201862 0.507366 0.249033
O O6 0.926393 0.524235 0.472897
O O7 0.210373 0.582039 0.867667
O O8 0.000000 0.500000 0.000000
O O9 0.179911 0.090555 0.780713
O O10 0.929608 0.085495 0.764726
O O11 0.299840 0.167674 0.695865
#
# Coordination Sequence:
#
# PCOD9467659 Si02
#       5
#     8   8   8   8   8
#     4  12  23  44  70  96 128 181 235 286 355 409
#     4   9  17  38  63  92 132 184 222 280 341 419
#     4   8  20  38  62  97 139 176 227 271 352 417
#     4   9  24  43  65  97 138 174 222 290 343 419
#     4   8  23  41  63 100 140 171 230 290 339 417
#
# _framework density 27.887536999999998
#
# number of rings (size 3 to 8) (size 9 to 14) (size 15 to 20)
#    2.400    0.000    0.000    1.800    0.000    6.400 
#    7.200    2.000    0.000    0.000    0.000    0.000 
#    0.000    0.000    0.000    0.000    0.000    0.000 
#
# Total GULP energy -223575.335092 kJ/mol
# GULP energy per Si atom -5589.383377 kJ/mol
# Density = 2.782406 g / cm^3
# Si number density = 27.887537 Si / 1000 Ang^3
#
#
#
# Elastic Constant Matrix: (Units=GPa)
#
#
# Indices 1 2 3 4 5 6 
#
# 1 151.2909 50.1918 29.3639 0.0000 0.0000 0.0000
# 2 50.1918 149.6282 48.0419 0.0000 0.0000 0.0000
# 3 29.3639 48.0419 139.1744 0.0000 0.0000 0.0000
# 4 0.0000 0.0000 0.0000 32.5193 0.0000 0.0000
# 5 0.0000 0.0000 0.0000 0.0000 53.7264 0.0000
# 6 0.0000 0.0000 0.0000 0.0000 0.0000 20.4242
#
#
#
# Elastic Compliance Matrix: (Units=1/GPa)
#
#
# Indices 1 2 3 4 5 6 
#
# 1 0.007517 -0.002263 -0.000805 0.000000 0.000000 0.000000
# 2 -0.002263 0.008198 -0.002352 0.000000 0.000000 0.000000
# 3 -0.000805 -0.002352 0.008167 0.000000 0.000000 0.000000
# 4 0.000000 0.000000 0.000000 0.030751 0.000000 0.000000
# 5 0.000000 0.000000 0.000000 0.000000 0.018613 0.000000
# 6 0.000000 0.000000 0.000000 0.000000 0.000000 0.048962
#
#
# Mechanical properties :
#
#
# Convention : Reuss Voigt Hill
#
# Bulk Modulus (GPa) = 76.67995 77.25430 76.96713
# Shear Modulus (GPa) = 36.39168 42.16703 39.27935
#
# Velocity S-wave (km/s) = 3.61632 3.89271 3.75706
# Velocity P-wave (km/s) = 6.70767 6.92579 6.81760
#
# Compressibility (1/GPa) = 0.01304122
#
# Stress axis : x y z
#
# Youngs Moduli (GPa) = 133.03605 121.98664 122.44390
#
# Poissons Ratio (x) = 0.27606 0.09854
# Poissons Ratio (y) = 0.30107 0.28802
# Poissons Ratio (z) = 0.10706 0.28695
#
# Static dielectric constant tensor:
#      x y z
#    x 2.675050 0.000000 0.000000 
#    y 0.000000 2.122300 0.000000 
#    z 0.000000 0.000000 2.274660 
# 
# From -- ./inp_files/681.got.cif
#   From: 2010.05.17/outbox.cif.g08.bks.cpg/sg62_1_cif.got.tgz:681.got - 2010.06.03 15:25:27.
