data_PCOD9467165
_publ_section_title
;
Structure prediction by ZEFSAII (Michael W. Deem and Ramdas Pophale) SiO2 
 PCOD9467165
Probable space group: P N M A
;
_chemical_formula_sum "Si O2"
_cell_formula_units_Z 64
_cell_length_a 15.270485
_cell_length_b 8.577552
_cell_length_c 24.163131
_cell_angle_alpha 90.000000
_cell_angle_beta 90.000000
_cell_angle_gamma 90.000000
_cell_volume 3164.968549
_symmetry_space_group_name_H-M "P N M A"
_symmetry_group_IT_number 62
_symmetry_cell_setting 'orthorhombic'
loop_
_space_group_symop_operation_xyz
x,y,z
1/2-x,-y,1/2+z
1/2+x,1/2-y,1/2-z
-x,1/2+y,-z
-x,-y,-z
1/2+x,y,1/2-z
1/2-x,1/2+y,1/2+z
x,1/2-y,z
loop_
_atom_site_type_symbol
_atom_site_label
_atom_site_fract_x
_atom_site_fract_y
_atom_site_fract_z
Si Si1 0.932377 0.435741 0.251854
Si Si2 0.271921 0.937573 0.750985
Si Si3 0.264444 0.933287 0.021264
Si Si4 0.821355 0.063824 0.869099
Si Si5 0.509055 0.933115 0.628447
Si Si6 0.578023 0.936765 0.168155
Si Si7 0.427271 0.066320 0.958820
Si Si8 0.588428 0.433282 0.527039
O O1 0.934445 0.250000 0.262872
O O2 0.830747 0.480557 0.243599
O O3 0.979317 0.463735 0.193267
O O4 0.989342 0.518130 0.299046
O O5 0.278319 0.750000 0.748732
O O6 0.300385 0.008929 0.692354
O O7 0.338230 0.995205 0.798601
O O8 0.284510 0.750000 0.016711
O O9 0.335656 0.029208 0.988040
O O10 0.170449 0.971066 0.995138
O O11 0.254173 0.973188 0.086319
O O12 0.835660 0.250000 0.870890
O O13 0.910277 0.978362 0.886867
O O14 0.524720 0.750000 0.618134
O O15 0.575033 0.034136 0.592048
O O16 0.586876 0.750000 0.168125
O O17 0.572809 0.994100 0.104527
O O18 0.441469 0.250000 0.954938
O O19 0.500000 0.000000 0.000000
O O20 0.500000 0.500000 0.500000
O O21 0.597981 0.250000 0.515738
#
# Coordination Sequence:
#
# PCOD9467165 Si02
#       8
#     8   8   8   8   8   8   8   8
#     4  10  24  43  66  96 127 169 216 262 324 393
#     4  11  24  42  66  98 132 170 216 267 329 393
#     4  11  25  44  67  95 130 175 222 272 329 392
#     4  11  23  40  64  95 130 169 216 269 327 391
#     4  11  22  39  63  93 130 170 215 263 320 391
#     4  11  25  45  69  99 134 171 219 276 332 392
#     4  11  27  49  71  99 131 174 229 282 338 396
#     4  12  24  39  61  93 132 173 215 263 322 390
#
# _framework density 20.221368999999999
#
# number of rings (size 3 to 8) (size 9 to 14) (size 15 to 20)
#    0.000    1.000    2.500    3.375    3.500    5.000 
#    0.000    0.000    0.000    0.000    0.000    0.000 
#    0.000    0.000    0.000    0.000    0.000    0.000 
#
# Total GULP energy -357811.181234 kJ/mol
# GULP energy per Si atom -5590.799707 kJ/mol
# Density = 2.017534 g / cm^3
# Si number density = 20.221369 Si / 1000 Ang^3
#
#
#
# Elastic Constant Matrix: (Units=GPa)
#
#
# Indices 1 2 3 4 5 6 
#
# 1 85.6446 -1.4705 41.8265 0.0000 0.0000 0.0000
# 2 -1.4705 33.6481 29.1282 0.0000 0.0000 0.0000
# 3 41.8265 29.1282 137.6128 0.0000 0.0000 0.0000
# 4 0.0000 0.0000 0.0000 31.8703 0.0000 0.0000
# 5 0.0000 0.0000 0.0000 0.0000 23.8254 0.0000
# 6 0.0000 0.0000 0.0000 0.0000 0.0000 31.1459
#
#
#
# Elastic Compliance Matrix: (Units=1/GPa)
#
#
# Indices 1 2 3 4 5 6 
#
# 1 0.014482 0.005440 -0.005553 0.000000 0.000000 0.000000
# 2 0.005440 0.038430 -0.009788 0.000000 0.000000 0.000000
# 3 -0.005553 -0.009788 0.011026 0.000000 0.000000 0.000000
# 4 0.000000 0.000000 0.000000 0.031377 0.000000 0.000000
# 5 0.000000 0.000000 0.000000 0.000000 0.041972 0.000000
# 6 0.000000 0.000000 0.000000 0.000000 0.000000 0.032107
#
#
# Mechanical properties :
#
#
# Convention : Reuss Voigt Hill
#
# Bulk Modulus (GPa) = 22.65715 43.98600 33.32158
# Shear Modulus (GPa) = 24.52085 29.86307 27.19196
#
# Velocity S-wave (km/s) = 3.48605 3.84709 3.67101
# Velocity P-wave (km/s) = 5.23758 6.44461 5.87219
#
# Compressibility (1/GPa) = 0.04413617
#
# Stress axis : x y z
#
# Youngs Moduli (GPa) = 69.05361 26.02120 90.69176
#
# Poissons Ratio (x) = -0.14155 0.50361
# Poissons Ratio (y) = -0.37565 0.88768
# Poissons Ratio (z) = 0.38346 0.25469
#
# Static dielectric constant tensor:
#      x y z
#    x 1.745810 0.000000 0.000000 
#    y 0.000000 1.681310 0.000000 
#    z 0.000000 0.000000 1.750070 
# 
# From -- ./inp_files/29917.got.cif
#   From: 2010.05.17/outbox.cif.g08.bks.cpg/sg62_15_cif.got.tgz:29917.got - 2010.06.03 15:25:27.
