data_PCOD9467237
_publ_section_title
;
Structure prediction by ZEFSAII (Michael W. Deem and Ramdas Pophale) SiO2 
 PCOD9467237
Probable space group: P N M A
;
_chemical_formula_sum "Si O2"
_cell_formula_units_Z 48
_cell_length_a 13.708405
_cell_length_b 17.759384
_cell_length_c 9.621956
_cell_angle_alpha 90.000000
_cell_angle_beta 90.000000
_cell_angle_gamma 90.000000
_cell_volume 2342.492403
_symmetry_space_group_name_H-M "P N M A"
_symmetry_group_IT_number 62
_symmetry_cell_setting 'orthorhombic'
loop_
_space_group_symop_operation_xyz
x,y,z
1/2-x,-y,1/2+z
1/2+x,1/2-y,1/2-z
-x,1/2+y,-z
-x,-y,-z
1/2+x,y,1/2-z
1/2-x,1/2+y,1/2+z
x,1/2-y,z
loop_
_atom_site_type_symbol
_atom_site_label
_atom_site_fract_x
_atom_site_fract_y
_atom_site_fract_z
Si Si1 0.596188 0.334566 0.208788
Si Si2 0.981527 0.418937 0.067253
Si Si3 0.513252 0.661855 0.083722
Si Si4 0.289068 0.069746 0.955749
Si Si5 0.099319 0.338552 0.852688
Si Si6 0.226326 0.573656 0.787256
O O1 0.579496 0.250000 0.263768
O O2 0.556736 0.397841 0.311914
O O3 0.710079 0.351158 0.194847
O O4 0.539118 0.341648 0.064909
O O5 0.876297 0.416883 0.136159
O O6 0.006676 0.358394 0.949038
O O7 0.000000 0.500000 0.000000
O O8 0.536637 0.750000 0.112001
O O9 0.611833 0.613848 0.081211
O O10 0.435215 0.636796 0.199666
O O11 0.193192 0.117269 0.910226
O O12 0.281799 0.993069 0.868318
O O13 0.286365 0.057722 0.122727
O O14 0.120132 0.250000 0.853018
#
# Coordination Sequence:
#
# PCOD9467237 Si02
#       6
#     8   8   8   8   8   8
#     4  11  25  45  69 102 138 182 240 291 348 426
#     4  12  24  45  69 104 140 182 236 286 354 422
#     4  10  25  45  70  99 136 185 230 283 354 419
#     4  12  26  45  68 100 138 180 232 287 355 420
#     4  11  25  45  71 100 139 183 231 292 345 417
#     4  12  27  42  71 102 136 187 230 291 357 417
#
# _framework density 20.490994000000001
#
# number of rings (size 3 to 8) (size 9 to 14) (size 15 to 20)
#    0.000    0.667    5.000    1.000    7.000    2.667 
#    0.000    3.333    0.000    0.000    0.000    0.000 
#    0.000    0.000    0.000    0.000    0.000    0.000 
#
# Total GULP energy -268382.980264 kJ/mol
# GULP energy per Si atom -5591.312089 kJ/mol
# Density = 2.044436 g / cm^3
# Si number density = 20.490994 Si / 1000 Ang^3
#
#
#
# Elastic Constant Matrix: (Units=GPa)
#
#
# Indices 1 2 3 4 5 6 
#
# 1 97.0412 37.3592 32.9668 0.0000 0.0000 0.0000
# 2 37.3592 57.4146 39.9001 0.0000 0.0000 0.0000
# 3 32.9668 39.9001 91.8468 0.0000 0.0000 0.0000
# 4 0.0000 0.0000 0.0000 29.2856 0.0000 0.0000
# 5 0.0000 0.0000 0.0000 0.0000 38.8135 0.0000
# 6 0.0000 0.0000 0.0000 0.0000 0.0000 35.4631
#
#
#
# Elastic Compliance Matrix: (Units=1/GPa)
#
#
# Indices 1 2 3 4 5 6 
#
# 1 0.013895 -0.007987 -0.001518 0.000000 0.000000 0.000000
# 2 -0.007987 0.029540 -0.009966 0.000000 0.000000 0.000000
# 3 -0.001518 -0.009966 0.015762 0.000000 0.000000 0.000000
# 4 0.000000 0.000000 0.000000 0.034147 0.000000 0.000000
# 5 0.000000 0.000000 0.000000 0.000000 0.025764 0.000000
# 6 0.000000 0.000000 0.000000 0.000000 0.000000 0.028198
#
#
# Mechanical properties :
#
#
# Convention : Reuss Voigt Hill
#
# Bulk Modulus (GPa) = 49.36832 51.86166 50.61499
# Shear Modulus (GPa) = 25.90678 29.78418 27.84548
#
# Velocity S-wave (km/s) = 3.55956 3.81665 3.69034
# Velocity P-wave (km/s) = 6.40616 6.69230 6.55079
#
# Compressibility (1/GPa) = 0.02025590
#
# Stress axis : x y z
#
# Youngs Moduli (GPa) = 71.96676 33.85246 63.44381
#
# Poissons Ratio (x) = 0.27037 0.09630
# Poissons Ratio (y) = 0.57478 0.63229
# Poissons Ratio (z) = 0.10924 0.33738
#
# Static dielectric constant tensor:
#      x y z
#    x 1.721660 0.000000 0.000000 
#    y 0.000000 1.731740 0.000000 
#    z 0.000000 0.000000 1.739670 
# 
# From -- ./inp_files/6484.got.cif
#   From: 2010.05.17/outbox.cif.g08.bks.cpg/sg62_4_cif.got.tgz:6484.got - 2010.06.03 15:25:27.
