data_PCOD9467137
_publ_section_title
;
Structure prediction by ZEFSAII (Michael W. Deem and Ramdas Pophale) SiO2 
 PCOD9467137
Probable space group: P N M A
;
_chemical_formula_sum "Si O2"
_cell_formula_units_Z 36
_cell_length_a 22.208340
_cell_length_b 9.406682
_cell_length_c 7.660490
_cell_angle_alpha 90.000000
_cell_angle_beta 90.000000
_cell_angle_gamma 90.000000
_cell_volume 1600.328392
_symmetry_space_group_name_H-M "P N M A"
_symmetry_group_IT_number 62
_symmetry_cell_setting 'orthorhombic'
loop_
_space_group_symop_operation_xyz
x,y,z
1/2-x,-y,1/2+z
1/2+x,1/2-y,1/2-z
-x,1/2+y,-z
-x,-y,-z
1/2+x,y,1/2-z
1/2-x,1/2+y,1/2+z
x,1/2-y,z
loop_
_atom_site_type_symbol
_atom_site_label
_atom_site_fract_x
_atom_site_fract_y
_atom_site_fract_z
Si Si1 0.441214 0.090005 0.956641
Si Si2 0.324469 0.587233 0.059697
Si Si3 0.292114 0.912201 0.466690
Si Si4 0.011794 0.750000 0.913641
Si Si5 0.081307 0.514360 0.069908
O O1 0.447490 0.250000 0.028847
O O2 0.436057 0.095612 0.747482
O O3 0.500000 0.000000 0.000000
O O4 0.382986 0.005682 0.019965
O O5 0.332114 0.750000 0.996959
O O6 0.313854 0.591985 0.266902
O O7 0.265891 0.511468 0.981088
O O8 0.277937 0.750000 0.521416
O O9 0.348724 0.973939 0.572089
O O10 0.063306 0.622507 0.917315
O O11 0.959065 0.626294 0.933845
#
# Coordination Sequence:
#
# PCOD9467137 Si02
#       5
#     8   8   8   4   8
#     4  12  28  45  68 100 140 176 224 281 336 403
#     4  11  27  45  70 100 133 177 225 277 337 399
#     4  11  25  46  70  98 137 175 226 277 332 404
#     4  10  24  40  70 102 138 178 224 274 334 398
#     4  11  24  43  70 100 140 176 230 273 337 397
#
# _framework density 22.495380999999998
#
# number of rings (size 3 to 8) (size 9 to 14) (size 15 to 20)
#    0.000    0.889    2.222    2.667   10.889    5.333 
#    0.000    0.000    0.000    0.000    0.000    0.000 
#    0.000    0.000    0.000    0.000    0.000    0.000 
#
# Total GULP energy -200617.112254 kJ/mol
# GULP energy per Si atom -5572.697563 kJ/mol
# Density = 2.244418 g / cm^3
# Si number density = 22.495381 Si / 1000 Ang^3
#
#
#
# Elastic Constant Matrix: (Units=GPa)
#
#
# Indices 1 2 3 4 5 6 
#
# 1 176.9853 96.4484 2.3401 0.0000 0.0000 0.0000
# 2 96.4484 207.5065 20.3588 0.0000 0.0000 0.0000
# 3 2.3401 20.3588 40.3418 0.0000 0.0000 0.0000
# 4 0.0000 0.0000 0.0000 50.8195 0.0000 0.0000
# 5 0.0000 0.0000 0.0000 0.0000 28.1275 0.0000
# 6 0.0000 0.0000 0.0000 0.0000 0.0000 32.4100
#
#
#
# Elastic Compliance Matrix: (Units=1/GPa)
#
#
# Indices 1 2 3 4 5 6 
#
# 1 0.007643 -0.003692 0.001420 0.000000 0.000000 0.000000
# 2 -0.003692 0.006853 -0.003244 0.000000 0.000000 0.000000
# 3 0.001420 -0.003244 0.026343 0.000000 0.000000 0.000000
# 4 0.000000 0.000000 0.000000 0.019677 0.000000 0.000000
# 5 0.000000 0.000000 0.000000 0.000000 0.035552 0.000000
# 6 0.000000 0.000000 0.000000 0.000000 0.000000 0.030855
#
#
# Mechanical properties :
#
#
# Convention : Reuss Voigt Hill
#
# Bulk Modulus (GPa) = 33.54950 73.68091 53.61521
# Shear Modulus (GPa) = 33.80819 42.65049 38.22934
#
# Velocity S-wave (km/s) = 3.88092 4.35899 4.12689
# Velocity P-wave (km/s) = 5.91848 7.62623 6.82597
#
# Compressibility (1/GPa) = 0.02980670
#
# Stress axis : x y z
#
# Youngs Moduli (GPa) = 130.83335 145.91256 37.96055
#
# Poissons Ratio (x) = 0.53869 -0.05390
# Poissons Ratio (y) = 0.48302 0.12316
# Poissons Ratio (z) = -0.18575 0.47341
#
# Static dielectric constant tensor:
#      x y z
#    x 1.766490 0.000000 0.000000 
#    y 0.000000 1.792080 0.000000 
#    z 0.000000 0.000000 1.982830 
# 
# From -- ./inp_files/8306.got.cif
#   From: 2010.05.17/outbox.cif.g08.bks.cpg/sg62_5_cif.got.tgz:8306.got - 2010.06.03 15:25:27.
