data_PCOD9467554
_publ_section_title
;
Structure prediction by ZEFSAII (Michael W. Deem and Ramdas Pophale) SiO2 
 PCOD9467554
Probable space group: P N M A
;
_chemical_formula_sum "Si O2"
_cell_formula_units_Z 40
_cell_length_a 7.789055
_cell_length_b 26.443815
_cell_length_c 8.378096
_cell_angle_alpha 90.000000
_cell_angle_beta 90.000000
_cell_angle_gamma 90.000000
_cell_volume 1725.655949
_symmetry_space_group_name_H-M "P N M A"
_symmetry_group_IT_number 62
_symmetry_cell_setting 'orthorhombic'
loop_
_space_group_symop_operation_xyz
x,y,z
1/2-x,-y,1/2+z
1/2+x,1/2-y,1/2-z
-x,1/2+y,-z
-x,-y,-z
1/2+x,y,1/2-z
1/2-x,1/2+y,1/2+z
x,1/2-y,z
loop_
_atom_site_type_symbol
_atom_site_label
_atom_site_fract_x
_atom_site_fract_y
_atom_site_fract_z
Si Si1 0.134148 0.948902 0.331741
Si Si2 0.760433 0.849971 0.002856
Si Si3 0.869365 0.350359 0.164622
Si Si4 0.264780 0.550203 0.997906
Si Si5 0.870245 0.250000 0.663009
Si Si6 0.741976 0.250000 0.002285
O O1 0.232633 0.898732 0.387704
O O2 0.128532 0.951853 0.141235
O O3 0.947830 0.946077 0.412828
O O4 0.226307 0.999464 0.394833
O O5 0.626662 0.850755 0.855696
O O6 0.945274 0.849966 0.918702
O O7 0.727401 0.800090 0.105233
O O8 0.773934 0.401106 0.108219
O O9 0.773083 0.299817 0.106703
O O10 0.874305 0.250000 0.854075
O O11 0.055865 0.250000 0.579862
#
# Coordination Sequence:
#
# PCOD9467554 Si02
#       6
#     8   8   8   8   4   4
#     4  11  24  42  65  94 128 167 211 259 313 372
#     4  12  25  43  66  94 128 166 210 259 314 373
#     4  12  25  43  66  94 128 166 210 259 314 373
#     4  11  24  42  65  94 128 167 211 259 313 372
#     4  12  25  44  67  94 128 166 210 258 313 372
#     4  12  25  44  67  94 128 166 210 258 313 372
#
# _framework density 23.179592
#
# number of rings (size 3 to 8) (size 9 to 14) (size 15 to 20)
#    0.000    0.400    0.000    9.600    0.000    6.400 
#    0.000    0.000    0.000    0.000    0.000    0.000 
#    0.000    0.000    0.000    0.000    0.000    0.000 
#
# Total GULP energy -224413.650665 kJ/mol
# GULP energy per Si atom -5610.341267 kJ/mol
# Density = 2.312683 g / cm^3
# Si number density = 23.179592 Si / 1000 Ang^3
#
#
#
# Elastic Constant Matrix: (Units=GPa)
#
#
# Indices 1 2 3 4 5 6 
#
# 1 72.5476 15.9061 -34.9461 0.0000 0.0000 0.0000
# 2 15.9061 189.9614 36.1171 0.0000 0.0000 0.0000
# 3 -34.9461 36.1171 82.7481 0.0000 0.0000 0.0000
# 4 0.0000 0.0000 0.0000 39.7192 0.0000 0.0000
# 5 0.0000 0.0000 0.0000 0.0000 38.0832 0.0000
# 6 0.0000 0.0000 0.0000 0.0000 0.0000 7.1673
#
#
#
# Elastic Compliance Matrix: (Units=1/GPa)
#
#
# Indices 1 2 3 4 5 6 
#
# 1 0.019151 -0.003426 0.009583 0.000000 0.000000 0.000000
# 2 -0.003426 0.006353 -0.004220 0.000000 0.000000 0.000000
# 3 0.009583 -0.004220 0.017974 0.000000 0.000000 0.000000
# 4 0.000000 0.000000 0.000000 0.025177 0.000000 0.000000
# 5 0.000000 0.000000 0.000000 0.000000 0.026258 0.000000
# 6 0.000000 0.000000 0.000000 0.000000 0.000000 0.139522
#
#
# Mechanical properties :
#
#
# Convention : Reuss Voigt Hill
#
# Bulk Modulus (GPa) = 21.11752 42.15682 31.63717
# Shear Modulus (GPa) = 20.29677 38.87261 29.58469
#
# Velocity S-wave (km/s) = 2.96232 4.09958 3.57644
# Velocity P-wave (km/s) = 4.56405 6.37458 5.54373
#
# Compressibility (1/GPa) = 0.04735405
#
# Stress axis : x y z
#
# Youngs Moduli (GPa) = 52.21568 157.39685 55.63643
#
# Poissons Ratio (x) = 0.53919 -0.53317
# Poissons Ratio (y) = 0.17887 0.23477
# Poissons Ratio (z) = -0.50039 0.66418
#
# Static dielectric constant tensor:
#      x y z
#    x 1.918490 0.000000 0.000000 
#    y 0.000000 1.809340 0.000000 
#    z 0.000000 0.000000 1.796860 
# 
# From -- ./inp_files/4332.got.cif
#   From: 2010.05.17/outbox.cif.g08.bks.cpg/sg62_3_cif.got.tgz:4332.got - 2010.06.03 15:25:27.
