data_PCOD9467751
_publ_section_title
;
Structure prediction by ZEFSAII (Michael W. Deem and Ramdas Pophale) SiO2 
 PCOD9467751
Probable space group: P N M A
;
_chemical_formula_sum "Si O2"
_cell_formula_units_Z 48
_cell_length_a 13.579277
_cell_length_b 18.985229
_cell_length_c 7.627972
_cell_angle_alpha 90.000000
_cell_angle_beta 90.000000
_cell_angle_gamma 90.000000
_cell_volume 1966.534535
_symmetry_space_group_name_H-M "P N M A"
_symmetry_group_IT_number 62
_symmetry_cell_setting 'orthorhombic'
loop_
_space_group_symop_operation_xyz
x,y,z
1/2-x,-y,1/2+z
1/2+x,1/2-y,1/2-z
-x,1/2+y,-z
-x,-y,-z
1/2+x,y,1/2-z
1/2-x,1/2+y,1/2+z
x,1/2-y,z
loop_
_atom_site_type_symbol
_atom_site_label
_atom_site_fract_x
_atom_site_fract_y
_atom_site_fract_z
Si Si1 0.044458 0.585940 0.589552
Si Si2 0.344186 0.956687 0.737009
Si Si3 0.540266 0.587411 0.331912
Si Si4 0.220120 0.827473 0.588982
Si Si5 0.161375 0.453844 0.751460
Si Si6 0.779747 0.327703 0.837158
O O1 0.043871 0.588740 0.380017
O O2 0.109166 0.652490 0.647070
O O3 0.103110 0.516838 0.655635
O O4 0.935456 0.577410 0.660821
O O5 0.286195 0.891714 0.653993
O O6 0.401074 0.016223 0.619781
O O7 0.258777 0.006343 0.826085
O O8 0.424045 0.584814 0.365384
O O9 0.610101 0.650291 0.395550
O O10 0.249556 0.750000 0.650549
O O11 0.221362 0.826416 0.376402
O O12 0.206327 0.392386 0.627379
O O13 0.752071 0.250000 0.899774
#
# Coordination Sequence:
#
# PCOD9467751 Si02
#       6
#     8   8   8   8   8   8
#     4   9  17  31  50  70  93 120 154 194 230 270
#     4   9  16  27  46  70  91 116 150 190 231 268
#     4   9  17  31  50  70  93 120 154 194 230 270
#     4   9  18  31  46  66  92 122 155 189 228 275
#     4   9  16  27  46  70  91 116 150 190 231 268
#     4   9  18  31  46  66  92 122 155 189 228 275
#
# _framework density 24.40842
#
# number of rings (size 3 to 8) (size 9 to 14) (size 15 to 20)
#    0.000    3.000    0.000    2.000    0.000    2.667 
#    0.000    3.333    0.000    7.000    0.000    0.000 
#    0.000    0.000    0.000    0.000    0.000    0.000 
#
# Total GULP energy -267883.636506 kJ/mol
# GULP energy per Si atom -5580.909094 kJ/mol
# Density = 2.435287 g / cm^3
# Si number density = 24.408420 Si / 1000 Ang^3
#
#
#
# Elastic Constant Matrix: (Units=GPa)
#
#
# Indices 1 2 3 4 5 6 
#
# 1 203.6959 62.3545 23.9804 0.0000 0.0000 0.0000
# 2 62.3545 150.5459 15.1155 0.0000 0.0000 0.0000
# 3 23.9804 15.1155 38.8285 0.0000 0.0000 0.0000
# 4 0.0000 0.0000 0.0000 20.2845 0.0000 0.0000
# 5 0.0000 0.0000 0.0000 0.0000 27.3880 0.0000
# 6 0.0000 0.0000 0.0000 0.0000 0.0000 29.4141
#
#
#
# Elastic Compliance Matrix: (Units=1/GPa)
#
#
# Indices 1 2 3 4 5 6 
#
# 1 0.005901 -0.002163 -0.002803 0.000000 0.000000 0.000000
# 2 -0.002163 0.007705 -0.001664 0.000000 0.000000 0.000000
# 3 -0.002803 -0.001664 0.028133 0.000000 0.000000 0.000000
# 4 0.000000 0.000000 0.000000 0.049299 0.000000 0.000000
# 5 0.000000 0.000000 0.000000 0.000000 0.036512 0.000000
# 6 0.000000 0.000000 0.000000 0.000000 0.000000 0.033997
#
#
# Mechanical properties :
#
#
# Convention : Reuss Voigt Hill
#
# Bulk Modulus (GPa) = 35.11125 66.21901 50.66513
# Shear Modulus (GPa) = 27.12960 34.85862 30.99411
#
# Velocity S-wave (km/s) = 3.33751 3.78317 3.56731
# Velocity P-wave (km/s) = 5.41000 6.80233 6.14572
#
# Compressibility (1/GPa) = 0.02848090
#
# Stress axis : x y z
#
# Youngs Moduli (GPa) = 169.45395 129.77939 35.54551
#
# Poissons Ratio (x) = 0.28069 0.09962
# Poissons Ratio (y) = 0.36650 0.05914
# Poissons Ratio (z) = 0.47492 0.21593
#
# Static dielectric constant tensor:
#      x y z
#    x 1.955090 0.000000 0.000000 
#    y 0.000000 1.930770 0.000000 
#    z 0.000000 0.000000 2.133440 
# 
# From -- ./inp_files/12366.got.cif
#   From: 2010.05.17/outbox.cif.g08.bks.cpg/sg62_7_cif.got.tgz:12366.got - 2010.06.03 15:25:27.
