data_PCOD9467339
_publ_section_title
;
Structure prediction by ZEFSAII (Michael W. Deem and Ramdas Pophale) SiO2 
 PCOD9467339
Probable space group: P N M A
;
_chemical_formula_sum "Si O2"
_cell_formula_units_Z 64
_cell_length_a 9.872073
_cell_length_b 22.106295
_cell_length_c 16.497124
_cell_angle_alpha 90.000000
_cell_angle_beta 90.000000
_cell_angle_gamma 90.000000
_cell_volume 3600.249163
_symmetry_space_group_name_H-M "P N M A"
_symmetry_group_IT_number 62
_symmetry_cell_setting 'orthorhombic'
loop_
_space_group_symop_operation_xyz
x,y,z
1/2-x,-y,1/2+z
1/2+x,1/2-y,1/2-z
-x,1/2+y,-z
-x,-y,-z
1/2+x,y,1/2-z
1/2-x,1/2+y,1/2+z
x,1/2-y,z
loop_
_atom_site_type_symbol
_atom_site_label
_atom_site_fract_x
_atom_site_fract_y
_atom_site_fract_z
Si Si1 0.680100 0.600711 0.910098
Si Si2 0.005983 0.474432 0.814747
Si Si3 0.237392 0.468345 0.941774
Si Si4 0.943674 0.617561 0.814987
Si Si5 0.849062 0.178747 0.061141
Si Si6 0.703429 0.921675 0.439628
Si Si7 0.553667 0.178599 0.139602
Si Si8 0.538153 0.472271 0.872853
O O1 0.788722 0.621809 0.844192
O O2 0.560438 0.648712 0.916725
O O3 0.613991 0.536798 0.882910
O O4 0.758854 0.585844 0.993181
O O5 0.981761 0.546742 0.815923
O O6 0.883177 0.442615 0.862270
O O7 0.140781 0.459673 0.865528
O O8 0.019200 0.457120 0.721191
O O9 0.392109 0.477518 0.914265
O O10 0.185399 0.527033 0.990885
O O11 0.957917 0.645188 0.725862
O O12 0.038851 0.652554 0.877973
O O13 0.868743 0.250000 0.048582
O O14 0.702448 0.168980 0.102959
O O15 0.845395 0.140479 0.978534
O O16 0.861587 0.924907 0.415975
O O17 0.531760 0.250000 0.149805
#
# Coordination Sequence:
#
# PCOD9467339 Si02
#       8
#     8   8   8   8   8   8   8   8
#     4  11  22  36  56  81 114 155 187 234 274 325
#     4  12  22  35  56  87 117 150 180 237 291 343
#     4  11  21  34  55  82 113 149 188 233 283 335
#     4  12  22  35  55  84 121 152 189 225 277 338
#     4  11  24  40  59  79 109 155 197 233 274 333
#     4  11  21  38  56  82 114 144 188 235 287 339
#     4  11  24  39  56  81 117 160 196 225 266 334
#     4  11  22  34  56  86 114 146 184 232 291 339
#
# _framework density 17.776547000000001
#
# number of rings (size 3 to 8) (size 9 to 14) (size 15 to 20)
#    0.000    0.750    5.000    6.000    0.000    2.000 
#    0.000    0.000    0.000    0.750    0.000    1.750 
#    0.000    0.000    0.000    0.000    0.000    0.000 
#
# Total GULP energy -357823.504952 kJ/mol
# GULP energy per Si atom -5590.992265 kJ/mol
# Density = 1.773609 g / cm^3
# Si number density = 17.776547 Si / 1000 Ang^3
#
#
#
# Elastic Constant Matrix: (Units=GPa)
#
#
# Indices 1 2 3 4 5 6 
#
# 1 45.4061 11.6677 -10.5953 0.0000 0.0000 0.0000
# 2 11.6677 72.9975 23.2156 0.0000 0.0000 0.0000
# 3 -10.5953 23.2156 76.0535 0.0000 0.0000 0.0000
# 4 0.0000 0.0000 0.0000 14.7529 0.0000 0.0000
# 5 0.0000 0.0000 0.0000 0.0000 30.3938 0.0000
# 6 0.0000 0.0000 0.0000 0.0000 0.0000 16.4687
#
#
#
# Elastic Compliance Matrix: (Units=1/GPa)
#
#
# Indices 1 2 3 4 5 6 
#
# 1 0.024654 -0.005574 0.005136 0.000000 0.000000 0.000000
# 2 -0.005574 0.016432 -0.005793 0.000000 0.000000 0.000000
# 3 0.005136 -0.005793 0.015632 0.000000 0.000000 0.000000
# 4 0.000000 0.000000 0.000000 0.067783 0.000000 0.000000
# 5 0.000000 0.000000 0.000000 0.000000 0.032901 0.000000
# 6 0.000000 0.000000 0.000000 0.000000 0.000000 0.060721
#
#
# Mechanical properties :
#
#
# Convention : Reuss Voigt Hill
#
# Bulk Modulus (GPa) = 22.59481 27.00368 24.79924
# Shear Modulus (GPa) = 20.38000 23.66770 22.02385
#
# Velocity S-wave (km/s) = 3.38961 3.65279 3.52366
# Velocity P-wave (km/s) = 5.29691 5.74579 5.52591
#
# Compressibility (1/GPa) = 0.04425796
#
# Stress axis : x y z
#
# Youngs Moduli (GPa) = 40.56088 60.85590 63.96978
#
# Poissons Ratio (x) = 0.33922 -0.32856
# Poissons Ratio (y) = 0.22609 0.37055
# Poissons Ratio (z) = -0.20833 0.35251
#
# Static dielectric constant tensor:
#      x y z
#    x 1.626600 0.000000 0.000000 
#    y 0.000000 1.589510 0.000000 
#    z 0.000000 0.000000 1.602110 
# 
# From -- ./inp_files/17343.got.cif
#   From: 2010.05.17/outbox.cif.g08.bks.cpg/sg62_9_cif.got.tgz:17343.got - 2010.06.03 15:25:27.
