data_PCOD9467448
_publ_section_title
;
Structure prediction by ZEFSAII (Michael W. Deem and Ramdas Pophale) SiO2 
 PCOD9467448
Probable space group: P N M A
;
_chemical_formula_sum "Si O2"
_cell_formula_units_Z 48
_cell_length_a 8.703133
_cell_length_b 28.007858
_cell_length_c 9.540413
_cell_angle_alpha 90.000000
_cell_angle_beta 90.000000
_cell_angle_gamma 90.000000
_cell_volume 2325.533991
_symmetry_space_group_name_H-M "P N M A"
_symmetry_group_IT_number 62
_symmetry_cell_setting 'orthorhombic'
loop_
_space_group_symop_operation_xyz
x,y,z
1/2-x,-y,1/2+z
1/2+x,1/2-y,1/2-z
-x,1/2+y,-z
-x,-y,-z
1/2+x,y,1/2-z
1/2-x,1/2+y,1/2+z
x,1/2-y,z
loop_
_atom_site_type_symbol
_atom_site_label
_atom_site_fract_x
_atom_site_fract_y
_atom_site_fract_z
Si Si1 0.415424 0.995018 0.648897
Si Si2 0.518762 0.385898 0.344294
Si Si3 0.516552 0.194021 0.849946
Si Si4 0.304618 0.859451 0.375580
Si Si5 0.626935 0.055541 0.838010
Si Si6 0.166714 0.132392 0.433268
O O1 0.444006 0.940911 0.691712
O O2 0.500000 0.000000 0.500000
O O3 0.483818 0.031263 0.762991
O O4 0.242141 0.012204 0.630931
O O5 0.627988 0.372709 0.474062
O O6 0.566089 0.358390 0.204269
O O7 0.342604 0.378129 0.390092
O O8 0.488496 0.250000 0.856933
O O9 0.362524 0.164090 0.880721
O O10 0.580611 0.177677 0.699746
O O11 0.644791 0.176455 0.960928
O O12 0.307153 0.906112 0.275106
O O13 0.606496 0.086617 0.977830
#
# Coordination Sequence:
#
# PCOD9467448 Si02
#       6
#     8   8   8   8   8   8
#     4  12  23  39  61  94 131 168 229 253 298 369
#     4  12  24  42  63  97 133 174 212 266 317 373
#     4  11  24  44  70  98 122 163 213 264 325 400
#     4  11  22  42  69  94 132 161 211 264 324 377
#     4  11  22  41  61  92 127 177 210 262 303 369
#     4  11  24  42  64  92 132 170 212 264 332 374
#
# _framework density 20.640422000000001
#
# number of rings (size 3 to 8) (size 9 to 14) (size 15 to 20)
#    0.000    0.667    3.333    6.500    0.000    0.667 
#    0.000    5.000    0.000    0.000    0.000    0.000 
#    0.000    0.000    0.000    0.000    0.000    0.000 
#
# Total GULP energy -268463.772286 kJ/mol
# GULP energy per Si atom -5592.995256 kJ/mol
# Density = 2.059344 g / cm^3
# Si number density = 20.640422 Si / 1000 Ang^3
#
#
#
# Elastic Constant Matrix: (Units=GPa)
#
#
# Indices 1 2 3 4 5 6 
#
# 1 75.1363 32.4554 37.1322 0.0000 0.0000 0.0000
# 2 32.4554 92.3269 12.3103 0.0000 0.0000 0.0000
# 3 37.1322 12.3103 113.3924 0.0000 0.0000 0.0000
# 4 0.0000 0.0000 0.0000 7.9438 0.0000 0.0000
# 5 0.0000 0.0000 0.0000 0.0000 28.6191 0.0000
# 6 0.0000 0.0000 0.0000 0.0000 0.0000 24.6748
#
#
#
# Elastic Compliance Matrix: (Units=1/GPa)
#
#
# Indices 1 2 3 4 5 6 
#
# 1 0.018485 -0.005775 -0.005426 0.000000 0.000000 0.000000
# 2 -0.005775 0.012794 0.000502 0.000000 0.000000 0.000000
# 3 -0.005426 0.000502 0.010541 0.000000 0.000000 0.000000
# 4 0.000000 0.000000 0.000000 0.125884 0.000000 0.000000
# 5 0.000000 0.000000 0.000000 0.000000 0.034942 0.000000
# 6 0.000000 0.000000 0.000000 0.000000 0.000000 0.040527
#
#
# Mechanical properties :
#
#
# Convention : Reuss Voigt Hill
#
# Bulk Modulus (GPa) = 48.96484 49.40570 49.18527
# Shear Modulus (GPa) = 18.42443 25.51139 21.96791
#
# Velocity S-wave (km/s) = 2.99095 3.51948 3.26592
# Velocity P-wave (km/s) = 5.97511 6.36428 6.17276
#
# Compressibility (1/GPa) = 0.02042282
#
# Stress axis : x y z
#
# Youngs Moduli (GPa) = 54.09746 78.16136 94.86414
#
# Poissons Ratio (x) = 0.45134 0.51477
# Poissons Ratio (y) = 0.31239 -0.04762
# Poissons Ratio (z) = 0.29355 -0.03924
#
# Static dielectric constant tensor:
#      x y z
#    x 1.799960 0.000000 0.000000 
#    y 0.000000 1.726640 0.000000 
#    z 0.000000 0.000000 1.729750 
# 
# From -- ./inp_files/4502.got.cif
#   From: 2010.05.17/outbox.cif.g08.bks.cpg/sg62_3_cif.got.tgz:4502.got - 2010.06.03 15:25:27.
