data_PCOD9467824
_publ_section_title
;
Structure prediction by ZEFSAII (Michael W. Deem and Ramdas Pophale) SiO2 
 PCOD9467824
Probable space group: P N M A
;
_chemical_formula_sum "Si O2"
_cell_formula_units_Z 56
_cell_length_a 15.000000
_cell_length_b 9.000000
_cell_length_c 21.000000
_cell_angle_alpha 90.000000
_cell_angle_beta 90.000000
_cell_angle_gamma 90.000000
_cell_volume 2835.000000
_symmetry_space_group_name_H-M "P N M A"
_symmetry_group_IT_number 62
_symmetry_cell_setting 'orthorhombic'
loop_
_space_group_symop_operation_xyz
x,y,z
1/2-x,-y,1/2+z
1/2+x,1/2-y,1/2-z
-x,1/2+y,-z
-x,-y,-z
1/2+x,y,1/2-z
1/2-x,1/2+y,1/2+z
x,1/2-y,z
loop_
_atom_site_type_symbol
_atom_site_label
_atom_site_fract_x
_atom_site_fract_y
_atom_site_fract_z
Si Si1 0.668060 0.074749 0.628002
Si Si2 0.984835 0.431593 0.930796
Si Si3 0.794446 0.074053 0.882768
Si Si4 0.338590 0.926020 0.224625
Si Si5 0.643072 0.571027 0.091727
Si Si6 0.120209 0.425954 0.539396
Si Si7 0.510732 0.572893 0.845193
O O1 0.665597 0.250000 0.612392
O O2 0.570867 0.019121 0.609642
O O3 0.686400 0.061927 0.702457
O O4 0.755183 0.014878 0.593421
O O5 0.981573 0.250000 0.934399
O O6 0.891379 0.484920 0.900660
O O7 0.000000 0.500000 0.000000
O O8 0.806467 0.250000 0.871064
O O9 0.740445 0.017090 0.821212
O O10 0.723871 0.058333 0.940118
O O11 0.354336 0.750000 0.209303
O O12 0.429487 0.015000 0.212767
O O13 0.639273 0.750000 0.094285
O O14 0.585811 0.501603 0.148833
O O15 0.603923 0.509102 0.026178
O O16 0.099389 0.250000 0.535935
O O17 0.065487 0.504333 0.595298
O O18 0.505867 0.750000 0.848222
#
# Coordination Sequence:
#
# PCOD9467824 Si02
#       7
#     8   8   8   8   8   8   8
#     4   9  20  35  56  82 109 140 181 226 268 315
#     4  10  19  34  54  81 110 141 179 222 268 322
#     4   8  16  30  53  77 102 136 175 214 262 317
#     4   9  18  37  58  79 105 139 180 223 268 322
#     4  11  21  34  52  79 110 142 176 218 268 320
#     4  10  19  34  54  79 108 142 179 219 265 321
#     4  11  22  36  54  79 108 142 178 220 268 321
#
# _framework density 19.753086
#
# number of rings (size 3 to 8) (size 9 to 14) (size 15 to 20)
#    0.000    2.286    0.000    4.286    0.000    1.143 
#    0.000   10.000    0.000    0.000    0.000    0.000 
#    0.000    0.000    0.000    0.000    0.000    0.000 
#
# Total GULP energy -312192.862010 kJ/mol
# GULP energy per Si atom -5574.872536 kJ/mol
# Density = 1.970813 g / cm^3
# Si number density = 19.753086 Si / 1000 Ang^3
#
#
#
# Elastic Constant Matrix: (Units=GPa)
#
#
# Indices 1 2 3 4 5 6 
#
# 1 105.4204 15.5170 28.4229 0.0000 0.0000 0.0000
# 2 15.5170 66.3656 10.6544 0.0000 0.0000 0.0000
# 3 28.4229 10.6544 2.3998 0.0000 0.0000 0.0000
# 4 0.0000 0.0000 0.0000 20.6251 0.0000 0.0000
# 5 0.0000 0.0000 0.0000 0.0000 14.9579 0.0000
# 6 0.0000 0.0000 0.0000 0.0000 0.0000 17.0247
#
#
#
# Elastic Compliance Matrix: (Units=1/GPa)
#
#
# Indices 1 2 3 4 5 6 
#
# 1 -0.001144 -0.006645 0.043055 0.000000 0.000000 0.000000
# 2 -0.006645 0.013882 0.017066 0.000000 0.000000 0.000000
# 3 0.043055 0.017066 -0.169009 0.000000 0.000000 0.000000
# 4 0.000000 0.000000 0.000000 0.048485 0.000000 0.000000
# 5 0.000000 0.000000 0.000000 0.000000 0.066854 0.000000
# 6 0.000000 0.000000 0.000000 0.000000 0.000000 0.058738
#
#
# Mechanical properties :
#
#
# Convention : Reuss Voigt Hill
#
# Bulk Modulus (GPa) = -20.27655 31.48605 5.60475
# Shear Modulus (GPa) = -47.35379 18.49431 -14.42974
#
# Velocity S-wave (km/s) = -4.90152 3.06318 -2.70572
# Velocity P-wave (km/s) = 6.50542 5.33715 2.63014
#
# Compressibility (1/GPa) = -0.04931806
#
# Stress axis : x y z
#
# Youngs Moduli (GPa) = -873.75706 72.03678 -5.91684
#
# Poissons Ratio (x) = 0.47865 0.25475
# Poissons Ratio (y) = -5.80575 0.10098
# Poissons Ratio (z) = 37.61990 -1.22939
#
# Static dielectric constant tensor:
#      x y z
#    x 1.751910 0.000000 0.000000 
#    y 0.000000 1.652680 0.000000 
#    z 0.000000 0.000000 1.985320 
# 
# From -- ./inp_files/27083.got.cif
#   From: 2010.05.17/outbox.ucp.g08.bks.cvg/sg62_14_cif.got.tgz:27083.got - 2010.06.11 16:29:25.
