data_PCOD9467256
_publ_section_title
;
Structure prediction by ZEFSAII (Michael W. Deem and Ramdas Pophale) SiO2 
 PCOD9467256
Probable space group: P N M A
;
_chemical_formula_sum "Si O2"
_cell_formula_units_Z 32
_cell_length_a 8.128225
_cell_length_b 14.127115
_cell_length_c 11.761438
_cell_angle_alpha 90.000000
_cell_angle_beta 90.000000
_cell_angle_gamma 90.000000
_cell_volume 1350.546746
_symmetry_space_group_name_H-M "P N M A"
_symmetry_group_IT_number 62
_symmetry_cell_setting 'orthorhombic'
loop_
_space_group_symop_operation_xyz
x,y,z
1/2-x,-y,1/2+z
1/2+x,1/2-y,1/2-z
-x,1/2+y,-z
-x,-y,-z
1/2+x,y,1/2-z
1/2-x,1/2+y,1/2+z
x,1/2-y,z
loop_
_atom_site_type_symbol
_atom_site_label
_atom_site_fract_x
_atom_site_fract_y
_atom_site_fract_z
Si Si1 0.186573 0.250000 0.157537
Si Si2 0.354479 0.579434 0.080022
Si Si3 0.474262 0.141722 0.713522
Si Si4 0.431266 0.750000 0.910729
Si Si5 0.859371 0.920330 0.998778
O O1 0.165883 0.250000 0.292031
O O2 0.376681 0.250000 0.120698
O O3 0.110430 0.343133 0.098851
O O4 0.489865 0.576201 0.178941
O O5 0.305768 0.478311 0.028165
O O6 0.192845 0.616876 0.148408
O O7 0.390191 0.657729 0.985211
O O8 0.471509 0.250000 0.753207
O O9 0.619782 0.129700 0.620105
O O10 0.000000 0.000000 0.000000
#
# Coordination Sequence:
#
# PCOD9467256 Si02
#       5
#     4   8   8   4   8
#     4  12  30  49  77 112 154 207 248 322 382 455
#     4  11  26  45  74 111 145 199 248 317 373 457
#     4  11  21  43  74 100 150 189 253 308 378 431
#     4  12  30  47  77 108 164 197 260 306 394 455
#     4  10  26  46  77 107 153 197 258 306 382 448
#
# _framework density 23.694108
#
# number of rings (size 3 to 8) (size 9 to 14) (size 15 to 20)
#    0.000    1.000    3.750    0.000   14.000    3.000 
#    0.000    0.000    0.000    0.000    0.000    0.000 
#    0.000    0.000    0.000    0.000    0.000    0.000 
#
# Total GULP energy -179295.597789 kJ/mol
# GULP energy per Si atom -5602.987431 kJ/mol
# Density = 2.364018 g / cm^3
# Si number density = 23.694108 Si / 1000 Ang^3
#
#
#
# Elastic Constant Matrix: (Units=GPa)
#
#
# Indices 1 2 3 4 5 6 
#
# 1 93.2258 30.7677 50.6544 0.0000 0.0000 0.0000
# 2 30.7677 112.0637 45.7968 0.0000 0.0000 0.0000
# 3 50.6544 45.7968 183.8123 0.0000 0.0000 0.0000
# 4 0.0000 0.0000 0.0000 42.6366 0.0000 0.0000
# 5 0.0000 0.0000 0.0000 0.0000 51.6042 0.0000
# 6 0.0000 0.0000 0.0000 0.0000 0.0000 45.2456
#
#
#
# Elastic Compliance Matrix: (Units=1/GPa)
#
#
# Indices 1 2 3 4 5 6 
#
# 1 0.013159 -0.002372 -0.003035 0.000000 0.000000 0.000000
# 2 -0.002372 0.010363 -0.001928 0.000000 0.000000 0.000000
# 3 -0.003035 -0.001928 0.006757 0.000000 0.000000 0.000000
# 4 0.000000 0.000000 0.000000 0.023454 0.000000 0.000000
# 5 0.000000 0.000000 0.000000 0.000000 0.019378 0.000000
# 6 0.000000 0.000000 0.000000 0.000000 0.000000 0.022102
#
#
# Mechanical properties :
#
#
# Convention : Reuss Voigt Hill
#
# Bulk Modulus (GPa) = 64.07246 71.50439 67.78842
# Shear Modulus (GPa) = 43.44558 45.35614 44.40086
#
# Velocity S-wave (km/s) = 4.28670 4.37995 4.33358
# Velocity P-wave (km/s) = 7.18341 7.47143 7.32883
#
# Compressibility (1/GPa) = 0.01560733
#
# Stress axis : x y z
#
# Youngs Moduli (GPa) = 75.99480 96.49887 147.99160
#
# Poissons Ratio (x) = 0.22894 0.44918
# Poissons Ratio (y) = 0.18029 0.28534
# Poissons Ratio (z) = 0.23066 0.18606
#
# Static dielectric constant tensor:
#      x y z
#    x 2.015790 0.000000 0.000000 
#    y 0.000000 1.618570 0.000000 
#    z 0.000000 0.000000 1.861540 
# 
# From -- ./inp_files/10997.got.cif
#   From: 2010.05.17/outbox.cif.g08.bks.cpg/sg62_6_cif.got.tgz:10997.got - 2010.06.03 15:25:27.
