data_PCOD9467456
_publ_section_title
;
Structure prediction by ZEFSAII (Michael W. Deem and Ramdas Pophale) SiO2 
 PCOD9467456
Probable space group: P N M A
;
_chemical_formula_sum "Si O2"
_cell_formula_units_Z 40
_cell_length_a 11.135294
_cell_length_b 20.082018
_cell_length_c 7.686937
_cell_angle_alpha 90.000000
_cell_angle_beta 90.000000
_cell_angle_gamma 90.000000
_cell_volume 1718.946507
_symmetry_space_group_name_H-M "P N M A"
_symmetry_group_IT_number 62
_symmetry_cell_setting 'orthorhombic'
loop_
_space_group_symop_operation_xyz
x,y,z
1/2-x,-y,1/2+z
1/2+x,1/2-y,1/2-z
-x,1/2+y,-z
-x,-y,-z
1/2+x,y,1/2-z
1/2-x,1/2+y,1/2+z
x,1/2-y,z
loop_
_atom_site_type_symbol
_atom_site_label
_atom_site_fract_x
_atom_site_fract_y
_atom_site_fract_z
Si Si1 0.114401 0.014713 0.887623
Si Si2 0.594609 0.750000 0.662479
Si Si3 0.716080 0.620551 0.108488
Si Si4 0.686344 0.250000 0.441757
Si Si5 0.787443 0.117861 0.024378
Si Si6 0.032801 0.422784 0.541374
O O1 0.222389 0.055114 0.974202
O O2 0.074696 0.065050 0.738523
O O3 0.161771 0.941007 0.855211
O O4 0.000000 0.000000 0.000000
O O5 0.691535 0.750000 0.823664
O O6 0.445988 0.750000 0.654698
O O7 0.640689 0.815771 0.563841
O O8 0.697814 0.607332 0.315619
O O9 0.582711 0.623451 0.031574
O O10 0.795860 0.684302 0.061057
O O11 0.644038 0.111957 0.055019
O O12 0.000000 0.500000 0.500000
#
# Coordination Sequence:
#
# PCOD9467456 Si02
#       6
#     8   4   8   4   8   8
#     4  11  22  42  70 104 142 185 243 302 363 431
#     4  12  31  52  72 108 144 204 247 316 374 444
#     4  11  25  47  70 104 141 195 238 304 368 443
#     4  12  31  50  74 102 150 190 253 306 378 450
#     4  11  25  45  73 102 148 190 246 303 369 443
#     4  11  24  40  72 109 142 185 244 303 367 436
#
# _framework density 23.270066
#
# number of rings (size 3 to 8) (size 9 to 14) (size 15 to 20)
#    0.000    0.800    4.000    1.800    8.400    1.600 
#    0.000    0.000    0.000    0.000    0.000    0.000 
#    0.000    0.000    0.000    0.000    0.000    0.000 
#
# Total GULP energy -223006.836699 kJ/mol
# GULP energy per Si atom -5575.170917 kJ/mol
# Density = 2.321710 g / cm^3
# Si number density = 23.270066 Si / 1000 Ang^3
#
#
#
# Elastic Constant Matrix: (Units=GPa)
#
#
# Indices 1 2 3 4 5 6 
#
# 1 161.6540 48.9958 19.2075 0.0000 0.0000 0.0000
# 2 48.9958 137.0629 6.2966 0.0000 0.0000 0.0000
# 3 19.2075 6.2966 59.2768 0.0000 0.0000 0.0000
# 4 0.0000 0.0000 0.0000 29.4824 0.0000 0.0000
# 5 0.0000 0.0000 0.0000 0.0000 29.0892 0.0000
# 6 0.0000 0.0000 0.0000 0.0000 0.0000 -79.2293
#
#
#
# Elastic Compliance Matrix: (Units=1/GPa)
#
#
# Indices 1 2 3 4 5 6 
#
# 1 0.007181 -0.002472 -0.002064 0.000000 0.000000 0.000000
# 2 -0.002472 0.008183 -0.000068 0.000000 0.000000 0.000000
# 3 -0.002064 -0.000068 0.017546 0.000000 0.000000 0.000000
# 4 0.000000 0.000000 0.000000 0.033919 0.000000 0.000000
# 5 0.000000 0.000000 0.000000 0.000000 0.034377 0.000000
# 6 0.000000 0.000000 0.000000 0.000000 0.000000 -0.012622
#
#
# Mechanical properties :
#
#
# Convention : Reuss Voigt Hill
#
# Bulk Modulus (GPa) = 42.19283 56.33262 49.26273
# Shear Modulus (GPa) = 47.30714 14.76804 31.03759
#
# Velocity S-wave (km/s) = 4.51373 2.52193 3.65608
# Velocity P-wave (km/s) = 6.73321 5.72197 6.24808
#
# Compressibility (1/GPa) = 0.02370071
#
# Stress axis : x y z
#
# Youngs Moduli (GPa) = 139.26506 122.20875 56.99271
#
# Poissons Ratio (x) = 0.30210 0.11764
# Poissons Ratio (y) = 0.34426 0.00389
# Poissons Ratio (z) = 0.28746 0.00833
#
# Static dielectric constant tensor:
#      x y z
#    x 1.964730 0.000000 0.000000 
#    y 0.000000 1.869800 0.000000 
#    z 0.000000 0.000000 2.120030 
# 
# From -- ./inp_files/5067.got.cif
#   From: 2010.05.17/outbox.cif.g08.bks.cpg/sg62_3_cif.got.tgz:5067.got - 2010.06.03 15:25:27.
