data_PCOD9467330
_publ_section_title
;
Structure prediction by ZEFSAII (Michael W. Deem and Ramdas Pophale) SiO2 
 PCOD9467330
Probable space group: P N M A
;
_chemical_formula_sum "Si O2"
_cell_formula_units_Z 40
_cell_length_a 12.636630
_cell_length_b 7.437740
_cell_length_c 15.306868
_cell_angle_alpha 90.000000
_cell_angle_beta 90.000000
_cell_angle_gamma 90.000000
_cell_volume 1438.661426
_symmetry_space_group_name_H-M "P N M A"
_symmetry_group_IT_number 62
_symmetry_cell_setting 'orthorhombic'
loop_
_space_group_symop_operation_xyz
x,y,z
1/2-x,-y,1/2+z
1/2+x,1/2-y,1/2-z
-x,1/2+y,-z
-x,-y,-z
1/2+x,y,1/2-z
1/2-x,1/2+y,1/2+z
x,1/2-y,z
loop_
_atom_site_type_symbol
_atom_site_label
_atom_site_fract_x
_atom_site_fract_y
_atom_site_fract_z
Si Si1 0.881963 0.447593 0.528284
Si Si2 0.491329 0.465260 0.183861
Si Si3 0.738954 0.463439 0.804824
Si Si4 0.181371 0.472497 0.892465
Si Si5 0.045269 0.546070 0.121355
O O1 0.864256 0.250000 0.493680
O O2 0.768277 0.539262 0.537411
O O3 0.000000 0.500000 0.500000
O O4 0.913717 0.447001 0.631343
O O5 0.504073 0.250000 0.185962
O O6 0.373970 0.509662 0.147358
O O7 0.499539 0.546679 0.279312
O O8 0.756484 0.250000 0.797229
O O9 0.714901 0.533724 0.706076
O O10 0.839383 0.538974 0.858387
O O11 0.181623 0.250000 0.892690
O O12 0.062976 0.529816 0.921274
O O13 0.060031 0.750000 0.092003
#
# Coordination Sequence:
#
# PCOD9467330 Si02
#       5
#     8   8   8   8   8
#     4  11  21  36  53  73 101 137 176 213 251 303
#     4  11  21  31  46  74 107 135 166 206 253 302
#     4   9  16  30  52  74  99 131 164 203 252 305
#     4   8  15  28  49  74  98 126 164 205 250 300
#     4   9  16  31  53  75  99 132 167 206 254 305
#
# _framework density 27.803622000000001
#
# number of rings (size 3 to 8) (size 9 to 14) (size 15 to 20)
#    0.000    2.400    2.000    3.600    0.000    0.800 
#    0.000    1.000    0.000    1.200    0.000    0.000 
#    0.000    0.000    0.000    0.000    0.000    0.000 
#
# Total GULP energy -223066.299683 kJ/mol
# GULP energy per Si atom -5576.657492 kJ/mol
# Density = 2.774034 g / cm^3
# Si number density = 27.803622 Si / 1000 Ang^3
#
#
#
# Elastic Constant Matrix: (Units=GPa)
#
#
# Indices 1 2 3 4 5 6 
#
# 1 240.6390 -3.4464 44.4783 0.0000 0.0000 0.0000
# 2 -3.4464 128.2032 8.9465 0.0000 0.0000 0.0000
# 3 44.4783 8.9465 35.7244 0.0000 0.0000 0.0000
# 4 0.0000 0.0000 0.0000 11.3365 0.0000 0.0000
# 5 0.0000 0.0000 0.0000 0.0000 66.1685 0.0000
# 6 0.0000 0.0000 0.0000 0.0000 0.0000 -15.5034
#
#
#
# Elastic Compliance Matrix: (Units=1/GPa)
#
#
# Indices 1 2 3 4 5 6 
#
# 1 0.005447 0.000631 -0.006940 0.000000 0.000000 0.000000
# 2 0.000631 0.008012 -0.002792 0.000000 0.000000 0.000000
# 3 -0.006940 -0.002792 0.037332 0.000000 0.000000 0.000000
# 4 0.000000 0.000000 0.000000 0.088211 0.000000 0.000000
# 5 0.000000 0.000000 0.000000 0.000000 0.015113 0.000000
# 6 0.000000 0.000000 0.000000 0.000000 0.000000 -0.064502
#
#
# Mechanical properties :
#
#
# Convention : Reuss Voigt Hill
#
# Bulk Modulus (GPa) = 30.68523 56.05816 43.37169
# Shear Modulus (GPa) = 42.13061 36.03953 39.08507
#
# Velocity S-wave (km/s) = 3.89690 3.60421 3.75341
# Velocity P-wave (km/s) = 5.59537 6.12588 5.86662
#
# Compressibility (1/GPa) = 0.03258897
#
# Stress axis : x y z
#
# Youngs Moduli (GPa) = 183.57283 124.81440 26.78659
#
# Poissons Ratio (x) = -0.07873 0.18591
# Poissons Ratio (y) = -0.11579 0.07478
# Poissons Ratio (z) = 1.27404 0.34845
#
# Static dielectric constant tensor:
#      x y z
#    x 2.379680 0.000000 0.000000 
#    y 0.000000 1.933180 0.000000 
#    z 0.000000 0.000000 2.407120 
# 
# From -- ./inp_files/22788.got.cif
#   From: 2010.05.17/outbox.cif.g08.bks.cpg/sg62_12_cif.got.tgz:22788.got - 2010.06.03 15:25:27.
