data_PCOD9467916
_publ_section_title
;
Structure prediction by ZEFSAII (Michael W. Deem and Ramdas Pophale) SiO2 
 PCOD9467916
Probable space group: P N M A
;
_chemical_formula_sum "Si O2"
_cell_formula_units_Z 64
_cell_length_a 15.000000
_cell_length_b 24.000000
_cell_length_c 9.000000
_cell_angle_alpha 90.000000
_cell_angle_beta 90.000000
_cell_angle_gamma 90.000000
_cell_volume 3240.000000
_symmetry_space_group_name_H-M "P N M A"
_symmetry_group_IT_number 62
_symmetry_cell_setting 'orthorhombic'
loop_
_space_group_symop_operation_xyz
x,y,z
1/2-x,-y,1/2+z
1/2+x,1/2-y,1/2-z
-x,1/2+y,-z
-x,-y,-z
1/2+x,y,1/2-z
1/2-x,1/2+y,1/2+z
x,1/2-y,z
loop_
_atom_site_type_symbol
_atom_site_label
_atom_site_fract_x
_atom_site_fract_y
_atom_site_fract_z
Si Si1 0.199760 0.010022 0.516427
Si Si2 0.376628 0.494144 0.346362
Si Si3 0.908127 0.810146 0.356211
Si Si4 0.023682 0.107494 0.867785
Si Si5 0.738225 0.374343 0.970150
Si Si6 0.421790 0.371109 0.355965
Si Si7 0.590969 0.813730 0.958852
Si Si8 0.844735 0.096609 0.676802
O O1 0.305053 0.010704 0.479301
O O2 0.163031 0.961682 0.410288
O O3 0.172735 0.999963 0.686726
O O4 0.176294 0.073915 0.476896
O O5 0.434660 0.547135 0.386332
O O6 0.430748 0.437331 0.329895
O O7 0.906823 0.750000 0.285059
O O8 0.910448 0.856023 0.229587
O O9 0.822424 0.820711 0.456067
O O10 0.996817 0.814556 0.454620
O O11 0.936453 0.099037 0.767109
O O12 0.993820 0.139619 0.015853
O O13 0.773467 0.391972 0.806278
O O14 0.823207 0.364772 0.073371
O O15 0.425383 0.336964 0.205627
O O16 0.623087 0.750000 0.956278
O O17 0.654256 0.854999 0.052549
#
# Coordination Sequence:
#
# PCOD9467916 Si02
#       8
#     8   8   8   8   8   8   8   8
#     4  11  19  34  56  82 117 147 181 229 282 332
#     4  11  21  36  55  85 117 148 180 228 281 340
#     4  10  21  39  59  80 108 147 192 235 281 330
#     4  10  21  38  56  82 114 147 191 228 276 344
#     4  10  21  38  58  83 115 151 188 228 279 344
#     4  10  22  38  58  85 115 149 186 229 286 339
#     4  10  22  39  57  81 112 145 189 241 285 327
#     4  10  20  36  57  82 112 150 190 229 277 338
#
# _framework density 19.753086
#
# number of rings (size 3 to 8) (size 9 to 14) (size 15 to 20)
#    0.000    1.750    3.750    0.375    0.000    3.000 
#    4.500    2.500    0.000    0.000    0.000    0.000 
#    0.000    0.000    0.000    0.000    0.000    0.000 
#
# Total GULP energy -356726.497407 kJ/mol
# GULP energy per Si atom -5573.851522 kJ/mol
# Density = 1.970813 g / cm^3
# Si number density = 19.753086 Si / 1000 Ang^3
#
#
#
# Elastic Constant Matrix: (Units=GPa)
#
#
# Indices 1 2 3 4 5 6 
#
# 1 10.3208 10.2621 -12.1278 0.0000 0.0000 0.0000
# 2 10.2621 9.2457 5.6152 0.0000 0.0000 0.0000
# 3 -12.1278 5.6152 46.8299 0.0000 0.0000 0.0000
# 4 0.0000 0.0000 0.0000 -7.6386 0.0000 0.0000
# 5 0.0000 0.0000 0.0000 0.0000 2.7707 0.0000
# 6 0.0000 0.0000 0.0000 0.0000 0.0000 10.0420
#
#
#
# Elastic Compliance Matrix: (Units=1/GPa)
#
#
# Indices 1 2 3 4 5 6 
#
# 1 -0.113208 0.154727 -0.047871 0.000000 0.000000 0.000000
# 2 0.154727 -0.094820 0.051440 0.000000 0.000000 0.000000
# 3 -0.047871 0.051440 0.002788 0.000000 0.000000 0.000000
# 4 0.000000 0.000000 0.000000 -0.130913 0.000000 0.000000
# 5 0.000000 0.000000 0.000000 0.000000 0.360914 0.000000
# 6 0.000000 0.000000 0.000000 0.000000 0.000000 0.099582
#
#
# Mechanical properties :
#
#
# Convention : Reuss Voigt Hill
#
# Bulk Modulus (GPa) = 8.98048 8.21062 8.59555
# Shear Modulus (GPa) = -32.23052 5.21128 -13.50962
#
# Velocity S-wave (km/s) = -4.04378 1.62602 -2.61803
# Velocity P-wave (km/s) = 4.15290 2.77325 2.18583
#
# Compressibility (1/GPa) = 0.11135257
#
# Stress axis : x y z
#
# Youngs Moduli (GPa) = -8.83328 -10.54630 358.62934
#
# Poissons Ratio (x) = 1.63180 17.16797
# Poissons Ratio (y) = 1.36675 -18.44795
# Poissons Ratio (z) = -0.42286 0.54250
#
# Static dielectric constant tensor:
#      x y z
#    x 1.713400 0.000000 0.000000 
#    y 0.000000 1.743820 0.000000 
#    z 0.000000 0.000000 1.679980 
# 
# From -- ./inp_files/6940.got.cif
#   From: 2010.05.17/outbox.ucp.g08.bks.cvg/sg62_4_cif.got.tgz:6940.got - 2010.06.11 16:29:25.
