data_PCOD9467408
_publ_section_title
;
Structure prediction by ZEFSAII (Michael W. Deem and Ramdas Pophale) SiO2 
 PCOD9467408
Probable space group: P N M A
;
_chemical_formula_sum "Si O2"
_cell_formula_units_Z 64
_cell_length_a 9.089518
_cell_length_b 31.598089
_cell_length_c 11.750355
_cell_angle_alpha 90.000000
_cell_angle_beta 90.000000
_cell_angle_gamma 90.000000
_cell_volume 3374.835895
_symmetry_space_group_name_H-M "P N M A"
_symmetry_group_IT_number 62
_symmetry_cell_setting 'orthorhombic'
loop_
_space_group_symop_operation_xyz
x,y,z
1/2-x,-y,1/2+z
1/2+x,1/2-y,1/2-z
-x,1/2+y,-z
-x,-y,-z
1/2+x,y,1/2-z
1/2-x,1/2+y,1/2+z
x,1/2-y,z
loop_
_atom_site_type_symbol
_atom_site_label
_atom_site_fract_x
_atom_site_fract_y
_atom_site_fract_z
Si Si1 0.999520 0.966385 0.395770
Si Si2 0.806346 0.070371 0.298949
Si Si3 0.713932 0.479507 0.721139
Si Si4 0.565290 0.452345 0.495204
Si Si5 0.823462 0.383798 0.070603
Si Si6 0.811669 0.202707 0.153607
Si Si7 0.037296 0.702627 0.603438
Si Si8 0.005268 0.614604 0.517824
O O1 0.113512 0.982497 0.301791
O O2 0.054029 0.919755 0.426602
O O3 0.838292 0.962783 0.342634
O O4 0.000000 0.000000 0.500000
O O5 0.682900 0.057499 0.392979
O O6 0.773493 0.103265 0.199119
O O7 0.942034 0.090744 0.367034
O O8 0.842095 0.027814 0.229561
O O9 0.645642 0.452649 0.618124
O O10 0.500000 0.500000 0.500000
O O11 0.440006 0.416915 0.478495
O O12 0.880605 0.335869 0.082889
O O13 0.669784 0.383431 0.005467
O O14 0.853860 0.250000 0.114934
O O15 0.863519 0.199029 0.283900
O O16 0.634375 0.199247 0.141970
O O17 0.057942 0.750000 0.555226
O O18 0.065676 0.662110 0.523821
#
# Coordination Sequence:
#
# PCOD9467408 Si02
#       8
#     8   8   8   8   8   8   8   8
#     4  12  25  43  59  85 116 157 204 242 297 345
#     4  12  22  38  55  78 115 155 193 241 290 340
#     4  12  25  39  59  78 116 156 194 254 281 337
#     4  12  25  38  54  82 112 155 205 240 292 342
#     4  11  23  34  57  83 116 156 198 234 293 356
#     4   9  18  32  52  80 115 150 188 234 296 364
#     4   9  18  33  54  83 114 149 189 238 298 358
#     4  11  22  37  55  83 115 151 195 239 287 358
#
# _framework density 18.963885000000001
#
# number of rings (size 3 to 8) (size 9 to 14) (size 15 to 20)
#    0.000    1.000    5.000    2.250    5.250    0.000 
#    0.000    0.000    0.000    0.000    0.000    1.750 
#    0.000    0.000    0.000    0.000    0.000    0.000 
#
# Total GULP energy -356691.276610 kJ/mol
# GULP energy per Si atom -5573.301197 kJ/mol
# Density = 1.892072 g / cm^3
# Si number density = 18.963885 Si / 1000 Ang^3
#
#
#
# Elastic Constant Matrix: (Units=GPa)
#
#
# Indices 1 2 3 4 5 6 
#
# 1 59.8699 34.4837 20.5498 0.0000 0.0000 0.0000
# 2 34.4837 170.0505 30.1864 0.0000 0.0000 0.0000
# 3 20.5498 30.1864 50.0136 0.0000 0.0000 0.0000
# 4 0.0000 0.0000 0.0000 27.7535 0.0000 0.0000
# 5 0.0000 0.0000 0.0000 0.0000 36.0515 0.0000
# 6 0.0000 0.0000 0.0000 0.0000 0.0000 24.0749
#
#
#
# Elastic Compliance Matrix: (Units=1/GPa)
#
#
# Indices 1 2 3 4 5 6 
#
# 1 0.020740 -0.003016 -0.006701 0.000000 0.000000 0.000000
# 2 -0.003016 0.007025 -0.003001 0.000000 0.000000 0.000000
# 3 -0.006701 -0.003001 0.024559 0.000000 0.000000 0.000000
# 4 0.000000 0.000000 0.000000 0.036031 0.000000 0.000000
# 5 0.000000 0.000000 0.000000 0.000000 0.027738 0.000000
# 6 0.000000 0.000000 0.000000 0.000000 0.000000 0.041537
#
#
# Mechanical properties :
#
#
# Convention : Reuss Voigt Hill
#
# Bulk Modulus (GPa) = 37.19153 50.04153 43.61653
# Shear Modulus (GPa) = 26.03757 30.55693 28.29725
#
# Velocity S-wave (km/s) = 3.70943 4.01848 3.86705
# Velocity P-wave (km/s) = 6.16448 6.92647 6.55656
#
# Compressibility (1/GPa) = 0.02688784
#
# Stress axis : x y z
#
# Youngs Moduli (GPa) = 48.21513 142.35049 40.71799
#
# Poissons Ratio (x) = 0.42936 0.27287
# Poissons Ratio (y) = 0.14543 0.12218
# Poissons Ratio (z) = 0.32311 0.42715
#
# Static dielectric constant tensor:
#      x y z
#    x 1.732570 0.000000 0.000000 
#    y 0.000000 1.711130 0.000000 
#    z 0.000000 0.000000 1.706930 
# 
# From -- ./inp_files/11539.got.cif
#   From: 2010.05.17/outbox.cif.g08.bks.cpg/sg62_6_cif.got.tgz:11539.got - 2010.06.03 15:25:27.
