data_PCOD9467677
_publ_section_title
;
Structure prediction by ZEFSAII (Michael W. Deem and Ramdas Pophale) SiO2 
 PCOD9467677
Probable space group: P N M A
;
_chemical_formula_sum "Si O2"
_cell_formula_units_Z 28
_cell_length_a 12.229672
_cell_length_b 14.581744
_cell_length_c 6.803868
_cell_angle_alpha 90.000000
_cell_angle_beta 90.000000
_cell_angle_gamma 90.000000
_cell_volume 1213.333415
_symmetry_space_group_name_H-M "P N M A"
_symmetry_group_IT_number 62
_symmetry_cell_setting 'orthorhombic'
loop_
_space_group_symop_operation_xyz
x,y,z
1/2-x,-y,1/2+z
1/2+x,1/2-y,1/2-z
-x,1/2+y,-z
-x,-y,-z
1/2+x,y,1/2-z
1/2-x,1/2+y,1/2+z
x,1/2-y,z
loop_
_atom_site_type_symbol
_atom_site_label
_atom_site_fract_x
_atom_site_fract_y
_atom_site_fract_z
Si Si1 0.707432 0.904342 0.682436
Si Si2 0.190252 0.750000 0.519848
Si Si3 0.608662 0.250000 0.695174
Si Si4 0.948775 0.250000 0.136078
Si Si5 0.906795 0.562165 0.399323
O O1 0.729158 0.844789 0.878651
O O2 0.619527 0.839700 0.573174
O O3 0.817199 0.916293 0.564248
O O4 0.651930 0.999176 0.737242
O O5 0.257735 0.750000 0.316882
O O6 0.067194 0.750000 0.624173
O O7 0.562500 0.250000 0.472290
O O8 0.564502 0.341432 0.799518
O O9 0.000000 0.500000 0.500000
#
# Coordination Sequence:
#
# PCOD9467677 Si02
#       5
#     8   4   4   4   8
#     4   9  23  45  65 102 140 179 228 289 343 413
#     4   8  21  43  69  91 140 180 220 288 345 404
#     4  12  24  44  72 102 138 186 237 281 352 421
#     4   8  23  41  71  97 136 180 225 287 353 397
#     4  12  27  42  73 104 139 185 239 281 354 413
#
# _framework density 23.076920999999999
#
# number of rings (size 3 to 8) (size 9 to 14) (size 15 to 20)
#    1.714    0.000    0.000    3.429    8.000    3.429 
#    5.143    0.000    0.000    0.000    0.000    0.000 
#    0.000    0.000    0.000    0.000    0.000    0.000 
#
# Total GULP energy -155935.422365 kJ/mol
# GULP energy per Si atom -5569.122227 kJ/mol
# Density = 2.302440 g / cm^3
# Si number density = 23.076921 Si / 1000 Ang^3
#
#
#
# Elastic Constant Matrix: (Units=GPa)
#
#
# Indices 1 2 3 4 5 6 
#
# 1 30.1158 -1.4257 20.5610 0.0000 0.0000 0.0000
# 2 -1.4257 144.7892 22.1298 0.0000 0.0000 0.0000
# 3 20.5610 22.1298 46.9571 0.0000 0.0000 0.0000
# 4 0.0000 0.0000 0.0000 29.6308 0.0000 0.0000
# 5 0.0000 0.0000 0.0000 0.0000 53.2051 0.0000
# 6 0.0000 0.0000 0.0000 0.0000 0.0000 25.5919
#
#
#
# Elastic Compliance Matrix: (Units=1/GPa)
#
#
# Indices 1 2 3 4 5 6 
#
# 1 0.049522 0.004097 -0.023615 0.000000 0.000000 0.000000
# 2 0.004097 0.007782 -0.005461 0.000000 0.000000 0.000000
# 3 -0.023615 -0.005461 0.034210 0.000000 0.000000 0.000000
# 4 0.000000 0.000000 0.000000 0.033749 0.000000 0.000000
# 5 0.000000 0.000000 0.000000 0.000000 0.018795 0.000000
# 6 0.000000 0.000000 0.000000 0.000000 0.000000 0.039075
#
#
# Mechanical properties :
#
#
# Convention : Reuss Voigt Hill
#
# Bulk Modulus (GPa) = 24.06439 33.82137 28.94288
# Shear Modulus (GPa) = 20.24766 33.72534 26.98650
#
# Velocity S-wave (km/s) = 2.96530 3.82701 3.42338
# Velocity P-wave (km/s) = 4.70899 5.84943 5.30991
#
# Compressibility (1/GPa) = 0.04155517
#
# Stress axis : x y z
#
# Youngs Moduli (GPa) = 20.19313 128.50779 29.23124
#
# Poissons Ratio (x) = -0.52649 0.69029
# Poissons Ratio (y) = -0.08273 0.15964
# Poissons Ratio (z) = 0.47686 0.70181
#
# Static dielectric constant tensor:
#      x y z
#    x 1.890210 0.000000 0.000000 
#    y 0.000000 1.822800 0.000000 
#    z 0.000000 0.000000 1.978420 
# 
# From -- ./inp_files/4801.got.cif
#   From: 2010.05.17/outbox.cif.g08.bks.cpg/sg62_3_cif.got.tgz:4801.got - 2010.06.03 15:25:27.
