data_PCOD9467757
_publ_section_title
;
Structure prediction by ZEFSAII (Michael W. Deem and Ramdas Pophale) SiO2 
 PCOD9467757
Probable space group: P N M A
;
_chemical_formula_sum "Si O2"
_cell_formula_units_Z 64
_cell_length_a 18.000000
_cell_length_b 15.000000
_cell_length_c 12.000000
_cell_angle_alpha 90.000000
_cell_angle_beta 90.000000
_cell_angle_gamma 90.000000
_cell_volume 3240.000000
_symmetry_space_group_name_H-M "P N M A"
_symmetry_group_IT_number 62
_symmetry_cell_setting 'orthorhombic'
loop_
_space_group_symop_operation_xyz
x,y,z
1/2-x,-y,1/2+z
1/2+x,1/2-y,1/2-z
-x,1/2+y,-z
-x,-y,-z
1/2+x,y,1/2-z
1/2-x,1/2+y,1/2+z
x,1/2-y,z
loop_
_atom_site_type_symbol
_atom_site_label
_atom_site_fract_x
_atom_site_fract_y
_atom_site_fract_z
Si Si1 0.469652 0.094580 0.796071
Si Si2 0.263969 0.856279 0.392973
Si Si3 0.370776 0.502707 0.501786
Si Si4 0.130718 0.961506 0.502180
Si Si5 0.402246 0.847027 0.045054
Si Si6 0.674991 0.850242 0.333487
Si Si7 0.501167 0.930850 0.640825
Si Si8 0.528683 0.845110 0.859483
O O1 0.425914 0.045646 0.897257
O O2 0.539134 0.143730 0.852850
O O3 0.405211 0.147424 0.730902
O O4 0.499604 0.022686 0.710157
O O5 0.278962 0.750000 0.414409
O O6 0.197092 0.895510 0.469653
O O7 0.235602 0.862183 0.265114
O O8 0.326795 0.929676 0.421358
O O9 0.325797 0.434788 0.582620
O O10 0.427699 0.437639 0.437468
O O11 0.424444 0.566685 0.574275
O O12 0.084819 0.921832 0.604836
O O13 0.147009 0.064493 0.530475
O O14 0.365092 0.750000 0.051728
O O15 0.456273 0.848387 0.937183
O O16 0.683244 0.750000 0.381731
O O17 0.506905 0.854904 0.732034
O O18 0.565365 0.750000 0.883189
#
# Coordination Sequence:
#
# PCOD9467757 Si02
#       8
#     8   8   8   8   8   8   8   8
#     4   9  15  31  54  81 116 155 186 232 280 333
#     4  10  22  41  62  81 107 154 200 234 280 346
#     4  10  23  38  60  83 112 145 191 239 288 343
#     4  10  17  32  55  82 117 150 193 241 276 331
#     4  10  17  27  50  87 121 152 193 238 285 333
#     4   9  19  37  61  84 112 151 194 233 285 346
#     4  10  19  36  55  83 115 148 183 233 295 342
#     4  10  18  29  53  85 117 152 188 233 289 344
#
# _framework density 19.753086
#
# number of rings (size 3 to 8) (size 9 to 14) (size 15 to 20)
#    0.000    2.250    2.500    1.500    0.000    5.000 
#    0.000    6.250    0.000    0.750    0.000    0.000 
#    0.000    0.000    0.000    0.000    0.000    0.000 
#
# Total GULP energy -356634.682382 kJ/mol
# GULP energy per Si atom -5572.416912 kJ/mol
# Density = 1.970813 g / cm^3
# Si number density = 19.753086 Si / 1000 Ang^3
#
#
#
# Elastic Constant Matrix: (Units=GPa)
#
#
# Indices 1 2 3 4 5 6 
#
# 1 47.3497 21.1529 13.5964 0.0000 0.0000 0.0000
# 2 21.1529 131.6593 9.5702 0.0000 0.0000 0.0000
# 3 13.5964 9.5702 41.7562 0.0000 0.0000 0.0000
# 4 0.0000 0.0000 0.0000 11.9402 0.0000 0.0000
# 5 0.0000 0.0000 0.0000 0.0000 21.9415 0.0000
# 6 0.0000 0.0000 0.0000 0.0000 0.0000 8.4015
#
#
#
# Elastic Compliance Matrix: (Units=1/GPa)
#
#
# Indices 1 2 3 4 5 6 
#
# 1 0.024747 -0.003448 -0.007268 0.000000 0.000000 0.000000
# 2 -0.003448 0.008204 -0.000758 0.000000 0.000000 0.000000
# 3 -0.007268 -0.000758 0.026489 0.000000 0.000000 0.000000
# 4 0.000000 0.000000 0.000000 0.083751 0.000000 0.000000
# 5 0.000000 0.000000 0.000000 0.000000 0.045576 0.000000
# 6 0.000000 0.000000 0.000000 0.000000 0.000000 0.119026
#
#
# Mechanical properties :
#
#
# Convention : Reuss Voigt Hill
#
# Bulk Modulus (GPa) = 27.40216 34.37825 30.89021
# Shear Modulus (GPa) = 14.58140 20.21968 17.40054
#
# Velocity S-wave (km/s) = 2.71990 3.20288 2.97122
# Velocity P-wave (km/s) = 4.87507 5.57850 5.23860
#
# Compressibility (1/GPa) = 0.03649347
#
# Stress axis : x y z
#
# Youngs Moduli (GPa) = 40.40964 121.88652 37.75196
#
# Poissons Ratio (x) = 0.42022 0.27437
# Poissons Ratio (y) = 0.13932 0.02861
# Poissons Ratio (z) = 0.29368 0.09236
#
# Static dielectric constant tensor:
#      x y z
#    x 1.725770 0.000000 0.000000 
#    y 0.000000 1.703470 0.000000 
#    z 0.000000 0.000000 1.707760 
# 
# From -- ./inp_files/14338.got.cif
#   From: 2010.05.17/outbox.ucp.g08.bks.cvg/sg62_8_cif.got.tgz:14338.got - 2010.06.11 16:29:25.
