data_PCOD9467841
_publ_section_title
;
Structure prediction by ZEFSAII (Michael W. Deem and Ramdas Pophale) SiO2 
 PCOD9467841
Probable space group: P N M A
;
_chemical_formula_sum "Si O2"
_cell_formula_units_Z 64
_cell_length_a 15.000000
_cell_length_b 9.000000
_cell_length_c 24.000000
_cell_angle_alpha 90.000000
_cell_angle_beta 90.000000
_cell_angle_gamma 90.000000
_cell_volume 3240.000000
_symmetry_space_group_name_H-M "P N M A"
_symmetry_group_IT_number 62
_symmetry_cell_setting 'orthorhombic'
loop_
_space_group_symop_operation_xyz
x,y,z
1/2-x,-y,1/2+z
1/2+x,1/2-y,1/2-z
-x,1/2+y,-z
-x,-y,-z
1/2+x,y,1/2-z
1/2-x,1/2+y,1/2+z
x,1/2-y,z
loop_
_atom_site_type_symbol
_atom_site_label
_atom_site_fract_x
_atom_site_fract_y
_atom_site_fract_z
Si Si1 0.455007 0.080186 0.640178
Si Si2 0.151968 0.428258 0.886572
Si Si3 0.448038 0.574897 0.872316
Si Si4 0.208643 0.074551 0.459260
Si Si5 0.720869 0.072340 0.340590
Si Si6 0.982457 0.579711 0.266889
Si Si7 0.866968 0.428276 0.429877
Si Si8 0.195161 0.927183 0.769975
O O1 0.439401 0.250000 0.622686
O O2 0.547955 0.026975 0.614271
O O3 0.471106 0.079070 0.706799
O O4 0.368351 0.983919 0.630729
O O5 0.155772 0.250000 0.884095
O O6 0.202754 0.491085 0.939730
O O7 0.194532 0.492519 0.829432
O O8 0.453642 0.750000 0.857360
O O9 0.360490 0.551418 0.908519
O O10 0.456827 0.478645 0.816823
O O11 0.532240 0.539102 0.911820
O O12 0.223832 0.250000 0.465405
O O13 0.165471 0.008969 0.514811
O O14 0.720843 0.250000 0.338612
O O15 0.804095 0.025969 0.378431
O O16 0.733114 0.023177 0.276343
O O17 0.952887 0.750000 0.277382
O O18 0.898490 0.470264 0.259268
O O19 0.859385 0.250000 0.437504
O O20 0.201657 0.750000 0.778692
#
# Coordination Sequence:
#
# PCOD9467841 Si02
#       8
#     8   8   8   8   8   8   8   8
#     4   9  21  38  56  83 118 152 193 241 290 343
#     4  10  22  41  60  83 117 157 196 243 297 349
#     4  10  21  38  58  83 120 157 193 238 290 350
#     4  11  24  39  60  89 114 152 202 246 295 349
#     4  10  21  36  59  87 115 153 195 234 293 349
#     4  10  20  34  54  85 119 155 194 232 286 347
#     4  10  21  41  61  83 118 156 193 239 294 351
#     4  10  19  35  57  84 118 154 190 237 291 347
#
# _framework density 19.753086
#
# number of rings (size 3 to 8) (size 9 to 14) (size 15 to 20)
#    0.000    2.000    1.250    2.625    1.750    6.000 
#    0.000    0.625    0.000    0.000    0.000    0.000 
#    0.000    0.000    0.000    0.000    0.000    0.000 
#
# Total GULP energy -357320.489480 kJ/mol
# GULP energy per Si atom -5583.132648 kJ/mol
# Density = 1.970813 g / cm^3
# Si number density = 19.753086 Si / 1000 Ang^3
#
#
#
# Elastic Constant Matrix: (Units=GPa)
#
#
# Indices 1 2 3 4 5 6 
#
# 1 54.8510 6.8232 -19.2754 0.0000 0.0000 0.0000
# 2 6.8232 10.6589 -2.0230 0.0000 0.0000 0.0000
# 3 -19.2754 -2.0230 3.5844 0.0000 0.0000 0.0000
# 4 0.0000 0.0000 0.0000 26.3867 0.0000 0.0000
# 5 0.0000 0.0000 0.0000 0.0000 -1.4865 0.0000
# 6 0.0000 0.0000 0.0000 0.0000 0.0000 14.6492
#
#
#
# Elastic Compliance Matrix: (Units=1/GPa)
#
#
# Indices 1 2 3 4 5 6 
#
# 1 -0.019790 -0.008433 -0.111178 0.000000 0.000000 0.000000
# 2 -0.008433 0.101480 0.011926 0.000000 0.000000 0.000000
# 3 -0.111178 0.011926 -0.312152 0.000000 0.000000 0.000000
# 4 0.000000 0.000000 0.000000 0.037898 0.000000 0.000000
# 5 0.000000 0.000000 0.000000 0.000000 -0.672715 0.000000
# 6 0.000000 0.000000 0.000000 0.000000 0.000000 0.068263
#
#
# Mechanical properties :
#
#
# Convention : Reuss Voigt Hill
#
# Bulk Modulus (GPa) = -2.24300 4.46043 1.10872
# Shear Modulus (GPa) = -6.84691 13.48118 3.31714
#
# Velocity S-wave (km/s) = -1.86381 2.61528 1.29728
# Velocity P-wave (km/s) = 2.40202 3.37380 1.67524
#
# Compressibility (1/GPa) = -0.44583146
#
# Stress axis : x y z
#
# Youngs Moduli (GPa) = -50.53165 9.85416 -3.20356
#
# Poissons Ratio (x) = 0.08310 -0.35617
# Poissons Ratio (y) = -0.42611 0.03821
# Poissons Ratio (z) = -5.61803 -0.11752
#
# Static dielectric constant tensor:
#      x y z
#    x 1.713950 0.000000 0.000000 
#    y 0.000000 1.675940 0.000000 
#    z 0.000000 0.000000 1.674150 
# 
# From -- ./inp_files/29809.got.cif
#   From: 2010.05.17/outbox.ucp.g08.bks.cvg/sg62_15_cif.got.tgz:29809.got - 2010.06.11 16:29:25.
