data_PCOD9467169
_publ_section_title
;
Structure prediction by ZEFSAII (Michael W. Deem and Ramdas Pophale) SiO2 
 PCOD9467169
Probable space group: P N M A
;
_chemical_formula_sum "Si O2"
_cell_formula_units_Z 24
_cell_length_a 11.442348
_cell_length_b 10.137198
_cell_length_c 8.627285
_cell_angle_alpha 90.000000
_cell_angle_beta 90.000000
_cell_angle_gamma 90.000000
_cell_volume 1000.707665
_symmetry_space_group_name_H-M "P N M A"
_symmetry_group_IT_number 62
_symmetry_cell_setting 'orthorhombic'
loop_
_space_group_symop_operation_xyz
x,y,z
1/2-x,-y,1/2+z
1/2+x,1/2-y,1/2-z
-x,1/2+y,-z
-x,-y,-z
1/2+x,y,1/2-z
1/2-x,1/2+y,1/2+z
x,1/2-y,z
loop_
_atom_site_type_symbol
_atom_site_label
_atom_site_fract_x
_atom_site_fract_y
_atom_site_fract_z
Si Si1 0.532397 0.898528 0.365244
Si Si2 0.796788 0.893753 0.719192
Si Si3 0.881404 0.527920 0.404314
O O1 0.560828 0.750000 0.415068
O O2 0.424851 0.890494 0.243690
O O3 0.500000 0.000000 0.500000
O O4 0.634208 0.976822 0.275595
O O5 0.851934 0.750000 0.751186
O O6 0.795293 0.910036 0.533124
O O7 0.678992 0.904008 0.819777
O O8 0.000000 0.500000 0.500000
#
# Coordination Sequence:
#
# PCOD9467169 Si02
#       3
#     8   8   8
#     4  11  24  42  67 100 139 182 230 287 351 420
#     4  11  24  43  69  98 132 179 233 289 350 416
#     4  10  24  43  68 102 141 181 231 292 355 422
#
# _framework density 23.983027
#
# number of rings (size 3 to 8) (size 9 to 14) (size 15 to 20)
#    0.000    1.333    0.000    4.000    0.000   17.333 
#    0.000    0.000    0.000    0.000    0.000    0.000 
#    0.000    0.000    0.000    0.000    0.000    0.000 
#
# Total GULP energy -133794.508089 kJ/mol
# GULP energy per Si atom -5574.771170 kJ/mol
# Density = 2.392844 g / cm^3
# Si number density = 23.983027 Si / 1000 Ang^3
#
#
#
# Elastic Constant Matrix: (Units=GPa)
#
#
# Indices 1 2 3 4 5 6 
#
# 1 62.2848 40.0941 54.7148 0.0000 0.0000 0.0000
# 2 40.0941 224.8349 73.3866 0.0000 0.0000 0.0000
# 3 54.7148 73.3866 168.1122 0.0000 0.0000 0.0000
# 4 0.0000 0.0000 0.0000 8.0758 0.0000 0.0000
# 5 0.0000 0.0000 0.0000 0.0000 58.3307 0.0000
# 6 0.0000 0.0000 0.0000 0.0000 0.0000 30.3113
#
#
#
# Elastic Compliance Matrix: (Units=1/GPa)
#
#
# Indices 1 2 3 4 5 6 
#
# 1 0.023194 -0.001950 -0.006698 0.000000 0.000000 0.000000
# 2 -0.001950 0.005351 -0.001701 0.000000 0.000000 0.000000
# 3 -0.006698 -0.001701 0.008871 0.000000 0.000000 0.000000
# 4 0.000000 0.000000 0.000000 0.123827 0.000000 0.000000
# 5 0.000000 0.000000 0.000000 0.000000 0.017144 0.000000
# 6 0.000000 0.000000 0.000000 0.000000 0.000000 0.032991
#
#
# Mechanical properties :
#
#
# Convention : Reuss Voigt Hill
#
# Bulk Modulus (GPa) = 59.81514 87.95812 73.88663
# Shear Modulus (GPa) = 21.03957 38.47931 29.75944
#
# Velocity S-wave (km/s) = 2.96509 4.00989 3.52640
# Velocity P-wave (km/s) = 6.05946 7.62848 6.88879
#
# Compressibility (1/GPa) = 0.01671818
#
# Stress axis : x y z
#
# Youngs Moduli (GPa) = 43.11425 186.89186 112.72861
#
# Poissons Ratio (x) = 0.36444 0.75502
# Poissons Ratio (y) = 0.08407 0.19176
# Poissons Ratio (z) = 0.28877 0.31792
#
# Static dielectric constant tensor:
#      x y z
#    x 2.198540 0.000000 0.000000 
#    y 0.000000 1.968830 0.000000 
#    z 0.000000 0.000000 2.079550 
# 
# From -- ./inp_files/5617.got.cif
#   From: 2010.05.17/outbox.cif.g08.bks.cpg/sg62_3_cif.got.tgz:5617.got - 2010.06.03 15:25:27.
