data_PCOD9467027
_publ_section_title
;
Structure prediction by ZEFSAII (Michael W. Deem and Ramdas Pophale) SiO2 
 PCOD9467027
Probable space group: P N M A
;
_chemical_formula_sum "Si O2"
_cell_formula_units_Z 32
_cell_length_a 10.522196
_cell_length_b 10.667640
_cell_length_c 13.241479
_cell_angle_alpha 90.000000
_cell_angle_beta 90.000000
_cell_angle_gamma 90.000000
_cell_volume 1486.316279
_symmetry_space_group_name_H-M "P N M A"
_symmetry_group_IT_number 62
_symmetry_cell_setting 'orthorhombic'
loop_
_space_group_symop_operation_xyz
x,y,z
1/2-x,-y,1/2+z
1/2+x,1/2-y,1/2-z
-x,1/2+y,-z
-x,-y,-z
1/2+x,y,1/2-z
1/2-x,1/2+y,1/2+z
x,1/2-y,z
loop_
_atom_site_type_symbol
_atom_site_label
_atom_site_fract_x
_atom_site_fract_y
_atom_site_fract_z
Si Si1 0.943802 0.610457 0.127178
Si Si2 0.889803 0.108161 0.278181
Si Si3 0.423397 0.889290 0.947152
Si Si4 0.303327 0.996373 0.556100
O O1 0.924083 0.750000 0.167858
O O2 0.887203 0.502133 0.197602
O O3 0.092205 0.579190 0.113034
O O4 0.879249 0.597260 0.017280
O O5 0.868890 0.250000 0.240169
O O6 0.787655 0.075472 0.365466
O O7 0.029802 0.105207 0.331589
O O8 0.460518 0.750000 0.982855
O O9 0.500000 0.000000 0.000000
O O10 0.281291 0.917076 0.981974
#
# Coordination Sequence:
#
# PCOD9467027 Si02
#       4
#     8   8   8   8
#     4  11  25  42  66  99 132 170 217 272 327 382
#     4  10  23  42  67  97 130 172 218 264 323 392
#     4   9  19  38  64  92 123 166 211 259 315 378
#     4  10  23  44  66  94 131 175 215 266 324 391
#
# _framework density 21.529737000000001
#
# number of rings (size 3 to 8) (size 9 to 14) (size 15 to 20)
#    0.000    2.000    0.000    1.500    3.500   12.000 
#    0.000    0.000    0.000    0.000    0.000    0.000 
#    0.000    0.000    0.000    0.000    0.000    0.000 
#
# Total GULP energy -178604.406858 kJ/mol
# GULP energy per Si atom -5581.387714 kJ/mol
# Density = 2.148073 g / cm^3
# Si number density = 21.529737 Si / 1000 Ang^3
#
#
#
# Elastic Constant Matrix: (Units=GPa)
#
#
# Indices 1 2 3 4 5 6 
#
# 1 79.2635 32.8803 28.4889 0.0000 0.0000 0.0000
# 2 32.8803 201.7880 55.7708 0.0000 0.0000 0.0000
# 3 28.4889 55.7708 57.9662 0.0000 0.0000 0.0000
# 4 0.0000 0.0000 0.0000 26.0232 0.0000 0.0000
# 5 0.0000 0.0000 0.0000 0.0000 28.9316 0.0000
# 6 0.0000 0.0000 0.0000 0.0000 0.0000 10.2470
#
#
#
# Elastic Compliance Matrix: (Units=1/GPa)
#
#
# Indices 1 2 3 4 5 6 
#
# 1 0.015370 -0.000568 -0.007008 0.000000 0.000000 0.000000
# 2 -0.000568 0.006772 -0.006236 0.000000 0.000000 0.000000
# 3 -0.007008 -0.006236 0.026696 0.000000 0.000000 0.000000
# 4 0.000000 0.000000 0.000000 0.038427 0.000000 0.000000
# 5 0.000000 0.000000 0.000000 0.000000 0.034564 0.000000
# 6 0.000000 0.000000 0.000000 0.000000 0.000000 0.097589
#
#
# Mechanical properties :
#
#
# Convention : Reuss Voigt Hill
#
# Bulk Modulus (GPa) = 47.13857 63.69976 55.41917
# Shear Modulus (GPa) = 19.67619 27.83222 23.75420
#
# Velocity S-wave (km/s) = 3.02637 3.59936 3.32523
# Velocity P-wave (km/s) = 5.84415 6.85018 6.36706
#
# Compressibility (1/GPa) = 0.02121405
#
# Stress axis : x y z
#
# Youngs Moduli (GPa) = 65.05988 147.67095 37.45897
#
# Poissons Ratio (x) = 0.08382 0.26251
# Poissons Ratio (y) = 0.03693 0.23361
# Poissons Ratio (z) = 0.45594 0.92093
#
# Static dielectric constant tensor:
#      x y z
#    x 1.823520 0.000000 0.000000 
#    y 0.000000 1.742680 0.000000 
#    z 0.000000 0.000000 1.788330 
# 
# From -- ./inp_files/17579.got.cif
#   From: 2010.05.17/outbox.cif.g08.bks.cpg/sg62_9_cif.got.tgz:17579.got - 2010.06.03 15:25:27.
