data_PCOD9467675
_publ_section_title
;
Structure prediction by ZEFSAII (Michael W. Deem and Ramdas Pophale) SiO2 
 PCOD9467675
Probable space group: P N M A
;
_chemical_formula_sum "Si O2"
_cell_formula_units_Z 32
_cell_length_a 8.695962
_cell_length_b 16.897418
_cell_length_c 9.322608
_cell_angle_alpha 90.000000
_cell_angle_beta 90.000000
_cell_angle_gamma 90.000000
_cell_volume 1369.857539
_symmetry_space_group_name_H-M "P N M A"
_symmetry_group_IT_number 62
_symmetry_cell_setting 'orthorhombic'
loop_
_space_group_symop_operation_xyz
x,y,z
1/2-x,-y,1/2+z
1/2+x,1/2-y,1/2-z
-x,1/2+y,-z
-x,-y,-z
1/2+x,y,1/2-z
1/2-x,1/2+y,1/2+z
x,1/2-y,z
loop_
_atom_site_type_symbol
_atom_site_label
_atom_site_fract_x
_atom_site_fract_y
_atom_site_fract_z
Si Si1 0.742550 0.566526 0.182431
Si Si2 0.390620 0.929030 0.617354
Si Si3 0.211864 0.658291 0.831723
Si Si4 0.956215 0.591224 0.448266
O O1 0.646439 0.498628 0.268385
O O2 0.846807 0.544878 0.043774
O O3 0.848557 0.595009 0.309488
O O4 0.616337 0.623457 0.112567
O O5 0.559463 0.891715 0.631354
O O6 0.268500 0.863551 0.672711
O O7 0.358594 0.865700 0.929845
O O8 0.177419 0.750000 0.848285
O O9 0.000000 0.500000 0.500000
#
# Coordination Sequence:
#
# PCOD9467675 Si02
#       4
#     8   8   8   8
#     4  12  24  43  74 110 142 182 245 323 368 429
#     4  12  24  45  72 108 147 189 250 312 382 445
#     4  12  27  48  70 103 152 203 250 302 386 469
#     4  12  24  44  71 110 141 187 246 309 367 432
#
# _framework density 23.360095000000001
#
# number of rings (size 3 to 8) (size 9 to 14) (size 15 to 20)
#    0.000    0.000    5.000    5.250    0.000    3.000 
#    0.000    7.500    0.000    0.000    0.000    0.000 
#    0.000    0.000    0.000    0.000    0.000    0.000 
#
# Total GULP energy -178742.316425 kJ/mol
# GULP energy per Si atom -5585.697388 kJ/mol
# Density = 2.330693 g / cm^3
# Si number density = 23.360095 Si / 1000 Ang^3
#
#
#
# Elastic Constant Matrix: (Units=GPa)
#
#
# Indices 1 2 3 4 5 6 
#
# 1 121.1776 46.1608 29.0917 0.0000 0.0000 0.0000
# 2 46.1608 84.6762 38.9810 0.0000 0.0000 0.0000
# 3 29.0917 38.9810 182.4115 0.0000 0.0000 0.0000
# 4 0.0000 0.0000 0.0000 12.8110 0.0000 0.0000
# 5 0.0000 0.0000 0.0000 0.0000 64.7825 0.0000
# 6 0.0000 0.0000 0.0000 0.0000 0.0000 21.4005
#
#
#
# Elastic Compliance Matrix: (Units=1/GPa)
#
#
# Indices 1 2 3 4 5 6 
#
# 1 0.010456 -0.005471 -0.000499 0.000000 0.000000 0.000000
# 2 -0.005471 0.015960 -0.002538 0.000000 0.000000 0.000000
# 3 -0.000499 -0.002538 0.006104 0.000000 0.000000 0.000000
# 4 0.000000 0.000000 0.000000 0.078058 0.000000 0.000000
# 5 0.000000 0.000000 0.000000 0.000000 0.015436 0.000000
# 6 0.000000 0.000000 0.000000 0.000000 0.000000 0.046728
#
#
# Mechanical properties :
#
#
# Convention : Reuss Voigt Hill
#
# Bulk Modulus (GPa) = 64.49188 68.52582 66.50885
# Shear Modulus (GPa) = 25.65076 38.06755 31.85916
#
# Velocity S-wave (km/s) = 3.31729 4.04121 3.69701
# Velocity P-wave (km/s) = 6.50694 7.15356 6.83789
#
# Compressibility (1/GPa) = 0.01550583
#
# Stress axis : x y z
#
# Youngs Moduli (GPa) = 95.63932 62.65496 163.82595
#
# Poissons Ratio (x) = 0.34276 0.08167
# Poissons Ratio (y) = 0.52320 0.41583
# Poissons Ratio (z) = 0.04768 0.15903
#
# Static dielectric constant tensor:
#      x y z
#    x 2.028550 0.000000 0.000000 
#    y 0.000000 1.963170 0.000000 
#    z 0.000000 0.000000 1.923080 
# 
# From -- ./inp_files/4245.got.cif
#   From: 2010.05.17/outbox.cif.g08.bks.cpg/sg62_3_cif.got.tgz:4245.got - 2010.06.03 15:25:27.
