data_PCOD9467605
_publ_section_title
;
Structure prediction by ZEFSAII (Michael W. Deem and Ramdas Pophale) SiO2 
 PCOD9467605
Probable space group: P N M A
;
_chemical_formula_sum "Si O2"
_cell_formula_units_Z 32
_cell_length_a 14.103457
_cell_length_b 9.905674
_cell_length_c 8.840325
_cell_angle_alpha 90.000000
_cell_angle_beta 90.000000
_cell_angle_gamma 90.000000
_cell_volume 1235.030950
_symmetry_space_group_name_H-M "P N M A"
_symmetry_group_IT_number 62
_symmetry_cell_setting 'orthorhombic'
loop_
_space_group_symop_operation_xyz
x,y,z
1/2-x,-y,1/2+z
1/2+x,1/2-y,1/2-z
-x,1/2+y,-z
-x,-y,-z
1/2+x,y,1/2-z
1/2-x,1/2+y,1/2+z
x,1/2-y,z
loop_
_atom_site_type_symbol
_atom_site_label
_atom_site_fract_x
_atom_site_fract_y
_atom_site_fract_z
Si Si1 0.081810 0.250000 0.602156
Si Si2 0.691026 0.250000 0.577233
Si Si3 0.653465 0.750000 0.865057
Si Si4 0.599290 0.495309 0.409999
Si Si5 0.486226 0.426518 0.121088
Si Si6 0.785834 0.250000 0.021472
O O1 0.024018 0.393056 0.556682
O O2 0.174199 0.250000 0.502700
O O3 0.126794 0.250000 0.769206
O O4 0.803681 0.250000 0.541375
O O5 0.656770 0.376542 0.483130
O O6 0.626102 0.917702 0.858797
O O7 0.702394 0.750000 0.700266
O O8 0.500000 0.500000 0.500000
O O9 0.566142 0.464080 0.240528
O O10 0.660748 0.626432 0.440521
O O11 0.476015 0.250000 0.150199
#
# Coordination Sequence:
#
# PCOD9467605 Si02
#       6
#     4   4   4   8   8   4
#     4  11  28  45  69 113 147 199 250 316 370 453
#     4  12  28  47  79 108 151 198 260 305 380 446
#     4  11  25  48  72 112 148 200 249 323 369 452
#     4  12  25  48  79 109 149 202 250 311 377 451
#     4  11  25  47  75 104 154 193 252 306 382 446
#     4  12  27  44  78 109 154 187 261 306 379 443
#
# _framework density 25.910281999999999
#
# number of rings (size 3 to 8) (size 9 to 14) (size 15 to 20)
#    0.000    0.500    2.500    5.250    7.000    1.000 
#    0.000    0.000    0.000    0.000    0.000    0.000 
#    0.000    0.000    0.000    0.000    0.000    0.000 
#
# Total GULP energy -178197.466367 kJ/mol
# GULP energy per Si atom -5568.670824 kJ/mol
# Density = 2.585131 g / cm^3
# Si number density = 25.910282 Si / 1000 Ang^3
#
#
#
# Elastic Constant Matrix: (Units=GPa)
#
#
# Indices 1 2 3 4 5 6 
#
# 1 105.5201 59.6943 58.3757 0.0000 0.0000 0.0000
# 2 59.6943 203.2316 66.7888 0.0000 0.0000 0.0000
# 3 58.3757 66.7888 205.2530 0.0000 0.0000 0.0000
# 4 0.0000 0.0000 0.0000 55.2480 0.0000 0.0000
# 5 0.0000 0.0000 0.0000 0.0000 58.5884 0.0000
# 6 0.0000 0.0000 0.0000 0.0000 0.0000 44.5945
#
#
#
# Elastic Compliance Matrix: (Units=1/GPa)
#
#
# Indices 1 2 3 4 5 6 
#
# 1 0.012533 -0.002810 -0.002650 0.000000 0.000000 0.000000
# 2 -0.002810 0.006140 -0.001199 0.000000 0.000000 0.000000
# 3 -0.002650 -0.001199 0.006016 0.000000 0.000000 0.000000
# 4 0.000000 0.000000 0.000000 0.018100 0.000000 0.000000
# 5 0.000000 0.000000 0.000000 0.000000 0.017068 0.000000
# 6 0.000000 0.000000 0.000000 0.000000 0.000000 0.022424
#
#
# Mechanical properties :
#
#
# Convention : Reuss Voigt Hill
#
# Bulk Modulus (GPa) = 87.94651 98.19139 93.06895
# Shear Modulus (GPa) = 50.30740 53.62922 51.96831
#
# Velocity S-wave (km/s) = 4.41114 4.55445 4.48337
# Velocity P-wave (km/s) = 7.74342 8.10162 7.92455
#
# Compressibility (1/GPa) = 0.01137055
#
# Stress axis : x y z
#
# Youngs Moduli (GPa) = 79.79127 162.87010 166.23092
#
# Poissons Ratio (x) = 0.45772 0.44050
# Poissons Ratio (y) = 0.22424 0.19925
# Poissons Ratio (z) = 0.21144 0.19522
#
# Static dielectric constant tensor:
#      x y z
#    x 1.669540 0.000000 0.000000 
#    y 0.000000 2.466850 0.000000 
#    z 0.000000 0.000000 2.126990 
# 
# From -- ./inp_files/12850.got.cif
#   From: 2010.05.17/outbox.cif.g08.bks.cpg/sg62_7_cif.got.tgz:12850.got - 2010.06.03 15:25:27.
