data_PCOD9467752
_publ_section_title
;
Structure prediction by ZEFSAII (Michael W. Deem and Ramdas Pophale) SiO2 
 PCOD9467752
Probable space group: P N M A
;
_chemical_formula_sum "Si O2"
_cell_formula_units_Z 64
_cell_length_a 28.564959
_cell_length_b 13.224316
_cell_length_c 6.976111
_cell_angle_alpha 90.000000
_cell_angle_beta 90.000000
_cell_angle_gamma 90.000000
_cell_volume 2635.240192
_symmetry_space_group_name_H-M "P N M A"
_symmetry_group_IT_number 62
_symmetry_cell_setting 'orthorhombic'
loop_
_space_group_symop_operation_xyz
x,y,z
1/2-x,-y,1/2+z
1/2+x,1/2-y,1/2-z
-x,1/2+y,-z
-x,-y,-z
1/2+x,y,1/2-z
1/2-x,1/2+y,1/2+z
x,1/2-y,z
loop_
_atom_site_type_symbol
_atom_site_label
_atom_site_fract_x
_atom_site_fract_y
_atom_site_fract_z
Si Si1 0.773976 0.641600 0.616302
Si Si2 0.002626 0.639117 0.608045
Si Si3 0.423787 0.063782 0.536954
Si Si4 0.798371 0.420219 0.604108
Si Si5 0.103178 0.863875 0.424558
Si Si6 0.016109 0.429500 0.797137
Si Si7 0.826325 0.081002 0.056957
Si Si8 0.805617 0.643144 0.042305
O O1 0.781239 0.750000 0.517494
O O2 0.787675 0.533751 0.529496
O O3 0.718232 0.631714 0.657845
O O4 0.803753 0.643017 0.811137
O O5 0.992226 0.750000 0.688523
O O6 0.058433 0.631915 0.561380
O O7 0.994390 0.538026 0.726942
O O8 0.977453 0.628986 0.400619
O O9 0.404670 0.055468 0.754412
O O10 0.439230 0.963826 0.419541
O O11 0.379962 0.117411 0.433219
O O12 0.473842 0.117977 0.577977
O O13 0.844813 0.381034 0.498954
O O14 0.749561 0.362778 0.589999
O O15 0.810676 0.413959 0.831356
O O16 0.102475 0.750000 0.340590
O O17 0.827808 0.961794 0.106930
O O18 0.826280 0.750000 0.107047
#
# Coordination Sequence:
#
# PCOD9467752 Si02
#       8
#     8   8   8   8   8   8   8   8
#     4   9  18  31  47  69  98 130 163 201 240 283
#     4   9  18  33  53  75  98 129 167 204 247 299
#     4   9  18  32  49  72 100 130 162 200 255 301
#     4   9  17  30  48  68  96 131 162 195 242 291
#     4   9  17  29  48  75 103 129 163 207 249 291
#     4   9  18  34  53  71 100 131 158 205 255 301
#     4   9  18  31  47  69  95 124 161 202 240 285
#     4   9  17  30  46  65  92 127 163 196 237 285
#
# _framework density 24.286211000000002
#
# number of rings (size 3 to 8) (size 9 to 14) (size 15 to 20)
#    0.000    3.000    0.000    0.375    0.000    4.000 
#    0.000    4.375    0.000   12.000    0.000    0.000 
#    0.000    0.000    0.000    0.000    0.000    0.000 
#
# Total GULP energy -356524.702226 kJ/mol
# GULP energy per Si atom -5570.698472 kJ/mol
# Density = 2.423093 g / cm^3
# Si number density = 24.286211 Si / 1000 Ang^3
#
#
#
# Elastic Constant Matrix: (Units=GPa)
#
#
# Indices 1 2 3 4 5 6 
#
# 1 83.2971 0.6472 6.0243 0.0000 0.0000 0.0000
# 2 0.6472 129.1185 4.1637 0.0000 0.0000 0.0000
# 3 6.0243 4.1637 50.4071 0.0000 0.0000 0.0000
# 4 0.0000 0.0000 0.0000 14.0087 0.0000 0.0000
# 5 0.0000 0.0000 0.0000 0.0000 28.0112 0.0000
# 6 0.0000 0.0000 0.0000 0.0000 0.0000 2.1784
#
#
#
# Elastic Compliance Matrix: (Units=1/GPa)
#
#
# Indices 1 2 3 4 5 6 
#
# 1 0.012110 -0.000014 -0.001446 0.000000 0.000000 0.000000
# 2 -0.000014 0.007766 -0.000640 0.000000 0.000000 0.000000
# 3 -0.001446 -0.000640 0.020064 0.000000 0.000000 0.000000
# 4 0.000000 0.000000 0.000000 0.071384 0.000000 0.000000
# 5 0.000000 0.000000 0.000000 0.000000 0.035700 0.000000
# 6 0.000000 0.000000 0.000000 0.000000 0.000000 0.459043
#
#
# Mechanical properties :
#
#
# Convention : Reuss Voigt Hill
#
# Bulk Modulus (GPa) = 27.98010 31.61034 29.79522
# Shear Modulus (GPa) = 8.03626 25.63884 16.83755
#
# Velocity S-wave (km/s) = 1.82103 3.25267 2.63591
# Velocity P-wave (km/s) = 3.99594 5.21061 4.64317
#
# Compressibility (1/GPa) = 0.03573968
#
# Stress axis : x y z
#
# Youngs Moduli (GPa) = 82.57696 128.77427 49.84010
#
# Poissons Ratio (x) = 0.00181 0.07208
# Poissons Ratio (y) = 0.00116 0.03189
# Poissons Ratio (z) = 0.11942 0.08238
#
# Static dielectric constant tensor:
#      x y z
#    x 1.960280 0.000000 0.000000 
#    y 0.000000 1.971230 0.000000 
#    z 0.000000 0.000000 2.091110 
# 
# From -- ./inp_files/10538.got.cif
#   From: 2010.05.17/outbox.cif.g08.bks.cpg/sg62_6_cif.got.tgz:10538.got - 2010.06.03 15:25:27.
