data_PCOD9467340
_publ_section_title
;
Structure prediction by ZEFSAII (Michael W. Deem and Ramdas Pophale) SiO2 
 PCOD9467340
Probable space group: P N M A
;
_chemical_formula_sum "Si O2"
_cell_formula_units_Z 40
_cell_length_a 11.962136
_cell_length_b 19.058403
_cell_length_c 7.029285
_cell_angle_alpha 90.000000
_cell_angle_beta 90.000000
_cell_angle_gamma 90.000000
_cell_volume 1602.530832
_symmetry_space_group_name_H-M "P N M A"
_symmetry_group_IT_number 62
_symmetry_cell_setting 'orthorhombic'
loop_
_space_group_symop_operation_xyz
x,y,z
1/2-x,-y,1/2+z
1/2+x,1/2-y,1/2-z
-x,1/2+y,-z
-x,-y,-z
1/2+x,y,1/2-z
1/2-x,1/2+y,1/2+z
x,1/2-y,z
loop_
_atom_site_type_symbol
_atom_site_label
_atom_site_fract_x
_atom_site_fract_y
_atom_site_fract_z
Si Si1 0.403289 0.535461 0.871156
Si Si2 0.248342 0.167571 0.901577
Si Si3 0.822770 0.435659 0.931978
Si Si4 0.997940 0.830774 0.039536
Si Si5 0.511186 0.670672 0.997797
O O1 0.395631 0.494567 0.674096
O O2 0.435837 0.616270 0.888580
O O3 0.500000 0.500000 0.000000
O O4 0.277342 0.529720 0.952516
O O5 0.249010 0.250000 0.838696
O O6 0.264666 0.115562 0.724545
O O7 0.131268 0.154995 0.002535
O O8 0.356887 0.158359 0.032313
O O9 0.910667 0.384790 0.036304
O O10 0.025757 0.750000 0.993691
O O11 0.000190 0.836881 0.272302
O O12 0.481401 0.750000 0.949868
#
# Coordination Sequence:
#
# PCOD9467340 Si02
#       5
#     8   8   8   8   8
#     4  12  22  38  58  82 120 152 191 234 285 345
#     4   9  15  28  52  84 111 134 180 241 286 324
#     4  11  21  34  55  83 117 156 185 231 285 342
#     4   9  16  29  53  87 114 134 182 249 293 323
#     4   9  17  29  54  81 104 144 187 232 283 332
#
# _framework density 24.960521
#
# number of rings (size 3 to 8) (size 9 to 14) (size 15 to 20)
#    0.000    2.000    6.000    1.800    0.000    0.800 
#    0.000    4.000    0.000    3.600    0.000    0.000 
#    0.000    0.000    0.000    0.000    0.000    0.000 
#
# Total GULP energy -224006.620512 kJ/mol
# GULP energy per Si atom -5600.165513 kJ/mol
# Density = 2.490371 g / cm^3
# Si number density = 24.960521 Si / 1000 Ang^3
#
#
#
# Elastic Constant Matrix: (Units=GPa)
#
#
# Indices 1 2 3 4 5 6 
#
# 1 140.3998 41.1303 18.1697 0.0000 0.0000 0.0000
# 2 41.1303 99.7951 24.9310 0.0000 0.0000 0.0000
# 3 18.1697 24.9310 77.0848 0.0000 0.0000 0.0000
# 4 0.0000 0.0000 0.0000 -2.3061 0.0000 0.0000
# 5 0.0000 0.0000 0.0000 0.0000 21.6593 0.0000
# 6 0.0000 0.0000 0.0000 0.0000 0.0000 54.7511
#
#
#
# Elastic Compliance Matrix: (Units=1/GPa)
#
#
# Indices 1 2 3 4 5 6 
#
# 1 0.008159 -0.003136 -0.000909 0.000000 0.000000 0.000000
# 2 -0.003136 0.012106 -0.003176 0.000000 0.000000 0.000000
# 3 -0.000909 -0.003176 0.014214 0.000000 0.000000 0.000000
# 4 0.000000 0.000000 0.000000 -0.433629 0.000000 0.000000
# 5 0.000000 0.000000 0.000000 0.000000 0.046170 0.000000
# 6 0.000000 0.000000 0.000000 0.000000 0.000000 0.018264
#
#
# Mechanical properties :
#
#
# Convention : Reuss Voigt Hill
#
# Bulk Modulus (GPa) = 49.90629 53.97130 51.93880
# Shear Modulus (GPa) = -15.94413 30.35743 7.20665
#
# Velocity S-wave (km/s) = -2.53014 3.49121 1.70102
# Velocity P-wave (km/s) = 3.39146 6.15801 4.97107
#
# Compressibility (1/GPa) = 0.02003755
#
# Stress axis : x y z
#
# Youngs Moduli (GPa) = 122.56848 82.60118 70.35167
#
# Poissons Ratio (x) = 0.25900 0.06395
# Poissons Ratio (y) = 0.38431 0.22347
# Poissons Ratio (z) = 0.11141 0.26238
#
# Static dielectric constant tensor:
#      x y z
#    x 1.969920 0.000000 0.000000 
#    y 0.000000 1.979910 0.000000 
#    z 0.000000 0.000000 1.991340 
# 
# From -- ./inp_files/5178.got.cif
#   From: 2010.05.17/outbox.cif.g08.bks.cpg/sg62_3_cif.got.tgz:5178.got - 2010.06.03 15:25:27.
