data_PCOD9467194
_publ_section_title
;
Structure prediction by ZEFSAII (Michael W. Deem and Ramdas Pophale) SiO2 
 PCOD9467194
Probable space group: P N M A
;
_chemical_formula_sum "Si O2"
_cell_formula_units_Z 28
_cell_length_a 7.873886
_cell_length_b 9.088981
_cell_length_c 15.252967
_cell_angle_alpha 90.000000
_cell_angle_beta 90.000000
_cell_angle_gamma 90.000000
_cell_volume 1091.587739
_symmetry_space_group_name_H-M "P N M A"
_symmetry_group_IT_number 62
_symmetry_cell_setting 'orthorhombic'
loop_
_space_group_symop_operation_xyz
x,y,z
1/2-x,-y,1/2+z
1/2+x,1/2-y,1/2-z
-x,1/2+y,-z
-x,-y,-z
1/2+x,y,1/2-z
1/2-x,1/2+y,1/2+z
x,1/2-y,z
loop_
_atom_site_type_symbol
_atom_site_label
_atom_site_fract_x
_atom_site_fract_y
_atom_site_fract_z
Si Si1 0.033233 0.250000 0.446070
Si Si2 0.952181 0.915355 0.879621
Si Si3 0.031369 0.750000 0.360328
Si Si4 0.668309 0.750000 0.423041
Si Si5 0.667853 0.451128 0.190014
O O1 0.219932 0.250000 0.488990
O O2 0.031151 0.115858 0.379287
O O3 0.924352 0.250000 0.534540
O O4 0.925540 0.750000 0.924005
O O5 0.846380 0.903422 0.789661
O O6 0.146271 0.923325 0.847120
O O7 0.914131 0.082807 0.917930
O O8 0.115498 0.616563 0.312969
O O9 0.827506 0.750000 0.354671
#
# Coordination Sequence:
#
# PCOD9467194 Si02
#       5
#     4   8   4   4   8
#     4  10  24  46  68 104 143 183 236 284 360 423
#     4  12  24  45  74 103 140 185 238 293 345 419
#     4  10  24  44  69  99 141 185 228 289 351 420
#     4  10  26  46  69 107 140 184 232 291 355 423
#     4  12  23  46  70 105 140 184 237 293 348 418
#
# _framework density 25.650711000000001
#
# number of rings (size 3 to 8) (size 9 to 14) (size 15 to 20)
#    0.857    0.000    2.857    4.286    0.000    1.143 
#    5.143    0.000    0.000    0.000    0.000    0.000 
#    0.000    0.000    0.000    0.000    0.000    0.000 
#
# Total GULP energy -156041.574534 kJ/mol
# GULP energy per Si atom -5572.913376 kJ/mol
# Density = 2.559233 g / cm^3
# Si number density = 25.650711 Si / 1000 Ang^3
#
#
#
# Elastic Constant Matrix: (Units=GPa)
#
#
# Indices 1 2 3 4 5 6 
#
# 1 91.6132 37.3296 11.1916 0.0000 0.0000 0.0000
# 2 37.3296 284.3460 38.7693 0.0000 0.0000 0.0000
# 3 11.1916 38.7693 61.9157 0.0000 0.0000 0.0000
# 4 0.0000 0.0000 0.0000 97.9277 0.0000 0.0000
# 5 0.0000 0.0000 0.0000 0.0000 37.2367 0.0000
# 6 0.0000 0.0000 0.0000 0.0000 0.0000 77.2728
#
#
#
# Elastic Compliance Matrix: (Units=1/GPa)
#
#
# Indices 1 2 3 4 5 6 
#
# 1 0.011620 -0.001355 -0.001252 0.000000 0.000000 0.000000
# 2 -0.001355 0.004003 -0.002262 0.000000 0.000000 0.000000
# 3 -0.001252 -0.002262 0.017794 0.000000 0.000000 0.000000
# 4 0.000000 0.000000 0.000000 0.010212 0.000000 0.000000
# 5 0.000000 0.000000 0.000000 0.000000 0.026855 0.000000
# 6 0.000000 0.000000 0.000000 0.000000 0.000000 0.012941
#
#
# Mechanical properties :
#
#
# Convention : Reuss Voigt Hill
#
# Bulk Modulus (GPa) = 42.23013 68.05066 55.14040
# Shear Modulus (GPa) = 49.47771 65.85973 57.66872
#
# Velocity S-wave (km/s) = 4.39669 5.07261 4.74670
# Velocity P-wave (km/s) = 6.50183 7.80357 7.18226
#
# Compressibility (1/GPa) = 0.02367978
#
# Stress axis : x y z
#
# Youngs Moduli (GPa) = 86.05498 249.80766 56.20026
#
# Poissons Ratio (x) = 0.33845 0.07037
# Poissons Ratio (y) = 0.11659 0.12711
# Poissons Ratio (z) = 0.10775 0.56499
#
# Static dielectric constant tensor:
#      x y z
#    x 2.003680 0.000000 0.000000 
#    y 0.000000 1.635640 0.000000 
#    z 0.000000 0.000000 2.010980 
# 
# From -- ./inp_files/21811.got.cif
#   From: 2010.05.17/outbox.cif.g08.bks.cpg/sg62_11_cif.got.tgz:21811.got - 2010.06.03 15:25:27.
