data_PCOD9467863
_publ_section_title
;
Structure prediction by ZEFSAII (Michael W. Deem and Ramdas Pophale) SiO2 
 PCOD9467863
Probable space group: P N M A
;
_chemical_formula_sum "Si O2"
_cell_formula_units_Z 56
_cell_length_a 21.000000
_cell_length_b 9.000000
_cell_length_c 15.000000
_cell_angle_alpha 90.000000
_cell_angle_beta 90.000000
_cell_angle_gamma 90.000000
_cell_volume 2835.000000
_symmetry_space_group_name_H-M "P N M A"
_symmetry_group_IT_number 62
_symmetry_cell_setting 'orthorhombic'
loop_
_space_group_symop_operation_xyz
x,y,z
1/2-x,-y,1/2+z
1/2+x,1/2-y,1/2-z
-x,1/2+y,-z
-x,-y,-z
1/2+x,y,1/2-z
1/2-x,1/2+y,1/2+z
x,1/2-y,z
loop_
_atom_site_type_symbol
_atom_site_label
_atom_site_fract_x
_atom_site_fract_y
_atom_site_fract_z
Si Si1 0.159022 0.428295 0.844752
Si Si2 0.350403 0.081209 0.933442
Si Si3 0.752592 0.927241 0.806133
Si Si4 0.543460 0.919235 0.928808
Si Si5 0.733596 0.925261 0.500086
Si Si6 0.104333 0.424274 0.267611
Si Si7 0.466134 0.071707 0.274996
O O1 0.164284 0.250000 0.841669
O O2 0.204538 0.498690 0.766294
O O3 0.180575 0.490891 0.941236
O O4 0.086902 0.483007 0.828596
O O5 0.326632 0.250000 0.917797
O O6 0.295880 0.959385 0.940430
O O7 0.396028 0.030699 0.853525
O O8 0.387394 0.080263 0.026601
O O9 0.738513 0.750000 0.811743
O O10 0.826322 0.944987 0.775444
O O11 0.752004 0.002787 0.903730
O O12 0.520733 0.750000 0.923972
O O13 0.543890 0.974679 0.828464
O O14 0.500000 0.000000 0.000000
O O15 0.721448 0.750000 0.492606
O O16 0.099460 0.250000 0.293535
O O17 0.041473 0.454697 0.208398
O O18 0.454259 0.250000 0.283008
#
# Coordination Sequence:
#
# PCOD9467863 Si02
#       7
#     8   8   8   8   8   8   8
#     4  12  25  42  65  96 129 168 212 263 320 380
#     4  11  21  34  57  89 124 161 202 255 313 374
#     4  11  23  42  67  96 128 165 212 266 319 380
#     4  10  20  32  52  83 120 159 199 245 301 368
#     4  12  25  42  65  92 123 165 213 265 319 377
#     4  10  21  38  63  90 122 166 209 253 312 376
#     4  10  21  39  60  87 126 170 211 258 315 377
#
# _framework density 19.753086
#
# number of rings (size 3 to 8) (size 9 to 14) (size 15 to 20)
#    0.000    1.143    2.857    4.286    0.000    3.429 
#    0.000    0.714    0.000    0.000    0.000    0.000 
#    0.000    0.000    0.000    0.000    0.000    0.000 
#
# Total GULP energy -312655.287119 kJ/mol
# GULP energy per Si atom -5583.130127 kJ/mol
# Density = 1.970813 g / cm^3
# Si number density = 19.753086 Si / 1000 Ang^3
#
#
#
# Elastic Constant Matrix: (Units=GPa)
#
#
# Indices 1 2 3 4 5 6 
#
# 1 91.1226 29.9526 3.1523 0.0000 0.0000 0.0000
# 2 29.9526 108.3214 25.2789 0.0000 0.0000 0.0000
# 3 3.1523 25.2789 52.2335 0.0000 0.0000 0.0000
# 4 0.0000 0.0000 0.0000 26.4555 0.0000 0.0000
# 5 0.0000 0.0000 0.0000 0.0000 34.8403 0.0000
# 6 0.0000 0.0000 0.0000 0.0000 0.0000 27.8355
#
#
#
# Elastic Compliance Matrix: (Units=1/GPa)
#
#
# Indices 1 2 3 4 5 6 
#
# 1 0.012118 -0.003585 0.001004 0.000000 0.000000 0.000000
# 2 -0.003585 0.011468 -0.005334 0.000000 0.000000 0.000000
# 3 0.001004 -0.005334 0.021665 0.000000 0.000000 0.000000
# 4 0.000000 0.000000 0.000000 0.037799 0.000000 0.000000
# 5 0.000000 0.000000 0.000000 0.000000 0.028702 0.000000
# 6 0.000000 0.000000 0.000000 0.000000 0.000000 0.035925
#
#
# Mechanical properties :
#
#
# Convention : Reuss Voigt Hill
#
# Bulk Modulus (GPa) = 33.98896 40.93836 37.46366
# Shear Modulus (GPa) = 28.84918 30.71252 29.78085
#
# Velocity S-wave (km/s) = 3.82578 3.94740 3.88707
# Velocity P-wave (km/s) = 6.06298 6.44562 6.25722
#
# Compressibility (1/GPa) = 0.02942132
#
# Stress axis : x y z
#
# Youngs Moduli (GPa) = 82.52237 87.20069 46.15641
#
# Poissons Ratio (x) = 0.31262 -0.04633
# Poissons Ratio (y) = 0.29585 0.24618
# Poissons Ratio (z) = -0.08283 0.46509
#
# Static dielectric constant tensor:
#      x y z
#    x 1.764750 0.000000 0.000000 
#    y 0.000000 1.673480 0.000000 
#    z 0.000000 0.000000 1.703360 
# 
# From -- ./inp_files/20257.got.cif
#   From: 2010.05.17/outbox.ucp.g08.bks.cvg/sg62_11_cif.got.tgz:20257.got - 2010.06.11 16:29:25.
