data_PCOD9467252
_publ_section_title
;
Structure prediction by ZEFSAII (Michael W. Deem and Ramdas Pophale) SiO2 
 PCOD9467252
Probable space group: P N M A
;
_chemical_formula_sum "Si O2"
_cell_formula_units_Z 36
_cell_length_a 8.147631
_cell_length_b 19.864254
_cell_length_c 8.892641
_cell_angle_alpha 90.000000
_cell_angle_beta 90.000000
_cell_angle_gamma 90.000000
_cell_volume 1439.243815
_symmetry_space_group_name_H-M "P N M A"
_symmetry_group_IT_number 62
_symmetry_cell_setting 'orthorhombic'
loop_
_space_group_symop_operation_xyz
x,y,z
1/2-x,-y,1/2+z
1/2+x,1/2-y,1/2-z
-x,1/2+y,-z
-x,-y,-z
1/2+x,y,1/2-z
1/2-x,1/2+y,1/2+z
x,1/2-y,z
loop_
_atom_site_type_symbol
_atom_site_label
_atom_site_fract_x
_atom_site_fract_y
_atom_site_fract_z
Si Si1 0.241859 0.614353 0.706486
Si Si2 0.546572 0.859005 0.513735
Si Si3 0.023688 0.614301 0.433848
Si Si4 0.021526 0.750000 0.253059
Si Si5 0.295440 0.041851 0.685117
O O1 0.193170 0.645886 0.865484
O O2 0.379341 0.650088 0.605923
O O3 0.076565 0.613835 0.605929
O O4 0.294596 0.536505 0.718968
O O5 0.552915 0.807508 0.377386
O O6 0.567670 0.931468 0.432206
O O7 0.993451 0.689671 0.376341
O O8 0.175423 0.583103 0.338543
O O9 0.873836 0.566232 0.389365
#
# Coordination Sequence:
#
# PCOD9467252 Si02
#       5
#     8   8   8   4   8
#     4  12  23  42  67  99 127 169 215 269 329 375
#     4  11  25  41  64  93 134 170 211 270 315 386
#     4  11  23  40  68  93 132 174 212 267 314 391
#     4  10  26  46  62  94 128 174 224 254 326 386
#     4  11  22  41  66 100 131 167 214 267 327 382
#
# _framework density 25.013134999999998
#
# number of rings (size 3 to 8) (size 9 to 14) (size 15 to 20)
#    0.000    0.889    0.000    8.000    0.000    9.778 
#    0.000    0.000    0.000    0.000    0.000    0.000 
#    0.000    0.000    0.000    0.000    0.000    0.000 
#
# Total GULP energy -200745.299181 kJ/mol
# GULP energy per Si atom -5576.258311 kJ/mol
# Density = 2.495620 g / cm^3
# Si number density = 25.013135 Si / 1000 Ang^3
#
#
#
# Elastic Constant Matrix: (Units=GPa)
#
#
# Indices 1 2 3 4 5 6 
#
# 1 79.5269 -0.3329 -1.6322 0.0000 0.0000 0.0000
# 2 -0.3329 124.7218 14.6085 0.0000 0.0000 0.0000
# 3 -1.6322 14.6085 110.3679 0.0000 0.0000 0.0000
# 4 0.0000 0.0000 0.0000 2.3871 0.0000 0.0000
# 5 0.0000 0.0000 0.0000 0.0000 33.5765 0.0000
# 6 0.0000 0.0000 0.0000 0.0000 0.0000 -24.4559
#
#
#
# Elastic Compliance Matrix: (Units=1/GPa)
#
#
# Indices 1 2 3 4 5 6 
#
# 1 0.012578 0.000012 0.000184 0.000000 0.000000 0.000000
# 2 0.000012 0.008144 -0.001078 0.000000 0.000000 0.000000
# 3 0.000184 -0.001078 0.009206 0.000000 0.000000 0.000000
# 4 0.000000 0.000000 0.000000 0.418916 0.000000 0.000000
# 5 0.000000 0.000000 0.000000 0.000000 0.029783 0.000000
# 6 0.000000 0.000000 0.000000 0.000000 0.000000 -0.040890
#
#
# Mechanical properties :
#
#
# Convention : Reuss Voigt Hill
#
# Bulk Modulus (GPa) = 35.50440 37.76705 36.63572
# Shear Modulus (GPa) = 11.13861 22.43309 16.78585
#
# Velocity S-wave (km/s) = 2.11253 2.99800 2.59333
# Velocity P-wave (km/s) = 4.49171 5.20727 4.86267
#
# Compressibility (1/GPa) = 0.02816552
#
# Stress axis : x y z
#
# Youngs Moduli (GPa) = 79.50262 122.78803 108.62492
#
# Poissons Ratio (x) = -0.00147 -0.02003
# Poissons Ratio (y) = -0.00095 0.11708
# Poissons Ratio (z) = -0.01466 0.13234
#
# Static dielectric constant tensor:
#      x y z
#    x 2.124760 0.000000 0.000000 
#    y 0.000000 1.889550 0.000000 
#    z 0.000000 0.000000 1.957250 
# 
# From -- ./inp_files/4165.got.cif
#   From: 2010.05.17/outbox.cif.g08.bks.cpg/sg62_3_cif.got.tgz:4165.got - 2010.06.03 15:25:27.
