data_PCOD9467129
_publ_section_title
;
Structure prediction by ZEFSAII (Michael W. Deem and Ramdas Pophale) SiO2 
 PCOD9467129
Probable space group: P N M A
;
_chemical_formula_sum "Si O2"
_cell_formula_units_Z 48
_cell_length_a 8.973689
_cell_length_b 27.028782
_cell_length_c 7.804261
_cell_angle_alpha 90.000000
_cell_angle_beta 90.000000
_cell_angle_gamma 90.000000
_cell_volume 1892.906990
_symmetry_space_group_name_H-M "P N M A"
_symmetry_group_IT_number 62
_symmetry_cell_setting 'orthorhombic'
loop_
_space_group_symop_operation_xyz
x,y,z
1/2-x,-y,1/2+z
1/2+x,1/2-y,1/2-z
-x,1/2+y,-z
-x,-y,-z
1/2+x,y,1/2-z
1/2-x,1/2+y,1/2+z
x,1/2-y,z
loop_
_atom_site_type_symbol
_atom_site_label
_atom_site_fract_x
_atom_site_fract_y
_atom_site_fract_z
Si Si1 0.420887 0.696949 0.541558
Si Si2 0.043952 0.984827 0.734562
Si Si3 0.886965 0.907468 0.947552
Si Si4 0.205923 0.554163 0.240250
Si Si5 0.061524 0.696488 0.579921
Si Si6 0.381212 0.599463 0.941653
O O1 0.456018 0.750000 0.455322
O O2 0.456260 0.642527 0.471832
O O3 0.509461 0.697717 0.721657
O O4 0.240488 0.695526 0.563725
O O5 0.963629 0.037653 0.756268
O O6 0.214056 0.000193 0.717556
O O7 0.005644 0.949474 0.894498
O O8 0.975520 0.951077 0.585696
O O9 0.823177 0.893121 0.755627
O O10 0.763967 0.925490 0.079502
O O11 0.262415 0.588707 0.087954
O O12 0.011365 0.750000 0.505980
O O13 0.981313 0.647095 0.511987
#
# Coordination Sequence:
#
# PCOD9467129 Si02
#       6
#     8   8   8   8   8   8
#     4   9  18  35  59  87 116 149 191 239 290 345
#     4  10  24  36  59  82 119 152 195 232 283 337
#     4   9  22  36  59  84 114 149 190 234 283 337
#     4  12  22  42  53  86 117 156 189 242 276 341
#     4   9  18  35  59  88 116 147 192 240 289 343
#     4   9  22  36  61  84 112 154 191 232 286 341
#
# _framework density 25.357821999999999
#
# number of rings (size 3 to 8) (size 9 to 14) (size 15 to 20)
#    1.000    1.333    0.000    2.000    4.667    0.000 
#   12.000    0.833    0.000    0.000    0.000    0.000 
#    0.000    0.000    0.000    0.000    0.000    0.000 
#
# Total GULP energy -268047.770662 kJ/mol
# GULP energy per Si atom -5584.328555 kJ/mol
# Density = 2.530011 g / cm^3
# Si number density = 25.357822 Si / 1000 Ang^3
#
#
#
# Elastic Constant Matrix: (Units=GPa)
#
#
# Indices 1 2 3 4 5 6 
#
# 1 73.3046 7.6119 15.6728 0.0000 0.0000 0.0000
# 2 7.6119 144.0869 0.0168 0.0000 0.0000 0.0000
# 3 15.6728 0.0168 102.5659 0.0000 0.0000 0.0000
# 4 0.0000 0.0000 0.0000 9.7763 0.0000 0.0000
# 5 0.0000 0.0000 0.0000 0.0000 26.9182 0.0000
# 6 0.0000 0.0000 0.0000 0.0000 0.0000 37.2661
#
#
#
# Elastic Compliance Matrix: (Units=1/GPa)
#
#
# Indices 1 2 3 4 5 6 
#
# 1 0.014183 -0.000749 -0.002167 0.000000 0.000000 0.000000
# 2 -0.000749 0.006980 0.000113 0.000000 0.000000 0.000000
# 3 -0.002167 0.000113 0.010081 0.000000 0.000000 0.000000
# 4 0.000000 0.000000 0.000000 0.102288 0.000000 0.000000
# 5 0.000000 0.000000 0.000000 0.000000 0.037150 0.000000
# 6 0.000000 0.000000 0.000000 0.000000 0.000000 0.026834
#
#
# Mechanical properties :
#
#
# Convention : Reuss Voigt Hill
#
# Bulk Modulus (GPa) = 39.00462 40.72892 39.86677
# Shear Modulus (GPa) = 23.62205 34.56918 29.09562
#
# Velocity S-wave (km/s) = 3.05544 3.69623 3.39101
# Velocity P-wave (km/s) = 5.27851 5.85771 5.57564
#
# Compressibility (1/GPa) = 0.02563799
#
# Stress axis : x y z
#
# Youngs Moduli (GPa) = 70.50780 143.27036 99.19689
#
# Poissons Ratio (x) = 0.10731 0.21497
# Poissons Ratio (y) = 0.05281 -0.01124
# Poissons Ratio (z) = 0.15280 -0.01623
#
# Static dielectric constant tensor:
#      x y z
#    x 1.958530 0.000000 0.000000 
#    y 0.000000 2.077460 0.000000 
#    z 0.000000 0.000000 2.043880 
# 
# From -- ./inp_files/5375.got.cif
#   From: 2010.05.17/outbox.cif.g08.bks.cpg/sg62_3_cif.got.tgz:5375.got - 2010.06.03 15:25:27.
