data_PCOD9467039
_publ_section_title
;
Structure prediction by ZEFSAII (Michael W. Deem and Ramdas Pophale) SiO2 
 PCOD9467039
Probable space group: P N M A
;
_chemical_formula_sum "Si O2"
_cell_formula_units_Z 60
_cell_length_a 17.486941
_cell_length_b 27.305715
_cell_length_c 5.111981
_cell_angle_alpha 90.000000
_cell_angle_beta 90.000000
_cell_angle_gamma 90.000000
_cell_volume 2440.937327
_symmetry_space_group_name_H-M "P N M A"
_symmetry_group_IT_number 62
_symmetry_cell_setting 'orthorhombic'
loop_
_space_group_symop_operation_xyz
x,y,z
1/2-x,-y,1/2+z
1/2+x,1/2-y,1/2-z
-x,1/2+y,-z
-x,-y,-z
1/2+x,y,1/2-z
1/2-x,1/2+y,1/2+z
x,1/2-y,z
loop_
_atom_site_type_symbol
_atom_site_label
_atom_site_fract_x
_atom_site_fract_y
_atom_site_fract_z
Si Si1 0.788968 0.479780 0.733122
Si Si2 0.915994 0.618979 0.127047
Si Si3 0.017454 0.195820 0.173019
Si Si4 0.121352 0.750000 0.828128
Si Si5 0.054412 0.471083 0.198198
Si Si6 0.538925 0.893892 0.014698
Si Si7 0.304105 0.156788 0.042717
Si Si8 0.769912 0.622306 0.446966
O O1 0.750493 0.484690 0.449102
O O2 0.877871 0.493781 0.704541
O O3 0.772444 0.427639 0.866657
O O4 0.917668 0.673170 0.007582
O O5 0.005473 0.609445 0.194879
O O6 0.857952 0.616102 0.366266
O O7 0.899990 0.573429 0.941530
O O8 0.034984 0.250000 0.287607
O O9 0.000850 0.153731 0.380765
O O10 0.936044 0.207876 0.036329
O O11 0.163056 0.793074 0.656803
O O12 0.998741 0.442887 0.398509
O O13 0.000000 0.500000 0.000000
O O14 0.627329 0.883036 0.976295
O O15 0.244454 0.137112 0.257257
O O16 0.266265 0.161344 0.757438
#
# Coordination Sequence:
#
# PCOD9467039 Si02
#       8
#     8   8   8   4   8   8   8   8
#     4  12  25  46  71  99 142 195 234 292 369 441
#     4  11  24  44  69 100 145 187 234 311 357 435
#     4   8  19  41  69  99 131 178 233 281 358 423
#     4   8  20  48  68 106 136 184 236 296 354 432
#     4  11  25  43  67 101 136 180 246 302 350 429
#     4  10  23  42  71  98 137 182 242 302 354 425
#     4  11  26  46  74 102 143 192 239 299 361 444
#     4  12  27  46  69 104 148 193 239 294 376 432
#
# _framework density 24.580719999999999
#
# number of rings (size 3 to 8) (size 9 to 14) (size 15 to 20)
#    0.400    1.067    1.333    2.400   11.200    1.600 
#    4.800    0.000    0.000    0.000    0.000    0.000 
#    0.000    0.000    0.000    0.000    0.000    0.000 
#
# Total GULP energy -334298.682285 kJ/mol
# GULP energy per Si atom -5571.644705 kJ/mol
# Density = 2.452477 g / cm^3
# Si number density = 24.580720 Si / 1000 Ang^3
#
#
#
# Elastic Constant Matrix: (Units=GPa)
#
#
# Indices 1 2 3 4 5 6 
#
# 1 118.2415 22.0297 31.9571 0.0000 0.0000 0.0000
# 2 22.0297 105.6133 3.3724 0.0000 0.0000 0.0000
# 3 31.9571 3.3724 57.0678 0.0000 0.0000 0.0000
# 4 0.0000 0.0000 0.0000 18.0309 0.0000 0.0000
# 5 0.0000 0.0000 0.0000 0.0000 46.0918 0.0000
# 6 0.0000 0.0000 0.0000 0.0000 0.0000 69.9951
#
#
#
# Elastic Compliance Matrix: (Units=1/GPa)
#
#
# Indices 1 2 3 4 5 6 
#
# 1 0.010363 -0.001980 -0.005686 0.000000 0.000000 0.000000
# 2 -0.001980 0.009865 0.000526 0.000000 0.000000 0.000000
# 3 -0.005686 0.000526 0.020676 0.000000 0.000000 0.000000
# 4 0.000000 0.000000 0.000000 0.055460 0.000000 0.000000
# 5 0.000000 0.000000 0.000000 0.000000 0.021696 0.000000
# 6 0.000000 0.000000 0.000000 0.000000 0.000000 0.014287
#
#
# Mechanical properties :
#
#
# Convention : Reuss Voigt Hill
#
# Bulk Modulus (GPa) = 37.56126 43.96011 40.76068
# Shear Modulus (GPa) = 32.15400 41.72778 36.94089
#
# Velocity S-wave (km/s) = 3.62069 4.12464 3.88085
# Velocity P-wave (km/s) = 5.72653 6.37231 6.05803
#
# Compressibility (1/GPa) = 0.02662318
#
# Stress axis : x y z
#
# Youngs Moduli (GPa) = 96.49763 101.37135 48.36510
#
# Poissons Ratio (x) = 0.20072 0.27501
# Poissons Ratio (y) = 0.19107 -0.02543
# Poissons Ratio (z) = 0.54869 -0.05330
#
# Static dielectric constant tensor:
#      x y z
#    x 2.007960 0.000000 0.000000 
#    y 0.000000 1.972820 0.000000 
#    z 0.000000 0.000000 2.012430 
# 
# From -- ./inp_files/1860.got.cif
#   From: 2010.05.17/outbox.cif.g08.bks.cpg/sg62_1_cif.got.tgz:1860.got - 2010.06.03 15:25:27.
