data_PCOD9467170
_publ_section_title
;
Structure prediction by ZEFSAII (Michael W. Deem and Ramdas Pophale) SiO2 
 PCOD9467170
Probable space group: P N M A
;
_chemical_formula_sum "Si O2"
_cell_formula_units_Z 64
_cell_length_a 8.624345
_cell_length_b 27.697457
_cell_length_c 12.281508
_cell_angle_alpha 90.000000
_cell_angle_beta 90.000000
_cell_angle_gamma 90.000000
_cell_volume 2933.713596
_symmetry_space_group_name_H-M "P N M A"
_symmetry_group_IT_number 62
_symmetry_cell_setting 'orthorhombic'
loop_
_space_group_symop_operation_xyz
x,y,z
1/2-x,-y,1/2+z
1/2+x,1/2-y,1/2-z
-x,1/2+y,-z
-x,-y,-z
1/2+x,y,1/2-z
1/2-x,1/2+y,1/2+z
x,1/2-y,z
loop_
_atom_site_type_symbol
_atom_site_label
_atom_site_fract_x
_atom_site_fract_y
_atom_site_fract_z
Si Si1 0.458925 0.630657 0.015794
Si Si2 0.056138 0.974267 0.771236
Si Si3 0.048597 0.560846 0.075979
Si Si4 0.370522 0.528120 0.066111
Si Si5 0.817669 0.629693 0.948643
Si Si6 0.693188 0.403397 0.203245
Si Si7 0.216592 0.654686 0.179680
Si Si8 0.900091 0.804496 0.127429
O O1 0.638506 0.635160 0.985997
O O2 0.368011 0.624947 0.901282
O O3 0.445349 0.580464 0.082281
O O4 0.355655 0.664639 0.093209
O O5 0.135350 0.924490 0.809027
O O6 0.906128 0.952484 0.711869
O O7 0.155160 0.998862 0.675814
O O8 0.018513 0.017222 0.853067
O O9 0.200730 0.538070 0.017439
O O10 0.129928 0.603875 0.148090
O O11 0.912982 0.584749 0.002996
O O12 0.500000 0.500000 0.000000
O O13 0.817666 0.623994 0.818583
O O14 0.898524 0.675745 0.004118
O O15 0.295230 0.660088 0.297448
O O16 0.075536 0.691689 0.169355
O O17 0.842228 0.750000 0.135161
#
# Coordination Sequence:
#
# PCOD9467170 Si02
#       8
#     8   8   8   8   8   8   8   8
#     4  11  25  42  64  92 132 177 220 269 335 387
#     4  12  25  38  59  89 129 180 239 280 313 371
#     4  10  26  40  60  92 131 180 228 280 331 376
#     4  11  22  38  55  85 123 174 227 279 314 362
#     4  11  26  43  69  94 132 177 220 278 343 398
#     4  12  25  42  61  92 130 186 232 275 317 383
#     4  10  24  43  70 100 133 170 206 269 338 404
#     4  11  24  45  76 106 130 159 208 269 339 420
#
# _framework density 21.815353999999999
#
# number of rings (size 3 to 8) (size 9 to 14) (size 15 to 20)
#    0.000    1.000    3.750    1.125   15.750    1.500 
#    0.000    0.625    0.000    3.750    0.000    0.000 
#    0.000    0.000    0.000    0.000    0.000    0.000 
#
# Total GULP energy -357209.105140 kJ/mol
# GULP energy per Si atom -5581.392268 kJ/mol
# Density = 2.176570 g / cm^3
# Si number density = 21.815354 Si / 1000 Ang^3
#
#
#
# Elastic Constant Matrix: (Units=GPa)
#
#
# Indices 1 2 3 4 5 6 
#
# 1 103.4337 13.6384 32.4548 0.0000 0.0000 0.0000
# 2 13.6384 47.1005 28.2052 0.0000 0.0000 0.0000
# 3 32.4548 28.2052 126.8175 0.0000 0.0000 0.0000
# 4 0.0000 0.0000 0.0000 12.0404 0.0000 0.0000
# 5 0.0000 0.0000 0.0000 0.0000 35.1397 0.0000
# 6 0.0000 0.0000 0.0000 0.0000 0.0000 21.3571
#
#
#
# Elastic Compliance Matrix: (Units=1/GPa)
#
#
# Indices 1 2 3 4 5 6 
#
# 1 0.010625 -0.001671 -0.002348 0.000000 0.000000 0.000000
# 2 -0.001671 0.024756 -0.005078 0.000000 0.000000 0.000000
# 3 -0.002348 -0.005078 0.009616 0.000000 0.000000 0.000000
# 4 0.000000 0.000000 0.000000 0.083054 0.000000 0.000000
# 5 0.000000 0.000000 0.000000 0.000000 0.028458 0.000000
# 6 0.000000 0.000000 0.000000 0.000000 0.000000 0.046823
#
#
# Mechanical properties :
#
#
# Convention : Reuss Voigt Hill
#
# Bulk Modulus (GPa) = 37.30887 47.32760 42.31824
# Shear Modulus (GPa) = 21.69584 27.24433 24.47008
#
# Velocity S-wave (km/s) = 3.15702 3.53776 3.35280
# Velocity P-wave (km/s) = 5.51619 6.19914 5.86761
#
# Compressibility (1/GPa) = 0.02680327
#
# Stress axis : x y z
#
# Youngs Moduli (GPa) = 94.11843 40.39411 103.99785
#
# Poissons Ratio (x) = 0.06749 0.24413
# Poissons Ratio (y) = 0.15725 0.52814
# Poissons Ratio (z) = 0.22094 0.20514
#
# Static dielectric constant tensor:
#      x y z
#    x 1.869910 0.000000 0.000000 
#    y 0.000000 1.830360 0.000000 
#    z 0.000000 0.000000 1.858460 
# 
# From -- ./inp_files/11552.got.cif
#   From: 2010.05.17/outbox.cif.g08.bks.cpg/sg62_6_cif.got.tgz:11552.got - 2010.06.03 15:25:27.
