data_PCOD9467050
_publ_section_title
;
Structure prediction by ZEFSAII (Michael W. Deem and Ramdas Pophale) SiO2 
 PCOD9467050
Probable space group: P N M A
;
_chemical_formula_sum "Si O2"
_cell_formula_units_Z 48
_cell_length_a 15.059892
_cell_length_b 8.818991
_cell_length_c 18.953521
_cell_angle_alpha 90.000000
_cell_angle_beta 90.000000
_cell_angle_gamma 90.000000
_cell_volume 2517.274970
_symmetry_space_group_name_H-M "P N M A"
_symmetry_group_IT_number 62
_symmetry_cell_setting 'orthorhombic'
loop_
_space_group_symop_operation_xyz
x,y,z
1/2-x,-y,1/2+z
1/2+x,1/2-y,1/2-z
-x,1/2+y,-z
-x,-y,-z
1/2+x,y,1/2-z
1/2-x,1/2+y,1/2+z
x,1/2-y,z
loop_
_atom_site_type_symbol
_atom_site_label
_atom_site_fract_x
_atom_site_fract_y
_atom_site_fract_z
Si Si1 0.494976 0.430892 0.283080
Si Si2 0.948201 0.931660 0.066181
Si Si3 0.594051 0.568066 0.976731
Si Si4 0.801795 0.929616 0.742439
Si Si5 0.645566 0.430598 0.826227
Si Si6 0.755792 0.431364 0.591634
O O1 0.479565 0.250000 0.284001
O O2 0.483615 0.497374 0.361149
O O3 0.594374 0.458912 0.255214
O O4 0.424514 0.508793 0.231399
O O5 0.958615 0.750000 0.067563
O O6 0.842757 0.965666 0.063411
O O7 0.000000 0.000000 0.000000
O O8 0.587476 0.750000 0.972262
O O9 0.621968 0.502103 0.901382
O O10 0.500000 0.500000 0.000000
O O11 0.668999 0.530071 0.034691
O O12 0.786053 0.750000 0.749269
O O13 0.741522 0.015747 0.799169
O O14 0.773547 0.984437 0.664921
O O15 0.641099 0.250000 0.829897
O O16 0.759783 0.250000 0.604870
#
# Coordination Sequence:
#
# PCOD9467050 Si02
#       6
#     8   8   8   8   8   8
#     4  11  24  43  67  96 128 167 214 266 322 381
#     4  11  24  42  64  94 128 170 215 264 321 381
#     4  11  24  43  66  95 131 170 214 265 320 381
#     4  11  24  41  66  95 127 166 211 262 318 380
#     4  12  25  42  65  96 131 168 214 263 317 382
#     4  10  23  43  66  93 129 169 212 262 318 378
#
# _framework density 19.068239999999999
#
# number of rings (size 3 to 8) (size 9 to 14) (size 15 to 20)
#    0.000    1.000    1.667    4.500    2.333    7.333 
#    0.000    0.000    0.000    0.000    0.000    0.000 
#    0.000    0.000    0.000    0.000    0.000    0.000 
#
# Total GULP energy -268624.289149 kJ/mol
# GULP energy per Si atom -5596.339357 kJ/mol
# Density = 1.902484 g / cm^3
# Si number density = 19.068240 Si / 1000 Ang^3
#
#
#
# Elastic Constant Matrix: (Units=GPa)
#
#
# Indices 1 2 3 4 5 6 
#
# 1 91.3823 48.7943 19.5520 0.0000 0.0000 0.0000
# 2 48.7943 74.2071 31.5971 0.0000 0.0000 0.0000
# 3 19.5520 31.5971 86.2248 0.0000 0.0000 0.0000
# 4 0.0000 0.0000 0.0000 41.8616 0.0000 0.0000
# 5 0.0000 0.0000 0.0000 0.0000 38.1522 0.0000
# 6 0.0000 0.0000 0.0000 0.0000 0.0000 29.9777
#
#
#
# Elastic Compliance Matrix: (Units=1/GPa)
#
#
# Indices 1 2 3 4 5 6 
#
# 1 0.016870 -0.011213 0.000284 0.000000 0.000000 0.000000
# 2 -0.011213 0.023421 -0.006040 0.000000 0.000000 0.000000
# 3 0.000284 -0.006040 0.013747 0.000000 0.000000 0.000000
# 4 0.000000 0.000000 0.000000 0.023888 0.000000 0.000000
# 5 0.000000 0.000000 0.000000 0.000000 0.026211 0.000000
# 6 0.000000 0.000000 0.000000 0.000000 0.000000 0.033358
#
#
# Mechanical properties :
#
#
# Convention : Reuss Voigt Hill
#
# Bulk Modulus (GPa) = 49.75556 50.18899 49.97228
# Shear Modulus (GPa) = 28.06891 32.12300 30.09596
#
# Velocity S-wave (km/s) = 3.84086 4.10888 3.97713
# Velocity P-wave (km/s) = 6.76902 6.99203 6.88143
#
# Compressibility (1/GPa) = 0.02009826
#
# Stress axis : x y z
#
# Youngs Moduli (GPa) = 59.27741 42.69686 72.74550
#
# Poissons Ratio (x) = 0.47878 -0.02065
# Poissons Ratio (y) = 0.66471 0.43937
# Poissons Ratio (z) = -0.01683 0.25788
#
# Static dielectric constant tensor:
#      x y z
#    x 1.645290 0.000000 0.000000 
#    y 0.000000 1.636950 0.000000 
#    z 0.000000 0.000000 1.614950 
# 
# From -- ./inp_files/23749.got.cif
#   From: 2010.05.17/outbox.cif.g08.bks.cpg/sg62_12_cif.got.tgz:23749.got - 2010.06.03 15:25:27.
