data_PCOD9467537
_publ_section_title
;
Structure prediction by ZEFSAII (Michael W. Deem and Ramdas Pophale) SiO2 
 PCOD9467537
Probable space group: P N M A
;
_chemical_formula_sum "Si O2"
_cell_formula_units_Z 40
_cell_length_a 16.348918
_cell_length_b 18.527095
_cell_length_c 4.949789
_cell_angle_alpha 90.000000
_cell_angle_beta 90.000000
_cell_angle_gamma 90.000000
_cell_volume 1499.280975
_symmetry_space_group_name_H-M "P N M A"
_symmetry_group_IT_number 62
_symmetry_cell_setting 'orthorhombic'
loop_
_space_group_symop_operation_xyz
x,y,z
1/2-x,-y,1/2+z
1/2+x,1/2-y,1/2-z
-x,1/2+y,-z
-x,-y,-z
1/2+x,y,1/2-z
1/2-x,1/2+y,1/2+z
x,1/2-y,z
loop_
_atom_site_type_symbol
_atom_site_label
_atom_site_fract_x
_atom_site_fract_y
_atom_site_fract_z
Si Si1 0.199917 0.588754 0.375970
Si Si2 0.419045 0.165594 0.231899
Si Si3 0.024267 0.127093 0.765387
Si Si4 0.137329 0.040725 0.098217
Si Si5 0.183176 0.170396 0.508344
O O1 0.163676 0.625177 0.643407
O O2 0.279480 0.539443 0.425084
O O3 0.133468 0.534395 0.252941
O O4 0.235387 0.648825 0.173220
O O5 0.410927 0.250000 0.167463
O O6 0.458211 0.158700 0.526615
O O7 0.484251 0.129627 0.027598
O O8 0.108692 0.171518 0.725074
O O9 0.062172 0.055612 0.900137
O O10 0.155254 0.107541 0.301650
O O11 0.190823 0.250000 0.384743
#
# Coordination Sequence:
#
# PCOD9467537 Si02
#       5
#     8   8   8   8   8
#     4  11  26  44  72 105 147 188 239 303 363 426
#     4  12  26  46  71 107 146 186 240 304 362 423
#     4  11  26  46  73 100 145 190 240 292 360 433
#     4  11  24  47  74 104 144 194 242 293 358 441
#     4  11  23  45  74 104 139 192 246 295 357 431
#
# _framework density 26.679455999999998
#
# number of rings (size 3 to 8) (size 9 to 14) (size 15 to 20)
#    0.000    0.800    4.000    2.400    2.800    6.400 
#    0.000    0.000    0.000    0.000    0.000    0.000 
#    0.000    0.000    0.000    0.000    0.000    0.000 
#
# Total GULP energy -224140.254230 kJ/mol
# GULP energy per Si atom -5603.506356 kJ/mol
# Density = 2.661873 g / cm^3
# Si number density = 26.679456 Si / 1000 Ang^3
#
#
#
# Elastic Constant Matrix: (Units=GPa)
#
#
# Indices 1 2 3 4 5 6 
#
# 1 99.9918 22.2300 12.5140 0.0000 0.0000 0.0000
# 2 22.2300 126.5641 12.0562 0.0000 0.0000 0.0000
# 3 12.5140 12.0562 89.9803 0.0000 0.0000 0.0000
# 4 0.0000 0.0000 0.0000 37.8627 0.0000 0.0000
# 5 0.0000 0.0000 0.0000 0.0000 55.5587 0.0000
# 6 0.0000 0.0000 0.0000 0.0000 0.0000 -1.4100
#
#
#
# Elastic Compliance Matrix: (Units=1/GPa)
#
#
# Indices 1 2 3 4 5 6 
#
# 1 0.010541 -0.001734 -0.001234 0.000000 0.000000 0.000000
# 2 -0.001734 0.008288 -0.000869 0.000000 0.000000 0.000000
# 3 -0.001234 -0.000869 0.011402 0.000000 0.000000 0.000000
# 4 0.000000 0.000000 0.000000 0.026411 0.000000 0.000000
# 5 0.000000 0.000000 0.000000 0.000000 0.017999 0.000000
# 6 0.000000 0.000000 0.000000 0.000000 0.000000 -0.709239
#
#
# Mechanical properties :
#
#
# Convention : Reuss Voigt Hill
#
# Bulk Modulus (GPa) = 44.33224 45.57072 44.95148
# Shear Modulus (GPa) = -8.07226 36.38470 14.15622
#
# Velocity S-wave (km/s) = -1.74133 3.69694 2.30598
# Velocity P-wave (km/s) = 3.55102 5.94483 4.89647
#
# Compressibility (1/GPa) = 0.02255695
#
# Stress axis : x y z
#
# Youngs Moduli (GPa) = 94.87052 120.64921 87.70701
#
# Poissons Ratio (x) = 0.20919 0.10820
# Poissons Ratio (y) = 0.16449 0.07625
# Poissons Ratio (z) = 0.11703 0.10489
#
# Static dielectric constant tensor:
#      x y z
#    x 2.164750 0.000000 0.000000 
#    y 0.000000 2.006220 0.000000 
#    z 0.000000 0.000000 2.095620 
# 
# From -- ./inp_files/1560.got.cif
#   From: 2010.05.17/outbox.cif.g08.bks.cpg/sg62_1_cif.got.tgz:1560.got - 2010.06.03 15:25:27.
