data_PCOD9467587
_publ_section_title
;
Structure prediction by ZEFSAII (Michael W. Deem and Ramdas Pophale) SiO2 
 PCOD9467587
Probable space group: P N M A
;
_chemical_formula_sum "Si O2"
_cell_formula_units_Z 48
_cell_length_a 11.938837
_cell_length_b 9.214726
_cell_length_c 22.563216
_cell_angle_alpha 90.000000
_cell_angle_beta 90.000000
_cell_angle_gamma 90.000000
_cell_volume 2482.249602
_symmetry_space_group_name_H-M "P N M A"
_symmetry_group_IT_number 62
_symmetry_cell_setting 'orthorhombic'
loop_
_space_group_symop_operation_xyz
x,y,z
1/2-x,-y,1/2+z
1/2+x,1/2-y,1/2-z
-x,1/2+y,-z
-x,-y,-z
1/2+x,y,1/2-z
1/2-x,1/2+y,1/2+z
x,1/2-y,z
loop_
_atom_site_type_symbol
_atom_site_label
_atom_site_fract_x
_atom_site_fract_y
_atom_site_fract_z
Si Si1 0.710680 0.926129 0.614490
Si Si2 0.083353 0.088618 0.459288
Si Si3 0.361030 0.575037 0.770486
Si Si4 0.004422 0.575615 0.064039
Si Si5 0.291319 0.077773 0.649457
Si Si6 0.567557 0.587123 0.842877
O O1 0.697634 0.750000 0.612174
O O2 0.795212 0.968484 0.560520
O O3 0.772895 0.960633 0.676666
O O4 0.594913 0.007627 0.603844
O O5 0.098980 0.250000 0.484653
O O6 0.017949 0.100306 0.397222
O O7 0.000000 0.000000 0.500000
O O8 0.359974 0.750000 0.764651
O O9 0.330631 0.497802 0.709996
O O10 0.487452 0.534224 0.790103
O O11 0.991936 0.750000 0.058697
O O12 0.121958 0.544995 0.096820
O O13 0.000000 0.500000 0.000000
O O14 0.288086 0.250000 0.657031
O O15 0.168129 0.015055 0.638885
O O16 0.610154 0.750000 0.828777
#
# Coordination Sequence:
#
# PCOD9467587 Si02
#       6
#     8   8   8   8   8   8
#     4   9  20  40  63  88 120 155 197 248 296 354
#     4   9  19  35  58  87 117 148 189 240 291 346
#     4   9  20  40  65  91 118 155 199 243 297 362
#     4  11  26  44  61  87 123 165 210 252 303 363
#     4  11  25  40  59  89 124 156 194 251 306 354
#     4   9  20  39  60  86 117 152 198 240 287 357
#
# _framework density 19.337299000000002
#
# number of rings (size 3 to 8) (size 9 to 14) (size 15 to 20)
#    0.000    2.333    0.000    3.000    4.667    5.333 
#    0.000    3.333    0.000    0.000    0.000    0.000 
#    0.000    0.000    0.000    0.000    0.000    0.000 
#
# Total GULP energy -267829.868054 kJ/mol
# GULP energy per Si atom -5579.788918 kJ/mol
# Density = 1.929329 g / cm^3
# Si number density = 19.337299 Si / 1000 Ang^3
#
#
#
# Elastic Constant Matrix: (Units=GPa)
#
#
# Indices 1 2 3 4 5 6 
#
# 1 113.3513 40.7990 19.5267 0.0000 0.0000 0.0000
# 2 40.7990 41.5297 24.8144 0.0000 0.0000 0.0000
# 3 19.5267 24.8144 56.8862 0.0000 0.0000 0.0000
# 4 0.0000 0.0000 0.0000 25.2527 0.0000 0.0000
# 5 0.0000 0.0000 0.0000 0.0000 11.1552 0.0000
# 6 0.0000 0.0000 0.0000 0.0000 0.0000 30.8785
#
#
#
# Elastic Compliance Matrix: (Units=1/GPa)
#
#
# Indices 1 2 3 4 5 6 
#
# 1 0.013753 -0.014459 0.001586 0.000000 0.000000 0.000000
# 2 -0.014459 0.047769 -0.015874 0.000000 0.000000 0.000000
# 3 0.001586 -0.015874 0.023959 0.000000 0.000000 0.000000
# 4 0.000000 0.000000 0.000000 0.039600 0.000000 0.000000
# 5 0.000000 0.000000 0.000000 0.000000 0.089645 0.000000
# 6 0.000000 0.000000 0.000000 0.000000 0.000000 0.032385
#
#
# Mechanical properties :
#
#
# Convention : Reuss Voigt Hill
#
# Bulk Modulus (GPa) = 35.73065 42.44971 39.09018
# Shear Modulus (GPa) = 15.92697 21.89906 18.91301
#
# Velocity S-wave (km/s) = 2.87303 3.36888 3.13079
# Velocity P-wave (km/s) = 5.43354 6.09363 5.77303
#
# Compressibility (1/GPa) = 0.02798717
#
# Stress axis : x y z
#
# Youngs Moduli (GPa) = 72.71055 20.93419 41.73811
#
# Poissons Ratio (x) = 0.30269 -0.06621
# Poissons Ratio (y) = 1.05132 0.66256
# Poissons Ratio (z) = -0.11534 0.33231
#
# Static dielectric constant tensor:
#      x y z
#    x 1.691590 0.000000 0.000000 
#    y 0.000000 6.295180 0.000000 
#    z 0.000000 0.000000 1.875500 
# 
# From -- ./inp_files/29224.got.cif
#   From: 2010.05.17/outbox.cif.g08.bks.cpg/sg62_15_cif.got.tgz:29224.got - 2010.06.03 15:25:27.
