data_PCOD9467829
_publ_section_title
;
Structure prediction by ZEFSAII (Michael W. Deem and Ramdas Pophale) SiO2 
 PCOD9467829
Probable space group: P N M A
;
_chemical_formula_sum "Si O2"
_cell_formula_units_Z 64
_cell_length_a 12.000000
_cell_length_b 9.000000
_cell_length_c 30.000000
_cell_angle_alpha 90.000000
_cell_angle_beta 90.000000
_cell_angle_gamma 90.000000
_cell_volume 3240.000000
_symmetry_space_group_name_H-M "P N M A"
_symmetry_group_IT_number 62
_symmetry_cell_setting 'orthorhombic'
loop_
_space_group_symop_operation_xyz
x,y,z
1/2-x,-y,1/2+z
1/2+x,1/2-y,1/2-z
-x,1/2+y,-z
-x,-y,-z
1/2+x,y,1/2-z
1/2-x,1/2+y,1/2+z
x,1/2-y,z
loop_
_atom_site_type_symbol
_atom_site_label
_atom_site_fract_x
_atom_site_fract_y
_atom_site_fract_z
Si Si1 0.167924 0.071522 0.931391
Si Si2 0.681358 0.071009 0.136695
Si Si3 0.138861 0.918968 0.674753
Si Si4 0.224047 0.930149 0.524338
Si Si5 0.027931 0.920744 0.579948
Si Si6 0.627436 0.927201 0.317558
Si Si7 0.433214 0.425637 0.781877
Si Si8 0.080593 0.926835 0.081587
O O1 0.177438 0.250000 0.925230
O O2 0.038531 0.037065 0.939913
O O3 0.209037 0.989489 0.887004
O O4 0.240496 0.027051 0.974436
O O5 0.676907 0.250000 0.138419
O O6 0.583161 0.015041 0.102624
O O7 0.655182 0.008387 0.185815
O O8 0.123140 0.750000 0.690397
O O9 0.111685 0.919284 0.622208
O O10 0.260407 0.979049 0.682653
O O11 0.051158 0.024508 0.698700
O O12 0.221931 0.750000 0.526491
O O13 0.102275 0.986724 0.540244
O O14 0.318931 0.988530 0.557806
O O15 0.000553 0.750000 0.567965
O O16 0.651304 0.750000 0.317235
O O17 0.569084 0.961691 0.270616
O O18 0.571468 0.958275 0.365357
O O19 0.415946 0.250000 0.786833
O O20 0.100617 0.750000 0.076858
#
# Coordination Sequence:
#
# PCOD9467829 Si02
#       8
#     8   8   8   8   8   8   8   8
#     4  10  22  37  55  81 118 157 190 231 286 345
#     4  10  21  38  57  80 112 148 190 239 291 343
#     4  10  19  34  56  81 111 143 181 234 284 330
#     4  10  19  35  58  83 111 150 193 233 286 341
#     4   8  16  32  54  79 108 140 179 232 280 323
#     4  10  21  36  56  81 109 145 187 230 281 340
#     4  10  21  37  57  81 111 148 189 233 289 349
#     4  10  21  37  55  81 114 146 189 239 283 335
#
# _framework density 19.753086
#
# number of rings (size 3 to 8) (size 9 to 14) (size 15 to 20)
#    0.000    2.250    1.250    2.250    0.000    3.500 
#    0.000    3.125    0.000    0.000    0.000    0.000 
#    0.000    0.000    0.000    0.000    0.000    0.000 
#
# Total GULP energy -356835.539368 kJ/mol
# GULP energy per Si atom -5575.555303 kJ/mol
# Density = 1.970813 g / cm^3
# Si number density = 19.753086 Si / 1000 Ang^3
#
#
#
# Elastic Constant Matrix: (Units=GPa)
#
#
# Indices 1 2 3 4 5 6 
#
# 1 12.1055 7.2350 0.2168 0.0000 0.0000 0.0000
# 2 7.2350 14.9120 22.5038 0.0000 0.0000 0.0000
# 3 0.2168 22.5038 75.8497 0.0000 0.0000 0.0000
# 4 0.0000 0.0000 0.0000 23.8959 0.0000 0.0000
# 5 0.0000 0.0000 0.0000 0.0000 22.3710 0.0000
# 6 0.0000 0.0000 0.0000 0.0000 0.0000 17.6339
#
#
#
# Elastic Compliance Matrix: (Units=1/GPa)
#
#
# Indices 1 2 3 4 5 6 
#
# 1 0.170615 -0.148559 0.043588 0.000000 0.000000 0.000000
# 2 -0.148559 0.250781 -0.073980 0.000000 0.000000 0.000000
# 3 0.043588 -0.073980 0.035008 0.000000 0.000000 0.000000
# 4 0.000000 0.000000 0.000000 0.041848 0.000000 0.000000
# 5 0.000000 0.000000 0.000000 0.000000 0.044701 0.000000
# 6 0.000000 0.000000 0.000000 0.000000 0.000000 0.056709
#
#
# Mechanical properties :
#
#
# Convention : Reuss Voigt Hill
#
# Bulk Modulus (GPa) = 10.15181 18.08649 14.11915
# Shear Modulus (GPa) = 5.04848 17.64094 11.34471
#
# Velocity S-wave (km/s) = 1.60042 2.99167 2.39911
# Velocity P-wave (km/s) = 2.92671 4.59452 3.85197
#
# Compressibility (1/GPa) = 0.09850456
#
# Stress axis : x y z
#
# Youngs Moduli (GPa) = 5.86115 3.98754 28.56459
#
# Poissons Ratio (x) = 0.59238 -1.24508
# Poissons Ratio (y) = 0.87072 2.11320
# Poissons Ratio (z) = -0.25548 0.29500
#
# Static dielectric constant tensor:
#      x y z
#    x 1.702350 0.000000 0.000000 
#    y 0.000000 1.664930 0.000000 
#    z 0.000000 0.000000 1.713150 
# 
# From -- ./inp_files/32551.got.cif
#   From: 2010.05.17/outbox.ucp.g08.bks.cvg/sg62_17_cif.got.tgz:32551.got - 2010.06.11 16:29:25.
