data_PCOD9467899
_publ_section_title
;
Structure prediction by ZEFSAII (Michael W. Deem and Ramdas Pophale) SiO2 
 PCOD9467899
Probable space group: P N M A
;
_chemical_formula_sum "Si O2"
_cell_formula_units_Z 48
_cell_length_a 24.000000
_cell_length_b 9.000000
_cell_length_c 12.000000
_cell_angle_alpha 90.000000
_cell_angle_beta 90.000000
_cell_angle_gamma 90.000000
_cell_volume 2592.000000
_symmetry_space_group_name_H-M "P N M A"
_symmetry_group_IT_number 62
_symmetry_cell_setting 'orthorhombic'
loop_
_space_group_symop_operation_xyz
x,y,z
1/2-x,-y,1/2+z
1/2+x,1/2-y,1/2-z
-x,1/2+y,-z
-x,-y,-z
1/2+x,y,1/2-z
1/2-x,1/2+y,1/2+z
x,1/2-y,z
loop_
_atom_site_type_symbol
_atom_site_label
_atom_site_fract_x
_atom_site_fract_y
_atom_site_fract_z
Si Si1 0.636952 0.928712 0.120801
Si Si2 0.527665 0.571783 0.255574
Si Si3 0.089469 0.073304 0.037930
Si Si4 0.584265 0.571580 0.704418
Si Si5 0.823212 0.430602 0.380090
Si Si6 0.800060 0.926678 0.822265
O O1 0.641071 0.750000 0.123307
O O2 0.575396 0.966403 0.165817
O O3 0.679905 0.994315 0.210100
O O4 0.650729 0.981800 0.996825
O O5 0.521288 0.750000 0.260693
O O6 0.549734 0.509778 0.374135
O O7 0.469912 0.490529 0.232677
O O8 0.077267 0.250000 0.036512
O O9 0.151819 0.051324 0.085964
O O10 0.084890 0.003652 0.916416
O O11 0.581508 0.750000 0.694128
O O12 0.638419 0.529184 0.775738
O O13 0.822597 0.250000 0.384474
O O14 0.759866 0.480491 0.363482
O O15 0.796763 0.750000 0.801220
#
# Coordination Sequence:
#
# PCOD9467899 Si02
#       6
#     8   8   8   8   8   8
#     4   9  19  37  59  79 105 143 182 220 268 325
#     4  10  20  36  57  81 109 142 183 227 270 319
#     4  10  20  35  57  83 110 142 181 226 273 318
#     4  11  22  35  54  80 112 146 181 221 269 322
#     4   9  20  37  55  79 111 146 178 217 273 325
#     4   9  19  36  57  80 108 141 177 222 271 321
#
# _framework density 18.518519000000001
#
# number of rings (size 3 to 8) (size 9 to 14) (size 15 to 20)
#    0.000    2.333    0.000    2.000    2.333    2.000 
#    0.000    3.333    0.000    0.000    0.000    0.000 
#    0.000    0.000    0.000    0.000    0.000    0.000 
#
# Total GULP energy -267924.291589 kJ/mol
# GULP energy per Si atom -5581.756075 kJ/mol
# Density = 1.847637 g / cm^3
# Si number density = 18.518519 Si / 1000 Ang^3
#
#
#
# Elastic Constant Matrix: (Units=GPa)
#
#
# Indices 1 2 3 4 5 6 
#
# 1 80.4167 15.2055 3.3784 0.0000 0.0000 0.0000
# 2 15.2055 31.3665 -4.0593 0.0000 0.0000 0.0000
# 3 3.3784 -4.0593 -5.9598 0.0000 0.0000 0.0000
# 4 0.0000 0.0000 0.0000 20.9058 0.0000 0.0000
# 5 0.0000 0.0000 0.0000 0.0000 5.9333 0.0000
# 6 0.0000 0.0000 0.0000 0.0000 0.0000 25.3721
#
#
#
# Elastic Compliance Matrix: (Units=1/GPa)
#
#
# Indices 1 2 3 4 5 6 
#
# 1 0.012911 -0.004881 0.010644 0.000000 0.000000 0.000000
# 2 -0.004881 0.031144 -0.023980 0.000000 0.000000 0.000000
# 3 0.010644 -0.023980 -0.145423 0.000000 0.000000 0.000000
# 4 0.000000 0.000000 0.000000 0.047834 0.000000 0.000000
# 5 0.000000 0.000000 0.000000 0.000000 0.168540 0.000000
# 6 0.000000 0.000000 0.000000 0.000000 0.000000 0.039413
#
#
# Mechanical properties :
#
#
# Convention : Reuss Voigt Hill
#
# Bulk Modulus (GPa) = -7.25670 14.98581 3.86455
# Shear Modulus (GPa) = 34.50196 16.52883 25.51539
#
# Velocity S-wave (km/s) = 4.32105 2.99081 3.71594
# Velocity P-wave (km/s) = 4.57911 4.47621 4.52795
#
# Compressibility (1/GPa) = -0.13780364
#
# Stress axis : x y z
#
# Youngs Moduli (GPa) = 77.45281 32.10882 -6.87647
#
# Poissons Ratio (x) = 0.15674 0.07319
# Poissons Ratio (y) = 0.37808 -0.16490
# Poissons Ratio (z) = -0.82437 0.76996
#
# Static dielectric constant tensor:
#      x y z
#    x 1.656220 0.000000 0.000000 
#    y 0.000000 1.615100 0.000000 
#    z 0.000000 0.000000 1.610670 
# 
# From -- ./inp_files/15137.got.cif
#   From: 2010.05.17/outbox.ucp.g08.bks.cvg/sg62_8_cif.got.tgz:15137.got - 2010.06.11 16:29:25.
