data_PCOD9467834
_publ_section_title
;
Structure prediction by ZEFSAII (Michael W. Deem and Ramdas Pophale) SiO2 
 PCOD9467834
Probable space group: P N M A
;
_chemical_formula_sum "Si O2"
_cell_formula_units_Z 48
_cell_length_a 21.000000
_cell_length_b 9.000000
_cell_length_c 15.000000
_cell_angle_alpha 90.000000
_cell_angle_beta 90.000000
_cell_angle_gamma 90.000000
_cell_volume 2835.000000
_symmetry_space_group_name_H-M "P N M A"
_symmetry_group_IT_number 62
_symmetry_cell_setting 'orthorhombic'
loop_
_space_group_symop_operation_xyz
x,y,z
1/2-x,-y,1/2+z
1/2+x,1/2-y,1/2-z
-x,1/2+y,-z
-x,-y,-z
1/2+x,y,1/2-z
1/2-x,1/2+y,1/2+z
x,1/2-y,z
loop_
_atom_site_type_symbol
_atom_site_label
_atom_site_fract_x
_atom_site_fract_y
_atom_site_fract_z
Si Si1 0.186870 0.570941 0.111687
Si Si2 0.692611 0.429178 0.006939
Si Si3 0.019462 0.429598 0.271873
Si Si4 0.959271 0.069437 0.919877
Si Si5 0.844471 0.429495 0.688131
Si Si6 0.050821 0.428938 0.568984
O O1 0.188773 0.750000 0.109387
O O2 0.116458 0.529724 0.075071
O O3 0.187600 0.530606 0.216699
O O4 0.247859 0.521007 0.054601
O O5 0.696917 0.250000 0.019880
O O6 0.692467 0.511272 0.102031
O O7 0.623462 0.457867 0.961960
O O8 0.018734 0.250000 0.270663
O O9 0.016355 0.498928 0.173003
O O10 0.086698 0.490429 0.310691
O O11 0.965467 0.495965 0.336414
O O12 0.964155 0.250000 0.917826
O O13 0.000000 0.000000 0.000000
O O14 0.852627 0.250000 0.684944
O O15 0.041814 0.250000 0.572475
O O16 0.000000 0.500000 0.500000
#
# Coordination Sequence:
#
# PCOD9467834 Si02
#       6
#     8   8   8   8   8   8
#     4   8  18  37  57  78 109 145 181 225 277 331
#     4  10  20  36  57  79 109 147 183 225 279 336
#     4  11  21  35  56  81 111 146 187 230 275 331
#     4  10  20  38  62  85 112 146 187 234 281 333
#     4  10  19  34  57  80 107 143 184 228 278 331
#     4  11  21  33  54  83 115 146 181 226 278 334
#
# _framework density 16.931217
#
# number of rings (size 3 to 8) (size 9 to 14) (size 15 to 20)
#    0.000    2.000    1.667    4.000    0.000    0.667 
#    3.000    5.000    0.000    0.000    0.000    0.000 
#    0.000    0.000    0.000    0.000    0.000    0.000 
#
# Total GULP energy -267799.548458 kJ/mol
# GULP energy per Si atom -5579.157260 kJ/mol
# Density = 1.689268 g / cm^3
# Si number density = 16.931217 Si / 1000 Ang^3
#
#
#
# Elastic Constant Matrix: (Units=GPa)
#
#
# Indices 1 2 3 4 5 6 
#
# 1 121.3179 46.5109 94.8228 0.0000 0.0000 0.0000
# 2 46.5109 96.6938 53.6683 0.0000 0.0000 0.0000
# 3 94.8228 53.6683 154.7889 0.0000 0.0000 0.0000
# 4 0.0000 0.0000 0.0000 35.9954 0.0000 0.0000
# 5 0.0000 0.0000 0.0000 0.0000 38.6508 0.0000
# 6 0.0000 0.0000 0.0000 0.0000 0.0000 22.4362
#
#
#
# Elastic Compliance Matrix: (Units=1/GPa)
#
#
# Indices 1 2 3 4 5 6 
#
# 1 0.016434 -0.002869 -0.009072 0.000000 0.000000 0.000000
# 2 -0.002869 0.013307 -0.002856 0.000000 0.000000 0.000000
# 3 -0.009072 -0.002856 0.013008 0.000000 0.000000 0.000000
# 4 0.000000 0.000000 0.000000 0.027781 0.000000 0.000000
# 5 0.000000 0.000000 0.000000 0.000000 0.025873 0.000000
# 6 0.000000 0.000000 0.000000 0.000000 0.000000 0.044571
#
#
# Mechanical properties :
#
#
# Convention : Reuss Voigt Hill
#
# Bulk Modulus (GPa) = 76.02398 84.75607 80.39003
# Shear Modulus (GPa) = 28.57870 31.26972 29.92421
#
# Velocity S-wave (km/s) = 4.11290 4.30218 4.20860
# Velocity P-wave (km/s) = 8.21911 8.65136 8.43800
#
# Compressibility (1/GPa) = 0.01315374
#
# Stress axis : x y z
#
# Youngs Moduli (GPa) = 60.84948 75.14618 76.87314
#
# Poissons Ratio (x) = 0.21563 0.69743
# Poissons Ratio (y) = 0.17460 0.21956
# Poissons Ratio (z) = 0.55206 0.21463
#
# Static dielectric constant tensor:
#      x y z
#    x 1.566200 0.000000 0.000000 
#    y 0.000000 1.563330 0.000000 
#    z 0.000000 0.000000 1.589450 
# 
# From -- ./inp_files/20031.got.cif
#   From: 2010.05.17/outbox.ucp.g08.bks.cvg/sg62_11_cif.got.tgz:20031.got - 2010.06.11 16:29:25.
