data_PCOD9467629
_publ_section_title
;
Structure prediction by ZEFSAII (Michael W. Deem and Ramdas Pophale) SiO2 
 PCOD9467629
Probable space group: P N M A
;
_chemical_formula_sum "Si O2"
_cell_formula_units_Z 56
_cell_length_a 9.504174
_cell_length_b 23.301912
_cell_length_c 14.176899
_cell_angle_alpha 90.000000
_cell_angle_beta 90.000000
_cell_angle_gamma 90.000000
_cell_volume 3139.692979
_symmetry_space_group_name_H-M "P N M A"
_symmetry_group_IT_number 62
_symmetry_cell_setting 'orthorhombic'
loop_
_space_group_symop_operation_xyz
x,y,z
1/2-x,-y,1/2+z
1/2+x,1/2-y,1/2-z
-x,1/2+y,-z
-x,-y,-z
1/2+x,y,1/2-z
1/2-x,1/2+y,1/2+z
x,1/2-y,z
loop_
_atom_site_type_symbol
_atom_site_label
_atom_site_fract_x
_atom_site_fract_y
_atom_site_fract_z
Si Si1 0.160383 0.506041 0.266138
Si Si2 0.469960 0.250000 0.143843
Si Si3 0.916281 0.070865 0.246843
Si Si4 0.973660 0.356044 0.065505
Si Si5 0.299525 0.143456 0.091456
Si Si6 0.310869 0.250000 0.349235
Si Si7 0.145575 0.971577 0.473199
Si Si8 0.603691 0.543221 0.445443
O O1 0.318935 0.484845 0.253520
O O2 0.153834 0.541292 0.361993
O O3 0.109511 0.532000 0.166895
O O4 0.064781 0.449714 0.288090
O O5 0.411314 0.194868 0.086928
O O6 0.388293 0.250000 0.245992
O O7 0.639659 0.250000 0.158482
O O8 0.949591 0.095991 0.145591
O O9 0.829938 0.117855 0.304786
O O10 0.869704 0.304740 0.092979
O O11 0.137819 0.338011 0.074655
O O12 0.937871 0.391635 0.971142
O O13 0.326090 0.087811 0.026983
O O14 0.252315 0.020820 0.508487
O O15 0.000000 0.000000 0.500000
O O16 0.500000 0.500000 0.500000
#
# Coordination Sequence:
#
# PCOD9467629 Si02
#       8
#     8   4   8   8   8   4   8   8
#     4  12  22  36  56  94 128 168 200 246 307 380
#     4  12  28  42  64  89 124 161 216 255 320 372
#     4  12  20  33  60  86 126 159 199 243 299 367
#     4  12  24  40  62  86 126 166 211 252 309 371
#     4  12  24  41  58  91 125 167 206 258 306 376
#     4  12  28  42  64  91 118 169 210 263 314 378
#     4  12  23  35  60  93 130 164 205 256 319 369
#     4  12  21  39  60  89 126 168 204 254 308 377
#
# _framework density 17.836137999999998
#
# number of rings (size 3 to 8) (size 9 to 14) (size 15 to 20)
#    0.000    0.000   10.000    1.286    4.000    0.000 
#    0.000    0.000    0.000    0.857    0.000    0.000 
#    0.000    0.000    0.000    0.000    0.000    0.000 
#
# Total GULP energy -312404.572767 kJ/mol
# GULP energy per Si atom -5578.653085 kJ/mol
# Density = 1.779554 g / cm^3
# Si number density = 17.836138 Si / 1000 Ang^3
#
#
#
# Elastic Constant Matrix: (Units=GPa)
#
#
# Indices 1 2 3 4 5 6 
#
# 1 142.7272 25.4032 15.8834 0.0000 0.0000 0.0000
# 2 25.4032 66.2190 11.0332 0.0000 0.0000 0.0000
# 3 15.8834 11.0332 74.1217 0.0000 0.0000 0.0000
# 4 0.0000 0.0000 0.0000 22.2700 0.0000 0.0000
# 5 0.0000 0.0000 0.0000 0.0000 14.2999 0.0000
# 6 0.0000 0.0000 0.0000 0.0000 0.0000 26.1532
#
#
#
# Elastic Compliance Matrix: (Units=1/GPa)
#
#
# Indices 1 2 3 4 5 6 
#
# 1 0.007628 -0.002721 -0.001229 0.000000 0.000000 0.000000
# 2 -0.002721 0.016456 -0.001866 0.000000 0.000000 0.000000
# 3 -0.001229 -0.001866 0.014033 0.000000 0.000000 0.000000
# 4 0.000000 0.000000 0.000000 0.044903 0.000000 0.000000
# 5 0.000000 0.000000 0.000000 0.000000 0.069931 0.000000
# 6 0.000000 0.000000 0.000000 0.000000 0.000000 0.038236
#
#
# Mechanical properties :
#
#
# Convention : Reuss Voigt Hill
#
# Bulk Modulus (GPa) = 37.76118 43.07861 40.41990
# Shear Modulus (GPa) = 23.62407 27.92782 25.77595
#
# Velocity S-wave (km/s) = 3.64332 3.96131 3.80564
# Velocity P-wave (km/s) = 6.23823 6.71770 6.48240
#
# Compressibility (1/GPa) = 0.02648222
#
# Stress axis : x y z
#
# Youngs Moduli (GPa) = 131.10406 60.76693 71.26259
#
# Poissons Ratio (x) = 0.16536 0.08761
# Poissons Ratio (y) = 0.35677 0.13301
# Poissons Ratio (z) = 0.16118 0.11342
#
# Static dielectric constant tensor:
#      x y z
#    x 1.500430 0.000000 0.000000 
#    y 0.000000 1.609820 0.000000 
#    z 0.000000 0.000000 1.646040 
# 
# From -- ./inp_files/17228.got.cif
#   From: 2010.05.17/outbox.cif.g08.bks.cpg/sg62_9_cif.got.tgz:17228.got - 2010.06.03 15:25:27.
