data_PCOD9467511
_publ_section_title
;
Structure prediction by ZEFSAII (Michael W. Deem and Ramdas Pophale) SiO2 
 PCOD9467511
Probable space group: P N M A
;
_chemical_formula_sum "Si O2"
_cell_formula_units_Z 40
_cell_length_a 18.935664
_cell_length_b 8.692574
_cell_length_c 12.174982
_cell_angle_alpha 90.000000
_cell_angle_beta 90.000000
_cell_angle_gamma 90.000000
_cell_volume 2003.997905
_symmetry_space_group_name_H-M "P N M A"
_symmetry_group_IT_number 62
_symmetry_cell_setting 'orthorhombic'
loop_
_space_group_symop_operation_xyz
x,y,z
1/2-x,-y,1/2+z
1/2+x,1/2-y,1/2-z
-x,1/2+y,-z
-x,-y,-z
1/2+x,y,1/2-z
1/2-x,1/2+y,1/2+z
x,1/2-y,z
loop_
_atom_site_type_symbol
_atom_site_label
_atom_site_fract_x
_atom_site_fract_y
_atom_site_fract_z
Si Si1 0.680683 0.433577 0.902564
Si Si2 0.068618 0.932790 0.438996
Si Si3 0.830272 0.933765 0.961950
Si Si4 0.957750 0.066794 0.819229
Si Si5 0.113320 0.566140 0.818484
O O1 0.683057 0.250000 0.896466
O O2 0.758848 0.502373 0.908404
O O3 0.639513 0.499289 0.797221
O O4 0.636732 0.486646 0.009126
O O5 0.072533 0.750000 0.459376
O O6 0.060890 0.957080 0.309028
O O7 0.000000 0.000000 0.500000
O O8 0.828899 0.750000 0.965647
O O9 0.897591 0.992164 0.893579
O O10 0.838202 0.001662 0.084074
O O11 0.961398 0.250000 0.839937
O O12 0.033875 0.992239 0.840076
O O13 0.115074 0.750000 0.816364
#
# Coordination Sequence:
#
# PCOD9467511 Si02
#       5
#     8   8   8   8   8
#     4  12  26  45  68  98 137 177 223 277 336 398
#     4  11  23  41  68  99 135 175 222 274 328 391
#     4  12  27  46  69  98 136 179 224 276 338 401
#     4  11  24  44  70 101 136 176 224 276 332 395
#     4  12  25  45  71  99 134 176 225 276 333 398
#
# _framework density 19.960100000000001
#
# number of rings (size 3 to 8) (size 9 to 14) (size 15 to 20)
#    0.000    0.400    2.000    7.200    2.800    2.400 
#    0.000    0.000    0.000    0.000    0.000    0.000 
#    0.000    0.000    0.000    0.000    0.000    0.000 
#
# Total GULP energy -224096.694142 kJ/mol
# GULP energy per Si atom -5602.417354 kJ/mol
# Density = 1.991467 g / cm^3
# Si number density = 19.960100 Si / 1000 Ang^3
#
#
#
# Elastic Constant Matrix: (Units=GPa)
#
#
# Indices 1 2 3 4 5 6 
#
# 1 103.6707 28.8299 3.3158 0.0000 0.0000 0.0000
# 2 28.8299 167.7636 37.2442 0.0000 0.0000 0.0000
# 3 3.3158 37.2442 36.5139 0.0000 0.0000 0.0000
# 4 0.0000 0.0000 0.0000 37.6497 0.0000 0.0000
# 5 0.0000 0.0000 0.0000 0.0000 32.1699 0.0000
# 6 0.0000 0.0000 0.0000 0.0000 0.0000 41.6803
#
#
#
# Elastic Compliance Matrix: (Units=1/GPa)
#
#
# Indices 1 2 3 4 5 6 
#
# 1 0.010165 -0.001993 0.001110 0.000000 0.000000 0.000000
# 2 -0.001993 0.008097 -0.008077 0.000000 0.000000 0.000000
# 3 0.001110 -0.008077 0.035525 0.000000 0.000000 0.000000
# 4 0.000000 0.000000 0.000000 0.026561 0.000000 0.000000
# 5 0.000000 0.000000 0.000000 0.000000 0.031085 0.000000
# 6 0.000000 0.000000 0.000000 0.000000 0.000000 0.023992
#
#
# Mechanical properties :
#
#
# Convention : Reuss Voigt Hill
#
# Bulk Modulus (GPa) = 27.88235 49.63643 38.75939
# Shear Modulus (GPa) = 30.24799 38.20387 34.22593
#
# Velocity S-wave (km/s) = 3.89707 4.37969 4.14541
# Velocity P-wave (km/s) = 5.85225 7.10615 6.50946
#
# Compressibility (1/GPa) = 0.03586499
#
# Stress axis : x y z
#
# Youngs Moduli (GPa) = 98.37949 123.50977 28.14919
#
# Poissons Ratio (x) = 0.24618 -0.03125
# Poissons Ratio (y) = 0.19609 0.22737
# Poissons Ratio (z) = -0.10921 0.99764
#
# Static dielectric constant tensor:
#      x y z
#    x 1.677760 0.000000 0.000000 
#    y 0.000000 1.660630 0.000000 
#    z 0.000000 0.000000 1.705420 
# 
# From -- ./inp_files/13864.got.cif
#   From: 2010.05.17/outbox.cif.g08.bks.cpg/sg62_7_cif.got.tgz:13864.got - 2010.06.03 15:25:27.
