data_PCOD9467166
_publ_section_title
;
Structure prediction by ZEFSAII (Michael W. Deem and Ramdas Pophale) SiO2 
 PCOD9467166
Probable space group: P N M A
;
_chemical_formula_sum "Si O2"
_cell_formula_units_Z 40
_cell_length_a 7.776876
_cell_length_b 9.106191
_cell_length_c 23.739423
_cell_angle_alpha 90.000000
_cell_angle_beta 90.000000
_cell_angle_gamma 90.000000
_cell_volume 1681.171769
_symmetry_space_group_name_H-M "P N M A"
_symmetry_group_IT_number 62
_symmetry_cell_setting 'orthorhombic'
loop_
_space_group_symop_operation_xyz
x,y,z
1/2-x,-y,1/2+z
1/2+x,1/2-y,1/2-z
-x,1/2+y,-z
-x,-y,-z
1/2+x,y,1/2-z
1/2-x,1/2+y,1/2+z
x,1/2-y,z
loop_
_atom_site_type_symbol
_atom_site_label
_atom_site_fract_x
_atom_site_fract_y
_atom_site_fract_z
Si Si1 0.206563 0.023515 0.433293
Si Si2 0.157340 0.404257 0.560358
Si Si3 0.087669 0.423994 0.772270
Si Si4 0.934753 0.928082 0.875578
Si Si5 0.080021 0.089785 0.314626
O O1 0.214280 0.090560 0.495118
O O2 0.403029 0.006101 0.411848
O O3 0.118787 0.102701 0.380173
O O4 0.050776 0.906906 0.440445
O O5 0.215360 0.250000 0.586096
O O6 0.258507 0.533236 0.592297
O O7 0.115867 0.250000 0.779582
O O8 0.945277 0.486558 0.816033
O O9 0.243872 0.527215 0.789898
O O10 0.045883 0.464904 0.708033
O O11 0.954624 0.750000 0.870008
O O12 0.030594 0.250000 0.292298
#
# Coordination Sequence:
#
# PCOD9467166 Si02
#       5
#     8   8   8   8   8
#     4  10  24  43  66  98 137 177 224 275 335 400
#     4  11  24  42  69 102 136 176 225 278 337 399
#     4  11  24  42  65  96 131 168 219 276 336 396
#     4  11  24  44  69  97 134 178 227 276 337 406
#     4  11  23  43  68  93 129 173 221 272 331 398
#
# _framework density 23.792928
#
# number of rings (size 3 to 8) (size 9 to 14) (size 15 to 20)
#    0.000    1.200    0.000    6.600    2.800    9.600 
#    0.000    0.000    0.000    0.000    0.000    0.000 
#    0.000    0.000    0.000    0.000    0.000    0.000 
#
# Total GULP energy -222806.365568 kJ/mol
# GULP energy per Si atom -5570.159139 kJ/mol
# Density = 2.373877 g / cm^3
# Si number density = 23.792928 Si / 1000 Ang^3
#
#
#
# Elastic Constant Matrix: (Units=GPa)
#
#
# Indices 1 2 3 4 5 6 
#
# 1 94.8366 -11.2266 3.8024 0.0000 0.0000 0.0000
# 2 -11.2266 77.9439 18.1432 0.0000 0.0000 0.0000
# 3 3.8024 18.1432 78.3540 0.0000 0.0000 0.0000
# 4 0.0000 0.0000 0.0000 473.3773 0.0000 0.0000
# 5 0.0000 0.0000 0.0000 0.0000 46.3454 0.0000
# 6 0.0000 0.0000 0.0000 0.0000 0.0000 30.5614
#
#
#
# Elastic Compliance Matrix: (Units=1/GPa)
#
#
# Indices 1 2 3 4 5 6 
#
# 1 0.010792 0.001772 -0.000934 0.000000 0.000000 0.000000
# 2 0.001772 0.013852 -0.003293 0.000000 0.000000 0.000000
# 3 -0.000934 -0.003293 0.013571 0.000000 0.000000 0.000000
# 4 0.000000 0.000000 0.000000 0.002112 0.000000 0.000000
# 5 0.000000 0.000000 0.000000 0.000000 0.021577 0.000000
# 6 0.000000 0.000000 0.000000 0.000000 0.000000 0.032721
#
#
# Mechanical properties :
#
#
# Convention : Reuss Voigt Hill
#
# Bulk Modulus (GPa) = 30.02770 30.28582 30.15676
# Shear Modulus (GPa) = 45.19314 126.08451 85.63882
#
# Velocity S-wave (km/s) = 4.36298 7.28749 6.00596
# Velocity P-wave (km/s) = 6.16673 9.14147 7.79728
#
# Compressibility (1/GPa) = 0.03330258
#
# Stress axis : x y z
#
# Youngs Moduli (GPa) = 92.66432 72.19411 73.68922
#
# Poissons Ratio (x) = -0.12791 0.06882
# Poissons Ratio (y) = -0.16418 0.24269
# Poissons Ratio (z) = 0.08654 0.23776
#
# Static dielectric constant tensor:
#      x y z
#    x 2.017920 0.000000 0.000000 
#    y 0.000000 1.896460 0.000000 
#    z 0.000000 0.000000 1.931160 
# 
# From -- ./inp_files/28600.got.cif
#   From: 2010.05.17/outbox.cif.g08.bks.cpg/sg62_15_cif.got.tgz:28600.got - 2010.06.03 15:25:27.
