data_PCOD9467250
_publ_section_title
;
Structure prediction by ZEFSAII (Michael W. Deem and Ramdas Pophale) SiO2 
 PCOD9467250
Probable space group: P N M A
;
_chemical_formula_sum "Si O2"
_cell_formula_units_Z 40
_cell_length_a 9.519049
_cell_length_b 31.045661
_cell_length_c 4.843480
_cell_angle_alpha 90.000000
_cell_angle_beta 90.000000
_cell_angle_gamma 90.000000
_cell_volume 1431.370242
_symmetry_space_group_name_H-M "P N M A"
_symmetry_group_IT_number 62
_symmetry_cell_setting 'orthorhombic'
loop_
_space_group_symop_operation_xyz
x,y,z
1/2-x,-y,1/2+z
1/2+x,1/2-y,1/2-z
-x,1/2+y,-z
-x,-y,-z
1/2+x,y,1/2-z
1/2-x,1/2+y,1/2+z
x,1/2-y,z
loop_
_atom_site_type_symbol
_atom_site_label
_atom_site_fract_x
_atom_site_fract_y
_atom_site_fract_z
Si Si1 0.696125 0.895863 0.879896
Si Si2 0.621374 0.750000 0.187433
Si Si3 0.262115 0.529046 0.969653
Si Si4 0.555746 0.250000 0.318487
Si Si5 0.774275 0.822670 0.523530
Si Si6 0.555324 0.399409 0.748352
O O1 0.606249 0.896840 0.159019
O O2 0.862310 0.899436 0.956398
O O3 0.663051 0.936895 0.689595
O O4 0.672672 0.852434 0.708786
O O5 0.475751 0.750000 0.359164
O O6 0.696487 0.792609 0.302359
O O7 0.586330 0.750000 0.865642
O O8 0.305741 0.496684 0.724525
O O9 0.384138 0.557682 0.104902
O O10 0.638509 0.208182 0.223692
O O11 0.878008 0.856153 0.378768
#
# Coordination Sequence:
#
# PCOD9467250 Si02
#       6
#     8   4   8   4   8   8
#     4  11  26  48  75 116 154 209 253 325 383 474
#     4  11  26  45  74 107 146 196 254 313 375 443
#     4  11  24  51  74 114 150 200 257 329 391 461
#     4  11  26  45  76 105 150 194 256 313 375 445
#     4  10  26  45  71 108 154 202 255 311 385 455
#     4  11  26  46  79 110 158 201 262 314 393 461
#
# _framework density 27.945252
#
# number of rings (size 3 to 8) (size 9 to 14) (size 15 to 20)
#    0.000    1.200    2.000    1.200    8.400    9.600 
#    0.000    0.000    0.000    0.000    0.000    0.000 
#    0.000    0.000    0.000    0.000    0.000    0.000 
#
# Total GULP energy -224493.433978 kJ/mol
# GULP energy per Si atom -5612.335849 kJ/mol
# Density = 2.788165 g / cm^3
# Si number density = 27.945252 Si / 1000 Ang^3
#
#
#
# Elastic Constant Matrix: (Units=GPa)
#
#
# Indices 1 2 3 4 5 6 
#
# 1 92.4910 35.0899 12.8693 0.0000 0.0000 0.0000
# 2 35.0899 179.2464 46.4092 0.0000 0.0000 0.0000
# 3 12.8693 46.4092 142.1443 0.0000 0.0000 0.0000
# 4 0.0000 0.0000 0.0000 17.5681 0.0000 0.0000
# 5 0.0000 0.0000 0.0000 0.0000 42.3375 0.0000
# 6 0.0000 0.0000 0.0000 0.0000 0.0000 23.4358
#
#
#
# Elastic Compliance Matrix: (Units=1/GPa)
#
#
# Indices 1 2 3 4 5 6 
#
# 1 0.011694 -0.002201 -0.000340 0.000000 0.000000 0.000000
# 2 -0.002201 0.006508 -0.001926 0.000000 0.000000 0.000000
# 3 -0.000340 -0.001926 0.007695 0.000000 0.000000 0.000000
# 4 0.000000 0.000000 0.000000 0.056921 0.000000 0.000000
# 5 0.000000 0.000000 0.000000 0.000000 0.023620 0.000000
# 6 0.000000 0.000000 0.000000 0.000000 0.000000 0.042670
#
#
# Mechanical properties :
#
#
# Convention : Reuss Voigt Hill
#
# Bulk Modulus (GPa) = 58.95064 66.95761 62.95413
# Shear Modulus (GPa) = 30.54433 37.96917 34.25675
#
# Velocity S-wave (km/s) = 3.30965 3.69005 3.50502
# Velocity P-wave (km/s) = 5.97879 6.49366 6.24153
#
# Compressibility (1/GPa) = 0.01696334
#
# Stress axis : x y z
#
# Youngs Moduli (GPa) = 85.51162 153.64711 129.96111
#
# Poissons Ratio (x) = 0.33822 0.04420
# Poissons Ratio (y) = 0.18823 0.25026
# Poissons Ratio (z) = 0.02908 0.29587
#
# Static dielectric constant tensor:
#      x y z
#    x 2.222020 0.000000 0.000000 
#    y 0.000000 2.109330 0.000000 
#    z 0.000000 0.000000 2.107740 
# 
# From -- ./inp_files/702.got.cif
#   From: 2010.05.17/outbox.cif.g08.bks.cpg/sg62_1_cif.got.tgz:702.got - 2010.06.03 15:25:27.
