data_PCOD9467303
_publ_section_title
;
Structure prediction by ZEFSAII (Michael W. Deem and Ramdas Pophale) SiO2 
 PCOD9467303
Probable space group: P N M A
;
_chemical_formula_sum "Si O2"
_cell_formula_units_Z 48
_cell_length_a 9.892486
_cell_length_b 14.290585
_cell_length_c 17.689723
_cell_angle_alpha 90.000000
_cell_angle_beta 90.000000
_cell_angle_gamma 90.000000
_cell_volume 2500.785740
_symmetry_space_group_name_H-M "P N M A"
_symmetry_group_IT_number 62
_symmetry_cell_setting 'orthorhombic'
loop_
_space_group_symop_operation_xyz
x,y,z
1/2-x,-y,1/2+z
1/2+x,1/2-y,1/2-z
-x,1/2+y,-z
-x,-y,-z
1/2+x,y,1/2-z
1/2-x,1/2+y,1/2+z
x,1/2-y,z
loop_
_atom_site_type_symbol
_atom_site_label
_atom_site_fract_x
_atom_site_fract_y
_atom_site_fract_z
Si Si1 0.526321 0.458599 0.583198
Si Si2 0.654756 0.250000 0.317614
Si Si3 0.973485 0.750000 0.043750
Si Si4 0.373741 0.250000 0.380004
Si Si5 0.207622 0.041027 0.184551
Si Si6 0.228687 0.448777 0.349841
Si Si7 0.809595 0.250000 0.474971
Si Si8 0.947976 0.439182 0.430254
O O1 0.500000 0.500000 0.500000
O O2 0.492825 0.348616 0.582665
O O3 0.432523 0.511352 0.644928
O O4 0.682486 0.481702 0.598684
O O5 0.494347 0.250000 0.319201
O O6 0.702835 0.349697 0.289694
O O7 0.714607 0.250000 0.401347
O O8 0.809000 0.750000 0.036581
O O9 0.054644 0.750000 0.963071
O O10 0.293985 0.346260 0.366726
O O11 0.236799 0.001876 0.267272
O O12 0.321071 0.026503 0.120465
O O13 0.073701 0.435279 0.373170
O O14 0.901450 0.341059 0.466583
O O15 0.000000 0.500000 0.500000
#
# Coordination Sequence:
#
# PCOD9467303 Si02
#       8
#     8   4   4   4   8   8   4   8
#     4  12  22  42  68  90 122 171 226 264 305 392
#     4   9  17  36  59  86 126 158 197 243 318 384
#     4  11  22  39  68  95 116 167 232 264 305 371
#     4  11  20  35  65  96 124 157 209 257 308 390
#     4  11  23  40  61  91 131 168 203 266 323 383
#     4  12  23  38  62  96 129 165 208 261 328 383
#     4   9  19  38  56  87 124 156 192 262 315 355
#     4  11  23  38  58  89 125 163 200 251 321 372
#
# _framework density 19.193967000000001
#
# number of rings (size 3 to 8) (size 9 to 14) (size 15 to 20)
#    0.000    1.000    3.333    6.000    0.000    0.000 
#    0.000    0.833    0.000    2.000    0.000    0.000 
#    0.000    0.000    0.000    0.000    0.000    0.000 
#
# Total GULP energy -267499.761375 kJ/mol
# GULP energy per Si atom -5572.911695 kJ/mol
# Density = 1.915028 g / cm^3
# Si number density = 19.193967 Si / 1000 Ang^3
#
#
#
# Elastic Constant Matrix: (Units=GPa)
#
#
# Indices 1 2 3 4 5 6 
#
# 1 86.2928 12.8268 7.9227 0.0000 0.0000 0.0000
# 2 12.8268 84.6417 22.9654 0.0000 0.0000 0.0000
# 3 7.9227 22.9654 65.6440 0.0000 0.0000 0.0000
# 4 0.0000 0.0000 0.0000 37.7759 0.0000 0.0000
# 5 0.0000 0.0000 0.0000 0.0000 20.8219 0.0000
# 6 0.0000 0.0000 0.0000 0.0000 0.0000 48.1405
#
#
#
# Elastic Compliance Matrix: (Units=1/GPa)
#
#
# Indices 1 2 3 4 5 6 
#
# 1 0.011902 -0.001562 -0.000890 0.000000 0.000000 0.000000
# 2 -0.001562 0.013259 -0.004450 0.000000 0.000000 0.000000
# 3 -0.000890 -0.004450 0.016898 0.000000 0.000000 0.000000
# 4 0.000000 0.000000 0.000000 0.026472 0.000000 0.000000
# 5 0.000000 0.000000 0.000000 0.000000 0.048026 0.000000
# 6 0.000000 0.000000 0.000000 0.000000 0.000000 0.020773
#
#
# Mechanical properties :
#
#
# Convention : Reuss Voigt Hill
#
# Bulk Modulus (GPa) = 35.39249 36.00092 35.69671
# Shear Modulus (GPa) = 31.14251 34.20523 32.67387
#
# Velocity S-wave (km/s) = 4.03242 4.22605 4.13037
# Velocity P-wave (km/s) = 6.33719 6.52762 6.43311
#
# Compressibility (1/GPa) = 0.02825458
#
# Stress axis : x y z
#
# Youngs Moduli (GPa) = 84.01678 75.42251 59.17896
#
# Poissons Ratio (x) = 0.11783 0.05267
# Poissons Ratio (y) = 0.13126 0.26334
# Poissons Ratio (z) = 0.07477 0.33563
#
# Static dielectric constant tensor:
#      x y z
#    x 1.716900 0.000000 0.000000 
#    y 0.000000 1.681130 0.000000 
#    z 0.000000 0.000000 1.712970 
# 
# From -- ./inp_files/22265.got.cif
#   From: 2010.05.17/outbox.cif.g08.bks.cpg/sg62_12_cif.got.tgz:22265.got - 2010.06.03 15:25:27.
