data_PCOD9467255
_publ_section_title
;
Structure prediction by ZEFSAII (Michael W. Deem and Ramdas Pophale) SiO2 
 PCOD9467255
Probable space group: P N M A
;
_chemical_formula_sum "Si O2"
_cell_formula_units_Z 24
_cell_length_a 9.737305
_cell_length_b 18.034966
_cell_length_c 4.893289
_cell_angle_alpha 90.000000
_cell_angle_beta 90.000000
_cell_angle_gamma 90.000000
_cell_volume 859.320095
_symmetry_space_group_name_H-M "P N M A"
_symmetry_group_IT_number 62
_symmetry_cell_setting 'orthorhombic'
loop_
_space_group_symop_operation_xyz
x,y,z
1/2-x,-y,1/2+z
1/2+x,1/2-y,1/2-z
-x,1/2+y,-z
-x,-y,-z
1/2+x,y,1/2-z
1/2-x,1/2+y,1/2+z
x,1/2-y,z
loop_
_atom_site_type_symbol
_atom_site_label
_atom_site_fract_x
_atom_site_fract_y
_atom_site_fract_z
Si Si1 0.668736 0.250000 0.760486
Si Si2 0.660844 0.994502 0.309444
Si Si3 0.007174 0.623489 0.536983
Si Si4 0.575713 0.750000 0.600831
O O1 0.605619 0.323510 0.899497
O O2 0.587233 0.250000 0.473493
O O3 0.829464 0.250000 0.832351
O O4 0.589808 0.920866 0.194186
O O5 0.931907 0.935995 0.727666
O O6 0.702720 0.996374 0.623640
O O7 0.101322 0.677287 0.719137
#
# Coordination Sequence:
#
# PCOD9467255 Si02
#       4
#     4   8   8   4
#     4  11  26  44  79 104 154 196 254 312 378 451
#     4  11  26  45  77 107 152 195 254 312 380 448
#     4  10  26  46  71 109 149 199 252 312 380 452
#     4  11  26  48  73 114 148 202 250 314 378 451
#
# _framework density 27.929058999999999
#
# number of rings (size 3 to 8) (size 9 to 14) (size 15 to 20)
#    0.000    1.333    0.000    2.000   14.000    8.000 
#    0.000    0.000    0.000    0.000    0.000    0.000 
#    0.000    0.000    0.000    0.000    0.000    0.000 
#
# Total GULP energy -134937.526730 kJ/mol
# GULP energy per Si atom -5622.396947 kJ/mol
# Density = 2.786549 g / cm^3
# Si number density = 27.929059 Si / 1000 Ang^3
#
#
#
# Elastic Constant Matrix: (Units=GPa)
#
#
# Indices 1 2 3 4 5 6 
#
# 1 96.8725 47.1570 10.8379 0.0000 0.0000 0.0000
# 2 47.1570 179.6945 24.7992 0.0000 0.0000 0.0000
# 3 10.8379 24.7992 93.6195 0.0000 0.0000 0.0000
# 4 0.0000 0.0000 0.0000 22.0511 0.0000 0.0000
# 5 0.0000 0.0000 0.0000 0.0000 59.7253 0.0000
# 6 0.0000 0.0000 0.0000 0.0000 0.0000 29.3988
#
#
#
# Elastic Compliance Matrix: (Units=1/GPa)
#
#
# Indices 1 2 3 4 5 6 
#
# 1 0.011864 -0.003035 -0.000570 0.000000 0.000000 0.000000
# 2 -0.003035 0.006552 -0.001384 0.000000 0.000000 0.000000
# 3 -0.000570 -0.001384 0.011114 0.000000 0.000000 0.000000
# 4 0.000000 0.000000 0.000000 0.045349 0.000000 0.000000
# 5 0.000000 0.000000 0.000000 0.000000 0.016743 0.000000
# 6 0.000000 0.000000 0.000000 0.000000 0.000000 0.034015
#
#
# Mechanical properties :
#
#
# Convention : Reuss Voigt Hill
#
# Bulk Modulus (GPa) = 51.14282 59.53054 55.33668
# Shear Modulus (GPa) = 35.17827 41.39454 38.28640
#
# Velocity S-wave (km/s) = 3.55288 3.85402 3.70651
# Velocity P-wave (km/s) = 5.93144 6.41606 6.17850
#
# Compressibility (1/GPa) = 0.01955309
#
# Stress axis : x y z
#
# Youngs Moduli (GPa) = 84.28928 152.61394 89.97515
#
# Poissons Ratio (x) = 0.46316 0.05124
# Poissons Ratio (y) = 0.25580 0.12456
# Poissons Ratio (z) = 0.04801 0.21128
#
# Static dielectric constant tensor:
#      x y z
#    x 2.189130 0.000000 0.000000 
#    y 0.000000 2.090990 0.000000 
#    z 0.000000 0.000000 2.114040 
# 
# From -- ./inp_files/147.got.cif
#   From: 2010.05.17/outbox.cif.g08.bks.cpg/sg62_1_cif.got.tgz:147.got - 2010.06.03 15:25:27.
