data_PCOD9467135
_publ_section_title
;
Structure prediction by ZEFSAII (Michael W. Deem and Ramdas Pophale) SiO2 
 PCOD9467135
Probable space group: P N M A
;
_chemical_formula_sum "Si O2"
_cell_formula_units_Z 36
_cell_length_a 19.720359
_cell_length_b 9.529561
_cell_length_c 8.781107
_cell_angle_alpha 90.000000
_cell_angle_beta 90.000000
_cell_angle_gamma 90.000000
_cell_volume 1650.201511
_symmetry_space_group_name_H-M "P N M A"
_symmetry_group_IT_number 62
_symmetry_cell_setting 'orthorhombic'
loop_
_space_group_symop_operation_xyz
x,y,z
1/2-x,-y,1/2+z
1/2+x,1/2-y,1/2-z
-x,1/2+y,-z
-x,-y,-z
1/2+x,y,1/2-z
1/2-x,1/2+y,1/2+z
x,1/2-y,z
loop_
_atom_site_type_symbol
_atom_site_label
_atom_site_fract_x
_atom_site_fract_y
_atom_site_fract_z
Si Si1 0.464213 0.908929 0.629536
Si Si2 0.669704 0.914767 0.345958
Si Si3 0.074125 0.534065 0.617504
Si Si4 0.997155 0.250000 0.565718
Si Si5 0.712005 0.587433 0.700752
O O1 0.450670 0.750000 0.577420
O O2 0.517405 0.903525 0.766997
O O3 0.500000 0.000000 0.500000
O O4 0.396236 0.989000 0.672312
O O5 0.656578 0.750000 0.317139
O O6 0.691074 0.926147 0.524193
O O7 0.729087 0.979816 0.244216
O O8 0.060287 0.627177 0.469758
O O9 0.146647 0.556055 0.694210
O O10 0.054305 0.373789 0.592865
O O11 0.733023 0.750000 0.726270
#
# Coordination Sequence:
#
# PCOD9467135 Si02
#       5
#     8   8   8   4   8
#     4  12  24  43  73 102 134 176 232 283 341 408
#     4  11  27  46  71 101 136 185 231 284 345 416
#     4  11  23  45  71 100 142 178 227 281 348 409
#     4  10  24  40  66 106 136 180 220 280 342 406
#     4  11  24  48  69  97 141 182 225 285 343 407
#
# _framework density 21.815515999999999
#
# number of rings (size 3 to 8) (size 9 to 14) (size 15 to 20)
#    0.000    0.889    4.444    1.333    4.667    5.333 
#    4.000    0.000    0.000    0.000    0.000    0.000 
#    0.000    0.000    0.000    0.000    0.000    0.000 
#
# Total GULP energy -200464.219507 kJ/mol
# GULP energy per Si atom -5568.450542 kJ/mol
# Density = 2.176586 g / cm^3
# Si number density = 21.815516 Si / 1000 Ang^3
#
#
#
# Elastic Constant Matrix: (Units=GPa)
#
#
# Indices 1 2 3 4 5 6 
#
# 1 119.3283 55.5793 13.9896 0.0000 0.0000 0.0000
# 2 55.5793 242.3610 34.0594 0.0000 0.0000 0.0000
# 3 13.9896 34.0594 47.5445 0.0000 0.0000 0.0000
# 4 0.0000 0.0000 0.0000 31.3946 0.0000 0.0000
# 5 0.0000 0.0000 0.0000 0.0000 34.3291 0.0000
# 6 0.0000 0.0000 0.0000 0.0000 0.0000 41.6012
#
#
#
# Elastic Compliance Matrix: (Units=1/GPa)
#
#
# Indices 1 2 3 4 5 6 
#
# 1 0.009462 -0.001978 -0.001367 0.000000 0.000000 0.000000
# 2 -0.001978 0.005001 -0.003001 0.000000 0.000000 0.000000
# 3 -0.001367 -0.003001 0.023585 0.000000 0.000000 0.000000
# 4 0.000000 0.000000 0.000000 0.031853 0.000000 0.000000
# 5 0.000000 0.000000 0.000000 0.000000 0.029130 0.000000
# 6 0.000000 0.000000 0.000000 0.000000 0.000000 0.024038
#
#
# Mechanical properties :
#
#
# Convention : Reuss Voigt Hill
#
# Bulk Modulus (GPa) = 39.43790 68.49892 53.96841
# Shear Modulus (GPa) = 34.67119 41.83867 38.25493
#
# Velocity S-wave (km/s) = 3.99092 4.38407 4.19210
# Velocity P-wave (km/s) = 6.27325 7.55606 6.94434
#
# Compressibility (1/GPa) = 0.02535632
#
# Stress axis : x y z
#
# Youngs Moduli (GPa) = 105.68966 199.94738 42.39984
#
# Poissons Ratio (x) = 0.39542 0.05797
# Poissons Ratio (y) = 0.20902 0.12724
# Poissons Ratio (z) = 0.14451 0.60002
#
# Static dielectric constant tensor:
#      x y z
#    x 1.791700 0.000000 0.000000 
#    y 0.000000 1.747360 0.000000 
#    z 0.000000 0.000000 1.967380 
# 
# From -- ./inp_files/8325.got.cif
#   From: 2010.05.17/outbox.cif.g08.bks.cpg/sg62_5_cif.got.tgz:8325.got - 2010.06.03 15:25:27.
