data_PCOD9467068
_publ_section_title
;
Structure prediction by ZEFSAII (Michael W. Deem and Ramdas Pophale) SiO2 
 PCOD9467068
Probable space group: P N M A
;
_chemical_formula_sum "Si O2"
_cell_formula_units_Z 48
_cell_length_a 9.407804
_cell_length_b 13.965145
_cell_length_c 14.612207
_cell_angle_alpha 90.000000
_cell_angle_beta 90.000000
_cell_angle_gamma 90.000000
_cell_volume 1919.771438
_symmetry_space_group_name_H-M "P N M A"
_symmetry_group_IT_number 62
_symmetry_cell_setting 'orthorhombic'
loop_
_space_group_symop_operation_xyz
x,y,z
1/2-x,-y,1/2+z
1/2+x,1/2-y,1/2-z
-x,1/2+y,-z
-x,-y,-z
1/2+x,y,1/2-z
1/2-x,1/2+y,1/2+z
x,1/2-y,z
loop_
_atom_site_type_symbol
_atom_site_label
_atom_site_fract_x
_atom_site_fract_y
_atom_site_fract_z
Si Si1 0.646709 0.446414 0.649962
Si Si2 0.801491 0.931976 0.953487
Si Si3 0.505066 0.859911 0.698266
Si Si4 0.502215 0.859724 0.913703
Si Si5 0.226434 0.644891 0.042402
Si Si6 0.372415 0.143784 0.740075
O O1 0.652546 0.394644 0.551713
O O2 0.613662 0.559154 0.662567
O O3 0.801305 0.427993 0.690494
O O4 0.522758 0.393629 0.705548
O O5 0.870369 0.880326 0.866963
O O6 0.632415 0.927225 0.941495
O O7 0.850534 0.042616 0.963841
O O8 0.553854 0.750000 0.687540
O O9 0.471757 0.873468 0.805715
O O10 0.555456 0.750000 0.923077
O O11 0.367262 0.866045 0.980874
O O12 0.163548 0.750000 0.017371
O O13 0.234473 0.648767 0.152730
O O14 0.385354 0.250000 0.779141
#
# Coordination Sequence:
#
# PCOD9467068 Si02
#       6
#     8   8   8   8   8   8
#     4  12  28  48  74 112 151 199 252 306 376 451
#     4  12  25  47  75 108 148 197 252 317 375 454
#     4  11  26  47  71 106 148 195 251 311 377 448
#     4  10  24  45  75 110 147 197 249 313 384 454
#     4  10  23  43  70 108 149 195 251 305 375 445
#     4  11  26  48  74 107 151 197 246 306 370 443
#
# _framework density 25.002974999999999
#
# number of rings (size 3 to 8) (size 9 to 14) (size 15 to 20)
#    0.000    1.000    1.667    3.000    4.667    3.333 
#    0.000    0.000    0.000    0.000    0.000    0.000 
#    0.000    0.000    0.000    0.000    0.000    0.000 
#
# Total GULP energy -268423.281281 kJ/mol
# GULP energy per Si atom -5592.151693 kJ/mol
# Density = 2.494607 g / cm^3
# Si number density = 25.002975 Si / 1000 Ang^3
#
#
#
# Elastic Constant Matrix: (Units=GPa)
#
#
# Indices 1 2 3 4 5 6 
#
# 1 69.6809 20.9871 39.9814 0.0000 0.0000 0.0000
# 2 20.9871 144.4876 26.2269 0.0000 0.0000 0.0000
# 3 39.9814 26.2269 47.5901 0.0000 0.0000 0.0000
# 4 0.0000 0.0000 0.0000 26.7926 0.0000 0.0000
# 5 0.0000 0.0000 0.0000 0.0000 38.0225 0.0000
# 6 0.0000 0.0000 0.0000 0.0000 0.0000 -0.1637
#
#
#
# Elastic Compliance Matrix: (Units=1/GPa)
#
#
# Indices 1 2 3 4 5 6 
#
# 1 0.027714 0.000223 -0.023406 0.000000 0.000000 0.000000
# 2 0.000223 0.007692 -0.004427 0.000000 0.000000 0.000000
# 3 -0.023406 -0.004427 0.043116 0.000000 0.000000 0.000000
# 4 0.000000 0.000000 0.000000 0.037324 0.000000 0.000000
# 5 0.000000 0.000000 0.000000 0.000000 0.026300 0.000000
# 6 0.000000 0.000000 0.000000 0.000000 0.000000 -6.107573
#
#
# Mechanical properties :
#
#
# Convention : Reuss Voigt Hill
#
# Bulk Modulus (GPa) = 42.91249 48.46105 45.68677
# Shear Modulus (GPa) = -0.84711 24.56782 11.86036
#
# Velocity S-wave (km/s) = -0.58270 3.13804 2.18034
# Velocity P-wave (km/s) = 4.09237 5.70560 4.96495
#
# Compressibility (1/GPa) = 0.02330324
#
# Stress axis : x y z
#
# Youngs Moduli (GPa) = 36.08330 130.00367 23.19335
#
# Poissons Ratio (x) = -0.02900 0.54286
# Poissons Ratio (y) = -0.00805 0.10267
# Poissons Ratio (z) = 0.84456 0.57546
#
# Static dielectric constant tensor:
#      x y z
#    x 1.933810 0.000000 0.000000 
#    y 0.000000 2.031430 0.000000 
#    z 0.000000 0.000000 2.039140 
# 
# From -- ./inp_files/22199.got.cif
#   From: 2010.05.17/outbox.cif.g08.bks.cpg/sg62_12_cif.got.tgz:22199.got - 2010.06.03 15:25:27.
