data_PCOD9467231
_publ_section_title
;
Structure prediction by ZEFSAII (Michael W. Deem and Ramdas Pophale) SiO2 
 PCOD9467231
Probable space group: P N M A
;
_chemical_formula_sum "Si O2"
_cell_formula_units_Z 40
_cell_length_a 8.937410
_cell_length_b 22.467506
_cell_length_c 9.281921
_cell_angle_alpha 90.000000
_cell_angle_beta 90.000000
_cell_angle_gamma 90.000000
_cell_volume 1863.821922
_symmetry_space_group_name_H-M "P N M A"
_symmetry_group_IT_number 62
_symmetry_cell_setting 'orthorhombic'
loop_
_space_group_symop_operation_xyz
x,y,z
1/2-x,-y,1/2+z
1/2+x,1/2-y,1/2-z
-x,1/2+y,-z
-x,-y,-z
1/2+x,y,1/2-z
1/2-x,1/2+y,1/2+z
x,1/2-y,z
loop_
_atom_site_type_symbol
_atom_site_label
_atom_site_fract_x
_atom_site_fract_y
_atom_site_fract_z
Si Si1 0.816550 0.843441 0.042174
Si Si2 0.108339 0.250000 0.464958
Si Si3 0.713376 0.750000 0.815246
Si Si4 0.428164 0.513382 0.152091
Si Si5 0.892789 0.966168 0.892681
Si Si6 0.503671 0.347009 0.810923
O O1 0.668518 0.839415 0.142191
O O2 0.951311 0.826603 0.150022
O O3 0.788058 0.804530 0.901034
O O4 0.839543 0.908453 0.976548
O O5 0.246616 0.250000 0.353524
O O6 0.093699 0.192460 0.570415
O O7 0.961453 0.250000 0.360106
O O8 0.251623 0.503909 0.150796
O O9 0.503713 0.463224 0.252811
O O10 0.461253 0.582274 0.188431
O O11 0.500000 0.500000 0.000000
O O12 0.000000 0.000000 0.000000
#
# Coordination Sequence:
#
# PCOD9467231 Si02
#       6
#     8   4   4   8   8   8
#     4  11  24  43  67  96 133 171 226 267 329 392
#     4  10  25  46  68  96 132 170 221 272 334 385
#     4  10  25  44  66  98 126 170 219 278 326 391
#     4  12  24  42  66  98 137 173 218 269 328 389
#     4  12  25  43  65 100 133 175 219 272 328 395
#     4  11  23  45  67  97 134 175 220 270 324 400
#
# _framework density 21.461278
#
# number of rings (size 3 to 8) (size 9 to 14) (size 15 to 20)
#    0.000    0.800    4.000    3.000    2.800    1.600 
#    0.000    0.000    0.000    0.000    0.000    0.000 
#    0.000    0.000    0.000    0.000    0.000    0.000 
#
# Total GULP energy -223450.565392 kJ/mol
# GULP energy per Si atom -5586.264135 kJ/mol
# Density = 2.141243 g / cm^3
# Si number density = 21.461278 Si / 1000 Ang^3
#
#
#
# Elastic Constant Matrix: (Units=GPa)
#
#
# Indices 1 2 3 4 5 6 
#
# 1 76.7789 3.4074 14.4121 0.0000 0.0000 0.0000
# 2 3.4074 62.6768 -6.9684 0.0000 0.0000 0.0000
# 3 14.4121 -6.9684 101.0187 0.0000 0.0000 0.0000
# 4 0.0000 0.0000 0.0000 -4.5395 0.0000 0.0000
# 5 0.0000 0.0000 0.0000 0.0000 46.3423 0.0000
# 6 0.0000 0.0000 0.0000 0.0000 0.0000 18.0717
#
#
#
# Elastic Compliance Matrix: (Units=1/GPa)
#
#
# Indices 1 2 3 4 5 6 
#
# 1 0.013439 -0.000951 -0.001983 0.000000 0.000000 0.000000
# 2 -0.000951 0.016145 0.001249 0.000000 0.000000 0.000000
# 3 -0.001983 0.001249 0.010268 0.000000 0.000000 0.000000
# 4 0.000000 0.000000 0.000000 -0.220286 0.000000 0.000000
# 5 0.000000 0.000000 0.000000 0.000000 0.021579 0.000000
# 6 0.000000 0.000000 0.000000 0.000000 0.000000 0.055335
#
#
# Mechanical properties :
#
#
# Convention : Reuss Voigt Hill
#
# Bulk Modulus (GPa) = 27.40962 29.13070 28.27016
# Shear Modulus (GPa) = -56.82475 27.28311 -14.77082
#
# Velocity S-wave (km/s) = -5.15124 3.56936 -2.62631
# Velocity P-wave (km/s) = 4.75195 5.53084 2.00115
#
# Compressibility (1/GPa) = 0.03648354
#
# Stress axis : x y z
#
# Youngs Moduli (GPa) = 74.41128 61.93679 97.38764
#
# Poissons Ratio (x) = 0.05890 0.19311
# Poissons Ratio (y) = 0.07077 -0.12168
# Poissons Ratio (z) = 0.14755 -0.07739
#
# Static dielectric constant tensor:
#      x y z
#    x 1.810260 0.000000 0.000000 
#    y 0.000000 1.750760 0.000000 
#    z 0.000000 0.000000 2.084930 
# 
# From -- ./inp_files/4328.got.cif
#   From: 2010.05.17/outbox.cif.g08.bks.cpg/sg62_3_cif.got.tgz:4328.got - 2010.06.03 15:25:27.
