data_PCOD9467926
_publ_section_title
;
Structure prediction by ZEFSAII (Michael W. Deem and Ramdas Pophale) SiO2 
 PCOD9467926
Probable space group: P N M A
;
_chemical_formula_sum "Si O2"
_cell_formula_units_Z 56
_cell_length_a 21.000000
_cell_length_b 9.000000
_cell_length_c 15.000000
_cell_angle_alpha 90.000000
_cell_angle_beta 90.000000
_cell_angle_gamma 90.000000
_cell_volume 2835.000000
_symmetry_space_group_name_H-M "P N M A"
_symmetry_group_IT_number 62
_symmetry_cell_setting 'orthorhombic'
loop_
_space_group_symop_operation_xyz
x,y,z
1/2-x,-y,1/2+z
1/2+x,1/2-y,1/2-z
-x,1/2+y,-z
-x,-y,-z
1/2+x,y,1/2-z
1/2-x,1/2+y,1/2+z
x,1/2-y,z
loop_
_atom_site_type_symbol
_atom_site_label
_atom_site_fract_x
_atom_site_fract_y
_atom_site_fract_z
Si Si1 0.730742 0.928413 0.351512
Si Si2 0.950663 0.426426 0.567164
Si Si3 0.404443 0.428805 0.362233
Si Si4 0.016249 0.570831 0.233161
Si Si5 0.741831 0.922020 0.671466
Si Si6 0.400468 0.069097 0.563355
Si Si7 0.326720 0.924019 0.003378
O O1 0.729208 0.750000 0.350440
O O2 0.670926 0.977573 0.411020
O O3 0.794586 0.971984 0.404029
O O4 0.727484 0.985253 0.251112
O O5 0.958861 0.250000 0.566741
O O6 0.958954 0.477814 0.669973
O O7 0.883172 0.473656 0.528665
O O8 0.000000 0.500000 0.500000
O O9 0.412710 0.250000 0.358648
O O10 0.447375 0.507155 0.288966
O O11 0.331269 0.463845 0.342745
O O12 0.419572 0.479886 0.463990
O O13 0.015962 0.750000 0.232774
O O14 0.057552 0.520876 0.147590
O O15 0.744506 0.750000 0.699275
O O16 0.775518 0.932049 0.576173
O O17 0.401658 0.250000 0.560760
O O18 0.346548 0.750000 0.011088
#
# Coordination Sequence:
#
# PCOD9467926 Si02
#       7
#     8   8   8   8   8   8   8
#     4  10  20  36  61  86 113 153 195 237 287 347
#     4  11  25  43  62  86 118 156 200 246 293 349
#     4  10  20  36  59  85 116 152 188 232 291 349
#     4  10  22  38  58  84 114 150 195 241 284 341
#     4  10  21  37  57  87 121 153 192 241 294 350
#     4   9  17  36  61  85 114 151 190 230 287 349
#     4  10  21  40  63  87 118 155 195 242 296 351
#
# _framework density 19.753086
#
# number of rings (size 3 to 8) (size 9 to 14) (size 15 to 20)
#    0.000    2.000    1.429    1.714    2.000    4.000 
#    0.000    1.429    0.000    0.000    0.000    0.000 
#    0.000    0.000    0.000    0.000    0.000    0.000 
#
# Total GULP energy -312487.505294 kJ/mol
# GULP energy per Si atom -5580.134023 kJ/mol
# Density = 1.970813 g / cm^3
# Si number density = 19.753086 Si / 1000 Ang^3
#
#
#
# Elastic Constant Matrix: (Units=GPa)
#
#
# Indices 1 2 3 4 5 6 
#
# 1 50.5145 9.6521 -21.5312 0.0000 0.0000 0.0000
# 2 9.6521 -1.0137 0.5406 0.0000 0.0000 0.0000
# 3 -21.5312 0.5406 21.4636 0.0000 0.0000 0.0000
# 4 0.0000 0.0000 0.0000 28.7103 0.0000 0.0000
# 5 0.0000 0.0000 0.0000 0.0000 14.5960 0.0000
# 6 0.0000 0.0000 0.0000 0.0000 0.0000 18.6717
#
#
#
# Elastic Compliance Matrix: (Units=1/GPa)
#
#
# Indices 1 2 3 4 5 6 
#
# 1 0.007688 0.076287 0.005791 0.000000 0.000000 0.000000
# 2 0.076287 -0.216382 0.081978 0.000000 0.000000 0.000000
# 3 0.005791 0.081978 0.050335 0.000000 0.000000 0.000000
# 4 0.000000 0.000000 0.000000 0.034831 0.000000 0.000000
# 5 0.000000 0.000000 0.000000 0.000000 0.068512 0.000000
# 6 0.000000 0.000000 0.000000 0.000000 0.000000 0.053557
#
#
# Mechanical properties :
#
#
# Convention : Reuss Voigt Hill
#
# Bulk Modulus (GPa) = 5.89094 5.36523 5.62809
# Shear Modulus (GPa) = -18.31588 17.88245 -0.21671
#
# Velocity S-wave (km/s) = -3.04837 3.01208 -0.33159
# Velocity P-wave (km/s) = 3.06615 3.84953 1.64585
#
# Compressibility (1/GPa) = 0.16975217
#
# Stress axis : x y z
#
# Youngs Moduli (GPa) = 130.07301 -4.62145 19.86693
#
# Poissons Ratio (x) = 0.35256 -0.11505
# Poissons Ratio (y) = -9.92292 -1.62864
# Poissons Ratio (z) = -0.75323 0.37886
#
# Static dielectric constant tensor:
#      x y z
#    x 1.801330 0.000000 0.000000 
#    y 0.000000 1.666990 0.000000 
#    z 0.000000 0.000000 1.667860 
# 
# From -- ./inp_files/20310.got.cif
#   From: 2010.05.17/outbox.ucp.g08.bks.cvg/sg62_11_cif.got.tgz:20310.got - 2010.06.11 16:29:25.
