data_PCOD9467609
_publ_section_title
;
Structure prediction by ZEFSAII (Michael W. Deem and Ramdas Pophale) SiO2 
 PCOD9467609
Probable space group: P N M A
;
_chemical_formula_sum "Si O2"
_cell_formula_units_Z 32
_cell_length_a 5.083620
_cell_length_b 13.356388
_cell_length_c 19.434184
_cell_angle_alpha 90.000000
_cell_angle_beta 90.000000
_cell_angle_gamma 90.000000
_cell_volume 1319.557795
_symmetry_space_group_name_H-M "P N M A"
_symmetry_group_IT_number 62
_symmetry_cell_setting 'orthorhombic'
loop_
_space_group_symop_operation_xyz
x,y,z
1/2-x,-y,1/2+z
1/2+x,1/2-y,1/2-z
-x,1/2+y,-z
-x,-y,-z
1/2+x,y,1/2-z
1/2-x,1/2+y,1/2+z
x,1/2-y,z
loop_
_atom_site_type_symbol
_atom_site_label
_atom_site_fract_x
_atom_site_fract_y
_atom_site_fract_z
Si Si1 0.415822 0.250000 0.875977
Si Si2 0.858012 0.450250 0.705201
Si Si3 0.678618 0.250000 0.298931
Si Si4 0.696047 0.082123 0.969112
Si Si5 0.458902 0.422068 0.393864
O O1 0.312796 0.160207 0.825011
O O2 0.540282 0.163771 0.927054
O O3 0.652140 0.460939 0.767539
O O4 0.781196 0.536266 0.651493
O O5 0.960205 0.250000 0.261994
O O6 0.622887 0.345215 0.347973
O O7 0.857946 0.124294 0.034200
O O8 0.887230 0.021196 0.918540
O O9 0.500000 0.000000 0.000000
#
# Coordination Sequence:
#
# PCOD9467609 Si02
#       5
#     4   8   4   8   8
#     4  12  25  47  76 109 153 192 264 310 394 458
#     4  12  26  46  74 107 150 199 249 315 375 454
#     4  12  29  49  80 115 155 212 256 312 384 468
#     4  11  25  48  77 113 152 205 251 334 383 452
#     4  11  26  49  76 115 156 204 264 318 391 462
#
# _framework density 24.25055
#
# number of rings (size 3 to 8) (size 9 to 14) (size 15 to 20)
#    0.000    0.500    2.500    4.500    3.500    4.000 
#    0.000    0.000    0.000    0.000    0.000    0.000 
#    0.000    0.000    0.000    0.000    0.000    0.000 
#
# Total GULP energy -178456.944750 kJ/mol
# GULP energy per Si atom -5576.779523 kJ/mol
# Density = 2.419535 g / cm^3
# Si number density = 24.250550 Si / 1000 Ang^3
#
#
#
# Elastic Constant Matrix: (Units=GPa)
#
#
# Indices 1 2 3 4 5 6 
#
# 1 54.9038 11.3083 32.2150 0.0000 0.0000 0.0000
# 2 11.3083 120.5638 51.4763 0.0000 0.0000 0.0000
# 3 32.2150 51.4763 127.6540 0.0000 0.0000 0.0000
# 4 0.0000 0.0000 0.0000 52.0389 0.0000 0.0000
# 5 0.0000 0.0000 0.0000 0.0000 48.7264 0.0000
# 6 0.0000 0.0000 0.0000 0.0000 0.0000 -7.5534
#
#
#
# Elastic Compliance Matrix: (Units=1/GPa)
#
#
# Indices 1 2 3 4 5 6 
#
# 1 0.021392 0.000361 -0.005544 0.000000 0.000000 0.000000
# 2 0.000361 0.010026 -0.004134 0.000000 0.000000 0.000000
# 3 -0.005544 -0.004134 0.010900 0.000000 0.000000 0.000000
# 4 0.000000 0.000000 0.000000 0.019216 0.000000 0.000000
# 5 0.000000 0.000000 0.000000 0.000000 0.020523 0.000000
# 6 0.000000 0.000000 0.000000 0.000000 0.000000 -0.132390
#
#
# Mechanical properties :
#
#
# Convention : Reuss Voigt Hill
#
# Bulk Modulus (GPa) = 42.22404 54.79122 48.50763
# Shear Modulus (GPa) = -210.04603 32.51715 -88.76444
#
# Velocity S-wave (km/s) = -9.31681 3.66578 -6.05661
# Velocity P-wave (km/s) = 9.91403 6.36868 5.37252
#
# Compressibility (1/GPa) = 0.02368319
#
# Stress axis : x y z
#
# Youngs Moduli (GPa) = 46.74558 99.74555 91.74550
#
# Poissons Ratio (x) = -0.03597 0.50864
# Poissons Ratio (y) = -0.01686 0.37926
# Poissons Ratio (z) = 0.25916 0.41233
#
# Static dielectric constant tensor:
#      x y z
#    x 1.986750 0.000000 0.000000 
#    y 0.000000 1.932640 0.000000 
#    z 0.000000 0.000000 1.961230 
# 
# From -- ./inp_files/21418.got.cif
#   From: 2010.05.17/outbox.cif.g08.bks.cpg/sg62_11_cif.got.tgz:21418.got - 2010.06.03 15:25:27.
