data_PCOD9467115
_publ_section_title
;
Structure prediction by ZEFSAII (Michael W. Deem and Ramdas Pophale) SiO2 
 PCOD9467115
Probable space group: P N M A
;
_chemical_formula_sum "Si O2"
_cell_formula_units_Z 52
_cell_length_a 13.552067
_cell_length_b 23.079821
_cell_length_c 7.094636
_cell_angle_alpha 90.000000
_cell_angle_beta 90.000000
_cell_angle_gamma 90.000000
_cell_volume 2219.055144
_symmetry_space_group_name_H-M "P N M A"
_symmetry_group_IT_number 62
_symmetry_cell_setting 'orthorhombic'
loop_
_space_group_symop_operation_xyz
x,y,z
1/2-x,-y,1/2+z
1/2+x,1/2-y,1/2-z
-x,1/2+y,-z
-x,-y,-z
1/2+x,y,1/2-z
1/2-x,1/2+y,1/2+z
x,1/2-y,z
loop_
_atom_site_type_symbol
_atom_site_label
_atom_site_fract_x
_atom_site_fract_y
_atom_site_fract_z
Si Si1 0.333814 0.345449 0.758309
Si Si2 0.969163 0.953297 0.657425
Si Si3 0.313595 0.957300 0.534922
Si Si4 0.646609 0.881514 0.860200
Si Si5 0.038672 0.750000 0.115015
Si Si6 0.663069 0.750000 0.754474
Si Si7 0.192493 0.250000 0.948095
Si Si8 0.305875 0.572824 0.098201
O O1 0.429552 0.307458 0.722594
O O2 0.247781 0.304164 0.847489
O O3 0.280350 0.379076 0.591092
O O4 0.366117 0.391113 0.914880
O O5 0.906898 0.973939 0.837602
O O6 0.898506 0.912161 0.530842
O O7 0.064810 0.920423 0.735696
O O8 0.000000 0.000000 0.500000
O O9 0.256695 0.906649 0.653306
O O10 0.333723 0.936347 0.320596
O O11 0.239817 0.011932 0.529436
O O12 0.628414 0.813428 0.826906
O O13 0.924457 0.750000 0.066000
O O14 0.123329 0.750000 0.954503
O O15 0.774622 0.750000 0.832562
#
# Coordination Sequence:
#
# PCOD9467115 Si02
#       8
#     8   8   8   8   4   4   4   8
#     4   9  22  43  64  93 134 165 225 285 327 411
#     4  12  24  43  69 101 134 178 232 274 345 415
#     4  11  23  44  69  95 142 174 223 280 338 400
#     4  10  23  46  63  96 136 174 219 285 340 400
#     4  11  23  41  68  98 124 183 231 271 355 416
#     4  10  24  42  66  94 138 170 226 292 333 414
#     4   9  21  45  62  88 132 173 219 277 340 404
#     4  11  22  41  67  98 134 183 216 285 337 400
#
# _framework density 23.433398
#
# number of rings (size 3 to 8) (size 9 to 14) (size 15 to 20)
#    0.000    1.538    3.077    1.385    4.308    4.308 
#    0.000    0.000    0.000    0.000    0.000    0.000 
#    0.000    0.000    0.000    0.000    0.000    0.000 
#
# Total GULP energy -290085.896923 kJ/mol
# GULP energy per Si atom -5578.574941 kJ/mol
# Density = 2.338006 g / cm^3
# Si number density = 23.433398 Si / 1000 Ang^3
#
#
#
# Elastic Constant Matrix: (Units=GPa)
#
#
# Indices 1 2 3 4 5 6 
#
# 1 107.9314 12.1359 29.0177 0.0000 0.0000 0.0000
# 2 12.1359 80.8406 -8.2455 0.0000 0.0000 0.0000
# 3 29.0177 -8.2455 63.6595 0.0000 0.0000 0.0000
# 4 0.0000 0.0000 0.0000 31.5760 0.0000 0.0000
# 5 0.0000 0.0000 0.0000 0.0000 38.3630 0.0000
# 6 0.0000 0.0000 0.0000 0.0000 0.0000 11.0159
#
#
#
# Elastic Compliance Matrix: (Units=1/GPa)
#
#
# Indices 1 2 3 4 5 6 
#
# 1 0.010924 -0.002177 -0.005262 0.000000 0.000000 0.000000
# 2 -0.002177 0.012969 0.002672 0.000000 0.000000 0.000000
# 3 -0.005262 0.002672 0.018453 0.000000 0.000000 0.000000
# 4 0.000000 0.000000 0.000000 0.031670 0.000000 0.000000
# 5 0.000000 0.000000 0.000000 0.000000 0.026067 0.000000
# 6 0.000000 0.000000 0.000000 0.000000 0.000000 0.090778
#
#
# Mechanical properties :
#
#
# Convention : Reuss Voigt Hill
#
# Bulk Modulus (GPa) = 30.47443 35.36085 32.91764
# Shear Modulus (GPa) = 23.65949 30.82586 27.24268
#
# Velocity S-wave (km/s) = 3.18094 3.63087 3.41333
# Velocity P-wave (km/s) = 5.15016 5.71842 5.44171
#
# Compressibility (1/GPa) = 0.03281439
#
# Stress axis : x y z
#
# Youngs Moduli (GPa) = 91.53747 77.10500 54.19157
#
# Poissons Ratio (x) = 0.16783 0.28513
# Poissons Ratio (y) = 0.19925 -0.14480
# Poissons Ratio (z) = 0.48163 -0.20603
#
# Static dielectric constant tensor:
#      x y z
#    x 1.897950 0.000000 0.000000 
#    y 0.000000 1.943080 0.000000 
#    z 0.000000 0.000000 2.033350 
# 
# From -- ./inp_files/5415.got.cif
#   From: 2010.05.17/outbox.cif.g08.bks.cpg/sg62_3_cif.got.tgz:5415.got - 2010.06.03 15:25:27.
