data_PCOD9467858
_publ_section_title
;
Structure prediction by ZEFSAII (Michael W. Deem and Ramdas Pophale) SiO2 
 PCOD9467858
Probable space group: P N M A
;
_chemical_formula_sum "Si O2"
_cell_formula_units_Z 48
_cell_length_a 12.000000
_cell_length_b 15.000000
_cell_length_c 15.000000
_cell_angle_alpha 90.000000
_cell_angle_beta 90.000000
_cell_angle_gamma 90.000000
_cell_volume 2700.000000
_symmetry_space_group_name_H-M "P N M A"
_symmetry_group_IT_number 62
_symmetry_cell_setting 'orthorhombic'
loop_
_space_group_symop_operation_xyz
x,y,z
1/2-x,-y,1/2+z
1/2+x,1/2-y,1/2-z
-x,1/2+y,-z
-x,-y,-z
1/2+x,y,1/2-z
1/2-x,1/2+y,1/2+z
x,1/2-y,z
loop_
_atom_site_type_symbol
_atom_site_label
_atom_site_fract_x
_atom_site_fract_y
_atom_site_fract_z
Si Si1 0.983350 0.350480 0.019238
Si Si2 0.944752 0.848784 0.354695
Si Si3 0.594317 0.450249 0.326028
Si Si4 0.397630 0.595692 0.339852
Si Si5 0.246260 0.558025 0.042666
Si Si6 0.346813 0.483457 0.862054
O O1 0.944515 0.250000 0.019306
O O2 0.047145 0.371364 0.111546
O O3 0.067699 0.364644 0.935902
O O4 0.871017 0.406908 0.999505
O O5 0.978668 0.750000 0.384036
O O6 0.920331 0.847884 0.248732
O O7 0.830588 0.876973 0.404665
O O8 0.046162 0.918317 0.369200
O O9 0.487286 0.515973 0.329344
O O10 0.698841 0.489805 0.382383
O O11 0.628354 0.448899 0.221326
O O12 0.268738 0.567115 0.338334
O O13 0.318330 0.523525 0.958922
#
# Coordination Sequence:
#
# PCOD9467858 Si02
#       6
#     8   8   8   8   8   8
#     4  11  21  36  61  87 114 147 192 247 284 328
#     4  11  24  36  54  91 121 144 186 243 299 335
#     4  10  20  37  62  82 111 152 201 230 277 349
#     4  10  19  38  60  85 114 150 188 232 288 356
#     4  11  20  40  60  83 115 158 193 229 283 354
#     4  11  21  38  63  82 115 159 194 232 279 350
#
# _framework density 17.777778000000001
#
# number of rings (size 3 to 8) (size 9 to 14) (size 15 to 20)
#    0.000    1.333    5.000    2.500    0.000    1.333 
#    0.000    1.667    0.000    0.000    0.000    0.000 
#    0.000    0.000    0.000    0.000    0.000    0.000 
#
# Total GULP energy -267224.605386 kJ/mol
# GULP energy per Si atom -5567.179279 kJ/mol
# Density = 1.773731 g / cm^3
# Si number density = 17.777778 Si / 1000 Ang^3
#
#
#
# Elastic Constant Matrix: (Units=GPa)
#
#
# Indices 1 2 3 4 5 6 
#
# 1 86.1981 6.8990 31.2329 0.0000 0.0000 0.0000
# 2 6.8990 27.5910 22.9798 0.0000 0.0000 0.0000
# 3 31.2329 22.9798 94.8369 0.0000 0.0000 0.0000
# 4 0.0000 0.0000 0.0000 8.7995 0.0000 0.0000
# 5 0.0000 0.0000 0.0000 0.0000 39.5680 0.0000
# 6 0.0000 0.0000 0.0000 0.0000 0.0000 11.9179
#
#
#
# Elastic Compliance Matrix: (Units=1/GPa)
#
#
# Indices 1 2 3 4 5 6 
#
# 1 0.013177 0.000400 -0.004436 0.000000 0.000000 0.000000
# 2 0.000400 0.045420 -0.011137 0.000000 0.000000 0.000000
# 3 -0.004436 -0.011137 0.014704 0.000000 0.000000 0.000000
# 4 0.000000 0.000000 0.000000 0.113643 0.000000 0.000000
# 5 0.000000 0.000000 0.000000 0.000000 0.025273 0.000000
# 6 0.000000 0.000000 0.000000 0.000000 0.000000 0.083907
#
#
# Mechanical properties :
#
#
# Convention : Reuss Voigt Hill
#
# Bulk Modulus (GPa) = 23.28113 36.76105 30.02109
# Shear Modulus (GPa) = 14.67187 21.89138 18.28162
#
# Velocity S-wave (km/s) = 2.87591 3.51292 3.21025
# Velocity P-wave (km/s) = 4.91445 6.09731 5.53755
#
# Compressibility (1/GPa) = 0.04295323
#
# Stress axis : x y z
#
# Youngs Moduli (GPa) = 75.89175 22.01691 68.00778
#
# Poissons Ratio (x) = -0.00881 0.30172
# Poissons Ratio (y) = -0.03038 0.75743
# Poissons Ratio (z) = 0.33669 0.24521
#
# Static dielectric constant tensor:
#      x y z
#    x 1.571990 0.000000 0.000000 
#    y 0.000000 1.673360 0.000000 
#    z 0.000000 0.000000 1.627830 
# 
# From -- ./inp_files/12259.got.cif
#   From: 2010.05.17/outbox.ucp.g08.bks.cvg/sg62_7_cif.got.tgz:12259.got - 2010.06.11 16:29:25.
