data_PCOD9467925
_publ_section_title
;
Structure prediction by ZEFSAII (Michael W. Deem and Ramdas Pophale) SiO2 
 PCOD9467925
Probable space group: P N M A
;
_chemical_formula_sum "Si O2"
_cell_formula_units_Z 48
_cell_length_a 18.000000
_cell_length_b 9.000000
_cell_length_c 18.000000
_cell_angle_alpha 90.000000
_cell_angle_beta 90.000000
_cell_angle_gamma 90.000000
_cell_volume 2916.000000
_symmetry_space_group_name_H-M "P N M A"
_symmetry_group_IT_number 62
_symmetry_cell_setting 'orthorhombic'
loop_
_space_group_symop_operation_xyz
x,y,z
1/2-x,-y,1/2+z
1/2+x,1/2-y,1/2-z
-x,1/2+y,-z
-x,-y,-z
1/2+x,y,1/2-z
1/2-x,1/2+y,1/2+z
x,1/2-y,z
loop_
_atom_site_type_symbol
_atom_site_label
_atom_site_fract_x
_atom_site_fract_y
_atom_site_fract_z
Si Si1 0.169968 0.069636 0.858935
Si Si2 0.050523 0.568755 0.745850
Si Si3 0.918363 0.930308 0.984419
Si Si4 0.330590 0.569172 0.825253
Si Si5 0.902839 0.431757 0.821059
Si Si6 0.016686 0.071358 0.416597
O O1 0.172310 0.250000 0.850111
O O2 0.121704 0.996935 0.790855
O O3 0.252856 0.999231 0.854576
O O4 0.131264 0.040657 0.940480
O O5 0.048675 0.750000 0.752172
O O6 0.981874 0.494684 0.790881
O O7 0.036952 0.534965 0.656431
O O8 0.922906 0.750000 0.975917
O O9 0.891450 0.002788 0.905214
O O10 0.000000 0.000000 0.000000
O O11 0.326528 0.750000 0.818128
O O12 0.348458 0.495865 0.744073
O O13 0.400501 0.537474 0.881897
O O14 0.901960 0.250000 0.822735
O O15 0.012144 0.250000 0.426507
O O16 0.000000 0.000000 0.500000
#
# Coordination Sequence:
#
# PCOD9467925 Si02
#       6
#     8   8   8   8   8   8
#     4  11  23  38  58  88 119 152 194 242 294 349
#     4  10  20  36  59  84 114 153 192 234 289 348
#     4  11  22  36  58  88 121 155 196 238 287 349
#     4  10  22  41  61  83 116 155 193 239 297 351
#     4  11  21  36  59  86 114 151 195 237 285 343
#     4   9  20  38  61  87 111 148 195 238 286 341
#
# _framework density 16.460905
#
# number of rings (size 3 to 8) (size 9 to 14) (size 15 to 20)
#    0.000    1.667    1.667    4.500    0.000    6.000 
#    3.000    0.000    0.000    0.000    0.000    0.000 
#    0.000    0.000    0.000    0.000    0.000    0.000 
#
# Total GULP energy -267436.101048 kJ/mol
# GULP energy per Si atom -5571.585438 kJ/mol
# Density = 1.642344 g / cm^3
# Si number density = 16.460905 Si / 1000 Ang^3
#
#
#
# Elastic Constant Matrix: (Units=GPa)
#
#
# Indices 1 2 3 4 5 6 
#
# 1 116.5226 45.5755 67.9866 0.0000 0.0000 0.0000
# 2 45.5755 133.0100 67.6054 0.0000 0.0000 0.0000
# 3 67.9866 67.6054 189.4094 0.0000 0.0000 0.0000
# 4 0.0000 0.0000 0.0000 44.8184 0.0000 0.0000
# 5 0.0000 0.0000 0.0000 0.0000 36.8029 0.0000
# 6 0.0000 0.0000 0.0000 0.0000 0.0000 33.4222
#
#
#
# Elastic Compliance Matrix: (Units=1/GPa)
#
#
# Indices 1 2 3 4 5 6 
#
# 1 0.011370 -0.002225 -0.003287 0.000000 0.000000 0.000000
# 2 -0.002225 0.009620 -0.002635 0.000000 0.000000 0.000000
# 3 -0.003287 -0.002635 0.007400 0.000000 0.000000 0.000000
# 4 0.000000 0.000000 0.000000 0.022312 0.000000 0.000000
# 5 0.000000 0.000000 0.000000 0.000000 0.027172 0.000000
# 6 0.000000 0.000000 0.000000 0.000000 0.000000 0.029920
#
#
# Mechanical properties :
#
#
# Convention : Reuss Voigt Hill
#
# Bulk Modulus (GPa) = 82.67361 89.03079 85.85220
# Shear Modulus (GPa) = 39.02577 40.19367 39.60972
#
# Velocity S-wave (km/s) = 4.87438 4.94678 4.91072
# Velocity P-wave (km/s) = 9.05609 9.31832 9.18814
#
# Compressibility (1/GPa) = 0.01209576
#
# Stress axis : x y z
#
# Youngs Moduli (GPa) = 87.94897 103.95045 135.13783
#
# Poissons Ratio (x) = 0.23132 0.44419
# Poissons Ratio (y) = 0.19571 0.35607
# Poissons Ratio (z) = 0.28908 0.27390
#
# Static dielectric constant tensor:
#      x y z
#    x 1.575230 0.000000 0.000000 
#    y 0.000000 1.558050 0.000000 
#    z 0.000000 0.000000 1.566180 
# 
# From -- ./inp_files/24210.got.cif
#   From: 2010.05.17/outbox.ucp.g08.bks.cvg/sg62_13_cif.got.tgz:24210.got - 2010.06.11 16:29:25.
