data_PCOD9467769
_publ_section_title
;
Structure prediction by ZEFSAII (Michael W. Deem and Ramdas Pophale) SiO2 
 PCOD9467769
Probable space group: P N M A
;
_chemical_formula_sum "Si O2"
_cell_formula_units_Z 56
_cell_length_a 15.000000
_cell_length_b 9.000000
_cell_length_c 21.000000
_cell_angle_alpha 90.000000
_cell_angle_beta 90.000000
_cell_angle_gamma 90.000000
_cell_volume 2835.000000
_symmetry_space_group_name_H-M "P N M A"
_symmetry_group_IT_number 62
_symmetry_cell_setting 'orthorhombic'
loop_
_space_group_symop_operation_xyz
x,y,z
1/2-x,-y,1/2+z
1/2+x,1/2-y,1/2-z
-x,1/2+y,-z
-x,-y,-z
1/2+x,y,1/2-z
1/2-x,1/2+y,1/2+z
x,1/2-y,z
loop_
_atom_site_type_symbol
_atom_site_label
_atom_site_fract_x
_atom_site_fract_y
_atom_site_fract_z
Si Si1 0.795602 0.568889 0.096797
Si Si2 0.504271 0.069216 0.568789
Si Si3 0.530798 0.418275 0.778225
Si Si4 0.510615 0.574525 0.906854
Si Si5 0.143105 0.928586 0.490609
Si Si6 0.623980 0.922246 0.326885
Si Si7 0.731462 0.428261 0.734391
O O1 0.794908 0.750000 0.097491
O O2 0.898910 0.526150 0.096257
O O3 0.738252 0.518495 0.035974
O O4 0.750703 0.517214 0.162825
O O5 0.501487 0.250000 0.567809
O O6 0.421207 0.012467 0.610514
O O7 0.500000 0.000000 0.500000
O O8 0.531057 0.250000 0.805220
O O9 0.511226 0.532013 0.833780
O O10 0.455998 0.421593 0.724342
O O11 0.627773 0.446394 0.749130
O O12 0.498125 0.750000 0.916454
O O13 0.432058 0.487510 0.942384
O O14 0.604635 0.529413 0.940298
O O15 0.145041 0.750000 0.488331
O O16 0.646625 0.750000 0.342099
O O17 0.707607 0.992043 0.290559
O O18 0.749622 0.250000 0.732934
#
# Coordination Sequence:
#
# PCOD9467769 Si02
#       7
#     8   8   8   8   8   8   8
#     4   9  16  31  54  77 100 132 178 221 258 307
#     4  10  20  35  54  77 106 139 175 218 264 312
#     4  10  18  31  52  75  98 130 169 210 255 304
#     4  10  20  32  47  74 108 135 163 209 264 308
#     4   9  18  33  53  73  97 136 178 211 249 307
#     4   9  17  31  52  78 104 129 171 224 261 299
#     4   9  16  27  50  79  99 125 171 221 260 296
#
# _framework density 19.753086
#
# number of rings (size 3 to 8) (size 9 to 14) (size 15 to 20)
#    0.000    2.571    1.429    1.286    0.000    4.000 
#    0.000    1.429    0.000    3.429    0.000    0.000 
#    0.000    0.000    0.000    0.000    0.000    0.000 
#
# Total GULP energy -311938.624728 kJ/mol
# GULP energy per Si atom -5570.332584 kJ/mol
# Density = 1.970813 g / cm^3
# Si number density = 19.753086 Si / 1000 Ang^3
#
#
#
# Elastic Constant Matrix: (Units=GPa)
#
#
# Indices 1 2 3 4 5 6 
#
# 1 28.5366 -6.1479 -14.0575 0.0000 0.0000 0.0000
# 2 -6.1479 -14.4156 -4.4623 0.0000 0.0000 0.0000
# 3 -14.0575 -4.4623 59.2226 0.0000 0.0000 0.0000
# 4 0.0000 0.0000 0.0000 17.1569 0.0000 0.0000
# 5 0.0000 0.0000 0.0000 0.0000 45.9647 0.0000
# 6 0.0000 0.0000 0.0000 0.0000 0.0000 10.3718
#
#
#
# Elastic Compliance Matrix: (Units=1/GPa)
#
#
# Indices 1 2 3 4 5 6 
#
# 1 0.034818 -0.017011 0.006983 0.000000 0.000000 0.000000
# 2 -0.017011 -0.059478 -0.008519 0.000000 0.000000 0.000000
# 3 0.006983 -0.008519 0.017901 0.000000 0.000000 0.000000
# 4 0.000000 0.000000 0.000000 0.058286 0.000000 0.000000
# 5 0.000000 0.000000 0.000000 0.000000 0.021756 0.000000
# 6 0.000000 0.000000 0.000000 0.000000 0.000000 0.096415
#
#
# Mechanical properties :
#
#
# Convention : Reuss Voigt Hill
#
# Bulk Modulus (GPa) = -22.80366 2.66757 -10.06805
# Shear Modulus (GPa) = 26.01805 21.23276 23.62541
#
# Velocity S-wave (km/s) = 3.63321 3.28214 3.46213
# Velocity P-wave (km/s) = 2.45579 3.96442 3.29754
#
# Compressibility (1/GPa) = -0.04385260
#
# Stress axis : x y z
#
# Youngs Moduli (GPa) = 28.72095 -16.81306 55.86266
#
# Poissons Ratio (x) = -0.28600 -0.39008
# Poissons Ratio (y) = 0.48856 0.47591
# Poissons Ratio (z) = -0.20056 -0.14323
#
# Static dielectric constant tensor:
#      x y z
#    x 1.733340 0.000000 0.000000 
#    y 0.000000 1.657510 0.000000 
#    z 0.000000 0.000000 1.724160 
# 
# From -- ./inp_files/27215.got.cif
#   From: 2010.05.17/outbox.ucp.g08.bks.cvg/sg62_14_cif.got.tgz:27215.got - 2010.06.11 16:29:25.
