data_PCOD9467793
_publ_section_title
;
Structure prediction by ZEFSAII (Michael W. Deem and Ramdas Pophale) SiO2 
 PCOD9467793
Probable space group: P N M A
;
_chemical_formula_sum "Si O2"
_cell_formula_units_Z 64
_cell_length_a 15.000000
_cell_length_b 9.000000
_cell_length_c 30.000000
_cell_angle_alpha 90.000000
_cell_angle_beta 90.000000
_cell_angle_gamma 90.000000
_cell_volume 4050.000000
_symmetry_space_group_name_H-M "P N M A"
_symmetry_group_IT_number 62
_symmetry_cell_setting 'orthorhombic'
loop_
_space_group_symop_operation_xyz
x,y,z
1/2-x,-y,1/2+z
1/2+x,1/2-y,1/2-z
-x,1/2+y,-z
-x,-y,-z
1/2+x,y,1/2-z
1/2-x,1/2+y,1/2+z
x,1/2-y,z
loop_
_atom_site_type_symbol
_atom_site_label
_atom_site_fract_x
_atom_site_fract_y
_atom_site_fract_z
Si Si1 0.629724 0.427113 0.362883
Si Si2 0.257272 0.430071 0.218994
Si Si3 0.603169 0.925605 0.450033
Si Si4 0.108355 0.072122 0.957477
Si Si5 0.850238 0.929305 0.691899
Si Si6 0.711201 0.073763 0.631571
Si Si7 0.960413 0.071380 0.278214
Si Si8 0.468779 0.925772 0.315528
O O1 0.614910 0.250000 0.361870
O O2 0.701528 0.465890 0.325093
O O3 0.653019 0.482451 0.411977
O O4 0.540674 0.515961 0.350317
O O5 0.260870 0.250000 0.222172
O O6 0.203602 0.480149 0.263303
O O7 0.359324 0.484163 0.214336
O O8 0.615873 0.750000 0.444410
O O9 0.496254 0.956256 0.447254
O O10 0.631372 0.981585 0.498508
O O11 0.115738 0.250000 0.964888
O O12 0.171062 0.030737 0.916216
O O13 0.848831 0.750000 0.692354
O O14 0.953741 0.978085 0.693320
O O15 0.796408 0.988627 0.649731
O O16 0.728734 0.250000 0.630773
O O17 0.630025 0.047929 0.665983
O O18 0.957713 0.250000 0.280810
O O19 0.983473 0.020464 0.228521
O O20 0.479752 0.750000 0.307875
#
# Coordination Sequence:
#
# PCOD9467793 Si02
#       8
#     8   8   8   8   8   8   8   8
#     4  11  20  32  49  70  96 132 168 195 236 286
#     4   9  18  31  48  70  94 125 166 201 232 281
#     4  10  19  32  48  72 100 124 157 198 239 285
#     4   9  18  33  48  67  97 130 160 191 235 290
#     4  10  19  31  49  71  93 125 166 200 236 282
#     4  10  20  33  47  68  99 130 161 197 237 282
#     4  10  19  34  49  66  96 129 163 205 239 277
#     4  11  20  30  45  69  98 128 162 201 239 277
#
# _framework density 15.802469
#
# number of rings (size 3 to 8) (size 9 to 14) (size 15 to 20)
#    0.000    2.000    3.750    1.125    0.000    2.000 
#    0.000    1.250    0.000    0.000    0.000    0.875 
#    0.000    0.000    0.000    0.000    0.000    0.000 
#
# Total GULP energy -356655.720498 kJ/mol
# GULP energy per Si atom -5572.745633 kJ/mol
# Density = 1.576650 g / cm^3
# Si number density = 15.802469 Si / 1000 Ang^3
#
#
#
# Elastic Constant Matrix: (Units=GPa)
#
#
# Indices 1 2 3 4 5 6 
#
# 1 40.9331 13.2193 0.6128 0.0000 0.0000 0.0000
# 2 13.2193 -30.7884 -11.7122 0.0000 0.0000 0.0000
# 3 0.6128 -11.7122 37.4371 0.0000 0.0000 0.0000
# 4 0.0000 0.0000 0.0000 20.7217 0.0000 0.0000
# 5 0.0000 0.0000 0.0000 0.0000 17.2522 0.0000
# 6 0.0000 0.0000 0.0000 0.0000 0.0000 14.1150
#
#
#
# Elastic Compliance Matrix: (Units=1/GPa)
#
#
# Indices 1 2 3 4 5 6 
#
# 1 0.021672 0.008436 0.002284 0.000000 0.000000 0.000000
# 2 0.008436 -0.025742 -0.008191 0.000000 0.000000 0.000000
# 3 0.002284 -0.008191 0.024111 0.000000 0.000000 0.000000
# 4 0.000000 0.000000 0.000000 0.048259 0.000000 0.000000
# 5 0.000000 0.000000 0.000000 0.000000 0.057963 0.000000
# 6 0.000000 0.000000 0.000000 0.000000 0.000000 0.070847
#
#
# Mechanical properties :
#
#
# Convention : Reuss Voigt Hill
#
# Bulk Modulus (GPa) = 39.84197 5.75795 22.79996
# Shear Modulus (GPa) = 24.94779 13.44858 19.19818
#
# Velocity S-wave (km/s) = 3.97763 2.92043 3.48930
# Velocity P-wave (km/s) = 6.80901 3.87601 5.54013
#
# Compressibility (1/GPa) = 0.02509916
#
# Stress axis : x y z
#
# Youngs Moduli (GPa) = 46.14342 -38.84753 41.47410
#
# Poissons Ratio (x) = 0.32771 -0.09474
# Poissons Ratio (y) = -0.38926 0.33973
# Poissons Ratio (z) = -0.10541 -0.31821
#
# Static dielectric constant tensor:
#      x y z
#    x 1.541640 0.000000 0.000000 
#    y 0.000000 1.522010 0.000000 
#    z 0.000000 0.000000 1.551640 
# 
# From -- ./inp_files/32696.got.cif
#   From: 2010.05.17/outbox.ucp.g08.bks.cvg/sg62_17_cif.got.tgz:32696.got - 2010.06.11 16:29:25.
