data_PCOD9467585
_publ_section_title
;
Structure prediction by ZEFSAII (Michael W. Deem and Ramdas Pophale) SiO2 
 PCOD9467585
Probable space group: P N M A
;
_chemical_formula_sum "Si O2"
_cell_formula_units_Z 48
_cell_length_a 9.745507
_cell_length_b 24.480405
_cell_length_c 8.388325
_cell_angle_alpha 90.000000
_cell_angle_beta 90.000000
_cell_angle_gamma 90.000000
_cell_volume 2001.235899
_symmetry_space_group_name_H-M "P N M A"
_symmetry_group_IT_number 62
_symmetry_cell_setting 'orthorhombic'
loop_
_space_group_symop_operation_xyz
x,y,z
1/2-x,-y,1/2+z
1/2+x,1/2-y,1/2-z
-x,1/2+y,-z
-x,-y,-z
1/2+x,y,1/2-z
1/2-x,1/2+y,1/2+z
x,1/2-y,z
loop_
_atom_site_type_symbol
_atom_site_label
_atom_site_fract_x
_atom_site_fract_y
_atom_site_fract_z
Si Si1 0.932634 0.946742 0.424978
Si Si2 0.597972 0.750000 0.075351
Si Si3 0.847337 0.186857 0.064174
Si Si4 0.159350 0.590774 0.196098
Si Si5 0.625357 0.250000 0.673450
Si Si6 0.080313 0.142555 0.298428
Si Si7 0.732327 0.151796 0.501553
O O1 0.770172 0.949238 0.385930
O O2 0.949699 0.900201 0.561475
O O3 0.015967 0.932080 0.262772
O O4 0.000000 0.000000 0.500000
O O5 0.713017 0.750000 0.215372
O O6 0.458770 0.750000 0.167443
O O7 0.640948 0.804671 0.983712
O O8 0.881136 0.250000 0.035409
O O9 0.688366 0.185418 0.126371
O O10 0.677278 0.121016 0.347789
O O11 0.852522 0.142912 0.920405
O O12 0.229402 0.612151 0.357632
O O13 0.618753 0.195067 0.568882
O O14 0.950245 0.163732 0.199555
#
# Coordination Sequence:
#
# PCOD9467585 Si02
#       7
#     8   4   8   8   4   8   8
#     4  11  28  52  78 104 137 181 247 311 369 408
#     4   8  20  32  58  94 141 198 237 258 336 406
#     4  11  26  41  70 104 158 192 233 279 352 430
#     4  11  25  46  73 110 139 190 241 285 354 447
#     4   8  20  32  58  94 141 198 237 260 330 414
#     4  11  24  47  65 105 139 188 240 298 351 422
#     4   9  22  36  68  93 148 180 237 282 334 409
#
# _framework density 23.985178999999999
#
# number of rings (size 3 to 8) (size 9 to 14) (size 15 to 20)
#    1.000    0.667    0.000    2.500   11.667    4.000 
#    0.000    6.667    0.000    0.000    0.000    0.000 
#    0.000    0.000    0.000    0.000    0.000    0.000 
#
# Total GULP energy -267935.393980 kJ/mol
# GULP energy per Si atom -5581.987375 kJ/mol
# Density = 2.393059 g / cm^3
# Si number density = 23.985179 Si / 1000 Ang^3
#
#
#
# Elastic Constant Matrix: (Units=GPa)
#
#
# Indices 1 2 3 4 5 6 
#
# 1 94.7824 18.6322 46.7442 0.0000 0.0000 0.0000
# 2 18.6322 36.3615 4.2217 0.0000 0.0000 0.0000
# 3 46.7442 4.2217 124.4775 0.0000 0.0000 0.0000
# 4 0.0000 0.0000 0.0000 -4.6110 0.0000 0.0000
# 5 0.0000 0.0000 0.0000 0.0000 58.6506 0.0000
# 6 0.0000 0.0000 0.0000 0.0000 0.0000 14.4442
#
#
#
# Elastic Compliance Matrix: (Units=1/GPa)
#
#
# Indices 1 2 3 4 5 6 
#
# 1 0.014450 -0.006801 -0.005196 0.000000 0.000000 0.000000
# 2 -0.006801 0.030811 0.001509 0.000000 0.000000 0.000000
# 3 -0.005196 0.001509 0.009933 0.000000 0.000000 0.000000
# 4 0.000000 0.000000 0.000000 -0.216874 0.000000 0.000000
# 5 0.000000 0.000000 0.000000 0.000000 0.017050 0.000000
# 6 0.000000 0.000000 0.000000 0.000000 0.000000 0.069232
#
#
# Mechanical properties :
#
#
# Convention : Reuss Voigt Hill
#
# Bulk Modulus (GPa) = 29.22326 43.86862 36.54594
# Shear Modulus (GPa) = -116.23668 26.09830 -45.06919
#
# Velocity S-wave (km/s) = -6.96901 3.30222 -4.33950
# Velocity P-wave (km/s) = 7.24885 5.73316 3.13661
#
# Compressibility (1/GPa) = 0.03421931
#
# Stress axis : x y z
#
# Youngs Moduli (GPa) = 69.20542 32.45555 100.66988
#
# Poissons Ratio (x) = 0.22073 0.52304
# Poissons Ratio (y) = 0.47067 -0.15191
# Poissons Ratio (z) = 0.35956 -0.04897
#
# Static dielectric constant tensor:
#      x y z
#    x 2.116780 0.000000 0.000000 
#    y 0.000000 1.879140 0.000000 
#    z 0.000000 0.000000 1.932110 
# 
# From -- ./inp_files/5350.got.cif
#   From: 2010.05.17/outbox.cif.g08.bks.cpg/sg62_3_cif.got.tgz:5350.got - 2010.06.03 15:25:27.
