data_PCOD9467420
_publ_section_title
;
Structure prediction by ZEFSAII (Michael W. Deem and Ramdas Pophale) SiO2 
 PCOD9467420
Probable space group: P N M A
;
_chemical_formula_sum "Si O2"
_cell_formula_units_Z 64
_cell_length_a 32.267345
_cell_length_b 8.179119
_cell_length_c 11.435062
_cell_angle_alpha 90.000000
_cell_angle_beta 90.000000
_cell_angle_gamma 90.000000
_cell_volume 3017.923891
_symmetry_space_group_name_H-M "P N M A"
_symmetry_group_IT_number 62
_symmetry_cell_setting 'orthorhombic'
loop_
_space_group_symop_operation_xyz
x,y,z
1/2-x,-y,1/2+z
1/2+x,1/2-y,1/2-z
-x,1/2+y,-z
-x,-y,-z
1/2+x,y,1/2-z
1/2-x,1/2+y,1/2+z
x,1/2-y,z
loop_
_atom_site_type_symbol
_atom_site_label
_atom_site_fract_x
_atom_site_fract_y
_atom_site_fract_z
Si Si1 0.740411 0.450415 0.068227
Si Si2 0.977542 0.443163 0.881142
Si Si3 0.606749 0.062919 0.060222
Si Si4 0.614496 0.057608 0.431650
Si Si5 0.019217 0.561408 0.377853
Si Si6 0.172517 0.051560 0.621579
Si Si7 0.179114 0.062702 0.245624
Si Si8 0.331028 0.057499 0.384299
O O1 0.739714 0.250000 0.072864
O O2 0.718965 0.509810 0.189325
O O3 0.787671 0.503320 0.059874
O O4 0.711125 0.498647 0.960609
O O5 0.983791 0.250000 0.875402
O O6 0.928855 0.479661 0.898435
O O7 0.990635 0.512079 0.752061
O O8 0.000000 0.500000 0.000000
O O9 0.591790 0.250000 0.045223
O O10 0.644069 0.068627 0.153288
O O11 0.568611 0.959216 0.105469
O O12 0.629584 0.005776 0.943016
O O13 0.611243 0.250000 0.403737
O O14 0.653499 0.984194 0.359419
O O15 0.629011 0.032583 0.563979
O O16 0.007547 0.750000 0.371323
O O17 0.000000 0.500000 0.500000
O O18 0.173190 0.250000 0.628515
O O19 0.174154 0.974168 0.747644
O O20 0.189695 0.250000 0.212038
O O21 0.164438 0.750000 0.906185
#
# Coordination Sequence:
#
# PCOD9467420 Si02
#       8
#     8   8   8   8   8   8   8   8
#     4   8  17  34  55  81 115 155 196 245 303 354
#     4  11  25  45  68  96 130 167 213 265 323 388
#     4   9  17  35  62  85 109 145 190 240 292 350
#     4  11  22  38  64  90 118 159 208 253 307 374
#     4  11  24  40  63  95 127 157 197 251 310 377
#     4   9  19  37  58  80 111 152 199 247 298 360
#     4   8  15  31  58  85 108 145 193 239 288 350
#     4  11  23  36  54  84 125 162 200 254 310 365
#
# _framework density 21.206631000000002
#
# number of rings (size 3 to 8) (size 9 to 14) (size 15 to 20)
#    0.000    2.250    1.250    3.000    1.750    3.000 
#    0.000    1.875    0.000    1.500    0.000    0.000 
#    0.000    0.000    0.000    0.000    0.000    0.000 
#
# Total GULP energy -356903.514918 kJ/mol
# GULP energy per Si atom -5576.617421 kJ/mol
# Density = 2.115836 g / cm^3
# Si number density = 21.206631 Si / 1000 Ang^3
#
#
#
# Elastic Constant Matrix: (Units=GPa)
#
#
# Indices 1 2 3 4 5 6 
#
# 1 59.6319 6.8702 49.3796 0.0000 0.0000 0.0000
# 2 6.8702 25.3741 19.1292 0.0000 0.0000 0.0000
# 3 49.3796 19.1292 135.9212 0.0000 0.0000 0.0000
# 4 0.0000 0.0000 0.0000 25.6526 0.0000 0.0000
# 5 0.0000 0.0000 0.0000 0.0000 25.8104 0.0000
# 6 0.0000 0.0000 0.0000 0.0000 0.0000 17.9534
#
#
#
# Elastic Compliance Matrix: (Units=1/GPa)
#
#
# Indices 1 2 3 4 5 6 
#
# 1 0.023985 0.000084 -0.008726 0.000000 0.000000 0.000000
# 2 0.000084 0.044088 -0.006235 0.000000 0.000000 0.000000
# 3 -0.008726 -0.006235 0.011405 0.000000 0.000000 0.000000
# 4 0.000000 0.000000 0.000000 0.038982 0.000000 0.000000
# 5 0.000000 0.000000 0.000000 0.000000 0.038744 0.000000
# 6 0.000000 0.000000 0.000000 0.000000 0.000000 0.055700
#
#
# Mechanical properties :
#
#
# Convention : Reuss Voigt Hill
#
# Bulk Modulus (GPa) = 20.11089 41.29833 30.70461
# Shear Modulus (GPa) = 19.28765 23.58651 21.43708
#
# Velocity S-wave (km/s) = 3.01908 3.33862 3.18286
# Velocity P-wave (km/s) = 4.65371 5.86331 5.29317
#
# Compressibility (1/GPa) = 0.04972432
#
# Stress axis : x y z
#
# Youngs Moduli (GPa) = 41.69223 22.68174 87.68313
#
# Poissons Ratio (x) = -0.00190 0.76508
# Poissons Ratio (y) = -0.00350 0.54673
# Poissons Ratio (z) = 0.36379 0.14143
#
# Static dielectric constant tensor:
#      x y z
#    x 1.747620 0.000000 0.000000 
#    y 0.000000 1.739270 0.000000 
#    z 0.000000 0.000000 1.856460 
# 
# From -- ./inp_files/15836.got.cif
#   From: 2010.05.17/outbox.cif.g08.bks.cpg/sg62_8_cif.got.tgz:15836.got - 2010.06.03 15:25:27.
