data_PCOD9467970
_publ_section_title
;
Structure prediction by ZEFSAII (Michael W. Deem and Ramdas Pophale) SiO2 
 PCOD9467970
Probable space group: P N M A
;
_chemical_formula_sum "Si O2"
_cell_formula_units_Z 64
_cell_length_a 15.000000
_cell_length_b 24.000000
_cell_length_c 9.000000
_cell_angle_alpha 90.000000
_cell_angle_beta 90.000000
_cell_angle_gamma 90.000000
_cell_volume 3240.000000
_symmetry_space_group_name_H-M "P N M A"
_symmetry_group_IT_number 62
_symmetry_cell_setting 'orthorhombic'
loop_
_space_group_symop_operation_xyz
x,y,z
1/2-x,-y,1/2+z
1/2+x,1/2-y,1/2-z
-x,1/2+y,-z
-x,-y,-z
1/2+x,y,1/2-z
1/2-x,1/2+y,1/2+z
x,1/2-y,z
loop_
_atom_site_type_symbol
_atom_site_label
_atom_site_fract_x
_atom_site_fract_y
_atom_site_fract_z
Si Si1 0.755033 0.974219 0.470203
Si Si2 0.310894 0.188962 0.111582
Si Si3 0.042368 0.360877 0.132147
Si Si4 0.489925 0.686267 0.954768
Si Si5 0.049119 0.946037 0.069440
Si Si6 0.088115 0.095602 0.679845
Si Si7 0.648938 0.190432 0.613533
Si Si8 0.728306 0.079306 0.295001
O O1 0.655498 0.955660 0.413678
O O2 0.840704 0.947478 0.387548
O O3 0.763064 0.955675 0.642534
O O4 0.757579 0.039775 0.431318
O O5 0.308296 0.250000 0.188755
O O6 0.404087 0.184250 0.028497
O O7 0.287285 0.135597 0.211304
O O8 0.236607 0.189377 0.985025
O O9 0.022198 0.328928 0.282327
O O10 0.127558 0.400360 0.170842
O O11 0.070907 0.317219 0.006486
O O12 0.967461 0.398446 0.054862
O O13 0.459190 0.750000 0.983819
O O14 0.447929 0.637423 0.053167
O O15 0.992520 0.929899 0.218963
O O16 0.000000 0.000000 0.000000
O O17 0.143283 0.136782 0.785629
O O18 0.641516 0.250000 0.691735
#
# Coordination Sequence:
#
# PCOD9467970 Si02
#       8
#     8   8   8   8   8   8   8   8
#     4  12  25  42  65  94 133 173 210 271 324 388
#     4   9  21  40  66  91 121 167 215 261 316 384
#     4  10  20  40  62  91 122 163 212 256 319 387
#     4  11  22  40  63  93 128 160 211 277 326 377
#     4  11  23  43  64  89 128 171 214 258 317 394
#     4  11  25  39  62  96 127 165 214 267 326 379
#     4   9  19  38  62  85 119 166 208 251 315 382
#     4  11  23  41  65  95 128 167 216 259 322 386
#
# _framework density 19.753086
#
# number of rings (size 3 to 8) (size 9 to 14) (size 15 to 20)
#    0.000    1.500    2.500    2.250    5.250    0.500 
#    0.000    1.875    0.000    2.250    0.000    0.000 
#    0.000    0.000    0.000    0.000    0.000    0.000 
#
# Total GULP energy -356955.909563 kJ/mol
# GULP energy per Si atom -5577.436087 kJ/mol
# Density = 1.970813 g / cm^3
# Si number density = 19.753086 Si / 1000 Ang^3
#
#
#
# Elastic Constant Matrix: (Units=GPa)
#
#
# Indices 1 2 3 4 5 6 
#
# 1 55.8758 31.9199 4.6683 0.0000 0.0000 0.0000
# 2 31.9199 101.3888 18.0035 0.0000 0.0000 0.0000
# 3 4.6683 18.0035 52.6244 0.0000 0.0000 0.0000
# 4 0.0000 0.0000 0.0000 -15.9100 0.0000 0.0000
# 5 0.0000 0.0000 0.0000 0.0000 20.0266 0.0000
# 6 0.0000 0.0000 0.0000 0.0000 0.0000 10.6695
#
#
#
# Elastic Compliance Matrix: (Units=1/GPa)
#
#
# Indices 1 2 3 4 5 6 
#
# 1 0.021831 -0.006951 0.000442 0.000000 0.000000 0.000000
# 2 -0.006951 0.012714 -0.003733 0.000000 0.000000 0.000000
# 3 0.000442 -0.003733 0.020241 0.000000 0.000000 0.000000
# 4 0.000000 0.000000 0.000000 -0.062853 0.000000 0.000000
# 5 0.000000 0.000000 0.000000 0.000000 0.049934 0.000000
# 6 0.000000 0.000000 0.000000 0.000000 0.000000 0.093725
#
#
# Mechanical properties :
#
#
# Convention : Reuss Voigt Hill
#
# Bulk Modulus (GPa) = 29.15445 35.45249 32.30347
# Shear Modulus (GPa) = 29.84881 13.31036 21.57958
#
# Velocity S-wave (km/s) = 3.89150 2.59865 3.30883
# Velocity P-wave (km/s) = 5.91466 5.19527 5.56659
#
# Compressibility (1/GPa) = 0.03430008
#
# Stress axis : x y z
#
# Youngs Moduli (GPa) = 45.80634 78.65095 49.40573
#
# Poissons Ratio (x) = 0.54674 -0.02182
# Poissons Ratio (y) = 0.31842 0.18444
# Poissons Ratio (z) = -0.02023 0.29361
#
# Static dielectric constant tensor:
#      x y z
#    x 1.731750 0.000000 0.000000 
#    y 0.000000 1.755020 0.000000 
#    z 0.000000 0.000000 1.600190 
# 
# From -- ./inp_files/6928.got.cif
#   From: 2010.05.17/outbox.ucp.g08.bks.cvg/sg62_4_cif.got.tgz:6928.got - 2010.06.11 16:29:25.
