data_PCOD9467642
_publ_section_title
;
Structure prediction by ZEFSAII (Michael W. Deem and Ramdas Pophale) SiO2 
 PCOD9467642
Probable space group: P N M A
;
_chemical_formula_sum "Si O2"
_cell_formula_units_Z 28
_cell_length_a 5.025122
_cell_length_b 16.901675
_cell_length_c 13.977764
_cell_angle_alpha 90.000000
_cell_angle_beta 90.000000
_cell_angle_gamma 90.000000
_cell_volume 1187.173135
_symmetry_space_group_name_H-M "P N M A"
_symmetry_group_IT_number 62
_symmetry_cell_setting 'orthorhombic'
loop_
_space_group_symop_operation_xyz
x,y,z
1/2-x,-y,1/2+z
1/2+x,1/2-y,1/2-z
-x,1/2+y,-z
-x,-y,-z
1/2+x,y,1/2-z
1/2-x,1/2+y,1/2+z
x,1/2-y,z
loop_
_atom_site_type_symbol
_atom_site_label
_atom_site_fract_x
_atom_site_fract_y
_atom_site_fract_z
Si Si1 0.721403 0.342666 0.083666
Si Si2 0.200210 0.750000 0.314725
Si Si3 0.129208 0.511628 0.809875
Si Si4 0.728078 0.384809 0.537190
O O1 0.683201 0.250000 0.103920
O O2 0.830492 0.395516 0.170400
O O3 0.445573 0.380760 0.046593
O O4 0.948531 0.352766 0.002694
O O5 0.492922 0.750000 0.270864
O O6 0.165592 0.825722 0.381572
O O7 0.342050 0.488959 0.729224
O O8 0.186906 0.467685 0.909658
#
# Coordination Sequence:
#
# PCOD9467642 Si02
#       4
#     8   4   8   8
#     4  12  24  44  69  97 129 176 221 265 325 391
#     4  12  22  36  62  94 130 164 200 262 322 378
#     4  12  26  44  67  97 133 173 219 274 324 380
#     4  12  23  44  65  97 133 170 222 260 328 398
#
# _framework density 23.585439000000001
#
# number of rings (size 3 to 8) (size 9 to 14) (size 15 to 20)
#    0.000    0.000    2.857    8.571    0.000    1.143 
#    0.000    0.000    0.000    0.000    0.000    0.000 
#    0.000    0.000    0.000    0.000    0.000    0.000 
#
# Total GULP energy -156958.216654 kJ/mol
# GULP energy per Si atom -5605.650595 kJ/mol
# Density = 2.353176 g / cm^3
# Si number density = 23.585439 Si / 1000 Ang^3
#
#
#
# Elastic Constant Matrix: (Units=GPa)
#
#
# Indices 1 2 3 4 5 6 
#
# 1 66.2795 -2.5202 7.3003 0.0000 0.0000 0.0000
# 2 -2.5202 80.0686 1.1996 0.0000 0.0000 0.0000
# 3 7.3003 1.1996 14.7958 0.0000 0.0000 0.0000
# 4 0.0000 0.0000 0.0000 47.7145 0.0000 0.0000
# 5 0.0000 0.0000 0.0000 0.0000 40.1096 0.0000
# 6 0.0000 0.0000 0.0000 0.0000 0.0000 -363.6359
#
#
#
# Elastic Compliance Matrix: (Units=1/GPa)
#
#
# Indices 1 2 3 4 5 6 
#
# 1 0.015986 0.000622 -0.007938 0.000000 0.000000 0.000000
# 2 0.000622 0.012529 -0.001323 0.000000 0.000000 0.000000
# 3 -0.007938 -0.001323 0.071611 0.000000 0.000000 0.000000
# 4 0.000000 0.000000 0.000000 0.020958 0.000000 0.000000
# 5 0.000000 0.000000 0.000000 0.000000 0.024932 0.000000
# 6 0.000000 0.000000 0.000000 0.000000 0.000000 -0.002750
#
#
# Mechanical properties :
#
#
# Convention : Reuss Voigt Hill
#
# Bulk Modulus (GPa) = 12.07029 19.23370 15.65200
# Shear Modulus (GPa) = 26.57348 -44.81809 -9.12230
#
# Velocity S-wave (km/s) = 3.36026 -4.36391 -1.96880
# Velocity P-wave (km/s) = 4.49265 4.14958 1.21757
#
# Compressibility (1/GPa) = 0.08284806
#
# Stress axis : x y z
#
# Youngs Moduli (GPa) = 62.55637 79.81687 13.96440
#
# Poissons Ratio (x) = -0.04965 0.11085
# Poissons Ratio (y) = -0.03891 0.01847
# Poissons Ratio (z) = 0.49656 0.10558
#
# Static dielectric constant tensor:
#      x y z
#    x 1.845790 0.000000 0.000000 
#    y 0.000000 1.909080 0.000000 
#    z 0.000000 0.000000 1.829180 
# 
# From -- ./inp_files/16061.got.cif
#   From: 2010.05.17/outbox.cif.g08.bks.cpg/sg62_9_cif.got.tgz:16061.got - 2010.06.03 15:25:27.
