data_PCOD9467526
_publ_section_title
;
Structure prediction by ZEFSAII (Michael W. Deem and Ramdas Pophale) SiO2 
 PCOD9467526
Probable space group: P N M A
;
_chemical_formula_sum "Si O2"
_cell_formula_units_Z 40
_cell_length_a 11.705397
_cell_length_b 15.862935
_cell_length_c 8.787842
_cell_angle_alpha 90.000000
_cell_angle_beta 90.000000
_cell_angle_gamma 90.000000
_cell_volume 1631.743654
_symmetry_space_group_name_H-M "P N M A"
_symmetry_group_IT_number 62
_symmetry_cell_setting 'orthorhombic'
loop_
_space_group_symop_operation_xyz
x,y,z
1/2-x,-y,1/2+z
1/2+x,1/2-y,1/2-z
-x,1/2+y,-z
-x,-y,-z
1/2+x,y,1/2-z
1/2-x,1/2+y,1/2+z
x,1/2-y,z
loop_
_atom_site_type_symbol
_atom_site_label
_atom_site_fract_x
_atom_site_fract_y
_atom_site_fract_z
Si Si1 0.849595 0.159727 0.654339
Si Si2 0.614737 0.250000 0.380726
Si Si3 0.322064 0.105980 0.508816
Si Si4 0.870028 0.250000 0.227434
Si Si5 0.129649 0.423108 0.931928
Si Si6 0.437743 0.921560 0.079106
O O1 0.794202 0.250000 0.631457
O O2 0.765726 0.089511 0.592192
O O3 0.969861 0.152864 0.572232
O O4 0.858705 0.148924 0.834246
O O5 0.748367 0.250000 0.323336
O O6 0.510933 0.250000 0.254363
O O7 0.595719 0.162229 0.477542
O O8 0.354171 0.164212 0.368768
O O9 0.184974 0.097699 0.510409
O O10 0.378694 0.013768 0.510316
O O11 0.082320 0.432234 0.760560
O O12 0.500000 0.000000 0.000000
#
# Coordination Sequence:
#
# PCOD9467526 Si02
#       6
#     8   4   8   4   8   8
#     4  11  23  43  73 108 149 198 257 324 397 473
#     4  12  30  53  78 120 156 223 260 338 400 484
#     4  11  26  48  71 111 154 208 257 331 394 479
#     4  12  30  49  76 112 160 203 278 318 404 474
#     4  11  26  47  75 105 159 197 261 324 408 465
#     4  11  25  43  79 112 145 198 264 322 401 477
#
# _framework density 24.513653000000001
#
# number of rings (size 3 to 8) (size 9 to 14) (size 15 to 20)
#    0.000    0.800    4.000    1.200    8.400    6.400 
#    0.000    0.000    0.000    0.000    0.000    0.000 
#    0.000    0.000    0.000    0.000    0.000    0.000 
#
# Total GULP energy -223409.438468 kJ/mol
# GULP energy per Si atom -5585.235962 kJ/mol
# Density = 2.445786 g / cm^3
# Si number density = 24.513653 Si / 1000 Ang^3
#
#
#
# Elastic Constant Matrix: (Units=GPa)
#
#
# Indices 1 2 3 4 5 6 
#
# 1 132.3703 3.8648 37.5395 0.0000 0.0000 0.0000
# 2 3.8648 158.4650 55.7423 0.0000 0.0000 0.0000
# 3 37.5395 55.7423 81.2108 0.0000 0.0000 0.0000
# 4 0.0000 0.0000 0.0000 26.3851 0.0000 0.0000
# 5 0.0000 0.0000 0.0000 0.0000 25.3557 0.0000
# 6 0.0000 0.0000 0.0000 0.0000 0.0000 8.3562
#
#
#
# Elastic Compliance Matrix: (Units=1/GPa)
#
#
# Indices 1 2 3 4 5 6 
#
# 1 0.009007 0.001641 -0.005290 0.000000 0.000000 0.000000
# 2 0.001641 0.008618 -0.006674 0.000000 0.000000 0.000000
# 3 -0.005290 -0.006674 0.019340 0.000000 0.000000 0.000000
# 4 0.000000 0.000000 0.000000 0.037900 0.000000 0.000000
# 5 0.000000 0.000000 0.000000 0.000000 0.039439 0.000000
# 6 0.000000 0.000000 0.000000 0.000000 0.000000 0.119671
#
#
# Mechanical properties :
#
#
# Convention : Reuss Voigt Hill
#
# Bulk Modulus (GPa) = 61.27701 62.92660 62.10181
# Shear Modulus (GPa) = 19.22631 30.34604 24.78617
#
# Velocity S-wave (km/s) = 2.80359 3.52223 3.18326
# Velocity P-wave (km/s) = 5.96083 6.50133 6.23694
#
# Compressibility (1/GPa) = 0.01631933
#
# Stress axis : x y z
#
# Youngs Moduli (GPa) = 111.02714 116.03345 51.70680
#
# Poissons Ratio (x) = -0.19042 0.27352
# Poissons Ratio (y) = -0.18221 0.34509
# Poissons Ratio (z) = 0.58731 0.77441
#
# Static dielectric constant tensor:
#      x y z
#    x 2.076370 0.000000 0.000000 
#    y 0.000000 2.123430 0.000000 
#    z 0.000000 0.000000 1.938520 
# 
# From -- ./inp_files/5060.got.cif
#   From: 2010.05.17/outbox.cif.g08.bks.cpg/sg62_3_cif.got.tgz:5060.got - 2010.06.03 15:25:27.
