data_PCOD9467365
_publ_section_title
;
Structure prediction by ZEFSAII (Michael W. Deem and Ramdas Pophale) SiO2 
 PCOD9467365
Probable space group: P N M A
;
_chemical_formula_sum "Si O2"
_cell_formula_units_Z 48
_cell_length_a 15.348793
_cell_length_b 14.340483
_cell_length_c 10.406782
_cell_angle_alpha 90.000000
_cell_angle_beta 90.000000
_cell_angle_gamma 90.000000
_cell_volume 2290.627473
_symmetry_space_group_name_H-M "P N M A"
_symmetry_group_IT_number 62
_symmetry_cell_setting 'orthorhombic'
loop_
_space_group_symop_operation_xyz
x,y,z
1/2-x,-y,1/2+z
1/2+x,1/2-y,1/2-z
-x,1/2+y,-z
-x,-y,-z
1/2+x,y,1/2-z
1/2-x,1/2+y,1/2+z
x,1/2-y,z
loop_
_atom_site_type_symbol
_atom_site_label
_atom_site_fract_x
_atom_site_fract_y
_atom_site_fract_z
Si Si1 0.689606 0.450018 0.380918
Si Si2 0.359023 0.357635 0.190007
Si Si3 0.387878 0.643256 0.378080
Si Si4 0.585752 0.646541 0.107108
Si Si5 0.005523 0.498313 0.230050
Si Si6 0.738077 0.853443 0.323387
O O1 0.764370 0.403572 0.294956
O O2 0.674485 0.390214 0.507930
O O3 0.596907 0.455142 0.311024
O O4 0.719300 0.556365 0.409145
O O5 0.360748 0.250000 0.230529
O O6 0.432736 0.420194 0.254773
O O7 0.379224 0.360988 0.036884
O O8 0.413765 0.750000 0.397258
O O9 0.469529 0.574478 0.370744
O O10 0.330820 0.636394 0.247982
O O11 0.544508 0.750000 0.121020
O O12 0.522910 0.561812 0.144148
O O13 0.664802 0.643334 0.210261
O O14 0.733166 0.750000 0.382695
#
# Coordination Sequence:
#
# PCOD9467365 Si02
#       6
#     8   8   8   8   8   8
#     4  11  22  39  62  87 123 160 205 242 307 359
#     4  11  22  38  60  86 121 165 207 247 302 362
#     4  11  21  38  63  88 116 159 202 244 301 363
#     4   9  18  36  61  86 112 151 201 249 296 356
#     4  11  23  38  59  93 121 156 197 260 300 353
#     4   9  18  35  61  86 113 151 201 247 292 349
#
# _framework density 20.954958000000001
#
# number of rings (size 3 to 8) (size 9 to 14) (size 15 to 20)
#    0.000    1.667    3.333    2.000    0.000    2.000 
#    0.000    0.833    0.000    0.000    0.000    0.000 
#    0.000    0.000    0.000    0.000    0.000    0.000 
#
# Total GULP energy -268132.304910 kJ/mol
# GULP energy per Si atom -5586.089686 kJ/mol
# Density = 2.090726 g / cm^3
# Si number density = 20.954958 Si / 1000 Ang^3
#
#
#
# Elastic Constant Matrix: (Units=GPa)
#
#
# Indices 1 2 3 4 5 6 
#
# 1 139.3560 83.6102 10.5372 0.0000 0.0000 0.0000
# 2 83.6102 164.5739 18.7036 0.0000 0.0000 0.0000
# 3 10.5372 18.7036 13.7772 0.0000 0.0000 0.0000
# 4 0.0000 0.0000 0.0000 24.9644 0.0000 0.0000
# 5 0.0000 0.0000 0.0000 0.0000 9.3377 0.0000
# 6 0.0000 0.0000 0.0000 0.0000 0.0000 21.1207
#
#
#
# Elastic Compliance Matrix: (Units=1/GPa)
#
#
# Indices 1 2 3 4 5 6 
#
# 1 0.010332 -0.005145 -0.000918 0.000000 0.000000 0.000000
# 2 -0.005145 0.009747 -0.009297 0.000000 0.000000 0.000000
# 3 -0.000918 -0.009297 0.085907 0.000000 0.000000 0.000000
# 4 0.000000 0.000000 0.000000 0.040057 0.000000 0.000000
# 5 0.000000 0.000000 0.000000 0.000000 0.107093 0.000000
# 6 0.000000 0.000000 0.000000 0.000000 0.000000 0.047347
#
#
# Mechanical properties :
#
#
# Convention : Reuss Voigt Hill
#
# Bulk Modulus (GPa) = 13.28611 60.37877 36.83244
# Shear Modulus (GPa) = 14.03351 24.74164 19.38757
#
# Velocity S-wave (km/s) = 2.59066 3.43987 3.04501
# Velocity P-wave (km/s) = 3.91188 6.68229 5.47521
#
# Compressibility (1/GPa) = 0.07526656
#
# Stress axis : x y z
#
# Youngs Moduli (GPa) = 96.78671 102.59961 11.64051
#
# Poissons Ratio (x) = 0.52785 0.01068
# Poissons Ratio (y) = 0.49794 0.10822
# Poissons Ratio (z) = 0.08883 0.95386
#
# Static dielectric constant tensor:
#      x y z
#    x 1.763430 0.000000 0.000000 
#    y 0.000000 1.763600 0.000000 
#    z 0.000000 0.000000 1.771760 
# 
# From -- ./inp_files/13245.got.cif
#   From: 2010.05.17/outbox.cif.g08.bks.cpg/sg62_7_cif.got.tgz:13245.got - 2010.06.03 15:25:27.
