data_PCOD9467023
_publ_section_title
;
Structure prediction by ZEFSAII (Michael W. Deem and Ramdas Pophale) SiO2 
 PCOD9467023
Probable space group: P N M A
;
_chemical_formula_sum "Si O2"
_cell_formula_units_Z 32
_cell_length_a 4.915942
_cell_length_b 9.908747
_cell_length_c 30.489823
_cell_angle_alpha 90.000000
_cell_angle_beta 90.000000
_cell_angle_gamma 90.000000
_cell_volume 1485.184449
_symmetry_space_group_name_H-M "P N M A"
_symmetry_group_IT_number 62
_symmetry_cell_setting 'orthorhombic'
loop_
_space_group_symop_operation_xyz
x,y,z
1/2-x,-y,1/2+z
1/2+x,1/2-y,1/2-z
-x,1/2+y,-z
-x,-y,-z
1/2+x,y,1/2-z
1/2-x,1/2+y,1/2+z
x,1/2-y,z
loop_
_atom_site_type_symbol
_atom_site_label
_atom_site_fract_x
_atom_site_fract_y
_atom_site_fract_z
Si Si1 0.923149 0.250000 0.018274
Si Si2 0.776437 0.971394 0.585981
Si Si3 0.278670 0.905494 0.643556
Si Si4 0.564918 0.094142 0.779633
Si Si5 0.422436 0.250000 0.959399
O O1 0.846282 0.120546 0.047317
O O2 0.733168 0.250000 0.975249
O O3 0.233017 0.250000 0.002717
O O4 0.550067 0.971749 0.623961
O O5 0.049656 0.908298 0.605820
O O6 0.849962 0.117530 0.567817
O O7 0.336440 0.750000 0.655456
O O8 0.157739 0.990973 0.683458
O O9 0.259132 0.075719 0.762691
O O10 0.598909 0.250000 0.794491
#
# Coordination Sequence:
#
# PCOD9467023 Si02
#       5
#     4   8   8   8   4
#     4  12  22  46  62  92 132 164 214 268 324 378
#     4  12  25  42  65  96 128 168 216 265 318 375
#     4  12  24  43  66  94 132 172 208 261 314 377
#     4  10  23  42  66  97 129 164 206 257 313 373
#     4  12  26  40  68  94 122 172 218 266 322 376
#
# _framework density 21.546144000000002
#
# number of rings (size 3 to 8) (size 9 to 14) (size 15 to 20)
#    0.000    0.500    2.500    6.000    3.500    1.000 
#    0.000    0.000    0.000    0.000    0.000    0.000 
#    0.000    0.000    0.000    0.000    0.000    0.000 
#
# Total GULP energy -179269.751192 kJ/mol
# GULP energy per Si atom -5602.179725 kJ/mol
# Density = 2.149710 g / cm^3
# Si number density = 21.546144 Si / 1000 Ang^3
#
#
#
# Elastic Constant Matrix: (Units=GPa)
#
#
# Indices 1 2 3 4 5 6 
#
# 1 59.4395 -37.4452 -11.4031 0.0000 0.0000 0.0000
# 2 -37.4452 83.8799 39.3044 0.0000 0.0000 0.0000
# 3 -11.4031 39.3044 52.7163 0.0000 0.0000 0.0000
# 4 0.0000 0.0000 0.0000 61.0797 0.0000 0.0000
# 5 0.0000 0.0000 0.0000 0.0000 31.4537 0.0000
# 6 0.0000 0.0000 0.0000 0.0000 0.0000 29.2198
#
#
#
# Elastic Compliance Matrix: (Units=1/GPa)
#
#
# Indices 1 2 3 4 5 6 
#
# 1 0.024025 0.012741 -0.004303 0.000000 0.000000 0.000000
# 2 0.012741 0.025081 -0.015944 0.000000 0.000000 0.000000
# 3 -0.004303 -0.015944 0.029926 0.000000 0.000000 0.000000
# 4 0.000000 0.000000 0.000000 0.016372 0.000000 0.000000
# 5 0.000000 0.000000 0.000000 0.000000 0.031793 0.000000
# 6 0.000000 0.000000 0.000000 0.000000 0.000000 0.034223
#
#
# Mechanical properties :
#
#
# Convention : Reuss Voigt Hill
#
# Bulk Modulus (GPa) = 15.61977 19.66087 17.64032
# Shear Modulus (GPa) = 25.28185 38.05593 31.66889
#
# Velocity S-wave (km/s) = 3.42918 4.20724 3.83798
# Velocity P-wave (km/s) = 4.79001 5.72241 5.27685
#
# Compressibility (1/GPa) = 0.06402143
#
# Stress axis : x y z
#
# Youngs Moduli (GPa) = 41.62325 39.87155 33.41580
#
# Poissons Ratio (x) = -0.50802 0.14378
# Poissons Ratio (y) = -0.53034 0.53277
# Poissons Ratio (z) = 0.17910 0.63569
#
# Static dielectric constant tensor:
#      x y z
#    x 1.750970 0.000000 0.000000 
#    y 0.000000 1.753250 0.000000 
#    z 0.000000 0.000000 1.772810 
# 
# From -- ./inp_files/31434.got.cif
#   From: 2010.05.17/outbox.cif.g08.bks.cpg/sg62_16_cif.got.tgz:31434.got - 2010.06.03 15:25:27.
