data_PCOD9467907
_publ_section_title
;
Structure prediction by ZEFSAII (Michael W. Deem and Ramdas Pophale) SiO2 
 PCOD9467907
Probable space group: P N M A
;
_chemical_formula_sum "Si O2"
_cell_formula_units_Z 48
_cell_length_a 12.000000
_cell_length_b 15.000000
_cell_length_c 15.000000
_cell_angle_alpha 90.000000
_cell_angle_beta 90.000000
_cell_angle_gamma 90.000000
_cell_volume 2700.000000
_symmetry_space_group_name_H-M "P N M A"
_symmetry_group_IT_number 62
_symmetry_cell_setting 'orthorhombic'
loop_
_space_group_symop_operation_xyz
x,y,z
1/2-x,-y,1/2+z
1/2+x,1/2-y,1/2-z
-x,1/2+y,-z
-x,-y,-z
1/2+x,y,1/2-z
1/2-x,1/2+y,1/2+z
x,1/2-y,z
loop_
_atom_site_type_symbol
_atom_site_label
_atom_site_fract_x
_atom_site_fract_y
_atom_site_fract_z
Si Si1 0.895579 0.033002 0.384129
Si Si2 0.096602 0.148586 0.904426
Si Si3 0.340065 0.350218 0.818232
Si Si4 0.467099 0.493998 0.708433
Si Si5 0.971245 0.643624 0.471550
Si Si6 0.334124 0.855958 0.610678
O O1 0.781891 0.089324 0.385116
O O2 0.982701 0.095983 0.438970
O O3 0.889551 0.933753 0.430520
O O4 0.943088 0.015285 0.285570
O O5 0.053745 0.250000 0.887158
O O6 0.215223 0.141621 0.854165
O O7 0.020519 0.069476 0.867098
O O8 0.121225 0.140882 0.009248
O O9 0.352771 0.250000 0.779136
O O10 0.373411 0.430667 0.753783
O O11 0.425461 0.354855 0.901740
O O12 0.417558 0.586014 0.671354
O O13 0.937404 0.750000 0.481279
O O14 0.322259 0.750000 0.633799
#
# Coordination Sequence:
#
# PCOD9467907 Si02
#       6
#     8   8   8   8   8   8
#     4  10  20  35  58  84 113 145 188 231 277 331
#     4  10  20  37  59  79 107 145 183 225 278 340
#     4   9  17  33  58  84 108 138 180 224 274 331
#     4  11  22  35  55  86 113 139 182 238 278 321
#     4   9  17  33  58  86 111 143 184 225 272 327
#     4  11  23  39  57  77 108 155 191 221 280 344
#
# _framework density 17.777778000000001
#
# number of rings (size 3 to 8) (size 9 to 14) (size 15 to 20)
#    0.000    2.000    1.667    2.500    0.000    2.000 
#    0.000    1.667    0.000    1.000    0.000    0.000 
#    0.000    0.000    0.000    0.000    0.000    0.000 
#
# Total GULP energy -267609.626499 kJ/mol
# GULP energy per Si atom -5575.200552 kJ/mol
# Density = 1.773731 g / cm^3
# Si number density = 17.777778 Si / 1000 Ang^3
#
#
#
# Elastic Constant Matrix: (Units=GPa)
#
#
# Indices 1 2 3 4 5 6 
#
# 1 26.3640 27.9688 19.1903 0.0000 0.0000 0.0000
# 2 27.9688 172.8984 47.0753 0.0000 0.0000 0.0000
# 3 19.1903 47.0753 72.1124 0.0000 0.0000 0.0000
# 4 0.0000 0.0000 0.0000 37.5944 0.0000 0.0000
# 5 0.0000 0.0000 0.0000 0.0000 16.3976 0.0000
# 6 0.0000 0.0000 0.0000 0.0000 0.0000 37.7328
#
#
#
# Elastic Compliance Matrix: (Units=1/GPa)
#
#
# Indices 1 2 3 4 5 6 
#
# 1 0.051072 -0.005547 -0.009970 0.000000 0.000000 0.000000
# 2 -0.005547 0.007636 -0.003509 0.000000 0.000000 0.000000
# 3 -0.009970 -0.003509 0.018811 0.000000 0.000000 0.000000
# 4 0.000000 0.000000 0.000000 0.026600 0.000000 0.000000
# 5 0.000000 0.000000 0.000000 0.000000 0.060985 0.000000
# 6 0.000000 0.000000 0.000000 0.000000 0.000000 0.026502
#
#
# Mechanical properties :
#
#
# Convention : Reuss Voigt Hill
#
# Bulk Modulus (GPa) = 25.33709 51.09373 38.21541
# Shear Modulus (GPa) = 20.59185 30.15432 25.37309
#
# Velocity S-wave (km/s) = 3.40706 4.12294 3.78198
# Velocity P-wave (km/s) = 5.45532 7.17408 6.37291
#
# Compressibility (1/GPa) = 0.03946783
#
# Stress axis : x y z
#
# Youngs Moduli (GPa) = 19.58004 130.95083 53.16019
#
# Poissons Ratio (x) = 0.72640 0.53001
# Poissons Ratio (y) = 0.10861 0.18654
# Poissons Ratio (z) = 0.19521 0.45950
#
# Static dielectric constant tensor:
#      x y z
#    x 1.611760 0.000000 0.000000 
#    y 0.000000 1.605600 0.000000 
#    z 0.000000 0.000000 1.611240 
# 
# From -- ./inp_files/17980.got.cif
#   From: 2010.05.17/outbox.ucp.g08.bks.cvg/sg62_9_cif.got.tgz:17980.got - 2010.06.11 16:29:25.
