data_PCOD9467896
_publ_section_title
;
Structure prediction by ZEFSAII (Michael W. Deem and Ramdas Pophale) SiO2 
 PCOD9467896
Probable space group: P N M A
;
_chemical_formula_sum "Si O2"
_cell_formula_units_Z 64
_cell_length_a 18.000000
_cell_length_b 9.000000
_cell_length_c 21.000000
_cell_angle_alpha 90.000000
_cell_angle_beta 90.000000
_cell_angle_gamma 90.000000
_cell_volume 3402.000000
_symmetry_space_group_name_H-M "P N M A"
_symmetry_group_IT_number 62
_symmetry_cell_setting 'orthorhombic'
loop_
_space_group_symop_operation_xyz
x,y,z
1/2-x,-y,1/2+z
1/2+x,1/2-y,1/2-z
-x,1/2+y,-z
-x,-y,-z
1/2+x,y,1/2-z
1/2-x,1/2+y,1/2+z
x,1/2-y,z
loop_
_atom_site_type_symbol
_atom_site_label
_atom_site_fract_x
_atom_site_fract_y
_atom_site_fract_z
Si Si1 0.019118 0.070534 0.296620
Si Si2 0.388972 0.571290 0.675583
Si Si3 0.452732 0.570983 0.943137
Si Si4 0.241321 0.071148 0.622030
Si Si5 0.364661 0.571980 0.237130
Si Si6 0.284294 0.569843 0.977219
Si Si7 0.670246 0.570780 0.631740
Si Si8 0.510943 0.572055 0.569285
O O1 0.012085 0.250000 0.295427
O O2 0.084798 0.031860 0.247081
O O3 0.028686 0.024847 0.370424
O O4 0.946011 0.998066 0.267077
O O5 0.381295 0.750000 0.673673
O O6 0.313930 0.494534 0.654429
O O7 0.449938 0.529041 0.622090
O O8 0.460844 0.750000 0.945878
O O9 0.367659 0.532621 0.957848
O O10 0.500000 0.500000 0.000000
O O11 0.246023 0.250000 0.619865
O O12 0.174685 0.033028 0.670141
O O13 0.232698 0.017265 0.549101
O O14 0.367503 0.750000 0.242564
O O15 0.324447 0.504850 0.299293
O O16 0.278330 0.750000 0.979041
O O17 0.229761 0.520472 0.920943
O O18 0.675948 0.750000 0.640027
O O19 0.590465 0.537084 0.600315
O O20 0.500000 0.500000 0.500000
O O21 0.507181 0.750000 0.561145
#
# Coordination Sequence:
#
# PCOD9467896 Si02
#       8
#     8   8   8   8   8   8   8   8
#     4  10  21  39  61  86 116 152 199 243 285 348
#     4  10  21  37  57  86 116 148 194 242 281 337
#     4  10  21  38  62  89 116 153 197 243 295 349
#     4  10  22  39  58  83 116 152 191 236 294 355
#     4  11  23  38  59  87 119 154 192 242 298 349
#     4   9  19  37  61  85 112 151 197 237 286 353
#     4  10  20  37  60  83 112 154 195 235 284 344
#     4  10  20  35  56  83 114 148 188 232 281 340
#
# _framework density 18.812463000000001
#
# number of rings (size 3 to 8) (size 9 to 14) (size 15 to 20)
#    0.000    2.000    1.250    1.875    1.750    5.000 
#    0.000    1.875    0.000    0.000    0.000    0.000 
#    0.000    0.000    0.000    0.000    0.000    0.000 
#
# Total GULP energy -357186.294464 kJ/mol
# GULP energy per Si atom -5581.035851 kJ/mol
# Density = 1.876965 g / cm^3
# Si number density = 18.812463 Si / 1000 Ang^3
#
#
#
# Elastic Constant Matrix: (Units=GPa)
#
#
# Indices 1 2 3 4 5 6 
#
# 1 69.1743 11.6425 34.3046 0.0000 0.0000 0.0000
# 2 11.6425 3.8509 25.9422 0.0000 0.0000 0.0000
# 3 34.3046 25.9422 164.3035 0.0000 0.0000 0.0000
# 4 0.0000 0.0000 0.0000 34.7469 0.0000 0.0000
# 5 0.0000 0.0000 0.0000 0.0000 38.3549 0.0000
# 6 0.0000 0.0000 0.0000 0.0000 0.0000 19.4685
#
#
#
# Elastic Compliance Matrix: (Units=1/GPa)
#
#
# Indices 1 2 3 4 5 6 
#
# 1 0.004542 0.115375 -0.019165 0.000000 0.000000 0.000000
# 2 0.115375 -1.149148 0.157352 0.000000 0.000000 0.000000
# 3 -0.019165 0.157352 -0.014757 0.000000 0.000000 0.000000
# 4 0.000000 0.000000 0.000000 0.028780 0.000000 0.000000
# 5 0.000000 0.000000 0.000000 0.000000 0.026072 0.000000
# 6 0.000000 0.000000 0.000000 0.000000 0.000000 0.051365
#
#
# Mechanical properties :
#
#
# Convention : Reuss Voigt Hill
#
# Bulk Modulus (GPa) = -1.53318 42.34525 20.40604
# Shear Modulus (GPa) = -2.81265 29.54337 13.36536
#
# Velocity S-wave (km/s) = -1.22407 3.96715 2.66832
# Velocity P-wave (km/s) = 1.67766 6.59866 4.51264
#
# Compressibility (1/GPa) = -0.65223832
#
# Stress axis : x y z
#
# Youngs Moduli (GPa) = 220.15811 -0.87021 -67.76514
#
# Poissons Ratio (x) = 0.10040 -1.29873
# Poissons Ratio (y) = -25.40079 10.66299
# Poissons Ratio (z) = 4.21937 0.13693
#
# Static dielectric constant tensor:
#      x y z
#    x 1.664770 0.000000 0.000000 
#    y 0.000000 1.633600 0.000000 
#    z 0.000000 0.000000 1.657780 
# 
# From -- ./inp_files/27773.got.cif
#   From: 2010.05.17/outbox.ucp.g08.bks.cvg/sg62_14_cif.got.tgz:27773.got - 2010.06.11 16:29:25.
