data_PCOD9467014
_publ_section_title
;
Structure prediction by ZEFSAII (Michael W. Deem and Ramdas Pophale) SiO2 
 PCOD9467014
Probable space group: P N M A
;
_chemical_formula_sum "Si O2"
_cell_formula_units_Z 40
_cell_length_a 5.066242
_cell_length_b 14.071422
_cell_length_c 27.824557
_cell_angle_alpha 90.000000
_cell_angle_beta 90.000000
_cell_angle_gamma 90.000000
_cell_volume 1983.591220
_symmetry_space_group_name_H-M "P N M A"
_symmetry_group_IT_number 62
_symmetry_cell_setting 'orthorhombic'
loop_
_space_group_symop_operation_xyz
x,y,z
1/2-x,-y,1/2+z
1/2+x,1/2-y,1/2-z
-x,1/2+y,-z
-x,-y,-z
1/2+x,y,1/2-z
1/2-x,1/2+y,1/2+z
x,1/2-y,z
loop_
_atom_site_type_symbol
_atom_site_label
_atom_site_fract_x
_atom_site_fract_y
_atom_site_fract_z
Si Si1 0.191861 0.977871 0.627343
Si Si2 0.246892 0.750000 0.453412
Si Si3 0.855517 0.635863 0.779526
Si Si4 0.800124 0.250000 0.717528
Si Si5 0.308509 0.898516 0.365016
Si Si6 0.749764 0.938760 0.982662
O O1 0.271573 0.909236 0.670469
O O2 0.241131 0.934412 0.574991
O O3 0.389108 0.068004 0.632001
O O4 0.891962 0.013350 0.631849
O O5 0.250690 0.831955 0.410602
O O6 0.249068 0.664965 0.493974
O O7 0.643152 0.606895 0.738998
O O8 0.848495 0.750000 0.783414
O O9 0.593193 0.250000 0.761210
O O10 0.747270 0.340522 0.683522
O O11 0.500000 0.000000 0.000000
O O12 0.000000 0.000000 0.000000
#
# Coordination Sequence:
#
# PCOD9467014 Si02
#       6
#     8   4   8   4   8   8
#     4  12  23  43  65  98 124 169 224 263 318 407
#     4  11  24  46  66  94 138 174 212 277 344 378
#     4  10  23  42  65  93 130 170 213 272 338 389
#     4  11  24  42  62  98 128 164 216 261 314 390
#     4  11  25  41  67  91 132 173 209 266 335 384
#     4  12  25  44  68 100 133 174 223 270 328 408
#
# _framework density 20.165444999999998
#
# number of rings (size 3 to 8) (size 9 to 14) (size 15 to 20)
#    0.000    0.800    4.000    2.400    1.400    9.600 
#    0.000    0.000    0.000    0.000    0.000    0.000 
#    0.000    0.000    0.000    0.000    0.000    0.000 
#
# Total GULP energy -222686.328683 kJ/mol
# GULP energy per Si atom -5567.158217 kJ/mol
# Density = 2.011955 g / cm^3
# Si number density = 20.165445 Si / 1000 Ang^3
#
#
#
# Elastic Constant Matrix: (Units=GPa)
#
#
# Indices 1 2 3 4 5 6 
#
# 1 70.7119 16.5430 -9.0488 0.0000 0.0000 0.0000
# 2 16.5430 89.2660 38.5725 0.0000 0.0000 0.0000
# 3 -9.0488 38.5725 130.6271 0.0000 0.0000 0.0000
# 4 0.0000 0.0000 0.0000 55.0049 0.0000 0.0000
# 5 0.0000 0.0000 0.0000 0.0000 23.5463 0.0000
# 6 0.0000 0.0000 0.0000 0.0000 0.0000 13.3977
#
#
#
# Elastic Compliance Matrix: (Units=1/GPa)
#
#
# Indices 1 2 3 4 5 6 
#
# 1 0.015304 -0.003776 0.002175 0.000000 0.000000 0.000000
# 2 -0.003776 0.013773 -0.004328 0.000000 0.000000 0.000000
# 3 0.002175 -0.004328 0.009084 0.000000 0.000000 0.000000
# 4 0.000000 0.000000 0.000000 0.018180 0.000000 0.000000
# 5 0.000000 0.000000 0.000000 0.000000 0.042469 0.000000
# 6 0.000000 0.000000 0.000000 0.000000 0.000000 0.074640
#
#
# Mechanical properties :
#
#
# Convention : Reuss Voigt Hill
#
# Bulk Modulus (GPa) = 38.02025 42.52650 40.27337
# Shear Modulus (GPa) = 25.76314 34.69233 30.22774
#
# Velocity S-wave (km/s) = 3.57821 4.15225 3.87588
# Velocity P-wave (km/s) = 5.99721 6.64250 6.32809
#
# Compressibility (1/GPa) = 0.02630177
#
# Stress axis : x y z
#
# Youngs Moduli (GPa) = 65.34400 72.60795 110.08137
#
# Poissons Ratio (x) = 0.27417 -0.23944
# Poissons Ratio (y) = 0.24674 0.47648
# Poissons Ratio (z) = -0.14213 0.31428
#
# Static dielectric constant tensor:
#      x y z
#    x 1.685180 0.000000 0.000000 
#    y 0.000000 1.694570 0.000000 
#    z 0.000000 0.000000 1.688210 
# 
# From -- ./inp_files/30262.got.cif
#   From: 2010.05.17/outbox.cif.g08.bks.cpg/sg62_16_cif.got.tgz:30262.got - 2010.06.03 15:25:27.
