data_PCOD9467056
_publ_section_title
;
Structure prediction by ZEFSAII (Michael W. Deem and Ramdas Pophale) SiO2 
 PCOD9467056
Probable space group: P N M A
;
_chemical_formula_sum "Si O2"
_cell_formula_units_Z 48
_cell_length_a 14.995266
_cell_length_b 8.930651
_cell_length_c 18.674979
_cell_angle_alpha 90.000000
_cell_angle_beta 90.000000
_cell_angle_gamma 90.000000
_cell_volume 2500.906263
_symmetry_space_group_name_H-M "P N M A"
_symmetry_group_IT_number 62
_symmetry_cell_setting 'orthorhombic'
loop_
_space_group_symop_operation_xyz
x,y,z
1/2-x,-y,1/2+z
1/2+x,1/2-y,1/2-z
-x,1/2+y,-z
-x,-y,-z
1/2+x,y,1/2-z
1/2-x,1/2+y,1/2+z
x,1/2-y,z
loop_
_atom_site_type_symbol
_atom_site_label
_atom_site_fract_x
_atom_site_fract_y
_atom_site_fract_z
Si Si1 0.564038 0.071736 0.940989
Si Si2 0.907795 0.927162 0.025111
Si Si3 0.251302 0.572905 0.590481
Si Si4 0.985524 0.572776 0.276518
Si Si5 0.690360 0.928720 0.259734
Si Si6 0.157337 0.571958 0.827531
O O1 0.570470 0.250000 0.951953
O O2 0.525551 0.045981 0.861051
O O3 0.661806 0.998595 0.941510
O O4 0.500000 0.000000 0.000000
O O5 0.920360 0.750000 0.037282
O O6 0.874216 0.004018 0.097491
O O7 0.833198 0.946743 0.964001
O O8 0.000000 0.000000 0.000000
O O9 0.237720 0.750000 0.602429
O O10 0.275339 0.494405 0.665259
O O11 0.967776 0.750000 0.263769
O O12 0.914779 0.477679 0.231995
O O13 0.085884 0.540063 0.251385
O O14 0.703334 0.750000 0.258960
O O15 0.749087 0.002270 0.197461
O O16 0.163015 0.750000 0.831489
#
# Coordination Sequence:
#
# PCOD9467056 Si02
#       6
#     8   8   8   8   8   8
#     4  11  24  42  65  94 129 171 216 265 322 385
#     4  11  25  44  67  95 132 170 214 266 321 383
#     4  11  24  43  66  96 130 169 214 265 320 383
#     4  10  23  43  67  93 126 170 215 263 323 381
#     4  11  23  41  66  94 127 167 211 263 320 380
#     4  12  25  41  65  97 131 167 214 264 316 380
#
# _framework density 19.193041999999998
#
# number of rings (size 3 to 8) (size 9 to 14) (size 15 to 20)
#    0.000    1.000    1.667    4.500    2.333    7.333 
#    0.000    0.000    0.000    0.000    0.000    0.000 
#    0.000    0.000    0.000    0.000    0.000    0.000 
#
# Total GULP energy -268654.400880 kJ/mol
# GULP energy per Si atom -5596.966685 kJ/mol
# Density = 1.914936 g / cm^3
# Si number density = 19.193042 Si / 1000 Ang^3
#
#
#
# Elastic Constant Matrix: (Units=GPa)
#
#
# Indices 1 2 3 4 5 6 
#
# 1 96.2684 56.5546 6.3696 0.0000 0.0000 0.0000
# 2 56.5546 103.6721 39.2974 0.0000 0.0000 0.0000
# 3 6.3696 39.2974 52.7905 0.0000 0.0000 0.0000
# 4 0.0000 0.0000 0.0000 39.2585 0.0000 0.0000
# 5 0.0000 0.0000 0.0000 0.0000 26.8657 0.0000
# 6 0.0000 0.0000 0.0000 0.0000 0.0000 32.9100
#
#
#
# Elastic Compliance Matrix: (Units=1/GPa)
#
#
# Indices 1 2 3 4 5 6 
#
# 1 0.016828 -0.011716 0.006691 0.000000 0.000000 0.000000
# 2 -0.011716 0.021594 -0.014661 0.000000 0.000000 0.000000
# 3 0.006691 -0.014661 0.029049 0.000000 0.000000 0.000000
# 4 0.000000 0.000000 0.000000 0.025472 0.000000 0.000000
# 5 0.000000 0.000000 0.000000 0.000000 0.037222 0.000000
# 6 0.000000 0.000000 0.000000 0.000000 0.000000 0.030386
#
#
# Mechanical properties :
#
#
# Convention : Reuss Voigt Hill
#
# Bulk Modulus (GPa) = 35.58856 50.79714 43.19285
# Shear Modulus (GPa) = 23.89020 29.84081 26.86551
#
# Velocity S-wave (km/s) = 3.53190 3.94734 3.74539
# Velocity P-wave (km/s) = 5.93424 6.87744 6.42317
#
# Compressibility (1/GPa) = 0.02809891
#
# Stress axis : x y z
#
# Youngs Moduli (GPa) = 59.42594 46.30812 34.42408
#
# Poissons Ratio (x) = 0.54255 -0.23033
# Poissons Ratio (y) = 0.69623 0.50470
# Poissons Ratio (z) = -0.39762 0.67894
#
# Static dielectric constant tensor:
#      x y z
#    x 1.640100 0.000000 0.000000 
#    y 0.000000 1.640160 0.000000 
#    z 0.000000 0.000000 1.639150 
# 
# From -- ./inp_files/23723.got.cif
#   From: 2010.05.17/outbox.cif.g08.bks.cpg/sg62_12_cif.got.tgz:23723.got - 2010.06.03 15:25:27.
