data_PCOD9467889
_publ_section_title
;
Structure prediction by ZEFSAII (Michael W. Deem and Ramdas Pophale) SiO2 
 PCOD9467889
Probable space group: P N M A
;
_chemical_formula_sum "Si O2"
_cell_formula_units_Z 64
_cell_length_a 15.000000
_cell_length_b 9.000000
_cell_length_c 24.000000
_cell_angle_alpha 90.000000
_cell_angle_beta 90.000000
_cell_angle_gamma 90.000000
_cell_volume 3240.000000
_symmetry_space_group_name_H-M "P N M A"
_symmetry_group_IT_number 62
_symmetry_cell_setting 'orthorhombic'
loop_
_space_group_symop_operation_xyz
x,y,z
1/2-x,-y,1/2+z
1/2+x,1/2-y,1/2-z
-x,1/2+y,-z
-x,-y,-z
1/2+x,y,1/2-z
1/2-x,1/2+y,1/2+z
x,1/2-y,z
loop_
_atom_site_type_symbol
_atom_site_label
_atom_site_fract_x
_atom_site_fract_y
_atom_site_fract_z
Si Si1 0.553897 0.923189 0.452675
Si Si2 0.256296 0.576178 0.061103
Si Si3 0.656310 0.427467 0.726972
Si Si4 0.148808 0.927168 0.267172
Si Si5 0.046773 0.421379 0.359359
Si Si6 0.155020 0.919701 0.656980
Si Si7 0.910741 0.927792 0.522210
Si Si8 0.473886 0.432550 0.671136
O O1 0.530708 0.750000 0.451575
O O2 0.658478 0.937020 0.462611
O O3 0.534370 0.984491 0.391569
O O4 0.500000 0.000000 0.500000
O O5 0.270587 0.750000 0.076777
O O6 0.271695 0.475557 0.114477
O O7 0.327898 0.531624 0.015364
O O8 0.655461 0.250000 0.719828
O O9 0.755409 0.484980 0.712186
O O10 0.649506 0.471140 0.791212
O O11 0.568167 0.484026 0.696285
O O12 0.156612 0.750000 0.263893
O O13 0.110762 0.980640 0.208031
O O14 0.072553 0.972674 0.309681
O O15 0.066780 0.250000 0.344436
O O16 0.941878 0.427794 0.372162
O O17 0.100655 0.468263 0.413596
O O18 0.168746 0.750000 0.675175
O O19 0.921331 0.750000 0.520599
O O20 0.000000 0.000000 0.500000
O O21 0.472520 0.250000 0.671930
#
# Coordination Sequence:
#
# PCOD9467889 Si02
#       8
#     8   8   8   8   8   8   8   8
#     4  10  22  41  61  84 112 148 194 242 288 334
#     4  10  21  37  60  83 110 153 200 238 280 340
#     4  10  20  35  57  82 109 147 191 229 275 338
#     4  10  20  35  57  83 107 143 190 227 270 333
#     4  10  21  35  51  78 117 148 175 225 288 340
#     4  11  21  34  55  84 116 148 185 232 284 335
#     4  10  20  35  54  79 112 150 186 230 284 340
#     4   9  18  35  57  79 109 143 180 231 277 325
#
# _framework density 19.753086
#
# number of rings (size 3 to 8) (size 9 to 14) (size 15 to 20)
#    0.000    2.000    2.500    1.125    0.000    5.000 
#    0.000    1.250    0.000    0.000    0.000    0.000 
#    0.000    0.000    0.000    0.000    0.000    0.000 
#
# Total GULP energy -356647.292634 kJ/mol
# GULP energy per Si atom -5572.613947 kJ/mol
# Density = 1.970813 g / cm^3
# Si number density = 19.753086 Si / 1000 Ang^3
#
#
#
# Elastic Constant Matrix: (Units=GPa)
#
#
# Indices 1 2 3 4 5 6 
#
# 1 9.9284 25.0643 5.9705 0.0000 0.0000 0.0000
# 2 25.0643 -29.9871 2.6969 0.0000 0.0000 0.0000
# 3 5.9705 2.6969 59.2394 0.0000 0.0000 0.0000
# 4 0.0000 0.0000 0.0000 15.0748 0.0000 0.0000
# 5 0.0000 0.0000 0.0000 0.0000 24.0743 0.0000
# 6 0.0000 0.0000 0.0000 0.0000 0.0000 15.0173
#
#
#
# Elastic Compliance Matrix: (Units=1/GPa)
#
#
# Indices 1 2 3 4 5 6 
#
# 1 0.033624 0.027686 -0.004649 0.000000 0.000000 0.000000
# 2 0.027686 -0.010415 -0.002316 0.000000 0.000000 0.000000
# 3 -0.004649 -0.002316 0.017455 0.000000 0.000000 0.000000
# 4 0.000000 0.000000 0.000000 0.066336 0.000000 0.000000
# 5 0.000000 0.000000 0.000000 0.000000 0.041538 0.000000
# 6 0.000000 0.000000 0.000000 0.000000 0.000000 0.066590
#
#
# Mechanical properties :
#
#
# Convention : Reuss Voigt Hill
#
# Bulk Modulus (GPa) = 12.17964 11.84936 12.01450
# Shear Modulus (GPa) = 24.86887 11.19655 18.03271
#
# Velocity S-wave (km/s) = 3.55207 2.38339 3.02471
# Velocity P-wave (km/s) = 4.79607 3.68590 4.27715
#
# Compressibility (1/GPa) = 0.08210426
#
# Stress axis : x y z
#
# Youngs Moduli (GPa) = 29.74074 -96.01387 57.29122
#
# Poissons Ratio (x) = 2.65823 0.26636
# Poissons Ratio (y) = -0.82340 0.13270
# Poissons Ratio (z) = 0.13827 -0.22239
#
# Static dielectric constant tensor:
#      x y z
#    x 1.717040 0.000000 0.000000 
#    y 0.000000 1.705510 0.000000 
#    z 0.000000 0.000000 1.701030 
# 
# From -- ./inp_files/29792.got.cif
#   From: 2010.05.17/outbox.ucp.g08.bks.cvg/sg62_15_cif.got.tgz:29792.got - 2010.06.11 16:29:25.
