data_PCOD9467058
_publ_section_title
;
Structure prediction by ZEFSAII (Michael W. Deem and Ramdas Pophale) SiO2 
 PCOD9467058
Probable space group: P N M A
;
_chemical_formula_sum "Si O2"
_cell_formula_units_Z 48
_cell_length_a 15.072596
_cell_length_b 8.699930
_cell_length_c 18.763130
_cell_angle_alpha 90.000000
_cell_angle_beta 90.000000
_cell_angle_gamma 90.000000
_cell_volume 2460.419184
_symmetry_space_group_name_H-M "P N M A"
_symmetry_group_IT_number 62
_symmetry_cell_setting 'orthorhombic'
loop_
_space_group_symop_operation_xyz
x,y,z
1/2-x,-y,1/2+z
1/2+x,1/2-y,1/2-z
-x,1/2+y,-z
-x,-y,-z
1/2+x,y,1/2-z
1/2-x,1/2+y,1/2+z
x,1/2-y,z
loop_
_atom_site_type_symbol
_atom_site_label
_atom_site_fract_x
_atom_site_fract_y
_atom_site_fract_z
Si Si1 0.158175 0.932846 0.825365
Si Si2 0.310980 0.432222 0.738340
Si Si3 0.750754 0.933471 0.912174
Si Si4 0.597567 0.933816 0.513273
Si Si5 0.058453 0.433731 0.564186
Si Si6 0.500836 0.434325 0.215894
O O1 0.176754 0.750000 0.819094
O O2 0.126708 0.963756 0.905406
O O3 0.078978 0.970021 0.770470
O O4 0.245060 0.025119 0.802670
O O5 0.316712 0.250000 0.729013
O O6 0.269466 0.507548 0.667626
O O7 0.407396 0.501713 0.753434
O O8 0.743484 0.750000 0.911784
O O9 0.659180 0.005690 0.939908
O O10 0.832154 0.988197 0.960748
O O11 0.597485 0.750000 0.501958
O O12 0.500000 0.000000 0.500000
O O13 0.057698 0.250000 0.562166
O O14 0.000000 0.500000 0.500000
O O15 0.020039 0.492378 0.639501
O O16 0.506033 0.250000 0.208829
#
# Coordination Sequence:
#
# PCOD9467058 Si02
#       6
#     8   8   8   8   8   8
#     4  10  23  43  67  95 131 172 217 267 330 396
#     4  12  25  41  67  99 132 171 221 276 329 394
#     4  12  25  45  69  97 136 180 225 276 333 394
#     4  11  24  43  68 100 135 175 222 272 331 397
#     4  12  26  45  68  98 133 176 226 277 334 399
#     4  11  23  43  70  98 133 175 218 271 332 395
#
# _framework density 19.508870000000002
#
# number of rings (size 3 to 8) (size 9 to 14) (size 15 to 20)
#    0.000    0.667    1.667    6.500    2.333    3.333 
#    0.000    0.000    0.000    0.000    0.000    0.000 
#    0.000    0.000    0.000    0.000    0.000    0.000 
#
# Total GULP energy -268791.149801 kJ/mol
# GULP energy per Si atom -5599.815621 kJ/mol
# Density = 1.946447 g / cm^3
# Si number density = 19.508870 Si / 1000 Ang^3
#
#
#
# Elastic Constant Matrix: (Units=GPa)
#
#
# Indices 1 2 3 4 5 6 
#
# 1 111.6762 34.3663 6.9658 0.0000 0.0000 0.0000
# 2 34.3663 113.6172 25.6640 0.0000 0.0000 0.0000
# 3 6.9658 25.6640 58.4552 0.0000 0.0000 0.0000
# 4 0.0000 0.0000 0.0000 37.2073 0.0000 0.0000
# 5 0.0000 0.0000 0.0000 0.0000 42.3165 0.0000
# 6 0.0000 0.0000 0.0000 0.0000 0.0000 38.0822
#
#
#
# Elastic Compliance Matrix: (Units=1/GPa)
#
#
# Indices 1 2 3 4 5 6 
#
# 1 0.009875 -0.003021 0.000149 0.000000 0.000000 0.000000
# 2 -0.003021 0.010694 -0.004335 0.000000 0.000000 0.000000
# 3 0.000149 -0.004335 0.018993 0.000000 0.000000 0.000000
# 4 0.000000 0.000000 0.000000 0.026876 0.000000 0.000000
# 5 0.000000 0.000000 0.000000 0.000000 0.023631 0.000000
# 6 0.000000 0.000000 0.000000 0.000000 0.000000 0.026259
#
#
# Mechanical properties :
#
#
# Convention : Reuss Voigt Hill
#
# Bulk Modulus (GPa) = 39.76329 46.41567 43.08948
# Shear Modulus (GPa) = 35.93906 37.97137 36.95521
#
# Velocity S-wave (km/s) = 4.29673 4.41655 4.35705
# Velocity P-wave (km/s) = 6.71135 7.06057 6.88817
#
# Compressibility (1/GPa) = 0.02514882
#
# Stress axis : x y z
#
# Youngs Moduli (GPa) = 101.26922 93.50688 52.65196
#
# Poissons Ratio (x) = 0.28245 -0.00787
# Poissons Ratio (y) = 0.30589 0.22826
# Poissons Ratio (z) = -0.01513 0.40538
#
# Static dielectric constant tensor:
#      x y z
#    x 1.646750 0.000000 0.000000 
#    y 0.000000 1.659250 0.000000 
#    z 0.000000 0.000000 1.656110 
# 
# From -- ./inp_files/23761.got.cif
#   From: 2010.05.17/outbox.cif.g08.bks.cpg/sg62_12_cif.got.tgz:23761.got - 2010.06.03 15:25:27.
