data_PCOD9467830
_publ_section_title
;
Structure prediction by ZEFSAII (Michael W. Deem and Ramdas Pophale) SiO2 
 PCOD9467830
Probable space group: P N M A
;
_chemical_formula_sum "Si O2"
_cell_formula_units_Z 64
_cell_length_a 15.000000
_cell_length_b 9.000000
_cell_length_c 24.000000
_cell_angle_alpha 90.000000
_cell_angle_beta 90.000000
_cell_angle_gamma 90.000000
_cell_volume 3240.000000
_symmetry_space_group_name_H-M "P N M A"
_symmetry_group_IT_number 62
_symmetry_cell_setting 'orthorhombic'
loop_
_space_group_symop_operation_xyz
x,y,z
1/2-x,-y,1/2+z
1/2+x,1/2-y,1/2-z
-x,1/2+y,-z
-x,-y,-z
1/2+x,y,1/2-z
1/2-x,1/2+y,1/2+z
x,1/2-y,z
loop_
_atom_site_type_symbol
_atom_site_label
_atom_site_fract_x
_atom_site_fract_y
_atom_site_fract_z
Si Si1 0.880783 0.570778 0.245174
Si Si2 0.859742 0.076151 0.627217
Si Si3 0.604243 0.420334 0.348575
Si Si4 0.277893 0.422026 0.078669
Si Si5 0.308522 0.572928 0.759380
Si Si6 0.437693 0.928206 0.378479
Si Si7 0.206967 0.073753 0.963410
Si Si8 0.942830 0.927075 0.363901
O O1 0.880452 0.750000 0.243234
O O2 0.782240 0.510218 0.255739
O O3 0.908529 0.518492 0.183387
O O4 0.938067 0.524115 0.298941
O O5 0.856624 0.250000 0.645523
O O6 0.791488 0.061194 0.577059
O O7 0.960519 0.039334 0.611611
O O8 0.832049 0.975509 0.678734
O O9 0.572017 0.250000 0.349940
O O10 0.702037 0.423456 0.374591
O O11 0.615666 0.471583 0.284952
O O12 0.538546 0.521166 0.383604
O O13 0.301473 0.250000 0.067147
O O14 0.364350 0.502356 0.101030
O O15 0.233844 0.488831 0.023029
O O16 0.297026 0.750000 0.754535
O O17 0.429699 0.750000 0.378134
O O18 0.375649 0.987556 0.427916
O O19 0.187989 0.250000 0.972380
O O20 0.930989 0.750000 0.363951
#
# Coordination Sequence:
#
# PCOD9467830 Si02
#       8
#     8   8   8   8   8   8   8   8
#     4  10  19  34  56  82 111 144 179 222 277 329
#     4  10  20  38  60  83 112 145 183 230 278 327
#     4  10  22  37  53  80 115 148 180 221 277 332
#     4  10  21  39  58  77 111 153 187 226 279 330
#     4  11  21  34  55  84 113 147 183 220 275 337
#     4  10  20  36  59  85 108 142 189 229 272 327
#     4   9  19  37  60  81 106 147 192 229 274 330
#     4  10  21  35  57  86 112 142 184 230 275 325
#
# _framework density 19.753086
#
# number of rings (size 3 to 8) (size 9 to 14) (size 15 to 20)
#    0.000    2.000    2.500    1.125    0.000    4.500 
#    0.000    1.250    0.000    0.000    0.000    0.000 
#    0.000    0.000    0.000    0.000    0.000    0.000 
#
# Total GULP energy -356903.907003 kJ/mol
# GULP energy per Si atom -5576.623547 kJ/mol
# Density = 1.970813 g / cm^3
# Si number density = 19.753086 Si / 1000 Ang^3
#
#
#
# Elastic Constant Matrix: (Units=GPa)
#
#
# Indices 1 2 3 4 5 6 
#
# 1 -4.0639 -7.3286 -77.5990 0.0000 0.0000 0.0000
# 2 -7.3286 -17.8851 -2.7087 0.0000 0.0000 0.0000
# 3 -77.5990 -2.7087 -40.5011 0.0000 0.0000 0.0000
# 4 0.0000 0.0000 0.0000 11.1897 0.0000 0.0000
# 5 0.0000 0.0000 0.0000 0.0000 -21.0072 0.0000
# 6 0.0000 0.0000 0.0000 0.0000 0.0000 10.1971
#
#
#
# Elastic Compliance Matrix: (Units=1/GPa)
#
#
# Indices 1 2 3 4 5 6 
#
# 1 0.006903 -0.000834 -0.013170 0.000000 0.000000 0.000000
# 2 -0.000834 -0.056384 0.005369 0.000000 0.000000 0.000000
# 3 -0.013170 0.005369 0.000183 0.000000 0.000000 0.000000
# 4 0.000000 0.000000 0.000000 0.089368 0.000000 0.000000
# 5 0.000000 0.000000 0.000000 0.000000 -0.047603 0.000000
# 6 0.000000 0.000000 0.000000 0.000000 0.000000 0.098067
#
#
# Mechanical properties :
#
#
# Convention : Reuss Voigt Hill
#
# Bulk Modulus (GPa) = -15.02221 -26.41363 -20.71792
# Shear Modulus (GPa) = 58.40194 1.75500 30.07847
#
# Velocity S-wave (km/s) = 5.44336 0.94361 3.90644
# Velocity P-wave (km/s) = 5.64671 3.49482 3.13621
#
# Compressibility (1/GPa) = -0.06656809
#
# Stress axis : x y z
#
# Youngs Moduli (GPa) = 144.87186 -17.73554 5474.05229
#
# Poissons Ratio (x) = -0.01479 72.09063
# Poissons Ratio (y) = 0.12080 -29.38827
# Poissons Ratio (z) = 1.90789 0.09522
#
# Static dielectric constant tensor:
#      x y z
#    x 1.708730 0.000000 0.000000 
#    y 0.000000 1.735880 0.000000 
#    z 0.000000 0.000000 1.722680 
# 
# From -- ./inp_files/29870.got.cif
#   From: 2010.05.17/outbox.ucp.g08.bks.cvg/sg62_15_cif.got.tgz:29870.got - 2010.06.11 16:29:25.
