data_PCOD9467593
_publ_section_title
;
Structure prediction by ZEFSAII (Michael W. Deem and Ramdas Pophale) SiO2 
 PCOD9467593
Probable space group: P N M A
;
_chemical_formula_sum "Si O2"
_cell_formula_units_Z 32
_cell_length_a 9.723772
_cell_length_b 8.741706
_cell_length_c 16.710785
_cell_angle_alpha 90.000000
_cell_angle_beta 90.000000
_cell_angle_gamma 90.000000
_cell_volume 1420.456096
_symmetry_space_group_name_H-M "P N M A"
_symmetry_group_IT_number 62
_symmetry_cell_setting 'orthorhombic'
loop_
_space_group_symop_operation_xyz
x,y,z
1/2-x,-y,1/2+z
1/2+x,1/2-y,1/2-z
-x,1/2+y,-z
-x,-y,-z
1/2+x,y,1/2-z
1/2-x,1/2+y,1/2+z
x,1/2-y,z
loop_
_atom_site_type_symbol
_atom_site_label
_atom_site_fract_x
_atom_site_fract_y
_atom_site_fract_z
Si Si1 0.849303 0.427982 0.507397
Si Si2 0.063585 0.930395 0.231206
Si Si3 0.663772 0.925817 0.823161
Si Si4 0.083931 0.567179 0.924517
O O1 0.855752 0.250000 0.531769
O O2 0.793987 0.433401 0.415875
O O3 0.742371 0.519533 0.561749
O O4 0.000000 0.500000 0.500000
O O5 0.083277 0.750000 0.225280
O O6 0.971255 0.974993 0.306847
O O7 0.977669 0.992340 0.155214
O O8 0.210063 0.012459 0.228514
O O9 0.633017 0.750000 0.803093
O O10 0.069568 0.750000 0.921573
O O11 0.000000 0.500000 0.000000
#
# Coordination Sequence:
#
# PCOD9467593 Si02
#       4
#     8   8   8   8
#     4  11  25  44  69  99 135 175 220 274 333 394
#     4  12  26  44  69  99 134 176 224 274 330 397
#     4  11  25  46  69  96 135 178 221 272 333 394
#     4  12  24  43  70  98 132 173 220 272 330 392
#
# _framework density 22.527975000000001
#
# number of rings (size 3 to 8) (size 9 to 14) (size 15 to 20)
#    0.000    0.500    2.500    6.000    3.500    3.000 
#    0.000    0.000    0.000    0.000    0.000    0.000 
#    0.000    0.000    0.000    0.000    0.000    0.000 
#
# Total GULP energy -179365.909720 kJ/mol
# GULP energy per Si atom -5605.184679 kJ/mol
# Density = 2.247670 g / cm^3
# Si number density = 22.527975 Si / 1000 Ang^3
#
#
#
# Elastic Constant Matrix: (Units=GPa)
#
#
# Indices 1 2 3 4 5 6 
#
# 1 90.6261 -20.2428 -12.0500 0.0000 0.0000 0.0000
# 2 -20.2428 75.0127 5.7694 0.0000 0.0000 0.0000
# 3 -12.0500 5.7694 45.2279 0.0000 0.0000 0.0000
# 4 0.0000 0.0000 0.0000 30.7006 0.0000 0.0000
# 5 0.0000 0.0000 0.0000 0.0000 39.4152 0.0000
# 6 0.0000 0.0000 0.0000 0.0000 0.0000 42.3461
#
#
#
# Elastic Compliance Matrix: (Units=1/GPa)
#
#
# Indices 1 2 3 4 5 6 
#
# 1 0.012091 0.003045 0.002833 0.000000 0.000000 0.000000
# 2 0.003045 0.014230 -0.001004 0.000000 0.000000 0.000000
# 3 0.002833 -0.001004 0.022993 0.000000 0.000000 0.000000
# 4 0.000000 0.000000 0.000000 0.032573 0.000000 0.000000
# 5 0.000000 0.000000 0.000000 0.000000 0.025371 0.000000
# 6 0.000000 0.000000 0.000000 0.000000 0.000000 0.023615
#
#
# Mechanical properties :
#
#
# Convention : Reuss Voigt Hill
#
# Bulk Modulus (GPa) = 16.93124 17.53556 17.23340
# Shear Modulus (GPa) = 35.50830 38.31839 36.91335
#
# Velocity S-wave (km/s) = 3.97443 4.12870 4.05230
# Velocity P-wave (km/s) = 5.34728 5.52531 5.43702
#
# Compressibility (1/GPa) = 0.05906241
#
# Stress axis : x y z
#
# Youngs Moduli (GPa) = 82.70491 70.27404 43.49128
#
# Poissons Ratio (x) = -0.21399 -0.12321
# Poissons Ratio (y) = -0.25184 0.04366
# Poissons Ratio (z) = -0.23430 0.07055
#
# Static dielectric constant tensor:
#      x y z
#    x 1.815070 0.000000 0.000000 
#    y 0.000000 1.746700 0.000000 
#    z 0.000000 0.000000 1.886070 
# 
# From -- ./inp_files/25536.got.cif
#   From: 2010.05.17/outbox.cif.g08.bks.cpg/sg62_13_cif.got.tgz:25536.got - 2010.06.03 15:25:27.
