data_PCOD9467410
_publ_section_title
;
Structure prediction by ZEFSAII (Michael W. Deem and Ramdas Pophale) SiO2 
 PCOD9467410
Probable space group: P N M A
;
_chemical_formula_sum "Si O2"
_cell_formula_units_Z 64
_cell_length_a 18.999017
_cell_length_b 20.896705
_cell_length_c 8.592646
_cell_angle_alpha 90.000000
_cell_angle_beta 90.000000
_cell_angle_gamma 90.000000
_cell_volume 3411.425278
_symmetry_space_group_name_H-M "P N M A"
_symmetry_group_IT_number 62
_symmetry_cell_setting 'orthorhombic'
loop_
_space_group_symop_operation_xyz
x,y,z
1/2-x,-y,1/2+z
1/2+x,1/2-y,1/2-z
-x,1/2+y,-z
-x,-y,-z
1/2+x,y,1/2-z
1/2-x,1/2+y,1/2+z
x,1/2-y,z
loop_
_atom_site_type_symbol
_atom_site_label
_atom_site_fract_x
_atom_site_fract_y
_atom_site_fract_z
Si Si1 0.796701 0.822116 0.939326
Si Si2 0.041061 0.175699 0.062277
Si Si3 0.546444 0.558320 0.065058
Si Si4 0.795915 0.441408 0.437248
Si Si5 0.203299 0.177884 0.439326
Si Si6 0.953556 0.058320 0.934942
Si Si7 0.795915 0.441408 0.062752
Si Si8 0.541060 0.175699 0.062278
O O1 0.779667 0.750000 0.991711
O O2 0.877500 0.837008 0.983413
O O3 0.742338 0.875943 0.990258
O O4 0.796045 0.821369 0.750000
O O5 0.025466 0.250000 0.024375
O O6 0.036394 0.169343 0.250000
O O7 0.990106 0.124644 0.985125
O O8 0.549345 0.553411 0.250000
O O9 0.500000 0.500000 0.000000
O O10 0.624842 0.554828 0.997415
O O11 0.509894 0.624644 0.014875
O O12 0.796030 0.442673 0.250000
O O13 0.750000 0.500000 0.500000
O O14 0.220333 0.250000 0.491711
O O15 0.257662 0.124057 0.490258
O O16 0.122500 0.162992 0.483413
O O17 0.875158 0.054828 0.002585
O O18 0.000000 0.000000 0.000000
O O19 0.525466 0.250000 0.024375
#
# Coordination Sequence:
#
# PCOD9467410 Si02
#       8
#     8   8   8   8   8   8   8   8
#     4   8  16  33  58  85 111 143 184 227 273 333
#     4   9  18  36  62  89 117 150 189 234 287 347
#     4  12  25  40  58  82 115 153 197 247 297 347
#     4  11  22  37  59  86 116 150 190 237 290 346
#     4   8  16  33  58  85 111 143 184 227 273 333
#     4  12  25  40  58  82 115 153 197 247 297 347
#     4  11  22  37  59  86 116 150 190 237 290 346
#     4   9  18  36  62  89 117 150 189 234 287 347
#
# _framework density 18.760487999999999
#
# number of rings (size 3 to 8) (size 9 to 14) (size 15 to 20)
#    0.000    2.000    0.000    6.000    0.000    3.500 
#    0.000    3.750    0.000    5.250    0.000    0.000 
#    0.000    0.000    0.000    0.000    0.000    0.000 
#
# Total GULP energy -357535.641476 kJ/mol
# GULP energy per Si atom -5586.494398 kJ/mol
# Density = 1.871779 g / cm^3
# Si number density = 18.760488 Si / 1000 Ang^3
#
#
#
# Elastic Constant Matrix: (Units=GPa)
#
#
# Indices 1 2 3 4 5 6 
#
# 1 186.4082 131.6106 56.6601 0.0000 0.0000 0.0000
# 2 131.6106 149.0776 57.0186 0.0000 0.0000 0.0000
# 3 56.6601 57.0186 75.8643 0.0000 0.0000 0.0000
# 4 0.0000 0.0000 0.0000 31.3193 0.0000 0.0000
# 5 0.0000 0.0000 0.0000 0.0000 29.7634 0.0000
# 6 0.0000 0.0000 0.0000 0.0000 0.0000 41.5404
#
#
#
# Elastic Compliance Matrix: (Units=1/GPa)
#
#
# Indices 1 2 3 4 5 6 
#
# 1 0.014393 -0.012063 -0.001683 0.000000 0.000000 0.000000
# 2 -0.012063 0.019524 -0.005665 0.000000 0.000000 0.000000
# 3 -0.001683 -0.005665 0.018696 0.000000 0.000000 0.000000
# 4 0.000000 0.000000 0.000000 0.031929 0.000000 0.000000
# 5 0.000000 0.000000 0.000000 0.000000 0.033598 0.000000
# 6 0.000000 0.000000 0.000000 0.000000 0.000000 0.024073
#
#
# Mechanical properties :
#
#
# Convention : Reuss Voigt Hill
#
# Bulk Modulus (GPa) = 72.50875 100.21430 86.36152
# Shear Modulus (GPa) = 26.93499 31.59534 29.26516
#
# Velocity S-wave (km/s) = 3.79321 4.10828 3.95389
# Velocity P-wave (km/s) = 7.61040 8.71996 8.18401
#
# Compressibility (1/GPa) = 0.01379144
#
# Stress axis : x y z
#
# Youngs Moduli (GPa) = 69.47857 51.21929 53.48688
#
# Poissons Ratio (x) = 0.61784 0.09004
# Poissons Ratio (y) = 0.83810 0.30299
# Poissons Ratio (z) = 0.11696 0.29014
#
# Static dielectric constant tensor:
#      x y z
#    x 1.614840 0.000000 0.000000 
#    y 0.000000 1.609680 0.000000 
#    z 0.000000 0.000000 1.643710 
# 
# From -- ./inp_files/8860.got.cif
#   From: 2010.05.17/outbox.cif.g08.bks.cpg/sg62_5_cif.got.tgz:8860.got - 2010.06.03 15:25:27.
