data_PCOD9467186
_publ_section_title
;
Structure prediction by ZEFSAII (Michael W. Deem and Ramdas Pophale) SiO2 
 PCOD9467186
Probable space group: P N M A
;
_chemical_formula_sum "Si O2"
_cell_formula_units_Z 24
_cell_length_a 8.877442
_cell_length_b 13.691900
_cell_length_c 7.573883
_cell_angle_alpha 90.000000
_cell_angle_beta 90.000000
_cell_angle_gamma 90.000000
_cell_volume 920.598269
_symmetry_space_group_name_H-M "P N M A"
_symmetry_group_IT_number 62
_symmetry_cell_setting 'orthorhombic'
loop_
_space_group_symop_operation_xyz
x,y,z
1/2-x,-y,1/2+z
1/2+x,1/2-y,1/2-z
-x,1/2+y,-z
-x,-y,-z
1/2+x,y,1/2-z
1/2-x,1/2+y,1/2+z
x,1/2-y,z
loop_
_atom_site_type_symbol
_atom_site_label
_atom_site_fract_x
_atom_site_fract_y
_atom_site_fract_z
Si Si1 0.205751 0.944607 0.362286
Si Si2 0.024507 0.861546 0.055799
Si Si3 0.977940 0.640586 0.645387
O O1 0.160865 0.900059 0.173358
O O2 0.380594 0.927626 0.395021
O O3 0.111293 0.885926 0.510377
O O4 0.143477 0.054426 0.366269
O O5 0.991088 0.750000 0.110512
O O6 0.038306 0.860118 0.845504
O O7 0.919277 0.750000 0.608690
#
# Coordination Sequence:
#
# PCOD9467186 Si02
#       3
#     8   8   8
#     4  11  25  44  71 102 138 178 230 281 340 402
#     4  11  24  44  70 103 138 178 226 281 343 404
#     4  10  24  44  67  96 138 184 226 275 338 408
#
# _framework density 26.070004999999998
#
# number of rings (size 3 to 8) (size 9 to 14) (size 15 to 20)
#    0.000    1.333    0.000    4.000    9.333    2.667 
#    0.000    3.333    0.000    0.000    0.000    0.000 
#    0.000    0.000    0.000    0.000    0.000    0.000 
#
# Total GULP energy -134921.346077 kJ/mol
# GULP energy per Si atom -5621.722753 kJ/mol
# Density = 2.601067 g / cm^3
# Si number density = 26.070005 Si / 1000 Ang^3
#
#
#
# Elastic Constant Matrix: (Units=GPa)
#
#
# Indices 1 2 3 4 5 6 
#
# 1 41.8763 13.0117 45.5874 0.0000 0.0000 0.0000
# 2 13.0117 207.4325 41.9976 0.0000 0.0000 0.0000
# 3 45.5874 41.9976 182.9623 0.0000 0.0000 0.0000
# 4 0.0000 0.0000 0.0000 42.6189 0.0000 0.0000
# 5 0.0000 0.0000 0.0000 0.0000 41.5630 0.0000
# 6 0.0000 0.0000 0.0000 0.0000 0.0000 16.9058
#
#
#
# Elastic Compliance Matrix: (Units=1/GPa)
#
#
# Indices 1 2 3 4 5 6 
#
# 1 0.032803 -0.000422 -0.008076 0.000000 0.000000 0.000000
# 2 -0.000422 0.005061 -0.001057 0.000000 0.000000 0.000000
# 3 -0.008076 -0.001057 0.007720 0.000000 0.000000 0.000000
# 4 0.000000 0.000000 0.000000 0.023464 0.000000 0.000000
# 5 0.000000 0.000000 0.000000 0.000000 0.024060 0.000000
# 6 0.000000 0.000000 0.000000 0.000000 0.000000 0.059151
#
#
# Mechanical properties :
#
#
# Convention : Reuss Voigt Hill
#
# Bulk Modulus (GPa) = 37.77261 70.38494 54.07877
# Shear Modulus (GPa) = 27.74767 42.32918 35.03842
#
# Velocity S-wave (km/s) = 3.26598 4.03385 3.67006
# Velocity P-wave (km/s) = 5.36121 6.98234 6.22477
#
# Compressibility (1/GPa) = 0.02647421
#
# Stress axis : x y z
#
# Youngs Moduli (GPa) = 30.48480 197.57964 129.52618
#
# Poissons Ratio (x) = 0.08348 1.04610
# Poissons Ratio (y) = 0.01288 0.13684
# Poissons Ratio (z) = 0.24621 0.20874
#
# Static dielectric constant tensor:
#      x y z
#    x 1.983430 0.000000 0.000000 
#    y 0.000000 2.053240 0.000000 
#    z 0.000000 0.000000 2.009400 
# 
# From -- ./inp_files/3978.got.cif
#   From: 2010.05.17/outbox.cif.g08.bks.cpg/sg62_2_cif.got.tgz:3978.got - 2010.06.03 15:25:27.
