data_PCOD9467370
_publ_section_title
;
Structure prediction by ZEFSAII (Michael W. Deem and Ramdas Pophale) SiO2 
 PCOD9467370
Probable space group: P N M A
;
_chemical_formula_sum "Si O2"
_cell_formula_units_Z 48
_cell_length_a 12.208662
_cell_length_b 14.243252
_cell_length_c 12.517311
_cell_angle_alpha 90.000000
_cell_angle_beta 90.000000
_cell_angle_gamma 90.000000
_cell_volume 2176.648346
_symmetry_space_group_name_H-M "P N M A"
_symmetry_group_IT_number 62
_symmetry_cell_setting 'orthorhombic'
loop_
_space_group_symop_operation_xyz
x,y,z
1/2-x,-y,1/2+z
1/2+x,1/2-y,1/2-z
-x,1/2+y,-z
-x,-y,-z
1/2+x,y,1/2-z
1/2-x,1/2+y,1/2+z
x,1/2-y,z
loop_
_atom_site_type_symbol
_atom_site_label
_atom_site_fract_x
_atom_site_fract_y
_atom_site_fract_z
Si Si1 0.927265 0.446577 0.835058
Si Si2 0.654042 0.750000 0.571706
Si Si3 0.866338 0.052029 0.170603
Si Si4 0.827578 0.954487 0.384870
Si Si5 0.784983 0.250000 0.612935
Si Si6 0.026151 0.250000 0.913555
Si Si7 0.205882 0.250000 0.648123
Si Si8 0.846267 0.048376 0.597456
O O1 0.806356 0.452464 0.886572
O O2 0.908978 0.462313 0.708659
O O3 0.013479 0.525261 0.871283
O O4 0.980781 0.345274 0.858658
O O5 0.670770 0.844654 0.637846
O O6 0.529686 0.750000 0.529509
O O7 0.727663 0.750000 0.463886
O O8 0.860715 0.030199 0.296432
O O9 0.779261 0.978520 0.124185
O O10 0.858287 0.848388 0.350840
O O11 0.875216 0.982716 0.498679
O O12 0.656692 0.250000 0.583603
O O13 0.844360 0.157793 0.571045
O O14 0.279532 0.250000 0.756130
#
# Coordination Sequence:
#
# PCOD9467370 Si02
#       8
#     8   4   8   8   4   4   4   8
#     4  11  21  39  63  91 128 161 206 266 304 372
#     4  12  24  39  64  91 130 174 202 263 328 384
#     4  11  24  41  60  93 130 163 216 258 315 378
#     4  11  23  40  64  94 124 170 210 260 311 381
#     4  12  22  37  62 100 124 154 218 270 300 369
#     4  12  20  36  65  93 125 162 211 261 312 371
#     4  12  18  40  63  88 123 162 209 248 316 366
#     4  11  22  39  63  93 126 164 208 263 317 366
#
# _framework density 22.052253
#
# number of rings (size 3 to 8) (size 9 to 14) (size 15 to 20)
#    0.000    0.667    8.333    0.500    2.333    2.667 
#    0.000    4.167    0.000    0.000    0.000    0.000 
#    0.000    0.000    0.000    0.000    0.000    0.000 
#
# Total GULP energy -268427.236648 kJ/mol
# GULP energy per Si atom -5592.234097 kJ/mol
# Density = 2.200206 g / cm^3
# Si number density = 22.052253 Si / 1000 Ang^3
#
#
#
# Elastic Constant Matrix: (Units=GPa)
#
#
# Indices 1 2 3 4 5 6 
#
# 1 71.1066 -8.0410 -28.3873 0.0000 0.0000 0.0000
# 2 -8.0410 121.8806 7.7887 0.0000 0.0000 0.0000
# 3 -28.3873 7.7887 53.6049 0.0000 0.0000 0.0000
# 4 0.0000 0.0000 0.0000 43.0131 0.0000 0.0000
# 5 0.0000 0.0000 0.0000 0.0000 5.7212 0.0000
# 6 0.0000 0.0000 0.0000 0.0000 0.0000 14.9059
#
#
#
# Elastic Compliance Matrix: (Units=1/GPa)
#
#
# Indices 1 2 3 4 5 6 
#
# 1 0.017874 0.000580 0.009381 0.000000 0.000000 0.000000
# 2 0.000580 0.008300 -0.000899 0.000000 0.000000 0.000000
# 3 0.009381 -0.000899 0.023754 0.000000 0.000000 0.000000
# 4 0.000000 0.000000 0.000000 0.023249 0.000000 0.000000
# 5 0.000000 0.000000 0.000000 0.000000 0.174788 0.000000
# 6 0.000000 0.000000 0.000000 0.000000 0.000000 0.067087
#
#
# Mechanical properties :
#
#
# Convention : Reuss Voigt Hill
#
# Bulk Modulus (GPa) = 14.69457 21.03476 17.86466
# Shear Modulus (GPa) = 15.64393 31.07683 23.36038
#
# Velocity S-wave (km/s) = 2.66635 3.75805 3.25825
# Velocity P-wave (km/s) = 4.01961 5.32822 4.71949
#
# Compressibility (1/GPa) = 0.06805234
#
# Stress axis : x y z
#
# Youngs Moduli (GPa) = 55.94665 120.47540 42.09875
#
# Poissons Ratio (x) = -0.06984 -0.39494
# Poissons Ratio (y) = -0.03243 0.03785
# Poissons Ratio (z) = -0.52485 0.10831
#
# Static dielectric constant tensor:
#      x y z
#    x 1.858490 0.000000 0.000000 
#    y 0.000000 1.783740 0.000000 
#    z 0.000000 0.000000 1.834680 
# 
# From -- ./inp_files/18044.got.cif
#   From: 2010.05.17/outbox.cif.g08.bks.cpg/sg62_10_cif.got.tgz:18044.got - 2010.06.03 15:25:27.
