data_PCOD9467360
_publ_section_title
;
Structure prediction by ZEFSAII (Michael W. Deem and Ramdas Pophale) SiO2 
 PCOD9467360
Probable space group: P N M A
;
_chemical_formula_sum "Si O2"
_cell_formula_units_Z 40
_cell_length_a 8.140592
_cell_length_b 18.894272
_cell_length_c 13.247780
_cell_angle_alpha 90.000000
_cell_angle_beta 90.000000
_cell_angle_gamma 90.000000
_cell_volume 2037.648454
_symmetry_space_group_name_H-M "P N M A"
_symmetry_group_IT_number 62
_symmetry_cell_setting 'orthorhombic'
loop_
_space_group_symop_operation_xyz
x,y,z
1/2-x,-y,1/2+z
1/2+x,1/2-y,1/2-z
-x,1/2+y,-z
-x,-y,-z
1/2+x,y,1/2-z
1/2-x,1/2+y,1/2+z
x,1/2-y,z
loop_
_atom_site_type_symbol
_atom_site_label
_atom_site_fract_x
_atom_site_fract_y
_atom_site_fract_z
Si Si1 0.808351 0.606233 0.089346
Si Si2 0.329419 0.250000 0.820165
Si Si3 0.168813 0.538232 0.605982
Si Si4 0.798981 0.750000 0.398736
Si Si5 0.817315 0.395727 0.985409
Si Si6 0.795192 0.962557 0.681009
O O1 0.702065 0.588496 0.989398
O O2 0.758967 0.680130 0.137772
O O3 0.772311 0.542393 0.166840
O O4 0.997290 0.603846 0.055431
O O5 0.516276 0.250000 0.857257
O O6 0.317944 0.250000 0.699461
O O7 0.221229 0.460018 0.569101
O O8 0.276838 0.558210 0.703114
O O9 0.981602 0.539179 0.642231
O O10 0.763591 0.679136 0.460917
O O11 0.808133 0.414409 0.103728
#
# Coordination Sequence:
#
# PCOD9467360 Si02
#       6
#     8   4   8   4   8   8
#     4  11  22  38  58  85 115 148 188 234 280 333
#     4  12  24  40  59  84 115 150 186 230 282 336
#     4  11  21  37  59  85 114 150 189 232 279 331
#     4  12  24  40  59  84 115 150 186 230 282 336
#     4  11  22  38  58  85 115 148 188 234 280 333
#     4  11  21  37  59  85 114 150 189 232 279 331
#
# _framework density 19.630472000000001
#
# number of rings (size 3 to 8) (size 9 to 14) (size 15 to 20)
#    0.000    0.800    0.000   12.600    0.000    0.000 
#    0.000    1.000    0.000    0.000    0.000    0.000 
#    0.000    0.000    0.000    0.000    0.000    0.000 
#
# Total GULP energy -223931.697650 kJ/mol
# GULP energy per Si atom -5598.292441 kJ/mol
# Density = 1.958579 g / cm^3
# Si number density = 19.630472 Si / 1000 Ang^3
#
#
#
# Elastic Constant Matrix: (Units=GPa)
#
#
# Indices 1 2 3 4 5 6 
#
# 1 66.9418 -4.3435 -27.6455 0.0000 0.0000 0.0000
# 2 -4.3435 113.7554 28.1905 0.0000 0.0000 0.0000
# 3 -27.6455 28.1905 85.0445 0.0000 0.0000 0.0000
# 4 0.0000 0.0000 0.0000 2.1173 0.0000 0.0000
# 5 0.0000 0.0000 0.0000 0.0000 37.5152 0.0000
# 6 0.0000 0.0000 0.0000 0.0000 0.0000 10.9167
#
#
#
# Elastic Compliance Matrix: (Units=1/GPa)
#
#
# Indices 1 2 3 4 5 6 
#
# 1 0.017321 -0.000800 0.005896 0.000000 0.000000 0.000000
# 2 -0.000800 0.009614 -0.003447 0.000000 0.000000 0.000000
# 3 0.005896 -0.003447 0.014818 0.000000 0.000000 0.000000
# 4 0.000000 0.000000 0.000000 0.472296 0.000000 0.000000
# 5 0.000000 0.000000 0.000000 0.000000 0.026656 0.000000
# 6 0.000000 0.000000 0.000000 0.000000 0.000000 0.091603
#
#
# Mechanical properties :
#
#
# Convention : Reuss Voigt Hill
#
# Bulk Modulus (GPa) = 22.19679 28.68274 25.43977
# Shear Modulus (GPa) = 7.76364 28.07918 17.92141
#
# Velocity S-wave (km/s) = 1.99085 3.78615 3.02476
# Velocity P-wave (km/s) = 4.07633 5.81002 5.01861
#
# Compressibility (1/GPa) = 0.04505155
#
# Stress axis : x y z
#
# Youngs Moduli (GPa) = 57.73255 104.00993 67.48700
#
# Poissons Ratio (x) = 0.08317 -0.39788
# Poissons Ratio (y) = 0.04617 0.23262
# Poissons Ratio (z) = -0.34037 0.35852
#
# Static dielectric constant tensor:
#      x y z
#    x 1.709230 0.000000 0.000000 
#    y 0.000000 1.642580 0.000000 
#    z 0.000000 0.000000 1.684850 
# 
# From -- ./inp_files/16818.got.cif
#   From: 2010.05.17/outbox.cif.g08.bks.cpg/sg62_9_cif.got.tgz:16818.got - 2010.06.03 15:25:27.
