data_PCOD9467965
_publ_section_title
;
Structure prediction by ZEFSAII (Michael W. Deem and Ramdas Pophale) SiO2 
 PCOD9467965
Probable space group: P N M A
;
_chemical_formula_sum "Si O2"
_cell_formula_units_Z 48
_cell_length_a 9.000000
_cell_length_b 15.000000
_cell_length_c 21.000000
_cell_angle_alpha 90.000000
_cell_angle_beta 90.000000
_cell_angle_gamma 90.000000
_cell_volume 2835.000000
_symmetry_space_group_name_H-M "P N M A"
_symmetry_group_IT_number 62
_symmetry_cell_setting 'orthorhombic'
loop_
_space_group_symop_operation_xyz
x,y,z
1/2-x,-y,1/2+z
1/2+x,1/2-y,1/2-z
-x,1/2+y,-z
-x,-y,-z
1/2+x,y,1/2-z
1/2-x,1/2+y,1/2+z
x,1/2-y,z
loop_
_atom_site_type_symbol
_atom_site_label
_atom_site_fract_x
_atom_site_fract_y
_atom_site_fract_z
Si Si1 0.635902 0.480625 0.452269
Si Si2 0.465867 0.852433 0.662598
Si Si3 0.242739 0.572505 0.764376
Si Si4 0.982636 0.496808 0.339452
Si Si5 0.089316 0.856606 0.548059
Si Si6 0.361025 0.642835 0.069357
O O1 0.500000 0.500000 0.500000
O O2 0.573407 0.427200 0.390403
O O3 0.764562 0.411182 0.476040
O O4 0.718742 0.575648 0.438135
O O5 0.458238 0.750000 0.639133
O O6 0.628046 0.872931 0.691769
O O7 0.346788 0.866180 0.719548
O O8 0.356243 0.515414 0.807481
O O9 0.140158 0.515439 0.716117
O O10 0.957498 0.414421 0.389502
O O11 0.954485 0.589850 0.376160
O O12 0.115996 0.750000 0.560607
O O13 0.959681 0.862184 0.495179
O O14 0.332925 0.750000 0.081009
#
# Coordination Sequence:
#
# PCOD9467965 Si02
#       6
#     8   8   8   8   8   8
#     4  11  23  37  58  85 122 153 186 244 293 339
#     4  11  22  37  58  89 120 151 185 232 289 354
#     4  10  22  36  60  83 119 153 188 223 290 348
#     4  10  20  39  59  84 118 149 187 238 285 340
#     4  10  21  38  62  86 112 150 191 237 292 350
#     4  10  22  41  63  83 110 157 206 243 283 338
#
# _framework density 16.931217
#
# number of rings (size 3 to 8) (size 9 to 14) (size 15 to 20)
#    0.000    1.667    3.333    3.000    4.667    4.667 
#    0.000    0.833    0.000    0.000    0.000    0.000 
#    0.000    0.000    0.000    0.000    0.000    0.000 
#
# Total GULP energy -267651.530804 kJ/mol
# GULP energy per Si atom -5576.073558 kJ/mol
# Density = 1.689268 g / cm^3
# Si number density = 16.931217 Si / 1000 Ang^3
#
#
#
# Elastic Constant Matrix: (Units=GPa)
#
#
# Indices 1 2 3 4 5 6 
#
# 1 124.3027 54.8388 53.1337 0.0000 0.0000 0.0000
# 2 54.8388 171.3586 58.2026 0.0000 0.0000 0.0000
# 3 53.1337 58.2026 86.3768 0.0000 0.0000 0.0000
# 4 0.0000 0.0000 0.0000 27.5613 0.0000 0.0000
# 5 0.0000 0.0000 0.0000 0.0000 44.6314 0.0000
# 6 0.0000 0.0000 0.0000 0.0000 0.0000 23.6347
#
#
#
# Elastic Compliance Matrix: (Units=1/GPa)
#
#
# Indices 1 2 3 4 5 6 
#
# 1 0.011252 -0.001621 -0.005829 0.000000 0.000000 0.000000
# 2 -0.001621 0.007801 -0.004260 0.000000 0.000000 0.000000
# 3 -0.005829 -0.004260 0.018033 0.000000 0.000000 0.000000
# 4 0.000000 0.000000 0.000000 0.036283 0.000000 0.000000
# 5 0.000000 0.000000 0.000000 0.000000 0.022406 0.000000
# 6 0.000000 0.000000 0.000000 0.000000 0.000000 0.042311
#
#
# Mechanical properties :
#
#
# Convention : Reuss Voigt Hill
#
# Bulk Modulus (GPa) = 73.17007 79.37649 76.27328
# Shear Modulus (GPa) = 30.10961 33.55635 31.83298
#
# Velocity S-wave (km/s) = 4.22162 4.45671 4.34076
# Velocity P-wave (km/s) = 8.18979 8.57126 8.38270
#
# Compressibility (1/GPa) = 0.01366679
#
# Stress axis : x y z
#
# Youngs Moduli (GPa) = 88.87583 128.18512 55.45362
#
# Poissons Ratio (x) = 0.20778 0.32325
# Poissons Ratio (y) = 0.14406 0.23621
# Poissons Ratio (z) = 0.51807 0.54601
#
# Static dielectric constant tensor:
#      x y z
#    x 1.595250 0.000000 0.000000 
#    y 0.000000 1.554300 0.000000 
#    z 0.000000 0.000000 1.589110 
# 
# From -- ./inp_files/25846.got.cif
#   From: 2010.05.17/outbox.ucp.g08.bks.cvg/sg62_13_cif.got.tgz:25846.got - 2010.06.11 16:29:25.
