data_PCOD9467296
_publ_section_title
;
Structure prediction by ZEFSAII (Michael W. Deem and Ramdas Pophale) SiO2 
 PCOD9467296
Probable space group: P N M A
;
_chemical_formula_sum "Si O2"
_cell_formula_units_Z 64
_cell_length_a 21.229278
_cell_length_b 8.714331
_cell_length_c 20.120668
_cell_angle_alpha 90.000000
_cell_angle_beta 90.000000
_cell_angle_gamma 90.000000
_cell_volume 3722.302562
_symmetry_space_group_name_H-M "P N M A"
_symmetry_group_IT_number 62
_symmetry_cell_setting 'orthorhombic'
loop_
_space_group_symop_operation_xyz
x,y,z
1/2-x,-y,1/2+z
1/2+x,1/2-y,1/2-z
-x,1/2+y,-z
-x,-y,-z
1/2+x,y,1/2-z
1/2-x,1/2+y,1/2+z
x,1/2-y,z
loop_
_atom_site_type_symbol
_atom_site_label
_atom_site_fract_x
_atom_site_fract_y
_atom_site_fract_z
Si Si1 0.304694 0.433025 0.218139
Si Si2 0.186160 0.567881 0.298445
Si Si3 0.766710 0.568306 0.417982
Si Si4 0.384954 0.432614 0.582554
Si Si5 0.930428 0.062872 0.205618
Si Si6 0.069609 0.432926 0.218943
Si Si7 0.734829 0.064786 0.067829
Si Si8 0.117876 0.936533 0.934868
O O1 0.300495 0.250000 0.225744
O O2 0.245329 0.505117 0.256205
O O3 0.299545 0.478533 0.141250
O O4 0.370013 0.485312 0.251656
O O5 0.187401 0.750000 0.296492
O O6 0.122326 0.508851 0.264739
O O7 0.195283 0.508271 0.373280
O O8 0.778909 0.750000 0.410353
O O9 0.690925 0.548857 0.412806
O O10 0.784799 0.522117 0.492927
O O11 0.397813 0.250000 0.589141
O O12 0.415889 0.522829 0.642670
O O13 0.403435 0.486137 0.508290
O O14 0.930242 0.250000 0.204672
O O15 0.920815 0.011717 0.129184
O O16 0.998154 0.015229 0.233046
O O17 0.073778 0.250000 0.226525
O O18 0.732109 0.250000 0.072930
O O19 0.808677 0.021117 0.075372
O O20 0.116792 0.750000 0.936615
#
# Coordination Sequence:
#
# PCOD9467296 Si02
#       8
#     8   8   8   8   8   8   8   8
#     4  11  20  34  58  81 104 139 180 222 265 315
#     4  12  23  35  53  79 109 139 177 226 267 308
#     4   9  18  32  53  82 112 137 167 214 269 320
#     4   9  17  30  50  75 107 143 174 209 256 312
#     4   9  19  34  53  77 104 138 182 221 260 310
#     4  11  22  35  52  75 105 143 182 221 261 313
#     4   9  17  33  57  80 105 139 173 212 268 322
#     4   8  14  29  52  75 104 141 174 208 257 312
#
# _framework density 17.193659
#
# number of rings (size 3 to 8) (size 9 to 14) (size 15 to 20)
#    0.000    2.250    2.500    3.375    0.000    1.000 
#    0.000    4.375    0.000    0.750    0.000    0.000 
#    0.000    0.000    0.000    0.000    0.000    0.000 
#
# Total GULP energy -357064.149626 kJ/mol
# GULP energy per Si atom -5579.127338 kJ/mol
# Density = 1.715453 g / cm^3
# Si number density = 17.193659 Si / 1000 Ang^3
#
#
#
# Elastic Constant Matrix: (Units=GPa)
#
#
# Indices 1 2 3 4 5 6 
#
# 1 68.0511 24.0113 42.0354 0.0000 0.0000 0.0000
# 2 24.0113 40.1590 32.0053 0.0000 0.0000 0.0000
# 3 42.0354 32.0053 101.0668 0.0000 0.0000 0.0000
# 4 0.0000 0.0000 0.0000 30.3053 0.0000 0.0000
# 5 0.0000 0.0000 0.0000 0.0000 18.9657 0.0000
# 6 0.0000 0.0000 0.0000 0.0000 0.0000 37.9408
#
#
#
# Elastic Compliance Matrix: (Units=1/GPa)
#
#
# Indices 1 2 3 4 5 6 
#
# 1 0.021388 -0.007622 -0.006482 0.000000 0.000000 0.000000
# 2 -0.007622 0.036023 -0.008237 0.000000 0.000000 0.000000
# 3 -0.006482 -0.008237 0.015199 0.000000 0.000000 0.000000
# 4 0.000000 0.000000 0.000000 0.032998 0.000000 0.000000
# 5 0.000000 0.000000 0.000000 0.000000 0.052727 0.000000
# 6 0.000000 0.000000 0.000000 0.000000 0.000000 0.026357
#
#
# Mechanical properties :
#
#
# Convention : Reuss Voigt Hill
#
# Bulk Modulus (GPa) = 35.80734 45.04232 40.42483
# Shear Modulus (GPa) = 20.94818 24.85734 22.90276
#
# Velocity S-wave (km/s) = 3.49430 3.80640 3.65368
# Velocity P-wave (km/s) = 6.09518 6.75071 6.43131
#
# Compressibility (1/GPa) = 0.02792724
#
# Stress axis : x y z
#
# Youngs Moduli (GPa) = 46.75474 27.75975 65.79395
#
# Poissons Ratio (x) = 0.21159 0.42647
# Poissons Ratio (y) = 0.35638 0.54197
# Poissons Ratio (z) = 0.30306 0.22867
#
# Static dielectric constant tensor:
#      x y z
#    x 1.575000 0.000000 0.000000 
#    y 0.000000 1.578090 0.000000 
#    z 0.000000 0.000000 1.591450 
# 
# From -- ./inp_files/27890.got.cif
#   From: 2010.05.17/outbox.cif.g08.bks.cpg/sg62_14_cif.got.tgz:27890.got - 2010.06.03 15:25:27.
