data_PCOD9467461
_publ_section_title
;
Structure prediction by ZEFSAII (Michael W. Deem and Ramdas Pophale) SiO2 
 PCOD9467461
Probable space group: P N M A
;
_chemical_formula_sum "Si O2"
_cell_formula_units_Z 40
_cell_length_a 16.204527
_cell_length_b 9.782800
_cell_length_c 11.489279
_cell_angle_alpha 90.000000
_cell_angle_beta 90.000000
_cell_angle_gamma 90.000000
_cell_volume 1821.345384
_symmetry_space_group_name_H-M "P N M A"
_symmetry_group_IT_number 62
_symmetry_cell_setting 'orthorhombic'
loop_
_space_group_symop_operation_xyz
x,y,z
1/2-x,-y,1/2+z
1/2+x,1/2-y,1/2-z
-x,1/2+y,-z
-x,-y,-z
1/2+x,y,1/2-z
1/2-x,1/2+y,1/2+z
x,1/2-y,z
loop_
_atom_site_type_symbol
_atom_site_label
_atom_site_fract_x
_atom_site_fract_y
_atom_site_fract_z
Si Si1 0.851463 0.250000 0.107163
Si Si2 0.947408 0.750000 0.884155
Si Si3 0.511773 0.750000 0.934204
Si Si4 0.483381 0.250000 0.799376
Si Si5 0.595855 0.463780 0.197569
Si Si6 0.364509 0.750000 0.365244
Si Si7 0.740551 0.485092 0.550600
Si Si8 0.702023 0.750000 0.877985
O O1 0.818503 0.383602 0.039156
O O2 0.808025 0.250000 0.237213
O O3 0.951819 0.250000 0.121917
O O4 0.907115 0.622221 0.816262
O O5 0.915932 0.750000 0.014643
O O6 0.474161 0.883766 0.874898
O O7 0.608857 0.750000 0.923068
O O8 0.490674 0.750000 0.067434
O O9 0.429961 0.383325 0.776037
O O10 0.567358 0.250000 0.730926
O O11 0.676698 0.465347 0.116600
O O12 0.307220 0.882251 0.363462
O O13 0.759994 0.387652 0.438477
#
# Coordination Sequence:
#
# PCOD9467461 Si02
#       8
#     4   4   4   4   8   4   8   4
#     4  12  25  48  75 103 143 202 241 292 376 435
#     4  11  26  50  74  96 146 203 237 287 370 450
#     4  11  22  43  71 103 134 182 230 297 365 414
#     4  12  23  41  70 105 140 174 242 291 348 432
#     4  11  23  43  73 101 135 186 238 298 358 428
#     4  11  28  48  66 102 153 190 232 299 357 445
#     4  11  26  44  69 108 141 186 242 295 374 420
#     4  11  24  48  72 103 154 181 240 320 348 434
#
# _framework density 21.961787000000001
#
# number of rings (size 3 to 8) (size 9 to 14) (size 15 to 20)
#    0.000    0.800    4.000    3.600    5.600    3.200 
#    0.000    2.000    0.000    0.000    0.000    0.000 
#    0.000    0.000    0.000    0.000    0.000    0.000 
#
# Total GULP energy -223669.665485 kJ/mol
# GULP energy per Si atom -5591.741637 kJ/mol
# Density = 2.191180 g / cm^3
# Si number density = 21.961787 Si / 1000 Ang^3
#
#
#
# Elastic Constant Matrix: (Units=GPa)
#
#
# Indices 1 2 3 4 5 6 
#
# 1 122.0874 36.4737 38.8639 0.0000 0.0000 0.0000
# 2 36.4737 161.3442 30.5991 0.0000 0.0000 0.0000
# 3 38.8639 30.5991 92.8122 0.0000 0.0000 0.0000
# 4 0.0000 0.0000 0.0000 0.7807 0.0000 0.0000
# 5 0.0000 0.0000 0.0000 0.0000 5.2666 0.0000
# 6 0.0000 0.0000 0.0000 0.0000 0.0000 -275.8564
#
#
#
# Elastic Compliance Matrix: (Units=1/GPa)
#
#
# Indices 1 2 3 4 5 6 
#
# 1 0.009793 -0.001532 -0.003596 0.000000 0.000000 0.000000
# 2 -0.001532 0.006851 -0.001617 0.000000 0.000000 0.000000
# 3 -0.003596 -0.001617 0.012813 0.000000 0.000000 0.000000
# 4 0.000000 0.000000 0.000000 1.280881 0.000000 0.000000
# 5 0.000000 0.000000 0.000000 0.000000 0.189874 0.000000
# 6 0.000000 0.000000 0.000000 0.000000 0.000000 -0.003625
#
#
# Mechanical properties :
#
#
# Convention : Reuss Voigt Hill
#
# Bulk Modulus (GPa) = 62.62639 65.34636 63.98638
# Shear Modulus (GPa) = 3.29946 -35.94133 -16.32093
#
# Velocity S-wave (km/s) = 1.22704 -4.04980 -2.72904
# Velocity P-wave (km/s) = 5.53041 2.81980 4.38958
#
# Compressibility (1/GPa) = 0.01596771
#
# Stress axis : x y z
#
# Youngs Moduli (GPa) = 102.11241 145.96532 78.04408
#
# Poissons Ratio (x) = 0.22361 0.28062
# Poissons Ratio (y) = 0.15643 0.12621
# Poissons Ratio (z) = 0.36716 0.23606
#
# Static dielectric constant tensor:
#      x y z
#    x 1.802190 0.000000 0.000000 
#    y 0.000000 1.828590 0.000000 
#    z 0.000000 0.000000 1.810940 
# 
# From -- ./inp_files/13946.got.cif
#   From: 2010.05.17/outbox.cif.g08.bks.cpg/sg62_7_cif.got.tgz:13946.got - 2010.06.03 15:25:27.
