data_PCOD9467973
_publ_section_title
;
Structure prediction by ZEFSAII (Michael W. Deem and Ramdas Pophale) SiO2 
 PCOD9467973
Probable space group: P N M A
;
_chemical_formula_sum "Si O2"
_cell_formula_units_Z 48
_cell_length_a 18.000000
_cell_length_b 15.000000
_cell_length_c 9.000000
_cell_angle_alpha 90.000000
_cell_angle_beta 90.000000
_cell_angle_gamma 90.000000
_cell_volume 2430.000000
_symmetry_space_group_name_H-M "P N M A"
_symmetry_group_IT_number 62
_symmetry_cell_setting 'orthorhombic'
loop_
_space_group_symop_operation_xyz
x,y,z
1/2-x,-y,1/2+z
1/2+x,1/2-y,1/2-z
-x,1/2+y,-z
-x,-y,-z
1/2+x,y,1/2-z
1/2-x,1/2+y,1/2+z
x,1/2-y,z
loop_
_atom_site_type_symbol
_atom_site_label
_atom_site_fract_x
_atom_site_fract_y
_atom_site_fract_z
Si Si1 0.067314 0.852916 0.187778
Si Si2 0.445344 0.646796 0.557268
Si Si3 0.446035 0.854948 0.099878
Si Si4 0.175029 0.504651 0.041536
Si Si5 0.335703 0.008411 0.189743
Si Si6 0.962695 0.144482 0.336097
O O1 0.092021 0.750000 0.181637
O O2 0.129767 0.917395 0.126108
O O3 0.031059 0.874158 0.346026
O O4 0.990220 0.860005 0.095697
O O5 0.425487 0.750000 0.583706
O O6 0.375153 0.583391 0.563541
O O7 0.510289 0.620668 0.671202
O O8 0.431319 0.750000 0.126955
O O9 0.382464 0.917790 0.162129
O O10 0.460958 0.871277 0.926669
O O11 0.257298 0.494653 0.106501
O O12 0.177824 0.521753 0.865193
O O13 0.390584 0.086041 0.133497
O O14 0.946125 0.250000 0.347401
#
# Coordination Sequence:
#
# PCOD9467973 Si02
#       6
#     8   8   8   8   8   8
#     4  10  20  40  67  87 110 154 205 249 291 343
#     4  10  20  40  67  87 110 154 205 249 291 343
#     4  10  22  41  66  91 116 153 203 252 294 345
#     4  12  26  39  58  89 125 160 195 241 301 360
#     4  12  26  40  58  89 127 161 193 241 299 358
#     4  10  22  41  66  91 116 153 203 252 294 345
#
# _framework density 19.753086
#
# number of rings (size 3 to 8) (size 9 to 14) (size 15 to 20)
#    0.000    1.333    3.333    2.000    4.667    1.333 
#    0.000    0.000    0.000    0.000    0.000    0.000 
#    0.000    0.000    0.000    0.000    0.000    0.000 
#
# Total GULP energy -267755.878201 kJ/mol
# GULP energy per Si atom -5578.247463 kJ/mol
# Density = 1.970813 g / cm^3
# Si number density = 19.753086 Si / 1000 Ang^3
#
#
#
# Elastic Constant Matrix: (Units=GPa)
#
#
# Indices 1 2 3 4 5 6 
#
# 1 95.4058 24.4335 25.7367 0.0000 0.0000 0.0000
# 2 24.4335 13.6820 33.4209 0.0000 0.0000 0.0000
# 3 25.7367 33.4209 1.3130 0.0000 0.0000 0.0000
# 4 0.0000 0.0000 0.0000 6.0277 0.0000 0.0000
# 5 0.0000 0.0000 0.0000 0.0000 30.4341 0.0000
# 6 0.0000 0.0000 0.0000 0.0000 0.0000 -0.9983
#
#
#
# Elastic Compliance Matrix: (Units=1/GPa)
#
#
# Indices 1 2 3 4 5 6 
#
# 1 0.015124 -0.011396 -0.006392 0.000000 0.000000 0.000000
# 2 -0.011396 0.007392 0.035227 0.000000 0.000000 0.000000
# 3 -0.006392 0.035227 -0.009748 0.000000 0.000000 0.000000
# 4 0.000000 0.000000 0.000000 0.165901 0.000000 0.000000
# 5 0.000000 0.000000 0.000000 0.000000 0.032858 0.000000
# 6 0.000000 0.000000 0.000000 0.000000 0.000000 -1.001670
#
#
# Mechanical properties :
#
#
# Convention : Reuss Voigt Hill
#
# Bulk Modulus (GPa) = 20.98825 30.84256 25.91540
# Shear Modulus (GPa) = -6.17940 8.88000 1.35030
#
# Velocity S-wave (km/s) = -1.77062 2.12256 0.82769
# Velocity P-wave (km/s) = 2.54327 4.65349 3.74988
#
# Compressibility (1/GPa) = 0.04764571
#
# Stress axis : x y z
#
# Youngs Moduli (GPa) = 66.11882 135.28696 -102.58275
#
# Poissons Ratio (x) = 1.54170 -0.65570
# Poissons Ratio (y) = 0.75348 3.61364
# Poissons Ratio (z) = 0.42262 -4.76570
#
# Static dielectric constant tensor:
#      x y z
#    x 1.626740 0.000000 0.000000 
#    y 0.000000 1.706520 0.000000 
#    z 0.000000 0.000000 1.766270 
# 
# From -- ./inp_files/6462.got.cif
#   From: 2010.05.17/outbox.ucp.g08.bks.cvg/sg62_4_cif.got.tgz:6462.got - 2010.06.11 16:29:25.
