data_PCOD9467762
_publ_section_title
;
Structure prediction by ZEFSAII (Michael W. Deem and Ramdas Pophale) SiO2 
 PCOD9467762
Probable space group: P N M A
;
_chemical_formula_sum "Si O2"
_cell_formula_units_Z 64
_cell_length_a 21.000000
_cell_length_b 9.000000
_cell_length_c 18.000000
_cell_angle_alpha 90.000000
_cell_angle_beta 90.000000
_cell_angle_gamma 90.000000
_cell_volume 3402.000000
_symmetry_space_group_name_H-M "P N M A"
_symmetry_group_IT_number 62
_symmetry_cell_setting 'orthorhombic'
loop_
_space_group_symop_operation_xyz
x,y,z
1/2-x,-y,1/2+z
1/2+x,1/2-y,1/2-z
-x,1/2+y,-z
-x,-y,-z
1/2+x,y,1/2-z
1/2-x,1/2+y,1/2+z
x,1/2-y,z
loop_
_atom_site_type_symbol
_atom_site_label
_atom_site_fract_x
_atom_site_fract_y
_atom_site_fract_z
Si Si1 0.575409 0.930016 0.169573
Si Si2 0.038569 0.570377 0.168738
Si Si3 0.105474 0.427829 0.862991
Si Si4 0.246230 0.072865 0.579085
Si Si5 0.613304 0.571163 0.474744
Si Si6 0.837975 0.929364 0.287219
Si Si7 0.946570 0.427852 0.389502
Si Si8 0.358772 0.072012 0.975206
O O1 0.574151 0.750000 0.170223
O O2 0.574650 0.979977 0.256023
O O3 0.510848 0.990191 0.132757
O O4 0.629655 0.975194 0.110087
O O5 0.045138 0.750000 0.167576
O O6 0.063812 0.517827 0.088495
O O7 0.963613 0.537010 0.172653
O O8 0.108856 0.250000 0.873814
O O9 0.157174 0.469921 0.799752
O O10 0.109053 0.502536 0.943405
O O11 0.239141 0.250000 0.571764
O O12 0.318185 0.034875 0.560310
O O13 0.224363 0.036486 0.663370
O O14 0.200053 0.998771 0.518744
O O15 0.607286 0.750000 0.481801
O O16 0.848680 0.750000 0.290661
O O17 0.893228 0.012509 0.332539
O O18 0.046371 0.750000 0.616532
O O19 0.919719 0.462479 0.472005
O O20 0.351068 0.250000 0.976012
#
# Coordination Sequence:
#
# PCOD9467762 Si02
#       8
#     8   8   8   8   8   8   8   8
#     4  10  18  32  51  74 106 140 174 214 259 308
#     4   9  18  34  55  78 104 134 173 218 260 309
#     4  10  19  34  57  82 104 132 175 221 262 308
#     4   9  19  36  55  74 103 140 176 213 259 311
#     4  10  21  37  55  77 105 137 173 217 267 314
#     4   9  17  33  55  77 102 138 179 215 253 308
#     4  10  18  28  46  77 111 138 169 212 263 314
#     4   9  19  32  50  77 105 138 177 214 257 307
#
# _framework density 18.812463000000001
#
# number of rings (size 3 to 8) (size 9 to 14) (size 15 to 20)
#    0.000    2.500    1.250    1.125    0.000    2.000 
#    2.250    0.625    0.000    0.000    0.000    0.000 
#    0.000    0.000    0.000    0.000    0.000    0.000 
#
# Total GULP energy -356622.234834 kJ/mol
# GULP energy per Si atom -5572.222419 kJ/mol
# Density = 1.876965 g / cm^3
# Si number density = 18.812463 Si / 1000 Ang^3
#
#
#
# Elastic Constant Matrix: (Units=GPa)
#
#
# Indices 1 2 3 4 5 6 
#
# 1 27.5334 10.8684 26.2004 0.0000 0.0000 0.0000
# 2 10.8684 -3.4049 23.3671 0.0000 0.0000 0.0000
# 3 26.2004 23.3671 162.7242 0.0000 0.0000 0.0000
# 4 0.0000 0.0000 0.0000 28.4016 0.0000 0.0000
# 5 0.0000 0.0000 0.0000 0.0000 15.5956 0.0000
# 6 0.0000 0.0000 0.0000 0.0000 0.0000 14.5406
#
#
#
# Elastic Compliance Matrix: (Units=1/GPa)
#
#
# Indices 1 2 3 4 5 6 
#
# 1 0.032484 0.034145 -0.010134 0.000000 0.000000 0.000000
# 2 0.034145 -0.112029 0.010590 0.000000 0.000000 0.000000
# 3 -0.010134 0.010590 0.006256 0.000000 0.000000 0.000000
# 4 0.000000 0.000000 0.000000 0.035209 0.000000 0.000000
# 5 0.000000 0.000000 0.000000 0.000000 0.064121 0.000000
# 6 0.000000 0.000000 0.000000 0.000000 0.000000 0.068773
#
#
# Mechanical properties :
#
#
# Convention : Reuss Voigt Hill
#
# Bulk Modulus (GPa) = -244.71771 34.19163 -105.26304
# Shear Modulus (GPa) = 206.18513 20.13533 113.16023
#
# Velocity S-wave (km/s) = 10.48037 3.27512 7.76417
# Velocity P-wave (km/s) = 4.01071 5.70231 4.92961
#
# Compressibility (1/GPa) = -0.00408634
#
# Stress axis : x y z
#
# Youngs Moduli (GPa) = 30.78425 -8.92625 159.83824
#
# Poissons Ratio (x) = 0.30479 1.61973
# Poissons Ratio (y) = -1.05113 -1.69262
# Poissons Ratio (z) = 0.31195 0.09453
#
# Static dielectric constant tensor:
#      x y z
#    x 1.668370 0.000000 0.000000 
#    y 0.000000 1.631850 0.000000 
#    z 0.000000 0.000000 1.671340 
# 
# From -- ./inp_files/24843.got.cif
#   From: 2010.05.17/outbox.ucp.g08.bks.cvg/sg62_13_cif.got.tgz:24843.got - 2010.06.11 16:29:25.
