data_PCOD9467225
_publ_section_title
;
Structure prediction by ZEFSAII (Michael W. Deem and Ramdas Pophale) SiO2 
 PCOD9467225
Probable space group: P N M A
;
_chemical_formula_sum "Si O2"
_cell_formula_units_Z 36
_cell_length_a 19.390191
_cell_length_b 8.914994
_cell_length_c 9.110606
_cell_angle_alpha 90.000000
_cell_angle_beta 90.000000
_cell_angle_gamma 90.000000
_cell_volume 1574.890661
_symmetry_space_group_name_H-M "P N M A"
_symmetry_group_IT_number 62
_symmetry_cell_setting 'orthorhombic'
loop_
_space_group_symop_operation_xyz
x,y,z
1/2-x,-y,1/2+z
1/2+x,1/2-y,1/2-z
-x,1/2+y,-z
-x,-y,-z
1/2+x,y,1/2-z
1/2-x,1/2+y,1/2+z
x,1/2-y,z
loop_
_atom_site_type_symbol
_atom_site_label
_atom_site_fract_x
_atom_site_fract_y
_atom_site_fract_z
Si Si1 0.393466 0.750000 0.625561
Si Si2 0.046004 0.750000 0.812148
Si Si3 0.450877 0.528189 0.138302
Si Si4 0.677277 0.926000 0.297241
Si Si5 0.995831 0.750000 0.127622
Si Si6 0.308377 0.911565 0.993942
O O1 0.463745 0.750000 0.723019
O O2 0.361575 0.582206 0.651342
O O3 0.422157 0.750000 0.457765
O O4 0.077005 0.609898 0.732098
O O5 0.045995 0.750000 0.987627
O O6 0.496129 0.613013 0.260886
O O7 0.381846 0.597114 0.073341
O O8 0.500000 0.500000 0.000000
O O9 0.651344 0.750000 0.308872
O O10 0.747661 0.929142 0.389724
O O11 0.690015 0.958413 0.125896
O O12 0.297070 0.750000 0.916326
#
# Coordination Sequence:
#
# PCOD9467225 Si02
#       6
#     4   4   8   8   4   8
#     4  10  24  49  74 104 155 190 248 320 379 436
#     4  10  25  44  69 108 141 199 252 301 379 462
#     4  12  24  45  73 104 148 197 251 307 389 459
#     4  11  26  45  77 109 145 197 258 312 386 460
#     4  10  25  47  73  96 146 197 242 305 386 440
#     4  11  26  47  72 108 148 197 250 318 390 448
#
# _framework density 22.858730999999999
#
# number of rings (size 3 to 8) (size 9 to 14) (size 15 to 20)
#    0.667    0.444    2.222    2.667    6.222    0.000 
#    8.000    0.000    0.000    0.000    0.000    0.000 
#    0.000    0.000    0.000    0.000    0.000    0.000 
#
# Total GULP energy -200585.202956 kJ/mol
# GULP energy per Si atom -5571.811193 kJ/mol
# Density = 2.280670 g / cm^3
# Si number density = 22.858731 Si / 1000 Ang^3
#
#
#
# Elastic Constant Matrix: (Units=GPa)
#
#
# Indices 1 2 3 4 5 6 
#
# 1 63.7162 38.4796 21.6919 0.0000 0.0000 0.0000
# 2 38.4796 162.6704 75.8497 0.0000 0.0000 0.0000
# 3 21.6919 75.8497 167.6842 0.0000 0.0000 0.0000
# 4 0.0000 0.0000 0.0000 39.0154 0.0000 0.0000
# 5 0.0000 0.0000 0.0000 0.0000 28.3149 0.0000
# 6 0.0000 0.0000 0.0000 0.0000 0.0000 25.2761
#
#
#
# Elastic Compliance Matrix: (Units=1/GPa)
#
#
# Indices 1 2 3 4 5 6 
#
# 1 0.018346 -0.004097 -0.000520 0.000000 0.000000 0.000000
# 2 -0.004097 0.008706 -0.003408 0.000000 0.000000 0.000000
# 3 -0.000520 -0.003408 0.007572 0.000000 0.000000 0.000000
# 4 0.000000 0.000000 0.000000 0.025631 0.000000 0.000000
# 5 0.000000 0.000000 0.000000 0.000000 0.035317 0.000000
# 6 0.000000 0.000000 0.000000 0.000000 0.000000 0.039563
#
#
# Mechanical properties :
#
#
# Convention : Reuss Voigt Hill
#
# Bulk Modulus (GPa) = 53.83903 74.01258 63.92581
# Shear Modulus (GPa) = 31.77094 35.72458 33.74776
#
# Velocity S-wave (km/s) = 3.73216 3.95757 3.84651
# Velocity P-wave (km/s) = 6.49431 7.30285 6.91042
#
# Compressibility (1/GPa) = 0.01857388
#
# Stress axis : x y z
#
# Youngs Moduli (GPa) = 54.50758 114.86833 132.05975
#
# Poissons Ratio (x) = 0.47065 0.06866
# Poissons Ratio (y) = 0.22334 0.45004
# Poissons Ratio (z) = 0.02834 0.39145
#
# Static dielectric constant tensor:
#      x y z
#    x 1.854600 0.000000 0.000000 
#    y 0.000000 1.950060 0.000000 
#    z 0.000000 0.000000 1.797400 
# 
# From -- ./inp_files/8349.got.cif
#   From: 2010.05.17/outbox.cif.g08.bks.cpg/sg62_5_cif.got.tgz:8349.got - 2010.06.03 15:25:27.
