data_PCOD9467771
_publ_section_title
;
Structure prediction by ZEFSAII (Michael W. Deem and Ramdas Pophale) SiO2 
 PCOD9467771
Probable space group: P N M A
;
_chemical_formula_sum "Si O2"
_cell_formula_units_Z 48
_cell_length_a 15.000000
_cell_length_b 18.000000
_cell_length_c 9.000000
_cell_angle_alpha 90.000000
_cell_angle_beta 90.000000
_cell_angle_gamma 90.000000
_cell_volume 2430.000000
_symmetry_space_group_name_H-M "P N M A"
_symmetry_group_IT_number 62
_symmetry_cell_setting 'orthorhombic'
loop_
_space_group_symop_operation_xyz
x,y,z
1/2-x,-y,1/2+z
1/2+x,1/2-y,1/2-z
-x,1/2+y,-z
-x,-y,-z
1/2+x,y,1/2-z
1/2-x,1/2+y,1/2+z
x,1/2-y,z
loop_
_atom_site_type_symbol
_atom_site_label
_atom_site_fract_x
_atom_site_fract_y
_atom_site_fract_z
Si Si1 0.369413 0.665466 0.950755
Si Si2 0.430297 0.511018 0.867452
Si Si3 0.170378 0.838482 0.815139
Si Si4 0.719350 0.161505 0.745306
Si Si5 0.735409 0.932699 0.971340
Si Si6 0.131585 0.931205 0.098129
O O1 0.405662 0.750000 0.939906
O O2 0.419470 0.600641 0.861001
O O3 0.269390 0.666603 0.885663
O O4 0.354559 0.645407 0.126036
O O5 0.442897 0.466252 0.711142
O O6 0.500000 0.500000 0.000000
O O7 0.339049 0.476875 0.934643
O O8 0.141072 0.750000 0.798634
O O9 0.187995 0.884304 0.660525
O O10 0.116544 0.890706 0.936475
O O11 0.721472 0.250000 0.727085
O O12 0.712266 0.120611 0.587170
O O13 0.812724 0.131660 0.812841
O O14 0.802417 0.997431 0.917942
#
# Coordination Sequence:
#
# PCOD9467771 Si02
#       6
#     8   8   8   8   8   8
#     4   9  17  33  53  77 108 141 178 221 276 333
#     4  11  22  36  54  84 112 147 185 228 283 326
#     4  10  18  31  56  83 107 142 185 235 280 318
#     4   9  17  29  51  81 105 134 180 229 266 310
#     4  11  18  32  55  84 110 135 186 232 269 325
#     4  10  18  33  53  78 107 141 183 227 268 327
#
# _framework density 19.753086
#
# number of rings (size 3 to 8) (size 9 to 14) (size 15 to 20)
#    0.000    2.000    5.000    3.000    0.000    0.000 
#    0.000    5.833    0.000    0.000    0.000    0.000 
#    0.000    0.000    0.000    0.000    0.000    0.000 
#
# Total GULP energy -267362.603555 kJ/mol
# GULP energy per Si atom -5570.054241 kJ/mol
# Density = 1.970813 g / cm^3
# Si number density = 19.753086 Si / 1000 Ang^3
#
#
#
# Elastic Constant Matrix: (Units=GPa)
#
#
# Indices 1 2 3 4 5 6 
#
# 1 -5.6860 -5.9690 -19.0947 0.0000 0.0000 0.0000
# 2 -5.9690 140.9152 35.1391 0.0000 0.0000 0.0000
# 3 -19.0947 35.1391 99.2863 0.0000 0.0000 0.0000
# 4 0.0000 0.0000 0.0000 45.6400 0.0000 0.0000
# 5 0.0000 0.0000 0.0000 0.0000 -8.7831 0.0000
# 6 0.0000 0.0000 0.0000 0.0000 0.0000 11.3320
#
#
#
# Elastic Compliance Matrix: (Units=1/GPa)
#
#
# Indices 1 2 3 4 5 6 
#
# 1 -0.106802 0.000656 -0.020772 0.000000 0.000000 0.000000
# 2 0.000656 0.007779 -0.002627 0.000000 0.000000 0.000000
# 3 -0.020772 -0.002627 0.007007 0.000000 0.000000 0.000000
# 4 0.000000 0.000000 0.000000 0.021911 0.000000 0.000000
# 5 0.000000 0.000000 0.000000 0.000000 -0.113854 0.000000
# 6 0.000000 0.000000 0.000000 0.000000 0.000000 0.088245
#
#
# Mechanical properties :
#
#
# Convention : Reuss Voigt Hill
#
# Bulk Modulus (GPa) = -7.27255 28.29627 10.51186
# Shear Modulus (GPa) = -52.04959 24.60045 -13.72457
#
# Velocity S-wave (km/s) = -5.13880 3.53285 -2.63878
# Velocity P-wave (km/s) = 6.23694 5.56753 1.98772
#
# Compressibility (1/GPa) = -0.13750337
#
# Stress axis : x y z
#
# Youngs Moduli (GPa) = -9.36308 128.54540 142.71932
#
# Poissons Ratio (x) = -0.08430 2.96460
# Poissons Ratio (y) = 0.00614 0.37494
# Poissons Ratio (z) = -0.19449 0.33770
#
# Static dielectric constant tensor:
#      x y z
#    x 1.707690 0.000000 0.000000 
#    y 0.000000 1.714870 0.000000 
#    z 0.000000 0.000000 1.766120 
# 
# From -- ./inp_files/6478.got.cif
#   From: 2010.05.17/outbox.ucp.g08.bks.cvg/sg62_4_cif.got.tgz:6478.got - 2010.06.11 16:29:25.
