data_PCOD9467620
_publ_section_title
;
Structure prediction by ZEFSAII (Michael W. Deem and Ramdas Pophale) SiO2 
 PCOD9467620
Probable space group: P N M A
;
_chemical_formula_sum "Si O2"
_cell_formula_units_Z 40
_cell_length_a 7.939183
_cell_length_b 19.912304
_cell_length_c 10.071019
_cell_angle_alpha 90.000000
_cell_angle_beta 90.000000
_cell_angle_gamma 90.000000
_cell_volume 1592.101465
_symmetry_space_group_name_H-M "P N M A"
_symmetry_group_IT_number 62
_symmetry_cell_setting 'orthorhombic'
loop_
_space_group_symop_operation_xyz
x,y,z
1/2-x,-y,1/2+z
1/2+x,1/2-y,1/2-z
-x,1/2+y,-z
-x,-y,-z
1/2+x,y,1/2-z
1/2-x,1/2+y,1/2+z
x,1/2-y,z
loop_
_atom_site_type_symbol
_atom_site_label
_atom_site_fract_x
_atom_site_fract_y
_atom_site_fract_z
Si Si1 0.755945 0.825653 0.151423
Si Si2 0.305752 0.957581 0.192326
Si Si3 0.904211 0.177051 0.002425
Si Si4 0.476848 0.942969 0.682476
Si Si5 0.465682 0.623302 0.975510
O O1 0.717818 0.750000 0.203034
O O2 0.729332 0.888556 0.250353
O O3 0.635745 0.839503 0.023705
O O4 0.954188 0.825151 0.114031
O O5 0.435509 0.936707 0.079593
O O6 0.188269 0.017063 0.139780
O O7 0.394485 0.995424 0.311961
O O8 0.934727 0.250000 0.066343
O O9 0.959977 0.113885 0.087408
O O10 0.700998 0.168899 0.997104
O O11 0.462700 0.907103 0.827371
#
# Coordination Sequence:
#
# PCOD9467620 Si02
#       5
#     8   8   8   8   8
#     4  11  27  48  73 106 146 191 245 303 363 438
#     4  12  25  45  74 105 144 190 239 300 363 432
#     4  11  27  48  73 106 145 191 244 303 367 435
#     4  12  25  45  74 107 143 189 241 302 358 437
#     4  12  26  48  75 106 148 192 244 295 374 431
#
# _framework density 25.124029
#
# number of rings (size 3 to 8) (size 9 to 14) (size 15 to 20)
#    0.000    0.400    4.000    3.600    2.800    4.800 
#    0.000    0.000    0.000    0.000    0.000    0.000 
#    0.000    0.000    0.000    0.000    0.000    0.000 
#
# Total GULP energy -223558.141631 kJ/mol
# GULP energy per Si atom -5588.953541 kJ/mol
# Density = 2.506685 g / cm^3
# Si number density = 25.124029 Si / 1000 Ang^3
#
#
#
# Elastic Constant Matrix: (Units=GPa)
#
#
# Indices 1 2 3 4 5 6 
#
# 1 131.1782 30.0524 1.7009 0.0000 0.0000 0.0000
# 2 30.0524 147.6208 8.3817 0.0000 0.0000 0.0000
# 3 1.7009 8.3817 42.5871 0.0000 0.0000 0.0000
# 4 0.0000 0.0000 0.0000 53.9266 0.0000 0.0000
# 5 0.0000 0.0000 0.0000 0.0000 12.5223 0.0000
# 6 0.0000 0.0000 0.0000 0.0000 0.0000 24.9814
#
#
#
# Elastic Compliance Matrix: (Units=1/GPa)
#
#
# Indices 1 2 3 4 5 6 
#
# 1 0.007996 -0.001628 0.000001 0.000000 0.000000 0.000000
# 2 -0.001628 0.007182 -0.001349 0.000000 0.000000 0.000000
# 3 0.000001 -0.001349 0.023747 0.000000 0.000000 0.000000
# 4 0.000000 0.000000 0.000000 0.018544 0.000000 0.000000
# 5 0.000000 0.000000 0.000000 0.000000 0.079858 0.000000
# 6 0.000000 0.000000 0.000000 0.000000 0.000000 0.040030
#
#
# Mechanical properties :
#
#
# Convention : Reuss Voigt Hill
#
# Bulk Modulus (GPa) = 30.32682 44.62846 37.47764
# Shear Modulus (GPa) = 25.73364 37.03614 31.38489
#
# Velocity S-wave (km/s) = 3.20388 3.84361 3.53823
# Velocity P-wave (km/s) = 5.07775 6.12369 5.62508
#
# Compressibility (1/GPa) = 0.03297411
#
# Stress axis : x y z
#
# Youngs Moduli (GPa) = 125.06017 139.23537 42.11122
#
# Poissons Ratio (x) = 0.22666 -0.00004
# Poissons Ratio (y) = 0.20359 0.05679
# Poissons Ratio (z) = -0.00013 0.18776
#
# Static dielectric constant tensor:
#      x y z
#    x 2.157080 0.000000 0.000000 
#    y 0.000000 1.907850 0.000000 
#    z 0.000000 0.000000 2.029790 
# 
# From -- ./inp_files/11054.got.cif
#   From: 2010.05.17/outbox.cif.g08.bks.cpg/sg62_6_cif.got.tgz:11054.got - 2010.06.03 15:25:27.
