data_PCOD9467399
_publ_section_title
;
Structure prediction by ZEFSAII (Michael W. Deem and Ramdas Pophale) SiO2 
 PCOD9467399
Probable space group: P N M A
;
_chemical_formula_sum "Si O2"
_cell_formula_units_Z 56
_cell_length_a 20.759961
_cell_length_b 8.202926
_cell_length_c 16.340312
_cell_angle_alpha 90.000000
_cell_angle_beta 90.000000
_cell_angle_gamma 90.000000
_cell_volume 2782.631337
_symmetry_space_group_name_H-M "P N M A"
_symmetry_group_IT_number 62
_symmetry_cell_setting 'orthorhombic'
loop_
_space_group_symop_operation_xyz
x,y,z
1/2-x,-y,1/2+z
1/2+x,1/2-y,1/2-z
-x,1/2+y,-z
-x,-y,-z
1/2+x,y,1/2-z
1/2-x,1/2+y,1/2+z
x,1/2-y,z
loop_
_atom_site_type_symbol
_atom_site_label
_atom_site_fract_x
_atom_site_fract_y
_atom_site_fract_z
Si Si1 0.821807 0.051398 0.004222
Si Si2 0.535188 0.443536 0.753377
Si Si3 0.188617 0.552868 0.184966
Si Si4 0.833576 0.551106 0.331798
Si Si5 0.905652 0.943833 0.671370
Si Si6 0.677713 0.051003 0.020100
Si Si7 0.544949 0.944377 0.573790
O O1 0.821780 0.250000 0.005558
O O2 0.828273 0.004797 0.908514
O O3 0.751615 0.998516 0.035307
O O4 0.882583 0.993112 0.056027
O O5 0.539679 0.250000 0.753146
O O6 0.604716 0.509446 0.782134
O O7 0.476960 0.491579 0.812332
O O8 0.520503 0.498937 0.661519
O O9 0.186265 0.750000 0.188038
O O10 0.262886 0.500395 0.199474
O O11 0.139690 0.486286 0.251620
O O12 0.833385 0.750000 0.330005
O O13 0.839143 0.503557 0.427271
O O14 0.909775 0.750000 0.664846
O O15 0.870943 0.007962 0.589403
O O16 0.677428 0.250000 0.021804
O O17 0.546817 0.750000 0.573779
O O18 0.500000 0.000000 0.500000
#
# Coordination Sequence:
#
# PCOD9467399 Si02
#       7
#     8   8   8   8   8   8   8
#     4   8  16  32  55  79 103 139 179 221 275 335
#     4  11  23  38  55  79 113 153 192 232 279 335
#     4   9  17  34  59  82 108 142 183 227 278 339
#     4   8  17  35  58  81 107 146 191 232 279 339
#     4  11  22  34  54  83 112 143 184 234 287 341
#     4   8  16  33  55  80 107 138 182 231 283 337
#     4  11  22  36  57  84 116 151 189 231 282 340
#
# _framework density 20.124836999999999
#
# number of rings (size 3 to 8) (size 9 to 14) (size 15 to 20)
#    0.000    2.571    0.000    3.857    2.000    1.714 
#    0.000    1.429    0.000    9.429    0.000    0.000 
#    0.000    0.000    0.000    0.000    0.000    0.000 
#
# Total GULP energy -312600.775748 kJ/mol
# GULP energy per Si atom -5582.156710 kJ/mol
# Density = 2.007903 g / cm^3
# Si number density = 20.124837 Si / 1000 Ang^3
#
#
#
# Elastic Constant Matrix: (Units=GPa)
#
#
# Indices 1 2 3 4 5 6 
#
# 1 69.6625 7.3316 7.4044 0.0000 0.0000 0.0000
# 2 7.3316 20.4358 0.6081 0.0000 0.0000 0.0000
# 3 7.4044 0.6081 20.9268 0.0000 0.0000 0.0000
# 4 0.0000 0.0000 0.0000 14.7729 0.0000 0.0000
# 5 0.0000 0.0000 0.0000 0.0000 36.1855 0.0000
# 6 0.0000 0.0000 0.0000 0.0000 0.0000 16.5491
#
#
#
# Elastic Compliance Matrix: (Units=1/GPa)
#
#
# Indices 1 2 3 4 5 6 
#
# 1 0.015489 -0.005398 -0.005323 0.000000 0.000000 0.000000
# 2 -0.005398 0.050858 0.000432 0.000000 0.000000 0.000000
# 3 -0.005323 0.000432 0.049657 0.000000 0.000000 0.000000
# 4 0.000000 0.000000 0.000000 0.067692 0.000000 0.000000
# 5 0.000000 0.000000 0.000000 0.000000 0.027635 0.000000
# 6 0.000000 0.000000 0.000000 0.000000 0.000000 0.060426
#
#
# Mechanical properties :
#
#
# Convention : Reuss Voigt Hill
#
# Bulk Modulus (GPa) = 10.47958 15.74594 13.11276
# Shear Modulus (GPa) = 15.42526 19.88023 17.65274
#
# Velocity S-wave (km/s) = 2.77154 3.14641 2.96491
# Velocity P-wave (km/s) = 3.93198 4.58705 4.27209
#
# Compressibility (1/GPa) = 0.09542368
#
# Stress axis : x y z
#
# Youngs Moduli (GPa) = 64.56224 19.66268 20.13834
#
# Poissons Ratio (x) = 0.10615 0.10721
# Poissons Ratio (y) = 0.34854 -0.00870
# Poissons Ratio (z) = 0.34369 -0.00850
#
# Static dielectric constant tensor:
#      x y z
#    x 1.721820 0.000000 0.000000 
#    y 0.000000 1.702180 0.000000 
#    z 0.000000 0.000000 1.682290 
# 
# From -- ./inp_files/20233.got.cif
#   From: 2010.05.17/outbox.cif.g08.bks.cpg/sg62_11_cif.got.tgz:20233.got - 2010.06.03 15:25:27.
