data_PCOD9467608
_publ_section_title
;
Structure prediction by ZEFSAII (Michael W. Deem and Ramdas Pophale) SiO2 
 PCOD9467608
Probable space group: P N M A
;
_chemical_formula_sum "Si O2"
_cell_formula_units_Z 36
_cell_length_a 18.343214
_cell_length_b 9.981497
_cell_length_c 9.311635
_cell_angle_alpha 90.000000
_cell_angle_beta 90.000000
_cell_angle_gamma 90.000000
_cell_volume 1704.892724
_symmetry_space_group_name_H-M "P N M A"
_symmetry_group_IT_number 62
_symmetry_cell_setting 'orthorhombic'
loop_
_space_group_symop_operation_xyz
x,y,z
1/2-x,-y,1/2+z
1/2+x,1/2-y,1/2-z
-x,1/2+y,-z
-x,-y,-z
1/2+x,y,1/2-z
1/2-x,1/2+y,1/2+z
x,1/2-y,z
loop_
_atom_site_type_symbol
_atom_site_label
_atom_site_fract_x
_atom_site_fract_y
_atom_site_fract_z
Si Si1 0.901323 0.750000 0.190800
Si Si2 0.180514 0.454225 0.331540
Si Si3 0.572114 0.750000 0.756699
Si Si4 0.203601 0.750000 0.921344
Si Si5 0.074124 0.021682 0.588259
Si Si6 0.407941 0.750000 0.647725
Si Si7 0.272182 0.250000 0.759221
O O1 0.931748 0.623345 0.279275
O O2 0.813280 0.750000 0.201707
O O3 0.918973 0.750000 0.022670
O O4 0.257145 0.378873 0.351149
O O5 0.134080 0.427720 0.475608
O O6 0.137365 0.379740 0.203070
O O7 0.191553 0.612216 0.313364
O O8 0.618641 0.750000 0.611789
O O9 0.594105 0.620929 0.846953
O O10 0.486265 0.750000 0.725162
O O11 0.219634 0.750000 0.088419
O O12 0.000000 0.000000 0.500000
#
# Coordination Sequence:
#
# PCOD9467608 Si02
#       7
#     4   8   4   4   8   4   4
#     4  12  27  45  74 104 145 191 234 295 365 427
#     4  11  25  48  73 105 144 192 240 298 354 436
#     4  12  26  44  75 109 143 187 243 307 361 421
#     4  11  26  45  72 107 149 184 240 300 369 423
#     4  12  24  47  76 102 140 191 240 289 359 437
#     4  11  27  48  71 107 156 183 238 308 360 422
#     4  12  26  44  76 105 143 189 247 290 361 429
#
# _framework density 21.115696
#
# number of rings (size 3 to 8) (size 9 to 14) (size 15 to 20)
#    0.000    0.444    4.444    3.333    6.222    4.444 
#    0.000    0.000    0.000    0.000    0.000    0.000 
#    0.000    0.000    0.000    0.000    0.000    0.000 
#
# Total GULP energy -201485.185401 kJ/mol
# GULP energy per Si atom -5596.810706 kJ/mol
# Density = 2.106764 g / cm^3
# Si number density = 21.115696 Si / 1000 Ang^3
#
#
#
# Elastic Constant Matrix: (Units=GPa)
#
#
# Indices 1 2 3 4 5 6 
#
# 1 42.7302 -18.6447 -10.3868 0.0000 0.0000 0.0000
# 2 -18.6447 144.3328 29.9156 0.0000 0.0000 0.0000
# 3 -10.3868 29.9156 113.5733 0.0000 0.0000 0.0000
# 4 0.0000 0.0000 0.0000 37.9879 0.0000 0.0000
# 5 0.0000 0.0000 0.0000 0.0000 29.3993 0.0000
# 6 0.0000 0.0000 0.0000 0.0000 0.0000 20.4889
#
#
#
# Elastic Compliance Matrix: (Units=1/GPa)
#
#
# Indices 1 2 3 4 5 6 
#
# 1 0.025047 0.002920 0.001521 0.000000 0.000000 0.000000
# 2 0.002920 0.007669 -0.001753 0.000000 0.000000 0.000000
# 3 0.001521 -0.001753 0.009406 0.000000 0.000000 0.000000
# 4 0.000000 0.000000 0.000000 0.026324 0.000000 0.000000
# 5 0.000000 0.000000 0.000000 0.000000 0.034014 0.000000
# 6 0.000000 0.000000 0.000000 0.000000 0.000000 0.048807
#
#
# Mechanical properties :
#
#
# Convention : Reuss Voigt Hill
#
# Bulk Modulus (GPa) = 21.05322 33.60049 27.32686
# Shear Modulus (GPa) = 30.91712 37.55869 34.23791
#
# Velocity S-wave (km/s) = 3.83061 4.22205 4.03108
# Velocity P-wave (km/s) = 5.43662 6.30196 5.88522
#
# Compressibility (1/GPa) = 0.04749867
#
# Stress axis : x y z
#
# Youngs Moduli (GPa) = 39.92549 130.39531 106.31771
#
# Poissons Ratio (x) = -0.38077 -0.16176
# Poissons Ratio (y) = -0.11659 0.18637
# Poissons Ratio (z) = -0.06075 0.22858
#
# Static dielectric constant tensor:
#      x y z
#    x 1.746010 0.000000 0.000000 
#    y 0.000000 1.807480 0.000000 
#    z 0.000000 0.000000 1.741910 
# 
# From -- ./inp_files/8362.got.cif
#   From: 2010.05.17/outbox.cif.g08.bks.cpg/sg62_5_cif.got.tgz:8362.got - 2010.06.03 15:25:27.
