data_PCOD9467397
_publ_section_title
;
Structure prediction by ZEFSAII (Michael W. Deem and Ramdas Pophale) SiO2 
 PCOD9467397
Probable space group: P N M A
;
_chemical_formula_sum "Si O2"
_cell_formula_units_Z 48
_cell_length_a 23.671585
_cell_length_b 8.250177
_cell_length_c 12.376264
_cell_angle_alpha 90.000000
_cell_angle_beta 90.000000
_cell_angle_gamma 90.000000
_cell_volume 2417.019583
_symmetry_space_group_name_H-M "P N M A"
_symmetry_group_IT_number 62
_symmetry_cell_setting 'orthorhombic'
loop_
_space_group_symop_operation_xyz
x,y,z
1/2-x,-y,1/2+z
1/2+x,1/2-y,1/2-z
-x,1/2+y,-z
-x,-y,-z
1/2+x,y,1/2-z
1/2-x,1/2+y,1/2+z
x,1/2-y,z
loop_
_atom_site_type_symbol
_atom_site_label
_atom_site_fract_x
_atom_site_fract_y
_atom_site_fract_z
Si Si1 0.145155 0.447685 0.835751
Si Si2 0.728837 0.054025 0.849329
Si Si3 0.953385 0.947706 0.326825
Si Si4 0.578616 0.557287 0.224018
Si Si5 0.869277 0.554776 0.510934
Si Si6 0.351008 0.557199 0.580946
O O1 0.146133 0.250000 0.837410
O O2 0.198248 0.498355 0.761687
O O3 0.088711 0.494170 0.770471
O O4 0.146318 0.507208 0.958244
O O5 0.730606 0.250000 0.848997
O O6 0.791102 0.989893 0.867468
O O7 0.687105 0.003061 0.947305
O O8 0.954581 0.750000 0.329315
O O9 0.922579 0.000202 0.437299
O O10 0.016639 0.007887 0.308120
O O11 0.575425 0.750000 0.223705
O O12 0.622613 0.505200 0.131681
O O13 0.599784 0.502950 0.340675
O O14 0.869267 0.750000 0.511569
O O15 0.354662 0.750000 0.575482
#
# Coordination Sequence:
#
# PCOD9467397 Si02
#       6
#     8   8   8   8   8   8
#     4   8  17  36  58  77 103 141 180 220 273 326
#     4   9  19  37  59  80 105 139 178 225 276 328
#     4   8  16  34  58  81 107 143 183 223 271 326
#     4  11  22  34  53  82 114 146 183 223 267 321
#     4   9  18  35  59  84 110 142 180 226 278 323
#     4  11  23  36  53  80 110 144 183 225 271 323
#
# _framework density 19.859166999999999
#
# number of rings (size 3 to 8) (size 9 to 14) (size 15 to 20)
#    0.000    2.667    0.000    3.500    2.333    1.333 
#    0.000    1.667    0.000    7.000    0.000    0.000 
#    0.000    0.000    0.000    0.000    0.000    0.000 
#
# Total GULP energy -267895.286091 kJ/mol
# GULP energy per Si atom -5581.151794 kJ/mol
# Density = 1.981397 g / cm^3
# Si number density = 19.859167 Si / 1000 Ang^3
#
#
#
# Elastic Constant Matrix: (Units=GPa)
#
#
# Indices 1 2 3 4 5 6 
#
# 1 34.8951 -1.1348 0.2488 0.0000 0.0000 0.0000
# 2 -1.1348 11.2612 3.0456 0.0000 0.0000 0.0000
# 3 0.2488 3.0456 107.2960 0.0000 0.0000 0.0000
# 4 0.0000 0.0000 0.0000 19.3964 0.0000 0.0000
# 5 0.0000 0.0000 0.0000 0.0000 10.1641 0.0000
# 6 0.0000 0.0000 0.0000 0.0000 0.0000 18.4783
#
#
#
# Elastic Compliance Matrix: (Units=1/GPa)
#
#
# Indices 1 2 3 4 5 6 
#
# 1 0.028754 0.002938 -0.000150 0.000000 0.000000 0.000000
# 2 0.002938 0.089788 -0.002555 0.000000 0.000000 0.000000
# 3 -0.000150 -0.002555 0.009393 0.000000 0.000000 0.000000
# 4 0.000000 0.000000 0.000000 0.051556 0.000000 0.000000
# 5 0.000000 0.000000 0.000000 0.000000 0.098386 0.000000
# 6 0.000000 0.000000 0.000000 0.000000 0.000000 0.054118
#
#
# Mechanical properties :
#
#
# Convention : Reuss Voigt Hill
#
# Bulk Modulus (GPa) = 7.78819 17.53018 12.65919
# Shear Modulus (GPa) = 13.35725 19.69392 16.52558
#
# Velocity S-wave (km/s) = 2.59626 3.15251 2.88781
# Velocity P-wave (km/s) = 3.59412 4.70080 4.18421
#
# Compressibility (1/GPa) = 0.12839947
#
# Stress axis : x y z
#
# Youngs Moduli (GPa) = 34.77787 11.13740 106.46345
#
# Poissons Ratio (x) = -0.03272 0.01598
# Poissons Ratio (y) = -0.10218 0.27206
# Poissons Ratio (z) = 0.00522 0.02846
#
# Static dielectric constant tensor:
#      x y z
#    x 1.689320 0.000000 0.000000 
#    y 0.000000 1.692980 0.000000 
#    z 0.000000 0.000000 1.704700 
# 
# From -- ./inp_files/15089.got.cif
#   From: 2010.05.17/outbox.cif.g08.bks.cpg/sg62_8_cif.got.tgz:15089.got - 2010.06.03 15:25:27.
