data_PCOD9467459
_publ_section_title
;
Structure prediction by ZEFSAII (Michael W. Deem and Ramdas Pophale) SiO2 
 PCOD9467459
Probable space group: P N M A
;
_chemical_formula_sum "Si O2"
_cell_formula_units_Z 56
_cell_length_a 8.343199
_cell_length_b 22.373343
_cell_length_c 14.576714
_cell_angle_alpha 90.000000
_cell_angle_beta 90.000000
_cell_angle_gamma 90.000000
_cell_volume 2720.966006
_symmetry_space_group_name_H-M "P N M A"
_symmetry_group_IT_number 62
_symmetry_cell_setting 'orthorhombic'
loop_
_space_group_symop_operation_xyz
x,y,z
1/2-x,-y,1/2+z
1/2+x,1/2-y,1/2-z
-x,1/2+y,-z
-x,-y,-z
1/2+x,y,1/2-z
1/2-x,1/2+y,1/2+z
x,1/2-y,z
loop_
_atom_site_type_symbol
_atom_site_label
_atom_site_fract_x
_atom_site_fract_y
_atom_site_fract_z
Si Si1 0.470311 0.314787 0.605662
Si Si2 0.684544 0.504101 0.218984
Si Si3 0.277314 0.452394 0.459949
Si Si4 0.870716 0.845032 0.439984
Si Si5 0.854765 0.938426 0.914763
Si Si6 0.546888 0.401605 0.762599
Si Si7 0.282069 0.182719 0.025336
O O1 0.476072 0.250000 0.653446
O O2 0.304684 0.314799 0.547610
O O3 0.465477 0.369602 0.676519
O O4 0.637220 0.320163 0.549766
O O5 0.709866 0.455438 0.142201
O O6 0.647125 0.473522 0.317009
O O7 0.833457 0.548260 0.227705
O O8 0.564372 0.553962 0.181042
O O9 0.167572 0.409882 0.519623
O O10 0.282497 0.516586 0.509481
O O11 0.461215 0.430278 0.448244
O O12 0.892298 0.851036 0.330615
O O13 0.038086 0.822341 0.482747
O O14 0.759409 0.875654 0.913270
O O15 0.270036 0.250000 0.066692
#
# Coordination Sequence:
#
# PCOD9467459 Si02
#       7
#     8   8   8   8   8   8   8
#     4  11  24  43  64  92 136 184 222 269 328 398
#     4  12  24  38  66  99 132 174 219 273 348 403
#     4  11  23  40  68 101 134 176 220 281 344 404
#     4  12  24  42  68  97 134 179 227 272 334 401
#     4  11  22  43  67  97 138 174 220 285 345 399
#     4  12  22  40  58  96 139 168 216 275 322 406
#     4  11  26  44  65  94 131 177 227 275 332 404
#
# _framework density 20.580926999999999
#
# number of rings (size 3 to 8) (size 9 to 14) (size 15 to 20)
#    0.000    0.571    5.714    3.000    2.000    2.286 
#    0.000    0.000    0.000    4.286    0.000    0.000 
#    0.000    0.000    0.000    0.000    0.000    0.000 
#
# Total GULP energy -312007.930730 kJ/mol
# GULP energy per Si atom -5571.570192 kJ/mol
# Density = 2.053408 g / cm^3
# Si number density = 20.580927 Si / 1000 Ang^3
#
#
#
# Elastic Constant Matrix: (Units=GPa)
#
#
# Indices 1 2 3 4 5 6 
#
# 1 112.3148 34.3639 13.6012 0.0000 0.0000 0.0000
# 2 34.3639 111.8351 16.9089 0.0000 0.0000 0.0000
# 3 13.6012 16.9089 62.7487 0.0000 0.0000 0.0000
# 4 0.0000 0.0000 0.0000 27.6803 0.0000 0.0000
# 5 0.0000 0.0000 0.0000 0.0000 25.6160 0.0000
# 6 0.0000 0.0000 0.0000 0.0000 0.0000 -32.2348
#
#
#
# Elastic Compliance Matrix: (Units=1/GPa)
#
#
# Indices 1 2 3 4 5 6 
#
# 1 0.009942 -0.002845 -0.001388 0.000000 0.000000 0.000000
# 2 -0.002845 0.010136 -0.002115 0.000000 0.000000 0.000000
# 3 -0.001388 -0.002115 0.016807 0.000000 0.000000 0.000000
# 4 0.000000 0.000000 0.000000 0.036127 0.000000 0.000000
# 5 0.000000 0.000000 0.000000 0.000000 0.039038 0.000000
# 6 0.000000 0.000000 0.000000 0.000000 0.000000 -0.031022
#
#
# Mechanical properties :
#
#
# Convention : Reuss Voigt Hill
#
# Bulk Modulus (GPa) = 41.34083 46.29407 43.81745
# Shear Modulus (GPa) = 49.12240 19.01396 34.06818
#
# Velocity S-wave (km/s) = 4.89078 3.04281 4.07299
# Velocity P-wave (km/s) = 7.21274 5.90656 6.59208
#
# Compressibility (1/GPa) = 0.02418916
#
# Stress axis : x y z
#
# Youngs Moduli (GPa) = 100.58198 98.66166 59.49783
#
# Poissons Ratio (x) = 0.28070 0.08260
# Poissons Ratio (y) = 0.28616 0.12581
# Poissons Ratio (z) = 0.13964 0.20863
#
# Static dielectric constant tensor:
#      x y z
#    x 1.721150 0.000000 0.000000 
#    y 0.000000 1.823670 0.000000 
#    z 0.000000 0.000000 1.691710 
# 
# From -- ./inp_files/17211.got.cif
#   From: 2010.05.17/outbox.cif.g08.bks.cpg/sg62_9_cif.got.tgz:17211.got - 2010.06.03 15:25:27.
