data_PCOD9467993
_publ_section_title
;
Structure prediction by ZEFSAII (Michael W. Deem and Ramdas Pophale) SiO2 
 PCOD9467993
Probable space group: P N M A
;
_chemical_formula_sum "Si O2"
_cell_formula_units_Z 40
_cell_length_a 9.000000
_cell_length_b 9.000000
_cell_length_c 24.000000
_cell_angle_alpha 90.000000
_cell_angle_beta 90.000000
_cell_angle_gamma 90.000000
_cell_volume 1944.000000
_symmetry_space_group_name_H-M "P N M A"
_symmetry_group_IT_number 62
_symmetry_cell_setting 'orthorhombic'
loop_
_space_group_symop_operation_xyz
x,y,z
1/2-x,-y,1/2+z
1/2+x,1/2-y,1/2-z
-x,1/2+y,-z
-x,-y,-z
1/2+x,y,1/2-z
1/2-x,1/2+y,1/2+z
x,1/2-y,z
loop_
_atom_site_type_symbol
_atom_site_label
_atom_site_fract_x
_atom_site_fract_y
_atom_site_fract_z
Si Si1 0.386591 0.416512 0.691797
Si Si2 0.850513 0.913197 0.009405
Si Si3 0.233061 0.080216 0.810708
Si Si4 0.631415 0.422689 0.091218
Si Si5 0.186539 0.913852 0.607024
O O1 0.373435 0.250000 0.669182
O O2 0.559430 0.450489 0.695688
O O3 0.314276 0.420742 0.752108
O O4 0.293475 0.517648 0.651620
O O5 0.883513 0.750000 0.031950
O O6 0.773009 0.902528 0.950117
O O7 0.739167 0.996096 0.049395
O O8 0.000000 0.000000 0.000000
O O9 0.251010 0.250000 0.833539
O O10 0.301337 0.953937 0.848725
O O11 0.625382 0.250000 0.075771
O O12 0.467880 0.492949 0.093596
O O13 0.144031 0.750000 0.627695
#
# Coordination Sequence:
#
# PCOD9467993 Si02
#       5
#     8   8   8   8   8
#     4  10  21  37  60  86 114 149 191 235 283 338
#     4  11  23  40  61  86 116 151 190 236 286 341
#     4  10  21  38  59  86 116 150 191 236 285 339
#     4  11  23  39  59  85 115 151 192 235 283 338
#     4  10  23  40  58  83 116 151 190 234 285 340
#
# _framework density 20.576132000000001
#
# number of rings (size 3 to 8) (size 9 to 14) (size 15 to 20)
#    0.000    1.600    0.000    4.200    0.000    9.600 
#    0.000    0.000    0.000    0.000    0.000    0.000 
#    0.000    0.000    0.000    0.000    0.000    0.000 
#
# Total GULP energy -223042.812769 kJ/mol
# GULP energy per Si atom -5576.070319 kJ/mol
# Density = 2.052930 g / cm^3
# Si number density = 20.576132 Si / 1000 Ang^3
#
#
#
# Elastic Constant Matrix: (Units=GPa)
#
#
# Indices 1 2 3 4 5 6 
#
# 1 98.6514 43.4123 0.9415 0.0000 0.0000 0.0000
# 2 43.4123 37.9509 20.0432 0.0000 0.0000 0.0000
# 3 0.9415 20.0432 34.6661 0.0000 0.0000 0.0000
# 4 0.0000 0.0000 0.0000 37.3692 0.0000 0.0000
# 5 0.0000 0.0000 0.0000 0.0000 130.3274 0.0000
# 6 0.0000 0.0000 0.0000 0.0000 0.0000 17.7010
#
#
#
# Elastic Compliance Matrix: (Units=1/GPa)
#
#
# Indices 1 2 3 4 5 6 
#
# 1 0.034580 -0.056231 0.031572 0.000000 0.000000 0.000000
# 2 -0.056231 0.129370 -0.073272 0.000000 0.000000 0.000000
# 3 0.031572 -0.073272 0.070353 0.000000 0.000000 0.000000
# 4 0.000000 0.000000 0.000000 0.026760 0.000000 0.000000
# 5 0.000000 0.000000 0.000000 0.000000 0.007673 0.000000
# 6 0.000000 0.000000 0.000000 0.000000 0.000000 0.056494
#
#
# Mechanical properties :
#
#
# Convention : Reuss Voigt Hill
#
# Bulk Modulus (GPa) = 26.01266 33.34027 29.67646
# Shear Modulus (GPa) = 9.36496 44.20428 26.78462
#
# Velocity S-wave (km/s) = 2.13571 4.64003 3.61187
# Velocity P-wave (km/s) = 4.33027 6.70411 5.64342
#
# Compressibility (1/GPa) = 0.03844283
#
# Stress axis : x y z
#
# Youngs Moduli (GPa) = 28.91825 7.72977 14.21400
#
# Poissons Ratio (x) = 0.43465 -0.44877
# Poissons Ratio (y) = 1.62610 1.04148
# Poissons Ratio (z) = -0.91302 0.56637
#
# Static dielectric constant tensor:
#      x y z
#    x 1.723780 0.000000 0.000000 
#    y 0.000000 0.653090 0.000000 
#    z 0.000000 0.000000 1.697400 
# 
# From -- ./inp_files/28557.got.cif
#   From: 2010.05.17/outbox.ucp.g08.bks.cvg/sg62_15_cif.got.tgz:28557.got - 2010.06.11 16:29:25.
