data_PCOD9467529
_publ_section_title
;
Structure prediction by ZEFSAII (Michael W. Deem and Ramdas Pophale) SiO2 
 PCOD9467529
Probable space group: P N M A
;
_chemical_formula_sum "Si O2"
_cell_formula_units_Z 40
_cell_length_a 9.203013
_cell_length_b 22.825386
_cell_length_c 9.503939
_cell_angle_alpha 90.000000
_cell_angle_beta 90.000000
_cell_angle_gamma 90.000000
_cell_volume 1996.419514
_symmetry_space_group_name_H-M "P N M A"
_symmetry_group_IT_number 62
_symmetry_cell_setting 'orthorhombic'
loop_
_space_group_symop_operation_xyz
x,y,z
1/2-x,-y,1/2+z
1/2+x,1/2-y,1/2-z
-x,1/2+y,-z
-x,-y,-z
1/2+x,y,1/2-z
1/2-x,1/2+y,1/2+z
x,1/2-y,z
loop_
_atom_site_type_symbol
_atom_site_label
_atom_site_fract_x
_atom_site_fract_y
_atom_site_fract_z
Si Si1 0.184802 0.158528 0.421040
Si Si2 0.460930 0.750000 0.123561
Si Si3 0.144249 0.482841 0.420209
Si Si4 0.025153 0.165055 0.132685
Si Si5 0.388520 0.967617 0.597928
Si Si6 0.187948 0.250000 0.926182
O O1 0.113507 0.193217 0.550369
O O2 0.179318 0.087195 0.437115
O O3 0.085742 0.178116 0.288279
O O4 0.353654 0.176389 0.393066
O O5 0.406238 0.750000 0.283725
O O6 0.637481 0.750000 0.102866
O O7 0.138598 0.493536 0.252906
O O8 0.249779 0.526819 0.500873
O O9 0.000000 0.500000 0.500000
O O10 0.050151 0.096317 0.120521
O O11 0.130094 0.195998 0.020449
O O12 0.500000 0.000000 0.500000
#
# Coordination Sequence:
#
# PCOD9467529 Si02
#       6
#     8   4   8   8   8   4
#     4  11  24  45  69  98 131 180 224 274 332 408
#     4  12  27  46  69  98 136 168 226 276 345 392
#     4  11  25  40  69  98 138 180 227 277 341 401
#     4  11  24  44  71  95 135 176 227 271 335 403
#     4  11  23  44  65 100 136 178 226 276 335 407
#     4  12  27  46  69 100 132 174 218 286 335 398
#
# _framework density 20.035869000000002
#
# number of rings (size 3 to 8) (size 9 to 14) (size 15 to 20)
#    0.000    0.800    2.000    4.800   11.200    3.200 
#    0.000    0.000    0.000    0.000    0.000    0.000 
#    0.000    0.000    0.000    0.000    0.000    0.000 
#
# Total GULP energy -223168.009206 kJ/mol
# GULP energy per Si atom -5579.200230 kJ/mol
# Density = 1.999027 g / cm^3
# Si number density = 20.035869 Si / 1000 Ang^3
#
#
#
# Elastic Constant Matrix: (Units=GPa)
#
#
# Indices 1 2 3 4 5 6 
#
# 1 139.9316 -9.3569 4.1754 0.0000 0.0000 0.0000
# 2 -9.3569 31.0162 12.6036 0.0000 0.0000 0.0000
# 3 4.1754 12.6036 133.0311 0.0000 0.0000 0.0000
# 4 0.0000 0.0000 0.0000 22.2751 0.0000 0.0000
# 5 0.0000 0.0000 0.0000 0.0000 37.6720 0.0000
# 6 0.0000 0.0000 0.0000 0.0000 0.0000 34.3053
#
#
#
# Elastic Compliance Matrix: (Units=1/GPa)
#
#
# Indices 1 2 3 4 5 6 
#
# 1 0.007320 0.002394 -0.000457 0.000000 0.000000 0.000000
# 2 0.002394 0.034315 -0.003326 0.000000 0.000000 0.000000
# 3 -0.000457 -0.003326 0.007846 0.000000 0.000000 0.000000
# 4 0.000000 0.000000 0.000000 0.044893 0.000000 0.000000
# 5 0.000000 0.000000 0.000000 0.000000 0.026545 0.000000
# 6 0.000000 0.000000 0.000000 0.000000 0.000000 0.029150
#
#
# Mechanical properties :
#
#
# Convention : Reuss Voigt Hill
#
# Bulk Modulus (GPa) = 21.41156 35.42478 28.41817
# Shear Modulus (GPa) = 29.68848 38.62094 34.15471
#
# Velocity S-wave (km/s) = 3.85355 4.39520 4.13325
# Velocity P-wave (km/s) = 5.52355 6.59364 6.08217
#
# Compressibility (1/GPa) = 0.04670375
#
# Stress axis : x y z
#
# Youngs Moduli (GPa) = 136.61123 29.14173 127.44539
#
# Poissons Ratio (x) = -0.06976 0.05818
# Poissons Ratio (y) = -0.32702 0.42391
# Poissons Ratio (z) = 0.06237 0.09693
#
# Static dielectric constant tensor:
#      x y z
#    x 1.635770 0.000000 0.000000 
#    y 0.000000 1.659210 0.000000 
#    z 0.000000 0.000000 0.751420 
# 
# From -- ./inp_files/4320.got.cif
#   From: 2010.05.17/outbox.cif.g08.bks.cpg/sg62_3_cif.got.tgz:4320.got - 2010.06.03 15:25:27.
