data_PCOD9467435
_publ_section_title
;
Structure prediction by ZEFSAII (Michael W. Deem and Ramdas Pophale) SiO2 
 PCOD9467435
Probable space group: P N M A
;
_chemical_formula_sum "Si O2"
_cell_formula_units_Z 44
_cell_length_a 17.816229
_cell_length_b 14.190953
_cell_length_c 8.773470
_cell_angle_alpha 90.000000
_cell_angle_beta 90.000000
_cell_angle_gamma 90.000000
_cell_volume 2218.190001
_symmetry_space_group_name_H-M "P N M A"
_symmetry_group_IT_number 62
_symmetry_cell_setting 'orthorhombic'
loop_
_space_group_symop_operation_xyz
x,y,z
1/2-x,-y,1/2+z
1/2+x,1/2-y,1/2-z
-x,1/2+y,-z
-x,-y,-z
1/2+x,y,1/2-z
1/2-x,1/2+y,1/2+z
x,1/2-y,z
loop_
_atom_site_type_symbol
_atom_site_label
_atom_site_fract_x
_atom_site_fract_y
_atom_site_fract_z
Si Si1 0.214105 0.250000 0.279275
Si Si2 0.333323 0.940083 0.609190
Si Si3 0.502562 0.250000 0.723301
Si Si4 0.612257 0.750000 0.715341
Si Si5 0.659935 0.250000 0.884266
Si Si6 0.358183 0.250000 0.931589
Si Si7 0.248465 0.094575 0.805718
Si Si8 0.015474 0.353324 0.073699
O O1 0.198334 0.157514 0.179469
O O2 0.301398 0.250000 0.331788
O O3 0.166883 0.250000 0.434597
O O4 0.306137 0.948046 0.434489
O O5 0.424070 0.931468 0.613892
O O6 0.296464 0.020759 0.709922
O O7 0.574535 0.250000 0.829472
O O8 0.427006 0.250000 0.816271
O O9 0.505786 0.161040 0.607212
O O10 0.565752 0.659476 0.651089
O O11 0.612405 0.750000 0.896892
O O12 0.701123 0.339973 0.809106
O O13 0.306427 0.160486 0.896883
O O14 0.050911 0.250000 0.118590
#
# Coordination Sequence:
#
# PCOD9467435 Si02
#       8
#     4   8   4   4   4   4   8   8
#     4  12  21  37  70  88 127 157 217 259 319 363
#     4  12  21  44  61  93 122 173 203 265 307 377
#     4   9  19  38  66  85 123 162 205 246 317 368
#     4   9  20  37  63  89 119 166 202 253 312 367
#     4  11  22  39  65  95 119 168 206 264 314 375
#     4  11  22  41  62  93 126 161 206 268 306 365
#     4  11  24  40  64  91 128 161 214 260 311 366
#     4   8  19  38  61  83 120 164 196 243 316 370
#
# _framework density 19.835992000000001
#
# number of rings (size 3 to 8) (size 9 to 14) (size 15 to 20)
#    1.091    0.364    4.545    1.636    7.636    0.000 
#    0.000    3.636    0.000    0.000    0.000    0.000 
#    0.000    0.000    0.000    0.000    0.000    0.000 
#
# Total GULP energy -245404.185642 kJ/mol
# GULP energy per Si atom -5577.367856 kJ/mol
# Density = 1.979084 g / cm^3
# Si number density = 19.835992 Si / 1000 Ang^3
#
#
#
# Elastic Constant Matrix: (Units=GPa)
#
#
# Indices 1 2 3 4 5 6 
#
# 1 87.0187 -3.3016 -1.7818 0.0000 0.0000 0.0000
# 2 -3.3016 39.8877 8.8155 0.0000 0.0000 0.0000
# 3 -1.7818 8.8155 81.0756 0.0000 0.0000 0.0000
# 4 0.0000 0.0000 0.0000 25.6541 0.0000 0.0000
# 5 0.0000 0.0000 0.0000 0.0000 42.4146 0.0000
# 6 0.0000 0.0000 0.0000 0.0000 0.0000 2.7465
#
#
#
# Elastic Compliance Matrix: (Units=1/GPa)
#
#
# Indices 1 2 3 4 5 6 
#
# 1 0.011530 0.000920 0.000153 0.000000 0.000000 0.000000
# 2 0.000920 0.025761 -0.002781 0.000000 0.000000 0.000000
# 3 0.000153 -0.002781 0.012640 0.000000 0.000000 0.000000
# 4 0.000000 0.000000 0.000000 0.038980 0.000000 0.000000
# 5 0.000000 0.000000 0.000000 0.000000 0.023577 0.000000
# 6 0.000000 0.000000 0.000000 0.000000 0.000000 0.364094
#
#
# Mechanical properties :
#
#
# Convention : Reuss Voigt Hill
#
# Bulk Modulus (GPa) = 21.49760 23.93847 22.71803
# Shear Modulus (GPa) = 10.09079 27.77972 18.93525
#
# Velocity S-wave (km/s) = 2.25791 3.74635 3.09300
# Velocity P-wave (km/s) = 4.20223 5.55048 4.92273
#
# Compressibility (1/GPa) = 0.04651683
#
# Stress axis : x y z
#
# Youngs Moduli (GPa) = 86.73146 38.81808 79.11454
#
# Poissons Ratio (x) = -0.03573 -0.01213
# Poissons Ratio (y) = -0.07983 0.22000
# Poissons Ratio (z) = -0.01330 0.10795
#
# Static dielectric constant tensor:
#      x y z
#    x 1.702070 0.000000 0.000000 
#    y 0.000000 1.723830 0.000000 
#    z 0.000000 0.000000 1.666140 
# 
# From -- ./inp_files/7596.got.cif
#   From: 2010.05.17/outbox.cif.g08.bks.cpg/sg62_4_cif.got.tgz:7596.got - 2010.06.03 15:25:27.
