data_PCOD9467633
_publ_section_title
;
Structure prediction by ZEFSAII (Michael W. Deem and Ramdas Pophale) SiO2 
 PCOD9467633
Probable space group: P N M A
;
_chemical_formula_sum "Si O2"
_cell_formula_units_Z 48
_cell_length_a 9.946798
_cell_length_b 14.203304
_cell_length_c 18.427462
_cell_angle_alpha 90.000000
_cell_angle_beta 90.000000
_cell_angle_gamma 90.000000
_cell_volume 2603.383843
_symmetry_space_group_name_H-M "P N M A"
_symmetry_group_IT_number 62
_symmetry_cell_setting 'orthorhombic'
loop_
_space_group_symop_operation_xyz
x,y,z
1/2-x,-y,1/2+z
1/2+x,1/2-y,1/2-z
-x,1/2+y,-z
-x,-y,-z
1/2+x,y,1/2-z
1/2-x,1/2+y,1/2+z
x,1/2-y,z
loop_
_atom_site_type_symbol
_atom_site_label
_atom_site_fract_x
_atom_site_fract_y
_atom_site_fract_z
Si Si1 0.638054 0.750000 0.895763
Si Si2 0.436954 0.250000 0.363753
Si Si3 0.646975 0.043715 0.985935
Si Si4 0.802393 0.453404 0.331884
Si Si5 0.000385 0.548849 0.795221
Si Si6 0.100908 0.044850 0.940608
Si Si7 0.842267 0.750000 0.548688
Si Si8 0.133842 0.250000 0.996745
O O1 0.683436 0.655224 0.856293
O O2 0.478353 0.750000 0.904336
O O3 0.713481 0.750000 0.973502
O O4 0.462601 0.343557 0.317044
O O5 0.289292 0.250000 0.400108
O O6 0.541806 0.250000 0.430809
O O7 0.691485 0.014891 0.904957
O O8 0.653525 0.154899 0.001253
O O9 0.500000 0.000000 0.000000
O O10 0.752995 0.996236 0.040639
O O11 0.659577 0.462680 0.292464
O O12 0.923906 0.476241 0.278318
O O13 0.053700 0.486522 0.861892
O O14 0.103438 0.156019 0.952961
O O15 0.000000 0.000000 0.000000
#
# Coordination Sequence:
#
# PCOD9467633 Si02
#       8
#     4   4   8   8   8   8   4   4
#     4  12  21  42  63  96 132 166 212 272 331 382
#     4  12  21  38  67  96 126 162 214 272 328 390
#     4  12  23  42  67  95 132 169 219 271 316 385
#     4  12  26  43  63  94 138 174 212 266 327 392
#     4  12  26  42  63  96 134 175 213 265 333 389
#     4  12  21  42  67  93 125 170 219 267 318 381
#     4  12  24  36  70 104 123 166 219 274 324 374
#     4  12  20  40  70  94 123 164 223 274 313 374
#
# _framework density 18.437543000000002
#
# number of rings (size 3 to 8) (size 9 to 14) (size 15 to 20)
#    0.000    0.000   10.000    0.500    4.667    0.000 
#    0.000    0.833    0.000    0.000    0.000    0.000 
#    0.000    0.000    0.000    0.000    0.000    0.000 
#
# Total GULP energy -268561.469970 kJ/mol
# GULP energy per Si atom -5595.030624 kJ/mol
# Density = 1.839558 g / cm^3
# Si number density = 18.437543 Si / 1000 Ang^3
#
#
#
# Elastic Constant Matrix: (Units=GPa)
#
#
# Indices 1 2 3 4 5 6 
#
# 1 129.1835 13.3041 2.0677 0.0000 0.0000 0.0000
# 2 13.3041 112.3804 8.0850 0.0000 0.0000 0.0000
# 3 2.0677 8.0850 39.1481 0.0000 0.0000 0.0000
# 4 0.0000 0.0000 0.0000 3.5406 0.0000 0.0000
# 5 0.0000 0.0000 0.0000 0.0000 39.3364 0.0000
# 6 0.0000 0.0000 0.0000 0.0000 0.0000 17.4935
#
#
#
# Elastic Compliance Matrix: (Units=1/GPa)
#
#
# Indices 1 2 3 4 5 6 
#
# 1 0.007838 -0.000912 -0.000226 0.000000 0.000000 0.000000
# 2 -0.000912 0.009139 -0.001839 0.000000 0.000000 0.000000
# 3 -0.000226 -0.001839 0.025936 0.000000 0.000000 0.000000
# 4 0.000000 0.000000 0.000000 0.282441 0.000000 0.000000
# 5 0.000000 0.000000 0.000000 0.000000 0.025422 0.000000
# 6 0.000000 0.000000 0.000000 0.000000 0.000000 0.057164
#
#
# Mechanical properties :
#
#
# Convention : Reuss Voigt Hill
#
# Bulk Modulus (GPa) = 27.05656 36.40284 31.72970
# Shear Modulus (GPa) = 11.73124 29.22446 20.47785
#
# Velocity S-wave (km/s) = 2.52517 3.98559 3.33627
# Velocity P-wave (km/s) = 4.81753 6.40052 5.66459
#
# Compressibility (1/GPa) = 0.03695961
#
# Stress axis : x y z
#
# Youngs Moduli (GPa) = 127.57658 109.42599 38.55676
#
# Poissons Ratio (x) = 0.09976 0.00870
# Poissons Ratio (y) = 0.11631 0.07091
# Poissons Ratio (z) = 0.02880 0.20125
#
# Static dielectric constant tensor:
#      x y z
#    x 1.655540 0.000000 0.000000 
#    y 0.000000 1.640080 0.000000 
#    z 0.000000 0.000000 1.611580 
# 
# From -- ./inp_files/22256.got.cif
#   From: 2010.05.17/outbox.cif.g08.bks.cpg/sg62_12_cif.got.tgz:22256.got - 2010.06.03 15:25:27.
