data_PCOD9467136
_publ_section_title
;
Structure prediction by ZEFSAII (Michael W. Deem and Ramdas Pophale) SiO2 
 PCOD9467136
Probable space group: P N M A
;
_chemical_formula_sum "Si O2"
_cell_formula_units_Z 40
_cell_length_a 8.254695
_cell_length_b 15.825332
_cell_length_c 13.977255
_cell_angle_alpha 90.000000
_cell_angle_beta 90.000000
_cell_angle_gamma 90.000000
_cell_volume 1825.894791
_symmetry_space_group_name_H-M "P N M A"
_symmetry_group_IT_number 62
_symmetry_cell_setting 'orthorhombic'
loop_
_space_group_symop_operation_xyz
x,y,z
1/2-x,-y,1/2+z
1/2+x,1/2-y,1/2-z
-x,1/2+y,-z
-x,-y,-z
1/2+x,y,1/2-z
1/2-x,1/2+y,1/2+z
x,1/2-y,z
loop_
_atom_site_type_symbol
_atom_site_label
_atom_site_fract_x
_atom_site_fract_y
_atom_site_fract_z
Si Si1 0.468908 0.250000 0.103283
Si Si2 0.928951 0.590176 0.119153
Si Si3 0.910042 0.150670 0.695591
Si Si4 0.572352 0.092573 0.982545
Si Si5 0.679494 0.750000 0.703130
Si Si6 0.070627 0.898263 0.926101
O O1 0.638011 0.250000 0.163156
O O2 0.330832 0.250000 0.183005
O O3 0.474907 0.165809 0.039250
O O4 0.748805 0.603235 0.158285
O O5 0.970165 0.490928 0.112817
O O6 0.046606 0.633698 0.194989
O O7 0.949113 0.625367 0.011770
O O8 0.886810 0.250000 0.681132
O O9 0.055155 0.117116 0.628421
O O10 0.754836 0.095203 0.021194
O O11 0.500000 0.000000 0.000000
O O12 0.590836 0.668615 0.657951
#
# Coordination Sequence:
#
# PCOD9467136 Si02
#       6
#     4   8   8   8   4   8
#     4  10  24  44  63  98 125 170 215 266 326 380
#     4  11  25  43  65  97 133 172 224 266 336 394
#     4  12  25  42  69  99 129 174 219 281 334 394
#     4  11  22  44  68  94 133 170 220 271 327 391
#     4  10  24  40  67  90 133 166 215 264 318 390
#     4  10  24  44  64  97 132 177 213 272 323 394
#
# _framework density 21.907066
#
# number of rings (size 3 to 8) (size 9 to 14) (size 15 to 20)
#    0.000    1.200    3.000    1.800    5.600    1.600 
#    0.000    0.000    0.000    0.000    0.000    0.000 
#    0.000    0.000    0.000    0.000    0.000    0.000 
#
# Total GULP energy -223873.760608 kJ/mol
# GULP energy per Si atom -5596.844015 kJ/mol
# Density = 2.185720 g / cm^3
# Si number density = 21.907066 Si / 1000 Ang^3
#
#
#
# Elastic Constant Matrix: (Units=GPa)
#
#
# Indices 1 2 3 4 5 6 
#
# 1 40.8767 -5.9301 6.5198 0.0000 0.0000 0.0000
# 2 -5.9301 101.8108 37.2918 0.0000 0.0000 0.0000
# 3 6.5198 37.2918 74.6328 0.0000 0.0000 0.0000
# 4 0.0000 0.0000 0.0000 38.5444 0.0000 0.0000
# 5 0.0000 0.0000 0.0000 0.0000 37.9739 0.0000
# 6 0.0000 0.0000 0.0000 0.0000 0.0000 18.9974
#
#
#
# Elastic Compliance Matrix: (Units=1/GPa)
#
#
# Indices 1 2 3 4 5 6 
#
# 1 0.025450 0.002811 -0.003628 0.000000 0.000000 0.000000
# 2 0.002811 0.012333 -0.006408 0.000000 0.000000 0.000000
# 3 -0.003628 -0.006408 0.016918 0.000000 0.000000 0.000000
# 4 0.000000 0.000000 0.000000 0.025944 0.000000 0.000000
# 5 0.000000 0.000000 0.000000 0.000000 0.026334 0.000000
# 6 0.000000 0.000000 0.000000 0.000000 0.000000 0.052639
#
#
# Mechanical properties :
#
#
# Convention : Reuss Voigt Hill
#
# Bulk Modulus (GPa) = 24.84372 32.56480 28.70426
# Shear Modulus (GPa) = 26.66883 31.06572 28.86728
#
# Velocity S-wave (km/s) = 3.49286 3.76981 3.63397
# Velocity P-wave (km/s) = 5.25660 5.81772 5.54426
#
# Compressibility (1/GPa) = 0.04025162
#
# Stress axis : x y z
#
# Youngs Moduli (GPa) = 39.29223 81.08282 59.10938
#
# Poissons Ratio (x) = -0.22795 0.21445
# Poissons Ratio (y) = -0.11046 0.37878
# Poissons Ratio (z) = 0.14255 0.51958
#
# Static dielectric constant tensor:
#      x y z
#    x 1.821280 0.000000 0.000000 
#    y 0.000000 1.745760 0.000000 
#    z 0.000000 0.000000 1.777350 
# 
# From -- ./inp_files/11119.got.cif
#   From: 2010.05.17/outbox.cif.g08.bks.cpg/sg62_6_cif.got.tgz:11119.got - 2010.06.03 15:25:27.
