data_PCOD9467929
_publ_section_title
;
Structure prediction by ZEFSAII (Michael W. Deem and Ramdas Pophale) SiO2 
 PCOD9467929
Probable space group: P N M A
;
_chemical_formula_sum "Si O2"
_cell_formula_units_Z 48
_cell_length_a 30.000000
_cell_length_b 9.000000
_cell_length_c 9.000000
_cell_angle_alpha 90.000000
_cell_angle_beta 90.000000
_cell_angle_gamma 90.000000
_cell_volume 2430.000000
_symmetry_space_group_name_H-M "P N M A"
_symmetry_group_IT_number 62
_symmetry_cell_setting 'orthorhombic'
loop_
_space_group_symop_operation_xyz
x,y,z
1/2-x,-y,1/2+z
1/2+x,1/2-y,1/2-z
-x,1/2+y,-z
-x,-y,-z
1/2+x,y,1/2-z
1/2-x,1/2+y,1/2+z
x,1/2-y,z
loop_
_atom_site_type_symbol
_atom_site_label
_atom_site_fract_x
_atom_site_fract_y
_atom_site_fract_z
Si Si1 0.131208 0.924787 0.499154
Si Si2 0.192639 0.573485 0.076052
Si Si3 0.613143 0.422394 0.303994
Si Si4 0.040682 0.075786 0.590477
Si Si5 0.006831 0.422657 0.153307
Si Si6 0.273260 0.072432 0.913058
O O1 0.127085 0.750000 0.530408
O O2 0.183261 0.968783 0.514249
O O3 0.122464 0.960725 0.326614
O O4 0.090460 0.012682 0.572282
O O5 0.184885 0.750000 0.060675
O O6 0.146261 0.481541 0.068004
O O7 0.213545 0.545403 0.241014
O O8 0.229625 0.515520 0.961752
O O9 0.625113 0.250000 0.268102
O O10 0.559989 0.425384 0.319653
O O11 0.040967 0.250000 0.556622
O O12 0.000000 0.000000 0.500000
O O13 0.023612 0.029646 0.749257
O O14 0.992834 0.250000 0.166223
O O15 0.000000 0.500000 0.000000
O O16 0.266594 0.250000 0.930008
#
# Coordination Sequence:
#
# PCOD9467929 Si02
#       6
#     8   8   8   8   8   8
#     4  10  20  36  60  88 117 150 194 243 289 343
#     4  10  21  37  60  87 114 150 191 236 288 343
#     4  10  20  36  60  85 114 153 194 236 288 348
#     4  12  23  37  61  89 118 154 195 241 287 341
#     4  11  24  41  60  86 119 156 196 242 295 350
#     4   9  20  38  58  84 116 148 188 237 285 342
#
# _framework density 19.753086
#
# number of rings (size 3 to 8) (size 9 to 14) (size 15 to 20)
#    0.000    1.667    1.667    4.500    0.000    6.000 
#    3.000    0.000    0.000    0.000    0.000    0.000 
#    0.000    0.000    0.000    0.000    0.000    0.000 
#
# Total GULP energy -267313.434096 kJ/mol
# GULP energy per Si atom -5569.029877 kJ/mol
# Density = 1.970813 g / cm^3
# Si number density = 19.753086 Si / 1000 Ang^3
#
#
#
# Elastic Constant Matrix: (Units=GPa)
#
#
# Indices 1 2 3 4 5 6 
#
# 1 9.7354 -1.3375 -42.2713 0.0000 0.0000 0.0000
# 2 -1.3375 54.9324 -26.8334 0.0000 0.0000 0.0000
# 3 -42.2713 -26.8334 11.3079 0.0000 0.0000 0.0000
# 4 0.0000 0.0000 0.0000 21.6809 0.0000 0.0000
# 5 0.0000 0.0000 0.0000 0.0000 24.9998 0.0000
# 6 0.0000 0.0000 0.0000 0.0000 0.0000 36.6136
#
#
#
# Elastic Compliance Matrix: (Units=1/GPa)
#
#
# Indices 1 2 3 4 5 6 
#
# 1 0.000968 -0.011250 -0.023078 0.000000 0.000000 0.000000
# 2 -0.011250 0.016411 -0.003110 0.000000 0.000000 0.000000
# 3 -0.023078 -0.003110 -0.005217 0.000000 0.000000 0.000000
# 4 0.000000 0.000000 0.000000 0.046124 0.000000 0.000000
# 5 0.000000 0.000000 0.000000 0.000000 0.040000 0.000000
# 6 0.000000 0.000000 0.000000 0.000000 0.000000 0.027312
#
#
# Mechanical properties :
#
#
# Convention : Reuss Voigt Hill
#
# Bulk Modulus (GPa) = -15.94562 -7.21209 -11.57885
# Shear Modulus (GPa) = 27.84446 26.42005 27.13226
#
# Velocity S-wave (km/s) = 3.75857 3.66117 3.71019
# Velocity P-wave (km/s) = 3.27808 3.77004 3.53264
#
# Compressibility (1/GPa) = -0.06271314
#
# Stress axis : x y z
#
# Youngs Moduli (GPa) = 1033.50287 60.93453 -191.69622
#
# Poissons Ratio (x) = 0.68549 -4.42395
# Poissons Ratio (y) = 11.62645 -0.59620
# Poissons Ratio (z) = 23.85110 0.18951
#
# Static dielectric constant tensor:
#      x y z
#    x 1.844830 0.000000 0.000000 
#    y 0.000000 1.662270 0.000000 
#    z 0.000000 0.000000 1.704150 
# 
# From -- ./inp_files/10211.got.cif
#   From: 2010.05.17/outbox.ucp.g08.bks.cvg/sg62_6_cif.got.tgz:10211.got - 2010.06.11 16:29:25.
