data_PCOD9467240
_publ_section_title
;
Structure prediction by ZEFSAII (Michael W. Deem and Ramdas Pophale) SiO2 
 PCOD9467240
Probable space group: P N M A
;
_chemical_formula_sum "Si O2"
_cell_formula_units_Z 32
_cell_length_a 7.248090
_cell_length_b 23.383157
_cell_length_c 7.264450
_cell_angle_alpha 90.000000
_cell_angle_beta 90.000000
_cell_angle_gamma 90.000000
_cell_volume 1231.202424
_symmetry_space_group_name_H-M "P N M A"
_symmetry_group_IT_number 62
_symmetry_cell_setting 'orthorhombic'
loop_
_space_group_symop_operation_xyz
x,y,z
1/2-x,-y,1/2+z
1/2+x,1/2-y,1/2-z
-x,1/2+y,-z
-x,-y,-z
1/2+x,y,1/2-z
1/2-x,1/2+y,1/2+z
x,1/2-y,z
loop_
_atom_site_type_symbol
_atom_site_label
_atom_site_fract_x
_atom_site_fract_y
_atom_site_fract_z
Si Si1 0.703835 0.022173 0.942440
Si Si2 0.463880 0.314636 0.583143
Si Si3 0.462734 0.916338 0.654724
Si Si4 0.080001 0.364861 0.556598
O O1 0.644831 0.078102 0.826435
O O2 0.820877 0.968924 0.870302
O O3 0.851497 0.054726 0.073634
O O4 0.500000 0.000000 0.000000
O O5 0.525066 0.250000 0.556455
O O6 0.580017 0.361299 0.470275
O O7 0.255462 0.325137 0.514852
O O8 0.458403 0.330148 0.799805
O O9 0.486695 0.890197 0.860697
#
# Coordination Sequence:
#
# PCOD9467240 Si02
#       4
#     8   8   8   8
#     4  10  25  45  80 118 164 204 262 334 418 511
#     4  11  27  50  77 112 158 218 285 348 415 496
#     4  10  26  51  77 122 160 211 272 337 423 506
#     4  11  27  48  76 115 162 210 273 342 415 500
#
# _framework density 25.990852
#
# number of rings (size 3 to 8) (size 9 to 14) (size 15 to 20)
#    0.000    1.500    0.000    0.750   14.000    4.000 
#    0.000    0.000    0.000    0.000    0.000    0.000 
#    0.000    0.000    0.000    0.000    0.000    0.000 
#
# Total GULP energy -178529.914477 kJ/mol
# GULP energy per Si atom -5579.059827 kJ/mol
# Density = 2.593170 g / cm^3
# Si number density = 25.990852 Si / 1000 Ang^3
#
#
#
# Elastic Constant Matrix: (Units=GPa)
#
#
# Indices 1 2 3 4 5 6 
#
# 1 84.8739 33.1136 15.9192 0.0000 0.0000 0.0000
# 2 33.1136 227.0814 91.9676 0.0000 0.0000 0.0000
# 3 15.9192 91.9676 150.1210 0.0000 0.0000 0.0000
# 4 0.0000 0.0000 0.0000 22.5110 0.0000 0.0000
# 5 0.0000 0.0000 0.0000 0.0000 30.4716 0.0000
# 6 0.0000 0.0000 0.0000 0.0000 0.0000 35.1389
#
#
#
# Elastic Compliance Matrix: (Units=1/GPa)
#
#
# Indices 1 2 3 4 5 6 
#
# 1 0.012502 -0.001711 -0.000278 0.000000 0.000000 0.000000
# 2 -0.001711 0.006091 -0.003550 0.000000 0.000000 0.000000
# 3 -0.000278 -0.003550 0.008866 0.000000 0.000000 0.000000
# 4 0.000000 0.000000 0.000000 0.044423 0.000000 0.000000
# 5 0.000000 0.000000 0.000000 0.000000 0.032817 0.000000
# 6 0.000000 0.000000 0.000000 0.000000 0.000000 0.028458
#
#
# Mechanical properties :
#
#
# Convention : Reuss Voigt Hill
#
# Bulk Modulus (GPa) = 61.04477 82.67523 71.86000
# Shear Modulus (GPa) = 33.40151 39.02938 36.21544
#
# Velocity S-wave (km/s) = 3.58875 3.87933 3.73687
# Velocity P-wave (km/s) = 6.38046 7.20722 6.80640
#
# Compressibility (1/GPa) = 0.01638142
#
# Stress axis : x y z
#
# Youngs Moduli (GPa) = 79.98942 164.17940 112.79573
#
# Poissons Ratio (x) = 0.28083 0.03134
# Poissons Ratio (y) = 0.13682 0.40043
# Poissons Ratio (z) = 0.02222 0.58284
#
# Static dielectric constant tensor:
#      x y z
#    x 2.133280 0.000000 0.000000 
#    y 0.000000 2.026270 0.000000 
#    z 0.000000 0.000000 2.237430 
# 
# From -- ./inp_files/4243.got.cif
#   From: 2010.05.17/outbox.cif.g08.bks.cpg/sg62_3_cif.got.tgz:4243.got - 2010.06.03 15:25:27.
