data_PCOD9467227
_publ_section_title
;
Structure prediction by ZEFSAII (Michael W. Deem and Ramdas Pophale) SiO2 
 PCOD9467227
Probable space group: P N M A
;
_chemical_formula_sum "Si O2"
_cell_formula_units_Z 52
_cell_length_a 18.800550
_cell_length_b 21.943238
_cell_length_c 5.305218
_cell_angle_alpha 90.000000
_cell_angle_beta 90.000000
_cell_angle_gamma 90.000000
_cell_volume 2188.640858
_symmetry_space_group_name_H-M "P N M A"
_symmetry_group_IT_number 62
_symmetry_cell_setting 'orthorhombic'
loop_
_space_group_symop_operation_xyz
x,y,z
1/2-x,-y,1/2+z
1/2+x,1/2-y,1/2-z
-x,1/2+y,-z
-x,-y,-z
1/2+x,y,1/2-z
1/2-x,1/2+y,1/2+z
x,1/2-y,z
loop_
_atom_site_type_symbol
_atom_site_label
_atom_site_fract_x
_atom_site_fract_y
_atom_site_fract_z
Si Si1 0.448603 0.861277 0.743151
Si Si2 0.523180 0.821146 0.230924
Si Si3 0.694831 0.927850 0.862554
Si Si4 0.282733 0.850085 0.263675
Si Si5 0.841975 0.184026 0.047647
Si Si6 0.650602 0.250000 0.360303
Si Si7 0.657205 0.447569 0.064031
O O1 0.485068 0.849984 0.474361
O O2 0.395375 0.804107 0.778213
O O3 0.503575 0.854727 0.974344
O O4 0.404629 0.924123 0.753860
O O5 0.500202 0.750000 0.218376
O O6 0.605870 0.820214 0.309506
O O7 0.652493 0.875927 0.713864
O O8 0.765111 0.946510 0.699470
O O9 0.650620 0.986876 0.938402
O O10 0.726956 0.895907 0.108260
O O11 0.239811 0.816071 0.043059
O O12 0.310328 0.803114 0.466516
O O13 0.340921 0.894480 0.146012
O O14 0.857292 0.250000 0.173221
#
# Coordination Sequence:
#
# PCOD9467227 Si02
#       7
#     8   8   8   8   8   4   8
#     4  12  25  42  72 102 144 184 236 288 351 420
#     4  11  24  46  69 100 139 195 237 289 347 418
#     4  11  23  42  66  98 137 185 232 292 359 436
#     4  11  23  40  69 101 145 174 232 297 366 428
#     4  10  25  43  70 100 138 186 240 294 357 418
#     4  12  22  40  68 110 138 172 222 300 360 416
#     4  11  24  41  67 100 138 189 231 288 367 433
#
# _framework density 23.759036999999999
#
# number of rings (size 3 to 8) (size 9 to 14) (size 15 to 20)
#    0.000    0.923    5.385    0.923    3.231    0.615 
#    0.000    1.538    0.000    0.000    0.000    0.000 
#    0.000    0.000    0.000    0.000    0.000    0.000 
#
# Total GULP energy -290115.112881 kJ/mol
# GULP energy per Si atom -5579.136786 kJ/mol
# Density = 2.370496 g / cm^3
# Si number density = 23.759037 Si / 1000 Ang^3
#
#
#
# Elastic Constant Matrix: (Units=GPa)
#
#
# Indices 1 2 3 4 5 6 
#
# 1 60.4948 24.7695 23.3739 0.0000 0.0000 0.0000
# 2 24.7695 146.2881 30.8127 0.0000 0.0000 0.0000
# 3 23.3739 30.8127 81.6607 0.0000 0.0000 0.0000
# 4 0.0000 0.0000 0.0000 36.0779 0.0000 0.0000
# 5 0.0000 0.0000 0.0000 0.0000 46.3255 0.0000
# 6 0.0000 0.0000 0.0000 0.0000 0.0000 11.9861
#
#
#
# Elastic Compliance Matrix: (Units=1/GPa)
#
#
# Indices 1 2 3 4 5 6 
#
# 1 0.019262 -0.002281 -0.004653 0.000000 0.000000 0.000000
# 2 -0.002281 0.007696 -0.002251 0.000000 0.000000 0.000000
# 3 -0.004653 -0.002251 0.014427 0.000000 0.000000 0.000000
# 4 0.000000 0.000000 0.000000 0.027718 0.000000 0.000000
# 5 0.000000 0.000000 0.000000 0.000000 0.021586 0.000000
# 6 0.000000 0.000000 0.000000 0.000000 0.000000 0.083430
#
#
# Mechanical properties :
#
#
# Convention : Reuss Voigt Hill
#
# Bulk Modulus (GPa) = 43.44953 49.59509 46.52231
# Shear Modulus (GPa) = 24.97984 32.84372 28.91178
#
# Velocity S-wave (km/s) = 3.24602 3.72205 3.49216
# Velocity P-wave (km/s) = 5.69000 6.27623 5.99029
#
# Compressibility (1/GPa) = 0.02301521
#
# Stress axis : x y z
#
# Youngs Moduli (GPa) = 51.91526 129.93337 69.31516
#
# Poissons Ratio (x) = 0.29644 0.32249
# Poissons Ratio (y) = 0.11844 0.15603
# Poissons Ratio (z) = 0.24154 0.29248
#
# Static dielectric constant tensor:
#      x y z
#    x 1.952870 0.000000 0.000000 
#    y 0.000000 1.857870 0.000000 
#    z 0.000000 0.000000 1.990240 
# 
# From -- ./inp_files/2233.got.cif
#   From: 2010.05.17/outbox.cif.g08.bks.cpg/sg62_2_cif.got.tgz:2233.got - 2010.06.03 15:25:27.
