data_PCOD9467687
_publ_section_title
;
Structure prediction by ZEFSAII (Michael W. Deem and Ramdas Pophale) SiO2 
 PCOD9467687
Probable space group: P N M A
;
_chemical_formula_sum "Si O2"
_cell_formula_units_Z 24
_cell_length_a 15.315709
_cell_length_b 14.169253
_cell_length_c 4.845140
_cell_angle_alpha 90.000000
_cell_angle_beta 90.000000
_cell_angle_gamma 90.000000
_cell_volume 1051.454276
_symmetry_space_group_name_H-M "P N M A"
_symmetry_group_IT_number 62
_symmetry_cell_setting 'orthorhombic'
loop_
_space_group_symop_operation_xyz
x,y,z
1/2-x,-y,1/2+z
1/2+x,1/2-y,1/2-z
-x,1/2+y,-z
-x,-y,-z
1/2+x,y,1/2-z
1/2-x,1/2+y,1/2+z
x,1/2-y,z
loop_
_atom_site_type_symbol
_atom_site_label
_atom_site_fract_x
_atom_site_fract_y
_atom_site_fract_z
Si Si1 0.468251 0.937481 0.244991
Si Si2 0.921169 0.250000 0.758989
Si Si3 0.222890 0.058852 0.514386
Si Si4 0.801908 0.250000 0.244689
O O1 0.519119 0.840315 0.222496
O O2 0.365518 0.924516 0.187429
O O3 0.500000 0.000000 0.500000
O O4 0.500000 0.000000 0.000000
O O5 0.834840 0.250000 0.561648
O O6 0.891194 0.250000 0.074406
O O7 0.253847 0.154910 0.361735
O O8 0.215044 0.984192 0.258139
#
# Coordination Sequence:
#
# PCOD9467687 Si02
#       4
#     8   4   8   4
#     4  12  25  44  69 100 138 183 232 289 351 419
#     4  12  25  44  69 100 135 178 229 284 345 412
#     4  12  25  44  69 100 137 181 231 288 350 417
#     4  12  25  44  69 100 135 178 229 286 345 412
#
# _framework density 22.825527000000001
#
# number of rings (size 3 to 8) (size 9 to 14) (size 15 to 20)
#    0.000    0.000    0.000   13.000    0.000    0.000 
#    0.000   10.000    0.000    0.000    0.000    0.000 
#    0.000    0.000    0.000    0.000    0.000    0.000 
#
# Total GULP energy -134179.524197 kJ/mol
# GULP energy per Si atom -5590.813508 kJ/mol
# Density = 2.277358 g / cm^3
# Si number density = 22.825527 Si / 1000 Ang^3
#
#
#
# Elastic Constant Matrix: (Units=GPa)
#
#
# Indices 1 2 3 4 5 6 
#
# 1 100.0021 48.1961 5.1824 0.0000 0.0000 0.0000
# 2 48.1961 197.7484 43.3280 0.0000 0.0000 0.0000
# 3 5.1824 43.3280 143.3599 0.0000 0.0000 0.0000
# 4 0.0000 0.0000 0.0000 11.1054 0.0000 0.0000
# 5 0.0000 0.0000 0.0000 0.0000 35.7686 0.0000
# 6 0.0000 0.0000 0.0000 0.0000 0.0000 45.6281
#
#
#
# Elastic Compliance Matrix: (Units=1/GPa)
#
#
# Indices 1 2 3 4 5 6 
#
# 1 0.011359 -0.002868 0.000456 0.000000 0.000000 0.000000
# 2 -0.002868 0.006140 -0.001752 0.000000 0.000000 0.000000
# 3 0.000456 -0.001752 0.007488 0.000000 0.000000 0.000000
# 4 0.000000 0.000000 0.000000 0.090046 0.000000 0.000000
# 5 0.000000 0.000000 0.000000 0.000000 0.027957 0.000000
# 6 0.000000 0.000000 0.000000 0.000000 0.000000 0.021916
#
#
# Mechanical properties :
#
#
# Convention : Reuss Voigt Hill
#
# Bulk Modulus (GPa) = 60.02816 70.50261 65.26539
# Shear Modulus (GPa) = 27.96613 41.46068 34.71341
#
# Velocity S-wave (km/s) = 3.50410 4.26657 3.90399
# Velocity P-wave (km/s) = 6.53662 7.43143 6.99834
#
# Compressibility (1/GPa) = 0.01665885
#
# Stress axis : x y z
#
# Youngs Moduli (GPa) = 88.03950 162.86957 133.53877
#
# Poissons Ratio (x) = 0.46716 -0.06093
# Poissons Ratio (y) = 0.25253 0.23396
# Poissons Ratio (z) = -0.04017 0.28534
#
# Static dielectric constant tensor:
#      x y z
#    x 3.705850 0.000000 0.000000 
#    y 0.000000 1.828860 0.000000 
#    z 0.000000 0.000000 1.783760 
# 
# From -- ./inp_files/820.got.cif
#   From: 2010.05.17/outbox.cif.g08.bks.cpg/sg62_1_cif.got.tgz:820.got - 2010.06.03 15:25:27.
