data_PCOD9467969
_publ_section_title
;
Structure prediction by ZEFSAII (Michael W. Deem and Ramdas Pophale) SiO2 
 PCOD9467969
Probable space group: P N M A
;
_chemical_formula_sum "Si O2"
_cell_formula_units_Z 40
_cell_length_a 9.000000
_cell_length_b 9.000000
_cell_length_c 24.000000
_cell_angle_alpha 90.000000
_cell_angle_beta 90.000000
_cell_angle_gamma 90.000000
_cell_volume 1944.000000
_symmetry_space_group_name_H-M "P N M A"
_symmetry_group_IT_number 62
_symmetry_cell_setting 'orthorhombic'
loop_
_space_group_symop_operation_xyz
x,y,z
1/2-x,-y,1/2+z
1/2+x,1/2-y,1/2-z
-x,1/2+y,-z
-x,-y,-z
1/2+x,y,1/2-z
1/2-x,1/2+y,1/2+z
x,1/2-y,z
loop_
_atom_site_type_symbol
_atom_site_label
_atom_site_fract_x
_atom_site_fract_y
_atom_site_fract_z
Si Si1 0.057226 0.570701 0.809294
Si Si2 0.981803 0.079572 0.318552
Si Si3 0.700670 0.420285 0.391278
Si Si4 0.712055 0.924782 0.115676
Si Si5 0.164221 0.571879 0.996736
O O1 0.074621 0.750000 0.809964
O O2 0.009934 0.533235 0.746195
O O3 0.202823 0.487424 0.829704
O O4 0.947444 0.529295 0.859816
O O5 0.042001 0.250000 0.323176
O O6 0.813303 0.086226 0.339603
O O7 0.049274 0.970651 0.364659
O O8 0.682475 0.250000 0.411672
O O9 0.738068 0.518585 0.445049
O O10 0.734191 0.750000 0.108620
O O11 0.758301 0.008406 0.058968
O O12 0.157233 0.750000 0.993768
O O13 0.000000 0.500000 0.000000
#
# Coordination Sequence:
#
# PCOD9467969 Si02
#       5
#     8   8   8   8   8
#     4  10  20  39  67  93 122 164 209 253 302 366
#     4  10  22  41  64  93 127 166 207 250 305 367
#     4  10  21  38  64  94 124 160 207 257 305 363
#     4  12  25  40  62  93 127 165 206 255 310 364
#     4  12  24  41  65  90 120 159 207 259 310 371
#
# _framework density 20.576132000000001
#
# number of rings (size 3 to 8) (size 9 to 14) (size 15 to 20)
#    0.000    1.200    2.000    4.800    0.000    5.600 
#    0.000    2.000    0.000    0.000    0.000    0.000 
#    0.000    0.000    0.000    0.000    0.000    0.000 
#
# Total GULP energy -223103.013041 kJ/mol
# GULP energy per Si atom -5577.575326 kJ/mol
# Density = 2.052930 g / cm^3
# Si number density = 20.576132 Si / 1000 Ang^3
#
#
#
# Elastic Constant Matrix: (Units=GPa)
#
#
# Indices 1 2 3 4 5 6 
#
# 1 17.6184 -10.6471 3.0245 0.0000 0.0000 0.0000
# 2 -10.6471 70.3301 59.2810 0.0000 0.0000 0.0000
# 3 3.0245 59.2810 146.8605 0.0000 0.0000 0.0000
# 4 0.0000 0.0000 0.0000 33.5079 0.0000 0.0000
# 5 0.0000 0.0000 0.0000 0.0000 13.6877 0.0000
# 6 0.0000 0.0000 0.0000 0.0000 0.0000 21.8307
#
#
#
# Elastic Compliance Matrix: (Units=1/GPa)
#
#
# Indices 1 2 3 4 5 6 
#
# 1 0.068867 0.017614 -0.008528 0.000000 0.000000 0.000000
# 2 0.017614 0.026056 -0.010881 0.000000 0.000000 0.000000
# 3 -0.008528 -0.010881 0.011377 0.000000 0.000000 0.000000
# 4 0.000000 0.000000 0.000000 0.029844 0.000000 0.000000
# 5 0.000000 0.000000 0.000000 0.000000 0.073059 0.000000
# 6 0.000000 0.000000 0.000000 0.000000 0.000000 0.045807
#
#
# Mechanical properties :
#
#
# Convention : Reuss Voigt Hill
#
# Bulk Modulus (GPa) = 9.73604 37.56953 23.65278
# Shear Modulus (GPa) = 17.07438 26.01529 21.54483
#
# Velocity S-wave (km/s) = 2.88378 3.55962 3.23937
# Velocity P-wave (km/s) = 3.97872 5.93236 5.05090
#
# Compressibility (1/GPa) = 0.10271120
#
# Stress axis : x y z
#
# Youngs Moduli (GPa) = 14.52064 38.37834 87.89823
#
# Poissons Ratio (x) = -0.67600 0.74962
# Poissons Ratio (y) = -0.25577 0.95638
# Poissons Ratio (z) = 0.12384 0.41758
#
# Static dielectric constant tensor:
#      x y z
#    x 1.814580 0.000000 0.000000 
#    y 0.000000 1.711280 0.000000 
#    z 0.000000 0.000000 1.679070 
# 
# From -- ./inp_files/28577.got.cif
#   From: 2010.05.17/outbox.ucp.g08.bks.cvg/sg62_15_cif.got.tgz:28577.got - 2010.06.11 16:29:25.
