data_PCOD9467636
_publ_section_title
;
Structure prediction by ZEFSAII (Michael W. Deem and Ramdas Pophale) SiO2 
 PCOD9467636
Probable space group: P N M A
;
_chemical_formula_sum "Si O2"
_cell_formula_units_Z 40
_cell_length_a 14.251507
_cell_length_b 8.991362
_cell_length_c 13.087205
_cell_angle_alpha 90.000000
_cell_angle_beta 90.000000
_cell_angle_gamma 90.000000
_cell_volume 1677.000449
_symmetry_space_group_name_H-M "P N M A"
_symmetry_group_IT_number 62
_symmetry_cell_setting 'orthorhombic'
loop_
_space_group_symop_operation_xyz
x,y,z
1/2-x,-y,1/2+z
1/2+x,1/2-y,1/2-z
-x,1/2+y,-z
-x,-y,-z
1/2+x,y,1/2-z
1/2-x,1/2+y,1/2+z
x,1/2-y,z
loop_
_atom_site_type_symbol
_atom_site_label
_atom_site_fract_x
_atom_site_fract_y
_atom_site_fract_z
Si Si1 0.773396 0.918018 0.290925
Si Si2 0.046445 0.572228 0.399311
Si Si3 0.057511 0.574202 0.793771
Si Si4 0.723742 0.077786 0.026606
Si Si5 0.405348 0.426423 0.584105
O O1 0.785189 0.750000 0.252703
O O2 0.812748 0.922508 0.408100
O O3 0.664535 0.945521 0.317198
O O4 0.834282 0.027062 0.222714
O O5 0.037380 0.750000 0.398364
O O6 0.995511 0.501470 0.301966
O O7 0.156193 0.525947 0.408976
O O8 0.000000 0.500000 0.500000
O O9 0.050818 0.750000 0.789601
O O10 0.997746 0.517482 0.890874
O O11 0.720224 0.250000 0.060844
O O12 0.831752 0.032817 0.005422
O O13 0.424859 0.250000 0.575500
#
# Coordination Sequence:
#
# PCOD9467636 Si02
#       5
#     8   8   8   8   8
#     4   8  16  31  49  65  91 125 156 194 233 274
#     4  12  21  29  44  67  97 127 156 192 236 287
#     4  12  22  29  46  73 100 129 160 194 233 283
#     4   8  16  31  48  64  89 123 153 189 233 276
#     4   8  17  33  49  65  91 125 160 196 233 279
#
# _framework density 23.852111000000001
#
# number of rings (size 3 to 8) (size 9 to 14) (size 15 to 20)
#    1.200    1.200    2.000    3.600    0.000    1.600 
#    0.000    0.000    0.000    0.000    0.000    1.400 
#    0.000    0.000    0.000    0.000    0.000    0.000 
#
# Total GULP energy -223453.255133 kJ/mol
# GULP energy per Si atom -5586.331378 kJ/mol
# Density = 2.379782 g / cm^3
# Si number density = 23.852111 Si / 1000 Ang^3
#
#
#
# Elastic Constant Matrix: (Units=GPa)
#
#
# Indices 1 2 3 4 5 6 
#
# 1 144.5184 74.0233 13.8779 0.0000 0.0000 0.0000
# 2 74.0233 124.0895 31.6299 0.0000 0.0000 0.0000
# 3 13.8779 31.6299 91.6630 0.0000 0.0000 0.0000
# 4 0.0000 0.0000 0.0000 19.0757 0.0000 0.0000
# 5 0.0000 0.0000 0.0000 0.0000 41.3899 0.0000
# 6 0.0000 0.0000 0.0000 0.0000 0.0000 26.6734
#
#
#
# Elastic Compliance Matrix: (Units=1/GPa)
#
#
# Indices 1 2 3 4 5 6 
#
# 1 0.009994 -0.006114 0.000597 0.000000 0.000000 0.000000
# 2 -0.006114 0.012576 -0.003414 0.000000 0.000000 0.000000
# 3 0.000597 -0.003414 0.011997 0.000000 0.000000 0.000000
# 4 0.000000 0.000000 0.000000 0.052423 0.000000 0.000000
# 5 0.000000 0.000000 0.000000 0.000000 0.024160 0.000000
# 6 0.000000 0.000000 0.000000 0.000000 0.000000 0.037490
#
#
# Mechanical properties :
#
#
# Convention : Reuss Voigt Hill
#
# Bulk Modulus (GPa) = 59.86289 66.59258 63.22774
# Shear Modulus (GPa) = 29.05784 33.47714 31.26749
#
# Velocity S-wave (km/s) = 3.49413 3.75043 3.62455
# Velocity P-wave (km/s) = 6.43666 6.83622 6.63945
#
# Compressibility (1/GPa) = 0.01670484
#
# Stress axis : x y z
#
# Youngs Moduli (GPa) = 100.06326 79.51750 83.35253
#
# Poissons Ratio (x) = 0.48614 -0.04972
# Poissons Ratio (y) = 0.61175 0.28456
# Poissons Ratio (z) = -0.05969 0.27147
#
# Static dielectric constant tensor:
#      x y z
#    x 2.010980 0.000000 0.000000 
#    y 0.000000 1.772580 0.000000 
#    z 0.000000 0.000000 2.006190 
# 
# From -- ./inp_files/18643.got.cif
#   From: 2010.05.17/outbox.cif.g08.bks.cpg/sg62_10_cif.got.tgz:18643.got - 2010.06.03 15:25:27.
