data_PCOD9467884
_publ_section_title
;
Structure prediction by ZEFSAII (Michael W. Deem and Ramdas Pophale) SiO2 
 PCOD9467884
Probable space group: P N M A
;
_chemical_formula_sum "Si O2"
_cell_formula_units_Z 56
_cell_length_a 15.000000
_cell_length_b 9.000000
_cell_length_c 21.000000
_cell_angle_alpha 90.000000
_cell_angle_beta 90.000000
_cell_angle_gamma 90.000000
_cell_volume 2835.000000
_symmetry_space_group_name_H-M "P N M A"
_symmetry_group_IT_number 62
_symmetry_cell_setting 'orthorhombic'
loop_
_space_group_symop_operation_xyz
x,y,z
1/2-x,-y,1/2+z
1/2+x,1/2-y,1/2-z
-x,1/2+y,-z
-x,-y,-z
1/2+x,y,1/2-z
1/2-x,1/2+y,1/2+z
x,1/2-y,z
loop_
_atom_site_type_symbol
_atom_site_label
_atom_site_fract_x
_atom_site_fract_y
_atom_site_fract_z
Si Si1 0.996127 0.925418 0.308861
Si Si2 0.688355 0.927067 0.764969
Si Si3 0.714513 0.921528 0.374107
Si Si4 0.747875 0.424324 0.010897
Si Si5 0.023521 0.581933 0.168920
Si Si6 0.047912 0.077918 0.440490
Si Si7 0.151112 0.927387 0.871282
O O1 0.989563 0.750000 0.321046
O O2 0.049927 0.947623 0.242687
O O3 0.029727 0.002713 0.372696
O O4 0.900765 0.993390 0.290057
O O5 0.676188 0.750000 0.765616
O O6 0.705260 0.974468 0.691927
O O7 0.760949 0.978694 0.814559
O O8 0.745122 0.750000 0.363345
O O9 0.753560 0.985181 0.439585
O O10 0.608147 0.919681 0.376416
O O11 0.771541 0.250000 0.000395
O O12 0.652277 0.429043 0.043564
O O13 0.815712 0.491634 0.061969
O O14 0.985343 0.750000 0.169263
O O15 0.949238 0.470196 0.145062
O O16 0.020245 0.250000 0.437504
O O17 0.000000 0.000000 0.500000
O O18 0.160730 0.750000 0.875846
#
# Coordination Sequence:
#
# PCOD9467884 Si02
#       7
#     8   8   8   8   8   8   8
#     4  10  20  36  55  78 111 147 184 228 281 336
#     4  10  20  34  56  83 110 141 185 235 278 329
#     4  10  20  36  57  80 111 148 184 223 280 342
#     4   9  20  37  56  79 109 148 184 224 281 338
#     4   9  20  36  55  82 111 143 184 229 280 334
#     4  11  22  36  57  83 114 150 190 233 283 339
#     4   9  19  37  57  79 108 144 185 229 279 331
#
# _framework density 19.753086
#
# number of rings (size 3 to 8) (size 9 to 14) (size 15 to 20)
#    0.000    2.286    0.000    2.143    2.000    3.429 
#    0.000    2.857    0.000    0.000    0.000    0.000 
#    0.000    0.000    0.000    0.000    0.000    0.000 
#
# Total GULP energy -312056.449978 kJ/mol
# GULP energy per Si atom -5572.436607 kJ/mol
# Density = 1.970813 g / cm^3
# Si number density = 19.753086 Si / 1000 Ang^3
#
#
#
# Elastic Constant Matrix: (Units=GPa)
#
#
# Indices 1 2 3 4 5 6 
#
# 1 20.2978 8.5243 10.8291 0.0000 0.0000 0.0000
# 2 8.5243 41.3060 9.0959 0.0000 0.0000 0.0000
# 3 10.8291 9.0959 -57.7601 0.0000 0.0000 0.0000
# 4 0.0000 0.0000 0.0000 21.6554 0.0000 0.0000
# 5 0.0000 0.0000 0.0000 0.0000 30.8121 0.0000
# 6 0.0000 0.0000 0.0000 0.0000 0.0000 14.6979
#
#
#
# Elastic Compliance Matrix: (Units=1/GPa)
#
#
# Indices 1 2 3 4 5 6 
#
# 1 0.050303 -0.012040 0.007535 0.000000 0.000000 0.000000
# 2 -0.012040 0.026280 0.001881 0.000000 0.000000 0.000000
# 3 0.007535 0.001881 -0.015604 0.000000 0.000000 0.000000
# 4 0.000000 0.000000 0.000000 0.046178 0.000000 0.000000
# 5 0.000000 0.000000 0.000000 0.000000 0.032455 0.000000
# 6 0.000000 0.000000 0.000000 0.000000 0.000000 0.068037
#
#
# Mechanical properties :
#
#
# Convention : Reuss Voigt Hill
#
# Bulk Modulus (GPa) = 17.94347 6.74914 12.34631
# Shear Modulus (GPa) = 21.60072 11.79269 16.69670
#
# Velocity S-wave (km/s) = 3.31045 2.44602 2.91051
# Velocity P-wave (km/s) = 4.86988 3.37661 4.19030
#
# Compressibility (1/GPa) = 0.05573057
#
# Stress axis : x y z
#
# Youngs Moduli (GPa) = 19.87957 38.05161 -64.08587
#
# Poissons Ratio (x) = 0.45815 0.48288
# Poissons Ratio (y) = 0.23936 0.12055
# Poissons Ratio (z) = -0.14979 -0.07158
#
# Static dielectric constant tensor:
#      x y z
#    x 1.724920 0.000000 0.000000 
#    y 0.000000 1.692230 0.000000 
#    z 0.000000 0.000000 1.731610 
# 
# From -- ./inp_files/27247.got.cif
#   From: 2010.05.17/outbox.ucp.g08.bks.cvg/sg62_14_cif.got.tgz:27247.got - 2010.06.11 16:29:25.
