data_PCOD9467718
_publ_section_title
;
Structure prediction by ZEFSAII (Michael W. Deem and Ramdas Pophale) SiO2 
 PCOD9467718
Probable space group: P N M A
;
_chemical_formula_sum "Si O2"
_cell_formula_units_Z 64
_cell_length_a 8.007271
_cell_length_b 9.141527
_cell_length_c 38.795415
_cell_angle_alpha 90.000000
_cell_angle_beta 90.000000
_cell_angle_gamma 90.000000
_cell_volume 2839.773325
_symmetry_space_group_name_H-M "P N M A"
_symmetry_group_IT_number 62
_symmetry_cell_setting 'orthorhombic'
loop_
_space_group_symop_operation_xyz
x,y,z
1/2-x,-y,1/2+z
1/2+x,1/2-y,1/2-z
-x,1/2+y,-z
-x,-y,-z
1/2+x,y,1/2-z
1/2-x,1/2+y,1/2+z
x,1/2-y,z
loop_
_atom_site_type_symbol
_atom_site_label
_atom_site_fract_x
_atom_site_fract_y
_atom_site_fract_z
Si Si1 0.371048 0.571982 0.113571
Si Si2 0.880639 0.578616 0.135757
Si Si3 0.268653 0.081053 0.505942
Si Si4 0.460975 0.073881 0.570019
Si Si5 0.064225 0.420951 0.195783
Si Si6 0.220825 0.077686 0.261453
Si Si7 0.463112 0.079048 0.821395
Si Si8 0.423041 0.418532 0.949094
O O1 0.386749 0.750000 0.114863
O O2 0.198141 0.542128 0.094717
O O3 0.395683 0.519292 0.152601
O O4 0.513860 0.518003 0.087173
O O5 0.924004 0.750000 0.134914
O O6 0.891965 0.526984 0.096003
O O7 0.011506 0.501970 0.161208
O O8 0.701410 0.568035 0.153883
O O9 0.307573 0.250000 0.497712
O O10 0.406329 0.016009 0.532450
O O11 0.094735 0.082539 0.528139
O O12 0.219056 0.994808 0.471651
O O13 0.469794 0.250000 0.564932
O O14 0.091817 0.250000 0.187909
O O15 0.899348 0.435650 0.220319
O O16 0.205518 0.478490 0.222176
O O17 0.181819 0.250000 0.259745
O O18 0.089363 0.002919 0.287030
O O19 0.492627 0.250000 0.813658
O O20 0.373388 0.250000 0.943764
#
# Coordination Sequence:
#
# PCOD9467718 Si02
#       8
#     8   8   8   8   8   8   8   8
#     4   8  14  25  41  61  84 109 136 167 205 245
#     4   9  17  29  45  64  84 107 137 170 202 239
#     4   8  13  22  37  56  78 104 133 165 201 239
#     4   8  14  25  41  61  84 109 136 167 205 245
#     4   9  18  32  47  62  83 111 138 164 200 245
#     4   9  18  32  47  62  83 111 138 164 200 245
#     4   9  17  29  45  64  84 107 137 170 202 239
#     4   8  13  22  37  56  78 104 133 165 201 239
#
# _framework density 22.537009000000001
#
# number of rings (size 3 to 8) (size 9 to 14) (size 15 to 20)
#    0.000    3.500    0.000    1.500    0.000    1.500 
#    0.000    1.250    0.000    2.250    0.000    0.000 
#    0.000    0.000    0.000    0.000    0.000    0.000 
#
# Total GULP energy -356933.340442 kJ/mol
# GULP energy per Si atom -5577.083444 kJ/mol
# Density = 2.248571 g / cm^3
# Si number density = 22.537009 Si / 1000 Ang^3
#
#
#
# Elastic Constant Matrix: (Units=GPa)
#
#
# Indices 1 2 3 4 5 6 
#
# 1 59.9081 -0.5960 0.6141 0.0000 0.0000 0.0000
# 2 -0.5960 7.1991 17.3678 0.0000 0.0000 0.0000
# 3 0.6141 17.3678 145.1679 0.0000 0.0000 0.0000
# 4 0.0000 0.0000 0.0000 25.8676 0.0000 0.0000
# 5 0.0000 0.0000 0.0000 0.0000 48.6254 0.0000
# 6 0.0000 0.0000 0.0000 0.0000 0.0000 7.3338
#
#
#
# Elastic Compliance Matrix: (Units=1/GPa)
#
#
# Indices 1 2 3 4 5 6 
#
# 1 0.016717 0.002185 -0.000332 0.000000 0.000000 0.000000
# 2 0.002185 0.195550 -0.023405 0.000000 0.000000 0.000000
# 3 -0.000332 -0.023405 0.009690 0.000000 0.000000 0.000000
# 4 0.000000 0.000000 0.000000 0.038658 0.000000 0.000000
# 5 0.000000 0.000000 0.000000 0.000000 0.020565 0.000000
# 6 0.000000 0.000000 0.000000 0.000000 0.000000 0.136354
#
#
# Mechanical properties :
#
#
# Convention : Reuss Voigt Hill
#
# Bulk Modulus (GPa) = 5.59114 27.44967 16.52040
# Shear Modulus (GPa) = 9.61064 29.35798 19.48431
#
# Velocity S-wave (km/s) = 2.06728 3.61315 2.94351
# Velocity P-wave (km/s) = 2.86085 5.44176 4.34725
#
# Compressibility (1/GPa) = 0.17885427
#
# Stress axis : x y z
#
# Youngs Moduli (GPa) = 59.81797 5.11379 103.19810
#
# Poissons Ratio (x) = -0.01118 0.03428
# Poissons Ratio (y) = -0.13072 2.41532
# Poissons Ratio (z) = 0.01987 0.11969
#
# Static dielectric constant tensor:
#      x y z
#    x 1.977630 0.000000 0.000000 
#    y 0.000000 1.766320 0.000000 
#    z 0.000000 0.000000 1.851090 
# 
# From -- ./inp_files/32221.got.cif
#   From: 2010.05.17/outbox.cif.g08.bks.cpg/sg62_17_cif.got.tgz:32221.got - 2010.06.03 15:25:27.
