data_PCOD9467540
_publ_section_title
;
Structure prediction by ZEFSAII (Michael W. Deem and Ramdas Pophale) SiO2 
 PCOD9467540
Probable space group: P N M A
;
_chemical_formula_sum "Si O2"
_cell_formula_units_Z 48
_cell_length_a 16.834410
_cell_length_b 23.944812
_cell_length_c 4.972579
_cell_angle_alpha 90.000000
_cell_angle_beta 90.000000
_cell_angle_gamma 90.000000
_cell_volume 2004.430596
_symmetry_space_group_name_H-M "P N M A"
_symmetry_group_IT_number 62
_symmetry_cell_setting 'orthorhombic'
loop_
_space_group_symop_operation_xyz
x,y,z
1/2-x,-y,1/2+z
1/2+x,1/2-y,1/2-z
-x,1/2+y,-z
-x,-y,-z
1/2+x,y,1/2-z
1/2-x,1/2+y,1/2+z
x,1/2-y,z
loop_
_atom_site_type_symbol
_atom_site_label
_atom_site_fract_x
_atom_site_fract_y
_atom_site_fract_z
Si Si1 0.541984 0.615854 0.880660
Si Si2 0.354070 0.461257 0.803608
Si Si3 0.560162 0.139759 0.618406
Si Si4 0.807001 0.138857 0.094735
Si Si5 0.191421 0.429309 0.061205
Si Si6 0.365640 0.750000 0.628851
Si Si7 0.240912 0.250000 0.638964
O O1 0.493748 0.609913 0.606572
O O2 0.623088 0.649008 0.810410
O O3 0.574904 0.558401 0.006369
O O4 0.488320 0.644768 0.107736
O O5 0.339611 0.412561 0.584112
O O6 0.362300 0.522636 0.688057
O O7 0.270312 0.460311 0.960631
O O8 0.639725 0.103230 0.658122
O O9 0.585529 0.196646 0.472677
O O10 0.727197 0.117087 0.238883
O O11 0.788598 0.194012 0.929194
O O12 0.336389 0.750000 0.937519
O O13 0.286277 0.750000 0.446128
#
# Coordination Sequence:
#
# PCOD9467540 Si02
#       7
#     8   8   8   8   8   4   4
#     4  11  27  47  67 104 147 185 236 285 362 438
#     4  11  23  46  70 110 139 191 241 293 356 424
#     4  12  26  47  70 103 144 190 233 294 362 425
#     4  11  24  48  69 108 140 185 242 292 360 418
#     4  11  24  40  78  99 144 185 242 299 348 419
#     4  12  26  46  71 109 136 181 240 298 351 422
#     4  12  26  44  79 105 138 177 242 304 339 422
#
# _framework density 23.946950000000001
#
# number of rings (size 3 to 8) (size 9 to 14) (size 15 to 20)
#    0.000    0.667    5.000    2.000    4.667    2.667 
#    0.000    0.833    0.000    0.000    0.000    0.000 
#    0.000    0.000    0.000    0.000    0.000    0.000 
#
# Total GULP energy -268811.735026 kJ/mol
# GULP energy per Si atom -5600.244480 kJ/mol
# Density = 2.389245 g / cm^3
# Si number density = 23.946950 Si / 1000 Ang^3
#
#
#
# Elastic Constant Matrix: (Units=GPa)
#
#
# Indices 1 2 3 4 5 6 
#
# 1 62.2324 29.2707 15.8245 0.0000 0.0000 0.0000
# 2 29.2707 81.5512 -6.6922 0.0000 0.0000 0.0000
# 3 15.8245 -6.6922 83.1032 0.0000 0.0000 0.0000
# 4 0.0000 0.0000 0.0000 18.8862 0.0000 0.0000
# 5 0.0000 0.0000 0.0000 0.0000 58.5811 0.0000
# 6 0.0000 0.0000 0.0000 0.0000 0.0000 9.0244
#
#
#
# Elastic Compliance Matrix: (Units=1/GPa)
#
#
# Indices 1 2 3 4 5 6 
#
# 1 0.020963 -0.007904 -0.004628 0.000000 0.000000 0.000000
# 2 -0.007904 0.015324 0.002739 0.000000 0.000000 0.000000
# 3 -0.004628 0.002739 0.013135 0.000000 0.000000 0.000000
# 4 0.000000 0.000000 0.000000 0.052949 0.000000 0.000000
# 5 0.000000 0.000000 0.000000 0.000000 0.017070 0.000000
# 6 0.000000 0.000000 0.000000 0.000000 0.000000 0.110811
#
#
# Mechanical properties :
#
#
# Convention : Reuss Voigt Hill
#
# Bulk Modulus (GPa) = 33.51671 33.74365 33.63018
# Shear Modulus (GPa) = 19.24674 29.86393 24.55534
#
# Velocity S-wave (km/s) = 2.83808 3.53524 3.20567
# Velocity P-wave (km/s) = 4.97657 5.54847 5.27028
#
# Compressibility (1/GPa) = 0.02983586
#
# Stress axis : x y z
#
# Youngs Moduli (GPa) = 47.70235 65.25730 76.13169
#
# Poissons Ratio (x) = 0.51580 0.35236
# Poissons Ratio (y) = 0.37704 -0.20853
# Poissons Ratio (z) = 0.22078 -0.17875
#
# Static dielectric constant tensor:
#      x y z
#    x 1.938810 0.000000 0.000000 
#    y 0.000000 2.036080 0.000000 
#    z 0.000000 0.000000 1.947090 
# 
# From -- ./inp_files/1742.got.cif
#   From: 2010.05.17/outbox.cif.g08.bks.cpg/sg62_1_cif.got.tgz:1742.got - 2010.06.03 15:25:27.
