data_PCOD9467717
_publ_section_title
;
Structure prediction by ZEFSAII (Michael W. Deem and Ramdas Pophale) SiO2 
 PCOD9467717
Probable space group: P N M A
;
_chemical_formula_sum "Si O2"
_cell_formula_units_Z 64
_cell_length_a 19.643007
_cell_length_b 14.382345
_cell_length_c 7.876856
_cell_angle_alpha 90.000000
_cell_angle_beta 90.000000
_cell_angle_gamma 90.000000
_cell_volume 2225.310308
_symmetry_space_group_name_H-M "P N M A"
_symmetry_group_IT_number 62
_symmetry_cell_setting 'orthorhombic'
loop_
_space_group_symop_operation_xyz
x,y,z
1/2-x,-y,1/2+z
1/2+x,1/2-y,1/2-z
-x,1/2+y,-z
-x,-y,-z
1/2+x,y,1/2-z
1/2-x,1/2+y,1/2+z
x,1/2-y,z
loop_
_atom_site_type_symbol
_atom_site_label
_atom_site_fract_x
_atom_site_fract_y
_atom_site_fract_z
Si Si1 0.522573 0.354647 0.816858
Si Si2 0.299132 0.140896 0.641500
Si Si3 0.566030 0.896185 0.502895
Si Si4 0.890964 0.363588 0.536738
Si Si5 0.738168 0.863884 0.882974
Si Si6 0.826707 0.636714 0.562940
Si Si7 0.560225 0.407252 0.306402
Si Si8 0.354125 0.644540 0.387150
O O1 0.537511 0.250000 0.877896
O O2 0.477405 0.344788 0.644093
O O3 0.466835 0.400750 0.938726
O O4 0.593341 0.397512 0.750934
O O5 0.290926 0.250000 0.672071
O O6 0.355580 0.132998 0.491402
O O7 0.344466 0.108206 0.800477
O O8 0.223644 0.106549 0.591772
O O9 0.520020 0.885315 0.671530
O O10 0.566186 0.997956 0.416361
O O11 0.896894 0.250000 0.535669
O O12 0.839902 0.393395 0.390547
O O13 0.738800 0.750000 0.890121
O O14 0.783781 0.896773 0.043962
O O15 0.779084 0.893200 0.719722
O O16 0.829597 0.750000 0.561445
O O17 0.901307 0.600951 0.625506
O O18 0.603959 0.345375 0.436010
O O19 0.342084 0.750000 0.328483
#
# Coordination Sequence:
#
# PCOD9467717 Si02
#       8
#     8   8   8   8   8   8   8   8
#     4   8  13  22  37  56  75  97 131 173 211 248
#     4   9  17  29  45  65  90 118 147 184 231 281
#     4   9  16  26  41  62  87 114 148 189 226 264
#     4   8  13  22  38  59  81 105 134 170 212 256
#     4   8  13  22  38  59  81 105 134 170 212 256
#     4   9  17  29  45  65  90 118 147 184 231 281
#     4   9  16  26  41  62  87 114 148 189 226 264
#     4   8  13  22  37  56  75  97 131 173 211 248
#
# _framework density 28.760034000000001
#
# number of rings (size 3 to 8) (size 9 to 14) (size 15 to 20)
#    0.000    3.500    0.000    2.250    0.000    1.500 
#    0.000    5.000    0.000    1.500    0.000    7.000 
#    0.000   19.000    0.000    0.000    0.000    0.000 
#
# Total GULP energy -357238.389554 kJ/mol
# GULP energy per Si atom -5581.849837 kJ/mol
# Density = 2.869457 g / cm^3
# Si number density = 28.760034 Si / 1000 Ang^3
#
#
#
# Elastic Constant Matrix: (Units=GPa)
#
#
# Indices 1 2 3 4 5 6 
#
# 1 246.7571 14.5855 28.7588 0.0000 0.0000 0.0000
# 2 14.5855 84.4844 -2.4639 0.0000 0.0000 0.0000
# 3 28.7588 -2.4639 105.9322 0.0000 0.0000 0.0000
# 4 0.0000 0.0000 0.0000 3.4385 0.0000 0.0000
# 5 0.0000 0.0000 0.0000 0.0000 58.7691 0.0000
# 6 0.0000 0.0000 0.0000 0.0000 0.0000 23.8666
#
#
#
# Elastic Compliance Matrix: (Units=1/GPa)
#
#
# Indices 1 2 3 4 5 6 
#
# 1 0.004234 -0.000765 -0.001167 0.000000 0.000000 0.000000
# 2 -0.000765 0.011983 0.000486 0.000000 0.000000 0.000000
# 3 -0.001167 0.000486 0.009768 0.000000 0.000000 0.000000
# 4 0.000000 0.000000 0.000000 0.290829 0.000000 0.000000
# 5 0.000000 0.000000 0.000000 0.000000 0.017016 0.000000
# 6 0.000000 0.000000 0.000000 0.000000 0.000000 0.041900
#
#
# Mechanical properties :
#
#
# Convention : Reuss Voigt Hill
#
# Bulk Modulus (GPa) = 43.30283 57.65940 50.48112
# Shear Modulus (GPa) = 12.94271 43.63440 28.28855
#
# Velocity S-wave (km/s) = 2.12368 3.89934 3.13965
# Velocity P-wave (km/s) = 4.59376 6.35335 5.54381
#
# Compressibility (1/GPa) = 0.02309318
#
# Stress axis : x y z
#
# Youngs Moduli (GPa) = 236.19343 83.45330 102.37312
#
# Poissons Ratio (x) = 0.06384 0.11949
# Poissons Ratio (y) = 0.18068 -0.04979
# Poissons Ratio (z) = 0.27569 -0.04059
#
# Static dielectric constant tensor:
#      x y z
#    x 2.285070 0.000000 0.000000 
#    y 0.000000 2.304410 0.000000 
#    z 0.000000 0.000000 2.380270 
# 
# From -- ./inp_files/14986.got.cif
#   From: 2010.05.17/outbox.cif.g08.bks.cpg/sg62_8_cif.got.tgz:14986.got - 2010.06.03 15:25:27.
