data_PCOD9467891
_publ_section_title
;
Structure prediction by ZEFSAII (Michael W. Deem and Ramdas Pophale) SiO2 
 PCOD9467891
Probable space group: P N M A
;
_chemical_formula_sum "Si O2"
_cell_formula_units_Z 64
_cell_length_a 18.000000
_cell_length_b 9.000000
_cell_length_c 21.000000
_cell_angle_alpha 90.000000
_cell_angle_beta 90.000000
_cell_angle_gamma 90.000000
_cell_volume 3402.000000
_symmetry_space_group_name_H-M "P N M A"
_symmetry_group_IT_number 62
_symmetry_cell_setting 'orthorhombic'
loop_
_space_group_symop_operation_xyz
x,y,z
1/2-x,-y,1/2+z
1/2+x,1/2-y,1/2-z
-x,1/2+y,-z
-x,-y,-z
1/2+x,y,1/2-z
1/2-x,1/2+y,1/2+z
x,1/2-y,z
loop_
_atom_site_type_symbol
_atom_site_label
_atom_site_fract_x
_atom_site_fract_y
_atom_site_fract_z
Si Si1 0.016169 0.915500 0.594493
Si Si2 0.023077 0.071346 0.162819
Si Si3 0.640954 0.571493 0.616964
Si Si4 0.264537 0.571818 0.491787
Si Si5 0.617858 0.418246 0.994731
Si Si6 0.965150 0.576611 0.286586
Si Si7 0.189549 0.430081 0.134946
Si Si8 0.190614 0.929365 0.740585
O O1 0.025370 0.750000 0.621786
O O2 0.950417 0.910712 0.543572
O O3 0.090740 0.970284 0.560029
O O4 0.997613 0.036421 0.646974
O O5 0.023945 0.250000 0.167797
O O6 0.103294 0.022199 0.137536
O O7 0.946532 0.034232 0.126073
O O8 0.011499 0.000642 0.231496
O O9 0.647227 0.750000 0.608018
O O10 0.673362 0.485003 0.556918
O O11 0.684781 0.534775 0.683409
O O12 0.257718 0.750000 0.488626
O O13 0.189423 0.487613 0.472777
O O14 0.278957 0.528061 0.565623
O O15 0.631444 0.250000 0.971350
O O16 0.958325 0.750000 0.275590
O O17 0.883850 0.502032 0.287384
O O18 0.189737 0.250000 0.136699
O O19 0.239765 0.476607 0.196005
O O20 0.185409 0.750000 0.736856
#
# Coordination Sequence:
#
# PCOD9467891 Si02
#       8
#     8   8   8   8   8   8   8   8
#     4  10  20  35  55  78 108 146 182 218 268 329
#     4   9  19  38  59  78 104 141 186 230 273 325
#     4   9  19  35  55  79 109 147 187 227 275 331
#     4  11  22  35  55  82 113 147 183 229 283 338
#     4  10  21  36  54  78 108 142 183 228 271 322
#     4  11  21  33  53  82 112 140 176 222 273 327
#     4   9  19  36  59  84 106 137 185 231 272 326
#     4   9  18  36  60  81 106 144 186 227 275 332
#
# _framework density 18.812463000000001
#
# number of rings (size 3 to 8) (size 9 to 14) (size 15 to 20)
#    0.000    2.250    0.000    3.750    0.000    6.000 
#    0.000    5.000    0.000    0.000    0.000    0.000 
#    0.000    0.000    0.000    0.000    0.000    0.000 
#
# Total GULP energy -356750.321262 kJ/mol
# GULP energy per Si atom -5574.223770 kJ/mol
# Density = 1.876965 g / cm^3
# Si number density = 18.812463 Si / 1000 Ang^3
#
#
#
# Elastic Constant Matrix: (Units=GPa)
#
#
# Indices 1 2 3 4 5 6 
#
# 1 59.0904 29.7606 37.1817 0.0000 0.0000 0.0000
# 2 29.7606 1.4666 3.6916 0.0000 0.0000 0.0000
# 3 37.1817 3.6916 45.2263 0.0000 0.0000 0.0000
# 4 0.0000 0.0000 0.0000 22.0611 0.0000 0.0000
# 5 0.0000 0.0000 0.0000 0.0000 9.9913 0.0000
# 6 0.0000 0.0000 0.0000 0.0000 0.0000 15.7982
#
#
#
# Elastic Compliance Matrix: (Units=1/GPa)
#
#
# Indices 1 2 3 4 5 6 
#
# 1 -0.001711 0.039243 -0.001797 0.000000 0.000000 0.000000
# 2 0.039243 -0.041882 -0.028844 0.000000 0.000000 0.000000
# 3 -0.001797 -0.028844 0.025942 0.000000 0.000000 0.000000
# 4 0.000000 0.000000 0.000000 0.045329 0.000000 0.000000
# 5 0.000000 0.000000 0.000000 0.000000 0.100087 0.000000
# 6 0.000000 0.000000 0.000000 0.000000 0.000000 0.063299
#
#
# Mechanical properties :
#
#
# Convention : Reuss Voigt Hill
#
# Bulk Modulus (GPa) = -2245.49288 27.45014 -1109.02137
# Shear Modulus (GPa) = 28.78358 11.91341 20.34849
#
# Velocity S-wave (km/s) = 3.91580 2.51922 3.29241
# Velocity P-wave (km/s) = 34.28945 4.80470 24.00710
#
# Compressibility (1/GPa) = -0.00044534
#
# Stress axis : x y z
#
# Youngs Moduli (GPa) = -584.44281 -23.87676 38.54682
#
# Poissons Ratio (x) = 0.93700 0.06925
# Poissons Ratio (y) = 22.93547 1.11185
# Poissons Ratio (z) = -1.05001 -0.68871
#
# Static dielectric constant tensor:
#      x y z
#    x 1.672660 0.000000 0.000000 
#    y 0.000000 1.629440 0.000000 
#    z 0.000000 0.000000 1.687160 
# 
# From -- ./inp_files/27739.got.cif
#   From: 2010.05.17/outbox.ucp.g08.bks.cvg/sg62_14_cif.got.tgz:27739.got - 2010.06.11 16:29:25.
