data_PCOD9467480
_publ_section_title
;
Structure prediction by ZEFSAII (Michael W. Deem and Ramdas Pophale) SiO2 
 PCOD9467480
Probable space group: P N M A
;
_chemical_formula_sum "Si O2"
_cell_formula_units_Z 40
_cell_length_a 7.981933
_cell_length_b 7.682897
_cell_length_c 24.240842
_cell_angle_alpha 90.000000
_cell_angle_beta 90.000000
_cell_angle_gamma 90.000000
_cell_volume 1486.554342
_symmetry_space_group_name_H-M "P N M A"
_symmetry_group_IT_number 62
_symmetry_cell_setting 'orthorhombic'
loop_
_space_group_symop_operation_xyz
x,y,z
1/2-x,-y,1/2+z
1/2+x,1/2-y,1/2-z
-x,1/2+y,-z
-x,-y,-z
1/2+x,y,1/2-z
1/2-x,1/2+y,1/2+z
x,1/2-y,z
loop_
_atom_site_type_symbol
_atom_site_label
_atom_site_fract_x
_atom_site_fract_y
_atom_site_fract_z
Si Si1 0.116584 0.454932 0.562789
Si Si2 0.329688 0.458349 0.466262
Si Si3 0.385043 0.452655 0.262853
Si Si4 0.927027 0.049591 0.664068
Si Si5 0.049456 0.462210 0.129838
O O1 0.083886 0.250000 0.556781
O O2 0.175345 0.529166 0.503135
O O3 0.977956 0.531482 0.604752
O O4 0.287771 0.471358 0.598676
O O5 0.500000 0.500000 0.500000
O O6 0.311094 0.250000 0.465012
O O7 0.385215 0.517692 0.405645
O O8 0.411507 0.250000 0.251095
O O9 0.411368 0.543601 0.204719
O O10 0.521525 0.517175 0.307566
O O11 0.214974 0.466188 0.297840
O O12 0.883355 0.250000 0.655566
O O13 0.056158 0.250000 0.129263
#
# Coordination Sequence:
#
# PCOD9467480 Si02
#       5
#     8   8   8   8   8
#     4   9  18  32  53  78 104 134 170 210 254 302
#     4   8  14  28  49  74 102 132 166 206 249 298
#     4  11  23  38  55  77 104 137 174 215 261 311
#     4  11  23  38  55  77 104 137 174 215 261 311
#     4   9  18  32  53  78 104 134 170 210 254 302
#
# _framework density 26.907859999999999
#
# number of rings (size 3 to 8) (size 9 to 14) (size 15 to 20)
#    0.000    2.400    0.000    2.400    0.000    6.400 
#    0.000    1.000    0.000    0.000    0.000    0.000 
#    0.000    0.000    0.000    0.000    0.000    0.000 
#
# Total GULP energy -223705.550725 kJ/mol
# GULP energy per Si atom -5592.638768 kJ/mol
# Density = 2.684662 g / cm^3
# Si number density = 26.907860 Si / 1000 Ang^3
#
#
#
# Elastic Constant Matrix: (Units=GPa)
#
#
# Indices 1 2 3 4 5 6 
#
# 1 100.4775 14.3218 2.7641 0.0000 0.0000 0.0000
# 2 14.3218 88.2293 24.9007 0.0000 0.0000 0.0000
# 3 2.7641 24.9007 177.9145 0.0000 0.0000 0.0000
# 4 0.0000 0.0000 0.0000 20.4775 0.0000 0.0000
# 5 0.0000 0.0000 0.0000 0.0000 53.5287 0.0000
# 6 0.0000 0.0000 0.0000 0.0000 0.0000 33.8194
#
#
#
# Elastic Compliance Matrix: (Units=1/GPa)
#
#
# Indices 1 2 3 4 5 6 
#
# 1 0.010189 -0.001675 0.000076 0.000000 0.000000 0.000000
# 2 -0.001675 0.012076 -0.001664 0.000000 0.000000 0.000000
# 3 0.000076 -0.001664 0.005852 0.000000 0.000000 0.000000
# 4 0.000000 0.000000 0.000000 0.048834 0.000000 0.000000
# 5 0.000000 0.000000 0.000000 0.000000 0.018682 0.000000
# 6 0.000000 0.000000 0.000000 0.000000 0.000000 0.029569
#
#
# Mechanical properties :
#
#
# Convention : Reuss Voigt Hill
#
# Bulk Modulus (GPa) = 46.31639 50.06605 48.19122
# Shear Modulus (GPa) = 35.99054 43.20742 39.59898
#
# Velocity S-wave (km/s) = 3.66122 4.01153 3.84037
# Velocity P-wave (km/s) = 5.92647 6.33273 6.13296
#
# Compressibility (1/GPa) = 0.02159063
#
# Stress axis : x y z
#
# Youngs Moduli (GPa) = 98.14313 82.81076 170.87019
#
# Poissons Ratio (x) = 0.13875 -0.01302
# Poissons Ratio (y) = 0.16444 0.28434
# Poissons Ratio (z) = -0.00748 0.13780
#
# Static dielectric constant tensor:
#      x y z
#    x 2.299210 0.000000 0.000000 
#    y 0.000000 1.954090 0.000000 
#    z 0.000000 0.000000 2.124810 
# 
# From -- ./inp_files/28569.got.cif
#   From: 2010.05.17/outbox.cif.g08.bks.cpg/sg62_15_cif.got.tgz:28569.got - 2010.06.03 15:25:27.
