data_PCOD9467292
_publ_section_title
;
Structure prediction by ZEFSAII (Michael W. Deem and Ramdas Pophale) SiO2 
 PCOD9467292
Probable space group: P N M A
;
_chemical_formula_sum "Si O2"
_cell_formula_units_Z 48
_cell_length_a 20.435896
_cell_length_b 8.079280
_cell_length_c 15.591679
_cell_angle_alpha 90.000000
_cell_angle_beta 90.000000
_cell_angle_gamma 90.000000
_cell_volume 2574.300425
_symmetry_space_group_name_H-M "P N M A"
_symmetry_group_IT_number 62
_symmetry_cell_setting 'orthorhombic'
loop_
_space_group_symop_operation_xyz
x,y,z
1/2-x,-y,1/2+z
1/2+x,1/2-y,1/2-z
-x,1/2+y,-z
-x,-y,-z
1/2+x,y,1/2-z
1/2-x,1/2+y,1/2+z
x,1/2-y,z
loop_
_atom_site_type_symbol
_atom_site_label
_atom_site_fract_x
_atom_site_fract_y
_atom_site_fract_z
Si Si1 0.460339 0.050479 0.583345
Si Si2 0.484823 0.451423 0.772236
Si Si3 0.665403 0.952074 0.194812
Si Si4 0.801616 0.445929 0.509178
Si Si5 0.813470 0.448494 0.884190
Si Si6 0.058690 0.448760 0.563126
O O1 0.459111 0.250000 0.585877
O O2 0.491703 0.993616 0.673825
O O3 0.384787 0.991868 0.583869
O O4 0.500000 0.000000 0.500000
O O5 0.486298 0.250000 0.772298
O O6 0.411561 0.497886 0.802783
O O7 0.537601 0.507153 0.841778
O O8 0.667288 0.750000 0.193268
O O9 0.695504 0.007212 0.285678
O O10 0.697784 0.012792 0.106955
O O11 0.793406 0.250000 0.514647
O O12 0.744540 0.510139 0.448215
O O13 0.872581 0.482642 0.469156
O O14 0.817685 0.250000 0.879252
O O15 0.063003 0.250000 0.563641
O O16 0.000000 0.500000 0.500000
#
# Coordination Sequence:
#
# PCOD9467292 Si02
#       6
#     8   8   8   8   8   8
#     4   9  18  35  59  80 103 137 179 221 262 314
#     4   8  15  31  54  76 100 137 177 209 251 320
#     4   8  15  32  56  74  96 138 181 211 253 318
#     4  11  21  35  55  80 109 140 179 225 269 318
#     4   9  19  37  57  76 103 142 183 218 261 318
#     4  11  20  33  55  82 111 141 177 218 266 319
#
# _framework density 18.645844
#
# number of rings (size 3 to 8) (size 9 to 14) (size 15 to 20)
#    0.000    2.667    1.667    3.000    0.000    0.667 
#    3.000    3.333    0.000    0.000    0.000    0.000 
#    0.000    0.000    0.000    0.000    0.000    0.000 
#
# Total GULP energy -267590.675136 kJ/mol
# GULP energy per Si atom -5574.805732 kJ/mol
# Density = 1.860340 g / cm^3
# Si number density = 18.645844 Si / 1000 Ang^3
#
#
#
# Elastic Constant Matrix: (Units=GPa)
#
#
# Indices 1 2 3 4 5 6 
#
# 1 93.4661 -0.8756 97.6075 0.0000 0.0000 0.0000
# 2 -0.8756 7.2481 5.4893 0.0000 0.0000 0.0000
# 3 97.6075 5.4893 204.8828 0.0000 0.0000 0.0000
# 4 0.0000 0.0000 0.0000 25.7387 0.0000 0.0000
# 5 0.0000 0.0000 0.0000 0.0000 35.3037 0.0000
# 6 0.0000 0.0000 0.0000 0.0000 0.0000 26.6625
#
#
#
# Elastic Compliance Matrix: (Units=1/GPa)
#
#
# Indices 1 2 3 4 5 6 
#
# 1 0.022100 0.010864 -0.010820 0.000000 0.000000 0.000000
# 2 0.010864 0.146166 -0.009092 0.000000 0.000000 0.000000
# 3 -0.010820 -0.009092 0.010279 0.000000 0.000000 0.000000
# 4 0.000000 0.000000 0.000000 0.038852 0.000000 0.000000
# 5 0.000000 0.000000 0.000000 0.000000 0.028326 0.000000
# 6 0.000000 0.000000 0.000000 0.000000 0.000000 0.037506
#
#
# Mechanical properties :
#
#
# Convention : Reuss Voigt Hill
#
# Bulk Modulus (GPa) = 6.23248 56.67104 31.45176
# Shear Modulus (GPa) = 14.09220 31.09935 22.59577
#
# Velocity S-wave (km/s) = 2.75213 4.08842 3.48493
# Velocity P-wave (km/s) = 3.66726 7.26266 5.75305
#
# Compressibility (1/GPa) = 0.16044984
#
# Stress axis : x y z
#
# Youngs Moduli (GPa) = 45.24922 6.84155 97.28613
#
# Poissons Ratio (x) = -0.07433 1.05260
# Poissons Ratio (y) = -0.49159 0.88451
# Poissons Ratio (z) = 0.48958 0.06220
#
# Static dielectric constant tensor:
#      x y z
#    x 1.593290 0.000000 0.000000 
#    y 0.000000 1.669500 0.000000 
#    z 0.000000 0.000000 1.677580 
# 
# From -- ./inp_files/19599.got.cif
#   From: 2010.05.17/outbox.cif.g08.bks.cpg/sg62_10_cif.got.tgz:19599.got - 2010.06.03 15:25:27.
