data_PCOD9467713
_publ_section_title
;
Structure prediction by ZEFSAII (Michael W. Deem and Ramdas Pophale) SiO2 
 PCOD9467713
Probable space group: P N M A
;
_chemical_formula_sum "Si O2"
_cell_formula_units_Z 40
_cell_length_a 7.294770
_cell_length_b 7.506710
_cell_length_c 28.591509
_cell_angle_alpha 90.000000
_cell_angle_beta 90.000000
_cell_angle_gamma 90.000000
_cell_volume 1565.663110
_symmetry_space_group_name_H-M "P N M A"
_symmetry_group_IT_number 62
_symmetry_cell_setting 'orthorhombic'
loop_
_space_group_symop_operation_xyz
x,y,z
1/2-x,-y,1/2+z
1/2+x,1/2-y,1/2-z
-x,1/2+y,-z
-x,-y,-z
1/2+x,y,1/2-z
1/2-x,1/2+y,1/2+z
x,1/2-y,z
loop_
_atom_site_type_symbol
_atom_site_label
_atom_site_fract_x
_atom_site_fract_y
_atom_site_fract_z
Si Si1 0.754513 0.044771 0.900114
Si Si2 0.280885 0.962909 0.000497
Si Si3 0.171364 0.040306 0.402212
Si Si4 0.207060 0.548211 0.301381
Si Si5 0.770102 0.543413 0.299954
O O1 0.817093 0.250000 0.898863
O O2 0.801226 0.964739 0.849104
O O3 0.530329 0.047212 0.901054
O O4 0.799652 0.962372 0.950894
O O5 0.253616 0.750000 0.003226
O O6 0.223532 0.025218 0.948647
O O7 0.500000 0.000000 0.000000
O O8 0.136607 0.250000 0.408340
O O9 0.267533 0.018759 0.352165
O O10 0.277681 0.750000 0.297809
O O11 0.240857 0.459670 0.251077
O O12 0.988193 0.549044 0.304583
O O13 0.704334 0.750000 0.297448
#
# Coordination Sequence:
#
# PCOD9467713 Si02
#       5
#     8   8   8   8   8
#     4   8  13  23  37  53  73  98 123 152 186 219
#     4   8  13  20  32  50  73  96 119 146 182 220
#     4   9  15  22  33  53  77  99 121 149 182 221
#     4   9  16  27  40  55  74  98 124 153 184 217
#     4   8  14  24  40  57  73  93 122 154 184 215
#
# _framework density 25.548282
#
# number of rings (size 3 to 8) (size 9 to 14) (size 15 to 20)
#    0.000    3.600    0.000    1.800    0.000    0.800 
#    0.000    4.000    0.000    0.000    0.000    1.400 
#    0.000    0.000    0.000    0.000    0.000    0.000 
#
# Total GULP energy -222711.353575 kJ/mol
# GULP energy per Si atom -5567.783839 kJ/mol
# Density = 2.549013 g / cm^3
# Si number density = 25.548282 Si / 1000 Ang^3
#
#
#
# Elastic Constant Matrix: (Units=GPa)
#
#
# Indices 1 2 3 4 5 6 
#
# 1 85.3679 -9.8661 3.5143 0.0000 0.0000 0.0000
# 2 -9.8661 81.9452 15.4720 0.0000 0.0000 0.0000
# 3 3.5143 15.4720 363.4341 0.0000 0.0000 0.0000
# 4 0.0000 0.0000 0.0000 16.4834 0.0000 0.0000
# 5 0.0000 0.0000 0.0000 0.0000 8.5246 0.0000
# 6 0.0000 0.0000 0.0000 0.0000 0.0000 -3.1294
#
#
#
# Elastic Compliance Matrix: (Units=1/GPa)
#
#
# Indices 1 2 3 4 5 6 
#
# 1 0.011891 0.001465 -0.000177 0.000000 0.000000 0.000000
# 2 0.001465 0.012483 -0.000546 0.000000 0.000000 0.000000
# 3 -0.000177 -0.000546 0.002776 0.000000 0.000000 0.000000
# 4 0.000000 0.000000 0.000000 0.060667 0.000000 0.000000
# 5 0.000000 0.000000 0.000000 0.000000 0.117308 0.000000
# 6 0.000000 0.000000 0.000000 0.000000 0.000000 -0.319552
#
#
# Mechanical properties :
#
#
# Convention : Reuss Voigt Hill
#
# Bulk Modulus (GPa) = 34.92335 60.99863 47.96099
# Shear Modulus (GPa) = -47.00711 39.15086 -3.92813
#
# Velocity S-wave (km/s) = -4.29410 3.91887 -1.24132
# Velocity P-wave (km/s) = 3.29946 6.66366 4.09377
#
# Compressibility (1/GPa) = 0.02863413
#
# Stress axis : x y z
#
# Youngs Moduli (GPa) = 84.09987 80.11097 360.16939
#
# Poissons Ratio (x) = -0.11737 0.06388
# Poissons Ratio (y) = -0.12322 0.19650
# Poissons Ratio (z) = 0.01492 0.04371
#
# Static dielectric constant tensor:
#      x y z
#    x 2.076470 0.000000 0.000000 
#    y 0.000000 2.087180 0.000000 
#    z 0.000000 0.000000 2.192530 
# 
# From -- ./inp_files/26460.got.cif
#   From: 2010.05.17/outbox.cif.g08.bks.cpg/sg62_14_cif.got.tgz:26460.got - 2010.06.03 15:25:27.
