data_PCOD9467706
_publ_section_title
;
Structure prediction by ZEFSAII (Michael W. Deem and Ramdas Pophale) SiO2 
 PCOD9467706
Probable space group: P N M A
;
_chemical_formula_sum "Si O2"
_cell_formula_units_Z 40
_cell_length_a 6.718496
_cell_length_b 7.370142
_cell_length_c 28.336676
_cell_angle_alpha 90.000000
_cell_angle_beta 90.000000
_cell_angle_gamma 90.000000
_cell_volume 1403.126487
_symmetry_space_group_name_H-M "P N M A"
_symmetry_group_IT_number 62
_symmetry_cell_setting 'orthorhombic'
loop_
_space_group_symop_operation_xyz
x,y,z
1/2-x,-y,1/2+z
1/2+x,1/2-y,1/2-z
-x,1/2+y,-z
-x,-y,-z
1/2+x,y,1/2-z
1/2-x,1/2+y,1/2+z
x,1/2-y,z
loop_
_atom_site_type_symbol
_atom_site_label
_atom_site_fract_x
_atom_site_fract_y
_atom_site_fract_z
Si Si1 0.930098 0.040047 0.684832
Si Si2 0.030273 0.541601 0.212542
Si Si3 0.232144 0.463758 0.013288
Si Si4 0.681276 0.973248 0.086717
Si Si5 0.873445 0.463577 0.885130
O O1 0.000490 0.250000 0.681699
O O2 0.991237 0.958220 0.735321
O O3 0.691071 0.045878 0.692142
O O4 0.946601 0.963477 0.631838
O O5 0.094932 0.750000 0.222381
O O6 0.160999 0.465829 0.168760
O O7 0.256355 0.250000 0.014074
O O8 0.257191 0.526792 0.067180
O O9 0.350014 0.535658 0.967207
O O10 0.000000 0.500000 0.000000
O O11 0.676528 0.750000 0.086956
O O12 0.909167 0.031646 0.098365
O O13 0.895541 0.250000 0.876743
#
# Coordination Sequence:
#
# PCOD9467706 Si02
#       5
#     8   8   8   8   8
#     4   8  12  19  30  47  69  91 111 140 179 213
#     4   8  13  20  32  49  70  91 114 144 179 211
#     4   9  14  20  31  48  69  93 116 143 178 216
#     4   7  11  18  28  43  65  86 107 136 171 203
#     4   8  13  21  31  47  69  91 113 143 177 211
#
# _framework density 28.507766
#
# number of rings (size 3 to 8) (size 9 to 14) (size 15 to 20)
#    0.000    4.000    0.000    4.200    0.000    0.000 
#    0.000    0.000    0.000    0.000    0.000   15.400 
#    0.000    0.000    0.000    0.000    0.000    0.000 
#
# Total GULP energy -223246.004262 kJ/mol
# GULP energy per Si atom -5581.150107 kJ/mol
# Density = 2.844288 g / cm^3
# Si number density = 28.507766 Si / 1000 Ang^3
#
#
#
# Elastic Constant Matrix: (Units=GPa)
#
#
# Indices 1 2 3 4 5 6 
#
# 1 81.9227 -6.6295 64.6288 0.0000 0.0000 0.0000
# 2 -6.6295 112.7896 14.0571 0.0000 0.0000 0.0000
# 3 64.6288 14.0571 413.8700 0.0000 0.0000 0.0000
# 4 0.0000 0.0000 0.0000 9.5539 0.0000 0.0000
# 5 0.0000 0.0000 0.0000 0.0000 84.7264 0.0000
# 6 0.0000 0.0000 0.0000 0.0000 0.0000 2.3359
#
#
#
# Elastic Compliance Matrix: (Units=1/GPa)
#
#
# Indices 1 2 3 4 5 6 
#
# 1 0.014057 0.001105 -0.002233 0.000000 0.000000 0.000000
# 2 0.001105 0.008991 -0.000478 0.000000 0.000000 0.000000
# 3 -0.002233 -0.000478 0.002781 0.000000 0.000000 0.000000
# 4 0.000000 0.000000 0.000000 0.104669 0.000000 0.000000
# 5 0.000000 0.000000 0.000000 0.000000 0.011803 0.000000
# 6 0.000000 0.000000 0.000000 0.000000 0.000000 0.428103
#
#
# Mechanical properties :
#
#
# Convention : Reuss Voigt Hill
#
# Bulk Modulus (GPa) = 44.21451 83.63279 63.92365
# Shear Modulus (GPa) = 8.60356 55.09164 31.84760
#
# Velocity S-wave (km/s) = 1.73912 4.40081 3.34601
# Velocity P-wave (km/s) = 4.42448 7.43124 6.11553
#
# Compressibility (1/GPa) = 0.02261701
#
# Stress axis : x y z
#
# Youngs Moduli (GPa) = 71.13708 111.22805 359.57044
#
# Poissons Ratio (x) = -0.12285 0.80280
# Poissons Ratio (y) = -0.07857 0.17182
# Poissons Ratio (z) = 0.15883 0.05315
#
# Static dielectric constant tensor:
#      x y z
#    x 2.366140 0.000000 0.000000 
#    y 0.000000 2.120600 0.000000 
#    z 0.000000 0.000000 2.321400 
# 
# From -- ./inp_files/30717.got.cif
#   From: 2010.05.17/outbox.cif.g08.bks.cpg/sg62_16_cif.got.tgz:30717.got - 2010.06.03 15:25:27.
