data_PCOD9467187
_publ_section_title
;
Structure prediction by ZEFSAII (Michael W. Deem and Ramdas Pophale) SiO2 
 PCOD9467187
Probable space group: P N M A
;
_chemical_formula_sum "Si O2"
_cell_formula_units_Z 48
_cell_length_a 28.672055
_cell_length_b 8.369420
_cell_length_c 9.936490
_cell_angle_alpha 90.000000
_cell_angle_beta 90.000000
_cell_angle_gamma 90.000000
_cell_volume 2384.444308
_symmetry_space_group_name_H-M "P N M A"
_symmetry_group_IT_number 62
_symmetry_cell_setting 'orthorhombic'
loop_
_space_group_symop_operation_xyz
x,y,z
1/2-x,-y,1/2+z
1/2+x,1/2-y,1/2-z
-x,1/2+y,-z
-x,-y,-z
1/2+x,y,1/2-z
1/2-x,1/2+y,1/2+z
x,1/2-y,z
loop_
_atom_site_type_symbol
_atom_site_label
_atom_site_fract_x
_atom_site_fract_y
_atom_site_fract_z
Si Si1 0.795568 0.058330 0.840255
Si Si2 0.891780 0.563051 0.249054
Si Si3 0.290960 0.943216 0.351576
Si Si4 0.551893 0.934548 0.506059
Si Si5 0.446748 0.062233 0.998817
Si Si6 0.396072 0.564441 0.740735
O O1 0.801092 0.250000 0.834637
O O2 0.752230 0.013204 0.744364
O O3 0.842098 0.977291 0.782087
O O4 0.788394 0.010276 0.996616
O O5 0.890714 0.750000 0.286652
O O6 0.839049 0.506505 0.221317
O O7 0.921077 0.469313 0.360167
O O8 0.918344 0.539051 0.109043
O O9 0.292356 0.750000 0.362894
O O10 0.552616 0.750000 0.548536
O O11 0.500000 0.000000 0.500000
O O12 0.575035 0.955068 0.361298
O O13 0.447481 0.250000 0.968771
O O14 0.415921 0.971917 0.887655
O O15 0.500000 0.000000 0.000000
O O16 0.403951 0.750000 0.707662
#
# Coordination Sequence:
#
# PCOD9467187 Si02
#       6
#     8   8   8   8   8   8
#     4  11  24  43  68 101 133 171 221 270 326 395
#     4  11  23  43  67  96 133 172 215 269 326 390
#     4  10  24  44  67  98 134 172 216 267 328 393
#     4  12  24  41  66  97 129 169 215 267 325 391
#     4  12  26  45  67  97 133 175 222 273 327 393
#     4  12  25  44  67  95 132 175 219 273 329 387
#
# _framework density 20.130475000000001
#
# number of rings (size 3 to 8) (size 9 to 14) (size 15 to 20)
#    0.000    0.667    1.667    6.500    2.333    2.000 
#    0.000    0.000    0.000    0.000    0.000    0.000 
#    0.000    0.000    0.000    0.000    0.000    0.000 
#
# Total GULP energy -268567.104677 kJ/mol
# GULP energy per Si atom -5595.148014 kJ/mol
# Density = 2.008466 g / cm^3
# Si number density = 20.130475 Si / 1000 Ang^3
#
#
#
# Elastic Constant Matrix: (Units=GPa)
#
#
# Indices 1 2 3 4 5 6 
#
# 1 179.1175 11.0474 66.0988 0.0000 0.0000 0.0000
# 2 11.0474 77.4201 -7.9530 0.0000 0.0000 0.0000
# 3 66.0988 -7.9530 117.1588 0.0000 0.0000 0.0000
# 4 0.0000 0.0000 0.0000 38.7000 0.0000 0.0000
# 5 0.0000 0.0000 0.0000 0.0000 42.0009 0.0000
# 6 0.0000 0.0000 0.0000 0.0000 0.0000 21.3947
#
#
#
# Elastic Compliance Matrix: (Units=1/GPa)
#
#
# Indices 1 2 3 4 5 6 
#
# 1 0.007210 -0.001457 -0.004167 0.000000 0.000000 0.000000
# 2 -0.001457 0.013302 0.001725 0.000000 0.000000 0.000000
# 3 -0.004167 0.001725 0.011003 0.000000 0.000000 0.000000
# 4 0.000000 0.000000 0.000000 0.025840 0.000000 0.000000
# 5 0.000000 0.000000 0.000000 0.000000 0.023809 0.000000
# 6 0.000000 0.000000 0.000000 0.000000 0.000000 0.046741
#
#
# Mechanical properties :
#
#
# Convention : Reuss Voigt Hill
#
# Bulk Modulus (GPa) = 42.16269 56.89810 49.53039
# Shear Modulus (GPa) = 34.81683 40.71932 37.76807
#
# Velocity S-wave (km/s) = 4.16331 4.50240 4.33617
# Velocity P-wave (km/s) = 6.64086 7.44008 7.05180
#
# Compressibility (1/GPa) = 0.02371765
#
# Stress axis : x y z
#
# Youngs Moduli (GPa) = 138.68688 75.17874 90.88082
#
# Poissons Ratio (x) = 0.10953 0.37869
# Poissons Ratio (y) = 0.20206 -0.15676
# Poissons Ratio (z) = 0.57790 -0.12968
#
# Static dielectric constant tensor:
#      x y z
#    x 1.688430 0.000000 0.000000 
#    y 0.000000 1.681560 0.000000 
#    z 0.000000 0.000000 1.585180 
# 
# From -- ./inp_files/10168.got.cif
#   From: 2010.05.17/outbox.cif.g08.bks.cpg/sg62_6_cif.got.tgz:10168.got - 2010.06.03 15:25:27.
