data_PCOD9467159
_publ_section_title
;
Structure prediction by ZEFSAII (Michael W. Deem and Ramdas Pophale) SiO2 
 PCOD9467159
Probable space group: P N M A
;
_chemical_formula_sum "Si O2"
_cell_formula_units_Z 40
_cell_length_a 18.115940
_cell_length_b 18.607160
_cell_length_c 4.996698
_cell_angle_alpha 90.000000
_cell_angle_beta 90.000000
_cell_angle_gamma 90.000000
_cell_volume 1684.317912
_symmetry_space_group_name_H-M "P N M A"
_symmetry_group_IT_number 62
_symmetry_cell_setting 'orthorhombic'
loop_
_space_group_symop_operation_xyz
x,y,z
1/2-x,-y,1/2+z
1/2+x,1/2-y,1/2-z
-x,1/2+y,-z
-x,-y,-z
1/2+x,y,1/2-z
1/2-x,1/2+y,1/2+z
x,1/2-y,z
loop_
_atom_site_type_symbol
_atom_site_label
_atom_site_fract_x
_atom_site_fract_y
_atom_site_fract_z
Si Si1 0.274780 0.750000 0.454126
Si Si2 0.418694 0.390947 0.575949
Si Si3 0.505295 0.416497 0.074094
Si Si4 0.334241 0.250000 0.447313
Si Si5 0.654728 0.166089 0.937887
Si Si6 0.231256 0.543288 0.928467
O O1 0.216179 0.750000 0.210235
O O2 0.325993 0.681476 0.377049
O O3 0.221488 0.750000 0.701470
O O4 0.487204 0.410215 0.386714
O O5 0.385790 0.318419 0.457909
O O6 0.351942 0.446609 0.534165
O O7 0.442715 0.382358 0.881610
O O8 0.500000 0.500000 0.000000
O O9 0.581335 0.378109 0.996380
O O10 0.646068 0.250000 0.039838
O O11 0.721914 0.116813 0.044612
O O12 0.231520 0.514239 0.627768
#
# Coordination Sequence:
#
# PCOD9467159 Si02
#       6
#     4   8   8   4   8   8
#     4  10  24  42  72 104 142 181 243 314 356 428
#     4  12  26  45  74 102 147 188 243 300 368 444
#     4  12  27  48  70 108 149 199 241 307 374 453
#     4  12  24  44  72 110 140 179 245 310 364 426
#     4  10  25  48  73 107 147 193 251 302 370 447
#     4  12  26  46  74 106 141 189 243 305 373 444
#
# _framework density 23.748487000000001
#
# number of rings (size 3 to 8) (size 9 to 14) (size 15 to 20)
#    0.600    0.000    2.000    5.400    5.600    3.200 
#    0.000    0.000    0.000    0.000    0.000    0.000 
#    0.000    0.000    0.000    0.000    0.000    0.000 
#
# Total GULP energy -223715.793905 kJ/mol
# GULP energy per Si atom -5592.894848 kJ/mol
# Density = 2.369443 g / cm^3
# Si number density = 23.748487 Si / 1000 Ang^3
#
#
#
# Elastic Constant Matrix: (Units=GPa)
#
#
# Indices 1 2 3 4 5 6 
#
# 1 93.5166 31.9182 10.4795 0.0000 0.0000 0.0000
# 2 31.9182 122.8199 18.4618 0.0000 0.0000 0.0000
# 3 10.4795 18.4618 95.6633 0.0000 0.0000 0.0000
# 4 0.0000 0.0000 0.0000 26.9562 0.0000 0.0000
# 5 0.0000 0.0000 0.0000 0.0000 45.7745 0.0000
# 6 0.0000 0.0000 0.0000 0.0000 0.0000 47.5889
#
#
#
# Elastic Compliance Matrix: (Units=1/GPa)
#
#
# Indices 1 2 3 4 5 6 
#
# 1 0.011782 -0.002954 -0.000721 0.000000 0.000000 0.000000
# 2 -0.002954 0.009126 -0.001438 0.000000 0.000000 0.000000
# 3 -0.000721 -0.001438 0.010810 0.000000 0.000000 0.000000
# 4 0.000000 0.000000 0.000000 0.037097 0.000000 0.000000
# 5 0.000000 0.000000 0.000000 0.000000 0.021846 0.000000
# 6 0.000000 0.000000 0.000000 0.000000 0.000000 0.021013
#
#
# Mechanical properties :
#
#
# Convention : Reuss Voigt Hill
#
# Bulk Modulus (GPa) = 46.52501 48.19097 47.35799
# Shear Modulus (GPa) = 38.74088 40.80658 39.77373
#
# Velocity S-wave (km/s) = 4.04332 4.14971 4.09686
# Velocity P-wave (km/s) = 6.43670 6.58000 6.50875
#
# Compressibility (1/GPa) = 0.02149382
#
# Stress axis : x y z
#
# Youngs Moduli (GPa) = 84.87424 109.58101 92.50937
#
# Poissons Ratio (x) = 0.32366 0.06667
# Poissons Ratio (y) = 0.25068 0.13299
# Poissons Ratio (z) = 0.06117 0.15753
#
# Static dielectric constant tensor:
#      x y z
#    x 1.901580 0.000000 0.000000 
#    y 0.000000 2.006520 0.000000 
#    z 0.000000 0.000000 1.950230 
# 
# From -- ./inp_files/1581.got.cif
#   From: 2010.05.17/outbox.cif.g08.bks.cpg/sg62_1_cif.got.tgz:1581.got - 2010.06.03 15:25:27.
