data_PCOD9467519
_publ_section_title
;
Structure prediction by ZEFSAII (Michael W. Deem and Ramdas Pophale) SiO2 
 PCOD9467519
Probable space group: P N M A
;
_chemical_formula_sum "Si O2"
_cell_formula_units_Z 32
_cell_length_a 9.778500
_cell_length_b 8.571187
_cell_length_c 17.307169
_cell_angle_alpha 90.000000
_cell_angle_beta 90.000000
_cell_angle_gamma 90.000000
_cell_volume 1450.571849
_symmetry_space_group_name_H-M "P N M A"
_symmetry_group_IT_number 62
_symmetry_cell_setting 'orthorhombic'
loop_
_space_group_symop_operation_xyz
x,y,z
1/2-x,-y,1/2+z
1/2+x,1/2-y,1/2-z
-x,1/2+y,-z
-x,-y,-z
1/2+x,y,1/2-z
1/2-x,1/2+y,1/2+z
x,1/2-y,z
loop_
_atom_site_type_symbol
_atom_site_label
_atom_site_fract_x
_atom_site_fract_y
_atom_site_fract_z
Si Si1 0.938773 0.567505 0.228024
Si Si2 0.330617 0.567547 0.826050
Si Si3 0.919223 0.562523 0.925004
Si Si4 0.652438 0.936448 0.009821
O O1 0.907238 0.750000 0.225136
O O2 0.036672 0.525890 0.298838
O O3 0.022449 0.516915 0.151514
O O4 0.797933 0.472642 0.227678
O O5 0.360529 0.750000 0.824146
O O6 0.291639 0.513416 0.911786
O O7 0.936434 0.750000 0.918885
O O8 0.759329 0.528091 0.941548
O O9 0.000000 0.500000 0.000000
O O10 0.649225 0.750000 0.018741
O O11 0.500000 0.000000 0.000000
#
# Coordination Sequence:
#
# PCOD9467519 Si02
#       4
#     8   8   8   8
#     4  12  26  45  69  98 135 177 223 274 334 399
#     4  12  26  46  70  98 135 176 223 275 333 397
#     4  11  23  42  69  98 131 173 222 270 328 393
#     4  11  25  44  68  99 136 175 223 275 333 394
#
# _framework density 22.060265000000001
#
# number of rings (size 3 to 8) (size 9 to 14) (size 15 to 20)
#    0.000    0.500    2.500    6.000    3.500    3.000 
#    0.000    0.000    0.000    0.000    0.000    0.000 
#    0.000    0.000    0.000    0.000    0.000    0.000 
#
# Total GULP energy -179280.178447 kJ/mol
# GULP energy per Si atom -5602.505576 kJ/mol
# Density = 2.201005 g / cm^3
# Si number density = 22.060265 Si / 1000 Ang^3
#
#
#
# Elastic Constant Matrix: (Units=GPa)
#
#
# Indices 1 2 3 4 5 6 
#
# 1 80.9713 -11.7072 -15.7406 0.0000 0.0000 0.0000
# 2 -11.7072 64.6020 -6.6054 0.0000 0.0000 0.0000
# 3 -15.7406 -6.6054 31.4189 0.0000 0.0000 0.0000
# 4 0.0000 0.0000 0.0000 36.1098 0.0000 0.0000
# 5 0.0000 0.0000 0.0000 0.0000 33.4657 0.0000
# 6 0.0000 0.0000 0.0000 0.0000 0.0000 36.2496
#
#
#
# Elastic Compliance Matrix: (Units=1/GPa)
#
#
# Indices 1 2 3 4 5 6 
#
# 1 0.014385 0.003417 0.007925 0.000000 0.000000 0.000000
# 2 0.003417 0.016631 0.005208 0.000000 0.000000 0.000000
# 3 0.007925 0.005208 0.036893 0.000000 0.000000 0.000000
# 4 0.000000 0.000000 0.000000 0.027693 0.000000 0.000000
# 5 0.000000 0.000000 0.000000 0.000000 0.029881 0.000000
# 6 0.000000 0.000000 0.000000 0.000000 0.000000 0.027587
#
#
# Mechanical properties :
#
#
# Convention : Reuss Voigt Hill
#
# Bulk Modulus (GPa) = 9.89999 12.09845 10.99922
# Shear Modulus (GPa) = 32.54373 35.23471 33.88922
#
# Velocity S-wave (km/s) = 3.84503 4.00084 3.92370
# Velocity P-wave (km/s) = 4.92034 5.18058 5.05214
#
# Compressibility (1/GPa) = 0.10101021
#
# Stress axis : x y z
#
# Youngs Moduli (GPa) = 69.51830 60.12798 27.10519
#
# Poissons Ratio (x) = -0.20546 -0.21481
# Poissons Ratio (y) = -0.23755 -0.14118
# Poissons Ratio (z) = -0.55093 -0.31317
#
# Static dielectric constant tensor:
#      x y z
#    x 1.826070 0.000000 0.000000 
#    y 0.000000 1.726230 0.000000 
#    z 0.000000 0.000000 1.804370 
# 
# From -- ./inp_files/25530.got.cif
#   From: 2010.05.17/outbox.cif.g08.bks.cpg/sg62_13_cif.got.tgz:25530.got - 2010.06.03 15:25:27.
