data_PCOD9467368
_publ_section_title
;
Structure prediction by ZEFSAII (Michael W. Deem and Ramdas Pophale) SiO2 
 PCOD9467368
Probable space group: P N M A
;
_chemical_formula_sum "Si O2"
_cell_formula_units_Z 56
_cell_length_a 9.128112
_cell_length_b 23.411402
_cell_length_c 14.241978
_cell_angle_alpha 90.000000
_cell_angle_beta 90.000000
_cell_angle_gamma 90.000000
_cell_volume 3043.537752
_symmetry_space_group_name_H-M "P N M A"
_symmetry_group_IT_number 62
_symmetry_cell_setting 'orthorhombic'
loop_
_space_group_symop_operation_xyz
x,y,z
1/2-x,-y,1/2+z
1/2+x,1/2-y,1/2-z
-x,1/2+y,-z
-x,-y,-z
1/2+x,y,1/2-z
1/2-x,1/2+y,1/2+z
x,1/2-y,z
loop_
_atom_site_type_symbol
_atom_site_label
_atom_site_fract_x
_atom_site_fract_y
_atom_site_fract_z
Si Si1 0.246352 0.750000 0.791869
Si Si2 0.238991 0.029667 0.656994
Si Si3 0.786722 0.399774 0.352133
Si Si4 0.706009 0.949754 0.558694
Si Si5 0.937381 0.750000 0.889033
Si Si6 0.604671 0.134316 0.181222
Si Si7 0.925773 0.941716 0.168257
Si Si8 0.068749 0.129582 0.006237
O O1 0.296580 0.750000 0.681680
O O2 0.318239 0.694220 0.838349
O O3 0.075047 0.750000 0.816966
O O4 0.232324 0.042471 0.546403
O O5 0.410473 0.034344 0.681470
O O6 0.149922 0.066890 0.731515
O O7 0.182567 0.965337 0.670434
O O8 0.652924 0.380141 0.286785
O O9 0.725278 0.392355 0.455758
O O10 0.931495 0.364595 0.330168
O O11 0.823850 0.915148 0.618737
O O12 0.559761 0.910833 0.548509
O O13 0.659952 0.009008 0.608618
O O14 0.945500 0.693895 0.955021
O O15 0.935429 0.885104 0.104059
#
# Coordination Sequence:
#
# PCOD9467368 Si02
#       8
#     4   8   8   8   4   8   8   8
#     4  12  24  38  56  91 117 160 190 239 291 357
#     4  11  22  36  59  86 120 158 195 243 297 352
#     4  12  21  35  56  88 121 157 197 237 292 357
#     4  11  21  39  59  87 120 160 192 247 295 356
#     4  12  24  38  66  83 121 154 204 235 301 351
#     4  12  24  34  56  83 128 155 193 239 294 355
#     4  11  22  38  61  85 124 153 201 246 298 354
#     4  11  22  40  58  87 118 161 195 240 296 362
#
# _framework density 18.399640999999999
#
# number of rings (size 3 to 8) (size 9 to 14) (size 15 to 20)
#    0.000    0.571    7.143    3.429    0.000    1.714 
#    0.000    0.000    0.000    4.286    0.000    0.000 
#    0.000    0.000    0.000    0.000    0.000    0.000 
#
# Total GULP energy -312774.083800 kJ/mol
# GULP energy per Si atom -5585.251496 kJ/mol
# Density = 1.835776 g / cm^3
# Si number density = 18.399641 Si / 1000 Ang^3
#
#
#
# Elastic Constant Matrix: (Units=GPa)
#
#
# Indices 1 2 3 4 5 6 
#
# 1 32.2756 5.4976 13.6232 0.0000 0.0000 0.0000
# 2 5.4976 83.3469 22.4860 0.0000 0.0000 0.0000
# 3 13.6232 22.4860 64.1940 0.0000 0.0000 0.0000
# 4 0.0000 0.0000 0.0000 26.3603 0.0000 0.0000
# 5 0.0000 0.0000 0.0000 0.0000 28.0288 0.0000
# 6 0.0000 0.0000 0.0000 0.0000 0.0000 23.0002
#
#
#
# Elastic Compliance Matrix: (Units=1/GPa)
#
#
# Indices 1 2 3 4 5 6 
#
# 1 0.034040 -0.000327 -0.007109 0.000000 0.000000 0.000000
# 2 -0.000327 0.013253 -0.004573 0.000000 0.000000 0.000000
# 3 -0.007109 -0.004573 0.018688 0.000000 0.000000 0.000000
# 4 0.000000 0.000000 0.000000 0.037936 0.000000 0.000000
# 5 0.000000 0.000000 0.000000 0.000000 0.035678 0.000000
# 6 0.000000 0.000000 0.000000 0.000000 0.000000 0.043478
#
#
# Mechanical properties :
#
#
# Convention : Reuss Voigt Hill
#
# Bulk Modulus (GPa) = 23.83089 29.22559 26.52824
# Shear Modulus (GPa) = 22.61636 24.69185 23.65410
#
# Velocity S-wave (km/s) = 3.50976 3.66727 3.58938
# Velocity P-wave (km/s) = 5.42259 5.81808 5.62382
#
# Compressibility (1/GPa) = 0.04196234
#
# Stress axis : x y z
#
# Youngs Moduli (GPa) = 29.37754 75.45254 53.50936
#
# Poissons Ratio (x) = 0.02469 0.38041
# Poissons Ratio (y) = 0.00961 0.24470
# Poissons Ratio (z) = 0.20885 0.34504
#
# Static dielectric constant tensor:
#      x y z
#    x 1.629540 0.000000 0.000000 
#    y 0.000000 1.654710 0.000000 
#    z 0.000000 0.000000 1.653980 
# 
# From -- ./inp_files/17226.got.cif
#   From: 2010.05.17/outbox.cif.g08.bks.cpg/sg62_9_cif.got.tgz:17226.got - 2010.06.03 15:25:27.
