data_PCOD9467840
_publ_section_title
;
Structure prediction by ZEFSAII (Michael W. Deem and Ramdas Pophale) SiO2 
 PCOD9467840
Probable space group: P N M A
;
_chemical_formula_sum "Si O2"
_cell_formula_units_Z 64
_cell_length_a 30.000000
_cell_length_b 9.000000
_cell_length_c 12.000000
_cell_angle_alpha 90.000000
_cell_angle_beta 90.000000
_cell_angle_gamma 90.000000
_cell_volume 3240.000000
_symmetry_space_group_name_H-M "P N M A"
_symmetry_group_IT_number 62
_symmetry_cell_setting 'orthorhombic'
loop_
_space_group_symop_operation_xyz
x,y,z
1/2-x,-y,1/2+z
1/2+x,1/2-y,1/2-z
-x,1/2+y,-z
-x,-y,-z
1/2+x,y,1/2-z
1/2-x,1/2+y,1/2+z
x,1/2-y,z
loop_
_atom_site_type_symbol
_atom_site_label
_atom_site_fract_x
_atom_site_fract_y
_atom_site_fract_z
Si Si1 0.915249 0.930405 0.583515
Si Si2 0.132742 0.073093 0.825213
Si Si3 0.817053 0.574670 0.622435
Si Si4 0.670938 0.583998 0.344471
Si Si5 0.437854 0.930368 0.156392
Si Si6 0.780923 0.074259 0.075411
Si Si7 0.079543 0.578876 0.018453
Si Si8 0.472834 0.069789 0.722718
O O1 0.916429 0.750000 0.594099
O O2 0.863631 0.978310 0.570600
O O3 0.940971 0.976472 0.471598
O O4 0.937286 0.003060 0.691097
O O5 0.137388 0.250000 0.827725
O O6 0.109250 0.026068 0.710458
O O7 0.180369 0.001839 0.852208
O O8 0.096973 0.022425 0.918846
O O9 0.815200 0.750000 0.599588
O O10 0.822792 0.539747 0.752519
O O11 0.768875 0.512739 0.588875
O O12 0.678126 0.750000 0.296621
O O13 0.703995 0.561552 0.447531
O O14 0.621846 0.581896 0.397375
O O15 0.438656 0.750000 0.157345
O O16 0.479128 0.979581 0.232058
O O17 0.781304 0.250000 0.103224
O O18 0.072461 0.750000 0.980934
O O19 0.039177 0.525784 0.096388
O O20 0.470375 0.250000 0.725511
#
# Coordination Sequence:
#
# PCOD9467840 Si02
#       8
#     8   8   8   8   8   8   8   8
#     4  10  20  35  54  79 110 141 177 224 271 315
#     4  10  20  35  55  79 106 140 182 225 266 319
#     4  10  20  33  53  78 104 134 173 219 265 314
#     4   9  17  32  52  73 100 135 173 212 258 313
#     4   9  20  36  54  78 111 145 176 217 273 323
#     4   9  20  37  53  74 105 142 176 214 273 326
#     4   9  18  33  54  77 105 140 174 216 267 314
#     4  10  19  35  57  79 106 143 181 218 265 324
#
# _framework density 19.753086
#
# number of rings (size 3 to 8) (size 9 to 14) (size 15 to 20)
#    0.000    2.500    1.250    1.500    0.000    4.500 
#    0.000    5.000    0.000    0.000    0.000    0.000 
#    0.000    0.000    0.000    0.000    0.000    0.000 
#
# Total GULP energy -356732.695055 kJ/mol
# GULP energy per Si atom -5573.948360 kJ/mol
# Density = 1.970813 g / cm^3
# Si number density = 19.753086 Si / 1000 Ang^3
#
#
#
# Elastic Constant Matrix: (Units=GPa)
#
#
# Indices 1 2 3 4 5 6 
#
# 1 80.1767 21.6239 55.0222 0.0000 0.0000 0.0000
# 2 21.6239 -4.2027 -26.2106 0.0000 0.0000 0.0000
# 3 55.0222 -26.2106 -33.6858 0.0000 0.0000 0.0000
# 4 0.0000 0.0000 0.0000 15.5370 0.0000 0.0000
# 5 0.0000 0.0000 0.0000 0.0000 16.5049 0.0000
# 6 0.0000 0.0000 0.0000 0.0000 0.0000 15.0183
#
#
#
# Elastic Compliance Matrix: (Units=1/GPa)
#
#
# Indices 1 2 3 4 5 6 
#
# 1 0.007026 0.009195 0.004322 0.000000 0.000000 0.000000
# 2 0.009195 0.073793 -0.042399 0.000000 0.000000 0.000000
# 3 0.004322 -0.042399 0.010364 0.000000 0.000000 0.000000
# 4 0.000000 0.000000 0.000000 0.064363 0.000000 0.000000
# 5 0.000000 0.000000 0.000000 0.000000 0.060588 0.000000
# 6 0.000000 0.000000 0.000000 0.000000 0.000000 0.066586
#
#
# Mechanical properties :
#
#
# Convention : Reuss Voigt Hill
#
# Bulk Modulus (GPa) = 29.92247 15.90655 22.91451
# Shear Modulus (GPa) = 14.21975 8.86888 11.54431
#
# Velocity S-wave (km/s) = 2.68596 2.12123 2.42012
# Velocity P-wave (km/s) = 4.97999 3.75096 4.40851
#
# Compressibility (1/GPa) = 0.03341970
#
# Stress axis : x y z
#
# Youngs Moduli (GPa) = 142.32220 13.55145 96.48353
#
# Poissons Ratio (x) = -0.12460 -0.41704
# Poissons Ratio (y) = -1.30861 4.09081
# Poissons Ratio (z) = -0.61518 0.57457
#
# Static dielectric constant tensor:
#      x y z
#    x 1.731430 0.000000 0.000000 
#    y 0.000000 1.650600 0.000000 
#    z 0.000000 0.000000 1.698080 
# 
# From -- ./inp_files/15844.got.cif
#   From: 2010.05.17/outbox.ucp.g08.bks.cvg/sg62_8_cif.got.tgz:15844.got - 2010.06.11 16:29:25.
