data_PCOD9467709
_publ_section_title
;
Structure prediction by ZEFSAII (Michael W. Deem and Ramdas Pophale) SiO2 
 PCOD9467709
Probable space group: P N M A
;
_chemical_formula_sum "Si O2"
_cell_formula_units_Z 56
_cell_length_a 14.320326
_cell_length_b 7.363191
_cell_length_c 30.505832
_cell_angle_alpha 90.000000
_cell_angle_beta 90.000000
_cell_angle_gamma 90.000000
_cell_volume 3216.635459
_symmetry_space_group_name_H-M "P N M A"
_symmetry_group_IT_number 62
_symmetry_cell_setting 'orthorhombic'
loop_
_space_group_symop_operation_xyz
x,y,z
1/2-x,-y,1/2+z
1/2+x,1/2-y,1/2-z
-x,1/2+y,-z
-x,-y,-z
1/2+x,y,1/2-z
1/2-x,1/2+y,1/2+z
x,1/2-y,z
loop_
_atom_site_type_symbol
_atom_site_label
_atom_site_fract_x
_atom_site_fract_y
_atom_site_fract_z
Si Si1 0.388786 0.964013 0.002502
Si Si2 0.102357 0.960475 0.599461
Si Si3 0.395913 0.528560 0.730866
Si Si4 0.789625 0.971043 0.681122
Si Si5 0.393330 0.470935 0.270414
Si Si6 0.213469 0.971261 0.682267
Si Si7 0.611255 0.472885 0.092888
O O1 0.373179 0.750000 0.003901
O O2 0.358496 0.033626 0.049980
O O3 0.353481 0.031772 0.955285
O O4 0.500000 0.000000 0.000000
O O5 0.089829 0.750000 0.611219
O O6 0.170627 0.036290 0.636506
O O7 0.996469 0.034949 0.598987
O O8 0.397024 0.750000 0.730632
O O9 0.358291 0.475522 0.779049
O O10 0.501149 0.466900 0.722558
O O11 0.317338 0.469838 0.696086
O O12 0.789786 0.750000 0.680636
O O13 0.685536 0.028769 0.694903
O O14 0.827444 0.030518 0.634153
O O15 0.394421 0.250000 0.271243
O O16 0.354872 0.521792 0.222362
O O17 0.217140 0.750000 0.681556
O O18 0.609972 0.250000 0.092014
#
# Coordination Sequence:
#
# PCOD9467709 Si02
#       7
#     8   8   8   8   8   8   8
#     4   9  16  25  36  51  71  93 117 144 175 209
#     4   9  15  23  35  50  70  95 118 140 170 206
#     4   8  12  17  25  40  64  90 113 137 165 202
#     4   8  12  17  26  41  62  89 115 135 165 208
#     4   8  12  17  26  42  66  92 114 139 171 206
#     4   8  13  19  28  44  66  92 116 136 167 208
#     4   8  13  20  30  44  63  87 111 135 165 203
#
# _framework density 17.409496000000001
#
# number of rings (size 3 to 8) (size 9 to 14) (size 15 to 20)
#    0.000    3.714    0.000    3.857    0.000    3.429 
#    0.000    0.000    0.000    0.000    0.000    1.000 
#    0.000   33.143    0.000    1.143    0.000    0.000 
#
# Total GULP energy -311804.083947 kJ/mol
# GULP energy per Si atom -5567.930070 kJ/mol
# Density = 1.736987 g / cm^3
# Si number density = 17.409496 Si / 1000 Ang^3
#
#
#
# Elastic Constant Matrix: (Units=GPa)
#
#
# Indices 1 2 3 4 5 6 
#
# 1 131.5832 3.8227 86.8085 0.0000 0.0000 0.0000
# 2 3.8227 58.5244 -1.4842 0.0000 0.0000 0.0000
# 3 86.8085 -1.4842 169.4374 0.0000 0.0000 0.0000
# 4 0.0000 0.0000 0.0000 5.1285 0.0000 0.0000
# 5 0.0000 0.0000 0.0000 0.0000 28.2407 0.0000
# 6 0.0000 0.0000 0.0000 0.0000 0.0000 -7.3925
#
#
#
# Elastic Compliance Matrix: (Units=1/GPa)
#
#
# Indices 1 2 3 4 5 6 
#
# 1 0.011527 -0.000903 -0.005914 0.000000 0.000000 0.000000
# 2 -0.000903 0.017161 0.000613 0.000000 0.000000 0.000000
# 3 -0.005914 0.000613 0.008937 0.000000 0.000000 0.000000
# 4 0.000000 0.000000 0.000000 0.194987 0.000000 0.000000
# 5 0.000000 0.000000 0.000000 0.000000 0.035410 0.000000
# 6 0.000000 0.000000 0.000000 0.000000 0.000000 -0.135272
#
#
# Mechanical properties :
#
#
# Convention : Reuss Voigt Hill
#
# Bulk Modulus (GPa) = 39.65366 59.75988 49.70677
# Shear Modulus (GPa) = 32.55962 23.22189 27.89075
#
# Velocity S-wave (km/s) = 4.32930 3.65617 4.00689
# Velocity P-wave (km/s) = 6.91498 7.22662 7.07251
#
# Compressibility (1/GPa) = 0.02521836
#
# Stress axis : x y z
#
# Youngs Moduli (GPa) = 86.74927 58.27022 111.89302
#
# Poissons Ratio (x) = 0.05261 0.66172
# Poissons Ratio (y) = 0.07833 -0.06858
# Poissons Ratio (z) = 0.51302 -0.03572
#
# Static dielectric constant tensor:
#      x y z
#    x 1.570830 0.000000 0.000000 
#    y 0.000000 1.699920 0.000000 
#    z 0.000000 0.000000 1.605500 
# 
# From -- ./inp_files/32659.got.cif
#   From: 2010.05.17/outbox.cif.g08.bks.cpg/sg62_17_cif.got.tgz:32659.got - 2010.06.03 15:25:27.
