data_PCOD9467051
_publ_section_title
;
Structure prediction by ZEFSAII (Michael W. Deem and Ramdas Pophale) SiO2 
 PCOD9467051
Probable space group: P N M A
;
_chemical_formula_sum "Si O2"
_cell_formula_units_Z 52
_cell_length_a 14.424228
_cell_length_b 9.373251
_cell_length_c 19.750385
_cell_angle_alpha 90.000000
_cell_angle_beta 90.000000
_cell_angle_gamma 90.000000
_cell_volume 2670.289766
_symmetry_space_group_name_H-M "P N M A"
_symmetry_group_IT_number 62
_symmetry_cell_setting 'orthorhombic'
loop_
_space_group_symop_operation_xyz
x,y,z
1/2-x,-y,1/2+z
1/2+x,1/2-y,1/2-z
-x,1/2+y,-z
-x,-y,-z
1/2+x,y,1/2-z
1/2-x,1/2+y,1/2+z
x,1/2-y,z
loop_
_atom_site_type_symbol
_atom_site_label
_atom_site_fract_x
_atom_site_fract_y
_atom_site_fract_z
Si Si1 0.086874 0.958108 0.066403
Si Si2 0.546989 0.581252 0.937924
Si Si3 0.995812 0.750000 0.967675
Si Si4 0.288030 0.915977 0.129164
Si Si5 0.554688 0.087374 0.686485
Si Si6 0.223418 0.580379 0.771840
Si Si7 0.938720 0.584937 0.702893
O O1 0.185260 0.921148 0.098595
O O2 0.075660 0.125100 0.056681
O O3 0.066483 0.873661 0.997800
O O4 0.006370 0.911823 0.118888
O O5 0.560710 0.750000 0.951493
O O6 0.641522 0.500821 0.918755
O O7 0.482098 0.569736 0.871268
O O8 0.500000 0.500000 0.000000
O O9 0.315635 0.750000 0.137245
O O10 0.287890 0.998588 0.200689
O O11 0.580521 0.250000 0.702940
O O12 0.645482 0.989033 0.680468
O O13 0.491341 0.018094 0.745161
O O14 0.207168 0.750000 0.764019
O O15 0.328650 0.559098 0.796442
O O16 0.953638 0.750000 0.725186
#
# Coordination Sequence:
#
# PCOD9467051 Si02
#       7
#     8   8   4   8   8   8   8
#     4  11  24  44  68  97 135 178 223 273 334 396
#     4  11  25  47  68  96 133 178 228 276 334 401
#     4  10  24  46  64  92 136 176 222 268 324 404
#     4  12  23  41  68  98 131 173 223 271 330 401
#     4  12  23  39  65  98 135 167 215 278 331 390
#     4  11  24  40  64  99 130 173 222 275 338 394
#     4  10  23  43  66  93 129 169 222 277 327 393
#
# _framework density 19.473541000000001
#
# number of rings (size 3 to 8) (size 9 to 14) (size 15 to 20)
#    0.000    0.923    4.615    1.846    4.308    1.231 
#    5.538    0.000    0.000    0.000    0.000    0.000 
#    0.000    0.000    0.000    0.000    0.000    0.000 
#
# Total GULP energy -289629.688731 kJ/mol
# GULP energy per Si atom -5569.801706 kJ/mol
# Density = 1.942922 g / cm^3
# Si number density = 19.473541 Si / 1000 Ang^3
#
#
#
# Elastic Constant Matrix: (Units=GPa)
#
#
# Indices 1 2 3 4 5 6 
#
# 1 90.9074 39.7340 12.1537 0.0000 0.0000 0.0000
# 2 39.7340 183.1999 21.4652 0.0000 0.0000 0.0000
# 3 12.1537 21.4652 30.6039 0.0000 0.0000 0.0000
# 4 0.0000 0.0000 0.0000 17.4110 0.0000 0.0000
# 5 0.0000 0.0000 0.0000 0.0000 16.6470 0.0000
# 6 0.0000 0.0000 0.0000 0.0000 0.0000 28.4937
#
#
#
# Elastic Compliance Matrix: (Units=1/GPa)
#
#
# Indices 1 2 3 4 5 6 
#
# 1 0.012455 -0.002312 -0.003325 0.000000 0.000000 0.000000
# 2 -0.002312 0.006376 -0.003554 0.000000 0.000000 0.000000
# 3 -0.003325 -0.003554 0.036489 0.000000 0.000000 0.000000
# 4 0.000000 0.000000 0.000000 0.057435 0.000000 0.000000
# 5 0.000000 0.000000 0.000000 0.000000 0.060071 0.000000
# 6 0.000000 0.000000 0.000000 0.000000 0.000000 0.035095
#
#
# Mechanical properties :
#
#
# Convention : Reuss Voigt Hill
#
# Bulk Modulus (GPa) = 27.07192 50.15745 38.61468
# Shear Modulus (GPa) = 20.95415 27.93423 24.44419
#
# Velocity S-wave (km/s) = 3.28385 3.79155 3.54680
# Velocity P-wave (km/s) = 5.32074 6.70675 6.05354
#
# Compressibility (1/GPa) = 0.03693865
#
# Stress axis : x y z
#
# Youngs Moduli (GPa) = 80.28793 156.82909 27.40563
#
# Poissons Ratio (x) = 0.36256 0.09112
# Poissons Ratio (y) = 0.18561 0.09741
# Poissons Ratio (z) = 0.26694 0.55741
#
# Static dielectric constant tensor:
#      x y z
#    x 1.691510 0.000000 0.000000 
#    y 0.000000 1.683790 0.000000 
#    z 0.000000 0.000000 1.699110 
# 
# From -- ./inp_files/27006.got.cif
#   From: 2010.05.17/outbox.cif.g08.bks.cpg/sg62_14_cif.got.tgz:27006.got - 2010.06.03 15:25:27.
