data_PCOD9467872
_publ_section_title
;
Structure prediction by ZEFSAII (Michael W. Deem and Ramdas Pophale) SiO2 
 PCOD9467872
Probable space group: P N M A
;
_chemical_formula_sum "Si O2"
_cell_formula_units_Z 64
_cell_length_a 30.000000
_cell_length_b 9.000000
_cell_length_c 15.000000
_cell_angle_alpha 90.000000
_cell_angle_beta 90.000000
_cell_angle_gamma 90.000000
_cell_volume 4050.000000
_symmetry_space_group_name_H-M "P N M A"
_symmetry_group_IT_number 62
_symmetry_cell_setting 'orthorhombic'
loop_
_space_group_symop_operation_xyz
x,y,z
1/2-x,-y,1/2+z
1/2+x,1/2-y,1/2-z
-x,1/2+y,-z
-x,-y,-z
1/2+x,y,1/2-z
1/2-x,1/2+y,1/2+z
x,1/2-y,z
loop_
_atom_site_type_symbol
_atom_site_label
_atom_site_fract_x
_atom_site_fract_y
_atom_site_fract_z
Si Si1 0.048521 0.428864 0.895116
Si Si2 0.050251 0.070132 0.106971
Si Si3 0.184227 0.928667 0.395841
Si Si4 0.216252 0.429685 0.096359
Si Si5 0.135755 0.570092 0.211759
Si Si6 0.321056 0.071922 0.106218
Si Si7 0.280808 0.070001 0.399846
Si Si8 0.360709 0.569913 0.281731
O O1 0.042290 0.250000 0.888384
O O2 0.091232 0.467048 0.830580
O O3 0.000280 0.506784 0.874635
O O4 0.059029 0.461471 0.000538
O O5 0.050486 0.250000 0.117916
O O6 0.089890 0.998975 0.168822
O O7 0.192634 0.750000 0.394883
O O8 0.147834 0.959083 0.317303
O O9 0.171751 0.965454 0.499995
O O10 0.230990 0.011911 0.374460
O O11 0.210795 0.250000 0.091047
O O12 0.178154 0.500327 0.158834
O O13 0.268051 0.457886 0.124705
O O14 0.211489 0.504267 0.999054
O O15 0.134373 0.750000 0.200641
O O16 0.327678 0.250000 0.115378
O O17 0.351682 0.989317 0.180156
O O18 0.281838 0.250000 0.398479
O O19 0.320125 0.003460 0.338166
O O20 0.357110 0.750000 0.283035
#
# Coordination Sequence:
#
# PCOD9467872 Si02
#       8
#     8   8   8   8   8   8   8   8
#     4   9  20  37  54  75 104 134 163 200 250 306
#     4  10  20  35  56  79 104 133 163 203 255 306
#     4   9  20  37  53  71 101 140 176 214 257 296
#     4  10  20  34  50  72 106 141 172 211 256 300
#     4  11  21  33  53  78 103 135 174 211 253 308
#     4   9  19  35  52  72 101 136 175 217 255 293
#     4  11  21  32  50  76 105 138 175 213 252 301
#     4  11  21  33  52  76 104 137 170 208 256 307
#
# _framework density 15.802469
#
# number of rings (size 3 to 8) (size 9 to 14) (size 15 to 20)
#    0.000    2.000    0.000    4.875    0.000    8.000 
#    0.000    0.000    0.000    0.750    0.000    0.000 
#    0.000    0.000    0.000    0.000    0.000    0.000 
#
# Total GULP energy -356860.346662 kJ/mol
# GULP energy per Si atom -5575.942917 kJ/mol
# Density = 1.576650 g / cm^3
# Si number density = 15.802469 Si / 1000 Ang^3
#
#
#
# Elastic Constant Matrix: (Units=GPa)
#
#
# Indices 1 2 3 4 5 6 
#
# 1 130.8050 52.6342 78.7550 0.0000 0.0000 0.0000
# 2 52.6342 94.2706 46.5744 0.0000 0.0000 0.0000
# 3 78.7550 46.5744 122.1590 0.0000 0.0000 0.0000
# 4 0.0000 0.0000 0.0000 32.1497 0.0000 0.0000
# 5 0.0000 0.0000 0.0000 0.0000 38.6198 0.0000
# 6 0.0000 0.0000 0.0000 0.0000 0.0000 35.5835
#
#
#
# Elastic Compliance Matrix: (Units=1/GPa)
#
#
# Indices 1 2 3 4 5 6 
#
# 1 0.013633 -0.004028 -0.007253 0.000000 0.000000 0.000000
# 2 -0.004028 0.014260 -0.002840 0.000000 0.000000 0.000000
# 3 -0.007253 -0.002840 0.013945 0.000000 0.000000 0.000000
# 4 0.000000 0.000000 0.000000 0.031105 0.000000 0.000000
# 5 0.000000 0.000000 0.000000 0.000000 0.025893 0.000000
# 6 0.000000 0.000000 0.000000 0.000000 0.000000 0.028103
#
#
# Mechanical properties :
#
#
# Convention : Reuss Voigt Hill
#
# Bulk Modulus (GPa) = 73.55551 78.12909 75.84230
# Shear Modulus (GPa) = 31.30626 32.55533 31.93080
#
# Velocity S-wave (km/s) = 4.45578 4.54380 4.50001
# Velocity P-wave (km/s) = 8.55102 8.77933 8.66592
#
# Compressibility (1/GPa) = 0.01359517
#
# Stress axis : x y z
#
# Youngs Moduli (GPa) = 73.35217 70.12718 71.71115
#
# Poissons Ratio (x) = 0.28249 0.52014
# Poissons Ratio (y) = 0.29548 0.20364
# Poissons Ratio (z) = 0.53204 0.19914
#
# Static dielectric constant tensor:
#      x y z
#    x 1.517950 0.000000 0.000000 
#    y 0.000000 1.532600 0.000000 
#    z 0.000000 0.000000 1.555080 
# 
# From -- ./inp_files/21238.got.cif
#   From: 2010.05.17/outbox.ucp.g08.bks.cvg/sg62_11_cif.got.tgz:21238.got - 2010.06.11 16:29:25.
