data_PCOD9467604
_publ_section_title
;
Structure prediction by ZEFSAII (Michael W. Deem and Ramdas Pophale) SiO2 
 PCOD9467604
Probable space group: P N M A
;
_chemical_formula_sum "Si O2"
_cell_formula_units_Z 40
_cell_length_a 11.251068
_cell_length_b 12.075685
_cell_length_c 13.961707
_cell_angle_alpha 90.000000
_cell_angle_beta 90.000000
_cell_angle_gamma 90.000000
_cell_volume 1896.898289
_symmetry_space_group_name_H-M "P N M A"
_symmetry_group_IT_number 62
_symmetry_cell_setting 'orthorhombic'
loop_
_space_group_symop_operation_xyz
x,y,z
1/2-x,-y,1/2+z
1/2+x,1/2-y,1/2-z
-x,1/2+y,-z
-x,-y,-z
1/2+x,y,1/2-z
1/2-x,1/2+y,1/2+z
x,1/2-y,z
loop_
_atom_site_type_symbol
_atom_site_label
_atom_site_fract_x
_atom_site_fract_y
_atom_site_fract_z
Si Si1 0.144743 0.750000 0.343004
Si Si2 0.579681 0.250000 0.697949
Si Si3 0.867850 0.451724 0.507259
Si Si4 0.498470 0.518969 0.387726
Si Si5 0.216720 0.626769 0.877779
Si Si6 0.291203 0.874437 0.661431
O O1 0.274890 0.750000 0.288002
O O2 0.141591 0.856583 0.412275
O O3 0.021161 0.750000 0.282215
O O4 0.547497 0.139307 0.639543
O O5 0.783166 0.549546 0.546314
O O6 0.821856 0.402204 0.406117
O O7 0.000000 0.500000 0.500000
O O8 0.500000 0.500000 0.500000
O O9 0.407067 0.428530 0.349684
O O10 0.625540 0.480763 0.352266
O O11 0.201754 0.750000 0.917183
O O12 0.279399 0.632584 0.775271
O O13 0.333293 0.750000 0.629602
#
# Coordination Sequence:
#
# PCOD9467604 Si02
#       6
#     4   4   8   8   8   8
#     4  12  26  52  74 109 153 193 251 306 372 445
#     4  12  28  46  76 107 149 197 243 304 376 439
#     4  12  27  46  73 103 146 189 240 301 372 440
#     4  12  25  44  73 101 141 181 239 296 360 430
#     4  11  26  45  68 103 137 179 242 289 352 430
#     4  11  25  47  75 100 140 190 237 301 369 426
#
# _framework density 21.087054999999999
#
# number of rings (size 3 to 8) (size 9 to 14) (size 15 to 20)
#    0.000    0.400    5.000    1.800    9.800    0.000 
#    0.000    0.000    0.000    0.000    0.000    0.000 
#    0.000    0.000    0.000    0.000    0.000    0.000 
#
# Total GULP energy -223235.459945 kJ/mol
# GULP energy per Si atom -5580.886499 kJ/mol
# Density = 2.103906 g / cm^3
# Si number density = 21.087055 Si / 1000 Ang^3
#
#
#
# Elastic Constant Matrix: (Units=GPa)
#
#
# Indices 1 2 3 4 5 6 
#
# 1 96.3953 22.4903 -3.7370 0.0000 0.0000 0.0000
# 2 22.4903 145.6980 13.9609 0.0000 0.0000 0.0000
# 3 -3.7370 13.9609 34.2977 0.0000 0.0000 0.0000
# 4 0.0000 0.0000 0.0000 13.0559 0.0000 0.0000
# 5 0.0000 0.0000 0.0000 0.0000 29.6157 0.0000
# 6 0.0000 0.0000 0.0000 0.0000 0.0000 26.9692
#
#
#
# Elastic Compliance Matrix: (Units=1/GPa)
#
#
# Indices 1 2 3 4 5 6 
#
# 1 0.010885 -0.001867 0.001946 0.000000 0.000000 0.000000
# 2 -0.001867 0.007462 -0.003241 0.000000 0.000000 0.000000
# 3 0.001946 -0.003241 0.030688 0.000000 0.000000 0.000000
# 4 0.000000 0.000000 0.000000 0.076594 0.000000 0.000000
# 5 0.000000 0.000000 0.000000 0.000000 0.033766 0.000000
# 6 0.000000 0.000000 0.000000 0.000000 0.000000 0.037079
#
#
# Mechanical properties :
#
#
# Convention : Reuss Voigt Hill
#
# Bulk Modulus (GPa) = 23.41296 37.97990 30.69643
# Shear Modulus (GPa) = 23.03784 30.17328 26.60556
#
# Velocity S-wave (km/s) = 3.30890 3.78682 3.55590
# Velocity P-wave (km/s) = 5.07204 6.09673 5.60783
#
# Compressibility (1/GPa) = 0.04271138
#
# Stress axis : x y z
#
# Youngs Moduli (GPa) = 91.87032 134.00877 32.58635
#
# Poissons Ratio (x) = 0.25015 -0.06341
# Poissons Ratio (y) = 0.17149 0.10561
# Poissons Ratio (z) = -0.17876 0.43431
#
# Static dielectric constant tensor:
#      x y z
#    x 1.770900 0.000000 0.000000 
#    y 0.000000 1.753120 0.000000 
#    z 0.000000 0.000000 1.516870 
# 
# From -- ./inp_files/17823.got.cif
#   From: 2010.05.17/outbox.cif.g08.bks.cpg/sg62_9_cif.got.tgz:17823.got - 2010.06.03 15:25:27.
