data_PCOD9467280
_publ_section_title
;
Structure prediction by ZEFSAII (Michael W. Deem and Ramdas Pophale) SiO2 
 PCOD9467280
Probable space group: P N M A
;
_chemical_formula_sum "Si O2"
_cell_formula_units_Z 40
_cell_length_a 12.362422
_cell_length_b 9.435660
_cell_length_c 18.171042
_cell_angle_alpha 90.000000
_cell_angle_beta 90.000000
_cell_angle_gamma 90.000000
_cell_volume 2119.608634
_symmetry_space_group_name_H-M "P N M A"
_symmetry_group_IT_number 62
_symmetry_cell_setting 'orthorhombic'
loop_
_space_group_symop_operation_xyz
x,y,z
1/2-x,-y,1/2+z
1/2+x,1/2-y,1/2-z
-x,1/2+y,-z
-x,-y,-z
1/2+x,y,1/2-z
1/2-x,1/2+y,1/2+z
x,1/2-y,z
loop_
_atom_site_type_symbol
_atom_site_label
_atom_site_fract_x
_atom_site_fract_y
_atom_site_fract_z
Si Si1 0.264391 0.750000 0.900082
Si Si2 0.373254 0.993358 0.141512
Si Si3 0.015449 0.750000 0.568138
Si Si4 0.002103 0.750000 0.160795
Si Si5 0.977568 0.250000 0.602219
Si Si6 0.335011 0.503041 0.304059
Si Si7 0.326800 0.250000 0.790658
Si Si8 0.218864 0.750000 0.075181
O O1 0.396484 0.750000 0.893642
O O2 0.211153 0.613541 0.859794
O O3 0.237648 0.750000 0.987392
O O4 0.473317 0.885944 0.141018
O O5 0.366169 0.057126 0.223569
O O6 0.277166 0.890291 0.111071
O O7 0.410444 0.115744 0.086911
O O8 0.992131 0.750000 0.481745
O O9 0.074385 0.750000 0.234602
O O10 0.092565 0.750000 0.096922
O O11 0.927231 0.891530 0.163133
O O12 0.853404 0.250000 0.622339
O O13 0.241771 0.610868 0.279015
#
# Coordination Sequence:
#
# PCOD9467280 Si02
#       8
#     4   8   4   4   4   8   4   4
#     4  12  27  42  59  99 141 165 206 268 335 373
#     4  11  21  40  61  98 127 163 211 260 326 385
#     4  12  25  36  65  99 136 162 199 278 335 378
#     4  11  21  44  69  87 120 173 223 259 300 377
#     4  11  20  36  67  93 123 159 214 266 336 366
#     4  11  24  41  65  97 125 170 221 258 313 392
#     4  11  19  38  69  95 118 167 222 264 299 384
#     4  11  24  42  67  89 132 170 210 269 313 380
#
# _framework density 18.871407999999999
#
# number of rings (size 3 to 8) (size 9 to 14) (size 15 to 20)
#    0.000    0.800    6.000    3.600    2.800    0.800 
#    0.000    1.000    0.000    0.000    0.000    0.000 
#    0.000    0.000    0.000    0.000    0.000    0.000 
#
# Total GULP energy -222832.371788 kJ/mol
# GULP energy per Si atom -5570.809295 kJ/mol
# Density = 1.882846 g / cm^3
# Si number density = 18.871408 Si / 1000 Ang^3
#
#
#
# Elastic Constant Matrix: (Units=GPa)
#
#
# Indices 1 2 3 4 5 6 
#
# 1 85.2664 40.6732 34.3989 0.0000 0.0000 0.0000
# 2 40.6732 90.8515 30.4444 0.0000 0.0000 0.0000
# 3 34.3989 30.4444 120.4934 0.0000 0.0000 0.0000
# 4 0.0000 0.0000 0.0000 -43.3426 0.0000 0.0000
# 5 0.0000 0.0000 0.0000 0.0000 34.3973 0.0000
# 6 0.0000 0.0000 0.0000 0.0000 0.0000 41.1718
#
#
#
# Elastic Compliance Matrix: (Units=1/GPa)
#
#
# Indices 1 2 3 4 5 6 
#
# 1 0.015836 -0.006090 -0.002982 0.000000 0.000000 0.000000
# 2 -0.006090 0.014367 -0.001891 0.000000 0.000000 0.000000
# 3 -0.002982 -0.001891 0.009628 0.000000 0.000000 0.000000
# 4 0.000000 0.000000 0.000000 -0.023072 0.000000 0.000000
# 5 0.000000 0.000000 0.000000 0.000000 0.029072 0.000000
# 6 0.000000 0.000000 0.000000 0.000000 0.000000 0.024288
#
#
# Mechanical properties :
#
#
# Convention : Reuss Voigt Hill
#
# Bulk Modulus (GPa) = 55.85297 56.40491 56.12894
# Shear Modulus (GPa) = 51.01175 19.18494 35.09835
#
# Velocity S-wave (km/s) = 5.20480 3.19190 4.31730
# Velocity P-wave (km/s) = 8.11053 6.59835 7.39321
#
# Compressibility (1/GPa) = 0.01790415
#
# Stress axis : x y z
#
# Youngs Moduli (GPa) = 63.14634 69.60206 103.85868
#
# Poissons Ratio (x) = 0.42390 0.30972
# Poissons Ratio (y) = 0.38459 0.19644
# Poissons Ratio (z) = 0.18831 0.13165
#
# Static dielectric constant tensor:
#      x y z
#    x 1.689110 0.000000 0.000000 
#    y 0.000000 1.438910 0.000000 
#    z 0.000000 0.000000 1.693890 
# 
# From -- ./inp_files/22860.got.cif
#   From: 2010.05.17/outbox.cif.g08.bks.cpg/sg62_12_cif.got.tgz:22860.got - 2010.06.03 15:25:27.
