data_PCOD9467588
_publ_section_title
;
Structure prediction by ZEFSAII (Michael W. Deem and Ramdas Pophale) SiO2 
 PCOD9467588
Probable space group: P N M A
;
_chemical_formula_sum "Si O2"
_cell_formula_units_Z 64
_cell_length_a 28.390446
_cell_length_b 13.948357
_cell_length_c 7.402943
_cell_angle_alpha 90.000000
_cell_angle_beta 90.000000
_cell_angle_gamma 90.000000
_cell_volume 2931.565992
_symmetry_space_group_name_H-M "P N M A"
_symmetry_group_IT_number 62
_symmetry_cell_setting 'orthorhombic'
loop_
_space_group_symop_operation_xyz
x,y,z
1/2-x,-y,1/2+z
1/2+x,1/2-y,1/2-z
-x,1/2+y,-z
-x,-y,-z
1/2+x,y,1/2-z
1/2-x,1/2+y,1/2+z
x,1/2-y,z
loop_
_atom_site_type_symbol
_atom_site_label
_atom_site_fract_x
_atom_site_fract_y
_atom_site_fract_z
Si Si1 0.291652 0.480199 0.958303
Si Si2 0.034736 0.354877 0.512457
Si Si3 0.285732 0.134250 0.584415
Si Si4 0.997338 0.355119 0.113772
Si Si5 0.604335 0.353388 0.532824
Si Si6 0.640521 0.146534 0.139576
Si Si7 0.429343 0.485684 0.261715
Si Si8 0.344643 0.138037 0.244157
O O1 0.288415 0.408249 0.787435
O O2 0.334596 0.552653 0.926141
O O3 0.249762 0.556551 0.992525
O O4 0.304532 0.416899 0.131725
O O5 0.024424 0.250000 0.598441
O O6 0.087753 0.351440 0.436188
O O7 0.036461 0.446125 0.643102
O O8 0.003500 0.362331 0.332220
O O9 0.273460 0.250000 0.585241
O O10 0.332501 0.127469 0.457977
O O11 0.978333 0.250000 0.068690
O O12 0.959856 0.437455 0.078254
O O13 0.049540 0.359143 0.031283
O O14 0.611794 0.250000 0.620918
O O15 0.635764 0.358782 0.356014
O O16 0.609801 0.440041 0.665943
O O17 0.662815 0.250000 0.093259
O O18 0.395994 0.402215 0.186729
O O19 0.342424 0.250000 0.202259
#
# Coordination Sequence:
#
# PCOD9467588 Si02
#       8
#     8   8   8   8   8   8   8   8
#     4  12  21  43  67  90 121 163 201 247 309 369
#     4   9  18  32  51  77 110 143 189 245 288 335
#     4  11  25  43  66  94 123 159 205 253 305 370
#     4   9  19  34  51  75 110 155 197 239 293 346
#     4   9  19  34  53  82 116 148 192 250 301 344
#     4   9  18  35  57  82 112 147 188 242 298 349
#     4  12  19  33  56  83 110 156 197 238 293 368
#     4  11  25  42  61  92 128 159 199 252 306 366
#
# _framework density 21.831336
#
# number of rings (size 3 to 8) (size 9 to 14) (size 15 to 20)
#    0.000    1.750    2.500    4.500    0.000    0.000 
#    0.000    0.000    0.000    0.000    0.000    0.000 
#    0.000    0.000    0.000    0.000    0.000    0.000 
#
# Total GULP energy -356692.448643 kJ/mol
# GULP energy per Si atom -5573.319510 kJ/mol
# Density = 2.178165 g / cm^3
# Si number density = 21.831336 Si / 1000 Ang^3
#
#
#
# Elastic Constant Matrix: (Units=GPa)
#
#
# Indices 1 2 3 4 5 6 
#
# 1 37.3418 20.4794 -1.6439 0.0000 0.0000 0.0000
# 2 20.4794 155.6013 22.3101 0.0000 0.0000 0.0000
# 3 -1.6439 22.3101 66.4871 0.0000 0.0000 0.0000
# 4 0.0000 0.0000 0.0000 30.2515 0.0000 0.0000
# 5 0.0000 0.0000 0.0000 0.0000 16.9413 0.0000
# 6 0.0000 0.0000 0.0000 0.0000 0.0000 24.2111
#
#
#
# Elastic Compliance Matrix: (Units=1/GPa)
#
#
# Indices 1 2 3 4 5 6 
#
# 1 0.029142 -0.004138 0.002109 0.000000 0.000000 0.000000
# 2 -0.004138 0.007339 -0.002565 0.000000 0.000000 0.000000
# 3 0.002109 -0.002565 0.015953 0.000000 0.000000 0.000000
# 4 0.000000 0.000000 0.000000 0.033056 0.000000 0.000000
# 5 0.000000 0.000000 0.000000 0.000000 0.059027 0.000000
# 6 0.000000 0.000000 0.000000 0.000000 0.000000 0.041303
#
#
# Mechanical properties :
#
#
# Convention : Reuss Voigt Hill
#
# Bulk Modulus (GPa) = 23.12324 37.96906 30.54615
# Shear Modulus (GPa) = 23.87497 28.83308 26.35402
#
# Velocity S-wave (km/s) = 3.31057 3.63811 3.47820
# Velocity P-wave (km/s) = 5.02274 5.92263 5.49115
#
# Compressibility (1/GPa) = 0.04324654
#
# Stress axis : x y z
#
# Youngs Moduli (GPa) = 34.31497 136.25742 62.68274
#
# Poissons Ratio (x) = 0.56382 -0.13220
# Poissons Ratio (y) = 0.14199 0.16078
# Poissons Ratio (z) = -0.07237 0.34950
#
# Static dielectric constant tensor:
#      x y z
#    x 1.820950 0.000000 0.000000 
#    y 0.000000 1.846850 0.000000 
#    z 0.000000 0.000000 1.833970 
# 
# From -- ./inp_files/10448.got.cif
#   From: 2010.05.17/outbox.cif.g08.bks.cpg/sg62_6_cif.got.tgz:10448.got - 2010.06.03 15:25:27.
