data_PCOD9467994
_publ_section_title
;
Structure prediction by ZEFSAII (Michael W. Deem and Ramdas Pophale) SiO2 
 PCOD9467994
Probable space group: P N M A
;
_chemical_formula_sum "Si O2"
_cell_formula_units_Z 64
_cell_length_a 18.000000
_cell_length_b 30.000000
_cell_length_c 6.000000
_cell_angle_alpha 90.000000
_cell_angle_beta 90.000000
_cell_angle_gamma 90.000000
_cell_volume 3240.000000
_symmetry_space_group_name_H-M "P N M A"
_symmetry_group_IT_number 62
_symmetry_cell_setting 'orthorhombic'
loop_
_space_group_symop_operation_xyz
x,y,z
1/2-x,-y,1/2+z
1/2+x,1/2-y,1/2-z
-x,1/2+y,-z
-x,-y,-z
1/2+x,y,1/2-z
1/2-x,1/2+y,1/2+z
x,1/2-y,z
loop_
_atom_site_type_symbol
_atom_site_label
_atom_site_fract_x
_atom_site_fract_y
_atom_site_fract_z
Si Si1 0.422454 0.989547 0.385603
Si Si2 0.271937 0.019196 0.539439
Si Si3 0.677931 0.697424 0.679946
Si Si4 0.281021 0.621565 0.055123
Si Si5 0.425607 0.425615 0.146344
Si Si6 0.440694 0.604850 0.174790
Si Si7 0.440915 0.357778 0.542676
Si Si8 0.817882 0.363443 0.573342
O O1 0.359174 0.008486 0.546159
O O2 0.419099 0.021736 0.170431
O O3 0.500000 0.000000 0.500000
O O4 0.415277 0.938234 0.317706
O O5 0.249660 0.071396 0.509974
O O6 0.246671 0.003633 0.792408
O O7 0.692353 0.750000 0.644387
O O8 0.737740 0.661956 0.572222
O O9 0.595241 0.683335 0.593033
O O10 0.678644 0.682176 0.936906
O O11 0.369814 0.621602 0.036180
O O12 0.260936 0.629344 0.315081
O O13 0.441499 0.400383 0.379286
O O14 0.492937 0.412420 0.984532
O O15 0.347141 0.404369 0.073537
O O16 0.479883 0.641582 0.334019
O O17 0.378573 0.363549 0.731400
#
# Coordination Sequence:
#
# PCOD9467994 Si02
#       8
#     8   8   8   8   8   8   8   8
#     4  12  24  37  60  91 131 188 246 285 334 407
#     4  12  29  46  67 103 149 198 246 298 359 426
#     4  10  22  42  70  97 124 168 224 289 360 437
#     4  11  25  41  65  97 139 179 226 288 352 424
#     4  10  21  37  60  87 125 173 228 276 330 398
#     4  11  23  38  60  93 130 181 221 286 343 412
#     4   9  19  40  62  92 122 157 214 275 342 410
#     4   9  20  38  64  87 121 164 220 278 342 405
#
# _framework density 19.753086
#
# number of rings (size 3 to 8) (size 9 to 14) (size 15 to 20)
#    0.000    1.500    2.500    2.625    7.000    3.000 
#    0.000    0.625    0.000    7.500    0.000    0.000 
#    0.000    0.000    0.000    0.000    0.000    0.000 
#
# Total GULP energy -356628.785854 kJ/mol
# GULP energy per Si atom -5572.324779 kJ/mol
# Density = 1.970813 g / cm^3
# Si number density = 19.753086 Si / 1000 Ang^3
#
#
#
# Elastic Constant Matrix: (Units=GPa)
#
#
# Indices 1 2 3 4 5 6 
#
# 1 74.2867 17.9238 8.9889 0.0000 0.0000 0.0000
# 2 17.9238 101.6820 15.8839 0.0000 0.0000 0.0000
# 3 8.9889 15.8839 64.3349 0.0000 0.0000 0.0000
# 4 0.0000 0.0000 0.0000 15.4963 0.0000 0.0000
# 5 0.0000 0.0000 0.0000 0.0000 36.0014 0.0000
# 6 0.0000 0.0000 0.0000 0.0000 0.0000 21.3531
#
#
#
# Elastic Compliance Matrix: (Units=1/GPa)
#
#
# Indices 1 2 3 4 5 6 
#
# 1 0.014183 -0.002278 -0.001419 0.000000 0.000000 0.000000
# 2 -0.002278 0.010595 -0.002298 0.000000 0.000000 0.000000
# 3 -0.001419 -0.002298 0.016309 0.000000 0.000000 0.000000
# 4 0.000000 0.000000 0.000000 0.064531 0.000000 0.000000
# 5 0.000000 0.000000 0.000000 0.000000 0.027777 0.000000
# 6 0.000000 0.000000 0.000000 0.000000 0.000000 0.046832
#
#
# Mechanical properties :
#
#
# Convention : Reuss Voigt Hill
#
# Bulk Modulus (GPa) = 34.36772 36.21075 35.28924
# Shear Modulus (GPa) = 24.76278 27.73729 26.25003
#
# Velocity S-wave (km/s) = 3.54448 3.75133 3.64937
# Velocity P-wave (km/s) = 5.84702 6.09383 5.97170
#
# Compressibility (1/GPa) = 0.02909707
#
# Stress axis : x y z
#
# Youngs Moduli (GPa) = 70.50799 94.38325 61.31509
#
# Poissons Ratio (x) = 0.21504 0.08701
# Poissons Ratio (y) = 0.16064 0.14087
# Poissons Ratio (z) = 0.10006 0.21685
#
# Static dielectric constant tensor:
#      x y z
#    x 1.739600 0.000000 0.000000 
#    y 0.000000 1.670690 0.000000 
#    z 0.000000 0.000000 1.805650 
# 
# From -- ./inp_files/1887.got.cif
#   From: 2010.05.17/outbox.ucp.g08.bks.cvg/sg62_1_cif.got.tgz:1887.got - 2010.06.11 16:29:25.
