data_PCOD9467898
_publ_section_title
;
Structure prediction by ZEFSAII (Michael W. Deem and Ramdas Pophale) SiO2 
 PCOD9467898
Probable space group: P N M A
;
_chemical_formula_sum "Si O2"
_cell_formula_units_Z 64
_cell_length_a 24.000000
_cell_length_b 9.000000
_cell_length_c 15.000000
_cell_angle_alpha 90.000000
_cell_angle_beta 90.000000
_cell_angle_gamma 90.000000
_cell_volume 3240.000000
_symmetry_space_group_name_H-M "P N M A"
_symmetry_group_IT_number 62
_symmetry_cell_setting 'orthorhombic'
loop_
_space_group_symop_operation_xyz
x,y,z
1/2-x,-y,1/2+z
1/2+x,1/2-y,1/2-z
-x,1/2+y,-z
-x,-y,-z
1/2+x,y,1/2-z
1/2-x,1/2+y,1/2+z
x,1/2-y,z
loop_
_atom_site_type_symbol
_atom_site_label
_atom_site_fract_x
_atom_site_fract_y
_atom_site_fract_z
Si Si1 0.921329 0.572111 0.255436
Si Si2 0.628709 0.572392 0.923535
Si Si3 0.118566 0.572717 0.374513
Si Si4 0.134536 0.572530 0.076906
Si Si5 0.250601 0.577841 0.631446
Si Si6 0.541750 0.929751 0.285668
Si Si7 0.265046 0.579728 0.840906
Si Si8 0.659583 0.074636 0.598029
O O1 0.924905 0.750000 0.265631
O O2 0.909766 0.500381 0.349946
O O3 0.869896 0.539754 0.191072
O O4 0.978563 0.517910 0.210934
O O5 0.629550 0.750000 0.910540
O O6 0.692939 0.521659 0.910761
O O7 0.608538 0.539487 0.022591
O O8 0.129322 0.750000 0.365685
O O9 0.067770 0.534838 0.310369
O O10 0.173471 0.486218 0.344848
O O11 0.135043 0.750000 0.078161
O O12 0.194652 0.513819 0.107846
O O13 0.085507 0.516136 0.141134
O O14 0.126967 0.510249 0.978590
O O15 0.259033 0.750000 0.603668
O O16 0.245530 0.575687 0.738325
O O17 0.540745 0.750000 0.294127
O O18 0.263788 0.750000 0.871675
O O19 0.222732 0.481784 0.898119
O O20 0.657538 0.250000 0.583181
#
# Coordination Sequence:
#
# PCOD9467898 Si02
#       8
#     8   8   8   8   8   8   8   8
#     4  10  22  40  60  80 111 154 196 239 284 340
#     4  10  21  37  58  85 116 149 185 232 288 338
#     4  10  20  37  61  86 117 155 188 229 287 347
#     4  11  22  37  61  87 115 152 193 236 287 347
#     4  10  20  35  56  85 122 151 182 234 289 343
#     4   9  20  39  59  83 114 151 195 237 285 342
#     4  11  21  35  59  88 118 150 188 236 285 340
#     4  11  23  38  58  84 115 152 194 239 293 344
#
# _framework density 19.753086
#
# number of rings (size 3 to 8) (size 9 to 14) (size 15 to 20)
#    0.000    1.750    2.500    1.875    0.000    4.000 
#    0.000    1.875    0.000    0.000    0.000    0.000 
#    0.000    0.000    0.000    0.000    0.000    0.000 
#
# Total GULP energy -357321.912435 kJ/mol
# GULP energy per Si atom -5583.154882 kJ/mol
# Density = 1.970813 g / cm^3
# Si number density = 19.753086 Si / 1000 Ang^3
#
#
#
# Elastic Constant Matrix: (Units=GPa)
#
#
# Indices 1 2 3 4 5 6 
#
# 1 44.1742 15.5731 -18.6713 0.0000 0.0000 0.0000
# 2 15.5731 23.8213 30.2368 0.0000 0.0000 0.0000
# 3 -18.6713 30.2368 16.1834 0.0000 0.0000 0.0000
# 4 0.0000 0.0000 0.0000 23.5637 0.0000 0.0000
# 5 0.0000 0.0000 0.0000 0.0000 -7.9842 0.0000
# 6 0.0000 0.0000 0.0000 0.0000 0.0000 42.6927
#
#
#
# Elastic Compliance Matrix: (Units=1/GPa)
#
#
# Indices 1 2 3 4 5 6 
#
# 1 0.009945 0.015358 -0.017221 0.000000 0.000000 0.000000
# 2 0.015358 -0.006889 0.030589 0.000000 0.000000 0.000000
# 3 -0.017221 0.030589 -0.015230 0.000000 0.000000 0.000000
# 4 0.000000 0.000000 0.000000 0.042438 0.000000 0.000000
# 5 0.000000 0.000000 0.000000 0.000000 -0.125247 0.000000
# 6 0.000000 0.000000 0.000000 0.000000 0.000000 0.023423
#
#
# Mechanical properties :
#
#
# Convention : Reuss Voigt Hill
#
# Bulk Modulus (GPa) = 22.08549 15.38404 18.73476
# Shear Modulus (GPa) = -43.89074 15.45713 -14.21681
#
# Velocity S-wave (km/s) = -4.71889 2.80039 -2.68568
# Velocity P-wave (km/s) = 4.29948 4.27332 0.33483
#
# Compressibility (1/GPa) = 0.04527859
#
# Stress axis : x y z
#
# Youngs Moduli (GPa) = 100.55803 -145.16660 -65.66165
#
# Poissons Ratio (x) = 2.22945 -1.13077
# Poissons Ratio (y) = -1.54436 2.00855
# Poissons Ratio (z) = 1.73172 4.44056
#
# Static dielectric constant tensor:
#      x y z
#    x 1.676600 0.000000 0.000000 
#    y 0.000000 1.672710 0.000000 
#    z 0.000000 0.000000 1.715440 
# 
# From -- ./inp_files/20978.got.cif
#   From: 2010.05.17/outbox.ucp.g08.bks.cvg/sg62_11_cif.got.tgz:20978.got - 2010.06.11 16:29:25.
