data_PCOD9467871
_publ_section_title
;
Structure prediction by ZEFSAII (Michael W. Deem and Ramdas Pophale) SiO2 
 PCOD9467871
Probable space group: P N M A
;
_chemical_formula_sum "Si O2"
_cell_formula_units_Z 56
_cell_length_a 21.000000
_cell_length_b 9.000000
_cell_length_c 15.000000
_cell_angle_alpha 90.000000
_cell_angle_beta 90.000000
_cell_angle_gamma 90.000000
_cell_volume 2835.000000
_symmetry_space_group_name_H-M "P N M A"
_symmetry_group_IT_number 62
_symmetry_cell_setting 'orthorhombic'
loop_
_space_group_symop_operation_xyz
x,y,z
1/2-x,-y,1/2+z
1/2+x,1/2-y,1/2-z
-x,1/2+y,-z
-x,-y,-z
1/2+x,y,1/2-z
1/2-x,1/2+y,1/2+z
x,1/2-y,z
loop_
_atom_site_type_symbol
_atom_site_label
_atom_site_fract_x
_atom_site_fract_y
_atom_site_fract_z
Si Si1 0.232623 0.427930 0.753016
Si Si2 0.266968 0.920258 0.933103
Si Si3 0.326787 0.423352 0.600417
Si Si4 0.568411 0.427008 0.506642
Si Si5 0.090670 0.074230 0.488540
Si Si6 0.985756 0.074337 0.353005
Si Si7 0.406250 0.571452 0.290837
O O1 0.230834 0.250000 0.742491
O O2 0.253290 0.471440 0.851941
O O3 0.283675 0.482894 0.681190
O O4 0.159521 0.480261 0.744273
O O5 0.267091 0.750000 0.898915
O O6 0.335301 0.950233 0.975977
O O7 0.216453 0.929613 0.012015
O O8 0.343022 0.250000 0.617331
O O9 0.388576 0.514681 0.573974
O O10 0.500000 0.500000 0.500000
O O11 0.564495 0.250000 0.503818
O O12 0.595281 0.469302 0.604859
O O13 0.079484 0.250000 0.507457
O O14 0.054338 0.038858 0.396105
O O15 0.061452 0.980648 0.568721
O O16 0.981127 0.250000 0.340737
O O17 0.965473 0.994869 0.262485
O O18 0.409035 0.750000 0.285483
#
# Coordination Sequence:
#
# PCOD9467871 Si02
#       7
#     8   8   8   8   8   8   8
#     4  10  21  38  60  86 116 152 196 245 299 359
#     4  10  20  36  59  84 114 152 192 241 293 347
#     4  10  21  38  61  88 120 156 197 249 306 360
#     4  11  24  42  64  87 118 158 201 248 299 359
#     4   9  19  36  54  79 118 155 187 232 294 347
#     4  10  20  33  55  85 114 149 194 239 281 340
#     4  10  21  39  60  82 115 158 196 238 299 357
#
# _framework density 19.753086
#
# number of rings (size 3 to 8) (size 9 to 14) (size 15 to 20)
#    0.000    2.000    1.429    1.714    0.000    6.857 
#    0.000    4.286    0.000    0.000    0.000    0.000 
#    0.000    0.000    0.000    0.000    0.000    0.000 
#
# Total GULP energy -312560.871423 kJ/mol
# GULP energy per Si atom -5581.444133 kJ/mol
# Density = 1.970813 g / cm^3
# Si number density = 19.753086 Si / 1000 Ang^3
#
#
#
# Elastic Constant Matrix: (Units=GPa)
#
#
# Indices 1 2 3 4 5 6 
#
# 1 72.9092 14.6255 -15.3748 0.0000 0.0000 0.0000
# 2 14.6255 -3.1714 -2.6037 0.0000 0.0000 0.0000
# 3 -15.3748 -2.6037 20.6982 0.0000 0.0000 0.0000
# 4 0.0000 0.0000 0.0000 31.3403 0.0000 0.0000
# 5 0.0000 0.0000 0.0000 0.0000 24.4277 0.0000
# 6 0.0000 0.0000 0.0000 0.0000 0.0000 2.7250
#
#
#
# Elastic Compliance Matrix: (Units=1/GPa)
#
#
# Indices 1 2 3 4 5 6 
#
# 1 0.009300 0.033734 0.011152 0.000000 0.000000 0.000000
# 2 0.033734 -0.163438 0.004498 0.000000 0.000000 0.000000
# 3 0.011152 0.004498 0.057163 0.000000 0.000000 0.000000
# 4 0.000000 0.000000 0.000000 0.031908 0.000000 0.000000
# 5 0.000000 0.000000 0.000000 0.000000 0.040937 0.000000
# 6 0.000000 0.000000 0.000000 0.000000 0.000000 0.366976
#
#
# Mechanical properties :
#
#
# Convention : Reuss Voigt Hill
#
# Bulk Modulus (GPa) = 557.57148 9.30331 283.43739
# Shear Modulus (GPa) = 20.43520 17.95119 19.19319
#
# Velocity S-wave (km/s) = 3.21990 3.01787 3.12052
# Velocity P-wave (km/s) = 17.22519 4.10650 12.52139
#
# Compressibility (1/GPa) = 0.00179349
#
# Stress axis : x y z
#
# Youngs Moduli (GPa) = 107.52246 -6.11852 17.49379
#
# Poissons Ratio (x) = 0.20640 -0.19509
# Poissons Ratio (y) = -3.62717 -0.07869
# Poissons Ratio (z) = -1.19909 0.02752
#
# Static dielectric constant tensor:
#      x y z
#    x 1.721860 0.000000 0.000000 
#    y 0.000000 1.675410 0.000000 
#    z 0.000000 0.000000 1.636970 
# 
# From -- ./inp_files/20349.got.cif
#   From: 2010.05.17/outbox.ucp.g08.bks.cvg/sg62_11_cif.got.tgz:20349.got - 2010.06.11 16:29:25.
