data_PCOD9467220
_publ_section_title
;
Structure prediction by ZEFSAII (Michael W. Deem and Ramdas Pophale) SiO2 
 PCOD9467220
Probable space group: P N M A
;
_chemical_formula_sum "Si O2"
_cell_formula_units_Z 36
_cell_length_a 9.830208
_cell_length_b 18.559394
_cell_length_c 8.135661
_cell_angle_alpha 90.000000
_cell_angle_beta 90.000000
_cell_angle_gamma 90.000000
_cell_volume 1484.291987
_symmetry_space_group_name_H-M "P N M A"
_symmetry_group_IT_number 62
_symmetry_cell_setting 'orthorhombic'
loop_
_space_group_symop_operation_xyz
x,y,z
1/2-x,-y,1/2+z
1/2+x,1/2-y,1/2-z
-x,1/2+y,-z
-x,-y,-z
1/2+x,y,1/2-z
1/2-x,1/2+y,1/2+z
x,1/2-y,z
loop_
_atom_site_type_symbol
_atom_site_label
_atom_site_fract_x
_atom_site_fract_y
_atom_site_fract_z
Si Si1 0.672550 0.750000 0.083937
Si Si2 0.018954 0.988264 0.800395
Si Si3 0.530863 0.250000 0.470829
Si Si4 0.280293 0.905551 0.882422
Si Si5 0.594266 0.250000 0.122809
Si Si6 0.114162 0.873581 0.178533
O O1 0.685004 0.678197 0.192121
O O2 0.804968 0.750000 0.971015
O O3 0.516700 0.750000 0.022379
O O4 0.156709 0.943012 0.783650
O O5 0.910242 0.942745 0.697514
O O6 0.988870 0.069570 0.741409
O O7 0.000000 0.000000 0.000000
O O8 0.496563 0.250000 0.280861
O O9 0.470971 0.179775 0.559726
O O10 0.313067 0.820767 0.875637
O O11 0.228514 0.914113 0.070410
#
# Coordination Sequence:
#
# PCOD9467220 Si02
#       6
#     4   8   4   8   4   8
#     4  11  28  45  83 107 149 210 246 333 381 472
#     4  10  24  47  74 111 156 203 257 320 386 458
#     4  11  26  46  77 105 154 191 257 320 379 456
#     4  11  25  45  77 108 154 205 253 324 385 458
#     4  12  26  45  70 112 143 193 267 303 400 456
#     4  10  25  49  73 113 150 198 262 310 390 461
#
# _framework density 24.253988
#
# number of rings (size 3 to 8) (size 9 to 14) (size 15 to 20)
#    0.000    1.333    0.000    4.000   15.556    1.778 
#    0.000    5.556    0.000    0.000    0.000    0.000 
#    0.000    0.000    0.000    0.000    0.000    0.000 
#
# Total GULP energy -201104.449425 kJ/mol
# GULP energy per Si atom -5586.234706 kJ/mol
# Density = 2.419879 g / cm^3
# Si number density = 24.253988 Si / 1000 Ang^3
#
#
#
# Elastic Constant Matrix: (Units=GPa)
#
#
# Indices 1 2 3 4 5 6 
#
# 1 117.7062 30.7590 38.0119 0.0000 0.0000 0.0000
# 2 30.7590 126.8735 23.9851 0.0000 0.0000 0.0000
# 3 38.0119 23.9851 50.1754 0.0000 0.0000 0.0000
# 4 0.0000 0.0000 0.0000 12.4737 0.0000 0.0000
# 5 0.0000 0.0000 0.0000 0.0000 40.0184 0.0000
# 6 0.0000 0.0000 0.0000 0.0000 0.0000 -119.8695
#
#
#
# Elastic Compliance Matrix: (Units=1/GPa)
#
#
# Indices 1 2 3 4 5 6 
#
# 1 0.011424 -0.001246 -0.008059 0.000000 0.000000 0.000000
# 2 -0.001246 0.008801 -0.003263 0.000000 0.000000 0.000000
# 3 -0.008059 -0.003263 0.027595 0.000000 0.000000 0.000000
# 4 0.000000 0.000000 0.000000 0.080169 0.000000 0.000000
# 5 0.000000 0.000000 0.000000 0.000000 0.024989 0.000000
# 6 0.000000 0.000000 0.000000 0.000000 0.000000 -0.008342
#
#
# Mechanical properties :
#
#
# Convention : Reuss Voigt Hill
#
# Bulk Modulus (GPa) = 44.08407 53.36302 48.72355
# Shear Modulus (GPa) = 28.19576 -0.00887 14.09344
#
# Velocity S-wave (km/s) = 3.41327 -0.06055 2.41317
# Velocity P-wave (km/s) = 5.80942 4.69517 5.28176
#
# Compressibility (1/GPa) = 0.02268393
#
# Stress axis : x y z
#
# Youngs Moduli (GPa) = 87.53601 113.62564 36.23832
#
# Poissons Ratio (x) = 0.14159 0.29204
# Poissons Ratio (y) = 0.10908 0.11825
# Poissons Ratio (z) = 0.70544 0.37076
#
# Static dielectric constant tensor:
#      x y z
#    x 1.954580 0.000000 0.000000 
#    y 0.000000 1.879510 0.000000 
#    z 0.000000 0.000000 1.946700 
# 
# From -- ./inp_files/4214.got.cif
#   From: 2010.05.17/outbox.cif.g08.bks.cpg/sg62_3_cif.got.tgz:4214.got - 2010.06.03 15:25:27.
