data_PCOD9467327
_publ_section_title
;
Structure prediction by ZEFSAII (Michael W. Deem and Ramdas Pophale) SiO2 
 PCOD9467327
Probable space group: P N M A
;
_chemical_formula_sum "Si O2"
_cell_formula_units_Z 56
_cell_length_a 14.022199
_cell_length_b 8.656453
_cell_length_c 30.461678
_cell_angle_alpha 90.000000
_cell_angle_beta 90.000000
_cell_angle_gamma 90.000000
_cell_volume 3697.514831
_symmetry_space_group_name_H-M "P N M A"
_symmetry_group_IT_number 62
_symmetry_cell_setting 'orthorhombic'
loop_
_space_group_symop_operation_xyz
x,y,z
1/2-x,-y,1/2+z
1/2+x,1/2-y,1/2-z
-x,1/2+y,-z
-x,-y,-z
1/2+x,y,1/2-z
1/2-x,1/2+y,1/2+z
x,1/2-y,z
loop_
_atom_site_type_symbol
_atom_site_label
_atom_site_fract_x
_atom_site_fract_y
_atom_site_fract_z
Si Si1 0.392254 0.935343 0.998320
Si Si2 0.111486 0.062246 0.594453
Si Si3 0.401520 0.435825 0.729496
Si Si4 0.788713 0.063542 0.682769
Si Si5 0.391002 0.066743 0.269387
Si Si6 0.208354 0.063025 0.683515
Si Si7 0.610970 0.563505 0.093287
O O1 0.394461 0.750000 0.996201
O O2 0.350853 0.000441 0.953077
O O3 0.351073 0.981967 0.045983
O O4 0.500000 0.000000 0.000000
O O5 0.111483 0.250000 0.595588
O O6 0.172096 0.009013 0.636108
O O7 0.000223 0.014908 0.598549
O O8 0.412226 0.250000 0.728267
O O9 0.362221 0.477562 0.778054
O O10 0.502514 0.511736 0.720402
O O11 0.316420 0.480285 0.696283
O O12 0.781179 0.250000 0.683060
O O13 0.829339 0.014341 0.635758
O O14 0.686974 0.995050 0.696085
O O15 0.386357 0.250000 0.267569
O O16 0.359073 0.998370 0.222262
O O17 0.203640 0.250000 0.684826
O O18 0.611277 0.750000 0.091487
#
# Coordination Sequence:
#
# PCOD9467327 Si02
#       7
#     8   8   8   8   8   8   8
#     4   9  16  26  40  60  88 117 143 173 211 256
#     4   8  14  26  44  64  85 111 143 175 207 247
#     4   9  17  30  47  63  81 110 146 180 211 247
#     4   9  18  32  49  65  83 114 153 183 208 251
#     4  11  21  30  42  63  92 117 138 174 220 260
#     4   9  17  31  49  64  81 112 153 184 207 246
#     4   9  16  27  44  65  88 113 142 177 214 253
#
# _framework density 15.145308
#
# number of rings (size 3 to 8) (size 9 to 14) (size 15 to 20)
#    0.000    2.857    0.000    4.286    0.000    5.143 
#    0.000    6.429    0.000    0.000    0.000    1.000 
#    0.000    0.000    0.000    0.000    0.000    0.000 
#
# Total GULP energy -311893.642235 kJ/mol
# GULP energy per Si atom -5569.529326 kJ/mol
# Density = 1.511084 g / cm^3
# Si number density = 15.145308 Si / 1000 Ang^3
#
#
#
# Elastic Constant Matrix: (Units=GPa)
#
#
# Indices 1 2 3 4 5 6 
#
# 1 90.1078 23.4774 67.5813 0.0000 0.0000 0.0000
# 2 23.4774 18.3485 28.0547 0.0000 0.0000 0.0000
# 3 67.5813 28.0547 163.7165 0.0000 0.0000 0.0000
# 4 0.0000 0.0000 0.0000 20.3790 0.0000 0.0000
# 5 0.0000 0.0000 0.0000 0.0000 22.9455 0.0000
# 6 0.0000 0.0000 0.0000 0.0000 0.0000 4.3655
#
#
#
# Elastic Compliance Matrix: (Units=1/GPa)
#
#
# Indices 1 2 3 4 5 6 
#
# 1 0.019320 -0.016974 -0.005067 0.000000 0.000000 0.000000
# 2 -0.016974 0.088763 -0.008204 0.000000 0.000000 0.000000
# 3 -0.005067 -0.008204 0.009605 0.000000 0.000000 0.000000
# 4 0.000000 0.000000 0.000000 0.049070 0.000000 0.000000
# 5 0.000000 0.000000 0.000000 0.000000 0.043582 0.000000
# 6 0.000000 0.000000 0.000000 0.000000 0.000000 0.229070
#
#
# Mechanical properties :
#
#
# Convention : Reuss Voigt Hill
#
# Bulk Modulus (GPa) = 17.48263 56.71105 37.09684
# Shear Modulus (GPa) = 9.63454 19.74196 14.68825
#
# Velocity S-wave (km/s) = 2.52492 3.61432 3.11757
# Velocity P-wave (km/s) = 4.47980 7.41240 6.12423
#
# Compressibility (1/GPa) = 0.05719963
#
# Stress axis : x y z
#
# Youngs Moduli (GPa) = 51.75865 11.26597 104.10812
#
# Poissons Ratio (x) = 0.19123 0.52748
# Poissons Ratio (y) = 0.87856 0.85407
# Poissons Ratio (z) = 0.26224 0.09242
#
# Static dielectric constant tensor:
#      x y z
#    x 1.483770 0.000000 0.000000 
#    y 0.000000 1.513380 0.000000 
#    z 0.000000 0.000000 1.528740 
# 
# From -- ./inp_files/32657.got.cif
#   From: 2010.05.17/outbox.cif.g08.bks.cpg/sg62_17_cif.got.tgz:32657.got - 2010.06.03 15:25:27.
