data_PCOD9467943
_publ_section_title
;
Structure prediction by ZEFSAII (Michael W. Deem and Ramdas Pophale) SiO2 
 PCOD9467943
Probable space group: P N M A
;
_chemical_formula_sum "Si O2"
_cell_formula_units_Z 64
_cell_length_a 21.000000
_cell_length_b 9.000000
_cell_length_c 18.000000
_cell_angle_alpha 90.000000
_cell_angle_beta 90.000000
_cell_angle_gamma 90.000000
_cell_volume 3402.000000
_symmetry_space_group_name_H-M "P N M A"
_symmetry_group_IT_number 62
_symmetry_cell_setting 'orthorhombic'
loop_
_space_group_symop_operation_xyz
x,y,z
1/2-x,-y,1/2+z
1/2+x,1/2-y,1/2-z
-x,1/2+y,-z
-x,-y,-z
1/2+x,y,1/2-z
1/2-x,1/2+y,1/2+z
x,1/2-y,z
loop_
_atom_site_type_symbol
_atom_site_label
_atom_site_fract_x
_atom_site_fract_y
_atom_site_fract_z
Si Si1 0.548595 0.929617 0.941135
Si Si2 0.314461 0.573251 0.078131
Si Si3 0.181799 0.073802 0.080985
Si Si4 0.831508 0.574429 0.740497
Si Si5 0.068157 0.575682 0.826392
Si Si6 0.697036 0.926266 0.764153
Si Si7 0.930941 0.070714 0.009398
Si Si8 0.971015 0.931666 0.708703
O O1 0.552309 0.750000 0.947370
O O2 0.515941 0.965977 0.861420
O O3 0.619368 0.998894 0.948951
O O4 0.500000 0.000000 0.000000
O O5 0.315450 0.750000 0.065451
O O6 0.247487 0.500892 0.052047
O O7 0.310878 0.530803 0.165106
O O8 0.183630 0.250000 0.066956
O O9 0.172408 0.054530 0.170156
O O10 0.121253 0.997453 0.044358
O O11 0.834563 0.750000 0.724521
O O12 0.759942 0.528250 0.717647
O O13 0.897857 0.512814 0.708224
O O14 0.052542 0.750000 0.836355
O O15 0.131325 0.566003 0.778373
O O16 0.085287 0.520870 0.907115
O O17 0.007942 0.512205 0.782040
O O18 0.705266 0.750000 0.787114
O O19 0.932056 0.250000 0.002030
O O20 0.000000 0.000000 0.000000
O O21 0.968945 0.750000 0.711435
#
# Coordination Sequence:
#
# PCOD9467943 Si02
#       8
#     8   8   8   8   8   8   8   8
#     4  11  22  38  59  82 113 148 190 239 292 346
#     4  11  21  36  59  85 113 146 191 236 283 344
#     4  10  20  37  60  84 116 154 193 237 287 341
#     4   8  15  28  53  83 105 135 182 228 272 329
#     4   9  17  31  54  79 107 147 192 233 271 334
#     4   9  16  32  56  80 106 140 184 229 278 334
#     4  11  22  36  55  83 119 156 198 243 287 341
#     4   9  16  30  54  82 107 138 184 230 272 330
#
# _framework density 18.812463000000001
#
# number of rings (size 3 to 8) (size 9 to 14) (size 15 to 20)
#    0.000    2.250    1.250    3.750    0.000    2.000 
#    2.250    1.250    0.000    6.750    0.000    0.000 
#    0.000    0.000    0.000    0.000    0.000    0.000 
#
# Total GULP energy -356378.674305 kJ/mol
# GULP energy per Si atom -5568.416786 kJ/mol
# Density = 1.876965 g / cm^3
# Si number density = 18.812463 Si / 1000 Ang^3
#
#
#
# Elastic Constant Matrix: (Units=GPa)
#
#
# Indices 1 2 3 4 5 6 
#
# 1 125.6384 46.0225 -1.3962 0.0000 0.0000 0.0000
# 2 46.0225 79.2403 17.3218 0.0000 0.0000 0.0000
# 3 -1.3962 17.3218 6.9010 0.0000 0.0000 0.0000
# 4 0.0000 0.0000 0.0000 16.1084 0.0000 0.0000
# 5 0.0000 0.0000 0.0000 0.0000 21.7494 0.0000
# 6 0.0000 0.0000 0.0000 0.0000 0.0000 29.4927
#
#
#
# Elastic Compliance Matrix: (Units=1/GPa)
#
#
# Indices 1 2 3 4 5 6 
#
# 1 0.017617 -0.024398 0.064803 0.000000 0.000000 0.000000
# 2 -0.024398 0.061752 -0.159936 0.000000 0.000000 0.000000
# 3 0.064803 -0.159936 0.559463 0.000000 0.000000 0.000000
# 4 0.000000 0.000000 0.000000 0.062079 0.000000 0.000000
# 5 0.000000 0.000000 0.000000 0.000000 0.045978 0.000000
# 6 0.000000 0.000000 0.000000 0.000000 0.000000 0.033907
#
#
# Mechanical properties :
#
#
# Convention : Reuss Voigt Hill
#
# Bulk Modulus (GPa) = 2.50143 37.29734 19.89939
# Shear Modulus (GPa) = 4.33609 23.45888 13.89748
#
# Velocity S-wave (km/s) = 1.51984 3.53510 2.72092
# Velocity P-wave (km/s) = 2.10058 6.04413 4.52459
#
# Compressibility (1/GPa) = 0.39977148
#
# Stress axis : x y z
#
# Youngs Moduli (GPa) = 56.76471 16.19390 1.78743
#
# Poissons Ratio (x) = 0.39509 -0.11583
# Poissons Ratio (y) = 1.38492 0.28587
# Poissons Ratio (z) = -3.67854 2.58998
#
# Static dielectric constant tensor:
#      x y z
#    x 1.676400 0.000000 0.000000 
#    y 0.000000 1.690450 0.000000 
#    z 0.000000 0.000000 1.685270 
# 
# From -- ./inp_files/24771.got.cif
#   From: 2010.05.17/outbox.ucp.g08.bks.cvg/sg62_13_cif.got.tgz:24771.got - 2010.06.11 16:29:25.
