data_PCOD9467690
_publ_section_title
;
Structure prediction by ZEFSAII (Michael W. Deem and Ramdas Pophale) SiO2 
 PCOD9467690
Probable space group: P N M A
;
_chemical_formula_sum "Si O2"
_cell_formula_units_Z 36
_cell_length_a 8.190018
_cell_length_b 20.803017
_cell_length_c 8.894831
_cell_angle_alpha 90.000000
_cell_angle_beta 90.000000
_cell_angle_gamma 90.000000
_cell_volume 1515.475366
_symmetry_space_group_name_H-M "P N M A"
_symmetry_group_IT_number 62
_symmetry_cell_setting 'orthorhombic'
loop_
_space_group_symop_operation_xyz
x,y,z
1/2-x,-y,1/2+z
1/2+x,1/2-y,1/2-z
-x,1/2+y,-z
-x,-y,-z
1/2+x,y,1/2-z
1/2-x,1/2+y,1/2+z
x,1/2-y,z
loop_
_atom_site_type_symbol
_atom_site_label
_atom_site_fract_x
_atom_site_fract_y
_atom_site_fract_z
Si Si1 0.405203 0.375705 0.296063
Si Si2 0.300186 0.950833 0.581674
Si Si3 0.339631 0.634927 0.068955
Si Si4 0.520315 0.750000 0.905819
Si Si5 0.867437 0.430124 0.720814
O O1 0.569108 0.395006 0.382981
O O2 0.361279 0.428526 0.171155
O O3 0.258741 0.378204 0.415910
O O4 0.420575 0.307161 0.213885
O O5 0.254766 0.953565 0.408747
O O6 0.369171 0.016424 0.649641
O O7 0.463318 0.582568 0.136929
O O8 0.201291 0.634793 0.199528
O O9 0.450085 0.694656 0.022523
#
# Coordination Sequence:
#
# PCOD9467690 Si02
#       5
#     8   8   8   4   8
#     4  12  25  47  77 111 153 211 262 323 385 472
#     4  12  25  46  79 112 158 207 260 331 396 472
#     4  12  27  50  78 116 158 207 262 326 389 474
#     4  12  26  50  78 108 156 208 266 312 386 480
#     4  12  27  49  77 120 162 203 267 328 406 466
#
# _framework density 23.754923000000002
#
# number of rings (size 3 to 8) (size 9 to 14) (size 15 to 20)
#    0.000    0.000    4.444    4.667    0.000    6.222 
#    0.000    4.444    0.000    0.000    0.000    0.000 
#    0.000    0.000    0.000    0.000    0.000    0.000 
#
# Total GULP energy -200465.638881 kJ/mol
# GULP energy per Si atom -5568.489969 kJ/mol
# Density = 2.370086 g / cm^3
# Si number density = 23.754923 Si / 1000 Ang^3
#
#
#
# Elastic Constant Matrix: (Units=GPa)
#
#
# Indices 1 2 3 4 5 6 
#
# 1 81.0886 22.7169 44.1468 0.0000 0.0000 0.0000
# 2 22.7169 125.2741 51.7306 0.0000 0.0000 0.0000
# 3 44.1468 51.7306 161.8357 0.0000 0.0000 0.0000
# 4 0.0000 0.0000 0.0000 40.1138 0.0000 0.0000
# 5 0.0000 0.0000 0.0000 0.0000 52.8105 0.0000
# 6 0.0000 0.0000 0.0000 0.0000 0.0000 14.8141
#
#
#
# Elastic Compliance Matrix: (Units=1/GPa)
#
#
# Indices 1 2 3 4 5 6 
#
# 1 0.014627 -0.001158 -0.003620 0.000000 0.000000 0.000000
# 2 -0.001158 0.009288 -0.002653 0.000000 0.000000 0.000000
# 3 -0.003620 -0.002653 0.008015 0.000000 0.000000 0.000000
# 4 0.000000 0.000000 0.000000 0.024929 0.000000 0.000000
# 5 0.000000 0.000000 0.000000 0.000000 0.018936 0.000000
# 6 0.000000 0.000000 0.000000 0.000000 0.000000 0.067503
#
#
# Mechanical properties :
#
#
# Convention : Reuss Voigt Hill
#
# Bulk Modulus (GPa) = 58.58793 67.26524 62.92658
# Shear Modulus (GPa) = 30.51581 38.18794 34.35187
#
# Velocity S-wave (km/s) = 3.58803 4.01381 3.80688
# Velocity P-wave (km/s) = 6.47166 7.06107 6.77278
#
# Compressibility (1/GPa) = 0.01706836
#
# Stress axis : x y z
#
# Youngs Moduli (GPa) = 68.36482 107.66588 124.77057
#
# Poissons Ratio (x) = 0.12463 0.45169
# Poissons Ratio (y) = 0.07914 0.33103
# Poissons Ratio (z) = 0.24749 0.28565
#
# Static dielectric constant tensor:
#      x y z
#    x 2.011240 0.000000 0.000000 
#    y 0.000000 1.889050 0.000000 
#    z 0.000000 0.000000 1.872940 
# 
# From -- ./inp_files/4167.got.cif
#   From: 2010.05.17/outbox.cif.g08.bks.cpg/sg62_3_cif.got.tgz:4167.got - 2010.06.03 15:25:27.
