data_PCOD9467096
_publ_section_title
;
Structure prediction by ZEFSAII (Michael W. Deem and Ramdas Pophale) SiO2 
 PCOD9467096
Probable space group: P N M A
;
_chemical_formula_sum "Si O2"
_cell_formula_units_Z 40
_cell_length_a 24.647091
_cell_length_b 12.703508
_cell_length_c 5.118764
_cell_angle_alpha 90.000000
_cell_angle_beta 90.000000
_cell_angle_gamma 90.000000
_cell_volume 1602.708133
_symmetry_space_group_name_H-M "P N M A"
_symmetry_group_IT_number 62
_symmetry_cell_setting 'orthorhombic'
loop_
_space_group_symop_operation_xyz
x,y,z
1/2-x,-y,1/2+z
1/2+x,1/2-y,1/2-z
-x,1/2+y,-z
-x,-y,-z
1/2+x,y,1/2-z
1/2-x,1/2+y,1/2+z
x,1/2-y,z
loop_
_atom_site_type_symbol
_atom_site_label
_atom_site_fract_x
_atom_site_fract_y
_atom_site_fract_z
Si Si1 0.545694 0.134492 0.359963
Si Si2 0.055915 0.954852 0.730010
Si Si3 0.613101 0.750000 0.541612
Si Si4 0.319609 0.250000 0.952326
Si Si5 0.255539 0.933943 0.236357
Si Si6 0.870180 0.630691 0.475017
O O1 0.528405 0.250000 0.435388
O O2 0.502178 0.094868 0.140965
O O3 0.608094 0.138378 0.270713
O O4 0.541733 0.052778 0.586984
O O5 0.081888 0.856948 0.884898
O O6 0.103298 0.014152 0.574083
O O7 0.627822 0.750000 0.236296
O O8 0.664351 0.750000 0.743563
O O9 0.285061 0.149412 0.864415
O O10 0.270566 0.007230 0.485458
O O11 0.308790 0.880729 0.111867
O O12 0.888358 0.750000 0.376097
#
# Coordination Sequence:
#
# PCOD9467096 Si02
#       6
#     8   8   4   4   8   8
#     4  10  23  44  69 105 148 188 251 301 378 440
#     4  11  23  44  69 106 144 197 240 312 362 455
#     4  12  28  46  79 103 152 192 258 290 382 434
#     4  12  26  52  67 113 140 198 242 312 360 444
#     4  12  27  48  76 105 147 192 246 308 368 436
#     4  11  24  44  70 104 141 192 245 306 373 439
#
# _framework density 24.957756
#
# number of rings (size 3 to 8) (size 9 to 14) (size 15 to 20)
#    0.000    0.800    2.000    4.800    8.400    0.000 
#    0.000    0.000    0.000    0.000    0.000    0.000 
#    0.000    0.000    0.000    0.000    0.000    0.000 
#
# Total GULP energy -222897.450306 kJ/mol
# GULP energy per Si atom -5572.436258 kJ/mol
# Density = 2.490095 g / cm^3
# Si number density = 24.957756 Si / 1000 Ang^3
#
#
#
# Elastic Constant Matrix: (Units=GPa)
#
#
# Indices 1 2 3 4 5 6 
#
# 1 67.9663 19.6913 -2.4402 0.0000 0.0000 0.0000
# 2 19.6913 173.5548 22.9255 0.0000 0.0000 0.0000
# 3 -2.4402 22.9255 49.0669 0.0000 0.0000 0.0000
# 4 0.0000 0.0000 0.0000 25.2590 0.0000 0.0000
# 5 0.0000 0.0000 0.0000 0.0000 28.3650 0.0000
# 6 0.0000 0.0000 0.0000 0.0000 0.0000 25.0559
#
#
#
# Elastic Compliance Matrix: (Units=1/GPa)
#
#
# Indices 1 2 3 4 5 6 
#
# 1 0.015342 -0.001963 0.001680 0.000000 0.000000 0.000000
# 2 -0.001963 0.006392 -0.003084 0.000000 0.000000 0.000000
# 3 0.001680 -0.003084 0.021905 0.000000 0.000000 0.000000
# 4 0.000000 0.000000 0.000000 0.039590 0.000000 0.000000
# 5 0.000000 0.000000 0.000000 0.000000 0.035255 0.000000
# 6 0.000000 0.000000 0.000000 0.000000 0.000000 0.039911
#
#
# Mechanical properties :
#
#
# Convention : Reuss Voigt Hill
#
# Bulk Modulus (GPa) = 27.09629 41.21569 34.15599
# Shear Modulus (GPa) = 28.18022 32.43009 30.30515
#
# Velocity S-wave (km/s) = 3.36388 3.60863 3.48840
# Velocity P-wave (km/s) = 5.09588 5.82348 5.47179
#
# Compressibility (1/GPa) = 0.03690542
#
# Stress axis : x y z
#
# Youngs Moduli (GPa) = 65.18017 156.44720 45.65199
#
# Poissons Ratio (x) = 0.30704 -0.07669
# Poissons Ratio (y) = 0.12792 0.14080
# Poissons Ratio (z) = -0.10950 0.48250
#
# Static dielectric constant tensor:
#      x y z
#    x 2.271690 0.000000 0.000000 
#    y 0.000000 1.916810 0.000000 
#    z 0.000000 0.000000 2.088680 
# 
# From -- ./inp_files/3058.got.cif
#   From: 2010.05.17/outbox.cif.g08.bks.cpg/sg62_2_cif.got.tgz:3058.got - 2010.06.03 15:25:27.
