data_PCOD9467492
_publ_section_title
;
Structure prediction by ZEFSAII (Michael W. Deem and Ramdas Pophale) SiO2 
 PCOD9467492
Probable space group: P N M A
;
_chemical_formula_sum "Si O2"
_cell_formula_units_Z 40
_cell_length_a 9.183953
_cell_length_b 25.993927
_cell_length_c 7.539623
_cell_angle_alpha 90.000000
_cell_angle_beta 90.000000
_cell_angle_gamma 90.000000
_cell_volume 1799.911609
_symmetry_space_group_name_H-M "P N M A"
_symmetry_group_IT_number 62
_symmetry_cell_setting 'orthorhombic'
loop_
_space_group_symop_operation_xyz
x,y,z
1/2-x,-y,1/2+z
1/2+x,1/2-y,1/2-z
-x,1/2+y,-z
-x,-y,-z
1/2+x,y,1/2-z
1/2-x,1/2+y,1/2+z
x,1/2-y,z
loop_
_atom_site_type_symbol
_atom_site_label
_atom_site_fract_x
_atom_site_fract_y
_atom_site_fract_z
Si Si1 0.328797 0.443548 0.706041
Si Si2 0.422115 0.190858 0.380440
Si Si3 0.404022 0.875090 0.333698
Si Si4 0.607936 0.039785 0.098398
Si Si5 0.593907 0.151563 0.073021
O O1 0.490268 0.424515 0.674141
O O2 0.234110 0.441182 0.531030
O O3 0.324866 0.503177 0.755432
O O4 0.254456 0.402282 0.840544
O O5 0.407931 0.250000 0.438388
O O6 0.534345 0.161016 0.512104
O O7 0.489995 0.188657 0.183960
O O8 0.262192 0.165240 0.385227
O O9 0.418554 0.847834 0.140969
O O10 0.543800 0.094900 0.146908
O O11 0.500000 0.000000 0.000000
#
# Coordination Sequence:
#
# PCOD9467492 Si02
#       5
#     8   8   8   8   8
#     4  11  23  41  66 101 139 185 227 273 347 423
#     4  12  28  48  73 100 132 189 240 295 355 395
#     4  11  24  48  68 100 142 183 233 287 343 415
#     4  11  23  39  65 101 139 178 218 270 349 416
#     4  11  27  47  69 106 145 175 233 292 342 424
#
# _framework density 22.223313000000001
#
# number of rings (size 3 to 8) (size 9 to 14) (size 15 to 20)
#    0.000    0.800    8.000    0.600    8.400    2.400 
#    0.000    0.000    0.000    0.000    0.000    0.000 
#    0.000    0.000    0.000    0.000    0.000    0.000 
#
# Total GULP energy -223276.710736 kJ/mol
# GULP energy per Si atom -5581.917768 kJ/mol
# Density = 2.217273 g / cm^3
# Si number density = 22.223313 Si / 1000 Ang^3
#
#
#
# Elastic Constant Matrix: (Units=GPa)
#
#
# Indices 1 2 3 4 5 6 
#
# 1 24.1290 -1.8398 -11.2054 0.0000 0.0000 0.0000
# 2 -1.8398 129.4970 8.3346 0.0000 0.0000 0.0000
# 3 -11.2054 8.3346 53.4050 0.0000 0.0000 0.0000
# 4 0.0000 0.0000 0.0000 33.5815 0.0000 0.0000
# 5 0.0000 0.0000 0.0000 0.0000 24.9916 0.0000
# 6 0.0000 0.0000 0.0000 0.0000 0.0000 16.6310
#
#
#
# Elastic Compliance Matrix: (Units=1/GPa)
#
#
# Indices 1 2 3 4 5 6 
#
# 1 0.045918 0.000033 0.009629 0.000000 0.000000 0.000000
# 2 0.000033 0.007801 -0.001211 0.000000 0.000000 0.000000
# 3 0.009629 -0.001211 0.020934 0.000000 0.000000 0.000000
# 4 0.000000 0.000000 0.000000 0.029778 0.000000 0.000000
# 5 0.000000 0.000000 0.000000 0.000000 0.040013 0.000000
# 6 0.000000 0.000000 0.000000 0.000000 0.000000 0.060129
#
#
# Mechanical properties :
#
#
# Convention : Reuss Voigt Hill
#
# Bulk Modulus (GPa) = 10.92227 21.95663 16.43945
# Shear Modulus (GPa) = 22.91590 29.15693 26.03641
#
# Velocity S-wave (km/s) = 3.21466 3.62608 3.42655
# Velocity P-wave (km/s) = 4.32483 5.23763 4.80296
#
# Compressibility (1/GPa) = 0.09155608
#
# Stress axis : x y z
#
# Youngs Moduli (GPa) = 21.77783 128.19585 47.76869
#
# Poissons Ratio (x) = -0.00418 -0.45999
# Poissons Ratio (y) = -0.00071 0.05783
# Poissons Ratio (z) = -0.20971 0.15519
#
# Static dielectric constant tensor:
#      x y z
#    x 1.874070 0.000000 0.000000 
#    y 0.000000 1.980530 0.000000 
#    z 0.000000 0.000000 1.892360 
# 
# From -- ./inp_files/4261.got.cif
#   From: 2010.05.17/outbox.cif.g08.bks.cpg/sg62_3_cif.got.tgz:4261.got - 2010.06.03 15:25:27.
