data_PCOD9467942
_publ_section_title
;
Structure prediction by ZEFSAII (Michael W. Deem and Ramdas Pophale) SiO2 
 PCOD9467942
Probable space group: P N M A
;
_chemical_formula_sum "Si O2"
_cell_formula_units_Z 48
_cell_length_a 30.000000
_cell_length_b 9.000000
_cell_length_c 9.000000
_cell_angle_alpha 90.000000
_cell_angle_beta 90.000000
_cell_angle_gamma 90.000000
_cell_volume 2430.000000
_symmetry_space_group_name_H-M "P N M A"
_symmetry_group_IT_number 62
_symmetry_cell_setting 'orthorhombic'
loop_
_space_group_symop_operation_xyz
x,y,z
1/2-x,-y,1/2+z
1/2+x,1/2-y,1/2-z
-x,1/2+y,-z
-x,-y,-z
1/2+x,y,1/2-z
1/2-x,1/2+y,1/2+z
x,1/2-y,z
loop_
_atom_site_type_symbol
_atom_site_label
_atom_site_fract_x
_atom_site_fract_y
_atom_site_fract_z
Si Si1 0.787340 0.929107 0.899423
Si Si2 0.121083 0.068613 0.253333
Si Si3 0.297376 0.570935 0.256070
Si Si4 0.524508 0.586347 0.871792
Si Si5 0.611139 0.428595 0.902760
Si Si6 0.537083 0.414144 0.409911
O O1 0.783826 0.750000 0.893195
O O2 0.829906 0.973298 0.800566
O O3 0.743231 0.000888 0.833513
O O4 0.794950 0.971568 0.070908
O O5 0.118103 0.250000 0.250574
O O6 0.112019 0.024106 0.423497
O O7 0.084393 0.015425 0.133833
O O8 0.294465 0.750000 0.247908
O O9 0.343799 0.527033 0.179995
O O10 0.538456 0.750000 0.921294
O O11 0.568239 0.497863 0.824639
O O12 0.487636 0.600994 0.746726
O O13 0.500000 0.500000 0.000000
O O14 0.607823 0.250000 0.900487
O O15 0.500000 0.500000 0.500000
O O16 0.544630 0.250000 0.476322
#
# Coordination Sequence:
#
# PCOD9467942 Si02
#       6
#     8   8   8   8   8   8
#     4  10  21  38  61  86 115 150 191 236 285 344
#     4   9  18  36  58  81 112 151 189 232 285 336
#     4  10  22  38  60  89 115 148 190 233 288 346
#     4  11  22  38  59  86 118 153 194 237 282 337
#     4  10  20  37  60  84 115 152 192 236 286 343
#     4  10  22  38  57  83 116 152 193 235 281 337
#
# _framework density 19.753086
#
# number of rings (size 3 to 8) (size 9 to 14) (size 15 to 20)
#    0.000    2.000    1.667    1.500    2.333    4.000 
#    0.000    1.667    0.000    0.000    0.000    0.000 
#    0.000    0.000    0.000    0.000    0.000    0.000 
#
# Total GULP energy -267715.483671 kJ/mol
# GULP energy per Si atom -5577.405910 kJ/mol
# Density = 1.970813 g / cm^3
# Si number density = 19.753086 Si / 1000 Ang^3
#
#
#
# Elastic Constant Matrix: (Units=GPa)
#
#
# Indices 1 2 3 4 5 6 
#
# 1 120.7317 12.2829 -15.1190 0.0000 0.0000 0.0000
# 2 12.2829 8.7482 6.6721 0.0000 0.0000 0.0000
# 3 -15.1190 6.6721 15.6515 0.0000 0.0000 0.0000
# 4 0.0000 0.0000 0.0000 19.1951 0.0000 0.0000
# 5 0.0000 0.0000 0.0000 0.0000 37.2500 0.0000
# 6 0.0000 0.0000 0.0000 0.0000 0.0000 29.8868
#
#
#
# Elastic Compliance Matrix: (Units=1/GPa)
#
#
# Indices 1 2 3 4 5 6 
#
# 1 0.021404 -0.067897 0.049620 0.000000 0.000000 0.000000
# 2 -0.067897 0.384757 -0.229605 0.000000 0.000000 0.000000
# 3 0.049620 -0.229605 0.209702 0.000000 0.000000 0.000000
# 4 0.000000 0.000000 0.000000 0.052097 0.000000 0.000000
# 5 0.000000 0.000000 0.000000 0.000000 0.026846 0.000000
# 6 0.000000 0.000000 0.000000 0.000000 0.000000 0.033460
#
#
# Mechanical properties :
#
#
# Convention : Reuss Voigt Hill
#
# Bulk Modulus (GPa) = 8.32652 16.97816 12.65234
# Shear Modulus (GPa) = 3.95550 26.68606 15.32078
#
# Velocity S-wave (km/s) = 1.41662 3.67956 2.78801
# Velocity P-wave (km/s) = 2.62682 5.16392 4.09672
#
# Compressibility (1/GPa) = 0.12009825
#
# Stress axis : x y z
#
# Youngs Moduli (GPa) = 46.71950 2.59905 4.76867
#
# Poissons Ratio (x) = 0.17647 -0.23662
# Poissons Ratio (y) = 3.17212 1.09491
# Poissons Ratio (z) = -2.31822 0.59675
#
# Static dielectric constant tensor:
#      x y z
#    x 1.660440 0.000000 0.000000 
#    y 0.000000 1.727530 0.000000 
#    z 0.000000 0.000000 1.681380 
# 
# From -- ./inp_files/10201.got.cif
#   From: 2010.05.17/outbox.ucp.g08.bks.cvg/sg62_6_cif.got.tgz:10201.got - 2010.06.11 16:29:25.
