data_PCOD9467424
_publ_section_title
;
Structure prediction by ZEFSAII (Michael W. Deem and Ramdas Pophale) SiO2 
 PCOD9467424
Probable space group: P N M A
;
_chemical_formula_sum "Si O2"
_cell_formula_units_Z 48
_cell_length_a 7.961842
_cell_length_b 7.932729
_cell_length_c 28.848102
_cell_angle_alpha 90.000000
_cell_angle_beta 90.000000
_cell_angle_gamma 90.000000
_cell_volume 1822.021167
_symmetry_space_group_name_H-M "P N M A"
_symmetry_group_IT_number 62
_symmetry_cell_setting 'orthorhombic'
loop_
_space_group_symop_operation_xyz
x,y,z
1/2-x,-y,1/2+z
1/2+x,1/2-y,1/2-z
-x,1/2+y,-z
-x,-y,-z
1/2+x,y,1/2-z
1/2-x,1/2+y,1/2+z
x,1/2-y,z
loop_
_atom_site_type_symbol
_atom_site_label
_atom_site_fract_x
_atom_site_fract_y
_atom_site_fract_z
Si Si1 0.483644 0.062487 0.258700
Si Si2 0.984110 0.953309 0.406103
Si Si3 0.945905 0.547786 0.068268
Si Si4 0.354215 0.450200 0.653975
Si Si5 0.677601 0.556999 0.179840
Si Si6 0.224195 0.046866 0.510573
O O1 0.483974 0.250000 0.239973
O O2 0.629993 0.040616 0.297260
O O3 0.519112 0.943888 0.215167
O O4 0.320506 0.028238 0.289591
O O5 0.011729 0.750000 0.410722
O O6 0.812639 0.974352 0.376031
O O7 0.121488 0.018223 0.369444
O O8 0.928456 0.019942 0.457099
O O9 0.952045 0.750000 0.068563
O O10 0.992866 0.493737 0.120058
O O11 0.106504 0.488308 0.037970
O O12 0.774513 0.501273 0.041856
O O13 0.369507 0.250000 0.662765
O O14 0.728656 0.750000 0.171594
O O15 0.217369 0.250000 0.512622
#
# Coordination Sequence:
#
# PCOD9467424 Si02
#       6
#     8   8   8   8   8   8
#     4  12  25  39  55  81 112 136 169 223 277 315
#     4   8  16  31  54  80 103 133 178 222 254 303
#     4   8  14  24  42  71 104 136 172 212 252 303
#     4   9  17  33  55  78 106 142 182 218 257 314
#     4  11  22  39  61  80 102 140 183 215 258 325
#     4   8  13  24  43  70 103 134 166 210 260 302
#
# _framework density 26.344369
#
# number of rings (size 3 to 8) (size 9 to 14) (size 15 to 20)
#    0.000    2.667    0.000    5.000    0.000    2.000 
#    0.000    5.000    0.000    1.000    0.000    0.000 
#    0.000    0.000    0.000    0.000    0.000    0.000 
#
# Total GULP energy -268363.644643 kJ/mol
# GULP energy per Si atom -5590.909263 kJ/mol
# Density = 2.628441 g / cm^3
# Si number density = 26.344369 Si / 1000 Ang^3
#
#
#
# Elastic Constant Matrix: (Units=GPa)
#
#
# Indices 1 2 3 4 5 6 
#
# 1 79.4001 -0.6137 10.1322 0.0000 0.0000 0.0000
# 2 -0.6137 37.8975 2.7576 0.0000 0.0000 0.0000
# 3 10.1322 2.7576 194.3973 0.0000 0.0000 0.0000
# 4 0.0000 0.0000 0.0000 22.8782 0.0000 0.0000
# 5 0.0000 0.0000 0.0000 0.0000 52.6750 0.0000
# 6 0.0000 0.0000 0.0000 0.0000 0.0000 18.2490
#
#
#
# Elastic Compliance Matrix: (Units=1/GPa)
#
#
# Indices 1 2 3 4 5 6 
#
# 1 0.012681 0.000254 -0.000665 0.000000 0.000000 0.000000
# 2 0.000254 0.026419 -0.000388 0.000000 0.000000 0.000000
# 3 -0.000665 -0.000388 0.005184 0.000000 0.000000 0.000000
# 4 0.000000 0.000000 0.000000 0.043710 0.000000 0.000000
# 5 0.000000 0.000000 0.000000 0.000000 0.018984 0.000000
# 6 0.000000 0.000000 0.000000 0.000000 0.000000 0.054797
#
#
# Mechanical properties :
#
#
# Convention : Reuss Voigt Hill
#
# Bulk Modulus (GPa) = 23.42626 37.36076 30.39351
# Shear Modulus (GPa) = 28.15267 38.72169 33.43718
#
# Velocity S-wave (km/s) = 3.27255 3.83799 3.56650
# Velocity P-wave (km/s) = 4.81571 5.81831 5.34059
#
# Compressibility (1/GPa) = 0.04268713
#
# Stress axis : x y z
#
# Youngs Moduli (GPa) = 78.85687 37.85108 192.89209
#
# Poissons Ratio (x) = -0.00960 0.12819
# Poissons Ratio (y) = -0.02001 0.07484
# Poissons Ratio (z) = 0.05240 0.01469
#
# Static dielectric constant tensor:
#      x y z
#    x 2.235490 0.000000 0.000000 
#    y 0.000000 1.933480 0.000000 
#    z 0.000000 0.000000 2.059690 
# 
# From -- ./inp_files/31949.got.cif
#   From: 2010.05.17/outbox.cif.g08.bks.cpg/sg62_16_cif.got.tgz:31949.got - 2010.06.03 15:25:27.
