data_PCOD9467307
_publ_section_title
;
Structure prediction by ZEFSAII (Michael W. Deem and Ramdas Pophale) SiO2 
 PCOD9467307
Probable space group: P N M A
;
_chemical_formula_sum "Si O2"
_cell_formula_units_Z 64
_cell_length_a 12.029827
_cell_length_b 7.999712
_cell_length_c 30.972747
_cell_angle_alpha 90.000000
_cell_angle_beta 90.000000
_cell_angle_gamma 90.000000
_cell_volume 2980.666997
_symmetry_space_group_name_H-M "P N M A"
_symmetry_group_IT_number 62
_symmetry_cell_setting 'orthorhombic'
loop_
_space_group_symop_operation_xyz
x,y,z
1/2-x,-y,1/2+z
1/2+x,1/2-y,1/2-z
-x,1/2+y,-z
-x,-y,-z
1/2+x,y,1/2-z
1/2-x,1/2+y,1/2+z
x,1/2-y,z
loop_
_atom_site_type_symbol
_atom_site_label
_atom_site_fract_x
_atom_site_fract_y
_atom_site_fract_z
Si Si1 0.255081 0.444470 0.689472
Si Si2 0.268304 0.545311 0.035558
Si Si3 0.583646 0.046124 0.885162
Si Si4 0.717718 0.945018 0.556764
Si Si5 0.512859 0.056492 0.339263
Si Si6 0.524324 0.556757 0.435554
Si Si7 0.660864 0.554435 0.140339
Si Si8 0.192613 0.945530 0.782801
O O1 0.279481 0.250000 0.680130
O O2 0.164043 0.500716 0.654459
O O3 0.368447 0.544712 0.683408
O O4 0.212916 0.462675 0.738058
O O5 0.267324 0.750000 0.036107
O O6 0.359965 0.489499 0.070082
O O7 0.145014 0.490794 0.050568
O O8 0.281931 0.493283 0.985884
O O9 0.580683 0.250000 0.886699
O O10 0.458542 0.989435 0.875850
O O11 0.741421 0.750000 0.563124
O O12 0.586191 0.965766 0.548033
O O13 0.754076 0.034778 0.600485
O O14 0.485824 0.250000 0.349979
O O15 0.416906 0.992356 0.307772
O O16 0.519619 0.958047 0.383826
O O17 0.516406 0.750000 0.448706
O O18 0.649760 0.750000 0.150939
O O19 0.708192 0.466516 0.182799
O O20 0.177417 0.750000 0.772914
#
# Coordination Sequence:
#
# PCOD9467307 Si02
#       8
#     8   8   8   8   8   8   8   8
#     4  11  23  41  67  93 121 157 204 250 300 361
#     4   9  19  37  61  88 120 158 197 246 307 363
#     4   9  20  40  62  88 118 154 201 253 297 348
#     4  11  22  37  59  88 124 161 197 246 309 365
#     4  11  23  40  63  92 126 161 196 247 307 359
#     4  11  20  36  63  90 120 158 202 251 299 357
#     4  11  23  40  63  88 118 159 209 254 297 356
#     4  11  25  43  62  89 127 161 199 249 305 359
#
# _framework density 21.471703999999999
#
# number of rings (size 3 to 8) (size 9 to 14) (size 15 to 20)
#    0.000    1.500    2.500    2.625    1.750    2.000 
#    0.000    3.750    0.000    0.000    0.000    0.000 
#    0.000    0.000    0.000    0.000    0.000    0.000 
#
# Total GULP energy -357815.031377 kJ/mol
# GULP energy per Si atom -5590.859865 kJ/mol
# Density = 2.142283 g / cm^3
# Si number density = 21.471704 Si / 1000 Ang^3
#
#
#
# Elastic Constant Matrix: (Units=GPa)
#
#
# Indices 1 2 3 4 5 6 
#
# 1 48.9644 -5.0319 -17.8207 0.0000 0.0000 0.0000
# 2 -5.0319 26.1194 -1.3428 0.0000 0.0000 0.0000
# 3 -17.8207 -1.3428 56.4896 0.0000 0.0000 0.0000
# 4 0.0000 0.0000 0.0000 10.5426 0.0000 0.0000
# 5 0.0000 0.0000 0.0000 0.0000 20.3617 0.0000
# 6 0.0000 0.0000 0.0000 0.0000 0.0000 -1.4833
#
#
#
# Elastic Compliance Matrix: (Units=1/GPa)
#
#
# Indices 1 2 3 4 5 6 
#
# 1 0.023696 0.004955 0.007593 0.000000 0.000000 0.000000
# 2 0.004955 0.039369 0.002499 0.000000 0.000000 0.000000
# 3 0.007593 0.002499 0.020157 0.000000 0.000000 0.000000
# 4 0.000000 0.000000 0.000000 0.094854 0.000000 0.000000
# 5 0.000000 0.000000 0.000000 0.000000 0.049112 0.000000
# 6 0.000000 0.000000 0.000000 0.000000 0.000000 -0.674177
#
#
# Mechanical properties :
#
#
# Convention : Reuss Voigt Hill
#
# Bulk Modulus (GPa) = 8.82483 9.24252 9.03368
# Shear Modulus (GPa) = -11.38141 16.26876 2.44367
#
# Velocity S-wave (km/s) = -2.30481 2.75559 1.06797
# Velocity P-wave (km/s) = 1.72162 3.79977 2.39523
#
# Compressibility (1/GPa) = 0.11331662
#
# Stress axis : x y z
#
# Youngs Moduli (GPa) = 42.20166 25.40078 49.61020
#
# Poissons Ratio (x) = -0.12587 -0.37669
# Poissons Ratio (y) = -0.20912 -0.12398
# Poissons Ratio (z) = -0.32044 -0.06348
#
# Static dielectric constant tensor:
#      x y z
#    x 1.771100 0.000000 0.000000 
#    y 0.000000 1.745760 0.000000 
#    z 0.000000 0.000000 1.751300 
# 
# From -- ./inp_files/32574.got.cif
#   From: 2010.05.17/outbox.cif.g08.bks.cpg/sg62_17_cif.got.tgz:32574.got - 2010.06.03 15:25:27.
