data_PCOD9467583
_publ_section_title
;
Structure prediction by ZEFSAII (Michael W. Deem and Ramdas Pophale) SiO2 
 PCOD9467583
Probable space group: P N M A
;
_chemical_formula_sum "Si O2"
_cell_formula_units_Z 40
_cell_length_a 23.627333
_cell_length_b 13.793890
_cell_length_c 5.087156
_cell_angle_alpha 90.000000
_cell_angle_beta 90.000000
_cell_angle_gamma 90.000000
_cell_volume 1657.969421
_symmetry_space_group_name_H-M "P N M A"
_symmetry_group_IT_number 62
_symmetry_cell_setting 'orthorhombic'
loop_
_space_group_symop_operation_xyz
x,y,z
1/2-x,-y,1/2+z
1/2+x,1/2-y,1/2-z
-x,1/2+y,-z
-x,-y,-z
1/2+x,y,1/2-z
1/2-x,1/2+y,1/2+z
x,1/2-y,z
loop_
_atom_site_type_symbol
_atom_site_label
_atom_site_fract_x
_atom_site_fract_y
_atom_site_fract_z
Si Si1 0.065269 0.571316 0.547279
Si Si2 0.111502 0.077460 0.183047
Si Si3 0.498736 0.359433 0.538531
Si Si4 0.323637 0.445603 0.298316
Si Si5 0.787934 0.856108 0.494475
O O1 0.031209 0.573759 0.819292
O O2 0.129105 0.604669 0.615664
O O3 0.076898 0.464536 0.430946
O O4 0.030413 0.624890 0.320056
O O5 0.141838 0.985245 0.049100
O O6 0.161692 0.142484 0.292476
O O7 0.066132 0.125644 0.990148
O O8 0.486311 0.250000 0.452842
O O9 0.272146 0.377031 0.370539
O O10 0.299832 0.546785 0.176122
O O11 0.787801 0.750000 0.362439
#
# Coordination Sequence:
#
# PCOD9467583 Si02
#       5
#     8   8   8   8   8
#     4  11  25  46  72 101 143 194 235 297 378 436
#     4  11  24  46  74 100 144 191 246 305 371 437
#     4  12  26  43  69 108 145 189 248 302 365 446
#     4  11  24  47  73 105 150 193 248 311 374 442
#     4  11  25  45  72 106 144 197 253 308 376 446
#
# _framework density 24.125895
#
# number of rings (size 3 to 8) (size 9 to 14) (size 15 to 20)
#    0.000    0.800    4.000    2.400    5.600    3.200 
#    0.000    0.000    0.000    0.000    0.000    0.000 
#    0.000    0.000    0.000    0.000    0.000    0.000 
#
# Total GULP energy -223676.986038 kJ/mol
# GULP energy per Si atom -5591.924651 kJ/mol
# Density = 2.407098 g / cm^3
# Si number density = 24.125895 Si / 1000 Ang^3
#
#
#
# Elastic Constant Matrix: (Units=GPa)
#
#
# Indices 1 2 3 4 5 6 
#
# 1 143.4468 33.7506 40.8858 0.0000 0.0000 0.0000
# 2 33.7506 70.9364 14.7930 0.0000 0.0000 0.0000
# 3 40.8858 14.7930 114.0175 0.0000 0.0000 0.0000
# 4 0.0000 0.0000 0.0000 17.9441 0.0000 0.0000
# 5 0.0000 0.0000 0.0000 0.0000 37.2519 0.0000
# 6 0.0000 0.0000 0.0000 0.0000 0.0000 -1.6520
#
#
#
# Elastic Compliance Matrix: (Units=1/GPa)
#
#
# Indices 1 2 3 4 5 6 
#
# 1 0.008543 -0.003521 -0.002606 0.000000 0.000000 0.000000
# 2 -0.003521 0.015940 -0.000806 0.000000 0.000000 0.000000
# 3 -0.002606 -0.000806 0.009810 0.000000 0.000000 0.000000
# 4 0.000000 0.000000 0.000000 0.055729 0.000000 0.000000
# 5 0.000000 0.000000 0.000000 0.000000 0.026844 0.000000
# 6 0.000000 0.000000 0.000000 0.000000 0.000000 -0.605309
#
#
# Mechanical properties :
#
#
# Convention : Reuss Voigt Hill
#
# Bulk Modulus (GPa) = 48.95545 56.36217 52.65881
# Shear Modulus (GPa) = -10.68903 26.64022 7.97559
#
# Velocity S-wave (km/s) = -2.10716 3.32658 1.82016
# Velocity P-wave (km/s) = 3.79678 6.17797 5.12751
#
# Compressibility (1/GPa) = 0.02042674
#
# Stress axis : x y z
#
# Youngs Moduli (GPa) = 117.06123 62.73399 101.93922
#
# Poissons Ratio (x) = 0.22088 0.26570
# Poissons Ratio (y) = 0.41216 0.08212
# Poissons Ratio (z) = 0.30512 0.05054
#
# Static dielectric constant tensor:
#      x y z
#    x 1.961090 0.000000 0.000000 
#    y 0.000000 2.282980 0.000000 
#    z 0.000000 0.000000 1.981020 
# 
# From -- ./inp_files/2662.got.cif
#   From: 2010.05.17/outbox.cif.g08.bks.cpg/sg62_2_cif.got.tgz:2662.got - 2010.06.03 15:25:27.
