data_PCOD9467421
_publ_section_title
;
Structure prediction by ZEFSAII (Michael W. Deem and Ramdas Pophale) SiO2 
 PCOD9467421
Probable space group: P N M A
;
_chemical_formula_sum "Si O2"
_cell_formula_units_Z 48
_cell_length_a 13.567323
_cell_length_b 16.942276
_cell_length_c 9.391749
_cell_angle_alpha 90.000000
_cell_angle_beta 90.000000
_cell_angle_gamma 90.000000
_cell_volume 2158.799924
_symmetry_space_group_name_H-M "P N M A"
_symmetry_group_IT_number 62
_symmetry_cell_setting 'orthorhombic'
loop_
_space_group_symop_operation_xyz
x,y,z
1/2-x,-y,1/2+z
1/2+x,1/2-y,1/2-z
-x,1/2+y,-z
-x,-y,-z
1/2+x,y,1/2-z
1/2-x,1/2+y,1/2+z
x,1/2-y,z
loop_
_atom_site_type_symbol
_atom_site_label
_atom_site_fract_x
_atom_site_fract_y
_atom_site_fract_z
Si Si1 0.455657 0.340667 0.165672
Si Si2 0.074582 0.561046 0.931198
Si Si3 0.364053 0.604056 0.966210
Si Si4 0.781615 0.660669 0.839443
Si Si5 0.252260 0.547163 0.418061
Si Si6 0.300280 0.158336 0.662504
O O1 0.487803 0.250000 0.170092
O O2 0.476079 0.385194 0.313102
O O3 0.519703 0.382359 0.043724
O O4 0.337870 0.340090 0.154337
O O5 0.162191 0.509985 0.857675
O O6 0.126278 0.615864 0.050702
O O7 0.000000 0.500000 0.000000
O O8 0.320297 0.637493 0.816357
O O9 0.329867 0.513413 0.975391
O O10 0.307449 0.650574 0.089470
O O11 0.813320 0.750000 0.874423
O O12 0.805515 0.595795 0.957238
O O13 0.206569 0.606928 0.305052
O O14 0.324807 0.250000 0.685517
#
# Coordination Sequence:
#
# PCOD9467421 Si02
#       6
#     8   8   8   8   8   8
#     4  11  22  38  64  92 118 160 215 258 298 365
#     4  11  23  39  64  92 126 164 212 254 313 374
#     4  11  22  40  67  89 121 165 213 255 307 368
#     4  11  22  40  62  89 122 163 207 253 303 370
#     4  11  23  40  62  90 128 162 201 258 316 369
#     4  11  22  41  63  89 127 166 201 258 324 373
#
# _framework density 22.234577000000002
#
# number of rings (size 3 to 8) (size 9 to 14) (size 15 to 20)
#    0.000    1.000    3.333    6.500    0.000    0.667 
#    3.000    2.500    0.000    0.000    0.000    0.000 
#    0.000    0.000    0.000    0.000    0.000    0.000 
#
# Total GULP energy -268477.529818 kJ/mol
# GULP energy per Si atom -5593.281871 kJ/mol
# Density = 2.218397 g / cm^3
# Si number density = 22.234577 Si / 1000 Ang^3
#
#
#
# Elastic Constant Matrix: (Units=GPa)
#
#
# Indices 1 2 3 4 5 6 
#
# 1 66.9218 7.3930 -17.2245 0.0000 0.0000 0.0000
# 2 7.3930 154.4233 21.6938 0.0000 0.0000 0.0000
# 3 -17.2245 21.6938 22.5935 0.0000 0.0000 0.0000
# 4 0.0000 0.0000 0.0000 73.6486 0.0000 0.0000
# 5 0.0000 0.0000 0.0000 0.0000 30.1701 0.0000
# 6 0.0000 0.0000 0.0000 0.0000 0.0000 29.7316
#
#
#
# Elastic Compliance Matrix: (Units=1/GPa)
#
#
# Indices 1 2 3 4 5 6 
#
# 1 0.020201 -0.003619 0.018875 0.000000 0.000000 0.000000
# 2 -0.003619 0.008134 -0.010569 0.000000 0.000000 0.000000
# 3 0.018875 -0.010569 0.068798 0.000000 0.000000 0.000000
# 4 0.000000 0.000000 0.000000 0.013578 0.000000 0.000000
# 5 0.000000 0.000000 0.000000 0.000000 0.033145 0.000000
# 6 0.000000 0.000000 0.000000 0.000000 0.000000 0.033634
#
#
# Mechanical properties :
#
#
# Convention : Reuss Voigt Hill
#
# Bulk Modulus (GPa) = 9.38903 29.74037 19.56470
# Shear Modulus (GPa) = 24.55592 42.18181 33.36886
#
# Velocity S-wave (km/s) = 3.32686 4.36033 3.87817
# Velocity P-wave (km/s) = 4.35766 6.22533 5.37326
#
# Compressibility (1/GPa) = 0.10650729
#
# Stress axis : x y z
#
# Youngs Moduli (GPa) = 49.50343 122.94601 14.53534
#
# Poissons Ratio (x) = 0.44490 -0.27435
# Poissons Ratio (y) = 0.17914 0.15362
# Poissons Ratio (z) = -0.93437 1.29936
#
# Static dielectric constant tensor:
#      x y z
#    x 1.866220 0.000000 0.000000 
#    y 0.000000 1.799380 0.000000 
#    z 0.000000 0.000000 1.795310 
# 
# From -- ./inp_files/6474.got.cif
#   From: 2010.05.17/outbox.cif.g08.bks.cpg/sg62_4_cif.got.tgz:6474.got - 2010.06.03 15:25:27.
