data_PCOD9467022
_publ_section_title
;
Structure prediction by ZEFSAII (Michael W. Deem and Ramdas Pophale) SiO2 
 PCOD9467022
Probable space group: P N M A
;
_chemical_formula_sum "Si O2"
_cell_formula_units_Z 52
_cell_length_a 11.383913
_cell_length_b 24.905858
_cell_length_c 8.937871
_cell_angle_alpha 90.000000
_cell_angle_beta 90.000000
_cell_angle_gamma 90.000000
_cell_volume 2534.119892
_symmetry_space_group_name_H-M "P N M A"
_symmetry_group_IT_number 62
_symmetry_cell_setting 'orthorhombic'
loop_
_space_group_symop_operation_xyz
x,y,z
1/2-x,-y,1/2+z
1/2+x,1/2-y,1/2-z
-x,1/2+y,-z
-x,-y,-z
1/2+x,y,1/2-z
1/2-x,1/2+y,1/2+z
x,1/2-y,z
loop_
_atom_site_type_symbol
_atom_site_label
_atom_site_fract_x
_atom_site_fract_y
_atom_site_fract_z
Si Si1 0.843136 0.051479 0.440358
Si Si2 0.246263 0.750000 0.129731
Si Si3 0.589374 0.337145 0.973229
Si Si4 0.066281 0.057103 0.003723
Si Si5 0.518497 0.639383 0.751683
Si Si6 0.384854 0.250000 0.948745
Si Si7 0.461689 0.554509 0.171191
Si Si8 0.646767 0.750000 0.709265
O O1 0.704268 0.050816 0.461424
O O2 0.893759 0.104707 0.358966
O O3 0.909210 0.045701 0.600753
O O4 0.889745 0.000466 0.345872
O O5 0.321143 0.804445 0.127223
O O6 0.174482 0.750000 0.284832
O O7 0.210324 0.750000 0.952375
O O8 0.469051 0.302661 0.953579
O O9 0.592447 0.398725 0.928033
O O10 0.596040 0.341551 0.153172
O O11 0.014971 0.098733 0.121691
O O12 0.043295 0.077093 0.836698
O O13 0.000000 0.000000 0.000000
O O14 0.575818 0.694344 0.699641
O O15 0.314912 0.250000 0.110378
#
# Coordination Sequence:
#
# PCOD9467022 Si02
#       8
#     8   4   8   8   8   4   8   4
#     4  10  24  45  65  94 141 178 224 294 352 411
#     4  11  23  41  72  99 124 189 232 279 347 425
#     4   9  22  43  63  93 137 170 223 289 342 404
#     4  12  26  40  69 103 133 185 239 279 351 438
#     4  10  23  47  65  99 140 174 228 294 351 422
#     4   9  21  45  62  94 142 170 227 287 346 410
#     4  10  23  42  66  95 134 181 222 287 352 409
#     4  10  24  42  70  99 136 183 225 296 353 411
#
# _framework density 20.519943000000001
#
# number of rings (size 3 to 8) (size 9 to 14) (size 15 to 20)
#    0.000    1.846    1.538    0.462    6.462    4.923 
#    0.000    1.538    0.000    0.000    0.000    0.000 
#    0.000    0.000    0.000    0.000    0.000    0.000 
#
# Total GULP energy -289497.053603 kJ/mol
# GULP energy per Si atom -5567.251031 kJ/mol
# Density = 2.047324 g / cm^3
# Si number density = 20.519943 Si / 1000 Ang^3
#
#
#
# Elastic Constant Matrix: (Units=GPa)
#
#
# Indices 1 2 3 4 5 6 
#
# 1 69.2741 32.0941 44.3425 0.0000 0.0000 0.0000
# 2 32.0941 130.1167 12.1945 0.0000 0.0000 0.0000
# 3 44.3425 12.1945 125.6058 0.0000 0.0000 0.0000
# 4 0.0000 0.0000 0.0000 44.6058 0.0000 0.0000
# 5 0.0000 0.0000 0.0000 0.0000 16.7502 0.0000
# 6 0.0000 0.0000 0.0000 0.0000 0.0000 3.7511
#
#
#
# Elastic Compliance Matrix: (Units=1/GPa)
#
#
# Indices 1 2 3 4 5 6 
#
# 1 0.020995 -0.004525 -0.006973 0.000000 0.000000 0.000000
# 2 -0.004525 0.008731 0.000750 0.000000 0.000000 0.000000
# 3 -0.006973 0.000750 0.010350 0.000000 0.000000 0.000000
# 4 0.000000 0.000000 0.000000 0.022419 0.000000 0.000000
# 5 0.000000 0.000000 0.000000 0.000000 0.059701 0.000000
# 6 0.000000 0.000000 0.000000 0.000000 0.000000 0.266591
#
#
# Mechanical properties :
#
#
# Convention : Reuss Voigt Hill
#
# Bulk Modulus (GPa) = 53.81903 55.80652 54.81278
# Shear Modulus (GPa) = 12.00549 28.77912 20.39230
#
# Velocity S-wave (km/s) = 2.42143 3.74905 3.15585
# Velocity P-wave (km/s) = 5.83973 6.78202 6.32844
#
# Compressibility (1/GPa) = 0.01858079
#
# Stress axis : x y z
#
# Youngs Moduli (GPa) = 47.63046 114.53071 96.61724
#
# Poissons Ratio (x) = 0.51826 0.67366
# Poissons Ratio (y) = 0.21553 -0.07244
# Poissons Ratio (z) = 0.33210 -0.08588
#
# Static dielectric constant tensor:
#      x y z
#    x 1.775830 0.000000 0.000000 
#    y 0.000000 1.446180 0.000000 
#    z 0.000000 0.000000 1.550890 
# 
# From -- ./inp_files/5423.got.cif
#   From: 2010.05.17/outbox.cif.g08.bks.cpg/sg62_3_cif.got.tgz:5423.got - 2010.06.03 15:25:27.
