data_PCOD9467102
_publ_section_title
;
Structure prediction by ZEFSAII (Michael W. Deem and Ramdas Pophale) SiO2 
 PCOD9467102
Probable space group: P N M A
;
_chemical_formula_sum "Si O2"
_cell_formula_units_Z 24
_cell_length_a 9.587273
_cell_length_b 13.772623
_cell_length_c 7.290182
_cell_angle_alpha 90.000000
_cell_angle_beta 90.000000
_cell_angle_gamma 90.000000
_cell_volume 962.609458
_symmetry_space_group_name_H-M "P N M A"
_symmetry_group_IT_number 62
_symmetry_cell_setting 'orthorhombic'
loop_
_space_group_symop_operation_xyz
x,y,z
1/2-x,-y,1/2+z
1/2+x,1/2-y,1/2-z
-x,1/2+y,-z
-x,-y,-z
1/2+x,y,1/2-z
1/2-x,1/2+y,1/2+z
x,1/2-y,z
loop_
_atom_site_type_symbol
_atom_site_label
_atom_site_fract_x
_atom_site_fract_y
_atom_site_fract_z
Si Si1 0.984871 0.599607 0.885304
Si Si2 0.824257 0.067635 0.448931
Si Si3 0.780531 0.143293 0.852929
O O1 0.051550 0.595465 0.685339
O O2 0.090271 0.657723 0.011724
O O3 0.820527 0.617202 0.880283
O O4 0.000000 0.500000 0.000000
O O5 0.804830 0.950482 0.428462
O O6 0.835645 0.104531 0.656127
O O7 0.710468 0.250000 0.831984
#
# Coordination Sequence:
#
# PCOD9467102 Si02
#       3
#     8   8   8
#     4  10  23  44  71 100 144 187 234 297 364 410
#     4  11  23  47  72 103 146 186 240 305 353 428
#     4  11  24  43  70 103 143 192 237 291 363 426
#
# _framework density 24.932229
#
# number of rings (size 3 to 8) (size 9 to 14) (size 15 to 20)
#    0.000    1.333    6.667    0.000    0.000   10.667 
#    0.000    0.000    0.000    0.000    0.000    0.000 
#    0.000    0.000    0.000    0.000    0.000    0.000 
#
# Total GULP energy -134058.815667 kJ/mol
# GULP energy per Si atom -5585.783986 kJ/mol
# Density = 2.487548 g / cm^3
# Si number density = 24.932229 Si / 1000 Ang^3
#
#
#
# Elastic Constant Matrix: (Units=GPa)
#
#
# Indices 1 2 3 4 5 6 
#
# 1 126.8479 -10.0410 67.0803 0.0000 0.0000 0.0000
# 2 -10.0410 142.6229 55.9883 0.0000 0.0000 0.0000
# 3 67.0803 55.9883 175.0412 0.0000 0.0000 0.0000
# 4 0.0000 0.0000 0.0000 24.2785 0.0000 0.0000
# 5 0.0000 0.0000 0.0000 0.0000 34.8911 0.0000
# 6 0.0000 0.0000 0.0000 0.0000 0.0000 1.5639
#
#
#
# Elastic Compliance Matrix: (Units=1/GPa)
#
#
# Indices 1 2 3 4 5 6 
#
# 1 0.010731 0.002710 -0.004979 0.000000 0.000000 0.000000
# 2 0.002710 0.008703 -0.003822 0.000000 0.000000 0.000000
# 3 -0.004979 -0.003822 0.008844 0.000000 0.000000 0.000000
# 4 0.000000 0.000000 0.000000 0.041189 0.000000 0.000000
# 5 0.000000 0.000000 0.000000 0.000000 0.028661 0.000000
# 6 0.000000 0.000000 0.000000 0.000000 0.000000 0.639419
#
#
# Mechanical properties :
#
#
# Convention : Reuss Voigt Hill
#
# Bulk Modulus (GPa) = 62.13155 74.50745 68.31950
# Shear Modulus (GPa) = 6.62169 34.24566 20.43368
#
# Velocity S-wave (km/s) = 1.63145 3.71016 2.86592
# Velocity P-wave (km/s) = 5.34071 6.95001 6.19781
#
# Compressibility (1/GPa) = 0.01609488
#
# Stress axis : x y z
#
# Youngs Moduli (GPa) = 93.18623 114.90582 113.07435
#
# Poissons Ratio (x) = -0.31142 0.56304
# Poissons Ratio (y) = -0.25255 0.43220
# Poissons Ratio (z) = 0.46401 0.43920
#
# Static dielectric constant tensor:
#      x y z
#    x 2.025630 0.000000 0.000000 
#    y 0.000000 2.094330 0.000000 
#    z 0.000000 0.000000 1.939270 
# 
# From -- ./inp_files/3988.got.cif
#   From: 2010.05.17/outbox.cif.g08.bks.cpg/sg62_2_cif.got.tgz:3988.got - 2010.06.03 15:25:27.
