data_PCOD9467722
_publ_section_title
;
Structure prediction by ZEFSAII (Michael W. Deem and Ramdas Pophale) SiO2 
 PCOD9467722
Probable space group: P N M A
;
_chemical_formula_sum "Si O2"
_cell_formula_units_Z 56
_cell_length_a 7.105287
_cell_length_b 30.813828
_cell_length_c 13.765431
_cell_angle_alpha 90.000000
_cell_angle_beta 90.000000
_cell_angle_gamma 90.000000
_cell_volume 3013.818488
_symmetry_space_group_name_H-M "P N M A"
_symmetry_group_IT_number 62
_symmetry_cell_setting 'orthorhombic'
loop_
_space_group_symop_operation_xyz
x,y,z
1/2-x,-y,1/2+z
1/2+x,1/2-y,1/2-z
-x,1/2+y,-z
-x,-y,-z
1/2+x,y,1/2-z
1/2-x,1/2+y,1/2+z
x,1/2-y,z
loop_
_atom_site_type_symbol
_atom_site_label
_atom_site_fract_x
_atom_site_fract_y
_atom_site_fract_z
Si Si1 0.306144 0.931567 0.425878
Si Si2 0.786623 0.021604 0.388445
Si Si3 0.122118 0.250000 0.832131
Si Si4 0.812706 0.750000 0.393477
Si Si5 0.147393 0.980195 0.830107
Si Si6 0.804841 0.844608 0.393421
Si Si7 0.747440 0.066859 0.985517
Si Si8 0.631625 0.344153 0.667484
O O1 0.195149 0.944418 0.523751
O O2 0.529989 0.931127 0.454048
O O3 0.264969 0.885118 0.379281
O O4 0.277665 0.970983 0.349489
O O5 0.563156 0.019419 0.370229
O O6 0.864718 0.031368 0.282450
O O7 0.838195 0.973564 0.425612
O O8 0.103329 0.250000 0.715502
O O9 0.214954 0.203611 0.854901
O O10 0.913899 0.250000 0.877431
O O11 0.859315 0.797367 0.436180
O O12 0.257216 0.947642 0.901832
O O13 0.838545 0.886929 0.458027
O O14 0.579485 0.843389 0.374159
O O15 0.882596 0.849520 0.283708
#
# Coordination Sequence:
#
# PCOD9467722 Si02
#       8
#     8   8   4   4   8   8   8   8
#     4   8  15  26  39  53  73  99 122 142 176 218
#     4   9  16  27  40  54  72  96 122 149 178 210
#     4   8  14  22  34  52  73  94 118 144 173 208
#     4   8  14  22  34  52  73  94 118 144 173 208
#     4   9  16  27  40  54  72  96 122 149 178 210
#     4   9  15  24  37  54  75  98 120 145 175 211
#     4   8  15  26  39  53  73  99 122 142 176 218
#     4   9  15  24  37  54  75  98 120 145 175 211
#
# _framework density 18.58108
#
# number of rings (size 3 to 8) (size 9 to 14) (size 15 to 20)
#    0.000    3.429    0.000    2.571    0.000    0.000 
#    0.000    4.286    0.000    0.000    0.000    1.000 
#    0.000    0.000    0.000    0.000    0.000    0.000 
#
# Total GULP energy -312164.192669 kJ/mol
# GULP energy per Si atom -5574.360583 kJ/mol
# Density = 1.853879 g / cm^3
# Si number density = 18.581080 Si / 1000 Ang^3
#
#
#
# Elastic Constant Matrix: (Units=GPa)
#
#
# Indices 1 2 3 4 5 6 
#
# 1 48.7877 13.3889 8.5704 0.0000 0.0000 0.0000
# 2 13.3889 194.6236 67.9332 0.0000 0.0000 0.0000
# 3 8.5704 67.9332 86.5381 0.0000 0.0000 0.0000
# 4 0.0000 0.0000 0.0000 24.3499 0.0000 0.0000
# 5 0.0000 0.0000 0.0000 0.0000 21.8394 0.0000
# 6 0.0000 0.0000 0.0000 0.0000 0.0000 6.8568
#
#
#
# Elastic Compliance Matrix: (Units=1/GPa)
#
#
# Indices 1 2 3 4 5 6 
#
# 1 0.020997 -0.000990 -0.001302 0.000000 0.000000 0.000000
# 2 -0.000990 0.007124 -0.005494 0.000000 0.000000 0.000000
# 3 -0.001302 -0.005494 0.015998 0.000000 0.000000 0.000000
# 4 0.000000 0.000000 0.000000 0.041068 0.000000 0.000000
# 5 0.000000 0.000000 0.000000 0.000000 0.045789 0.000000
# 6 0.000000 0.000000 0.000000 0.000000 0.000000 0.145840
#
#
# Mechanical properties :
#
#
# Convention : Reuss Voigt Hill
#
# Bulk Modulus (GPa) = 35.03149 56.63717 45.83433
# Shear Modulus (GPa) = 16.56155 26.61304 21.58729
#
# Velocity S-wave (km/s) = 2.98872 3.78863 3.41220
# Velocity P-wave (km/s) = 5.55015 7.04880 6.34389
#
# Compressibility (1/GPa) = 0.02854575
#
# Stress axis : x y z
#
# Youngs Moduli (GPa) = 47.62492 140.36984 62.50881
#
# Poissons Ratio (x) = 0.13895 0.08141
# Poissons Ratio (y) = 0.04714 0.34345
# Poissons Ratio (z) = 0.06203 0.77125
#
# Static dielectric constant tensor:
#      x y z
#    x 1.759910 0.000000 0.000000 
#    y 0.000000 1.678670 0.000000 
#    z 0.000000 0.000000 1.627300 
# 
# From -- ./inp_files/12586.got.cif
#   From: 2010.05.17/outbox.cif.g08.bks.cpg/sg62_7_cif.got.tgz:12586.got - 2010.06.03 15:25:27.
