data_PCOD9467215
_publ_section_title
;
Structure prediction by ZEFSAII (Michael W. Deem and Ramdas Pophale) SiO2 
 PCOD9467215
Probable space group: P N M A
;
_chemical_formula_sum "Si O2"
_cell_formula_units_Z 52
_cell_length_a 14.756901
_cell_length_b 18.804317
_cell_length_c 8.199860
_cell_angle_alpha 90.000000
_cell_angle_beta 90.000000
_cell_angle_gamma 90.000000
_cell_volume 2275.407395
_symmetry_space_group_name_H-M "P N M A"
_symmetry_group_IT_number 62
_symmetry_cell_setting 'orthorhombic'
loop_
_space_group_symop_operation_xyz
x,y,z
1/2-x,-y,1/2+z
1/2+x,1/2-y,1/2-z
-x,1/2+y,-z
-x,-y,-z
1/2+x,y,1/2-z
1/2-x,1/2+y,1/2+z
x,1/2-y,z
loop_
_atom_site_type_symbol
_atom_site_label
_atom_site_fract_x
_atom_site_fract_y
_atom_site_fract_z
Si Si1 0.462526 0.487440 0.679791
Si Si2 0.733300 0.250000 0.328758
Si Si3 0.507520 0.873198 0.862673
Si Si4 0.592534 0.750000 0.640964
Si Si5 0.928254 0.750000 0.066153
Si Si6 0.903578 0.871846 0.330290
Si Si7 0.296971 0.095984 0.068912
Si Si8 0.240296 0.539836 0.225088
O O1 0.500000 0.500000 0.500000
O O2 0.456678 0.563483 0.770183
O O3 0.532411 0.436709 0.773121
O O4 0.363260 0.453695 0.672361
O O5 0.627758 0.250000 0.392835
O O6 0.767521 0.323418 0.406965
O O7 0.797064 0.250000 0.161540
O O8 0.552207 0.818184 0.737028
O O9 0.595368 0.906670 0.950254
O O10 0.445242 0.840427 0.003405
O O11 0.536341 0.750000 0.472261
O O12 0.902898 0.816843 0.180524
O O13 0.807335 0.907619 0.369291
O O14 0.270546 0.041788 0.210610
O O15 0.250885 0.063586 0.910852
#
# Coordination Sequence:
#
# PCOD9467215 Si02
#       8
#     8   4   8   4   4   8   8   8
#     4  12  25  42  67 107 146 185 241 302 359 441
#     4  10  24  46  72 100 147 189 234 298 375 441
#     4  11  23  46  69  97 146 187 234 299 367 429
#     4  10  25  45  69 102 142 187 234 294 372 441
#     4  12  25  47  77 106 139 194 246 298 379 448
#     4  12  24  45  71 104 140 186 246 302 370 441
#     4  11  23  45  71 101 141 191 237 298 367 433
#     4  12  24  41  70 105 139 188 242 298 362 434
#
# _framework density 22.85305
#
# number of rings (size 3 to 8) (size 9 to 14) (size 15 to 20)
#    0.000    0.615    4.615    3.692    2.154    0.000 
#    0.000    0.769    0.000    0.923    0.000    0.000 
#    0.000    0.000    0.000    0.000    0.000    0.000 
#
# Total GULP energy -290599.746643 kJ/mol
# GULP energy per Si atom -5588.456666 kJ/mol
# Density = 2.280104 g / cm^3
# Si number density = 22.853050 Si / 1000 Ang^3
#
#
#
# Elastic Constant Matrix: (Units=GPa)
#
#
# Indices 1 2 3 4 5 6 
#
# 1 85.8066 8.7566 -4.5982 0.0000 0.0000 0.0000
# 2 8.7566 100.8602 17.5938 0.0000 0.0000 0.0000
# 3 -4.5982 17.5938 38.7930 0.0000 0.0000 0.0000
# 4 0.0000 0.0000 0.0000-1319.2451 0.0000 0.0000
# 5 0.0000 0.0000 0.0000 0.0000 31.6559 0.0000
# 6 0.0000 0.0000 0.0000 0.0000 0.0000 26.5244
#
#
#
# Elastic Compliance Matrix: (Units=1/GPa)
#
#
# Indices 1 2 3 4 5 6 
#
# 1 0.011905 -0.001390 0.002041 0.000000 0.000000 0.000000
# 2 -0.001390 0.010929 -0.005121 0.000000 0.000000 0.000000
# 3 0.002041 -0.005121 0.028342 0.000000 0.000000 0.000000
# 4 0.000000 0.000000 0.000000 -0.000758 0.000000 0.000000
# 5 0.000000 0.000000 0.000000 0.000000 0.031590 0.000000
# 6 0.000000 0.000000 0.000000 0.000000 0.000000 0.037701
#
#
# Mechanical properties :
#
#
# Convention : Reuss Voigt Hill
#
# Bulk Modulus (GPa) = 23.67566 29.88491 26.78029
# Shear Modulus (GPa) = 35.03182 -238.63246 -101.80032
#
# Velocity S-wave (km/s) = 3.91950 -10.22972 -6.68149
# Velocity P-wave (km/s) = 5.55569 11.24385 6.91225
#
# Compressibility (1/GPa) = 0.04223747
#
# Stress axis : x y z
#
# Youngs Moduli (GPa) = 83.99595 91.50216 35.28280
#
# Poissons Ratio (x) = 0.12716 -0.07203
# Poissons Ratio (y) = 0.11673 0.18069
# Poissons Ratio (z) = -0.17147 0.46860
#
# Static dielectric constant tensor:
#      x y z
#    x 1.895470 0.000000 0.000000 
#    y 0.000000 1.849100 0.000000 
#    z 0.000000 0.000000 1.903820 
# 
# From -- ./inp_files/6723.got.cif
#   From: 2010.05.17/outbox.cif.g08.bks.cpg/sg62_4_cif.got.tgz:6723.got - 2010.06.03 15:25:27.
