data_PCOD9467712
_publ_section_title
;
Structure prediction by ZEFSAII (Michael W. Deem and Ramdas Pophale) SiO2 
 PCOD9467712
Probable space group: P N M A
;
_chemical_formula_sum "Si O2"
_cell_formula_units_Z 48
_cell_length_a 9.759867
_cell_length_b 7.146239
_cell_length_c 24.185067
_cell_angle_alpha 90.000000
_cell_angle_beta 90.000000
_cell_angle_gamma 90.000000
_cell_volume 1686.819959
_symmetry_space_group_name_H-M "P N M A"
_symmetry_group_IT_number 62
_symmetry_cell_setting 'orthorhombic'
loop_
_space_group_symop_operation_xyz
x,y,z
1/2-x,-y,1/2+z
1/2+x,1/2-y,1/2-z
-x,1/2+y,-z
-x,-y,-z
1/2+x,y,1/2-z
1/2-x,1/2+y,1/2+z
x,1/2-y,z
loop_
_atom_site_type_symbol
_atom_site_label
_atom_site_fract_x
_atom_site_fract_y
_atom_site_fract_z
Si Si1 0.027337 0.539042 0.406812
Si Si2 0.462987 0.976119 0.246183
Si Si3 0.792886 0.522574 0.485885
Si Si4 0.459111 0.475961 0.576346
Si Si5 0.287554 0.022960 0.685189
Si Si6 0.210104 0.022447 0.855762
O O1 0.992716 0.750000 0.388985
O O2 0.130420 0.547437 0.459992
O O3 0.134054 0.457086 0.362680
O O4 0.889875 0.462172 0.434368
O O5 0.472244 0.750000 0.242656
O O6 0.368278 0.038430 0.195174
O O7 0.613198 0.037583 0.264550
O O8 0.369007 0.022162 0.299701
O O9 0.797557 0.750000 0.487190
O O10 0.636025 0.463449 0.474868
O O11 0.464442 0.250000 0.574536
O O12 0.364636 0.527770 0.629289
O O13 0.609758 0.540591 0.594284
O O14 0.286585 0.250000 0.685817
O O15 0.216684 0.250000 0.857078
#
# Coordination Sequence:
#
# PCOD9467712 Si02
#       6
#     8   8   8   8   8   8
#     4   9  17  28  41  57  77 101 129 160 192 226
#     4   8  13  20  30  46  69  96 124 152 182 219
#     4   9  17  28  41  57  77 101 129 160 192 226
#     4   8  14  24  36  51  73 100 128 157 189 225
#     4   8  13  20  30  46  69  96 124 152 182 219
#     4   8  14  24  36  51  73 100 128 157 189 225
#
# _framework density 28.455912999999999
#
# number of rings (size 3 to 8) (size 9 to 14) (size 15 to 20)
#    0.000    3.667    0.000    2.000    0.000    2.000 
#    0.000    6.667    0.000    0.000    0.000    0.000 
#    0.000    1.333    0.000    3.000    0.000    6.000 
#
# Total GULP energy -268449.593336 kJ/mol
# GULP energy per Si atom -5592.699861 kJ/mol
# Density = 2.839115 g / cm^3
# Si number density = 28.455913 Si / 1000 Ang^3
#
#
#
# Elastic Constant Matrix: (Units=GPa)
#
#
# Indices 1 2 3 4 5 6 
#
# 1 210.8692 0.2588 5.9781 0.0000 0.0000 0.0000
# 2 0.2588 162.9826 -4.6764 0.0000 0.0000 0.0000
# 3 5.9781 -4.6764 79.6201 0.0000 0.0000 0.0000
# 4 0.0000 0.0000 0.0000 -17.3879 0.0000 0.0000
# 5 0.0000 0.0000 0.0000 0.0000 69.9108 0.0000
# 6 0.0000 0.0000 0.0000 0.0000 0.0000 -351.5499
#
#
#
# Elastic Compliance Matrix: (Units=1/GPa)
#
#
# Indices 1 2 3 4 5 6 
#
# 1 0.004752 -0.000018 -0.000358 0.000000 0.000000 0.000000
# 2 -0.000018 0.006146 0.000362 0.000000 0.000000 0.000000
# 3 -0.000358 0.000362 0.012608 0.000000 0.000000 0.000000
# 4 0.000000 0.000000 0.000000 -0.057511 0.000000 0.000000
# 5 0.000000 0.000000 0.000000 0.000000 0.014304 0.000000
# 6 0.000000 0.000000 0.000000 0.000000 0.000000 -0.002845
#
#
# Mechanical properties :
#
#
# Convention : Reuss Voigt Hill
#
# Bulk Modulus (GPa) = 42.59024 50.73253 46.66139
# Shear Modulus (GPa) = -340.31466 -29.67798 -184.99632
#
# Velocity S-wave (km/s) = -10.94775 -3.23297 -8.07172
# Velocity P-wave (km/s) = 12.03349 1.98268 8.39267
#
# Compressibility (1/GPa) = 0.02347956
#
# Stress axis : x y z
#
# Youngs Moduli (GPa) = 210.41804 162.70620 79.31600
#
# Poissons Ratio (x) = 0.00290 0.02839
# Poissons Ratio (y) = 0.00375 -0.02874
# Poissons Ratio (z) = 0.07530 -0.05895
#
# Static dielectric constant tensor:
#      x y z
#    x 2.139800 0.000000 0.000000 
#    y 0.000000 2.110310 0.000000 
#    z 0.000000 0.000000 2.295000 
# 
# From -- ./inp_files/23038.got.cif
#   From: 2010.05.17/outbox.cif.g08.bks.cpg/sg62_12_cif.got.tgz:23038.got - 2010.06.03 15:25:27.
