data_PCOD9467503
_publ_section_title
;
Structure prediction by ZEFSAII (Michael W. Deem and Ramdas Pophale) SiO2 
 PCOD9467503
Probable space group: P N M A
;
_chemical_formula_sum "Si O2"
_cell_formula_units_Z 48
_cell_length_a 20.580958
_cell_length_b 8.489531
_cell_length_c 14.133373
_cell_angle_alpha 90.000000
_cell_angle_beta 90.000000
_cell_angle_gamma 90.000000
_cell_volume 2469.420821
_symmetry_space_group_name_H-M "P N M A"
_symmetry_group_IT_number 62
_symmetry_cell_setting 'orthorhombic'
loop_
_space_group_symop_operation_xyz
x,y,z
1/2-x,-y,1/2+z
1/2+x,1/2-y,1/2-z
-x,1/2+y,-z
-x,-y,-z
1/2+x,y,1/2-z
1/2-x,1/2+y,1/2+z
x,1/2-y,z
loop_
_atom_site_type_symbol
_atom_site_label
_atom_site_fract_x
_atom_site_fract_y
_atom_site_fract_z
Si Si1 0.199496 0.067452 0.030757
Si Si2 0.314453 0.565575 0.911590
Si Si3 0.565960 0.439281 0.952769
Si Si4 0.740385 0.933238 0.273036
Si Si5 0.614728 0.561756 0.752719
Si Si6 0.933990 0.438776 0.046086
O O1 0.209801 0.250000 0.005761
O O2 0.216724 0.037109 0.139449
O O3 0.248877 0.961650 0.970658
O O4 0.126817 0.016517 0.006967
O O5 0.321572 0.750000 0.888191
O O6 0.305137 0.467301 0.816491
O O7 0.374081 0.516896 0.978354
O O8 0.564838 0.250000 0.945582
O O9 0.579427 0.508994 0.848914
O O10 0.500000 0.500000 0.000000
O O11 0.738754 0.750000 0.299509
O O12 0.814492 0.980725 0.248740
O O13 0.624524 0.750000 0.754751
O O14 0.574763 0.522569 0.657630
O O15 0.930469 0.250000 0.036975
O O16 0.000000 0.500000 0.000000
#
# Coordination Sequence:
#
# PCOD9467503 Si02
#       6
#     8   8   8   8   8   8
#     4  12  24  40  66  96 129 170 217 269 324 382
#     4  11  23  41  64  95 130 167 216 269 321 383
#     4  11  25  43  67  95 132 172 216 268 326 392
#     4  12  24  39  65  98 131 171 219 269 326 386
#     4  11  23  41  67  94 128 170 215 267 329 389
#     4  11  25  44  67  96 134 174 218 270 327 393
#
# _framework density 19.437757000000001
#
# number of rings (size 3 to 8) (size 9 to 14) (size 15 to 20)
#    0.000    0.667    3.333    5.000    0.000    5.333 
#    0.000    1.667    0.000    0.000    0.000    0.000 
#    0.000    0.000    0.000    0.000    0.000    0.000 
#
# Total GULP energy -268568.758495 kJ/mol
# GULP energy per Si atom -5595.182469 kJ/mol
# Density = 1.939352 g / cm^3
# Si number density = 19.437757 Si / 1000 Ang^3
#
#
#
# Elastic Constant Matrix: (Units=GPa)
#
#
# Indices 1 2 3 4 5 6 
#
# 1 98.3263 8.5882 13.3615 0.0000 0.0000 0.0000
# 2 8.5882 55.8079 3.8902 0.0000 0.0000 0.0000
# 3 13.3615 3.8902 74.5201 0.0000 0.0000 0.0000
# 4 0.0000 0.0000 0.0000 37.1781 0.0000 0.0000
# 5 0.0000 0.0000 0.0000 0.0000 31.8615 0.0000
# 6 0.0000 0.0000 0.0000 0.0000 0.0000 31.7152
#
#
#
# Elastic Compliance Matrix: (Units=1/GPa)
#
#
# Indices 1 2 3 4 5 6 
#
# 1 0.010547 -0.001497 -0.001813 0.000000 0.000000 0.000000
# 2 -0.001497 0.018196 -0.000682 0.000000 0.000000 0.000000
# 3 -0.001813 -0.000682 0.013780 0.000000 0.000000 0.000000
# 4 0.000000 0.000000 0.000000 0.026898 0.000000 0.000000
# 5 0.000000 0.000000 0.000000 0.000000 0.031386 0.000000
# 6 0.000000 0.000000 0.000000 0.000000 0.000000 0.031531
#
#
# Mechanical properties :
#
#
# Convention : Reuss Voigt Hill
#
# Bulk Modulus (GPa) = 28.95106 31.14821 30.04964
# Shear Modulus (GPa) = 32.93073 33.67192 33.30133
#
# Velocity S-wave (km/s) = 4.12049 4.16660 4.14361
# Velocity P-wave (km/s) = 6.12898 6.26153 6.19561
#
# Compressibility (1/GPa) = 0.03454105
#
# Stress axis : x y z
#
# Youngs Moduli (GPa) = 94.81081 54.95581 72.56970
#
# Poissons Ratio (x) = 0.08225 0.13157
# Poissons Ratio (y) = 0.14191 0.04946
# Poissons Ratio (z) = 0.17189 0.03746
#
# Static dielectric constant tensor:
#      x y z
#    x 1.643160 0.000000 0.000000 
#    y 0.000000 1.642440 0.000000 
#    z 0.000000 0.000000 1.682710 
# 
# From -- ./inp_files/19616.got.cif
#   From: 2010.05.17/outbox.cif.g08.bks.cpg/sg62_10_cif.got.tgz:19616.got - 2010.06.03 15:25:27.
