data_PCOD9467765
_publ_section_title
;
Structure prediction by ZEFSAII (Michael W. Deem and Ramdas Pophale) SiO2 
 PCOD9467765
Probable space group: P N M A
;
_chemical_formula_sum "Si O2"
_cell_formula_units_Z 64
_cell_length_a 15.000000
_cell_length_b 9.000000
_cell_length_c 24.000000
_cell_angle_alpha 90.000000
_cell_angle_beta 90.000000
_cell_angle_gamma 90.000000
_cell_volume 3240.000000
_symmetry_space_group_name_H-M "P N M A"
_symmetry_group_IT_number 62
_symmetry_cell_setting 'orthorhombic'
loop_
_space_group_symop_operation_xyz
x,y,z
1/2-x,-y,1/2+z
1/2+x,1/2-y,1/2-z
-x,1/2+y,-z
-x,-y,-z
1/2+x,y,1/2-z
1/2-x,1/2+y,1/2+z
x,1/2-y,z
loop_
_atom_site_type_symbol
_atom_site_label
_atom_site_fract_x
_atom_site_fract_y
_atom_site_fract_z
Si Si1 0.577828 0.575514 0.631175
Si Si2 0.249431 0.921211 0.402513
Si Si3 0.648771 0.926081 0.754626
Si Si4 0.547522 0.427321 0.947066
Si Si5 0.566270 0.427061 0.454722
Si Si6 0.994131 0.574166 0.324531
Si Si7 0.729974 0.575356 0.967822
Si Si8 0.167908 0.426122 0.297046
O O1 0.600454 0.750000 0.620781
O O2 0.647527 0.470491 0.599427
O O3 0.595340 0.550274 0.696408
O O4 0.480751 0.550753 0.605287
O O5 0.239174 0.750000 0.384608
O O6 0.216964 0.933946 0.465417
O O7 0.201230 0.025782 0.358332
O O8 0.646381 0.750000 0.766484
O O9 0.750902 0.970727 0.743282
O O10 0.599330 0.016236 0.801723
O O11 0.545837 0.250000 0.953134
O O12 0.498166 0.467138 0.889529
O O13 0.649022 0.484186 0.942153
O O14 0.500000 0.500000 0.000000
O O15 0.500000 0.500000 0.500000
O O16 0.568733 0.250000 0.466267
O O17 0.668990 0.478091 0.456011
O O18 0.999683 0.750000 0.320306
O O19 0.073257 0.501537 0.289220
O O20 0.723791 0.750000 0.951905
O O21 0.158785 0.250000 0.293894
#
# Coordination Sequence:
#
# PCOD9467765 Si02
#       8
#     8   8   8   8   8   8   8   8
#     4   9  18  33  54  80 114 154 200 245 285 339
#     4  10  18  30  52  83 117 149 192 241 284 339
#     4   9  20  39  61  87 116 150 197 245 288 344
#     4  11  25  43  63  88 118 153 196 245 299 362
#     4  10  19  33  53  82 120 160 199 243 293 351
#     4  11  24  42  63  90 122 154 193 245 302 358
#     4  10  21  35  53  83 120 158 196 236 293 351
#     4  10  21  38  62  89 114 149 196 240 289 347
#
# _framework density 19.753086
#
# number of rings (size 3 to 8) (size 9 to 14) (size 15 to 20)
#    0.000    2.000    1.250    3.000    0.000    9.000 
#    2.250    0.000    0.000    0.000    0.000    0.000 
#    0.000    0.000    0.000    0.000    0.000    0.000 
#
# Total GULP energy -357267.031177 kJ/mol
# GULP energy per Si atom -5582.297362 kJ/mol
# Density = 1.970813 g / cm^3
# Si number density = 19.753086 Si / 1000 Ang^3
#
#
#
# Elastic Constant Matrix: (Units=GPa)
#
#
# Indices 1 2 3 4 5 6 
#
# 1 128.5089 37.3376 31.2930 0.0000 0.0000 0.0000
# 2 37.3376 30.6446 34.9846 0.0000 0.0000 0.0000
# 3 31.2930 34.9846 44.0202 0.0000 0.0000 0.0000
# 4 0.0000 0.0000 0.0000 22.1625 0.0000 0.0000
# 5 0.0000 0.0000 0.0000 0.0000 24.6152 0.0000
# 6 0.0000 0.0000 0.0000 0.0000 0.0000 30.0933
#
#
#
# Elastic Compliance Matrix: (Units=1/GPa)
#
#
# Indices 1 2 3 4 5 6 
#
# 1 0.019399 -0.085134 0.053869 0.000000 0.000000 0.000000
# 2 -0.085134 0.725599 -0.516142 0.000000 0.000000 0.000000
# 3 0.053869 -0.516142 0.394621 0.000000 0.000000 0.000000
# 4 0.000000 0.000000 0.000000 0.045121 0.000000 0.000000
# 5 0.000000 0.000000 0.000000 0.000000 0.040625 0.000000
# 6 0.000000 0.000000 0.000000 0.000000 0.000000 0.033230
#
#
# Mechanical properties :
#
#
# Convention : Reuss Voigt Hill
#
# Bulk Modulus (GPa) = 22.31901 45.60045 33.95973
# Shear Modulus (GPa) = 2.11118 22.01143 12.06130
#
# Velocity S-wave (km/s) = 1.03494 3.34178 2.47372
# Velocity P-wave (km/s) = 3.57095 6.16647 5.03870
#
# Compressibility (1/GPa) = 0.04480485
#
# Stress axis : x y z
#
# Youngs Moduli (GPa) = 51.54824 1.37817 2.53408
#
# Poissons Ratio (x) = 0.11733 -0.13651
# Poissons Ratio (y) = 4.38851 1.30794
# Poissons Ratio (z) = -2.77684 0.71133
#
# Static dielectric constant tensor:
#      x y z
#    x 1.733850 0.000000 0.000000 
#    y 0.000000 1.653300 0.000000 
#    z 0.000000 0.000000 1.701770 
# 
# From -- ./inp_files/29865.got.cif
#   From: 2010.05.17/outbox.ucp.g08.bks.cvg/sg62_15_cif.got.tgz:29865.got - 2010.06.11 16:29:25.
