data_PCOD9467446
_publ_section_title
;
Structure prediction by ZEFSAII (Michael W. Deem and Ramdas Pophale) SiO2 
 PCOD9467446
Probable space group: P N M A
;
_chemical_formula_sum "Si O2"
_cell_formula_units_Z 44
_cell_length_a 17.789331
_cell_length_b 13.765753
_cell_length_c 8.922649
_cell_angle_alpha 90.000000
_cell_angle_beta 90.000000
_cell_angle_gamma 90.000000
_cell_volume 2185.009843
_symmetry_space_group_name_H-M "P N M A"
_symmetry_group_IT_number 62
_symmetry_cell_setting 'orthorhombic'
loop_
_space_group_symop_operation_xyz
x,y,z
1/2-x,-y,1/2+z
1/2+x,1/2-y,1/2-z
-x,1/2+y,-z
-x,-y,-z
1/2+x,y,1/2-z
1/2-x,1/2+y,1/2+z
x,1/2-y,z
loop_
_atom_site_type_symbol
_atom_site_label
_atom_site_fract_x
_atom_site_fract_y
_atom_site_fract_z
Si Si1 0.190003 0.750000 0.377737
Si Si2 0.314412 0.250000 0.235402
Si Si3 0.320996 0.438814 0.725082
Si Si4 0.010100 0.750000 0.747705
Si Si5 0.403094 0.750000 0.010818
Si Si6 0.775270 0.899656 0.565507
Si Si7 0.628804 0.250000 0.645182
Si Si8 0.939001 0.921878 0.939371
O O1 0.190905 0.750000 0.556876
O O2 0.149609 0.658158 0.302680
O O3 0.280144 0.750000 0.340470
O O4 0.401717 0.250000 0.270668
O O5 0.273873 0.340306 0.314456
O O6 0.283721 0.495573 0.862494
O O7 0.264949 0.406048 0.593900
O O8 0.378329 0.512886 0.647740
O O9 0.981212 0.750000 0.577077
O O10 0.977647 0.845931 0.826724
O O11 0.353219 0.657555 0.957708
O O12 0.406192 0.750000 0.189178
O O13 0.600944 0.151883 0.558669
O O14 0.000000 0.000000 0.000000
#
# Coordination Sequence:
#
# PCOD9467446 Si02
#       8
#     4   4   8   4   4   8   4   8
#     4  12  25  42  67 100 131 176 225 292 336 388
#     4  11  24  42  66  96 135 174 224 274 336 409
#     4  12  23  41  68  99 132 171 231 280 338 396
#     4  11  24  46  64  93 141 177 214 279 343 396
#     4  11  22  43  66 100 132 180 213 285 343 396
#     4  11  22  40  68  99 132 171 229 278 332 404
#     4  11  23  47  69  97 139 173 228 282 350 397
#     4  11  25  43  68  96 132 183 223 268 341 420
#
# _framework density 20.137208999999999
#
# number of rings (size 3 to 8) (size 9 to 14) (size 15 to 20)
#    0.000    0.727    3.636    4.909    2.545    2.909 
#    3.273    1.818    0.000    0.000    0.000    0.000 
#    0.000    0.000    0.000    0.000    0.000    0.000 
#
# Total GULP energy -245852.735893 kJ/mol
# GULP energy per Si atom -5587.562179 kJ/mol
# Density = 2.009138 g / cm^3
# Si number density = 20.137209 Si / 1000 Ang^3
#
#
#
# Elastic Constant Matrix: (Units=GPa)
#
#
# Indices 1 2 3 4 5 6 
#
# 1 41.2805 18.1585 -0.6200 0.0000 0.0000 0.0000
# 2 18.1585 143.9956 44.6762 0.0000 0.0000 0.0000
# 3 -0.6200 44.6762 114.5360 0.0000 0.0000 0.0000
# 4 0.0000 0.0000 0.0000 26.4450 0.0000 0.0000
# 5 0.0000 0.0000 0.0000 0.0000 24.7998 0.0000
# 6 0.0000 0.0000 0.0000 0.0000 0.0000 -147.7208
#
#
#
# Elastic Compliance Matrix: (Units=1/GPa)
#
#
# Indices 1 2 3 4 5 6 
#
# 1 0.025905 -0.003766 0.001609 0.000000 0.000000 0.000000
# 2 -0.003766 0.008448 -0.003316 0.000000 0.000000 0.000000
# 3 0.001609 -0.003316 0.010033 0.000000 0.000000 0.000000
# 4 0.000000 0.000000 0.000000 0.037814 0.000000 0.000000
# 5 0.000000 0.000000 0.000000 0.000000 0.040323 0.000000
# 6 0.000000 0.000000 0.000000 0.000000 0.000000 -0.006770
#
#
# Mechanical properties :
#
#
# Convention : Reuss Voigt Hill
#
# Bulk Modulus (GPa) = 29.90308 47.13794 38.52051
# Shear Modulus (GPa) = 36.27220 -3.45537 16.40842
#
# Velocity S-wave (km/s) = 4.24872 -1.31135 2.85762
# Velocity P-wave (km/s) = 6.24105 4.60069 5.48257
#
# Compressibility (1/GPa) = 0.03344137
#
# Stress axis : x y z
#
# Youngs Moduli (GPa) = 38.60217 118.36670 99.67167
#
# Poissons Ratio (x) = 0.44577 -0.16039
# Poissons Ratio (y) = 0.14538 0.33049
# Poissons Ratio (z) = -0.06212 0.39248
#
# Static dielectric constant tensor:
#      x y z
#    x 1.706840 0.000000 0.000000 
#    y 0.000000 1.561590 0.000000 
#    z 0.000000 0.000000 1.688290 
# 
# From -- ./inp_files/7588.got.cif
#   From: 2010.05.17/outbox.cif.g08.bks.cpg/sg62_4_cif.got.tgz:7588.got - 2010.06.03 15:25:27.
