data_PCOD9467959
_publ_section_title
;
Structure prediction by ZEFSAII (Michael W. Deem and Ramdas Pophale) SiO2 
 PCOD9467959
Probable space group: P N M A
;
_chemical_formula_sum "Si O2"
_cell_formula_units_Z 56
_cell_length_a 21.000000
_cell_length_b 9.000000
_cell_length_c 15.000000
_cell_angle_alpha 90.000000
_cell_angle_beta 90.000000
_cell_angle_gamma 90.000000
_cell_volume 2835.000000
_symmetry_space_group_name_H-M "P N M A"
_symmetry_group_IT_number 62
_symmetry_cell_setting 'orthorhombic'
loop_
_space_group_symop_operation_xyz
x,y,z
1/2-x,-y,1/2+z
1/2+x,1/2-y,1/2-z
-x,1/2+y,-z
-x,-y,-z
1/2+x,y,1/2-z
1/2-x,1/2+y,1/2+z
x,1/2-y,z
loop_
_atom_site_type_symbol
_atom_site_label
_atom_site_fract_x
_atom_site_fract_y
_atom_site_fract_z
Si Si1 0.377227 0.427278 0.608101
Si Si2 0.670945 0.926810 0.078907
Si Si3 0.480272 0.928814 0.719381
Si Si4 0.533797 0.427243 0.083915
Si Si5 0.759211 0.074405 0.392565
Si Si6 0.218369 0.927739 0.809365
Si Si7 0.909677 0.069593 0.087539
O O1 0.381111 0.250000 0.614333
O O2 0.413619 0.501580 0.689913
O O3 0.304667 0.478850 0.603313
O O4 0.409660 0.478469 0.515007
O O5 0.661593 0.750000 0.088826
O O6 0.605387 0.013253 0.089002
O O7 0.721797 0.985758 0.150467
O O8 0.698200 0.955228 0.979222
O O9 0.475620 0.750000 0.713982
O O10 0.497708 0.966117 0.820816
O O11 0.532547 0.982786 0.648687
O O12 0.532751 0.250000 0.074732
O O13 0.500000 0.500000 0.000000
O O14 0.742403 0.250000 0.395164
O O15 0.790614 0.046319 0.296095
O O16 0.228113 0.750000 0.821472
O O17 0.156426 0.972646 0.865532
O O18 0.911603 0.250000 0.087324
#
# Coordination Sequence:
#
# PCOD9467959 Si02
#       7
#     8   8   8   8   8   8   8
#     4  11  21  36  60  90 122 153 191 247 301 348
#     4  11  23  40  62  90 123 156 196 247 299 355
#     4  10  22  40  62  85 117 161 203 241 293 363
#     4  11  25  43  65  89 119 159 204 250 298 354
#     4  10  22  37  60  87 116 157 198 238 290 358
#     4  10  20  38  62  86 117 157 202 245 294 353
#     4   9  19  36  60  87 115 152 197 246 296 349
#
# _framework density 19.753086
#
# number of rings (size 3 to 8) (size 9 to 14) (size 15 to 20)
#    0.000    1.714    1.429    2.571    2.000    5.714 
#    0.000    1.429    0.000    0.000    0.000    0.000 
#    0.000    0.000    0.000    0.000    0.000    0.000 
#
# Total GULP energy -312899.099829 kJ/mol
# GULP energy per Si atom -5587.483926 kJ/mol
# Density = 1.970813 g / cm^3
# Si number density = 19.753086 Si / 1000 Ang^3
#
#
#
# Elastic Constant Matrix: (Units=GPa)
#
#
# Indices 1 2 3 4 5 6 
#
# 1 45.9915 9.1341 9.7667 0.0000 0.0000 0.0000
# 2 9.1341 21.4256 33.8284 0.0000 0.0000 0.0000
# 3 9.7667 33.8284 110.9336 0.0000 0.0000 0.0000
# 4 0.0000 0.0000 0.0000 27.5575 0.0000 0.0000
# 5 0.0000 0.0000 0.0000 0.0000 26.7615 0.0000
# 6 0.0000 0.0000 0.0000 0.0000 0.0000 25.8501
#
#
#
# Elastic Compliance Matrix: (Units=1/GPa)
#
#
# Indices 1 2 3 4 5 6 
#
# 1 0.023969 -0.013281 0.001940 0.000000 0.000000 0.000000
# 2 -0.013281 0.097369 -0.028523 0.000000 0.000000 0.000000
# 3 0.001940 -0.028523 0.017541 0.000000 0.000000 0.000000
# 4 0.000000 0.000000 0.000000 0.036288 0.000000 0.000000
# 5 0.000000 0.000000 0.000000 0.000000 0.037367 0.000000
# 6 0.000000 0.000000 0.000000 0.000000 0.000000 0.038685
#
#
# Mechanical properties :
#
#
# Convention : Reuss Voigt Hill
#
# Bulk Modulus (GPa) = 16.90571 31.53434 24.22003
# Shear Modulus (GPa) = 14.25865 24.40858 19.33361
#
# Velocity S-wave (km/s) = 2.68963 3.51904 3.13191
# Velocity P-wave (km/s) = 4.26879 5.70180 5.03652
#
# Compressibility (1/GPa) = 0.05915161
#
# Stress axis : x y z
#
# Youngs Moduli (GPa) = 41.72081 10.27018 57.00776
#
# Poissons Ratio (x) = 0.13640 -0.11058
# Poissons Ratio (y) = 0.55409 1.62602
# Poissons Ratio (z) = -0.08092 0.29293
#
# Static dielectric constant tensor:
#      x y z
#    x 1.682290 0.000000 0.000000 
#    y 0.000000 1.654850 0.000000 
#    z 0.000000 0.000000 1.701800 
# 
# From -- ./inp_files/20203.got.cif
#   From: 2010.05.17/outbox.ucp.g08.bks.cvg/sg62_11_cif.got.tgz:20203.got - 2010.06.11 16:29:25.
