data_PCOD9467282
_publ_section_title
;
Structure prediction by ZEFSAII (Michael W. Deem and Ramdas Pophale) SiO2 
 PCOD9467282
Probable space group: P N M A
;
_chemical_formula_sum "Si O2"
_cell_formula_units_Z 48
_cell_length_a 8.425053
_cell_length_b 31.579072
_cell_length_c 8.877776
_cell_angle_alpha 90.000000
_cell_angle_beta 90.000000
_cell_angle_gamma 90.000000
_cell_volume 2361.979848
_symmetry_space_group_name_H-M "P N M A"
_symmetry_group_IT_number 62
_symmetry_cell_setting 'orthorhombic'
loop_
_space_group_symop_operation_xyz
x,y,z
1/2-x,-y,1/2+z
1/2+x,1/2-y,1/2-z
-x,1/2+y,-z
-x,-y,-z
1/2+x,y,1/2-z
1/2-x,1/2+y,1/2+z
x,1/2-y,z
loop_
_atom_site_type_symbol
_atom_site_label
_atom_site_fract_x
_atom_site_fract_y
_atom_site_fract_z
Si Si1 0.377677 0.623510 0.664613
Si Si2 0.473547 0.372075 0.026376
Si Si3 0.186009 0.083824 0.691375
Si Si4 0.001141 0.549374 0.033408
Si Si5 0.483783 0.704057 0.478436
Si Si6 0.691485 0.676887 0.210176
O O1 0.397235 0.630881 0.841934
O O2 0.459699 0.580320 0.606261
O O3 0.463555 0.663518 0.585226
O O4 0.195920 0.621936 0.608002
O O5 0.535374 0.409298 0.918107
O O6 0.445942 0.332618 0.913533
O O7 0.128545 0.059191 0.837854
O O8 0.329586 0.063029 0.601593
O O9 0.241322 0.130366 0.746875
O O10 0.000000 0.500000 0.000000
O O11 0.495923 0.750000 0.554066
O O12 0.625774 0.697201 0.361113
O O13 0.327135 0.702253 0.374287
#
# Coordination Sequence:
#
# PCOD9467282 Si02
#       6
#     8   8   8   8   8   8
#     4  11  23  42  61  97 132 170 217 272 335 382
#     4  11  22  39  72  89 129 178 213 267 333 389
#     4  12  20  45  68  93 128 173 222 274 324 395
#     4  12  25  42  67  95 130 174 218 271 337 397
#     4  11  22  38  65  98 131 170 222 272 326 394
#     4  11  19  40  68  91 127 174 220 265 326 384
#
# _framework density 20.321933999999999
#
# number of rings (size 3 to 8) (size 9 to 14) (size 15 to 20)
#    0.000    0.667    8.333    1.500    0.000    2.667 
#    0.000    6.667    0.000    0.000    0.000    0.000 
#    0.000    0.000    0.000    0.000    0.000    0.000 
#
# Total GULP energy -268169.130961 kJ/mol
# GULP energy per Si atom -5586.856895 kJ/mol
# Density = 2.027568 g / cm^3
# Si number density = 20.321934 Si / 1000 Ang^3
#
#
#
# Elastic Constant Matrix: (Units=GPa)
#
#
# Indices 1 2 3 4 5 6 
#
# 1 50.0647 7.9476 -2.1631 0.0000 0.0000 0.0000
# 2 7.9476 133.2095 15.8884 0.0000 0.0000 0.0000
# 3 -2.1631 15.8884 65.7993 0.0000 0.0000 0.0000
# 4 0.0000 0.0000 0.0000 11.0967 0.0000 0.0000
# 5 0.0000 0.0000 0.0000 0.0000 40.0847 0.0000
# 6 0.0000 0.0000 0.0000 0.0000 0.0000 22.6894
#
#
#
# Elastic Compliance Matrix: (Units=1/GPa)
#
#
# Indices 1 2 3 4 5 6 
#
# 1 0.020227 -0.001324 0.000985 0.000000 0.000000 0.000000
# 2 -0.001324 0.007816 -0.001931 0.000000 0.000000 0.000000
# 3 0.000985 -0.001931 0.015696 0.000000 0.000000 0.000000
# 4 0.000000 0.000000 0.000000 0.090117 0.000000 0.000000
# 5 0.000000 0.000000 0.000000 0.000000 0.024947 0.000000
# 6 0.000000 0.000000 0.000000 0.000000 0.000000 0.044073
#
#
# Mechanical properties :
#
#
# Convention : Reuss Voigt Hill
#
# Bulk Modulus (GPa) = 25.51109 32.49105 29.00107
# Shear Modulus (GPa) = 22.67733 29.93419 26.30576
#
# Velocity S-wave (km/s) = 3.34414 3.84213 3.60175
# Velocity P-wave (km/s) = 5.24326 5.97541 5.62127
#
# Compressibility (1/GPa) = 0.03919864
#
# Stress axis : x y z
#
# Youngs Moduli (GPa) = 49.43907 127.93800 63.70906
#
# Poissons Ratio (x) = 0.16942 -0.06273
# Poissons Ratio (y) = 0.06547 0.12302
# Poissons Ratio (z) = -0.04868 0.24704
#
# Static dielectric constant tensor:
#      x y z
#    x 1.764770 0.000000 0.000000 
#    y 0.000000 1.674610 0.000000 
#    z 0.000000 0.000000 1.734820 
# 
# From -- ./inp_files/4511.got.cif
#   From: 2010.05.17/outbox.cif.g08.bks.cpg/sg62_3_cif.got.tgz:4511.got - 2010.06.03 15:25:27.
