data_PCOD9467034
_publ_section_title
;
Structure prediction by ZEFSAII (Michael W. Deem and Ramdas Pophale) SiO2 
 PCOD9467034
Probable space group: P N M A
;
_chemical_formula_sum "Si O2"
_cell_formula_units_Z 32
_cell_length_a 10.263620
_cell_length_b 22.921886
_cell_length_c 4.920840
_cell_angle_alpha 90.000000
_cell_angle_beta 90.000000
_cell_angle_gamma 90.000000
_cell_volume 1157.684335
_symmetry_space_group_name_H-M "P N M A"
_symmetry_group_IT_number 62
_symmetry_cell_setting 'orthorhombic'
loop_
_space_group_symop_operation_xyz
x,y,z
1/2-x,-y,1/2+z
1/2+x,1/2-y,1/2-z
-x,1/2+y,-z
-x,-y,-z
1/2+x,y,1/2-z
1/2-x,1/2+y,1/2+z
x,1/2-y,z
loop_
_atom_site_type_symbol
_atom_site_label
_atom_site_fract_x
_atom_site_fract_y
_atom_site_fract_z
Si Si1 0.037872 0.349356 0.060467
Si Si2 0.632161 0.943483 0.835708
Si Si3 0.891969 0.750000 0.569469
Si Si4 0.630807 0.750000 0.308210
Si Si5 0.308345 0.926735 0.165999
O O1 0.124985 0.306415 0.242044
O O2 0.982995 0.402107 0.241146
O O3 0.110645 0.374968 0.799013
O O4 0.920324 0.307935 0.960322
O O5 0.751114 0.926609 0.634900
O O6 0.612707 0.012557 0.798041
O O7 0.681499 0.932336 0.138885
O O8 0.786316 0.750000 0.328383
O O9 0.041341 0.750000 0.461164
#
# Coordination Sequence:
#
# PCOD9467034 Si02
#       5
#     8   8   4   4   8
#     4  11  25  44  73 101 147 193 255 303 375 442
#     4  10  23  42  70 106 149 188 241 302 372 447
#     4  11  28  50  69 114 140 204 248 320 366 445
#     4  11  28  46  75 102 150 192 260 308 376 437
#     4  10  23  42  69 108 147 190 239 303 373 445
#
# _framework density 27.641386000000001
#
# number of rings (size 3 to 8) (size 9 to 14) (size 15 to 20)
#    0.000    1.500    0.000    2.250   10.500    4.000 
#    0.000    7.500    0.000    0.000    0.000    0.000 
#    0.000    0.000    0.000    0.000    0.000    0.000 
#
# Total GULP energy -179812.412905 kJ/mol
# GULP energy per Si atom -5619.137903 kJ/mol
# Density = 2.757847 g / cm^3
# Si number density = 27.641386 Si / 1000 Ang^3
#
#
#
# Elastic Constant Matrix: (Units=GPa)
#
#
# Indices 1 2 3 4 5 6 
#
# 1 120.3822 61.2297 33.0482 0.0000 0.0000 0.0000
# 2 61.2297 159.3471 16.3297 0.0000 0.0000 0.0000
# 3 33.0482 16.3297 87.6245 0.0000 0.0000 0.0000
# 4 0.0000 0.0000 0.0000 41.8937 0.0000 0.0000
# 5 0.0000 0.0000 0.0000 0.0000 43.7544 0.0000
# 6 0.0000 0.0000 0.0000 0.0000 0.0000 43.6907
#
#
#
# Elastic Compliance Matrix: (Units=1/GPa)
#
#
# Indices 1 2 3 4 5 6 
#
# 1 0.011298 -0.003980 -0.003519 0.000000 0.000000 0.000000
# 2 -0.003980 0.007800 0.000048 0.000000 0.000000 0.000000
# 3 -0.003519 0.000048 0.012731 0.000000 0.000000 0.000000
# 4 0.000000 0.000000 0.000000 0.023870 0.000000 0.000000
# 5 0.000000 0.000000 0.000000 0.000000 0.022855 0.000000
# 6 0.000000 0.000000 0.000000 0.000000 0.000000 0.022888
#
#
# Mechanical properties :
#
#
# Convention : Reuss Voigt Hill
#
# Bulk Modulus (GPa) = 59.08597 65.39655 62.24126
# Shear Modulus (GPa) = 40.98799 42.98421 41.98610
#
# Velocity S-wave (km/s) = 3.85495 3.94771 3.90161
# Velocity P-wave (km/s) = 6.42157 6.67005 6.54699
#
# Compressibility (1/GPa) = 0.01692449
#
# Stress axis : x y z
#
# Youngs Moduli (GPa) = 88.51471 128.20115 78.55013
#
# Poissons Ratio (x) = 0.51030 0.27643
# Poissons Ratio (y) = 0.35233 -0.00374
# Poissons Ratio (z) = 0.31150 -0.00610
#
# Static dielectric constant tensor:
#      x y z
#    x 2.179050 0.000000 0.000000 
#    y 0.000000 2.095330 0.000000 
#    z 0.000000 0.000000 2.105370 
# 
# From -- ./inp_files/465.got.cif
#   From: 2010.05.17/outbox.cif.g08.bks.cpg/sg62_1_cif.got.tgz:465.got - 2010.06.03 15:25:27.
