data_PCOD9467180
_publ_section_title
;
Structure prediction by ZEFSAII (Michael W. Deem and Ramdas Pophale) SiO2 
 PCOD9467180
Probable space group: P N M A
;
_chemical_formula_sum "Si O2"
_cell_formula_units_Z 40
_cell_length_a 9.988666
_cell_length_b 28.738875
_cell_length_c 5.089664
_cell_angle_alpha 90.000000
_cell_angle_beta 90.000000
_cell_angle_gamma 90.000000
_cell_volume 1461.054337
_symmetry_space_group_name_H-M "P N M A"
_symmetry_group_IT_number 62
_symmetry_cell_setting 'orthorhombic'
loop_
_space_group_symop_operation_xyz
x,y,z
1/2-x,-y,1/2+z
1/2+x,1/2-y,1/2-z
-x,1/2+y,-z
-x,-y,-z
1/2+x,y,1/2-z
1/2-x,1/2+y,1/2+z
x,1/2-y,z
loop_
_atom_site_type_symbol
_atom_site_label
_atom_site_fract_x
_atom_site_fract_y
_atom_site_fract_z
Si Si1 0.534187 0.376852 0.449162
Si Si2 0.687249 0.057383 0.804745
Si Si3 0.351285 0.197344 0.708120
Si Si4 0.368047 0.454325 0.194741
Si Si5 0.590119 0.301970 0.072238
O O1 0.601571 0.399696 0.703025
O O2 0.411741 0.344392 0.538614
O O3 0.485472 0.419587 0.269438
O O4 0.623348 0.342160 0.276473
O O5 0.807025 0.054308 0.591033
O O6 0.604274 0.009257 0.777863
O O7 0.754871 0.056991 0.087674
O O8 0.386526 0.250000 0.614970
O O9 0.191663 0.195327 0.675281
O O10 0.436394 0.193188 0.976019
O O11 0.609074 0.250000 0.182594
#
# Coordination Sequence:
#
# PCOD9467180 Si02
#       5
#     8   8   8   8   8
#     4  12  24  38  73 102 139 186 253 298 362 436
#     4  10  24  44  66 101 146 190 237 299 367 432
#     4  10  24  44  69 101 145 190 240 302 367 435
#     4  10  24  44  67 100 146 190 237 300 365 433
#     4  10  24  46  69 104 146 192 240 302 368 435
#
# _framework density 27.377490000000002
#
# number of rings (size 3 to 8) (size 9 to 14) (size 15 to 20)
#    0.000    1.600    0.000    2.400    8.400    1.600 
#    0.000   10.000    0.000    0.000    0.000    0.000 
#    0.000    0.000    0.000    0.000    0.000    0.000 
#
# Total GULP energy -224405.226452 kJ/mol
# GULP energy per Si atom -5610.130661 kJ/mol
# Density = 2.731518 g / cm^3
# Si number density = 27.377490 Si / 1000 Ang^3
#
#
#
# Elastic Constant Matrix: (Units=GPa)
#
#
# Indices 1 2 3 4 5 6 
#
# 1 89.7944 66.8192 48.8088 0.0000 0.0000 0.0000
# 2 66.8192 196.1499 30.2422 0.0000 0.0000 0.0000
# 3 48.8088 30.2422 74.7567 0.0000 0.0000 0.0000
# 4 0.0000 0.0000 0.0000 38.7579 0.0000 0.0000
# 5 0.0000 0.0000 0.0000 0.0000 38.0128 0.0000
# 6 0.0000 0.0000 0.0000 0.0000 0.0000 39.1007
#
#
#
# Elastic Compliance Matrix: (Units=1/GPa)
#
#
# Indices 1 2 3 4 5 6 
#
# 1 0.021797 -0.005579 -0.011974 0.000000 0.000000 0.000000
# 2 -0.005579 0.006865 0.000865 0.000000 0.000000 0.000000
# 3 -0.011974 0.000865 0.020845 0.000000 0.000000 0.000000
# 4 0.000000 0.000000 0.000000 0.025801 0.000000 0.000000
# 5 0.000000 0.000000 0.000000 0.000000 0.026307 0.000000
# 6 0.000000 0.000000 0.000000 0.000000 0.000000 0.025575
#
#
# Mechanical properties :
#
#
# Convention : Reuss Voigt Hill
#
# Bulk Modulus (GPa) = 61.99324 72.49350 67.24337
# Shear Modulus (GPa) = 30.13085 37.49634 33.81359
#
# Velocity S-wave (km/s) = 3.32108 3.70483 3.51819
# Velocity P-wave (km/s) = 6.11549 6.69610 6.41237
#
# Compressibility (1/GPa) = 0.01613079
#
# Stress axis : x y z
#
# Youngs Moduli (GPa) = 45.87818 145.66125 47.97380
#
# Poissons Ratio (x) = 0.81264 0.57445
# Poissons Ratio (y) = 0.25595 -0.04151
# Poissons Ratio (z) = 0.54936 -0.12604
#
# Static dielectric constant tensor:
#      x y z
#    x 2.140240 0.000000 0.000000 
#    y 0.000000 2.083790 0.000000 
#    z 0.000000 0.000000 2.125920 
# 
# From -- ./inp_files/597.got.cif
#   From: 2010.05.17/outbox.cif.g08.bks.cpg/sg62_1_cif.got.tgz:597.got - 2010.06.03 15:25:27.
