data_PCOD9467555
_publ_section_title
;
Structure prediction by ZEFSAII (Michael W. Deem and Ramdas Pophale) SiO2 
 PCOD9467555
Probable space group: P N M A
;
_chemical_formula_sum "Si O2"
_cell_formula_units_Z 32
_cell_length_a 9.239699
_cell_length_b 22.717037
_cell_length_c 5.663911
_cell_angle_alpha 90.000000
_cell_angle_beta 90.000000
_cell_angle_gamma 90.000000
_cell_volume 1188.846899
_symmetry_space_group_name_H-M "P N M A"
_symmetry_group_IT_number 62
_symmetry_cell_setting 'orthorhombic'
loop_
_space_group_symop_operation_xyz
x,y,z
1/2-x,-y,1/2+z
1/2+x,1/2-y,1/2-z
-x,1/2+y,-z
-x,-y,-z
1/2+x,y,1/2-z
1/2-x,1/2+y,1/2+z
x,1/2-y,z
loop_
_atom_site_type_symbol
_atom_site_label
_atom_site_fract_x
_atom_site_fract_y
_atom_site_fract_z
Si Si1 0.180197 0.443692 0.937658
Si Si2 0.206101 0.151689 0.569662
Si Si3 0.590762 0.927168 0.724424
Si Si4 0.754860 0.750000 0.065472
Si Si5 0.024274 0.250000 0.303814
O O1 0.345419 0.431959 0.013199
O O2 0.077357 0.426078 0.158176
O O3 0.142990 0.403627 0.714444
O O4 0.150182 0.511728 0.888222
O O5 0.332034 0.127165 0.403247
O O6 0.091864 0.192374 0.431517
O O7 0.268840 0.193751 0.773116
O O8 0.645649 0.750000 0.846738
O O9 0.916559 0.750000 0.961156
#
# Coordination Sequence:
#
# PCOD9467555 Si02
#       5
#     8   8   8   4   4
#     4  11  24  42  66  98 136 178 221 268 327 395
#     4  11  24  44  70 100 134 175 224 276 332 391
#     4  11  24  42  66  98 136 178 221 268 327 395
#     4  11  26  46  71  99 133 175 225 281 334 392
#     4  11  26  46  71  99 133 175 225 281 334 392
#
# _framework density 26.916837000000001
#
# number of rings (size 3 to 8) (size 9 to 14) (size 15 to 20)
#    0.000    1.000    2.500    3.000    0.000   15.000 
#    0.000    0.000    0.000    0.000    0.000    0.000 
#    0.000    0.000    0.000    0.000    0.000    0.000 
#
# Total GULP energy -179671.577070 kJ/mol
# GULP energy per Si atom -5614.736783 kJ/mol
# Density = 2.685557 g / cm^3
# Si number density = 26.916837 Si / 1000 Ang^3
#
#
#
# Elastic Constant Matrix: (Units=GPa)
#
#
# Indices 1 2 3 4 5 6 
#
# 1 107.9696 21.0628 18.8748 0.0000 0.0000 0.0000
# 2 21.0628 137.2104 37.9776 0.0000 0.0000 0.0000
# 3 18.8748 37.9776 59.6209 0.0000 0.0000 0.0000
# 4 0.0000 0.0000 0.0000 57.8390 0.0000 0.0000
# 5 0.0000 0.0000 0.0000 0.0000 44.8764 0.0000
# 6 0.0000 0.0000 0.0000 0.0000 0.0000 19.4182
#
#
#
# Elastic Compliance Matrix: (Units=1/GPa)
#
#
# Indices 1 2 3 4 5 6 
#
# 1 0.009874 -0.000790 -0.002623 0.000000 0.000000 0.000000
# 2 -0.000790 0.008911 -0.005426 0.000000 0.000000 0.000000
# 3 -0.002623 -0.005426 0.021059 0.000000 0.000000 0.000000
# 4 0.000000 0.000000 0.000000 0.017289 0.000000 0.000000
# 5 0.000000 0.000000 0.000000 0.000000 0.022283 0.000000
# 6 0.000000 0.000000 0.000000 0.000000 0.000000 0.051498
#
#
# Mechanical properties :
#
#
# Convention : Reuss Voigt Hill
#
# Bulk Modulus (GPa) = 45.11197 51.18126 48.14662
# Shear Modulus (GPa) = 32.05474 39.55243 35.80359
#
# Velocity S-wave (km/s) = 3.45466 3.83747 3.65109
# Velocity P-wave (km/s) = 5.71918 6.22019 5.97494
#
# Compressibility (1/GPa) = 0.02216706
#
# Stress axis : x y z
#
# Youngs Moduli (GPa) = 101.27113 112.21801 47.48458
#
# Poissons Ratio (x) = 0.08863 0.12455
# Poissons Ratio (y) = 0.07998 0.25766
# Poissons Ratio (z) = 0.26563 0.60893
#
# Static dielectric constant tensor:
#      x y z
#    x 2.030420 0.000000 0.000000 
#    y 0.000000 2.048220 0.000000 
#    z 0.000000 0.000000 2.061930 
# 
# From -- ./inp_files/466.got.cif
#   From: 2010.05.17/outbox.cif.g08.bks.cpg/sg62_1_cif.got.tgz:466.got - 2010.06.03 15:25:27.
