data_PCOD9467248
_publ_section_title
;
Structure prediction by ZEFSAII (Michael W. Deem and Ramdas Pophale) SiO2 
 PCOD9467248
Probable space group: P N M A
;
_chemical_formula_sum "Si O2"
_cell_formula_units_Z 36
_cell_length_a 10.468361
_cell_length_b 27.188569
_cell_length_c 4.974028
_cell_angle_alpha 90.000000
_cell_angle_beta 90.000000
_cell_angle_gamma 90.000000
_cell_volume 1415.706633
_symmetry_space_group_name_H-M "P N M A"
_symmetry_group_IT_number 62
_symmetry_cell_setting 'orthorhombic'
loop_
_space_group_symop_operation_xyz
x,y,z
1/2-x,-y,1/2+z
1/2+x,1/2-y,1/2-z
-x,1/2+y,-z
-x,-y,-z
1/2+x,y,1/2-z
1/2-x,1/2+y,1/2+z
x,1/2-y,z
loop_
_atom_site_type_symbol
_atom_site_label
_atom_site_fract_x
_atom_site_fract_y
_atom_site_fract_z
Si Si1 0.819865 0.322733 0.176135
Si Si2 0.593089 0.002985 0.250175
Si Si3 0.744928 0.417638 0.972167
Si Si4 0.972483 0.250000 0.549114
Si Si5 0.848521 0.825848 0.194647
O O1 0.846694 0.379516 0.102296
O O2 0.650731 0.381509 0.806286
O O3 0.924361 0.292347 0.331615
O O4 0.029318 0.293465 0.748650
O O5 0.689663 0.957542 0.282467
O O6 0.500000 0.000000 0.500000
O O7 0.673573 0.052279 0.202633
O O8 0.500000 0.000000 0.000000
O O9 0.703468 0.323135 0.393906
O O10 0.259320 0.302702 0.601877
#
# Coordination Sequence:
#
# PCOD9467248 Si02
#       5
#     8   8   8   4   8
#     4  10  26  46  71 108 153 195 248 324 381 466
#     4  12  28  45  80 111 152 215 261 319 403 478
#     4  10  28  49  74 110 167 185 268 332 386 459
#     4  12  24  48  80 106 148 202 256 302 410 468
#     4  10  26  44  73 106 150 195 246 320 381 467
#
# _framework density 25.428996999999999
#
# number of rings (size 3 to 8) (size 9 to 14) (size 15 to 20)
#    1.333    0.000    0.000    2.667   12.444    3.556 
#    0.000    0.000    0.000    0.000    0.000    0.000 
#    0.000    0.000    0.000    0.000    0.000    0.000 
#
# Total GULP energy -200446.085309 kJ/mol
# GULP energy per Si atom -5567.946814 kJ/mol
# Density = 2.537112 g / cm^3
# Si number density = 25.428997 Si / 1000 Ang^3
#
#
#
# Elastic Constant Matrix: (Units=GPa)
#
#
# Indices 1 2 3 4 5 6 
#
# 1 45.7488 41.0796 36.7654 0.0000 0.0000 0.0000
# 2 41.0796 190.5114 10.3716 0.0000 0.0000 0.0000
# 3 36.7654 10.3716 104.1036 0.0000 0.0000 0.0000
# 4 0.0000 0.0000 0.0000 402.3970 0.0000 0.0000
# 5 0.0000 0.0000 0.0000 0.0000 67.5830 0.0000
# 6 0.0000 0.0000 0.0000 0.0000 0.0000 38.0348
#
#
#
# Elastic Compliance Matrix: (Units=1/GPa)
#
#
# Indices 1 2 3 4 5 6 
#
# 1 0.039408 -0.007782 -0.013142 0.000000 0.000000 0.000000
# 2 -0.007782 0.006814 0.002069 0.000000 0.000000 0.000000
# 3 -0.013142 0.002069 0.014041 0.000000 0.000000 0.000000
# 4 0.000000 0.000000 0.000000 0.002485 0.000000 0.000000
# 5 0.000000 0.000000 0.000000 0.000000 0.014797 0.000000
# 6 0.000000 0.000000 0.000000 0.000000 0.000000 0.026292
#
#
# Mechanical properties :
#
#
# Convention : Reuss Voigt Hill
#
# Bulk Modulus (GPa) = 44.33838 57.42187 50.88012
# Shear Modulus (GPa) = 33.54285 118.41277 75.97781
#
# Velocity S-wave (km/s) = 3.63585 6.83133 5.47205
# Velocity P-wave (km/s) = 5.92452 9.21158 7.74445
#
# Compressibility (1/GPa) = 0.02255382
#
# Stress axis : x y z
#
# Youngs Moduli (GPa) = 25.37588 146.74872 71.22059
#
# Poissons Ratio (x) = 1.14198 0.93598
# Poissons Ratio (y) = 0.19747 -0.14738
# Poissons Ratio (z) = 0.33349 -0.30368
#
# Static dielectric constant tensor:
#      x y z
#    x 1.919310 0.000000 0.000000 
#    y 0.000000 1.940000 0.000000 
#    z 0.000000 0.000000 1.964100 
# 
# From -- ./inp_files/524.got.cif
#   From: 2010.05.17/outbox.cif.g08.bks.cpg/sg62_1_cif.got.tgz:524.got - 2010.06.03 15:25:27.
