data_PCOD9467699
_publ_section_title
;
Structure prediction by ZEFSAII (Michael W. Deem and Ramdas Pophale) SiO2 
 PCOD9467699
Probable space group: P N M A
;
_chemical_formula_sum "Si O2"
_cell_formula_units_Z 24
_cell_length_a 8.487010
_cell_length_b 17.542323
_cell_length_c 6.994325
_cell_angle_alpha 90.000000
_cell_angle_beta 90.000000
_cell_angle_gamma 90.000000
_cell_volume 1041.328190
_symmetry_space_group_name_H-M "P N M A"
_symmetry_group_IT_number 62
_symmetry_cell_setting 'orthorhombic'
loop_
_space_group_symop_operation_xyz
x,y,z
1/2-x,-y,1/2+z
1/2+x,1/2-y,1/2-z
-x,1/2+y,-z
-x,-y,-z
1/2+x,y,1/2-z
1/2-x,1/2+y,1/2+z
x,1/2-y,z
loop_
_atom_site_type_symbol
_atom_site_label
_atom_site_fract_x
_atom_site_fract_y
_atom_site_fract_z
Si Si1 0.358624 0.088836 0.979567
Si Si2 0.643574 0.550876 0.581992
Si Si3 0.674609 0.339129 0.818661
O O1 0.292773 0.007057 0.910662
O O2 0.223852 0.145748 0.900766
O O3 0.517961 0.117156 0.882176
O O4 0.618653 0.917754 0.794484
O O5 0.500000 0.500000 0.500000
O O6 0.690125 0.620323 0.444850
O O7 0.660001 0.250000 0.855992
#
# Coordination Sequence:
#
# PCOD9467699 Si02
#       3
#     8   8   8
#     4  12  26  47  78 110 151 204 260 313 387 464
#     4  12  26  47  83 113 146 203 267 321 382 470
#     4  12  28  47  72 113 158 197 252 329 392 457
#
# _framework density 23.047488999999999
#
# number of rings (size 3 to 8) (size 9 to 14) (size 15 to 20)
#    0.000    0.000    3.333    6.000    0.000    2.667 
#    0.000    1.667    0.000    0.000    0.000    0.000 
#    0.000    0.000    0.000    0.000    0.000    0.000 
#
# Total GULP energy -134448.446934 kJ/mol
# GULP energy per Si atom -5602.018622 kJ/mol
# Density = 2.299503 g / cm^3
# Si number density = 23.047489 Si / 1000 Ang^3
#
#
#
# Elastic Constant Matrix: (Units=GPa)
#
#
# Indices 1 2 3 4 5 6 
#
# 1 139.9080 86.6264 93.6245 0.0000 0.0000 0.0000
# 2 86.6264 130.1551 59.0878 0.0000 0.0000 0.0000
# 3 93.6245 59.0878 190.3142 0.0000 0.0000 0.0000
# 4 0.0000 0.0000 0.0000 32.5624 0.0000 0.0000
# 5 0.0000 0.0000 0.0000 0.0000 28.5019 0.0000
# 6 0.0000 0.0000 0.0000 0.0000 0.0000 8.3082
#
#
#
# Elastic Compliance Matrix: (Units=1/GPa)
#
#
# Indices 1 2 3 4 5 6 
#
# 1 0.015572 -0.008016 -0.005172 0.000000 0.000000 0.000000
# 2 -0.008016 0.013070 -0.000115 0.000000 0.000000 0.000000
# 3 -0.005172 -0.000115 0.007834 0.000000 0.000000 0.000000
# 4 0.000000 0.000000 0.000000 0.030710 0.000000 0.000000
# 5 0.000000 0.000000 0.000000 0.000000 0.035085 0.000000
# 6 0.000000 0.000000 0.000000 0.000000 0.000000 0.120363
#
#
# Mechanical properties :
#
#
# Convention : Reuss Voigt Hill
#
# Bulk Modulus (GPa) = 101.29971 104.33941 102.81956
# Shear Modulus (GPa) = 19.79962 28.61040 24.20501
#
# Velocity S-wave (km/s) = 2.93418 3.52713 3.24423
# Velocity P-wave (km/s) = 7.45166 7.87129 7.66435
#
# Compressibility (1/GPa) = 0.00987170
#
# Stress axis : x y z
#
# Youngs Moduli (GPa) = 64.21936 76.50909 127.64556
#
# Poissons Ratio (x) = 0.61330 0.66014
# Poissons Ratio (y) = 0.51479 0.01462
# Poissons Ratio (z) = 0.33212 0.00876
#
# Static dielectric constant tensor:
#      x y z
#    x 1.951070 0.000000 0.000000 
#    y 0.000000 1.828230 0.000000 
#    z 0.000000 0.000000 1.904900 
# 
# From -- ./inp_files/337.got.cif
#   From: 2010.05.17/outbox.cif.g08.bks.cpg/sg62_1_cif.got.tgz:337.got - 2010.06.03 15:25:27.
