data_PCOD9467559
_publ_section_title
;
Structure prediction by ZEFSAII (Michael W. Deem and Ramdas Pophale) SiO2 
 PCOD9467559
Probable space group: P N M A
;
_chemical_formula_sum "Si O2"
_cell_formula_units_Z 40
_cell_length_a 11.719731
_cell_length_b 27.122902
_cell_length_c 5.408636
_cell_angle_alpha 90.000000
_cell_angle_beta 90.000000
_cell_angle_gamma 90.000000
_cell_volume 1719.259975
_symmetry_space_group_name_H-M "P N M A"
_symmetry_group_IT_number 62
_symmetry_cell_setting 'orthorhombic'
loop_
_space_group_symop_operation_xyz
x,y,z
1/2-x,-y,1/2+z
1/2+x,1/2-y,1/2-z
-x,1/2+y,-z
-x,-y,-z
1/2+x,y,1/2-z
1/2-x,1/2+y,1/2+z
x,1/2-y,z
loop_
_atom_site_type_symbol
_atom_site_label
_atom_site_fract_x
_atom_site_fract_y
_atom_site_fract_z
Si Si1 0.140200 0.115124 0.449668
Si Si2 0.322949 0.194451 0.314940
Si Si3 0.414889 0.530157 0.673028
Si Si4 0.710126 0.938394 0.174682
Si Si5 0.064421 0.839851 0.323072
O O1 0.220125 0.154490 0.311822
O O2 0.048989 0.081365 0.300184
O O3 0.223371 0.074213 0.570500
O O4 0.068171 0.145182 0.653712
O O5 0.277252 0.250000 0.334908
O O6 0.398008 0.183203 0.561492
O O7 0.398083 0.190430 0.066069
O O8 0.500000 0.500000 0.500000
O O9 0.308776 0.550684 0.517556
O O10 0.369776 0.485866 0.840757
O O11 0.635993 0.889944 0.147745
#
# Coordination Sequence:
#
# PCOD9467559 Si02
#       5
#     8   8   8   8   8
#     4  11  26  44  69 101 143 186 234 297 357 426
#     4  11  26  49  73 102 137 179 238 301 361 426
#     4  12  25  39  70 102 144 193 238 285 355 430
#     4  11  24  43  63 104 141 186 233 289 344 426
#     4  11  26  45  73 103 139 182 232 292 358 422
#
# _framework density 23.265825
#
# number of rings (size 3 to 8) (size 9 to 14) (size 15 to 20)
#    0.000    0.800    4.000    1.800   11.200    3.200 
#    0.000    0.000    0.000    0.000    0.000    0.000 
#    0.000    0.000    0.000    0.000    0.000    0.000 
#
# Total GULP energy -223433.318340 kJ/mol
# GULP energy per Si atom -5585.832958 kJ/mol
# Density = 2.321287 g / cm^3
# Si number density = 23.265825 Si / 1000 Ang^3
#
#
#
# Elastic Constant Matrix: (Units=GPa)
#
#
# Indices 1 2 3 4 5 6 
#
# 1 42.8296 1.3567 11.5882 0.0000 0.0000 0.0000
# 2 1.3567 135.6962 35.4416 0.0000 0.0000 0.0000
# 3 11.5882 35.4416 91.3074 0.0000 0.0000 0.0000
# 4 0.0000 0.0000 0.0000 28.2899 0.0000 0.0000
# 5 0.0000 0.0000 0.0000 0.0000 37.3026 0.0000
# 6 0.0000 0.0000 0.0000 0.0000 0.0000 5.3082
#
#
#
# Elastic Compliance Matrix: (Units=1/GPa)
#
#
# Indices 1 2 3 4 5 6 
#
# 1 0.024226 0.000624 -0.003317 0.000000 0.000000 0.000000
# 2 0.000624 0.008217 -0.003269 0.000000 0.000000 0.000000
# 3 -0.003317 -0.003269 0.012642 0.000000 0.000000 0.000000
# 4 0.000000 0.000000 0.000000 0.035348 0.000000 0.000000
# 5 0.000000 0.000000 0.000000 0.000000 0.026808 0.000000
# 6 0.000000 0.000000 0.000000 0.000000 0.000000 0.188389
#
#
# Mechanical properties :
#
#
# Convention : Reuss Voigt Hill
#
# Bulk Modulus (GPa) = 30.15518 40.73399 35.44459
# Shear Modulus (GPa) = 15.69334 28.94325 22.31829
#
# Velocity S-wave (km/s) = 2.59998 3.53090 3.10057
# Velocity P-wave (km/s) = 4.69068 5.84543 5.29960
#
# Compressibility (1/GPa) = 0.03316179
#
# Stress axis : x y z
#
# Youngs Moduli (GPa) = 41.27797 121.70069 79.10322
#
# Poissons Ratio (x) = -0.07595 0.26237
# Poissons Ratio (y) = -0.02576 0.25856
# Poissons Ratio (z) = 0.13691 0.39780
#
# Static dielectric constant tensor:
#      x y z
#    x 1.994080 0.000000 0.000000 
#    y 0.000000 1.851120 0.000000 
#    z 0.000000 0.000000 2.017830 
# 
# From -- ./inp_files/588.got.cif
#   From: 2010.05.17/outbox.cif.g08.bks.cpg/sg62_1_cif.got.tgz:588.got - 2010.06.03 15:25:27.
