data_PCOD9467393
_publ_section_title
;
Structure prediction by ZEFSAII (Michael W. Deem and Ramdas Pophale) SiO2 
 PCOD9467393
Probable space group: P N M A
;
_chemical_formula_sum "Si O2"
_cell_formula_units_Z 44
_cell_length_a 9.740104
_cell_length_b 13.454383
_cell_length_c 16.626154
_cell_angle_alpha 90.000000
_cell_angle_beta 90.000000
_cell_angle_gamma 90.000000
_cell_volume 2178.809094
_symmetry_space_group_name_H-M "P N M A"
_symmetry_group_IT_number 62
_symmetry_cell_setting 'orthorhombic'
loop_
_space_group_symop_operation_xyz
x,y,z
1/2-x,-y,1/2+z
1/2+x,1/2-y,1/2-z
-x,1/2+y,-z
-x,-y,-z
1/2+x,y,1/2-z
1/2-x,1/2+y,1/2+z
x,1/2-y,z
loop_
_atom_site_type_symbol
_atom_site_label
_atom_site_fract_x
_atom_site_fract_y
_atom_site_fract_z
Si Si1 0.845074 0.750000 0.626662
Si Si2 0.002711 0.750000 0.155641
Si Si3 0.225002 0.415988 0.244854
Si Si4 0.520909 0.042210 0.744022
Si Si5 0.997016 0.417681 0.570556
Si Si6 0.230500 0.750000 0.452478
Si Si7 0.775417 0.750000 0.451935
Si Si8 0.334405 0.250000 0.127109
O O1 0.816792 0.844994 0.681932
O O2 0.752429 0.750000 0.547668
O O3 0.005625 0.750000 0.602107
O O4 0.000586 0.847800 0.210986
O O5 0.866511 0.750000 0.100652
O O6 0.139005 0.750000 0.100916
O O7 0.327731 0.501862 0.272806
O O8 0.301889 0.345812 0.181051
O O9 0.090852 0.466932 0.207861
O O10 0.498548 0.038405 0.840009
O O11 0.130411 0.346474 0.565083
O O12 0.000000 0.500000 0.500000
O O13 0.864371 0.346565 0.563264
O O14 0.257611 0.750000 0.547803
#
# Coordination Sequence:
#
# PCOD9467393 Si02
#       8
#     4   4   8   8   8   4   4   4
#     4  11  21  45  70  96 130 162 215 276 341 397
#     4  12  28  44  58  94 144 186 214 272 332 384
#     4  11  24  39  72 100 124 169 210 277 338 404
#     4  12  24  43  63  96 137 171 223 265 324 391
#     4  11  22  41  72  96 120 173 227 268 316 399
#     4  11  24  43  66  93 129 174 226 266 327 388
#     4  11  24  43  66  93 129 174 226 266 327 388
#     4  11  21  45  70  96 130 162 215 276 341 397
#
# _framework density 20.194520000000001
#
# number of rings (size 3 to 8) (size 9 to 14) (size 15 to 20)
#    0.000    0.727    3.636    5.455    0.000    3.636 
#    0.000    2.727    0.000    0.000    0.000    0.000 
#    0.000    0.000    0.000    0.000    0.000    0.000 
#
# Total GULP energy -246183.798278 kJ/mol
# GULP energy per Si atom -5595.086324 kJ/mol
# Density = 2.014856 g / cm^3
# Si number density = 20.194520 Si / 1000 Ang^3
#
#
#
# Elastic Constant Matrix: (Units=GPa)
#
#
# Indices 1 2 3 4 5 6 
#
# 1 91.0371 23.9527 39.7814 0.0000 0.0000 0.0000
# 2 23.9527 101.6274 55.0133 0.0000 0.0000 0.0000
# 3 39.7814 55.0133 100.5731 0.0000 0.0000 0.0000
# 4 0.0000 0.0000 0.0000 0.7995 0.0000 0.0000
# 5 0.0000 0.0000 0.0000 0.0000 27.4485 0.0000
# 6 0.0000 0.0000 0.0000 0.0000 0.0000 -12.1993
#
#
#
# Elastic Compliance Matrix: (Units=1/GPa)
#
#
# Indices 1 2 3 4 5 6 
#
# 1 0.013292 -0.000407 -0.005035 0.000000 0.000000 0.000000
# 2 -0.000407 0.013992 -0.007492 0.000000 0.000000 0.000000
# 3 -0.005035 -0.007492 0.016033 0.000000 0.000000 0.000000
# 4 0.000000 0.000000 0.000000 1.250762 0.000000 0.000000
# 5 0.000000 0.000000 0.000000 0.000000 0.036432 0.000000
# 6 0.000000 0.000000 0.000000 0.000000 0.000000 -0.081972
#
#
# Mechanical properties :
#
#
# Convention : Reuss Voigt Hill
#
# Bulk Modulus (GPa) = 57.31483 58.97026 58.14254
# Shear Modulus (GPa) = 3.90557 14.84242 9.37399
#
# Velocity S-wave (km/s) = 1.39218 2.71398 2.15683
# Velocity P-wave (km/s) = 5.57021 6.25183 5.92084
#
# Compressibility (1/GPa) = 0.01744749
#
# Stress axis : x y z
#
# Youngs Moduli (GPa) = 75.23451 71.47133 62.37237
#
# Poissons Ratio (x) = 0.02911 0.31403
# Poissons Ratio (y) = 0.03065 0.46731
# Poissons Ratio (z) = 0.37878 0.53548
#
# Static dielectric constant tensor:
#      x y z
#    x 1.694850 0.000000 0.000000 
#    y 0.000000 1.685530 0.000000 
#    z 0.000000 0.000000 1.707020 
# 
# From -- ./inp_files/22168.got.cif
#   From: 2010.05.17/outbox.cif.g08.bks.cpg/sg62_12_cif.got.tgz:22168.got - 2010.06.03 15:25:27.
