data_PCOD9467216
_publ_section_title
;
Structure prediction by ZEFSAII (Michael W. Deem and Ramdas Pophale) SiO2 
 PCOD9467216
Probable space group: P N M A
;
_chemical_formula_sum "Si O2"
_cell_formula_units_Z 40
_cell_length_a 7.939356
_cell_length_b 14.046408
_cell_length_c 16.240740
_cell_angle_alpha 90.000000
_cell_angle_beta 90.000000
_cell_angle_gamma 90.000000
_cell_volume 1811.158127
_symmetry_space_group_name_H-M "P N M A"
_symmetry_group_IT_number 62
_symmetry_cell_setting 'orthorhombic'
loop_
_space_group_symop_operation_xyz
x,y,z
1/2-x,-y,1/2+z
1/2+x,1/2-y,1/2-z
-x,1/2+y,-z
-x,-y,-z
1/2+x,y,1/2-z
1/2-x,1/2+y,1/2+z
x,1/2-y,z
loop_
_atom_site_type_symbol
_atom_site_label
_atom_site_fract_x
_atom_site_fract_y
_atom_site_fract_z
Si Si1 0.038815 0.548766 0.913838
Si Si2 0.725625 0.860449 0.834730
Si Si3 0.790905 0.960592 0.223534
Si Si4 0.402572 0.635868 0.947558
Si Si5 0.978758 0.863664 0.364701
O O1 0.053490 0.472442 0.839765
O O2 0.891111 0.621508 0.889907
O O3 0.223701 0.594190 0.921297
O O4 0.000000 0.500000 0.000000
O O5 0.715941 0.750000 0.809451
O O6 0.737698 0.933529 0.759448
O O7 0.558672 0.886124 0.887143
O O8 0.642016 0.916067 0.170740
O O9 0.833922 0.895253 0.301537
O O10 0.388353 0.750000 0.947539
O O11 0.443262 0.606520 0.041445
O O12 0.000949 0.750000 0.363363
#
# Coordination Sequence:
#
# PCOD9467216 Si02
#       5
#     8   8   8   8   8
#     4  12  25  44  71 103 143 187 239 291 352 426
#     4  11  25  46  72 107 148 189 237 293 358 428
#     4  12  24  44  67 105 142 184 232 294 357 416
#     4  10  24  46  72 101 140 188 235 288 350 424
#     4  11  24  45  70 100 137 182 236 294 356 421
#
# _framework density 22.085315999999999
#
# number of rings (size 3 to 8) (size 9 to 14) (size 15 to 20)
#    0.000    0.800    2.000    4.800    0.000    4.000 
#    0.000    2.000    0.000    0.000    0.000    0.000 
#    0.000    0.000    0.000    0.000    0.000    0.000 
#
# Total GULP energy -224029.951230 kJ/mol
# GULP energy per Si atom -5600.748781 kJ/mol
# Density = 2.203505 g / cm^3
# Si number density = 22.085316 Si / 1000 Ang^3
#
#
#
# Elastic Constant Matrix: (Units=GPa)
#
#
# Indices 1 2 3 4 5 6 
#
# 1 159.9751 42.5157 53.2083 0.0000 0.0000 0.0000
# 2 42.5157 117.7399 56.0256 0.0000 0.0000 0.0000
# 3 53.2083 56.0256 145.8014 0.0000 0.0000 0.0000
# 4 0.0000 0.0000 0.0000 39.0430 0.0000 0.0000
# 5 0.0000 0.0000 0.0000 0.0000 44.3692 0.0000
# 6 0.0000 0.0000 0.0000 0.0000 0.0000 40.2739
#
#
#
# Elastic Compliance Matrix: (Units=1/GPa)
#
#
# Indices 1 2 3 4 5 6 
#
# 1 0.007380 -0.001693 -0.002043 0.000000 0.000000 0.000000
# 2 -0.001693 0.010782 -0.003525 0.000000 0.000000 0.000000
# 3 -0.002043 -0.003525 0.008959 0.000000 0.000000 0.000000
# 4 0.000000 0.000000 0.000000 0.025613 0.000000 0.000000
# 5 0.000000 0.000000 0.000000 0.000000 0.022538 0.000000
# 6 0.000000 0.000000 0.000000 0.000000 0.000000 0.024830
#
#
# Mechanical properties :
#
#
# Convention : Reuss Voigt Hill
#
# Bulk Modulus (GPa) = 79.37107 80.77951 80.07529
# Shear Modulus (GPa) = 42.07903 42.85501 42.46702
#
# Velocity S-wave (km/s) = 4.36970 4.40981 4.38980
# Velocity P-wave (km/s) = 7.84063 7.91101 7.87590
#
# Compressibility (1/GPa) = 0.01259905
#
# Stress axis : x y z
#
# Youngs Moduli (GPa) = 135.49477 92.74618 111.62235
#
# Poissons Ratio (x) = 0.15702 0.22802
# Poissons Ratio (y) = 0.22939 0.39350
# Poissons Ratio (z) = 0.27679 0.32696
#
# Static dielectric constant tensor:
#      x y z
#    x 1.827840 0.000000 0.000000 
#    y 0.000000 1.790220 0.000000 
#    z 0.000000 0.000000 1.804700 
# 
# From -- ./inp_files/16682.got.cif
#   From: 2010.05.17/outbox.cif.g08.bks.cpg/sg62_9_cif.got.tgz:16682.got - 2010.06.03 15:25:27.
