data_PCOD9467374
_publ_section_title
;
Structure prediction by ZEFSAII (Michael W. Deem and Ramdas Pophale) SiO2 
 PCOD9467374
Probable space group: P N M A
;
_chemical_formula_sum "Si O2"
_cell_formula_units_Z 40
_cell_length_a 23.805652
_cell_length_b 10.211909
_cell_length_c 8.587191
_cell_angle_alpha 90.000000
_cell_angle_beta 90.000000
_cell_angle_gamma 90.000000
_cell_volume 2087.556024
_symmetry_space_group_name_H-M "P N M A"
_symmetry_group_IT_number 62
_symmetry_cell_setting 'orthorhombic'
loop_
_space_group_symop_operation_xyz
x,y,z
1/2-x,-y,1/2+z
1/2+x,1/2-y,1/2-z
-x,1/2+y,-z
-x,-y,-z
1/2+x,y,1/2-z
1/2-x,1/2+y,1/2+z
x,1/2-y,z
loop_
_atom_site_type_symbol
_atom_site_label
_atom_site_fract_x
_atom_site_fract_y
_atom_site_fract_z
Si Si1 0.812741 0.250000 0.806646
Si Si2 0.812257 0.250000 0.184628
Si Si3 0.179992 0.250000 0.685957
Si Si4 0.882474 0.506626 0.815361
Si Si5 0.498724 0.911471 0.844408
Si Si6 0.115236 0.995968 0.810948
Si Si7 0.314873 0.750000 0.810981
O O1 0.746250 0.250000 0.760062
O O2 0.849874 0.375867 0.760332
O O3 0.811498 0.250000 0.995770
O O4 0.844441 0.377769 0.237573
O O5 0.749216 0.250000 0.239249
O O6 0.144425 0.125768 0.744889
O O7 0.180813 0.250000 0.498181
O O8 0.943454 0.538585 0.745871
O O9 0.844184 0.624378 0.758889
O O10 0.886779 0.503394 0.002043
O O11 0.497365 0.750000 0.864392
O O12 0.554107 0.956427 0.751258
O O13 0.500000 0.000000 0.000000
#
# Coordination Sequence:
#
# PCOD9467374 Si02
#       7
#     4   4   4   8   8   8   4
#     4   9  22  40  65  98 129 168 214 265 320 389
#     4   9  20  40  65  92 131 168 216 265 320 385
#     4  11  23  40  65  98 135 168 214 263 324 387
#     4  11  23  43  67  94 130 170 219 267 321 385
#     4  12  27  46  67  97 132 170 217 272 332 393
#     4  11  23  43  67  95 128 173 218 267 321 386
#     4  11  21  40  63  96 133 172 210 269 322 383
#
# _framework density 19.161161
#
# number of rings (size 3 to 8) (size 9 to 14) (size 15 to 20)
#    0.000    1.200    2.000    3.600    2.800    0.000 
#    0.000    6.000    0.000    0.000    0.000    0.000 
#    0.000    0.000    0.000    0.000    0.000    0.000 
#
# Total GULP energy -223300.297463 kJ/mol
# GULP energy per Si atom -5582.507437 kJ/mol
# Density = 1.911755 g / cm^3
# Si number density = 19.161161 Si / 1000 Ang^3
#
#
#
# Elastic Constant Matrix: (Units=GPa)
#
#
# Indices 1 2 3 4 5 6 
#
# 1 233.3636 119.3316 60.8922 0.0000 0.0000 0.0000
# 2 119.3316 227.1934 58.2628 0.0000 0.0000 0.0000
# 3 60.8922 58.2628 84.4206 0.0000 0.0000 0.0000
# 4 0.0000 0.0000 0.0000 2.2358 0.0000 0.0000
# 5 0.0000 0.0000 0.0000 0.0000 28.4178 0.0000
# 6 0.0000 0.0000 0.0000 0.0000 0.0000 21.4994
#
#
#
# Elastic Compliance Matrix: (Units=1/GPa)
#
#
# Indices 1 2 3 4 5 6 
#
# 1 0.006350 -0.002625 -0.002768 0.000000 0.000000 0.000000
# 2 -0.002625 0.006434 -0.002546 0.000000 0.000000 0.000000
# 3 -0.002768 -0.002546 0.015600 0.000000 0.000000 0.000000
# 4 0.000000 0.000000 0.000000 0.447265 0.000000 0.000000
# 5 0.000000 0.000000 0.000000 0.000000 0.035189 0.000000
# 6 0.000000 0.000000 0.000000 0.000000 0.000000 0.046513
#
#
# Mechanical properties :
#
#
# Convention : Reuss Voigt Hill
#
# Bulk Modulus (GPa) = 79.98133 113.55011 96.76572
# Shear Modulus (GPa) = 8.65954 30.86332 19.76143
#
# Velocity S-wave (km/s) = 2.12817 4.01774 3.21491
# Velocity P-wave (km/s) = 6.91887 8.99512 8.02443
#
# Compressibility (1/GPa) = 0.01250292
#
# Stress axis : x y z
#
# Youngs Moduli (GPa) = 157.48033 155.43626 64.10404
#
# Poissons Ratio (x) = 0.40808 0.17746
# Poissons Ratio (y) = 0.41344 0.16324
# Poissons Ratio (z) = 0.43596 0.39581
#
# Static dielectric constant tensor:
#      x y z
#    x 1.688410 0.000000 0.000000 
#    y 0.000000 1.674480 0.000000 
#    z 0.000000 0.000000 1.665200 
# 
# From -- ./inp_files/9149.got.cif
#   From: 2010.05.17/outbox.cif.g08.bks.cpg/sg62_5_cif.got.tgz:9149.got - 2010.06.03 15:25:27.
