data_PCOD9467378
_publ_section_title
;
Structure prediction by ZEFSAII (Michael W. Deem and Ramdas Pophale) SiO2 
 PCOD9467378
Probable space group: P N M A
;
_chemical_formula_sum "Si O2"
_cell_formula_units_Z 48
_cell_length_a 13.487914
_cell_length_b 19.659581
_cell_length_c 9.186964
_cell_angle_alpha 90.000000
_cell_angle_beta 90.000000
_cell_angle_gamma 90.000000
_cell_volume 2436.077274
_symmetry_space_group_name_H-M "P N M A"
_symmetry_group_IT_number 62
_symmetry_cell_setting 'orthorhombic'
loop_
_space_group_symop_operation_xyz
x,y,z
1/2-x,-y,1/2+z
1/2+x,1/2-y,1/2-z
-x,1/2+y,-z
-x,-y,-z
1/2+x,y,1/2-z
1/2-x,1/2+y,1/2+z
x,1/2-y,z
loop_
_atom_site_type_symbol
_atom_site_label
_atom_site_fract_x
_atom_site_fract_y
_atom_site_fract_z
Si Si1 0.575759 0.918169 0.226197
Si Si2 0.372324 0.925999 0.057588
Si Si3 0.194046 0.922079 0.557198
Si Si4 0.402480 0.929899 0.708206
Si Si5 0.419063 0.171256 0.276411
Si Si6 0.191340 0.827479 0.075002
O O1 0.477100 0.909532 0.130927
O O2 0.599308 0.858408 0.336783
O O3 0.568805 0.990678 0.307900
O O4 0.668054 0.919646 0.113036
O O5 0.286167 0.874530 0.100651
O O6 0.343734 0.002790 0.103244
O O7 0.380429 0.923855 0.881855
O O8 0.306929 0.916147 0.608734
O O9 0.130761 0.864265 0.637544
O O10 0.488834 0.876071 0.678569
O O11 0.447474 0.250000 0.250770
O O12 0.338996 0.169914 0.405904
O O13 0.210679 0.750000 0.116605
#
# Coordination Sequence:
#
# PCOD9467378 Si02
#       6
#     8   8   8   8   8   8
#     4  11  23  41  66  98 126 165 215 266 315 381
#     4  11  21  41  69  94 125 167 210 262 325 373
#     4  11  21  40  68  96 121 161 218 263 306 379
#     4  11  21  40  69  96 124 165 217 262 311 378
#     4  11  24  42  63  94 130 166 212 263 315 378
#     4  11  26  43  61  94 134 167 206 264 330 379
#
# _framework density 19.703807999999999
#
# number of rings (size 3 to 8) (size 9 to 14) (size 15 to 20)
#    0.000    1.000    6.667    1.000    0.000    4.667 
#    0.000    1.667    0.000    0.000    0.000    0.000 
#    0.000    0.000    0.000    0.000    0.000    0.000 
#
# Total GULP energy -268179.865403 kJ/mol
# GULP energy per Si atom -5587.080529 kJ/mol
# Density = 1.965896 g / cm^3
# Si number density = 19.703808 Si / 1000 Ang^3
#
#
#
# Elastic Constant Matrix: (Units=GPa)
#
#
# Indices 1 2 3 4 5 6 
#
# 1 67.2417 10.6337 7.7240 0.0000 0.0000 0.0000
# 2 10.6337 95.7576 36.7933 0.0000 0.0000 0.0000
# 3 7.7240 36.7933 28.3298 0.0000 0.0000 0.0000
# 4 0.0000 0.0000 0.0000 24.1697 0.0000 0.0000
# 5 0.0000 0.0000 0.0000 0.0000 25.0852 0.0000
# 6 0.0000 0.0000 0.0000 0.0000 0.0000 28.5744
#
#
#
# Elastic Compliance Matrix: (Units=1/GPa)
#
#
# Indices 1 2 3 4 5 6 
#
# 1 0.015354 -0.000193 -0.003936 0.000000 0.000000 0.000000
# 2 -0.000193 0.020848 -0.027023 0.000000 0.000000 0.000000
# 3 -0.003936 -0.027023 0.071468 0.000000 0.000000 0.000000
# 4 0.000000 0.000000 0.000000 0.041374 0.000000 0.000000
# 5 0.000000 0.000000 0.000000 0.000000 0.039864 0.000000
# 6 0.000000 0.000000 0.000000 0.000000 0.000000 0.034996
#
#
# Mechanical properties :
#
#
# Convention : Reuss Voigt Hill
#
# Bulk Modulus (GPa) = 22.04292 33.51459 27.77876
# Shear Modulus (GPa) = 16.59303 24.64438 20.61871
#
# Velocity S-wave (km/s) = 2.90508 3.54042 3.23837
# Velocity P-wave (km/s) = 4.73963 5.81024 5.30203
#
# Compressibility (1/GPa) = 0.04536603
#
# Stress axis : x y z
#
# Youngs Moduli (GPa) = 65.12821 47.96679 13.99223
#
# Poissons Ratio (x) = 0.00925 0.05507
# Poissons Ratio (y) = 0.01255 0.37812
# Poissons Ratio (z) = 0.25634 1.29623
#
# Static dielectric constant tensor:
#      x y z
#    x 1.690090 0.000000 0.000000 
#    y 0.000000 1.672990 0.000000 
#    z 0.000000 0.000000 1.686990 
# 
# From -- ./inp_files/6424.got.cif
#   From: 2010.05.17/outbox.cif.g08.bks.cpg/sg62_4_cif.got.tgz:6424.got - 2010.06.03 15:25:27.
