data_PCOD9467150
_publ_section_title
;
Structure prediction by ZEFSAII (Michael W. Deem and Ramdas Pophale) SiO2 
 PCOD9467150
Probable space group: P N M A
;
_chemical_formula_sum "Si O2"
_cell_formula_units_Z 64
_cell_length_a 17.683525
_cell_length_b 15.547802
_cell_length_c 10.064779
_cell_angle_alpha 90.000000
_cell_angle_beta 90.000000
_cell_angle_gamma 90.000000
_cell_volume 2767.209788
_symmetry_space_group_name_H-M "P N M A"
_symmetry_group_IT_number 62
_symmetry_cell_setting 'orthorhombic'
loop_
_space_group_symop_operation_xyz
x,y,z
1/2-x,-y,1/2+z
1/2+x,1/2-y,1/2-z
-x,1/2+y,-z
-x,-y,-z
1/2+x,y,1/2-z
1/2-x,1/2+y,1/2+z
x,1/2-y,z
loop_
_atom_site_type_symbol
_atom_site_label
_atom_site_fract_x
_atom_site_fract_y
_atom_site_fract_z
Si Si1 0.092157 0.150069 0.325233
Si Si2 0.158296 0.409960 0.058070
Si Si3 0.926416 0.402976 0.260111
Si Si4 0.382447 0.649287 0.121982
Si Si5 0.175565 0.649527 0.507560
Si Si6 0.232310 0.653319 0.240180
Si Si7 0.633044 0.895499 0.489191
Si Si8 0.470218 0.908281 0.350194
O O1 0.116205 0.250000 0.314917
O O2 0.131670 0.096796 0.209307
O O3 0.108023 0.115699 0.473417
O O4 0.002782 0.145476 0.297881
O O5 0.236197 0.359706 0.044942
O O6 0.168189 0.508735 0.014752
O O7 0.090923 0.378328 0.960837
O O8 0.874927 0.404793 0.390833
O O9 0.952673 0.494090 0.196598
O O10 0.879376 0.362998 0.138026
O O11 0.364823 0.750000 0.106230
O O12 0.312575 0.609893 0.206456
O O13 0.456183 0.642121 0.213721
O O14 0.150941 0.750000 0.516023
O O15 0.178377 0.616440 0.354955
O O16 0.248486 0.750000 0.289611
O O17 0.188119 0.657451 0.103229
O O18 0.551531 0.900893 0.416969
#
# Coordination Sequence:
#
# PCOD9467150 Si02
#       8
#     8   8   8   8   8   8   8   8
#     4  11  23  41  65  94 131 167 210 268 326 381
#     4  11  22  43  66  92 125 169 216 263 318 387
#     4  11  24  43  63  99 132 165 212 272 325 382
#     4  10  24  42  64  93 128 170 219 267 318 386
#     4  11  25  42  64  94 131 170 215 263 322 391
#     4  10  24  45  63  92 131 169 214 265 319 385
#     4  11  24  42  67  94 130 166 215 271 322 387
#     4  11  22  45  68  92 127 172 218 263 320 387
#
# _framework density 23.127988999999999
#
# number of rings (size 3 to 8) (size 9 to 14) (size 15 to 20)
#    0.000    1.250    3.750    1.500    5.250    3.500 
#    0.000    0.000    0.000    0.000    0.000    0.000 
#    0.000    0.000    0.000    0.000    0.000    0.000 
#
# Total GULP energy -357623.462135 kJ/mol
# GULP energy per Si atom -5587.866596 kJ/mol
# Density = 2.307535 g / cm^3
# Si number density = 23.127989 Si / 1000 Ang^3
#
#
#
# Elastic Constant Matrix: (Units=GPa)
#
#
# Indices 1 2 3 4 5 6 
#
# 1 19.3806 3.2159 -7.6876 0.0000 0.0000 0.0000
# 2 3.2159 34.7554 6.6696 0.0000 0.0000 0.0000
# 3 -7.6876 6.6696 139.7123 0.0000 0.0000 0.0000
# 4 0.0000 0.0000 0.0000 28.6359 0.0000 0.0000
# 5 0.0000 0.0000 0.0000 0.0000 42.6710 0.0000
# 6 0.0000 0.0000 0.0000 0.0000 0.0000 10.6033
#
#
#
# Elastic Compliance Matrix: (Units=1/GPa)
#
#
# Indices 1 2 3 4 5 6 
#
# 1 0.053807 -0.005598 0.003228 0.000000 0.000000 0.000000
# 2 -0.005598 0.029621 -0.001722 0.000000 0.000000 0.000000
# 3 0.003228 -0.001722 0.007417 0.000000 0.000000 0.000000
# 4 0.000000 0.000000 0.000000 0.034921 0.000000 0.000000
# 5 0.000000 0.000000 0.000000 0.000000 0.023435 0.000000
# 6 0.000000 0.000000 0.000000 0.000000 0.000000 0.094310
#
#
# Mechanical properties :
#
#
# Convention : Reuss Voigt Hill
#
# Bulk Modulus (GPa) = 12.09760 22.02712 17.06236
# Shear Modulus (GPa) = 17.90505 29.15873 23.53189
#
# Velocity S-wave (km/s) = 2.78541 3.55456 3.19323
# Velocity P-wave (km/s) = 3.94801 5.13724 4.58138
#
# Compressibility (1/GPa) = 0.08266104
#
# Stress axis : x y z
#
# Youngs Moduli (GPa) = 18.58481 33.75988 134.81824
#
# Poissons Ratio (x) = 0.18900 -0.43519
# Poissons Ratio (y) = 0.10404 0.23217
# Poissons Ratio (z) = -0.05999 0.05814
#
# Static dielectric constant tensor:
#      x y z
#    x 1.854350 0.000000 0.000000 
#    y 0.000000 1.926720 0.000000 
#    z 0.000000 0.000000 1.894620 
# 
# From -- ./inp_files/8921.got.cif
#   From: 2010.05.17/outbox.cif.g08.bks.cpg/sg62_5_cif.got.tgz:8921.got - 2010.06.03 15:25:27.
