data_PCOD9467375
_publ_section_title
;
Structure prediction by ZEFSAII (Michael W. Deem and Ramdas Pophale) SiO2 
 PCOD9467375
Probable space group: P N M A
;
_chemical_formula_sum "Si O2"
_cell_formula_units_Z 40
_cell_length_a 7.835526
_cell_length_b 21.730541
_cell_length_c 9.357490
_cell_angle_alpha 90.000000
_cell_angle_beta 90.000000
_cell_angle_gamma 90.000000
_cell_volume 1593.301872
_symmetry_space_group_name_H-M "P N M A"
_symmetry_group_IT_number 62
_symmetry_cell_setting 'orthorhombic'
loop_
_space_group_symop_operation_xyz
x,y,z
1/2-x,-y,1/2+z
1/2+x,1/2-y,1/2-z
-x,1/2+y,-z
-x,-y,-z
1/2+x,y,1/2-z
1/2-x,1/2+y,1/2+z
x,1/2-y,z
loop_
_atom_site_type_symbol
_atom_site_label
_atom_site_fract_x
_atom_site_fract_y
_atom_site_fract_z
Si Si1 0.282942 0.750000 0.067612
Si Si2 0.771005 0.115628 0.969952
Si Si3 0.044973 0.425403 0.287869
Si Si4 0.192821 0.750000 0.402372
Si Si5 0.755791 0.879885 0.971551
Si Si6 0.963473 0.067110 0.709122
O O1 0.213435 0.687568 0.997978
O O2 0.221738 0.750000 0.232422
O O3 0.489489 0.750000 0.066381
O O4 0.915952 0.089175 0.866733
O O5 0.606762 0.108864 0.863569
O O6 0.712297 0.079001 0.109658
O O7 0.094778 0.403758 0.130551
O O8 0.985590 0.495950 0.293322
O O9 0.907809 0.382474 0.365009
O O10 0.273535 0.688389 0.467798
O O11 0.698037 0.923537 0.102451
#
# Coordination Sequence:
#
# PCOD9467375 Si02
#       6
#     4   8   8   4   8   8
#     4  12  20  45  67  95 125 159 219 266 302 378
#     4  11  22  38  68  92 123 171 211 264 319 365
#     4  11  23  41  62  94 135 165 209 260 320 379
#     4  12  24  45  71  91 131 161 221 262 318 374
#     4  11  24  42  63  94 129 173 206 263 318 373
#     4  11  21  40  64  95 127 169 214 259 311 380
#
# _framework density 25.105098000000002
#
# number of rings (size 3 to 8) (size 9 to 14) (size 15 to 20)
#    0.000    0.800    6.000    4.800    0.000    3.200 
#    3.600    4.000    0.000    0.000    0.000    0.000 
#    0.000    0.000    0.000    0.000    0.000    0.000 
#
# Total GULP energy -224289.949140 kJ/mol
# GULP energy per Si atom -5607.248729 kJ/mol
# Density = 2.504796 g / cm^3
# Si number density = 25.105098 Si / 1000 Ang^3
#
#
#
# Elastic Constant Matrix: (Units=GPa)
#
#
# Indices 1 2 3 4 5 6 
#
# 1 56.9396 -18.3182 -1.3546 0.0000 0.0000 0.0000
# 2 -18.3182 158.6362 10.3916 0.0000 0.0000 0.0000
# 3 -1.3546 10.3916 133.8186 0.0000 0.0000 0.0000
# 4 0.0000 0.0000 0.0000 30.6763 0.0000 0.0000
# 5 0.0000 0.0000 0.0000 0.0000 55.4003 0.0000
# 6 0.0000 0.0000 0.0000 0.0000 0.0000 23.7159
#
#
#
# Elastic Compliance Matrix: (Units=1/GPa)
#
#
# Indices 1 2 3 4 5 6 
#
# 1 0.018240 0.002105 0.000021 0.000000 0.000000 0.000000
# 2 0.002105 0.006579 -0.000490 0.000000 0.000000 0.000000
# 3 0.000021 -0.000490 0.007511 0.000000 0.000000 0.000000
# 4 0.000000 0.000000 0.000000 0.032598 0.000000 0.000000
# 5 0.000000 0.000000 0.000000 0.000000 0.018050 0.000000
# 6 0.000000 0.000000 0.000000 0.000000 0.000000 0.042166
#
#
# Mechanical properties :
#
#
# Convention : Reuss Voigt Hill
#
# Bulk Modulus (GPa) = 28.08753 36.75910 32.42331
# Shear Modulus (GPa) = 37.38612 45.87020 41.62816
#
# Velocity S-wave (km/s) = 3.86318 4.27913 4.07646
# Velocity P-wave (km/s) = 5.57774 6.25208 5.92451
#
# Compressibility (1/GPa) = 0.03560298
#
# Stress axis : x y z
#
# Youngs Moduli (GPa) = 54.82415 152.00211 133.13744
#
# Poissons Ratio (x) = -0.31994 -0.00282
# Poissons Ratio (y) = -0.11540 0.06518
# Poissons Ratio (z) = -0.00116 0.07442
#
# Static dielectric constant tensor:
#      x y z
#    x 2.200620 0.000000 0.000000 
#    y 0.000000 1.842630 0.000000 
#    z 0.000000 0.000000 1.960250 
# 
# From -- ./inp_files/4346.got.cif
#   From: 2010.05.17/outbox.cif.g08.bks.cpg/sg62_3_cif.got.tgz:4346.got - 2010.06.03 15:25:27.
