data_PCOD9467643
_publ_section_title
;
Structure prediction by ZEFSAII (Michael W. Deem and Ramdas Pophale) SiO2 
 PCOD9467643
Probable space group: P N M A
;
_chemical_formula_sum "Si O2"
_cell_formula_units_Z 48
_cell_length_a 10.885921
_cell_length_b 15.178007
_cell_length_c 15.291510
_cell_angle_alpha 90.000000
_cell_angle_beta 90.000000
_cell_angle_gamma 90.000000
_cell_volume 2526.563979
_symmetry_space_group_name_H-M "P N M A"
_symmetry_group_IT_number 62
_symmetry_cell_setting 'orthorhombic'
loop_
_space_group_symop_operation_xyz
x,y,z
1/2-x,-y,1/2+z
1/2+x,1/2-y,1/2-z
-x,1/2+y,-z
-x,-y,-z
1/2+x,y,1/2-z
1/2-x,1/2+y,1/2+z
x,1/2-y,z
loop_
_atom_site_type_symbol
_atom_site_label
_atom_site_fract_x
_atom_site_fract_y
_atom_site_fract_z
Si Si1 0.688647 0.250000 0.546396
Si Si2 0.596199 0.750000 0.919146
Si Si3 0.023390 0.750000 0.914631
Si Si4 0.529783 0.645917 0.198525
Si Si5 0.045725 0.400206 0.502198
Si Si6 0.686872 0.750000 0.729156
Si Si7 0.308835 0.911597 0.323007
Si Si8 0.791270 0.103984 0.097188
O O1 0.822481 0.250000 0.505996
O O2 0.602776 0.250000 0.462307
O O3 0.671504 0.335666 0.605129
O O4 0.676313 0.750000 0.831704
O O5 0.517287 0.661553 0.929142
O O6 0.045239 0.750000 0.809781
O O7 0.096139 0.661171 0.940701
O O8 0.538134 0.750000 0.220244
O O9 0.487917 0.635647 0.097713
O O10 0.667032 0.604053 0.209896
O O11 0.419250 0.601916 0.253949
O O12 0.187747 0.398737 0.476301
O O13 0.000000 0.500000 0.500000
O O14 0.744548 0.835206 0.681649
O O15 0.317515 0.007150 0.367465
#
# Coordination Sequence:
#
# PCOD9467643 Si02
#       8
#     4   4   4   8   8   4   8   8
#     4  12  22  42  66  94 134 175 216 275 330 401
#     4  12  22  40  69  95 127 174 217 276 325 401
#     4   8  23  42  61  95 134 170 217 267 338 390
#     4  12  24  44  67 100 131 181 220 280 332 393
#     4  12  22  39  71  95 128 167 227 269 333 395
#     4   8  23  42  60  92 129 167 214 270 329 388
#     4  12  24  45  67  97 138 172 229 272 333 400
#     4   9  22  45  61  96 131 170 223 273 325 404
#
# _framework density 18.998132999999999
#
# number of rings (size 3 to 8) (size 9 to 14) (size 15 to 20)
#    1.000    0.000    5.833    1.000    2.333    3.333 
#    3.000    0.000    0.000    0.000    0.000    0.000 
#    0.000    0.000    0.000    0.000    0.000    0.000 
#
# Total GULP energy -267349.984490 kJ/mol
# GULP energy per Si atom -5569.791344 kJ/mol
# Density = 1.895489 g / cm^3
# Si number density = 18.998133 Si / 1000 Ang^3
#
#
#
# Elastic Constant Matrix: (Units=GPa)
#
#
# Indices 1 2 3 4 5 6 
#
# 1 107.6454 42.5804 41.6223 0.0000 0.0000 0.0000
# 2 42.5804 149.2935 15.5351 0.0000 0.0000 0.0000
# 3 41.6223 15.5351 66.4535 0.0000 0.0000 0.0000
# 4 0.0000 0.0000 0.0000 2.1906 0.0000 0.0000
# 5 0.0000 0.0000 0.0000 0.0000 42.8036 0.0000
# 6 0.0000 0.0000 0.0000 0.0000 0.0000 30.0057
#
#
#
# Elastic Compliance Matrix: (Units=1/GPa)
#
#
# Indices 1 2 3 4 5 6 
#
# 1 0.013483 -0.003041 -0.007734 0.000000 0.000000 0.000000
# 2 -0.003041 0.007551 0.000139 0.000000 0.000000 0.000000
# 3 -0.007734 0.000139 0.019860 0.000000 0.000000 0.000000
# 4 0.000000 0.000000 0.000000 0.456494 0.000000 0.000000
# 5 0.000000 0.000000 0.000000 0.000000 0.023363 0.000000
# 6 0.000000 0.000000 0.000000 0.000000 0.000000 0.033327
#
#
# Mechanical properties :
#
#
# Convention : Reuss Voigt Hill
#
# Bulk Modulus (GPa) = 50.96143 58.09643 54.52893
# Shear Modulus (GPa) = 8.59271 29.91028 19.25150
#
# Velocity S-wave (km/s) = 2.12902 3.97215 3.18675
# Velocity P-wave (km/s) = 5.73815 7.18914 6.50423
#
# Compressibility (1/GPa) = 0.01962268
#
# Stress axis : x y z
#
# Youngs Moduli (GPa) = 74.16732 132.43313 50.35327
#
# Poissons Ratio (x) = 0.40270 0.38944
# Poissons Ratio (y) = 0.22552 -0.00701
# Poissons Ratio (z) = 0.57362 -0.01845
#
# Static dielectric constant tensor:
#      x y z
#    x 1.678270 0.000000 0.000000 
#    y 0.000000 1.646740 0.000000 
#    z 0.000000 0.000000 1.629870 
# 
# From -- ./inp_files/18051.got.cif
#   From: 2010.05.17/outbox.cif.g08.bks.cpg/sg62_10_cif.got.tgz:18051.got - 2010.06.03 15:25:27.
