data_PCOD9467001
_publ_section_title
;
Structure prediction by ZEFSAII (Michael W. Deem and Ramdas Pophale) SiO2 
 PCOD9467001
Probable space group: P N M A
;
_chemical_formula_sum "Si O2"
_cell_formula_units_Z 56
_cell_length_a 14.481539
_cell_length_b 7.968954
_cell_length_c 21.634347
_cell_angle_alpha 90.000000
_cell_angle_beta 90.000000
_cell_angle_gamma 90.000000
_cell_volume 2496.662449
_symmetry_space_group_name_H-M "P N M A"
_symmetry_group_IT_number 62
_symmetry_cell_setting 'orthorhombic'
loop_
_space_group_symop_operation_xyz
x,y,z
1/2-x,-y,1/2+z
1/2+x,1/2-y,1/2-z
-x,1/2+y,-z
-x,-y,-z
1/2+x,y,1/2-z
1/2-x,1/2+y,1/2+z
x,1/2-y,z
loop_
_atom_site_type_symbol
_atom_site_label
_atom_site_fract_x
_atom_site_fract_y
_atom_site_fract_z
Si Si1 0.705882 0.949910 0.606161
Si Si2 0.290843 0.949824 0.260860
Si Si3 0.008148 0.945473 0.733660
Si Si4 0.499119 0.950717 0.428680
Si Si5 0.025269 0.548826 0.594184
Si Si6 0.137938 0.943420 0.169929
Si Si7 0.146458 0.452092 0.489652
O O1 0.715680 0.750000 0.609121
O O2 0.761343 0.009711 0.545253
O O3 0.747392 0.020655 0.669992
O O4 0.598319 0.993046 0.599730
O O5 0.303864 0.750000 0.253373
O O6 0.226616 0.015613 0.205245
O O7 0.388423 0.041026 0.258697
O O8 0.978241 0.750000 0.734035
O O9 0.013899 0.011773 0.663772
O O10 0.940604 0.048311 0.777294
O O11 0.502819 0.750000 0.423679
O O12 0.587061 0.019011 0.389945
O O13 0.500000 0.000000 0.500000
O O14 0.019936 0.750000 0.596487
O O15 0.119846 0.504707 0.558825
O O16 0.939291 0.487681 0.552866
O O17 0.160997 0.750000 0.155207
O O18 0.147185 0.250000 0.489756
#
# Coordination Sequence:
#
# PCOD9467001 Si02
#       7
#     8   8   8   8   8   8   8
#     4  11  22  39  62  90 121 159 205 253 309 370
#     4  11  23  39  61  89 120 158 203 251 308 371
#     4  11  22  37  60  88 120 155 195 250 305 360
#     4  11  24  43  65  90 123 163 208 259 311 371
#     4   9  19  35  54  83 119 154 194 243 298 356
#     4  10  23  42  63  88 122 162 207 258 311 373
#     4   9  19  35  56  82 116 155 196 242 294 356
#
# _framework density 22.429943999999999
#
# number of rings (size 3 to 8) (size 9 to 14) (size 15 to 20)
#    0.000    1.714    1.429    2.571    0.000    6.286 
#    0.000    7.143    0.000    0.000    0.000    0.000 
#    0.000    0.000    0.000    0.000    0.000    0.000 
#
# Total GULP energy -312834.519068 kJ/mol
# GULP energy per Si atom -5586.330698 kJ/mol
# Density = 2.237889 g / cm^3
# Si number density = 22.429944 Si / 1000 Ang^3
#
#
#
# Elastic Constant Matrix: (Units=GPa)
#
#
# Indices 1 2 3 4 5 6 
#
# 1 32.0387 -9.8185 -12.4786 0.0000 0.0000 0.0000
# 2 -9.8185 36.3057 -5.3946 0.0000 0.0000 0.0000
# 3 -12.4786 -5.3946 106.6901 0.0000 0.0000 0.0000
# 4 0.0000 0.0000 0.0000 25.6510 0.0000 0.0000
# 5 0.0000 0.0000 0.0000 0.0000 38.0911 0.0000
# 6 0.0000 0.0000 0.0000 0.0000 0.0000 19.0553
#
#
#
# Elastic Compliance Matrix: (Units=1/GPa)
#
#
# Indices 1 2 3 4 5 6 
#
# 1 0.036299 0.010527 0.004778 0.000000 0.000000 0.000000
# 2 0.010527 0.030805 0.002789 0.000000 0.000000 0.000000
# 3 0.004778 0.002789 0.010073 0.000000 0.000000 0.000000
# 4 0.000000 0.000000 0.000000 0.038985 0.000000 0.000000
# 5 0.000000 0.000000 0.000000 0.000000 0.026253 0.000000
# 6 0.000000 0.000000 0.000000 0.000000 0.000000 0.052479
#
#
# Mechanical properties :
#
#
# Convention : Reuss Voigt Hill
#
# Bulk Modulus (GPa) = 8.82116 13.29456 11.05786
# Shear Modulus (GPa) = 25.44597 30.07456 27.76027
#
# Velocity S-wave (km/s) = 3.37183 3.66570 3.52183
# Velocity P-wave (km/s) = 4.37039 4.88431 4.63448
#
# Compressibility (1/GPa) = 0.11336376
#
# Stress axis : x y z
#
# Youngs Moduli (GPa) = 27.54887 32.46212 99.27751
#
# Poissons Ratio (x) = -0.34172 -0.47433
# Poissons Ratio (y) = -0.29000 -0.27687
# Poissons Ratio (z) = -0.13162 -0.09053
#
# Static dielectric constant tensor:
#      x y z
#    x 1.835350 0.000000 0.000000 
#    y 0.000000 1.841590 0.000000 
#    z 0.000000 0.000000 1.870110 
# 
# From -- ./inp_files/27235.got.cif
#   From: 2010.05.17/outbox.cif.g08.bks.cpg/sg62_14_cif.got.tgz:27235.got - 2010.06.03 15:25:27.
