data_PCOD9467652
_publ_section_title
;
Structure prediction by ZEFSAII (Michael W. Deem and Ramdas Pophale) SiO2 
 PCOD9467652
Probable space group: P N M A
;
_chemical_formula_sum "Si O2"
_cell_formula_units_Z 40
_cell_length_a 7.842044
_cell_length_b 9.923918
_cell_length_c 23.572322
_cell_angle_alpha 90.000000
_cell_angle_beta 90.000000
_cell_angle_gamma 90.000000
_cell_volume 1834.487711
_symmetry_space_group_name_H-M "P N M A"
_symmetry_group_IT_number 62
_symmetry_cell_setting 'orthorhombic'
loop_
_space_group_symop_operation_xyz
x,y,z
1/2-x,-y,1/2+z
1/2+x,1/2-y,1/2-z
-x,1/2+y,-z
-x,-y,-z
1/2+x,y,1/2-z
1/2-x,1/2+y,1/2+z
x,1/2-y,z
loop_
_atom_site_type_symbol
_atom_site_label
_atom_site_fract_x
_atom_site_fract_y
_atom_site_fract_z
Si Si1 0.742372 0.250000 0.619591
Si Si2 0.769338 0.750000 0.563033
Si Si3 0.863663 0.031919 0.145968
Si Si4 0.094049 0.250000 0.551065
Si Si5 0.998618 0.750000 0.773613
Si Si6 0.907576 0.750000 0.001160
Si Si7 0.224768 0.028552 0.080430
Si Si8 0.859051 0.250000 0.340368
O O1 0.716646 0.386143 0.654621
O O2 0.604490 0.250000 0.568297
O O3 0.918737 0.250000 0.585314
O O4 0.751662 0.879316 0.603312
O O5 0.919874 0.750000 0.517513
O O6 0.596939 0.750000 0.524660
O O7 0.903916 0.119265 0.201592
O O8 0.045884 0.016891 0.113973
O O9 0.193838 0.386094 0.566915
O O10 0.994368 0.750000 0.706114
O O11 0.814370 0.750000 0.802881
O O12 0.817802 0.616864 0.975449
O O13 0.345703 0.119798 0.119991
#
# Coordination Sequence:
#
# PCOD9467652 Si02
#       8
#     4   4   8   4   4   4   8   4
#     4  12  23  31  46  78 113 139 167 210 259 296
#     4   9  18  34  55  74  98 140 183 209 240 298
#     4   9  19  36  55  75 101 137 177 208 244 305
#     4  12  23  31  46  78 113 139 167 210 259 296
#     4   9  19  37  61  82  98 125 168 215 261 308
#     4   9  18  34  55  74  98 140 183 209 240 298
#     4   9  19  36  55  75 101 137 177 208 244 305
#     4   9  19  37  61  82  98 125 168 215 261 308
#
# _framework density 21.804454
#
# number of rings (size 3 to 8) (size 9 to 14) (size 15 to 20)
#    0.000    2.400    0.000    5.400    0.000    8.000 
#    0.000    5.000    0.000    0.000    0.000    0.000 
#    0.000    0.000    0.000    0.000    0.000    0.000 
#
# Total GULP energy -223848.969357 kJ/mol
# GULP energy per Si atom -5596.224234 kJ/mol
# Density = 2.175483 g / cm^3
# Si number density = 21.804454 Si / 1000 Ang^3
#
#
#
# Elastic Constant Matrix: (Units=GPa)
#
#
# Indices 1 2 3 4 5 6 
#
# 1 77.6090 31.2059 10.2558 0.0000 0.0000 0.0000
# 2 31.2059 175.5799 30.8141 0.0000 0.0000 0.0000
# 3 10.2558 30.8141 66.4204 0.0000 0.0000 0.0000
# 4 0.0000 0.0000 0.0000 4.7297 0.0000 0.0000
# 5 0.0000 0.0000 0.0000 0.0000 35.0660 0.0000
# 6 0.0000 0.0000 0.0000 0.0000 0.0000 -12.9534
#
#
#
# Elastic Compliance Matrix: (Units=1/GPa)
#
#
# Indices 1 2 3 4 5 6 
#
# 1 0.013949 -0.002287 -0.001093 0.000000 0.000000 0.000000
# 2 -0.002287 0.006575 -0.002697 0.000000 0.000000 0.000000
# 3 -0.001093 -0.002697 0.016476 0.000000 0.000000 0.000000
# 4 0.000000 0.000000 0.000000 0.211430 0.000000 0.000000
# 5 0.000000 0.000000 0.000000 0.000000 0.028518 0.000000
# 6 0.000000 0.000000 0.000000 0.000000 0.000000 -0.077200
#
#
# Mechanical properties :
#
#
# Convention : Reuss Voigt Hill
#
# Bulk Modulus (GPa) = 40.24873 51.57341 45.91107
# Shear Modulus (GPa) = 22.70823 21.85736 22.28280
#
# Velocity S-wave (km/s) = 3.23065 3.16955 3.20024
# Velocity P-wave (km/s) = 5.69343 6.09087 5.89550
#
# Compressibility (1/GPa) = 0.02484551
#
# Stress axis : x y z
#
# Youngs Moduli (GPa) = 71.68845 152.08368 60.69557
#
# Poissons Ratio (x) = 0.34788 0.06632
# Poissons Ratio (y) = 0.16398 0.16371
# Poissons Ratio (z) = 0.07833 0.41021
#
# Static dielectric constant tensor:
#      x y z
#    x 1.866430 0.000000 0.000000 
#    y 0.000000 1.775300 0.000000 
#    z 0.000000 0.000000 1.753410 
# 
# From -- ./inp_files/28673.got.cif
#   From: 2010.05.17/outbox.cif.g08.bks.cpg/sg62_15_cif.got.tgz:28673.got - 2010.06.03 15:25:27.
