data_PCOD9467685
_publ_section_title
;
Structure prediction by ZEFSAII (Michael W. Deem and Ramdas Pophale) SiO2 
 PCOD9467685
Probable space group: P N M A
;
_chemical_formula_sum "Si O2"
_cell_formula_units_Z 40
_cell_length_a 8.840780
_cell_length_b 10.578587
_cell_length_c 20.002519
_cell_angle_alpha 90.000000
_cell_angle_beta 90.000000
_cell_angle_gamma 90.000000
_cell_volume 1870.694792
_symmetry_space_group_name_H-M "P N M A"
_symmetry_group_IT_number 62
_symmetry_cell_setting 'orthorhombic'
loop_
_space_group_symop_operation_xyz
x,y,z
1/2-x,-y,1/2+z
1/2+x,1/2-y,1/2-z
-x,1/2+y,-z
-x,-y,-z
1/2+x,y,1/2-z
1/2-x,1/2+y,1/2+z
x,1/2-y,z
loop_
_atom_site_type_symbol
_atom_site_label
_atom_site_fract_x
_atom_site_fract_y
_atom_site_fract_z
Si Si1 0.429952 0.014172 0.316169
Si Si2 0.087163 0.989249 0.569700
Si Si3 0.427827 0.250000 0.714640
Si Si4 0.600205 0.250000 0.848251
Si Si5 0.927936 0.604842 0.951444
Si Si6 0.894273 0.608188 0.687876
O O1 0.487904 0.089040 0.380640
O O2 0.249472 0.016589 0.312935
O O3 0.497174 0.076101 0.249338
O O4 0.496880 0.873854 0.317179
O O5 0.099410 0.125664 0.605878
O O6 0.252210 0.930075 0.558822
O O7 0.000000 0.000000 0.500000
O O8 0.989083 0.905921 0.620536
O O9 0.465712 0.250000 0.793740
O O10 0.251781 0.250000 0.696550
O O11 0.943632 0.750000 0.975258
O O12 0.000000 0.500000 0.000000
O O13 0.834379 0.750000 0.695189
#
# Coordination Sequence:
#
# PCOD9467685 Si02
#       6
#     8   8   4   4   8   8
#     4  12  25  46  73 105 147 188 248 311 380 455
#     4  12  28  48  72 107 149 196 248 311 382 457
#     4  12  24  48  74 114 148 191 253 314 394 448
#     4  12  26  48  80 110 156 197 257 326 384 470
#     4  12  28  50  75 106 146 199 249 316 382 458
#     4  12  25  45  72 104 143 195 240 311 372 457
#
# _framework density 21.382429999999999
#
# number of rings (size 3 to 8) (size 9 to 14) (size 15 to 20)
#    0.000    0.000    4.000    6.000    5.600    0.000 
#    0.000    0.000    0.000    0.000    0.000    0.000 
#    0.000    0.000    0.000    0.000    0.000    0.000 
#
# Total GULP energy -224165.320758 kJ/mol
# GULP energy per Si atom -5604.133019 kJ/mol
# Density = 2.133376 g / cm^3
# Si number density = 21.382430 Si / 1000 Ang^3
#
#
#
# Elastic Constant Matrix: (Units=GPa)
#
#
# Indices 1 2 3 4 5 6 
#
# 1 137.7243 15.2045 75.1691 0.0000 0.0000 0.0000
# 2 15.2045 143.3588 34.9789 0.0000 0.0000 0.0000
# 3 75.1691 34.9789 143.0897 0.0000 0.0000 0.0000
# 4 0.0000 0.0000 0.0000 37.3192 0.0000 0.0000
# 5 0.0000 0.0000 0.0000 0.0000 44.5162 0.0000
# 6 0.0000 0.0000 0.0000 0.0000 0.0000 30.5774
#
#
#
# Elastic Compliance Matrix: (Units=1/GPa)
#
#
# Indices 1 2 3 4 5 6 
#
# 1 0.010187 0.000240 -0.005410 0.000000 0.000000 0.000000
# 2 0.000240 0.007424 -0.001941 0.000000 0.000000 0.000000
# 3 -0.005410 -0.001941 0.010305 0.000000 0.000000 0.000000
# 4 0.000000 0.000000 0.000000 0.026796 0.000000 0.000000
# 5 0.000000 0.000000 0.000000 0.000000 0.022464 0.000000
# 6 0.000000 0.000000 0.000000 0.000000 0.000000 0.032704
#
#
# Mechanical properties :
#
#
# Convention : Reuss Voigt Hill
#
# Bulk Modulus (GPa) = 73.02691 74.98644 74.00668
# Shear Modulus (GPa) = 38.86013 42.40393 40.63203
#
# Velocity S-wave (km/s) = 4.26771 4.45805 4.36392
# Velocity P-wave (km/s) = 7.64927 7.85139 7.75099
#
# Compressibility (1/GPa) = 0.01369358
#
# Stress axis : x y z
#
# Youngs Moduli (GPa) = 98.16122 134.70571 97.03852
#
# Poissons Ratio (x) = -0.03228 0.52500
# Poissons Ratio (y) = -0.02352 0.18831
# Poissons Ratio (z) = 0.53108 0.26141
#
# Static dielectric constant tensor:
#      x y z
#    x 1.738230 0.000000 0.000000 
#    y 0.000000 1.788130 0.000000 
#    z 0.000000 0.000000 1.719560 
# 
# From -- ./inp_files/21944.got.cif
#   From: 2010.05.17/outbox.cif.g08.bks.cpg/sg62_11_cif.got.tgz:21944.got - 2010.06.03 15:25:27.
