data_PCOD9467657
_publ_section_title
;
Structure prediction by ZEFSAII (Michael W. Deem and Ramdas Pophale) SiO2 
 PCOD9467657
Probable space group: P N M A
;
_chemical_formula_sum "Si O2"
_cell_formula_units_Z 40
_cell_length_a 8.040863
_cell_length_b 10.374689
_cell_length_c 20.727135
_cell_angle_alpha 90.000000
_cell_angle_beta 90.000000
_cell_angle_gamma 90.000000
_cell_volume 1729.087716
_symmetry_space_group_name_H-M "P N M A"
_symmetry_group_IT_number 62
_symmetry_cell_setting 'orthorhombic'
loop_
_space_group_symop_operation_xyz
x,y,z
1/2-x,-y,1/2+z
1/2+x,1/2-y,1/2-z
-x,1/2+y,-z
-x,-y,-z
1/2+x,y,1/2-z
1/2-x,1/2+y,1/2+z
x,1/2-y,z
loop_
_atom_site_type_symbol
_atom_site_label
_atom_site_fract_x
_atom_site_fract_y
_atom_site_fract_z
Si Si1 0.833723 0.527529 0.545446
Si Si2 0.594866 0.750000 0.499615
Si Si3 0.595877 0.750000 0.049623
Si Si4 0.771848 0.250000 0.874080
Si Si5 0.222372 0.517369 0.685054
Si Si6 0.386814 0.893709 0.812767
Si Si7 0.239467 0.250000 0.083468
O O1 0.700632 0.616449 0.509128
O O2 0.804048 0.379741 0.565248
O O3 0.833839 0.601654 0.613493
O O4 0.000000 0.500000 0.500000
O O5 0.576044 0.750000 0.423694
O O6 0.432575 0.750000 0.543759
O O7 0.411489 0.750000 0.085363
O O8 0.609423 0.750000 0.969384
O O9 0.790410 0.379456 0.833329
O O10 0.268111 0.575989 0.753980
O O11 0.254261 0.623125 0.628573
O O12 0.026407 0.498954 0.688918
O O13 0.456251 0.750000 0.800857
#
# Coordination Sequence:
#
# PCOD9467657 Si02
#       7
#     8   4   4   4   8   8   4
#     4  12  23  42  79 111 144 196 258 308 379 462
#     4  12  26  45  77 112 152 193 253 323 385 441
#     4  12  24  43  73 109 149 197 247 309 397 451
#     4  12  26  49  73 113 152 198 251 328 382 464
#     4  12  28  46  76 107 154 195 262 313 380 462
#     4  12  24  46  76 104 141 204 250 315 376 455
#     4  12  28  47  73 114 153 200 259 322 368 466
#
# _framework density 23.133586000000001
#
# number of rings (size 3 to 8) (size 9 to 14) (size 15 to 20)
#    0.000    0.000    7.000    2.400    2.800    4.800 
#    0.000    0.000    0.000    0.000    0.000    0.000 
#    0.000    0.000    0.000    0.000    0.000    0.000 
#
# Total GULP energy -222891.602430 kJ/mol
# GULP energy per Si atom -5572.290061 kJ/mol
# Density = 2.308093 g / cm^3
# Si number density = 23.133586 Si / 1000 Ang^3
#
#
#
# Elastic Constant Matrix: (Units=GPa)
#
#
# Indices 1 2 3 4 5 6 
#
# 1 15.8097 13.0680 2.5626 0.0000 0.0000 0.0000
# 2 13.0680 151.4890 28.3168 0.0000 0.0000 0.0000
# 3 2.5626 28.3168 112.3655 0.0000 0.0000 0.0000
# 4 0.0000 0.0000 0.0000 -6.8514 0.0000 0.0000
# 5 0.0000 0.0000 0.0000 0.0000 -37.7577 0.0000
# 6 0.0000 0.0000 0.0000 0.0000 0.0000 4.9589
#
#
#
# Elastic Compliance Matrix: (Units=1/GPa)
#
#
# Indices 1 2 3 4 5 6 
#
# 1 0.068109 -0.005861 -0.000076 0.000000 0.000000 0.000000
# 2 -0.005861 0.007432 -0.001739 0.000000 0.000000 0.000000
# 3 -0.000076 -0.001739 0.009340 0.000000 0.000000 0.000000
# 4 0.000000 0.000000 0.000000 -0.145955 0.000000 0.000000
# 5 0.000000 0.000000 0.000000 0.000000 -0.026485 0.000000
# 6 0.000000 0.000000 0.000000 0.000000 0.000000 0.201658
#
#
# Mechanical properties :
#
#
# Convention : Reuss Voigt Hill
#
# Bulk Modulus (GPa) = 14.38278 40.83990 27.61134
# Shear Modulus (GPa) = 32.75952 7.78442 20.27197
#
# Velocity S-wave (km/s) = 3.76720 1.83638 2.96345
# Velocity P-wave (km/s) = 5.01529 4.71048 4.86527
#
# Compressibility (1/GPa) = 0.06952760
#
# Stress axis : x y z
#
# Youngs Moduli (GPa) = 14.68227 134.55622 107.07146
#
# Poissons Ratio (x) = 0.78865 0.00817
# Poissons Ratio (y) = 0.08605 0.18622
# Poissons Ratio (z) = 0.00112 0.23402
#
# Static dielectric constant tensor:
#      x y z
#    x 1.913910 0.000000 0.000000 
#    y 0.000000 1.911920 0.000000 
#    z 0.000000 0.000000 0.899880 
# 
# From -- ./inp_files/21965.got.cif
#   From: 2010.05.17/outbox.cif.g08.bks.cpg/sg62_11_cif.got.tgz:21965.got - 2010.06.03 15:25:27.
