data_PCOD9467681
_publ_section_title
;
Structure prediction by ZEFSAII (Michael W. Deem and Ramdas Pophale) SiO2 
 PCOD9467681
Probable space group: P N M A
;
_chemical_formula_sum "Si O2"
_cell_formula_units_Z 48
_cell_length_a 9.182753
_cell_length_b 13.546905
_cell_length_c 18.300086
_cell_angle_alpha 90.000000
_cell_angle_beta 90.000000
_cell_angle_gamma 90.000000
_cell_volume 2276.491949
_symmetry_space_group_name_H-M "P N M A"
_symmetry_group_IT_number 62
_symmetry_cell_setting 'orthorhombic'
loop_
_space_group_symop_operation_xyz
x,y,z
1/2-x,-y,1/2+z
1/2+x,1/2-y,1/2-z
-x,1/2+y,-z
-x,-y,-z
1/2+x,y,1/2-z
1/2-x,1/2+y,1/2+z
x,1/2-y,z
loop_
_atom_site_type_symbol
_atom_site_label
_atom_site_fract_x
_atom_site_fract_y
_atom_site_fract_z
Si Si1 0.317521 0.460045 0.164935
Si Si2 0.801229 0.250000 0.127731
Si Si3 0.448891 0.250000 0.131043
Si Si4 0.053361 0.750000 0.031074
Si Si5 0.698569 0.750000 0.028015
Si Si6 0.061582 0.955110 0.424145
Si Si7 0.191604 0.538003 0.828948
Si Si8 0.560419 0.535609 0.421453
O O1 0.392500 0.352350 0.165916
O O2 0.432793 0.539394 0.134771
O O3 0.264359 0.485019 0.246308
O O4 0.189038 0.465066 0.105717
O O5 0.624517 0.250000 0.127129
O O6 0.854247 0.151739 0.167349
O O7 0.872454 0.250000 0.048087
O O8 0.373897 0.250000 0.051736
O O9 0.103215 0.850702 0.069489
O O10 0.875414 0.750000 0.026597
O O11 0.635662 0.650734 0.064867
O O12 0.183302 0.025399 0.389186
O O13 0.000000 0.000000 0.500000
O O14 0.061504 0.472252 0.859323
O O15 0.500000 0.500000 0.500000
#
# Coordination Sequence:
#
# PCOD9467681 Si02
#       8
#     8   4   4   4   4   8   8   8
#     4  12  27  45  71 105 148 188 235 296 371 426
#     4  12  25  41  75 103 147 179 238 299 353 433
#     4  12  25  43  71 105 141 185 233 295 361 433
#     4  12  26  45  72 110 132 183 247 300 350 417
#     4  12  24  45  74 106 138 181 246 298 348 419
#     4  12  24  46  74 104 141 191 242 293 354 430
#     4  12  25  47  68 107 146 187 234 298 366 428
#     4  12  25  45  73 103 141 185 240 296 348 431
#
# _framework density 21.085073000000001
#
# number of rings (size 3 to 8) (size 9 to 14) (size 15 to 20)
#    0.000    0.000    6.667    3.500    2.333    0.000 
#    0.000    5.000    0.000    0.000    0.000    0.000 
#    0.000    0.000    0.000    0.000    0.000    0.000 
#
# Total GULP energy -268413.124851 kJ/mol
# GULP energy per Si atom -5591.940101 kJ/mol
# Density = 2.103708 g / cm^3
# Si number density = 21.085073 Si / 1000 Ang^3
#
#
#
# Elastic Constant Matrix: (Units=GPa)
#
#
# Indices 1 2 3 4 5 6 
#
# 1 74.6743 18.1901 31.2388 0.0000 0.0000 0.0000
# 2 18.1901 115.0110 54.3073 0.0000 0.0000 0.0000
# 3 31.2388 54.3073 120.3385 0.0000 0.0000 0.0000
# 4 0.0000 0.0000 0.0000 15.1317 0.0000 0.0000
# 5 0.0000 0.0000 0.0000 0.0000 26.9694 0.0000
# 6 0.0000 0.0000 0.0000 0.0000 0.0000 30.2393
#
#
#
# Elastic Compliance Matrix: (Units=1/GPa)
#
#
# Indices 1 2 3 4 5 6 
#
# 1 0.015065 -0.000681 -0.003603 0.000000 0.000000 0.000000
# 2 -0.000681 0.011080 -0.004824 0.000000 0.000000 0.000000
# 3 -0.003603 -0.004824 0.011422 0.000000 0.000000 0.000000
# 4 0.000000 0.000000 0.000000 0.066086 0.000000 0.000000
# 5 0.000000 0.000000 0.000000 0.000000 0.037079 0.000000
# 6 0.000000 0.000000 0.000000 0.000000 0.000000 0.033070
#
#
# Mechanical properties :
#
#
# Convention : Reuss Voigt Hill
#
# Bulk Modulus (GPa) = 51.67674 57.49958 54.58816
# Shear Modulus (GPa) = 25.19292 28.22058 26.70675
#
# Velocity S-wave (km/s) = 3.46037 3.66240 3.56282
# Velocity P-wave (km/s) = 6.36612 6.72412 6.54756
#
# Compressibility (1/GPa) = 0.01935106
#
# Stress axis : x y z
#
# Youngs Moduli (GPa) = 66.37991 90.25116 87.54980
#
# Poissons Ratio (x) = 0.06148 0.31547
# Poissons Ratio (y) = 0.04522 0.42230
# Poissons Ratio (z) = 0.23918 0.43533
#
# Static dielectric constant tensor:
#      x y z
#    x 1.835770 0.000000 0.000000 
#    y 0.000000 1.774610 0.000000 
#    z 0.000000 0.000000 1.773870 
# 
# From -- ./inp_files/22276.got.cif
#   From: 2010.05.17/outbox.cif.g08.bks.cpg/sg62_12_cif.got.tgz:22276.got - 2010.06.03 15:25:27.
