data_PCOD9467781
_publ_section_title
;
Structure prediction by ZEFSAII (Michael W. Deem and Ramdas Pophale) SiO2 
 PCOD9467781
Probable space group: P N M A
;
_chemical_formula_sum "Si O2"
_cell_formula_units_Z 64
_cell_length_a 12.000000
_cell_length_b 9.000000
_cell_length_c 30.000000
_cell_angle_alpha 90.000000
_cell_angle_beta 90.000000
_cell_angle_gamma 90.000000
_cell_volume 3240.000000
_symmetry_space_group_name_H-M "P N M A"
_symmetry_group_IT_number 62
_symmetry_cell_setting 'orthorhombic'
loop_
_space_group_symop_operation_xyz
x,y,z
1/2-x,-y,1/2+z
1/2+x,1/2-y,1/2-z
-x,1/2+y,-z
-x,-y,-z
1/2+x,y,1/2-z
1/2-x,1/2+y,1/2+z
x,1/2-y,z
loop_
_atom_site_type_symbol
_atom_site_label
_atom_site_fract_x
_atom_site_fract_y
_atom_site_fract_z
Si Si1 0.573781 0.929636 0.612593
Si Si2 0.279377 0.069681 0.467130
Si Si3 0.186512 0.925484 0.721919
Si Si4 0.534121 0.077707 0.064235
Si Si5 0.544610 0.418886 0.170634
Si Si6 0.305737 0.927401 0.058654
Si Si7 0.770804 0.576067 0.186252
Si Si8 0.675406 0.428855 0.362055
O O1 0.574432 0.750000 0.613402
O O2 0.620656 0.980731 0.564550
O O3 0.449140 0.977588 0.625199
O O4 0.661036 0.987919 0.648749
O O5 0.280342 0.250000 0.465840
O O6 0.276826 0.025364 0.518611
O O7 0.158229 0.024705 0.447920
O O8 0.195939 0.750000 0.733239
O O9 0.286643 0.964504 0.688100
O O10 0.071075 0.945499 0.695521
O O11 0.187805 0.022625 0.765774
O O12 0.522882 0.250000 0.049568
O O13 0.526457 0.075122 0.117767
O O14 0.430092 0.982822 0.047235
O O15 0.581927 0.250000 0.181653
O O16 0.641575 0.531047 0.183191
O O17 0.306327 0.750000 0.062151
O O18 0.261919 0.999496 0.103755
O O19 0.786172 0.750000 0.179750
O O20 0.682703 0.250000 0.366317
#
# Coordination Sequence:
#
# PCOD9467781 Si02
#       8
#     8   8   8   8   8   8   8   8
#     4  10  21  42  66  84 112 158 209 247 281 342
#     4   9  19  36  59  87 118 156 197 243 294 346
#     4  10  22  41  63  88 115 153 206 245 283 343
#     4  10  18  36  62  86 117 154 202 248 282 338
#     4  10  20  39  67  88 113 156 201 243 282 340
#     4  11  22  35  56  88 125 157 189 239 307 360
#     4  12  26  40  59  92 128 153 186 241 308 359
#     4  10  22  41  64  87 111 152 207 250 283 340
#
# _framework density 19.753086
#
# number of rings (size 3 to 8) (size 9 to 14) (size 15 to 20)
#    0.000    1.750    2.500    1.875    1.750    2.500 
#    0.000    1.875    0.000    0.000    0.000    0.000 
#    0.000    0.000    0.000    0.000    0.000    0.000 
#
# Total GULP energy -357432.325777 kJ/mol
# GULP energy per Si atom -5584.880090 kJ/mol
# Density = 1.970813 g / cm^3
# Si number density = 19.753086 Si / 1000 Ang^3
#
#
#
# Elastic Constant Matrix: (Units=GPa)
#
#
# Indices 1 2 3 4 5 6 
#
# 1 35.4432 0.4466 -22.0088 0.0000 0.0000 0.0000
# 2 0.4466 6.0729 -0.0951 0.0000 0.0000 0.0000
# 3 -22.0088 -0.0951 35.5033 0.0000 0.0000 0.0000
# 4 0.0000 0.0000 0.0000 14.3417 0.0000 0.0000
# 5 0.0000 0.0000 0.0000 0.0000 21.3138 0.0000
# 6 0.0000 0.0000 0.0000 0.0000 0.0000 18.2985
#
#
#
# Elastic Compliance Matrix: (Units=1/GPa)
#
#
# Indices 1 2 3 4 5 6 
#
# 1 0.045924 -0.002932 0.028461 0.000000 0.000000 0.000000
# 2 -0.002932 0.164860 -0.001376 0.000000 0.000000 0.000000
# 3 0.028461 -0.001376 0.045806 0.000000 0.000000 0.000000
# 4 0.000000 0.000000 0.000000 0.069727 0.000000 0.000000
# 5 0.000000 0.000000 0.000000 0.000000 0.046918 0.000000
# 6 0.000000 0.000000 0.000000 0.000000 0.000000 0.054649
#
#
# Mechanical properties :
#
#
# Convention : Reuss Voigt Hill
#
# Bulk Modulus (GPa) = 3.27980 3.74499 3.51239
# Shear Modulus (GPa) = 10.39049 17.36925 13.87987
#
# Velocity S-wave (km/s) = 2.29600 2.96855 2.65367
# Velocity P-wave (km/s) = 2.94836 3.69455 3.34234
#
# Compressibility (1/GPa) = 0.30489692
#
# Stress axis : x y z
#
# Youngs Moduli (GPa) = 21.77504 6.06575 21.83129
#
# Poissons Ratio (x) = 0.01778 -0.62134
# Poissons Ratio (y) = 0.06383 0.03004
# Poissons Ratio (z) = -0.61974 0.00835
#
# Static dielectric constant tensor:
#      x y z
#    x 1.685540 0.000000 0.000000 
#    y 0.000000 1.659830 0.000000 
#    z 0.000000 0.000000 1.704720 
# 
# From -- ./inp_files/32459.got.cif
#   From: 2010.05.17/outbox.ucp.g08.bks.cvg/sg62_17_cif.got.tgz:32459.got - 2010.06.11 16:29:25.
