data_PCOD9467963
_publ_section_title
;
Structure prediction by ZEFSAII (Michael W. Deem and Ramdas Pophale) SiO2 
 PCOD9467963
Probable space group: P N M A
;
_chemical_formula_sum "Si O2"
_cell_formula_units_Z 64
_cell_length_a 24.000000
_cell_length_b 9.000000
_cell_length_c 15.000000
_cell_angle_alpha 90.000000
_cell_angle_beta 90.000000
_cell_angle_gamma 90.000000
_cell_volume 3240.000000
_symmetry_space_group_name_H-M "P N M A"
_symmetry_group_IT_number 62
_symmetry_cell_setting 'orthorhombic'
loop_
_space_group_symop_operation_xyz
x,y,z
1/2-x,-y,1/2+z
1/2+x,1/2-y,1/2-z
-x,1/2+y,-z
-x,-y,-z
1/2+x,y,1/2-z
1/2-x,1/2+y,1/2+z
x,1/2-y,z
loop_
_atom_site_type_symbol
_atom_site_label
_atom_site_fract_x
_atom_site_fract_y
_atom_site_fract_z
Si Si1 0.947465 0.071487 0.227763
Si Si2 0.358609 0.076668 0.634463
Si Si3 0.670062 0.429119 0.696072
Si Si4 0.877839 0.579995 0.689782
Si Si5 0.505135 0.075571 0.094469
Si Si6 0.235003 0.075386 0.422395
Si Si7 0.730776 0.430189 0.877780
Si Si8 0.036003 0.075041 0.075522
O O1 0.938490 0.250000 0.228528
O O2 0.963880 0.019838 0.327428
O O3 0.001876 0.045020 0.166733
O O4 0.892303 0.993265 0.190367
O O5 0.359926 0.250000 0.613022
O O6 0.295101 0.023808 0.632141
O O7 0.378723 0.041682 0.733803
O O8 0.402176 0.990338 0.574183
O O9 0.668972 0.250000 0.692615
O O10 0.713284 0.489373 0.621841
O O11 0.694578 0.479483 0.793188
O O12 0.881085 0.750000 0.727470
O O13 0.819660 0.565741 0.638540
O O14 0.931421 0.561511 0.628142
O O15 0.493516 0.250000 0.084787
O O16 0.500000 0.000000 0.000000
O O17 0.251005 0.250000 0.428844
O O18 0.216781 0.024229 0.521381
O O19 0.728532 0.250000 0.874499
O O20 0.038322 0.250000 0.063276
O O21 0.000000 0.000000 0.000000
#
# Coordination Sequence:
#
# PCOD9467963 Si02
#       8
#     8   8   8   8   8   8   8   8
#     4  10  23  43  61  82 122 165 195 239 300 361
#     4  11  21  38  63  88 120 157 200 250 303 354
#     4  11  23  40  61  89 122 153 198 252 293 346
#     4  10  20  38  63  87 116 157 203 248 296 356
#     4  10  22  40  61  89 121 156 199 246 299 353
#     4  10  21  39  63  86 116 160 200 234 297 365
#     4   9  21  39  59  86 120 158 193 239 298 351
#     4  11  24  43  64  89 122 157 202 250 301 360
#
# _framework density 19.753086
#
# number of rings (size 3 to 8) (size 9 to 14) (size 15 to 20)
#    0.000    1.750    2.500    1.125    3.500    2.000 
#    0.000    1.875    0.000    0.000    0.000    0.000 
#    0.000    0.000    0.000    0.000    0.000    0.000 
#
# Total GULP energy -357254.567699 kJ/mol
# GULP energy per Si atom -5582.102620 kJ/mol
# Density = 1.970813 g / cm^3
# Si number density = 19.753086 Si / 1000 Ang^3
#
#
#
# Elastic Constant Matrix: (Units=GPa)
#
#
# Indices 1 2 3 4 5 6 
#
# 1 56.4317 20.3990 -29.3621 0.0000 0.0000 0.0000
# 2 20.3990 24.8235 7.5299 0.0000 0.0000 0.0000
# 3 -29.3621 7.5299 35.2194 0.0000 0.0000 0.0000
# 4 0.0000 0.0000 0.0000 29.3000 0.0000 0.0000
# 5 0.0000 0.0000 0.0000 0.0000 22.3677 0.0000
# 6 0.0000 0.0000 0.0000 0.0000 0.0000 26.0434
#
#
#
# Elastic Compliance Matrix: (Units=1/GPa)
#
#
# Indices 1 2 3 4 5 6 
#
# 1 0.771321 -0.886389 0.832553 0.000000 0.000000 0.000000
# 2 -0.886389 1.061702 -0.965966 0.000000 0.000000 0.000000
# 3 0.832553 -0.965966 0.929008 0.000000 0.000000 0.000000
# 4 0.000000 0.000000 0.000000 0.034130 0.000000 0.000000
# 5 0.000000 0.000000 0.000000 0.000000 0.044707 0.000000
# 6 0.000000 0.000000 0.000000 0.000000 0.000000 0.038397
#
#
# Mechanical properties :
#
#
# Convention : Reuss Voigt Hill
#
# Bulk Modulus (GPa) = 1.38422 12.62314 7.00368
# Shear Modulus (GPa) = 0.96905 23.40272 12.18589
#
# Velocity S-wave (km/s) = 0.70118 3.44577 2.48646
# Velocity P-wave (km/s) = 1.16525 4.71545 3.43462
#
# Compressibility (1/GPa) = 0.72242683
#
# Stress axis : x y z
#
# Youngs Moduli (GPa) = 1.29648 0.94188 1.07642
#
# Poissons Ratio (x) = 0.83488 -0.89617
# Poissons Ratio (y) = 1.14918 1.03978
# Poissons Ratio (z) = -1.07939 0.90983
#
# Static dielectric constant tensor:
#      x y z
#    x 0.652200 0.000000 0.000000 
#    y 0.000000 1.682870 0.000000 
#    z 0.000000 0.000000 1.718970 
# 
# From -- ./inp_files/20904.got.cif
#   From: 2010.05.17/outbox.ucp.g08.bks.cvg/sg62_11_cif.got.tgz:20904.got - 2010.06.11 16:29:25.
