data_PCOD9467897
_publ_section_title
;
Structure prediction by ZEFSAII (Michael W. Deem and Ramdas Pophale) SiO2 
 PCOD9467897
Probable space group: P N M A
;
_chemical_formula_sum "Si O2"
_cell_formula_units_Z 64
_cell_length_a 24.000000
_cell_length_b 15.000000
_cell_length_c 9.000000
_cell_angle_alpha 90.000000
_cell_angle_beta 90.000000
_cell_angle_gamma 90.000000
_cell_volume 3240.000000
_symmetry_space_group_name_H-M "P N M A"
_symmetry_group_IT_number 62
_symmetry_cell_setting 'orthorhombic'
loop_
_space_group_symop_operation_xyz
x,y,z
1/2-x,-y,1/2+z
1/2+x,1/2-y,1/2-z
-x,1/2+y,-z
-x,-y,-z
1/2+x,y,1/2-z
1/2-x,1/2+y,1/2+z
x,1/2-y,z
loop_
_atom_site_type_symbol
_atom_site_label
_atom_site_fract_x
_atom_site_fract_y
_atom_site_fract_z
Si Si1 0.430608 0.146099 0.238490
Si Si2 0.283806 0.647013 0.094668
Si Si3 0.575893 0.851309 0.404587
Si Si4 0.835401 0.647156 0.727384
Si Si5 0.321569 0.473960 0.589679
Si Si6 0.637647 0.018426 0.724011
Si Si7 0.546084 0.142524 0.087562
Si Si8 0.955910 0.855477 0.241627
O O1 0.419075 0.250000 0.195780
O O2 0.433947 0.144212 0.417741
O O3 0.489400 0.116531 0.169443
O O4 0.384905 0.071561 0.198682
O O5 0.284212 0.750000 0.145316
O O6 0.226939 0.595465 0.125436
O O7 0.331026 0.587731 0.171631
O O8 0.297416 0.648123 0.919617
O O9 0.596010 0.750000 0.372652
O O10 0.621041 0.925357 0.364893
O O11 0.517809 0.863841 0.321220
O O12 0.837453 0.750000 0.784720
O O13 0.814833 0.570512 0.836888
O O14 0.897443 0.619334 0.672927
O O15 0.324554 0.488511 0.412845
O O16 0.585597 0.076302 0.661211
O O17 0.545927 0.250000 0.085811
O O18 0.545746 0.116753 0.914907
O O19 0.939926 0.750000 0.228730
#
# Coordination Sequence:
#
# PCOD9467897 Si02
#       8
#     8   8   8   8   8   8   8   8
#     4   9  20  36  56  85 124 159 193 236 290 354
#     4  11  23  45  66  83 113 156 202 247 293 351
#     4   9  20  37  57  85 120 161 199 239 297 354
#     4  10  22  39  61  88 119 153 197 243 292 352
#     4  11  24  39  61  88 120 151 202 246 297 346
#     4  11  23  37  62  90 119 154 199 240 303 349
#     4   9  18  35  56  83 118 160 196 233 286 346
#     4  10  20  35  56  85 121 155 197 245 293 352
#
# _framework density 19.753086
#
# number of rings (size 3 to 8) (size 9 to 14) (size 15 to 20)
#    0.000    2.000    1.250    1.500    3.500    4.000 
#    0.000    0.625    0.000    0.750    0.000    0.000 
#    0.000    0.000    0.000    0.000    0.000    0.000 
#
# Total GULP energy -357216.517361 kJ/mol
# GULP energy per Si atom -5581.508084 kJ/mol
# Density = 1.970813 g / cm^3
# Si number density = 19.753086 Si / 1000 Ang^3
#
#
#
# Elastic Constant Matrix: (Units=GPa)
#
#
# Indices 1 2 3 4 5 6 
#
# 1 68.1110 53.2107 19.3605 0.0000 0.0000 0.0000
# 2 53.2107 123.5429 21.5830 0.0000 0.0000 0.0000
# 3 19.3605 21.5830 13.1688 0.0000 0.0000 0.0000
# 4 0.0000 0.0000 0.0000 30.7439 0.0000 0.0000
# 5 0.0000 0.0000 0.0000 0.0000 18.6649 0.0000
# 6 0.0000 0.0000 0.0000 0.0000 0.0000 40.2797
#
#
#
# Elastic Compliance Matrix: (Units=1/GPa)
#
#
# Indices 1 2 3 4 5 6 
#
# 1 0.029057 -0.007079 -0.031118 0.000000 0.000000 0.000000
# 2 -0.007079 0.013066 -0.011008 0.000000 0.000000 0.000000
# 3 -0.031118 -0.011008 0.139727 0.000000 0.000000 0.000000
# 4 0.000000 0.000000 0.000000 0.032527 0.000000 0.000000
# 5 0.000000 0.000000 0.000000 0.000000 0.053577 0.000000
# 6 0.000000 0.000000 0.000000 0.000000 0.000000 0.024826
#
#
# Mechanical properties :
#
#
# Convention : Reuss Voigt Hill
#
# Bulk Modulus (GPa) = 11.98434 43.68121 27.83278
# Shear Modulus (GPa) = 11.93306 25.31559 18.62432
#
# Velocity S-wave (km/s) = 2.46053 3.58383 3.07393
# Velocity P-wave (km/s) = 3.76199 6.26791 5.16910
#
# Compressibility (1/GPa) = 0.08344224
#
# Stress axis : x y z
#
# Youngs Moduli (GPa) = 34.41460 76.53240 7.15679
#
# Poissons Ratio (x) = 0.54177 0.22270
# Poissons Ratio (y) = 0.24362 0.07878
# Poissons Ratio (z) = 1.07091 0.84245
#
# Static dielectric constant tensor:
#      x y z
#    x 1.744570 0.000000 0.000000 
#    y 0.000000 1.695130 0.000000 
#    z 0.000000 0.000000 1.691950 
# 
# From -- ./inp_files/9472.got.cif
#   From: 2010.05.17/outbox.ucp.g08.bks.cvg/sg62_5_cif.got.tgz:9472.got - 2010.06.11 16:29:25.
