data_PCOD9467184
_publ_section_title
;
Structure prediction by ZEFSAII (Michael W. Deem and Ramdas Pophale) SiO2 
 PCOD9467184
Probable space group: P N M A
;
_chemical_formula_sum "Si O2"
_cell_formula_units_Z 20
_cell_length_a 4.918918
_cell_length_b 10.706757
_cell_length_c 13.071992
_cell_angle_alpha 90.000000
_cell_angle_beta 90.000000
_cell_angle_gamma 90.000000
_cell_volume 688.445083
_symmetry_space_group_name_H-M "P N M A"
_symmetry_group_IT_number 62
_symmetry_cell_setting 'orthorhombic'
loop_
_space_group_symop_operation_xyz
x,y,z
1/2-x,-y,1/2+z
1/2+x,1/2-y,1/2-z
-x,1/2+y,-z
-x,-y,-z
1/2+x,y,1/2-z
1/2-x,1/2+y,1/2+z
x,1/2-y,z
loop_
_atom_site_type_symbol
_atom_site_label
_atom_site_fract_x
_atom_site_fract_y
_atom_site_fract_z
Si Si1 0.051103 0.750000 0.183570
Si Si2 0.109219 0.100846 0.190185
Si Si3 0.715812 0.111436 0.998767
O O1 0.739961 0.750000 0.216369
O O2 0.138498 0.635954 0.110654
O O3 0.406365 0.052618 0.221226
O O4 0.144041 0.250000 0.203284
O O5 0.949158 0.093982 0.083199
O O6 0.584917 0.250000 0.019982
O O7 0.500000 0.000000 0.000000
#
# Coordination Sequence:
#
# PCOD9467184 Si02
#       3
#     4   8   8
#     4  10  24  44  66  96 140 184 222 276 348 410
#     4   9  18  34  58  89 121 156 208 270 322 375
#     4   9  21  41  66  97 134 176 227 278 337 407
#
# _framework density 29.050972999999999
#
# number of rings (size 3 to 8) (size 9 to 14) (size 15 to 20)
#    1.200    1.600    0.000    0.000    0.000    6.400 
#    0.000    4.000    0.000    0.000    0.000    0.000 
#    0.000    0.000    0.000    0.000    0.000    0.000 
#
# Total GULP energy -112160.719334 kJ/mol
# GULP energy per Si atom -5608.035967 kJ/mol
# Density = 2.898485 g / cm^3
# Si number density = 29.050973 Si / 1000 Ang^3
#
#
#
# Elastic Constant Matrix: (Units=GPa)
#
#
# Indices 1 2 3 4 5 6 
#
# 1 149.7443 20.9920 25.8546 0.0000 0.0000 0.0000
# 2 20.9920 164.0159 4.5965 0.0000 0.0000 0.0000
# 3 25.8546 4.5965 155.2060 0.0000 0.0000 0.0000
# 4 0.0000 0.0000 0.0000 45.7636 0.0000 0.0000
# 5 0.0000 0.0000 0.0000 0.0000 57.6616 0.0000
# 6 0.0000 0.0000 0.0000 0.0000 0.0000 48.4678
#
#
#
# Elastic Compliance Matrix: (Units=1/GPa)
#
#
# Indices 1 2 3 4 5 6 
#
# 1 0.006996 -0.000863 -0.001140 0.000000 0.000000 0.000000
# 2 -0.000863 0.006209 -0.000040 0.000000 0.000000 0.000000
# 3 -0.001140 -0.000040 0.006634 0.000000 0.000000 0.000000
# 4 0.000000 0.000000 0.000000 0.021851 0.000000 0.000000
# 5 0.000000 0.000000 0.000000 0.000000 0.017343 0.000000
# 6 0.000000 0.000000 0.000000 0.000000 0.000000 0.020632
#
#
# Mechanical properties :
#
#
# Convention : Reuss Voigt Hill
#
# Bulk Modulus (GPa) = 63.48400 63.53916 63.51158
# Shear Modulus (GPa) = 56.17842 58.21346 57.19594
#
# Velocity S-wave (km/s) = 4.40226 4.48128 4.44194
# Velocity P-wave (km/s) = 6.90941 6.97818 6.94388
#
# Compressibility (1/GPa) = 0.01575200
#
# Stress axis : x y z
#
# Youngs Moduli (GPa) = 142.94103 161.06684 150.73615
#
# Poissons Ratio (x) = 0.13907 0.17181
# Poissons Ratio (y) = 0.12342 0.00603
# Poissons Ratio (z) = 0.16293 0.00645
#
# Static dielectric constant tensor:
#      x y z
#    x 2.107810 0.000000 0.000000 
#    y 0.000000 2.744860 0.000000 
#    z 0.000000 0.000000 2.329970 
# 
# From -- ./inp_files/10559.got.cif
#   From: 2010.05.17/outbox.cif.g08.bks.cpg/sg62_6_cif.got.tgz:10559.got - 2010.06.03 15:25:27.
