data_PCOD9467508
_publ_section_title
;
Structure prediction by ZEFSAII (Michael W. Deem and Ramdas Pophale) SiO2 
 PCOD9467508
Probable space group: P N M A
;
_chemical_formula_sum "Si O2"
_cell_formula_units_Z 40
_cell_length_a 9.423010
_cell_length_b 23.160809
_cell_length_c 7.872337
_cell_angle_alpha 90.000000
_cell_angle_beta 90.000000
_cell_angle_gamma 90.000000
_cell_volume 1718.094526
_symmetry_space_group_name_H-M "P N M A"
_symmetry_group_IT_number 62
_symmetry_cell_setting 'orthorhombic'
loop_
_space_group_symop_operation_xyz
x,y,z
1/2-x,-y,1/2+z
1/2+x,1/2-y,1/2-z
-x,1/2+y,-z
-x,-y,-z
1/2+x,y,1/2-z
1/2-x,1/2+y,1/2+z
x,1/2-y,z
loop_
_atom_site_type_symbol
_atom_site_label
_atom_site_fract_x
_atom_site_fract_y
_atom_site_fract_z
Si Si1 0.620252 0.645851 0.711642
Si Si2 0.549779 0.816079 0.080765
Si Si3 0.857437 0.925767 0.864690
Si Si4 0.754471 0.362024 0.865816
Si Si5 0.831596 0.513335 0.523722
O O1 0.519631 0.592859 0.648779
O O2 0.765292 0.628774 0.807026
O O3 0.665222 0.669006 0.526685
O O4 0.543783 0.674132 0.875263
O O5 0.591018 0.750000 0.108827
O O6 0.395031 0.830289 0.152640
O O7 0.655057 0.855163 0.194562
O O8 0.827473 0.970279 0.717524
O O9 0.778964 0.960263 0.011240
O O10 0.715830 0.427906 0.924231
O O11 0.000000 0.500000 0.500000
#
# Coordination Sequence:
#
# PCOD9467508 Si02
#       5
#     8   8   8   8   8
#     4  11  24  49  68 103 148 189 244 303 361 444
#     4  12  27  49  76 105 140 194 254 314 378 430
#     4  11  23  41  68 101 140 188 238 284 367 439
#     4  11  28  46  73 108 149 186 248 313 367 450
#     4  11  23  41  68 101 144 187 235 289 365 443
#
# _framework density 23.281604000000002
#
# number of rings (size 3 to 8) (size 9 to 14) (size 15 to 20)
#    0.000    0.800    6.000    0.600    8.400    4.800 
#    0.000    0.000    0.000    0.000    0.000    0.000 
#    0.000    0.000    0.000    0.000    0.000    0.000 
#
# Total GULP energy -222788.214746 kJ/mol
# GULP energy per Si atom -5569.705369 kJ/mol
# Density = 2.322861 g / cm^3
# Si number density = 23.281604 Si / 1000 Ang^3
#
#
#
# Elastic Constant Matrix: (Units=GPa)
#
#
# Indices 1 2 3 4 5 6 
#
# 1 108.2791 25.3074 48.5232 0.0000 0.0000 0.0000
# 2 25.3074 49.8873 31.3308 0.0000 0.0000 0.0000
# 3 48.5232 31.3308 89.0908 0.0000 0.0000 0.0000
# 4 0.0000 0.0000 0.0000 8.9096 0.0000 0.0000
# 5 0.0000 0.0000 0.0000 0.0000 37.6843 0.0000
# 6 0.0000 0.0000 0.0000 0.0000 0.0000 13.9789
#
#
#
# Elastic Compliance Matrix: (Units=1/GPa)
#
#
# Indices 1 2 3 4 5 6 
#
# 1 0.012484 -0.002648 -0.005868 0.000000 0.000000 0.000000
# 2 -0.002648 0.026289 -0.007803 0.000000 0.000000 0.000000
# 3 -0.005868 -0.007803 0.017165 0.000000 0.000000 0.000000
# 4 0.000000 0.000000 0.000000 0.112238 0.000000 0.000000
# 5 0.000000 0.000000 0.000000 0.000000 0.026536 0.000000
# 6 0.000000 0.000000 0.000000 0.000000 0.000000 0.071536
#
#
# Mechanical properties :
#
#
# Convention : Reuss Voigt Hill
#
# Bulk Modulus (GPa) = 42.91891 50.84221 46.88056
# Shear Modulus (GPa) = 16.30509 21.58763 18.94636
#
# Velocity S-wave (km/s) = 2.64927 3.04836 2.85580
# Velocity P-wave (km/s) = 5.27569 5.85452 5.57262
#
# Compressibility (1/GPa) = 0.02329976
#
# Stress axis : x y z
#
# Youngs Moduli (GPa) = 80.10281 38.03896 58.25873
#
# Poissons Ratio (x) = 0.10071 0.34188
# Poissons Ratio (y) = 0.21207 0.45460
# Poissons Ratio (z) = 0.47007 0.29682
#
# Static dielectric constant tensor:
#      x y z
#    x 1.689540 0.000000 0.000000 
#    y 0.000000 1.934390 0.000000 
#    z 0.000000 0.000000 1.712770 
# 
# From -- ./inp_files/4260.got.cif
#   From: 2010.05.17/outbox.cif.g08.bks.cpg/sg62_3_cif.got.tgz:4260.got - 2010.06.03 15:25:27.
