data_PCOD9467151
_publ_section_title
;
Structure prediction by ZEFSAII (Michael W. Deem and Ramdas Pophale) SiO2 
 PCOD9467151
Probable space group: P N M A
;
_chemical_formula_sum "Si O2"
_cell_formula_units_Z 24
_cell_length_a 23.731529
_cell_length_b 7.894689
_cell_length_c 4.821375
_cell_angle_alpha 90.000000
_cell_angle_beta 90.000000
_cell_angle_gamma 90.000000
_cell_volume 903.299268
_symmetry_space_group_name_H-M "P N M A"
_symmetry_group_IT_number 62
_symmetry_cell_setting 'orthorhombic'
loop_
_space_group_symop_operation_xyz
x,y,z
1/2-x,-y,1/2+z
1/2+x,1/2-y,1/2-z
-x,1/2+y,-z
-x,-y,-z
1/2+x,y,1/2-z
1/2-x,1/2+y,1/2+z
x,1/2-y,z
loop_
_atom_site_type_symbol
_atom_site_label
_atom_site_fract_x
_atom_site_fract_y
_atom_site_fract_z
Si Si1 0.608850 0.442227 0.272804
Si Si2 0.215930 0.054959 0.875807
Si Si3 0.513286 0.250000 0.552410
Si Si4 0.937183 0.250000 0.445615
O O1 0.623266 0.250000 0.167319
O O2 0.659940 0.502706 0.465780
O O3 0.553354 0.404185 0.456809
O O4 0.594853 0.581410 0.044167
O O5 0.208345 0.250000 0.802053
O O6 0.234116 0.959664 0.600680
O O7 0.495407 0.250000 0.871158
O O8 0.456929 0.250000 0.368718
#
# Coordination Sequence:
#
# PCOD9467151 Si02
#       4
#     8   8   4   4
#     4   9  24  43  64  98 128 171 214 269 324 386
#     4  11  25  45  69  99 135 174 223 280 334 397
#     4  10  24  42  64  94 132 168 216 264 324 382
#     4  12  22  42  66  94 128 172 214 264 318 396
#
# _framework density 26.569268000000001
#
# number of rings (size 3 to 8) (size 9 to 14) (size 15 to 20)
#    1.000    0.667    0.000    3.000    4.667    5.333 
#    0.000    0.000    0.000    0.000    0.000    0.000 
#    0.000    0.000    0.000    0.000    0.000    0.000 
#
# Total GULP energy -134630.972391 kJ/mol
# GULP energy per Si atom -5609.623850 kJ/mol
# Density = 2.650880 g / cm^3
# Si number density = 26.569268 Si / 1000 Ang^3
#
#
#
# Elastic Constant Matrix: (Units=GPa)
#
#
# Indices 1 2 3 4 5 6 
#
# 1 105.0451 10.0877 30.9817 0.0000 0.0000 0.0000
# 2 10.0877 89.4335 38.6720 0.0000 0.0000 0.0000
# 3 30.9817 38.6720 97.8546 0.0000 0.0000 0.0000
# 4 0.0000 0.0000 0.0000 5.4237 0.0000 0.0000
# 5 0.0000 0.0000 0.0000 0.0000 49.9094 0.0000
# 6 0.0000 0.0000 0.0000 0.0000 0.0000 264.9750
#
#
#
# Elastic Compliance Matrix: (Units=1/GPa)
#
#
# Indices 1 2 3 4 5 6 
#
# 1 0.010507 0.000306 -0.003447 0.000000 0.000000 0.000000
# 2 0.000306 0.013495 -0.005430 0.000000 0.000000 0.000000
# 3 -0.003447 -0.005430 0.013457 0.000000 0.000000 0.000000
# 4 0.000000 0.000000 0.000000 0.184374 0.000000 0.000000
# 5 0.000000 0.000000 0.000000 0.000000 0.020036 0.000000
# 6 0.000000 0.000000 0.000000 0.000000 0.000000 0.003774
#
#
# Mechanical properties :
#
#
# Convention : Reuss Voigt Hill
#
# Bulk Modulus (GPa) = 49.22436 50.20178 49.71307
# Shear Modulus (GPa) = 18.54883 78.23442 48.39163
#
# Velocity S-wave (km/s) = 2.64508 5.43225 4.27234
# Velocity P-wave (km/s) = 5.28163 7.63423 6.56419
#
# Compressibility (1/GPa) = 0.02031515
#
# Stress axis : x y z
#
# Youngs Moduli (GPa) = 95.17336 74.10155 74.31285
#
# Poissons Ratio (x) = -0.02264 0.25619
# Poissons Ratio (y) = -0.02908 0.40351
# Poissons Ratio (z) = 0.32810 0.40237
#
# Static dielectric constant tensor:
#      x y z
#    x 2.099160 0.000000 0.000000 
#    y 0.000000 2.073770 0.000000 
#    z 0.000000 0.000000 1.972410 
# 
# From -- ./inp_files/2471.got.cif
#   From: 2010.05.17/outbox.cif.g08.bks.cpg/sg62_2_cif.got.tgz:2471.got - 2010.06.03 15:25:27.
