data_PCOD9467198
_publ_section_title
;
Structure prediction by ZEFSAII (Michael W. Deem and Ramdas Pophale) SiO2 
 PCOD9467198
Probable space group: P N M A
;
_chemical_formula_sum "Si O2"
_cell_formula_units_Z 32
_cell_length_a 8.431831
_cell_length_b 18.516213
_cell_length_c 8.047635
_cell_angle_alpha 90.000000
_cell_angle_beta 90.000000
_cell_angle_gamma 90.000000
_cell_volume 1256.441672
_symmetry_space_group_name_H-M "P N M A"
_symmetry_group_IT_number 62
_symmetry_cell_setting 'orthorhombic'
loop_
_space_group_symop_operation_xyz
x,y,z
1/2-x,-y,1/2+z
1/2+x,1/2-y,1/2-z
-x,1/2+y,-z
-x,-y,-z
1/2+x,y,1/2-z
1/2-x,1/2+y,1/2+z
x,1/2-y,z
loop_
_atom_site_type_symbol
_atom_site_label
_atom_site_fract_x
_atom_site_fract_y
_atom_site_fract_z
Si Si1 0.255850 0.868959 0.641642
Si Si2 0.117495 0.637117 0.971922
Si Si3 0.348361 0.972607 0.102619
Si Si4 0.530596 0.670835 0.170470
O O1 0.438138 0.863328 0.593054
O O2 0.219696 0.832308 0.818551
O O3 0.147192 0.842848 0.487160
O O4 0.213232 0.952764 0.676570
O O5 0.194377 0.559403 0.012513
O O6 0.115385 0.673714 0.151431
O O7 0.419366 0.900407 0.188398
O O8 0.500000 0.000000 0.000000
O O9 0.456167 0.750000 0.144380
#
# Coordination Sequence:
#
# PCOD9467198 Si02
#       4
#     8   8   8   8
#     4  11  26  45  74 113 147 198 253 316 374 451
#     4  12  26  45  76 110 150 196 251 311 381 447
#     4  10  24  44  73 110 146 192 249 308 373 438
#     4  11  27  51  76 108 152 201 253 315 386 456
#
# _framework density 25.46875
#
# number of rings (size 3 to 8) (size 9 to 14) (size 15 to 20)
#    0.000    1.000    0.000    5.250   14.000    5.000 
#    0.000    2.500    0.000    0.000    0.000    0.000 
#    0.000    0.000    0.000    0.000    0.000    0.000 
#
# Total GULP energy -178703.095472 kJ/mol
# GULP energy per Si atom -5584.471734 kJ/mol
# Density = 2.541078 g / cm^3
# Si number density = 25.468750 Si / 1000 Ang^3
#
#
#
# Elastic Constant Matrix: (Units=GPa)
#
#
# Indices 1 2 3 4 5 6 
#
# 1 105.6133 37.3286 31.5618 0.0000 0.0000 0.0000
# 2 37.3286 184.2711 59.2934 0.0000 0.0000 0.0000
# 3 31.5618 59.2934 179.1267 0.0000 0.0000 0.0000
# 4 0.0000 0.0000 0.0000 -10.4289 0.0000 0.0000
# 5 0.0000 0.0000 0.0000 0.0000 22.7739 0.0000
# 6 0.0000 0.0000 0.0000 0.0000 0.0000 18.2842
#
#
#
# Elastic Compliance Matrix: (Units=1/GPa)
#
#
# Indices 1 2 3 4 5 6 
#
# 1 0.010453 -0.001707 -0.001277 0.000000 0.000000 0.000000
# 2 -0.001707 0.006352 -0.001802 0.000000 0.000000 0.000000
# 3 -0.001277 -0.001802 0.006404 0.000000 0.000000 0.000000
# 4 0.000000 0.000000 0.000000 -0.095887 0.000000 0.000000
# 5 0.000000 0.000000 0.000000 0.000000 0.043910 0.000000
# 6 0.000000 0.000000 0.000000 0.000000 0.000000 0.054692
#
#
# Mechanical properties :
#
#
# Convention : Reuss Voigt Hill
#
# Bulk Modulus (GPa) = 73.32149 80.59764 76.95956
# Shear Modulus (GPa) = 124.86949 28.84767 76.85858
#
# Velocity S-wave (km/s) = 7.00963 3.36917 5.49937
# Velocity P-wave (km/s) = 9.71414 6.84467 8.40280
#
# Compressibility (1/GPa) = 0.01363857
#
# Stress axis : x y z
#
# Youngs Moduli (GPa) = 95.66335 157.42197 156.14956
#
# Poissons Ratio (x) = 0.26867 0.19939
# Poissons Ratio (y) = 0.16327 0.28138
# Poissons Ratio (z) = 0.12215 0.28367
#
# Static dielectric constant tensor:
#      x y z
#    x 1.987150 0.000000 0.000000 
#    y 0.000000 1.921950 0.000000 
#    z 0.000000 0.000000 2.079360 
# 
# From -- ./inp_files/4119.got.cif
#   From: 2010.05.17/outbox.cif.g08.bks.cpg/sg62_3_cif.got.tgz:4119.got - 2010.06.03 15:25:27.
