data_PCOD9467901
_publ_section_title
;
Structure prediction by ZEFSAII (Michael W. Deem and Ramdas Pophale) SiO2 
 PCOD9467901
Probable space group: P N M A
;
_chemical_formula_sum "Si O2"
_cell_formula_units_Z 56
_cell_length_a 21.000000
_cell_length_b 9.000000
_cell_length_c 15.000000
_cell_angle_alpha 90.000000
_cell_angle_beta 90.000000
_cell_angle_gamma 90.000000
_cell_volume 2835.000000
_symmetry_space_group_name_H-M "P N M A"
_symmetry_group_IT_number 62
_symmetry_cell_setting 'orthorhombic'
loop_
_space_group_symop_operation_xyz
x,y,z
1/2-x,-y,1/2+z
1/2+x,1/2-y,1/2-z
-x,1/2+y,-z
-x,-y,-z
1/2+x,y,1/2-z
1/2-x,1/2+y,1/2+z
x,1/2-y,z
loop_
_atom_site_type_symbol
_atom_site_label
_atom_site_fract_x
_atom_site_fract_y
_atom_site_fract_z
Si Si1 0.699896 0.428732 0.432264
Si Si2 0.096356 0.571579 0.371360
Si Si3 0.001054 0.574781 0.759940
Si Si4 0.135581 0.427757 0.744121
Si Si5 0.777314 0.429209 0.738852
Si Si6 0.658072 0.928341 0.947766
Si Si7 0.940754 0.574638 0.950898
O O1 0.694836 0.250000 0.425101
O O2 0.708435 0.497603 0.334269
O O3 0.768419 0.459088 0.477851
O O4 0.631456 0.479783 0.470905
O O5 0.089303 0.750000 0.363395
O O6 0.163417 0.530220 0.323734
O O7 0.108332 0.535046 0.474650
O O8 0.036836 0.495490 0.323153
O O9 0.010393 0.750000 0.745758
O O10 0.070077 0.501342 0.777390
O O11 0.955589 0.554420 0.845912
O O12 0.129075 0.250000 0.749435
O O13 0.204279 0.469083 0.788252
O O14 0.143620 0.482346 0.641919
O O15 0.777556 0.250000 0.747561
O O16 0.654811 0.750000 0.930318
O O17 0.942850 0.750000 0.971312
O O18 0.000000 0.500000 0.000000
#
# Coordination Sequence:
#
# PCOD9467901 Si02
#       7
#     8   8   8   8   8   8   8
#     4   9  17  34  56  78 107 143 181 224 278 333
#     4  10  20  35  57  85 112 146 190 233 283 339
#     4  11  23  39  57  82 114 151 191 231 279 337
#     4  10  21  37  57  83 115 151 189 232 283 335
#     4   9  18  33  56  82 107 140 186 234 280 334
#     4   9  19  35  57  83 111 145 187 234 282 333
#     4  10  22  37  56  83 113 148 187 227 278 336
#
# _framework density 19.753086
#
# number of rings (size 3 to 8) (size 9 to 14) (size 15 to 20)
#    0.000    2.286    1.429    0.857    0.000    4.571 
#    0.000    2.857    0.000    0.000    0.000    0.000 
#    0.000    0.000    0.000    0.000    0.000    0.000 
#
# Total GULP energy -312416.288498 kJ/mol
# GULP energy per Si atom -5578.862295 kJ/mol
# Density = 1.970813 g / cm^3
# Si number density = 19.753086 Si / 1000 Ang^3
#
#
#
# Elastic Constant Matrix: (Units=GPa)
#
#
# Indices 1 2 3 4 5 6 
#
# 1 90.6079 18.7795 -17.7854 0.0000 0.0000 0.0000
# 2 18.7795 20.8857 1.4471 0.0000 0.0000 0.0000
# 3 -17.7854 1.4471 5.2877 0.0000 0.0000 0.0000
# 4 0.0000 0.0000 0.0000 22.1918 0.0000 0.0000
# 5 0.0000 0.0000 0.0000 0.0000 35.1343 0.0000
# 6 0.0000 0.0000 0.0000 0.0000 0.0000 33.6902
#
#
#
# Elastic Compliance Matrix: (Units=1/GPa)
#
#
# Indices 1 2 3 4 5 6 
#
# 1 0.286149 -0.330241 1.052862 0.000000 0.000000 0.000000
# 2 -0.330241 0.429931 -1.228450 0.000000 0.000000 0.000000
# 3 1.052862 -1.228450 4.066693 0.000000 0.000000 0.000000
# 4 0.000000 0.000000 0.000000 0.045062 0.000000 0.000000
# 5 0.000000 0.000000 0.000000 0.000000 0.028462 0.000000
# 6 0.000000 0.000000 0.000000 0.000000 0.000000 0.029682
#
#
# Mechanical properties :
#
#
# Convention : Reuss Voigt Hill
#
# Bulk Modulus (GPa) = 0.26517 13.51816 6.89167
# Shear Modulus (GPa) = 0.69884 25.82594 13.26239
#
# Velocity S-wave (km/s) = 0.59545 3.61977 2.59397
# Velocity P-wave (km/s) = 0.77928 4.93242 3.53101
#
# Compressibility (1/GPa) = 3.77111566
#
# Stress axis : x y z
#
# Youngs Moduli (GPa) = 3.49468 2.32595 0.24590
#
# Poissons Ratio (x) = 0.76812 -0.25890
# Poissons Ratio (y) = 1.15409 0.30208
# Poissons Ratio (z) = -3.67942 2.85732
#
# Static dielectric constant tensor:
#      x y z
#    x 1.724650 0.000000 0.000000 
#    y 0.000000 1.659930 0.000000 
#    z 0.000000 0.000000 1.704070 
# 
# From -- ./inp_files/20197.got.cif
#   From: 2010.05.17/outbox.ucp.g08.bks.cvg/sg62_11_cif.got.tgz:20197.got - 2010.06.11 16:29:25.
