data_PCOD9467662
_publ_section_title
;
Structure prediction by ZEFSAII (Michael W. Deem and Ramdas Pophale) SiO2 
 PCOD9467662
Probable space group: P N M A
;
_chemical_formula_sum "Si O2"
_cell_formula_units_Z 40
_cell_length_a 8.253888
_cell_length_b 21.720562
_cell_length_c 9.741844
_cell_angle_alpha 90.000000
_cell_angle_beta 90.000000
_cell_angle_gamma 90.000000
_cell_volume 1746.508889
_symmetry_space_group_name_H-M "P N M A"
_symmetry_group_IT_number 62
_symmetry_cell_setting 'orthorhombic'
loop_
_space_group_symop_operation_xyz
x,y,z
1/2-x,-y,1/2+z
1/2+x,1/2-y,1/2-z
-x,1/2+y,-z
-x,-y,-z
1/2+x,y,1/2-z
1/2-x,1/2+y,1/2+z
x,1/2-y,z
loop_
_atom_site_type_symbol
_atom_site_label
_atom_site_fract_x
_atom_site_fract_y
_atom_site_fract_z
Si Si1 0.955379 0.750000 0.368937
Si Si2 0.073862 0.750000 0.061241
Si Si3 0.599821 0.880810 0.066676
Si Si4 0.774164 0.575673 0.798994
Si Si5 0.280799 0.933861 0.196813
Si Si6 0.906034 0.381152 0.057684
O O1 0.765651 0.750000 0.403458
O O2 0.039371 0.688972 0.427654
O O3 0.979800 0.750000 0.204929
O O4 0.041307 0.812088 0.977781
O O5 0.454981 0.921449 0.130522
O O6 0.749460 0.891509 0.170849
O O7 0.650707 0.903208 0.917659
O O8 0.743264 0.504556 0.764359
O O9 0.743844 0.615960 0.663688
O O10 0.949817 0.584293 0.865004
O O11 0.151118 0.914084 0.081185
#
# Coordination Sequence:
#
# PCOD9467662 Si02
#       6
#     4   4   8   8   8   8
#     4  12  24  47  71 102 136 176 244 288 338 419
#     4  12  28  47  77  98 148 176 244 290 352 423
#     4  12  24  42  76 102 139 191 236 293 353 408
#     4  12  27  45  70 105 148 182 235 291 360 422
#     4  12  23  46  71 107 141 188 237 290 349 426
#     4  12  26  46  69 103 141 190 232 292 355 417
#
# _framework density 22.902832
#
# number of rings (size 3 to 8) (size 9 to 14) (size 15 to 20)
#    0.000    0.000    4.000    6.000    2.800    1.600 
#    0.000    0.000    0.000    0.000    0.000    0.000 
#    0.000    0.000    0.000    0.000    0.000    0.000 
#
# Total GULP energy -224433.691777 kJ/mol
# GULP energy per Si atom -5610.842294 kJ/mol
# Density = 2.285070 g / cm^3
# Si number density = 22.902832 Si / 1000 Ang^3
#
#
#
# Elastic Constant Matrix: (Units=GPa)
#
#
# Indices 1 2 3 4 5 6 
#
# 1 55.7957 5.6183 12.0897 0.0000 0.0000 0.0000
# 2 5.6183 101.1180 20.0327 0.0000 0.0000 0.0000
# 3 12.0897 20.0327 53.8455 0.0000 0.0000 0.0000
# 4 0.0000 0.0000 0.0000 -2.7152 0.0000 0.0000
# 5 0.0000 0.0000 0.0000 0.0000 23.3309 0.0000
# 6 0.0000 0.0000 0.0000 0.0000 0.0000 29.7833
#
#
#
# Elastic Compliance Matrix: (Units=1/GPa)
#
#
# Indices 1 2 3 4 5 6 
#
# 1 0.018844 -0.000225 -0.004147 0.000000 0.000000 0.000000
# 2 -0.000225 0.010679 -0.003922 0.000000 0.000000 0.000000
# 3 -0.004147 -0.003922 0.020962 0.000000 0.000000 0.000000
# 4 0.000000 0.000000 0.000000 -0.368300 0.000000 0.000000
# 5 0.000000 0.000000 0.000000 0.000000 0.042862 0.000000
# 6 0.000000 0.000000 0.000000 0.000000 0.000000 0.033576
#
#
# Mechanical properties :
#
#
# Convention : Reuss Voigt Hill
#
# Bulk Modulus (GPa) = 29.50275 31.80450 30.65363
# Shear Modulus (GPa) = -23.42038 21.61438 -0.90300
#
# Velocity S-wave (km/s) = -3.20128 3.07537 -0.62859
# Velocity P-wave (km/s) = 0.86866 5.15048 3.58977
#
# Compressibility (1/GPa) = 0.03389514
#
# Stress axis : x y z
#
# Youngs Moduli (GPa) = 53.06783 93.64144 47.70526
#
# Poissons Ratio (x) = 0.02111 0.19784
# Poissons Ratio (y) = 0.01196 0.18712
# Poissons Ratio (z) = 0.22007 0.36730
#
# Static dielectric constant tensor:
#      x y z
#    x 1.914720 0.000000 0.000000 
#    y 0.000000 1.795540 0.000000 
#    z 0.000000 0.000000 1.806050 
# 
# From -- ./inp_files/4323.got.cif
#   From: 2010.05.17/outbox.cif.g08.bks.cpg/sg62_3_cif.got.tgz:4323.got - 2010.06.03 15:25:27.
