data_PCOD9467767
_publ_section_title
;
Structure prediction by ZEFSAII (Michael W. Deem and Ramdas Pophale) SiO2 
 PCOD9467767
Probable space group: P N M A
;
_chemical_formula_sum "Si O2"
_cell_formula_units_Z 64
_cell_length_a 12.000000
_cell_length_b 12.000000
_cell_length_c 27.000000
_cell_angle_alpha 90.000000
_cell_angle_beta 90.000000
_cell_angle_gamma 90.000000
_cell_volume 3888.000000
_symmetry_space_group_name_H-M "P N M A"
_symmetry_group_IT_number 62
_symmetry_cell_setting 'orthorhombic'
loop_
_space_group_symop_operation_xyz
x,y,z
1/2-x,-y,1/2+z
1/2+x,1/2-y,1/2-z
-x,1/2+y,-z
-x,-y,-z
1/2+x,y,1/2-z
1/2-x,1/2+y,1/2+z
x,1/2-y,z
loop_
_atom_site_type_symbol
_atom_site_label
_atom_site_fract_x
_atom_site_fract_y
_atom_site_fract_z
Si Si1 0.081372 0.618107 0.320721
Si Si2 0.053716 0.877790 0.025057
Si Si3 0.321937 0.984451 0.461471
Si Si4 0.299308 0.114732 0.616825
Si Si5 0.332979 0.619350 0.354840
Si Si6 0.052600 0.039724 0.584819
Si Si7 0.947715 0.384737 0.792281
Si Si8 0.098055 0.623454 0.501669
O O1 0.049081 0.750000 0.325510
O O2 0.214392 0.612309 0.327828
O O3 0.054485 0.578100 0.264935
O O4 0.022269 0.553117 0.365895
O O5 0.039931 0.750000 0.036048
O O6 0.112664 0.924835 0.074814
O O7 0.928660 0.919989 0.015165
O O8 0.140755 0.894694 0.980177
O O9 0.326674 0.955261 0.403898
O O10 0.203581 0.948706 0.483138
O O11 0.295280 0.250000 0.616611
O O12 0.177190 0.072922 0.601378
O O13 0.347466 0.079993 0.670706
O O14 0.348209 0.750000 0.369839
O O15 0.436193 0.588844 0.319777
O O16 0.996363 0.114119 0.541071
O O17 0.057692 0.923339 0.554613
O O18 0.940731 0.250000 0.789696
O O19 0.134887 0.750000 0.505422
#
# Coordination Sequence:
#
# PCOD9467767 Si02
#       8
#     8   8   8   8   8   8   8   8
#     4  10  20  32  49  72 101 133 166 204 248 303
#     4  10  20  32  50  76 104 135 167 207 250 298
#     4  11  19  33  52  73 103 136 172 204 248 304
#     4  10  18  31  47  71 106 134 159 201 253 298
#     4  10  18  31  49  70  99 134 168 203 248 303
#     4  11  22  34  49  74 103 137 168 204 252 300
#     4   9  19  31  47  73 102 134 165 202 253 305
#     4  11  22  36  52  74 102 137 174 208 247 301
#
# _framework density 16.460905
#
# number of rings (size 3 to 8) (size 9 to 14) (size 15 to 20)
#    0.000    1.750    3.750    2.250    1.750    0.000 
#    0.000    0.000    0.000    0.000    0.000    1.750 
#    0.000    0.000    0.000    0.000    0.000    0.000 
#
# Total GULP energy -356335.837484 kJ/mol
# GULP energy per Si atom -5567.747461 kJ/mol
# Density = 1.642344 g / cm^3
# Si number density = 16.460905 Si / 1000 Ang^3
#
#
#
# Elastic Constant Matrix: (Units=GPa)
#
#
# Indices 1 2 3 4 5 6 
#
# 1 95.6589 12.2290 40.2345 0.0000 0.0000 0.0000
# 2 12.2290 3.3325 8.2284 0.0000 0.0000 0.0000
# 3 40.2345 8.2284 131.7737 0.0000 0.0000 0.0000
# 4 0.0000 0.0000 0.0000 21.1772 0.0000 0.0000
# 5 0.0000 0.0000 0.0000 0.0000 26.3652 0.0000
# 6 0.0000 0.0000 0.0000 0.0000 0.0000 13.4957
#
#
#
# Elastic Compliance Matrix: (Units=1/GPa)
#
#
# Indices 1 2 3 4 5 6 
#
# 1 0.020049 -0.069112 -0.001806 0.000000 0.000000 0.000000
# 2 -0.069112 0.593018 -0.015928 0.000000 0.000000 0.000000
# 3 -0.001806 -0.015928 0.009135 0.000000 0.000000 0.000000
# 4 0.000000 0.000000 0.000000 0.047221 0.000000 0.000000
# 5 0.000000 0.000000 0.000000 0.000000 0.037929 0.000000
# 6 0.000000 0.000000 0.000000 0.000000 0.000000 0.074098
#
#
# Mechanical properties :
#
#
# Convention : Reuss Voigt Hill
#
# Bulk Modulus (GPa) = 2.22960 39.12764 20.67862
# Shear Modulus (GPa) = 4.52635 23.54583 14.03609
#
# Velocity S-wave (km/s) = 1.66004 3.78618 2.92326
# Velocity P-wave (km/s) = 2.24315 6.55249 4.89729
#
# Compressibility (1/GPa) = 0.44850995
#
# Stress axis : x y z
#
# Youngs Moduli (GPa) = 49.87893 1.68629 109.47198
#
# Poissons Ratio (x) = 0.11654 0.19769
# Poissons Ratio (y) = 3.44721 1.74368
# Poissons Ratio (z) = 0.09008 0.02686
#
# Static dielectric constant tensor:
#      x y z
#    x 1.570890 0.000000 0.000000 
#    y 0.000000 1.607500 0.000000 
#    z 0.000000 0.000000 1.588190 
# 
# From -- ./inp_files/31216.got.cif
#   From: 2010.05.17/outbox.ucp.g08.bks.cvg/sg62_16_cif.got.tgz:31216.got - 2010.06.11 16:29:25.
