data_PCOD9467302
_publ_section_title
;
Structure prediction by ZEFSAII (Michael W. Deem and Ramdas Pophale) SiO2 
 PCOD9467302
Probable space group: P N M A
;
_chemical_formula_sum "Si O2"
_cell_formula_units_Z 40
_cell_length_a 8.598858
_cell_length_b 18.719677
_cell_length_c 12.420336
_cell_angle_alpha 90.000000
_cell_angle_beta 90.000000
_cell_angle_gamma 90.000000
_cell_volume 1999.274712
_symmetry_space_group_name_H-M "P N M A"
_symmetry_group_IT_number 62
_symmetry_cell_setting 'orthorhombic'
loop_
_space_group_symop_operation_xyz
x,y,z
1/2-x,-y,1/2+z
1/2+x,1/2-y,1/2-z
-x,1/2+y,-z
-x,-y,-z
1/2+x,y,1/2-z
1/2-x,1/2+y,1/2+z
x,1/2-y,z
loop_
_atom_site_type_symbol
_atom_site_label
_atom_site_fract_x
_atom_site_fract_y
_atom_site_fract_z
Si Si1 0.762243 0.898230 0.220471
Si Si2 0.562217 0.667710 0.388876
Si Si3 0.653372 0.953158 0.013257
Si Si4 0.201731 0.441539 0.199469
Si Si5 0.134036 0.921854 0.902228
O O1 0.708596 0.842852 0.310106
O O2 0.646278 0.903251 0.117679
O O3 0.926019 0.877650 0.168392
O O4 0.752467 0.976435 0.275586
O O5 0.516892 0.750000 0.397214
O O6 0.599429 0.634831 0.505229
O O7 0.795137 0.008090 0.039556
O O8 0.697140 0.915751 0.901952
O O9 0.500000 0.000000 0.000000
O O10 0.240347 0.401669 0.310582
O O11 0.023725 0.438334 0.162917
#
# Coordination Sequence:
#
# PCOD9467302 Si02
#       5
#     8   8   8   8   8
#     4  11  22  38  65  95 127 162 216 263 331 369
#     4  12  25  44  63  89 135 180 213 252 306 402
#     4  11  20  35  63  99 132 154 200 280 335 372
#     4  11  20  37  65  95 129 156 203 288 325 368
#     4  11  23  40  62  97 130 167 212 261 334 375
#
# _framework density 20.007256000000002
#
# number of rings (size 3 to 8) (size 9 to 14) (size 15 to 20)
#    0.000    0.800    4.000    7.200    0.000    0.000 
#    0.000    1.000    0.000    0.000    0.000    0.000 
#    0.000    0.000    0.000    0.000    0.000    0.000 
#
# Total GULP energy -223486.766262 kJ/mol
# GULP energy per Si atom -5587.169157 kJ/mol
# Density = 1.996172 g / cm^3
# Si number density = 20.007256 Si / 1000 Ang^3
#
#
#
# Elastic Constant Matrix: (Units=GPa)
#
#
# Indices 1 2 3 4 5 6 
#
# 1 94.5113 13.6968 42.0307 0.0000 0.0000 0.0000
# 2 13.6968 59.0678 31.6182 0.0000 0.0000 0.0000
# 3 42.0307 31.6182 159.0019 0.0000 0.0000 0.0000
# 4 0.0000 0.0000 0.0000 16.9142 0.0000 0.0000
# 5 0.0000 0.0000 0.0000 0.0000 48.7519 0.0000
# 6 0.0000 0.0000 0.0000 0.0000 0.0000 11.7214
#
#
#
# Elastic Compliance Matrix: (Units=1/GPa)
#
#
# Indices 1 2 3 4 5 6 
#
# 1 0.012068 -0.001221 -0.002947 0.000000 0.000000 0.000000
# 2 -0.001221 0.019070 -0.003469 0.000000 0.000000 0.000000
# 3 -0.002947 -0.003469 0.007758 0.000000 0.000000 0.000000
# 4 0.000000 0.000000 0.000000 0.059122 0.000000 0.000000
# 5 0.000000 0.000000 0.000000 0.000000 0.020512 0.000000
# 6 0.000000 0.000000 0.000000 0.000000 0.000000 0.085314
#
#
# Mechanical properties :
#
#
# Convention : Reuss Voigt Hill
#
# Bulk Modulus (GPa) = 42.33449 54.14138 48.23793
# Shear Modulus (GPa) = 22.02702 30.49317 26.26010
#
# Velocity S-wave (km/s) = 3.32166 3.90822 3.62681
# Velocity P-wave (km/s) = 5.99306 6.89095 6.45763
#
# Compressibility (1/GPa) = 0.02362140
#
# Stress axis : x y z
#
# Youngs Moduli (GPa) = 82.86082 52.43861 128.89462
#
# Poissons Ratio (x) = 0.06401 0.37991
# Poissons Ratio (y) = 0.10115 0.44719
# Poissons Ratio (z) = 0.24423 0.18193
#
# Static dielectric constant tensor:
#      x y z
#    x 1.772970 0.000000 0.000000 
#    y 0.000000 1.685840 0.000000 
#    z 0.000000 0.000000 1.763750 
# 
# From -- ./inp_files/11065.got.cif
#   From: 2010.05.17/outbox.cif.g08.bks.cpg/sg62_6_cif.got.tgz:11065.got - 2010.06.03 15:25:27.
