data_PCOD9467134
_publ_section_title
;
Structure prediction by ZEFSAII (Michael W. Deem and Ramdas Pophale) SiO2 
 PCOD9467134
Probable space group: P N M A
;
_chemical_formula_sum "Si O2"
_cell_formula_units_Z 36
_cell_length_a 19.504560
_cell_length_b 9.403043
_cell_length_c 8.937651
_cell_angle_alpha 90.000000
_cell_angle_beta 90.000000
_cell_angle_gamma 90.000000
_cell_volume 1639.185003
_symmetry_space_group_name_H-M "P N M A"
_symmetry_group_IT_number 62
_symmetry_cell_setting 'orthorhombic'
loop_
_space_group_symop_operation_xyz
x,y,z
1/2-x,-y,1/2+z
1/2+x,1/2-y,1/2-z
-x,1/2+y,-z
-x,-y,-z
1/2+x,y,1/2-z
1/2-x,1/2+y,1/2+z
x,1/2-y,z
loop_
_atom_site_type_symbol
_atom_site_label
_atom_site_fract_x
_atom_site_fract_y
_atom_site_fract_z
Si Si1 0.301366 0.583258 0.835151
Si Si2 0.968052 0.589279 0.365341
Si Si3 0.529938 0.750000 0.538237
Si Si4 0.574381 0.505143 0.378099
Si Si5 0.166752 0.918188 0.639480
O O1 0.308473 0.750000 0.877076
O O2 0.359804 0.545398 0.713429
O O3 0.228541 0.563421 0.754977
O O4 0.311209 0.482601 0.978508
O O5 0.952698 0.750000 0.412223
O O6 0.900194 0.507483 0.316827
O O7 0.000000 0.500000 0.500000
O O8 0.024560 0.590955 0.236223
O O9 0.586436 0.622795 0.503945
O O10 0.470843 0.627324 0.569893
O O11 0.149859 0.750000 0.626509
#
# Coordination Sequence:
#
# PCOD9467134 Si02
#       5
#     8   8   4   8   8
#     4  11  25  48  70 100 141 185 230 287 347 409
#     4  12  25  43  72 103 134 178 232 281 342 408
#     4  10  24  40  66 102 134 174 226 274 350 398
#     4  11  23  45  69  99 137 181 221 288 340 415
#     4  11  27  46  71 103 137 187 234 286 346 417
#
# _framework density 21.962133999999999
#
# number of rings (size 3 to 8) (size 9 to 14) (size 15 to 20)
#    0.000    0.889    4.444    1.333    4.667    5.333 
#    4.000    0.000    0.000    0.000    0.000    0.000 
#    0.000    0.000    0.000    0.000    0.000    0.000 
#
# Total GULP energy -200455.228318 kJ/mol
# GULP energy per Si atom -5568.200787 kJ/mol
# Density = 2.191215 g / cm^3
# Si number density = 21.962134 Si / 1000 Ang^3
#
#
#
# Elastic Constant Matrix: (Units=GPa)
#
#
# Indices 1 2 3 4 5 6 
#
# 1 114.2671 39.9121 14.8094 0.0000 0.0000 0.0000
# 2 39.9121 196.2965 28.7454 0.0000 0.0000 0.0000
# 3 14.8094 28.7454 51.4032 0.0000 0.0000 0.0000
# 4 0.0000 0.0000 0.0000 71.3748 0.0000 0.0000
# 5 0.0000 0.0000 0.0000 0.0000 40.4388 0.0000
# 6 0.0000 0.0000 0.0000 0.0000 0.0000 34.7115
#
#
#
# Elastic Compliance Matrix: (Units=1/GPa)
#
#
# Indices 1 2 3 4 5 6 
#
# 1 0.009574 -0.001680 -0.001819 0.000000 0.000000 0.000000
# 2 -0.001680 0.005844 -0.002784 0.000000 0.000000 0.000000
# 3 -0.001819 -0.002784 0.021535 0.000000 0.000000 0.000000
# 4 0.000000 0.000000 0.000000 0.014011 0.000000 0.000000
# 5 0.000000 0.000000 0.000000 0.000000 0.024729 0.000000
# 6 0.000000 0.000000 0.000000 0.000000 0.000000 0.028809
#
#
# Mechanical properties :
#
#
# Convention : Reuss Voigt Hill
#
# Bulk Modulus (GPa) = 41.00551 58.76672 49.88612
# Shear Modulus (GPa) = 39.93773 47.87168 43.90471
#
# Velocity S-wave (km/s) = 4.26899 4.67383 4.47599
# Velocity P-wave (km/s) = 6.55825 7.47948 7.03396
#
# Compressibility (1/GPa) = 0.02438696
#
# Stress axis : x y z
#
# Youngs Moduli (GPa) = 104.44901 171.12641 46.43674
#
# Poissons Ratio (x) = 0.28755 0.08445
# Poissons Ratio (y) = 0.17551 0.12927
# Poissons Ratio (z) = 0.18995 0.47637
#
# Static dielectric constant tensor:
#      x y z
#    x 1.778980 0.000000 0.000000 
#    y 0.000000 1.734120 0.000000 
#    z 0.000000 0.000000 1.981250 
# 
# From -- ./inp_files/8310.got.cif
#   From: 2010.05.17/outbox.cif.g08.bks.cpg/sg62_5_cif.got.tgz:8310.got - 2010.06.03 15:25:27.
