data_PCOD9467047
_publ_section_title
;
Structure prediction by ZEFSAII (Michael W. Deem and Ramdas Pophale) SiO2 
 PCOD9467047
Probable space group: P N M A
;
_chemical_formula_sum "Si O2"
_cell_formula_units_Z 48
_cell_length_a 25.275704
_cell_length_b 10.216351
_cell_length_c 8.280996
_cell_angle_alpha 90.000000
_cell_angle_beta 90.000000
_cell_angle_gamma 90.000000
_cell_volume 2138.364033
_symmetry_space_group_name_H-M "P N M A"
_symmetry_group_IT_number 62
_symmetry_cell_setting 'orthorhombic'
loop_
_space_group_symop_operation_xyz
x,y,z
1/2-x,-y,1/2+z
1/2+x,1/2-y,1/2-z
-x,1/2+y,-z
-x,-y,-z
1/2+x,y,1/2-z
1/2-x,1/2+y,1/2+z
x,1/2-y,z
loop_
_atom_site_type_symbol
_atom_site_label
_atom_site_fract_x
_atom_site_fract_y
_atom_site_fract_z
Si Si1 0.077038 0.750000 0.934677
Si Si2 0.729713 0.901092 0.947812
Si Si3 0.034616 0.250000 0.243113
Si Si4 0.130318 0.984713 0.760792
Si Si5 0.073489 0.000255 0.417995
Si Si6 0.978720 0.250000 0.726311
Si Si7 0.683062 0.404666 0.198453
Si Si8 0.593357 0.250000 0.600007
O O1 0.108924 0.877314 0.883362
O O2 0.022949 0.750000 0.833091
O O3 0.059270 0.750000 0.117791
O O4 0.720073 0.750000 0.002747
O O5 0.685791 0.936268 0.811995
O O6 0.787376 0.906232 0.868425
O O7 0.720877 0.013725 0.078514
O O8 0.042893 0.126614 0.356851
O O9 0.075094 0.250000 0.088282
O O10 0.092134 0.995117 0.602968
O O11 0.126545 0.123714 0.847869
O O12 0.128352 0.016940 0.317164
O O13 0.038509 0.876836 0.372203
O O14 0.038427 0.250000 0.795256
O O15 0.675728 0.250000 0.151513
#
# Coordination Sequence:
#
# PCOD9467047 Si02
#       8
#     4   8   4   8   8   4   8   4
#     4  11  23  41  62  89 128 165 210 263 314 375
#     4  10  23  43  65  95 128 163 207 257 312 373
#     4  11  23  41  62  89 128 165 210 263 314 375
#     4  11  23  41  64  93 125 166 209 263 312 372
#     4  11  23  41  64  93 125 166 209 263 312 372
#     4  11  25  41  62  93 128 167 214 261 316 375
#     4  10  23  43  65  95 128 163 207 257 312 373
#     4  11  25  41  62  93 128 167 214 261 316 375
#
# _framework density 22.447064999999998
#
# number of rings (size 3 to 8) (size 9 to 14) (size 15 to 20)
#    0.000    1.333    1.667    3.000    7.000   10.000 
#    0.000    0.000    0.000    0.000    0.000    0.000 
#    0.000    0.000    0.000    0.000    0.000    0.000 
#
# Total GULP energy -268627.321350 kJ/mol
# GULP energy per Si atom -5596.402528 kJ/mol
# Density = 2.239597 g / cm^3
# Si number density = 22.447065 Si / 1000 Ang^3
#
#
#
# Elastic Constant Matrix: (Units=GPa)
#
#
# Indices 1 2 3 4 5 6 
#
# 1 34.3274 16.2645 43.5444 0.0000 0.0000 0.0000
# 2 16.2645 148.8434 29.0849 0.0000 0.0000 0.0000
# 3 43.5444 29.0849 69.3842 0.0000 0.0000 0.0000
# 4 0.0000 0.0000 0.0000 1.2580 0.0000 0.0000
# 5 0.0000 0.0000 0.0000 0.0000 42.6251 0.0000
# 6 0.0000 0.0000 0.0000 0.0000 0.0000 289.0482
#
#
#
# Elastic Compliance Matrix: (Units=1/GPa)
#
#
# Indices 1 2 3 4 5 6 
#
# 1 0.143457 0.002088 -0.090907 0.000000 0.000000 0.000000
# 2 0.002088 0.007348 -0.004391 0.000000 0.000000 0.000000
# 3 -0.090907 -0.004391 0.073304 0.000000 0.000000 0.000000
# 4 0.000000 0.000000 0.000000 0.794939 0.000000 0.000000
# 5 0.000000 0.000000 0.000000 0.000000 0.023460 0.000000
# 6 0.000000 0.000000 0.000000 0.000000 0.000000 0.003460
#
#
# Mechanical properties :
#
#
# Convention : Reuss Voigt Hill
#
# Bulk Modulus (GPa) = 26.53137 47.81583 37.17360
# Shear Modulus (GPa) = 4.01622 77.49701 40.75662
#
# Velocity S-wave (km/s) = 1.33906 5.88212 4.26570
# Velocity P-wave (km/s) = 3.77306 8.21463 6.39203
#
# Compressibility (1/GPa) = 0.03769124
#
# Stress axis : x y z
#
# Youngs Moduli (GPa) = 6.97072 136.08636 13.64174
#
# Poissons Ratio (x) = -0.28412 1.24012
# Poissons Ratio (y) = -0.01455 0.05989
# Poissons Ratio (z) = 0.63368 0.59749
#
# Static dielectric constant tensor:
#      x y z
#    x 1.848400 0.000000 0.000000 
#    y 0.000000 1.803440 0.000000 
#    z 0.000000 0.000000 1.815510 
# 
# From -- ./inp_files/10349.got.cif
#   From: 2010.05.17/outbox.cif.g08.bks.cpg/sg62_6_cif.got.tgz:10349.got - 2010.06.03 15:25:27.
