data_PCOD9467124
_publ_section_title
;
Structure prediction by ZEFSAII (Michael W. Deem and Ramdas Pophale) SiO2 
 PCOD9467124
Probable space group: P N M A
;
_chemical_formula_sum "Si O2"
_cell_formula_units_Z 48
_cell_length_a 12.990407
_cell_length_b 28.041363
_cell_length_c 5.131952
_cell_angle_alpha 90.000000
_cell_angle_beta 90.000000
_cell_angle_gamma 90.000000
_cell_volume 1869.409577
_symmetry_space_group_name_H-M "P N M A"
_symmetry_group_IT_number 62
_symmetry_cell_setting 'orthorhombic'
loop_
_space_group_symop_operation_xyz
x,y,z
1/2-x,-y,1/2+z
1/2+x,1/2-y,1/2-z
-x,1/2+y,-z
-x,-y,-z
1/2+x,y,1/2-z
1/2-x,1/2+y,1/2+z
x,1/2-y,z
loop_
_atom_site_type_symbol
_atom_site_label
_atom_site_fract_x
_atom_site_fract_y
_atom_site_fract_z
Si Si1 0.214277 0.027038 0.590005
Si Si2 0.594059 0.750000 0.994194
Si Si3 0.234103 0.750000 0.002369
Si Si4 0.175775 0.617740 0.336085
Si Si5 0.501915 0.828355 0.328060
Si Si6 0.459915 0.589516 0.001778
Si Si7 0.339550 0.831972 0.698708
O O1 0.264376 0.076241 0.690343
O O2 0.094998 0.039389 0.536332
O O3 0.266274 0.009496 0.324355
O O4 0.688758 0.750000 0.206287
O O5 0.526790 0.795462 0.080178
O O6 0.638412 0.750000 0.704849
O O7 0.299389 0.796750 0.923565
O O8 0.244523 0.650691 0.520781
O O9 0.115008 0.649908 0.120728
O O10 0.083526 0.593122 0.507353
O O11 0.442024 0.876346 0.250293
O O12 0.427688 0.804860 0.533292
O O13 0.398007 0.620219 0.791723
#
# Coordination Sequence:
#
# PCOD9467124 Si02
#       7
#     8   4   4   8   8   8   8
#     4  12  27  48  76 112 147 192 254 317 386 463
#     4  12  27  47  72 116 151 195 259 291 370 430
#     4  12  29  43  76 108 155 203 245 317 352 434
#     4  10  23  48  73 104 147 192 244 310 378 446
#     4  10  25  45  73 104 151 198 248 304 363 452
#     4  10  26  45  74 106 145 197 249 304 385 444
#     4  12  24  46  74 107 149 208 250 306 375 442
#
# _framework density 25.676553999999999
#
# number of rings (size 3 to 8) (size 9 to 14) (size 15 to 20)
#    1.000    0.000    3.333    1.500    9.333    3.333 
#    0.000    0.000    0.000    0.000    0.000    0.000 
#    0.000    0.000    0.000    0.000    0.000    0.000 
#
# Total GULP energy -268329.731880 kJ/mol
# GULP energy per Si atom -5590.202748 kJ/mol
# Density = 2.561811 g / cm^3
# Si number density = 25.676554 Si / 1000 Ang^3
#
#
#
# Elastic Constant Matrix: (Units=GPa)
#
#
# Indices 1 2 3 4 5 6 
#
# 1 159.8645 37.8188 44.7603 0.0000 0.0000 0.0000
# 2 37.8188 72.1721 9.2580 0.0000 0.0000 0.0000
# 3 44.7603 9.2580 91.7349 0.0000 0.0000 0.0000
# 4 0.0000 0.0000 0.0000 37.2368 0.0000 0.0000
# 5 0.0000 0.0000 0.0000 0.0000 52.9698 0.0000
# 6 0.0000 0.0000 0.0000 0.0000 0.0000 -108.1244
#
#
#
# Elastic Compliance Matrix: (Units=1/GPa)
#
#
# Indices 1 2 3 4 5 6 
#
# 1 0.008166 -0.003817 -0.003599 0.000000 0.000000 0.000000
# 2 -0.003817 0.015822 0.000266 0.000000 0.000000 0.000000
# 3 -0.003599 0.000266 0.012630 0.000000 0.000000 0.000000
# 4 0.000000 0.000000 0.000000 0.026855 0.000000 0.000000
# 5 0.000000 0.000000 0.000000 0.000000 0.018879 0.000000
# 6 0.000000 0.000000 0.000000 0.000000 0.000000 -0.009249
#
#
# Mechanical properties :
#
#
# Convention : Reuss Voigt Hill
#
# Bulk Modulus (GPa) = 44.80915 56.38286 50.59600
# Shear Modulus (GPa) = 52.71797 11.87872 32.29834
#
# Velocity S-wave (km/s) = 4.53609 2.15321 3.55053
# Velocity P-wave (km/s) = 6.70255 5.30927 6.04617
#
# Compressibility (1/GPa) = 0.02231687
#
# Stress axis : x y z
#
# Youngs Moduli (GPa) = 122.45713 63.20299 79.17452
#
# Poissons Ratio (x) = 0.24127 0.28497
# Poissons Ratio (y) = 0.46747 -0.02105
# Poissons Ratio (z) = 0.44075 -0.01680
#
# Static dielectric constant tensor:
#      x y z
#    x 2.092660 0.000000 0.000000 
#    y 0.000000 1.971010 0.000000 
#    z 0.000000 0.000000 2.058310 
# 
# From -- ./inp_files/1243.got.cif
#   From: 2010.05.17/outbox.cif.g08.bks.cpg/sg62_1_cif.got.tgz:1243.got - 2010.06.03 15:25:27.
