data_PCOD9467328
_publ_section_title
;
Structure prediction by ZEFSAII (Michael W. Deem and Ramdas Pophale) SiO2 
 PCOD9467328
Probable space group: P N M A
;
_chemical_formula_sum "Si O2"
_cell_formula_units_Z 56
_cell_length_a 18.861286
_cell_length_b 7.699124
_cell_length_c 19.816951
_cell_angle_alpha 90.000000
_cell_angle_beta 90.000000
_cell_angle_gamma 90.000000
_cell_volume 2877.726064
_symmetry_space_group_name_H-M "P N M A"
_symmetry_group_IT_number 62
_symmetry_cell_setting 'orthorhombic'
loop_
_space_group_symop_operation_xyz
x,y,z
1/2-x,-y,1/2+z
1/2+x,1/2-y,1/2-z
-x,1/2+y,-z
-x,-y,-z
1/2+x,y,1/2-z
1/2-x,1/2+y,1/2+z
x,1/2-y,z
loop_
_atom_site_type_symbol
_atom_site_label
_atom_site_fract_x
_atom_site_fract_y
_atom_site_fract_z
Si Si1 0.312268 0.041687 0.888060
Si Si2 0.332775 0.044084 0.459143
Si Si3 0.386234 0.463868 0.603257
Si Si4 0.532381 0.540636 0.072176
Si Si5 0.844424 0.450633 0.754448
Si Si6 0.488530 0.549259 0.212674
Si Si7 0.456851 0.541389 0.355675
O O1 0.319059 0.250000 0.881329
O O2 0.386380 0.978293 0.919761
O O3 0.305888 0.972084 0.811052
O O4 0.244287 0.007746 0.933041
O O5 0.333280 0.250000 0.465412
O O6 0.354360 0.974319 0.532758
O O7 0.391631 0.996523 0.403859
O O8 0.385583 0.250000 0.604476
O O9 0.344196 0.524758 0.670151
O O10 0.468430 0.517750 0.612123
O O11 0.533644 0.750000 0.078714
O O12 0.488291 0.473192 0.137323
O O13 0.500000 0.500000 0.000000
O O14 0.820943 0.250000 0.760879
O O15 0.927861 0.449116 0.733295
O O16 0.464630 0.750000 0.206882
O O17 0.450903 0.472075 0.278784
O O18 0.462671 0.750000 0.349508
#
# Coordination Sequence:
#
# PCOD9467328 Si02
#       7
#     8   8   8   8   8   8   8
#     4   9  18  33  51  68  89 123 163 195 227 275
#     4  11  21  30  43  69 104 129 147 185 240 288
#     4   8  15  28  48  72  92 116 155 199 235 267
#     4   9  17  31  52  75  95 118 155 202 246 284
#     4   7  11  25  49  68  80 104 151 198 222 250
#     4   7  12  25  47  71  88 108 147 193 226 262
#     4   9  16  30  51  69  89 122 162 196 227 272
#
# _framework density 19.459807999999999
#
# number of rings (size 3 to 8) (size 9 to 14) (size 15 to 20)
#    0.000    3.429    0.000    4.286    0.000    0.571 
#    0.000    2.857    0.000   13.714    0.000    0.000 
#    0.000    0.000    0.000    0.000    0.000    0.000 
#
# Total GULP energy -311739.695208 kJ/mol
# GULP energy per Si atom -5566.780272 kJ/mol
# Density = 1.941552 g / cm^3
# Si number density = 19.459808 Si / 1000 Ang^3
#
#
#
# Elastic Constant Matrix: (Units=GPa)
#
#
# Indices 1 2 3 4 5 6 
#
# 1 77.5054 3.4308 91.7283 0.0000 0.0000 0.0000
# 2 3.4308 31.8414 9.2430 0.0000 0.0000 0.0000
# 3 91.7283 9.2430 232.4734 0.0000 0.0000 0.0000
# 4 0.0000 0.0000 0.0000 18.5981 0.0000 0.0000
# 5 0.0000 0.0000 0.0000 0.0000 16.7480 0.0000
# 6 0.0000 0.0000 0.0000 0.0000 0.0000 10.4870
#
#
#
# Elastic Compliance Matrix: (Units=1/GPa)
#
#
# Indices 1 2 3 4 5 6 
#
# 1 0.024207 0.000166 -0.009558 0.000000 0.000000 0.000000
# 2 0.000166 0.031773 -0.001329 0.000000 0.000000 0.000000
# 3 -0.009558 -0.001329 0.008126 0.000000 0.000000 0.000000
# 4 0.000000 0.000000 0.000000 0.053769 0.000000 0.000000
# 5 0.000000 0.000000 0.000000 0.000000 0.059708 0.000000
# 6 0.000000 0.000000 0.000000 0.000000 0.000000 0.095356
#
#
# Mechanical properties :
#
#
# Convention : Reuss Voigt Hill
#
# Bulk Modulus (GPa) = 23.43846 61.18047 42.30947
# Shear Modulus (GPa) = 16.20206 24.99452 20.59829
#
# Velocity S-wave (km/s) = 2.88860 3.58776 3.25700
# Velocity P-wave (km/s) = 4.81622 6.97642 5.99443
#
# Compressibility (1/GPa) = 0.04266492
#
# Stress axis : x y z
#
# Youngs Moduli (GPa) = 41.31021 31.47282 123.06471
#
# Poissons Ratio (x) = -0.00524 1.17627
# Poissons Ratio (y) = -0.00687 0.16354
# Poissons Ratio (z) = 0.39485 0.04182
#
# Static dielectric constant tensor:
#      x y z
#    x 1.756790 0.000000 0.000000 
#    y 0.000000 1.744620 0.000000 
#    z 0.000000 0.000000 1.745910 
# 
# From -- ./inp_files/24660.got.cif
#   From: 2010.05.17/outbox.cif.g08.bks.cpg/sg62_13_cif.got.tgz:24660.got - 2010.06.03 15:25:27.
