data_PCOD9467695
_publ_section_title
;
Structure prediction by ZEFSAII (Michael W. Deem and Ramdas Pophale) SiO2 
 PCOD9467695
Probable space group: P N M A
;
_chemical_formula_sum "Si O2"
_cell_formula_units_Z 24
_cell_length_a 9.858041
_cell_length_b 10.945881
_cell_length_c 9.130067
_cell_angle_alpha 90.000000
_cell_angle_beta 90.000000
_cell_angle_gamma 90.000000
_cell_volume 985.179365
_symmetry_space_group_name_H-M "P N M A"
_symmetry_group_IT_number 62
_symmetry_cell_setting 'orthorhombic'
loop_
_space_group_symop_operation_xyz
x,y,z
1/2-x,-y,1/2+z
1/2+x,1/2-y,1/2-z
-x,1/2+y,-z
-x,-y,-z
1/2+x,y,1/2-z
1/2-x,1/2+y,1/2+z
x,1/2-y,z
loop_
_atom_site_type_symbol
_atom_site_label
_atom_site_fract_x
_atom_site_fract_y
_atom_site_fract_z
Si Si1 0.390012 0.607653 0.972226
Si Si2 0.699047 0.938071 0.250553
Si Si3 0.455664 0.877459 0.419868
O O1 0.431932 0.750000 0.975784
O O2 0.328145 0.573608 0.811897
O O3 0.500000 0.500000 0.000000
O O4 0.276979 0.584065 0.097202
O O5 0.552631 0.879415 0.277266
O O6 0.800840 0.883256 0.130842
O O7 0.481901 0.750000 0.500518
O O8 0.500000 0.000000 0.500000
#
# Coordination Sequence:
#
# PCOD9467695 Si02
#       3
#     8   8   8
#     4  12  28  50  77 113 154 198 253 312 378 449
#     4  12  26  48  74 107 149 195 245 303 375 443
#     4  12  26  46  73 106 148 194 245 307 375 443
#
# _framework density 24.361046000000002
#
# number of rings (size 3 to 8) (size 9 to 14) (size 15 to 20)
#    0.000    0.000    6.667    3.000    0.000    5.333 
#    0.000    0.000    0.000    0.000    0.000    0.000 
#    0.000    0.000    0.000    0.000    0.000    0.000 
#
# Total GULP energy -133959.449618 kJ/mol
# GULP energy per Si atom -5581.643734 kJ/mol
# Density = 2.430560 g / cm^3
# Si number density = 24.361046 Si / 1000 Ang^3
#
#
#
# Elastic Constant Matrix: (Units=GPa)
#
#
# Indices 1 2 3 4 5 6 
#
# 1 96.7090 55.9538 -7.8572 0.0000 0.0000 0.0000
# 2 55.9538 264.3443 68.4056 0.0000 0.0000 0.0000
# 3 -7.8572 68.4056 46.9578 0.0000 0.0000 0.0000
# 4 0.0000 0.0000 0.0000 30.7522 0.0000 0.0000
# 5 0.0000 0.0000 0.0000 0.0000 42.2124 0.0000
# 6 0.0000 0.0000 0.0000 0.0000 0.0000 16.2607
#
#
#
# Elastic Compliance Matrix: (Units=1/GPa)
#
#
# Indices 1 2 3 4 5 6 
#
# 1 0.014747 -0.006035 0.011259 0.000000 0.000000 0.000000
# 2 -0.006035 0.008542 -0.013453 0.000000 0.000000 0.000000
# 3 0.011259 -0.013453 0.042777 0.000000 0.000000 0.000000
# 4 0.000000 0.000000 0.000000 0.032518 0.000000 0.000000
# 5 0.000000 0.000000 0.000000 0.000000 0.023690 0.000000
# 6 0.000000 0.000000 0.000000 0.000000 0.000000 0.061498
#
#
# Mechanical properties :
#
#
# Convention : Reuss Voigt Hill
#
# Bulk Modulus (GPa) = 20.15821 71.22394 45.69108
# Shear Modulus (GPa) = 23.06655 37.27900 30.17278
#
# Velocity S-wave (km/s) = 3.08045 3.91611 3.52315
# Velocity P-wave (km/s) = 4.57657 7.05324 5.94530
#
# Compressibility (1/GPa) = 0.04960757
#
# Stress axis : x y z
#
# Youngs Moduli (GPa) = 67.81163 117.07427 23.37714
#
# Poissons Ratio (x) = 0.70654 -0.26320
# Poissons Ratio (y) = 0.40924 0.31449
# Poissons Ratio (z) = -0.76348 1.57497
#
# Static dielectric constant tensor:
#      x y z
#    x 1.988400 0.000000 0.000000 
#    y 0.000000 1.972440 0.000000 
#    z 0.000000 0.000000 2.054650 
# 
# From -- ./inp_files/10812.got.cif
#   From: 2010.05.17/outbox.cif.g08.bks.cpg/sg62_6_cif.got.tgz:10812.got - 2010.06.03 15:25:27.
