data_PCOD9467332
_publ_section_title
;
Structure prediction by ZEFSAII (Michael W. Deem and Ramdas Pophale) SiO2 
 PCOD9467332
Probable space group: P N M A
;
_chemical_formula_sum "Si O2"
_cell_formula_units_Z 40
_cell_length_a 14.155302
_cell_length_b 7.589989
_cell_length_c 19.163245
_cell_angle_alpha 90.000000
_cell_angle_beta 90.000000
_cell_angle_gamma 90.000000
_cell_volume 2058.871955
_symmetry_space_group_name_H-M "P N M A"
_symmetry_group_IT_number 62
_symmetry_cell_setting 'orthorhombic'
loop_
_space_group_symop_operation_xyz
x,y,z
1/2-x,-y,1/2+z
1/2+x,1/2-y,1/2-z
-x,1/2+y,-z
-x,-y,-z
1/2+x,y,1/2-z
1/2-x,1/2+y,1/2+z
x,1/2-y,z
loop_
_atom_site_type_symbol
_atom_site_label
_atom_site_fract_x
_atom_site_fract_y
_atom_site_fract_z
Si Si1 0.296795 0.960168 0.854584
Si Si2 0.394709 0.965402 0.713106
Si Si3 0.889295 0.042028 0.497767
Si Si4 0.702793 0.965150 0.855846
Si Si5 0.394009 0.464996 0.288806
O O1 0.292938 0.750000 0.846289
O O2 0.363393 0.022699 0.791017
O O3 0.190267 0.025015 0.839796
O O4 0.338780 0.994026 0.930163
O O5 0.396185 0.750000 0.712811
O O6 0.309990 0.019716 0.661799
O O7 0.500118 0.026010 0.695872
O O8 0.881826 0.250000 0.491344
O O9 0.838972 0.967773 0.428517
O O10 0.000000 0.000000 0.500000
O O11 0.702846 0.750000 0.856655
O O12 0.638386 0.014940 0.789462
O O13 0.395919 0.250000 0.290633
#
# Coordination Sequence:
#
# PCOD9467332 Si02
#       5
#     8   8   8   8   8
#     4   9  17  29  47  71  94 115 147 189 228 267
#     4   8  13  25  47  70  90 116 154 193 221 255
#     4  11  21  32  47  67  93 121 150 187 231 275
#     4   8  15  26  42  67  92 115 149 189 223 260
#     4   8  13  24  45  69  89 113 149 190 223 255
#
# _framework density 19.428114000000001
#
# number of rings (size 3 to 8) (size 9 to 14) (size 15 to 20)
#    0.000    3.200    0.000    4.200    0.000    3.200 
#    0.000    1.000    0.000   15.600    0.000    0.000 
#    0.000    0.000    0.000    0.000    0.000    0.000 
#
# Total GULP energy -222991.976391 kJ/mol
# GULP energy per Si atom -5574.799410 kJ/mol
# Density = 1.938389 g / cm^3
# Si number density = 19.428114 Si / 1000 Ang^3
#
#
#
# Elastic Constant Matrix: (Units=GPa)
#
#
# Indices 1 2 3 4 5 6 
#
# 1 210.2632 2.2830 106.0577 0.0000 0.0000 0.0000
# 2 2.2830 36.4626 -3.0466 0.0000 0.0000 0.0000
# 3 106.0577 -3.0466 150.8689 0.0000 0.0000 0.0000
# 4 0.0000 0.0000 0.0000 20.0373 0.0000 0.0000
# 5 0.0000 0.0000 0.0000 0.0000 19.8729 0.0000
# 6 0.0000 0.0000 0.0000 0.0000 0.0000 3.9850
#
#
#
# Elastic Compliance Matrix: (Units=1/GPa)
#
#
# Indices 1 2 3 4 5 6 
#
# 1 0.007398 -0.000899 -0.005219 0.000000 0.000000 0.000000
# 2 -0.000899 0.027581 0.001189 0.000000 0.000000 0.000000
# 3 -0.005219 0.001189 0.010321 0.000000 0.000000 0.000000
# 4 0.000000 0.000000 0.000000 0.049907 0.000000 0.000000
# 5 0.000000 0.000000 0.000000 0.000000 0.050320 0.000000
# 6 0.000000 0.000000 0.000000 0.000000 0.000000 0.250943
#
#
# Mechanical properties :
#
#
# Convention : Reuss Voigt Hill
#
# Bulk Modulus (GPa) = 28.21501 67.57587 47.89544
# Shear Modulus (GPa) = 11.95767 28.26576 20.11171
#
# Velocity S-wave (km/s) = 2.48358 3.81844 3.22092
# Velocity P-wave (km/s) = 4.77269 7.36876 6.20795
#
# Compressibility (1/GPa) = 0.03544212
#
# Stress axis : x y z
#
# Youngs Moduli (GPa) = 135.16908 36.25685 96.88928
#
# Poissons Ratio (x) = 0.03260 0.50566
# Poissons Ratio (y) = 0.12155 -0.11521
# Poissons Ratio (z) = 0.70543 -0.04311
#
# Static dielectric constant tensor:
#      x y z
#    x 1.668930 0.000000 0.000000 
#    y 0.000000 1.744410 0.000000 
#    z 0.000000 0.000000 1.658460 
# 
# From -- ./inp_files/18635.got.cif
#   From: 2010.05.17/outbox.cif.g08.bks.cpg/sg62_10_cif.got.tgz:18635.got - 2010.06.03 15:25:27.
