data_PCOD9467085
_publ_section_title
;
Structure prediction by ZEFSAII (Michael W. Deem and Ramdas Pophale) SiO2 
 PCOD9467085
Probable space group: P N M A
;
_chemical_formula_sum "Si O2"
_cell_formula_units_Z 48
_cell_length_a 14.429014
_cell_length_b 18.281055
_cell_length_c 9.113526
_cell_angle_alpha 90.000000
_cell_angle_beta 90.000000
_cell_angle_gamma 90.000000
_cell_volume 2403.944002
_symmetry_space_group_name_H-M "P N M A"
_symmetry_group_IT_number 62
_symmetry_cell_setting 'orthorhombic'
loop_
_space_group_symop_operation_xyz
x,y,z
1/2-x,-y,1/2+z
1/2+x,1/2-y,1/2-z
-x,1/2+y,-z
-x,-y,-z
1/2+x,y,1/2-z
1/2-x,1/2+y,1/2+z
x,1/2-y,z
loop_
_atom_site_type_symbol
_atom_site_label
_atom_site_fract_x
_atom_site_fract_y
_atom_site_fract_z
Si Si1 0.232588 0.046370 0.606294
Si Si2 0.745537 0.908047 0.068032
Si Si3 0.107513 0.335191 0.448409
Si Si4 0.052024 0.573303 0.052088
Si Si5 0.061041 0.833751 0.337272
Si Si6 0.413870 0.663140 0.609941
O O1 0.226756 0.051480 0.781349
O O2 0.174158 0.111626 0.536867
O O3 0.339172 0.057545 0.557319
O O4 0.203520 0.968262 0.542004
O O5 0.665695 0.851196 0.113607
O O6 0.834446 0.871687 0.992401
O O7 0.137216 0.250000 0.457348
O O8 0.103965 0.357519 0.278666
O O9 0.007381 0.339834 0.525014
O O10 0.031670 0.607537 0.213248
O O11 0.000000 0.500000 0.000000
O O12 0.013511 0.633864 0.940780
O O13 0.054291 0.750000 0.280727
O O14 0.409972 0.750000 0.597832
#
# Coordination Sequence:
#
# PCOD9467085 Si02
#       6
#     8   8   8   8   8   8
#     4  11  24  39  64  92 130 166 209 269 321 384
#     4  11  23  41  65  96 129 170 217 267 326 386
#     4  10  24  42  63  95 129 168 217 265 318 386
#     4  11  23  41  63  95 129 163 214 264 318 387
#     4  10  23  44  67  95 128 169 219 267 323 388
#     4  11  23  42  66  91 128 171 213 265 322 382
#
# _framework density 19.967189000000001
#
# number of rings (size 3 to 8) (size 9 to 14) (size 15 to 20)
#    0.000    1.333    1.667    3.000    2.333    8.667 
#    0.000    3.333    0.000    0.000    0.000    0.000 
#    0.000    0.000    0.000    0.000    0.000    0.000 
#
# Total GULP energy -268229.278861 kJ/mol
# GULP energy per Si atom -5588.109976 kJ/mol
# Density = 1.992174 g / cm^3
# Si number density = 19.967189 Si / 1000 Ang^3
#
#
#
# Elastic Constant Matrix: (Units=GPa)
#
#
# Indices 1 2 3 4 5 6 
#
# 1 32.7893 18.0629 19.0544 0.0000 0.0000 0.0000
# 2 18.0629 60.0436 48.3877 0.0000 0.0000 0.0000
# 3 19.0544 48.3877 102.9037 0.0000 0.0000 0.0000
# 4 0.0000 0.0000 0.0000 38.6062 0.0000 0.0000
# 5 0.0000 0.0000 0.0000 0.0000 23.2212 0.0000
# 6 0.0000 0.0000 0.0000 0.0000 0.0000 37.2532
#
#
#
# Elastic Compliance Matrix: (Units=1/GPa)
#
#
# Indices 1 2 3 4 5 6 
#
# 1 0.036984 -0.009028 -0.002603 0.000000 0.000000 0.000000
# 2 -0.009028 0.029020 -0.011974 0.000000 0.000000 0.000000
# 3 -0.002603 -0.011974 0.015830 0.000000 0.000000 0.000000
# 4 0.000000 0.000000 0.000000 0.025903 0.000000 0.000000
# 5 0.000000 0.000000 0.000000 0.000000 0.043064 0.000000
# 6 0.000000 0.000000 0.000000 0.000000 0.000000 0.026843
#
#
# Mechanical properties :
#
#
# Convention : Reuss Voigt Hill
#
# Bulk Modulus (GPa) = 28.88199 40.74963 34.81581
# Shear Modulus (GPa) = 21.15092 27.16492 24.15792
#
# Velocity S-wave (km/s) = 3.25820 3.69247 3.48211
# Velocity P-wave (km/s) = 5.35262 6.21544 5.80010
#
# Compressibility (1/GPa) = 0.03462365
#
# Stress axis : x y z
#
# Youngs Moduli (GPa) = 27.03889 34.45864 63.16969
#
# Poissons Ratio (x) = 0.31110 0.16443
# Poissons Ratio (y) = 0.24411 0.75641
# Poissons Ratio (z) = 0.07038 0.41262
#
# Static dielectric constant tensor:
#      x y z
#    x 1.679100 0.000000 0.000000 
#    y 0.000000 1.708550 0.000000 
#    z 0.000000 0.000000 1.690710 
# 
# From -- ./inp_files/6481.got.cif
#   From: 2010.05.17/outbox.cif.g08.bks.cpg/sg62_4_cif.got.tgz:6481.got - 2010.06.03 15:25:27.
