data_PCOD9467334
_publ_section_title
;
Structure prediction by ZEFSAII (Michael W. Deem and Ramdas Pophale) SiO2 
 PCOD9467334
Probable space group: P N M A
;
_chemical_formula_sum "Si O2"
_cell_formula_units_Z 40
_cell_length_a 18.667127
_cell_length_b 8.514273
_cell_length_c 13.954704
_cell_angle_alpha 90.000000
_cell_angle_beta 90.000000
_cell_angle_gamma 90.000000
_cell_volume 2217.919005
_symmetry_space_group_name_H-M "P N M A"
_symmetry_group_IT_number 62
_symmetry_cell_setting 'orthorhombic'
loop_
_space_group_symop_operation_xyz
x,y,z
1/2-x,-y,1/2+z
1/2+x,1/2-y,1/2-z
-x,1/2+y,-z
-x,-y,-z
1/2+x,y,1/2-z
1/2-x,1/2+y,1/2+z
x,1/2-y,z
loop_
_atom_site_type_symbol
_atom_site_label
_atom_site_fract_x
_atom_site_fract_y
_atom_site_fract_z
Si Si1 0.471285 0.439816 0.302141
Si Si2 0.684752 0.439751 0.177964
Si Si3 0.467557 0.939191 0.901727
Si Si4 0.667923 0.437842 0.591338
Si Si5 0.624379 0.058774 0.381091
O O1 0.467331 0.250000 0.304881
O O2 0.487138 0.487083 0.192284
O O3 0.399243 0.508497 0.345125
O O4 0.541828 0.488091 0.362621
O O5 0.686622 0.250000 0.177505
O O6 0.614503 0.489469 0.117700
O O7 0.757974 0.501740 0.134714
O O8 0.669842 0.490042 0.287879
O O9 0.467729 0.750000 0.903404
O O10 0.500000 0.000000 0.000000
O O11 0.669788 0.250000 0.588873
O O12 0.654506 0.496128 0.482527
O O13 0.624747 0.250000 0.381506
#
# Coordination Sequence:
#
# PCOD9467334 Si02
#       5
#     8   8   8   8   8
#     4   9  18  35  55  74  98 135 173 203 247 310
#     4   9  19  37  54  71 100 139 173 202 245 308
#     4   9  19  35  56  77 101 136 176 212 251 300
#     4  11  21  32  51  81 106 127 163 215 259 292
#     4   8  17  35  55  71  96 133 171 206 245 296
#
# _framework density 18.034922999999999
#
# number of rings (size 3 to 8) (size 9 to 14) (size 15 to 20)
#    0.000    2.800    0.000    3.600    0.000    3.200 
#    0.000   12.000    0.000    0.000    0.000    0.000 
#    0.000    0.000    0.000    0.000    0.000    0.000 
#
# Total GULP energy -223094.418473 kJ/mol
# GULP energy per Si atom -5577.360462 kJ/mol
# Density = 1.799387 g / cm^3
# Si number density = 18.034923 Si / 1000 Ang^3
#
#
#
# Elastic Constant Matrix: (Units=GPa)
#
#
# Indices 1 2 3 4 5 6 
#
# 1 184.0350 32.1538 142.4885 0.0000 0.0000 0.0000
# 2 32.1538 15.2372 29.9731 0.0000 0.0000 0.0000
# 3 142.4885 29.9731 169.1840 0.0000 0.0000 0.0000
# 4 0.0000 0.0000 0.0000 27.4277 0.0000 0.0000
# 5 0.0000 0.0000 0.0000 0.0000 24.1874 0.0000
# 6 0.0000 0.0000 0.0000 0.0000 0.0000 27.8667
#
#
#
# Elastic Compliance Matrix: (Units=1/GPa)
#
#
# Indices 1 2 3 4 5 6 
#
# 1 0.016886 -0.011754 -0.012139 0.000000 0.000000 0.000000
# 2 -0.011754 0.108917 -0.009396 0.000000 0.000000 0.000000
# 3 -0.012139 -0.009396 0.017799 0.000000 0.000000 0.000000
# 4 0.000000 0.000000 0.000000 0.036459 0.000000 0.000000
# 5 0.000000 0.000000 0.000000 0.000000 0.041344 0.000000
# 6 0.000000 0.000000 0.000000 0.000000 0.000000 0.035885
#
#
# Mechanical properties :
#
#
# Convention : Reuss Voigt Hill
#
# Bulk Modulus (GPa) = 12.98326 86.40965 49.69646
# Shear Modulus (GPa) = 14.30431 26.81908 20.56169
#
# Velocity S-wave (km/s) = 2.81934 3.86043 3.38021
# Velocity P-wave (km/s) = 4.22052 8.23936 6.54598
#
# Compressibility (1/GPa) = 0.07702223
#
# Stress axis : x y z
#
# Youngs Moduli (GPa) = 59.21956 9.18132 56.18193
#
# Poissons Ratio (x) = 0.10792 0.68201
# Poissons Ratio (y) = 0.69609 0.52790
# Poissons Ratio (z) = 0.71889 0.08627
#
# Static dielectric constant tensor:
#      x y z
#    x 1.586400 0.000000 0.000000 
#    y 0.000000 1.625180 0.000000 
#    z 0.000000 0.000000 1.617820 
# 
# From -- ./inp_files/13854.got.cif
#   From: 2010.05.17/outbox.cif.g08.bks.cpg/sg62_7_cif.got.tgz:13854.got - 2010.06.03 15:25:27.
