data_PCOD9467202
_publ_section_title
;
Structure prediction by ZEFSAII (Michael W. Deem and Ramdas Pophale) SiO2 
 PCOD9467202
Probable space group: P N M A
;
_chemical_formula_sum "Si O2"
_cell_formula_units_Z 24
_cell_length_a 8.020010
_cell_length_b 11.358937
_cell_length_c 11.240624
_cell_angle_alpha 90.000000
_cell_angle_beta 90.000000
_cell_angle_gamma 90.000000
_cell_volume 1024.007226
_symmetry_space_group_name_H-M "P N M A"
_symmetry_group_IT_number 62
_symmetry_cell_setting 'orthorhombic'
loop_
_space_group_symop_operation_xyz
x,y,z
1/2-x,-y,1/2+z
1/2+x,1/2-y,1/2-z
-x,1/2+y,-z
-x,-y,-z
1/2+x,y,1/2-z
1/2-x,1/2+y,1/2+z
x,1/2-y,z
loop_
_atom_site_type_symbol
_atom_site_label
_atom_site_fract_x
_atom_site_fract_y
_atom_site_fract_z
Si Si1 0.986523 0.250000 0.557483
Si Si2 0.948713 0.012550 0.864679
Si Si3 0.121171 0.881981 0.655751
Si Si4 0.864108 0.750000 0.206217
O O1 0.982396 0.359753 0.465726
O O2 0.810675 0.250000 0.633042
O O3 0.137089 0.250000 0.649988
O O4 0.027124 0.135840 0.826017
O O5 0.753829 0.985011 0.859467
O O6 0.020138 0.916572 0.772207
O O7 0.000000 0.000000 0.000000
O O8 0.197854 0.750000 0.671649
#
# Coordination Sequence:
#
# PCOD9467202 Si02
#       4
#     4   8   8   4
#     4  10  24  45  65 101 143 174 246 271 353 409
#     4  12  24  45  72 100 142 179 233 294 345 417
#     4  10  24  46  66 100 137 186 230 283 346 420
#     4  12  24  45  67 105 137 186 228 297 339 407
#
# _framework density 23.437335999999998
#
# number of rings (size 3 to 8) (size 9 to 14) (size 15 to 20)
#    1.000    0.000    3.333    3.000    2.333    1.333 
#    6.000    0.000    0.000    0.000    0.000    0.000 
#    0.000    0.000    0.000    0.000    0.000    0.000 
#
# Total GULP energy -134015.737312 kJ/mol
# GULP energy per Si atom -5583.989055 kJ/mol
# Density = 2.338399 g / cm^3
# Si number density = 23.437336 Si / 1000 Ang^3
#
#
#
# Elastic Constant Matrix: (Units=GPa)
#
#
# Indices 1 2 3 4 5 6 
#
# 1 34.8403 12.5148 50.5887 0.0000 0.0000 0.0000
# 2 12.5148 118.7852 36.4783 0.0000 0.0000 0.0000
# 3 50.5887 36.4783 213.9297 0.0000 0.0000 0.0000
# 4 0.0000 0.0000 0.0000 31.3489 0.0000 0.0000
# 5 0.0000 0.0000 0.0000 0.0000 39.4890 0.0000
# 6 0.0000 0.0000 0.0000 0.0000 0.0000 35.0413
#
#
#
# Elastic Compliance Matrix: (Units=1/GPa)
#
#
# Indices 1 2 3 4 5 6 
#
# 1 0.043969 -0.001519 -0.010139 0.000000 0.000000 0.000000
# 2 -0.001519 0.008936 -0.001165 0.000000 0.000000 0.000000
# 3 -0.010139 -0.001165 0.007271 0.000000 0.000000 0.000000
# 4 0.000000 0.000000 0.000000 0.031899 0.000000 0.000000
# 5 0.000000 0.000000 0.000000 0.000000 0.025323 0.000000
# 6 0.000000 0.000000 0.000000 0.000000 0.000000 0.028538
#
#
# Mechanical properties :
#
#
# Convention : Reuss Voigt Hill
#
# Bulk Modulus (GPa) = 28.95875 62.96876 45.96375
# Shear Modulus (GPa) = 27.30878 39.04074 33.17476
#
# Velocity S-wave (km/s) = 3.41718 4.08579 3.76635
# Velocity P-wave (km/s) = 5.28698 7.01309 6.21030
#
# Compressibility (1/GPa) = 0.03453188
#
# Stress axis : x y z
#
# Youngs Moduli (GPa) = 22.74309 111.90409 137.54185
#
# Poissons Ratio (x) = 0.16998 1.39448
# Poissons Ratio (y) = 0.03455 0.16018
# Poissons Ratio (z) = 0.23058 0.13032
#
# Static dielectric constant tensor:
#      x y z
#    x 1.940820 0.000000 0.000000 
#    y 0.000000 1.930120 0.000000 
#    z 0.000000 0.000000 1.461700 
# 
# From -- ./inp_files/10822.got.cif
#   From: 2010.05.17/outbox.cif.g08.bks.cpg/sg62_6_cif.got.tgz:10822.got - 2010.06.03 15:25:27.
