data_PCOD9467469
_publ_section_title
;
Structure prediction by ZEFSAII (Michael W. Deem and Ramdas Pophale) SiO2 
 PCOD9467469
Probable space group: P N M A
;
_chemical_formula_sum "Si O2"
_cell_formula_units_Z 36
_cell_length_a 12.669132
_cell_length_b 18.596213
_cell_length_c 6.308539
_cell_angle_alpha 90.000000
_cell_angle_beta 90.000000
_cell_angle_gamma 90.000000
_cell_volume 1486.278397
_symmetry_space_group_name_H-M "P N M A"
_symmetry_group_IT_number 62
_symmetry_cell_setting 'orthorhombic'
loop_
_space_group_symop_operation_xyz
x,y,z
1/2-x,-y,1/2+z
1/2+x,1/2-y,1/2-z
-x,1/2+y,-z
-x,-y,-z
1/2+x,y,1/2-z
1/2-x,1/2+y,1/2+z
x,1/2-y,z
loop_
_atom_site_type_symbol
_atom_site_label
_atom_site_fract_x
_atom_site_fract_y
_atom_site_fract_z
Si Si1 0.537132 0.750000 0.315329
Si Si2 0.390492 0.369932 0.009955
Si Si3 0.747463 0.414936 0.821321
Si Si4 0.206278 0.750000 0.795755
Si Si5 0.089024 0.525630 0.840895
Si Si6 0.678871 0.250000 0.829163
O O1 0.613648 0.750000 0.518715
O O2 0.412694 0.750000 0.345174
O O3 0.553724 0.819020 0.161539
O O4 0.315772 0.317946 0.148183
O O5 0.456585 0.415058 0.179166
O O6 0.322941 0.427558 0.880369
O O7 0.640928 0.458610 0.782136
O O8 0.729596 0.329060 0.806111
O O9 0.815509 0.437520 0.025058
O O10 0.320083 0.750000 0.911045
O O11 0.000000 0.500000 0.000000
#
# Coordination Sequence:
#
# PCOD9467469 Si02
#       6
#     4   8   8   4   8   4
#     4  11  25  43  71 111 137 191 245 291 371 438
#     4  11  23  46  70  99 148 183 235 301 355 427
#     4  12  26  49  71 107 145 191 249 302 361 440
#     4  11  22  45  68  98 144 182 229 296 352 429
#     4  12  28  46  76 106 147 194 243 302 368 436
#     4  12  25  44  77 101 143 187 242 301 357 429
#
# _framework density 24.221571999999998
#
# number of rings (size 3 to 8) (size 9 to 14) (size 15 to 20)
#    0.000    0.444    6.667    0.667    6.222    4.444 
#    4.000    0.000    0.000    0.000    0.000    0.000 
#    0.000    0.000    0.000    0.000    0.000    0.000 
#
# Total GULP energy -200934.120436 kJ/mol
# GULP energy per Si atom -5581.503345 kJ/mol
# Density = 2.416644 g / cm^3
# Si number density = 24.221572 Si / 1000 Ang^3
#
#
#
# Elastic Constant Matrix: (Units=GPa)
#
#
# Indices 1 2 3 4 5 6 
#
# 1 38.3372 24.1381 -4.0115 0.0000 0.0000 0.0000
# 2 24.1381 123.4698 31.9454 0.0000 0.0000 0.0000
# 3 -4.0115 31.9454 92.0209 0.0000 0.0000 0.0000
# 4 0.0000 0.0000 0.0000 22.4144 0.0000 0.0000
# 5 0.0000 0.0000 0.0000 0.0000 22.3968 0.0000
# 6 0.0000 0.0000 0.0000 0.0000 0.0000 24.9537
#
#
#
# Elastic Compliance Matrix: (Units=1/GPa)
#
#
# Indices 1 2 3 4 5 6 
#
# 1 0.030900 -0.007020 0.003784 0.000000 0.000000 0.000000
# 2 -0.007020 0.010493 -0.003949 0.000000 0.000000 0.000000
# 3 0.003784 -0.003949 0.012403 0.000000 0.000000 0.000000
# 4 0.000000 0.000000 0.000000 0.044614 0.000000 0.000000
# 5 0.000000 0.000000 0.000000 0.000000 0.044649 0.000000
# 6 0.000000 0.000000 0.000000 0.000000 0.000000 0.040074
#
#
# Mechanical properties :
#
#
# Convention : Reuss Voigt Hill
#
# Bulk Modulus (GPa) = 25.36338 39.77467 32.56903
# Shear Modulus (GPa) = 23.73653 27.40337 25.56995
#
# Velocity S-wave (km/s) = 3.13385 3.36722 3.25263
# Velocity P-wave (km/s) = 4.85683 5.61911 5.25182
#
# Compressibility (1/GPa) = 0.03942692
#
# Stress axis : x y z
#
# Youngs Moduli (GPa) = 32.36217 95.29972 80.62641
#
# Poissons Ratio (x) = 0.66900 -0.30509
# Poissons Ratio (y) = 0.22718 0.31838
# Poissons Ratio (z) = -0.12246 0.37632
#
# Static dielectric constant tensor:
#      x y z
#    x 2.040390 0.000000 0.000000 
#    y 0.000000 1.945560 0.000000 
#    z 0.000000 0.000000 1.953050 
# 
# From -- ./inp_files/1010.got.cif
#   From: 2010.05.17/outbox.cif.g08.bks.cpg/sg62_1_cif.got.tgz:1010.got - 2010.06.03 15:25:27.
