data_PCOD9467084
_publ_section_title
;
Structure prediction by ZEFSAII (Michael W. Deem and Ramdas Pophale) SiO2 
 PCOD9467084
Probable space group: P N M A
;
_chemical_formula_sum "Si O2"
_cell_formula_units_Z 56
_cell_length_a 14.775701
_cell_length_b 27.586907
_cell_length_c 5.754963
_cell_angle_alpha 90.000000
_cell_angle_beta 90.000000
_cell_angle_gamma 90.000000
_cell_volume 2345.814361
_symmetry_space_group_name_H-M "P N M A"
_symmetry_group_IT_number 62
_symmetry_cell_setting 'orthorhombic'
loop_
_space_group_symop_operation_xyz
x,y,z
1/2-x,-y,1/2+z
1/2+x,1/2-y,1/2-z
-x,1/2+y,-z
-x,-y,-z
1/2+x,y,1/2-z
1/2-x,1/2+y,1/2+z
x,1/2-y,z
loop_
_atom_site_type_symbol
_atom_site_label
_atom_site_fract_x
_atom_site_fract_y
_atom_site_fract_z
Si Si1 0.803159 0.437975 0.287367
Si Si2 0.566716 0.250000 0.136720
Si Si3 0.629320 0.492517 0.144501
Si Si4 0.121912 0.406551 0.724298
Si Si5 0.481706 0.151595 0.029755
Si Si6 0.983030 0.061175 0.116090
Si Si7 0.218608 0.648512 0.431000
Si Si8 0.823753 0.750000 0.128203
O O1 0.856775 0.456788 0.517248
O O2 0.875622 0.447257 0.080737
O O3 0.776274 0.381584 0.321485
O O4 0.716741 0.473053 0.282538
O O5 0.502751 0.203079 0.138145
O O6 0.625054 0.250000 0.886473
O O7 0.618403 0.250000 0.385743
O O8 0.627477 0.451498 0.945242
O O9 0.532976 0.484985 0.267986
O O10 0.068705 0.361370 0.619971
O O11 0.221425 0.388206 0.781208
O O12 0.056523 0.422508 0.930778
O O13 0.478001 0.107929 0.213903
O O14 0.388172 0.152563 0.888293
O O15 0.263867 0.700940 0.400799
#
# Coordination Sequence:
#
# PCOD9467084 Si02
#       8
#     8   4   8   8   8   8   8   4
#     4  11  24  42  68  97 139 181 233 289 352 423
#     4  12  25  48  73 105 143 188 237 304 361 441
#     4  11  24  42  63  99 137 179 231 289 340 423
#     4  11  22  42  68  97 135 183 228 291 349 424
#     4  10  24  42  69 100 138 181 235 291 360 429
#     4  10  23  44  67  94 136 183 232 282 357 421
#     4  11  23  46  69 104 138 181 235 291 356 432
#     4  12  27  46  79 103 145 188 239 298 371 423
#
# _framework density 23.872306999999999
#
# number of rings (size 3 to 8) (size 9 to 14) (size 15 to 20)
#    0.000    1.143    2.857    2.571    4.000    0.571 
#    5.143    1.429    0.000    0.000    0.000    0.000 
#    0.000    0.000    0.000    0.000    0.000    0.000 
#
# Total GULP energy -312822.996540 kJ/mol
# GULP energy per Si atom -5586.124938 kJ/mol
# Density = 2.381797 g / cm^3
# Si number density = 23.872307 Si / 1000 Ang^3
#
#
#
# Elastic Constant Matrix: (Units=GPa)
#
#
# Indices 1 2 3 4 5 6 
#
# 1 129.2215 25.4892 22.6733 0.0000 0.0000 0.0000
# 2 25.4892 122.1849 1.7097 0.0000 0.0000 0.0000
# 3 22.6733 1.7097 48.8599 0.0000 0.0000 0.0000
# 4 0.0000 0.0000 0.0000 11.4269 0.0000 0.0000
# 5 0.0000 0.0000 0.0000 0.0000 20.4625 0.0000
# 6 0.0000 0.0000 0.0000 0.0000 0.0000 53.2492
#
#
#
# Elastic Compliance Matrix: (Units=1/GPa)
#
#
# Indices 1 2 3 4 5 6 
#
# 1 0.008795 -0.001778 -0.004019 0.000000 0.000000 0.000000
# 2 -0.001778 0.008548 0.000526 0.000000 0.000000 0.000000
# 3 -0.004019 0.000526 0.022313 0.000000 0.000000 0.000000
# 4 0.000000 0.000000 0.000000 0.087513 0.000000 0.000000
# 5 0.000000 0.000000 0.000000 0.000000 0.048870 0.000000
# 6 0.000000 0.000000 0.000000 0.000000 0.000000 0.018780
#
#
# Mechanical properties :
#
#
# Convention : Reuss Voigt Hill
#
# Bulk Modulus (GPa) = 34.34834 44.44564 39.39699
# Shear Modulus (GPa) = 23.24883 33.72067 28.48475
#
# Velocity S-wave (km/s) = 3.12409 3.76246 3.45804
# Velocity P-wave (km/s) = 5.23764 6.12644 5.69939
#
# Compressibility (1/GPa) = 0.02911349
#
# Stress axis : x y z
#
# Youngs Moduli (GPa) = 113.70603 116.98707 44.81650
#
# Poissons Ratio (x) = 0.20805 0.18011
# Poissons Ratio (y) = 0.20222 -0.02358
# Poissons Ratio (z) = 0.45697 -0.06156
#
# Static dielectric constant tensor:
#      x y z
#    x 1.951710 0.000000 0.000000 
#    y 0.000000 1.899620 0.000000 
#    z 0.000000 0.000000 2.066030 
# 
# From -- ./inp_files/1300.got.cif
#   From: 2010.05.17/outbox.cif.g08.bks.cpg/sg62_1_cif.got.tgz:1300.got - 2010.06.03 15:25:27.
