data_PCOD9467630
_publ_section_title
;
Structure prediction by ZEFSAII (Michael W. Deem and Ramdas Pophale) SiO2 
 PCOD9467630
Probable space group: P N M A
;
_chemical_formula_sum "Si O2"
_cell_formula_units_Z 28
_cell_length_a 10.407926
_cell_length_b 13.807880
_cell_length_c 7.021682
_cell_angle_alpha 90.000000
_cell_angle_beta 90.000000
_cell_angle_gamma 90.000000
_cell_volume 1009.095703
_symmetry_space_group_name_H-M "P N M A"
_symmetry_group_IT_number 62
_symmetry_cell_setting 'orthorhombic'
loop_
_space_group_symop_operation_xyz
x,y,z
1/2-x,-y,1/2+z
1/2+x,1/2-y,1/2-z
-x,1/2+y,-z
-x,-y,-z
1/2+x,y,1/2-z
1/2-x,1/2+y,1/2+z
x,1/2-y,z
loop_
_atom_site_type_symbol
_atom_site_label
_atom_site_fract_x
_atom_site_fract_y
_atom_site_fract_z
Si Si1 0.783764 0.578328 0.214173
Si Si2 0.233119 0.750000 0.027641
Si Si3 0.527705 0.467417 0.223343
Si Si4 0.565111 0.250000 0.220631
Si Si5 0.863992 0.250000 0.598950
O O1 0.794399 0.649558 0.396053
O O2 0.672498 0.502076 0.255876
O O3 0.722208 0.655126 0.067695
O O4 0.917113 0.528338 0.171933
O O5 0.108925 0.750000 0.168866
O O6 0.280345 0.750000 0.812401
O O7 0.518516 0.355151 0.288556
O O8 0.500000 0.500000 0.000000
O O9 0.491278 0.250000 0.016938
#
# Coordination Sequence:
#
# PCOD9467630 Si02
#       5
#     8   4   8   4   4
#     4   9  20  33  60  86 116 149 200 233 292 338
#     4   8  16  30  54  85 104 147 205 231 260 354
#     4  12  20  38  61  86 117 158 188 248 290 346
#     4  12  20  34  64  80 116 160 196 218 314 346
#     4   8  16  30  54  85 104 147 205 231 260 354
#
# _framework density 27.747616000000001
#
# number of rings (size 3 to 8) (size 9 to 14) (size 15 to 20)
#    1.714    0.000    5.714    0.000    0.000    2.286 
#    0.000    1.429    0.000    0.000    0.000    0.000 
#    0.000    0.000    0.000    0.000    0.000    0.000 
#
# Total GULP energy -156172.466305 kJ/mol
# GULP energy per Si atom -5577.588082 kJ/mol
# Density = 2.768446 g / cm^3
# Si number density = 27.747616 Si / 1000 Ang^3
#
#
#
# Elastic Constant Matrix: (Units=GPa)
#
#
# Indices 1 2 3 4 5 6 
#
# 1 125.2420 50.4089 23.5289 0.0000 0.0000 0.0000
# 2 50.4089 222.9936 22.6091 0.0000 0.0000 0.0000
# 3 23.5289 22.6091 89.3586 0.0000 0.0000 0.0000
# 4 0.0000 0.0000 0.0000 35.5716 0.0000 0.0000
# 5 0.0000 0.0000 0.0000 0.0000 18.3844 0.0000
# 6 0.0000 0.0000 0.0000 0.0000 0.0000 52.7854
#
#
#
# Elastic Compliance Matrix: (Units=1/GPa)
#
#
# Indices 1 2 3 4 5 6 
#
# 1 0.009095 -0.001861 -0.001924 0.000000 0.000000 0.000000
# 2 -0.001861 0.004983 -0.000771 0.000000 0.000000 0.000000
# 3 -0.001924 -0.000771 0.011893 0.000000 0.000000 0.000000
# 4 0.000000 0.000000 0.000000 0.028112 0.000000 0.000000
# 5 0.000000 0.000000 0.000000 0.000000 0.054394 0.000000
# 6 0.000000 0.000000 0.000000 0.000000 0.000000 0.018945
#
#
# Mechanical properties :
#
#
# Convention : Reuss Voigt Hill
#
# Bulk Modulus (GPa) = 59.31433 70.07644 64.69539
# Shear Modulus (GPa) = 35.17338 44.08475 39.62907
#
# Velocity S-wave (km/s) = 3.56422 3.99027 3.78325
# Velocity P-wave (km/s) = 6.19363 6.82198 6.51538
#
# Compressibility (1/GPa) = 0.01685933
#
# Stress axis : x y z
#
# Youngs Moduli (GPa) = 109.95059 200.67199 84.08659
#
# Poissons Ratio (x) = 0.37343 0.16178
# Poissons Ratio (y) = 0.20461 0.06482
# Poissons Ratio (z) = 0.21154 0.15469
#
# Static dielectric constant tensor:
#      x y z
#    x 2.157890 0.000000 0.000000 
#    y 0.000000 2.126250 0.000000 
#    z 0.000000 0.000000 2.305500 
# 
# From -- ./inp_files/11943.got.cif
#   From: 2010.05.17/outbox.cif.g08.bks.cpg/sg62_6_cif.got.tgz:11943.got - 2010.06.03 15:25:27.
