data_PCOD9467981
_publ_section_title
;
Structure prediction by ZEFSAII (Michael W. Deem and Ramdas Pophale) SiO2 
 PCOD9467981
Probable space group: P N M A
;
_chemical_formula_sum "Si O2"
_cell_formula_units_Z 64
_cell_length_a 21.000000
_cell_length_b 9.000000
_cell_length_c 18.000000
_cell_angle_alpha 90.000000
_cell_angle_beta 90.000000
_cell_angle_gamma 90.000000
_cell_volume 3402.000000
_symmetry_space_group_name_H-M "P N M A"
_symmetry_group_IT_number 62
_symmetry_cell_setting 'orthorhombic'
loop_
_space_group_symop_operation_xyz
x,y,z
1/2-x,-y,1/2+z
1/2+x,1/2-y,1/2-z
-x,1/2+y,-z
-x,-y,-z
1/2+x,y,1/2-z
1/2-x,1/2+y,1/2+z
x,1/2-y,z
loop_
_atom_site_type_symbol
_atom_site_label
_atom_site_fract_x
_atom_site_fract_y
_atom_site_fract_z
Si Si1 0.565802 0.422726 0.978915
Si Si2 0.072559 0.072795 0.840346
Si Si3 0.798592 0.077298 0.502605
Si Si4 0.789359 0.923531 0.142659
Si Si5 0.184475 0.572996 0.089820
Si Si6 0.256025 0.422921 0.206932
Si Si7 0.618633 0.421529 0.822778
Si Si8 0.459335 0.069716 0.565828
O O1 0.566123 0.250000 0.001994
O O2 0.570450 0.430086 0.889815
O O3 0.500000 0.500000 0.000000
O O4 0.632508 0.499069 0.003199
O O5 0.069003 0.250000 0.849808
O O6 0.138664 0.028523 0.881895
O O7 0.086502 0.041366 0.754883
O O8 0.003584 0.019256 0.865311
O O9 0.805481 0.250000 0.480390
O O10 0.765727 0.072637 0.582957
O O11 0.742335 0.998598 0.455858
O O12 0.795357 0.750000 0.166876
O O13 0.769595 0.028390 0.209554
O O14 0.187742 0.750000 0.083136
O O15 0.199592 0.520256 0.173058
O O16 0.113844 0.521067 0.067928
O O17 0.243515 0.250000 0.198578
O O18 0.321884 0.470496 0.166698
O O19 0.642418 0.250000 0.820931
O O20 0.458083 0.250000 0.560563
O O21 0.500000 0.000000 0.500000
#
# Coordination Sequence:
#
# PCOD9467981 Si02
#       8
#     8   8   8   8   8   8   8   8
#     4  11  23  39  60  85 117 152 190 242 295 352
#     4   8  15  33  58  82 108 146 194 233 273 333
#     4  11  22  38  62  89 114 150 197 240 290 350
#     4   9  19  36  59  84 114 149 189 237 288 346
#     4  11  22  36  56  84 119 156 192 236 292 347
#     4  11  21  34  57  84 112 146 191 239 285 342
#     4   9  18  36  61  82 108 148 192 235 286 342
#     4  10  21  36  56  82 115 152 191 236 284 341
#
# _framework density 18.812463000000001
#
# number of rings (size 3 to 8) (size 9 to 14) (size 15 to 20)
#    0.000    2.000    1.250    3.750    0.000    3.500 
#    2.250    3.750    0.000    0.000    0.000    0.000 
#    0.000    0.000    0.000    0.000    0.000    0.000 
#
# Total GULP energy -356336.817080 kJ/mol
# GULP energy per Si atom -5567.762767 kJ/mol
# Density = 1.876965 g / cm^3
# Si number density = 18.812463 Si / 1000 Ang^3
#
#
#
# Elastic Constant Matrix: (Units=GPa)
#
#
# Indices 1 2 3 4 5 6 
#
# 1 177.8966 69.4653 59.7642 0.0000 0.0000 0.0000
# 2 69.4653 74.8244 22.4858 0.0000 0.0000 0.0000
# 3 59.7642 22.4858 44.5683 0.0000 0.0000 0.0000
# 4 0.0000 0.0000 0.0000 22.9570 0.0000 0.0000
# 5 0.0000 0.0000 0.0000 0.0000 25.1284 0.0000
# 6 0.0000 0.0000 0.0000 0.0000 0.0000 26.7995
#
#
#
# Elastic Compliance Matrix: (Units=1/GPa)
#
#
# Indices 1 2 3 4 5 6 
#
# 1 0.013622 -0.008436 -0.014011 0.000000 0.000000 0.000000
# 2 -0.008436 0.020978 0.000729 0.000000 0.000000 0.000000
# 3 -0.014011 0.000729 0.040857 0.000000 0.000000 0.000000
# 4 0.000000 0.000000 0.000000 0.043560 0.000000 0.000000
# 5 0.000000 0.000000 0.000000 0.000000 0.039796 0.000000
# 6 0.000000 0.000000 0.000000 0.000000 0.000000 0.037314
#
#
# Mechanical properties :
#
#
# Convention : Reuss Voigt Hill
#
# Bulk Modulus (GPa) = 31.22914 66.74663 48.98789
# Shear Modulus (GPa) = 19.98112 24.68191 22.33151
#
# Velocity S-wave (km/s) = 3.26256 3.62608 3.44911
# Velocity P-wave (km/s) = 5.55235 7.28617 6.47754
#
# Compressibility (1/GPa) = 0.03202137
#
# Stress axis : x y z
#
# Youngs Moduli (GPa) = 73.40909 47.66993 24.47543
#
# Poissons Ratio (x) = 0.40216 0.34292
# Poissons Ratio (y) = 0.61930 -0.01784
# Poissons Ratio (z) = 1.02851 -0.03475
#
# Static dielectric constant tensor:
#      x y z
#    x 1.660320 0.000000 0.000000 
#    y 0.000000 1.644490 0.000000 
#    z 0.000000 0.000000 1.758310 
# 
# From -- ./inp_files/24731.got.cif
#   From: 2010.05.17/outbox.ucp.g08.bks.cvg/sg62_13_cif.got.tgz:24731.got - 2010.06.11 16:29:25.
