data_PCOD9467416
_publ_section_title
;
Structure prediction by ZEFSAII (Michael W. Deem and Ramdas Pophale) SiO2 
 PCOD9467416
Probable space group: P N M A
;
_chemical_formula_sum "Si O2"
_cell_formula_units_Z 32
_cell_length_a 10.332598
_cell_length_b 13.042268
_cell_length_c 9.521496
_cell_angle_alpha 90.000000
_cell_angle_beta 90.000000
_cell_angle_gamma 90.000000
_cell_volume 1283.121678
_symmetry_space_group_name_H-M "P N M A"
_symmetry_group_IT_number 62
_symmetry_cell_setting 'orthorhombic'
loop_
_space_group_symop_operation_xyz
x,y,z
1/2-x,-y,1/2+z
1/2+x,1/2-y,1/2-z
-x,1/2+y,-z
-x,-y,-z
1/2+x,y,1/2-z
1/2-x,1/2+y,1/2+z
x,1/2-y,z
loop_
_atom_site_type_symbol
_atom_site_label
_atom_site_fract_x
_atom_site_fract_y
_atom_site_fract_z
Si Si1 0.543860 0.860695 0.594424
Si Si2 0.815913 0.582539 0.466315
Si Si3 0.540847 0.415157 0.702670
Si Si4 0.102278 0.637876 0.468532
O O1 0.524193 0.750000 0.661969
O O2 0.692215 0.870785 0.539767
O O3 0.461572 0.868393 0.450816
O O4 0.519461 0.963276 0.682009
O O5 0.834511 0.603222 0.300260
O O6 0.815504 0.459504 0.484561
O O7 0.954441 0.620897 0.525909
O O8 0.428989 0.371009 0.802546
O O9 0.151291 0.750000 0.505834
#
# Coordination Sequence:
#
# PCOD9467416 Si02
#       4
#     8   8   8   8
#     4  11  22  38  60  85 122 158 189 242 300 339
#     4   9  21  36  60  90 113 152 201 242 278 358
#     4   9  22  39  55  87 121 147 201 239 281 356
#     4   9  18  37  61  85 115 153 192 240 288 334
#
# _framework density 24.939177000000001
#
# number of rings (size 3 to 8) (size 9 to 14) (size 15 to 20)
#    1.500    1.000    0.000    1.500    3.500    1.000 
#    0.000    6.250    0.000    0.000    0.000    0.000 
#    0.000    0.000    0.000    0.000    0.000    0.000 
#
# Total GULP energy -178711.867644 kJ/mol
# GULP energy per Si atom -5584.745864 kJ/mol
# Density = 2.488241 g / cm^3
# Si number density = 24.939177 Si / 1000 Ang^3
#
#
#
# Elastic Constant Matrix: (Units=GPa)
#
#
# Indices 1 2 3 4 5 6 
#
# 1 66.1541 18.7939 8.9344 0.0000 0.0000 0.0000
# 2 18.7939 175.9230 -10.0572 0.0000 0.0000 0.0000
# 3 8.9344 -10.0572 69.7349 0.0000 0.0000 0.0000
# 4 0.0000 0.0000 0.0000 11.1438 0.0000 0.0000
# 5 0.0000 0.0000 0.0000 0.0000 -31.1918 0.0000
# 6 0.0000 0.0000 0.0000 0.0000 0.0000 19.0885
#
#
#
# Elastic Compliance Matrix: (Units=1/GPa)
#
#
# Indices 1 2 3 4 5 6 
#
# 1 0.015950 -0.001836 -0.002308 0.000000 0.000000 0.000000
# 2 -0.001836 0.005943 0.001092 0.000000 0.000000 0.000000
# 3 -0.002308 0.001092 0.014793 0.000000 0.000000 0.000000
# 4 0.000000 0.000000 0.000000 0.089736 0.000000 0.000000
# 5 0.000000 0.000000 0.000000 0.000000 -0.032060 0.000000
# 6 0.000000 0.000000 0.000000 0.000000 0.000000 0.052388
#
#
# Mechanical properties :
#
#
# Convention : Reuss Voigt Hill
#
# Bulk Modulus (GPa) = 32.69884 38.57270 35.63577
# Shear Modulus (GPa) = 30.66596 19.41749 25.04173
#
# Velocity S-wave (km/s) = 3.51041 2.79336 3.17221
# Velocity P-wave (km/s) = 5.43788 5.08960 5.26662
#
# Compressibility (1/GPa) = 0.03058213
#
# Stress axis : x y z
#
# Youngs Moduli (GPa) = 62.69789 168.26877 67.59821
#
# Poissons Ratio (x) = 0.30892 0.15603
# Poissons Ratio (y) = 0.11510 -0.07384
# Poissons Ratio (z) = 0.14472 -0.18380
#
# Static dielectric constant tensor:
#      x y z
#    x 2.024320 0.000000 0.000000 
#    y 0.000000 1.935100 0.000000 
#    z 0.000000 0.000000 1.976460 
# 
# From -- ./inp_files/12892.got.cif
#   From: 2010.05.17/outbox.cif.g08.bks.cpg/sg62_7_cif.got.tgz:12892.got - 2010.06.03 15:25:27.
