data_PCOD9467295
_publ_section_title
;
Structure prediction by ZEFSAII (Michael W. Deem and Ramdas Pophale) SiO2 
 PCOD9467295
Probable space group: P N M A
;
_chemical_formula_sum "Si O2"
_cell_formula_units_Z 64
_cell_length_a 8.469020
_cell_length_b 21.909862
_cell_length_c 18.820495
_cell_angle_alpha 90.000000
_cell_angle_beta 90.000000
_cell_angle_gamma 90.000000
_cell_volume 3492.238069
_symmetry_space_group_name_H-M "P N M A"
_symmetry_group_IT_number 62
_symmetry_cell_setting 'orthorhombic'
loop_
_space_group_symop_operation_xyz
x,y,z
1/2-x,-y,1/2+z
1/2+x,1/2-y,1/2-z
-x,1/2+y,-z
-x,-y,-z
1/2+x,y,1/2-z
1/2-x,1/2+y,1/2+z
x,1/2-y,z
loop_
_atom_site_type_symbol
_atom_site_label
_atom_site_fract_x
_atom_site_fract_y
_atom_site_fract_z
Si Si1 0.461921 0.624333 0.086850
Si Si2 0.761864 0.048407 0.014726
Si Si3 0.772113 0.363840 0.798694
Si Si4 0.769415 0.506761 0.798607
Si Si5 0.744591 0.178559 0.511818
Si Si6 0.582396 0.001419 0.148999
Si Si7 0.611020 0.179654 0.662139
Si Si8 0.888051 0.930776 0.930680
O O1 0.370935 0.657454 0.150840
O O2 0.579947 0.664695 0.040783
O O3 0.558446 0.568265 0.122496
O O4 0.327377 0.594348 0.037516
O O5 0.646279 0.036500 0.080757
O O6 0.931974 0.070470 0.042292
O O7 0.796815 0.984656 0.973855
O O8 0.802437 0.435279 0.814651
O O9 0.715362 0.357343 0.718104
O O10 0.930677 0.328464 0.815491
O O11 0.590021 0.519580 0.821866
O O12 0.800856 0.511351 0.715023
O O13 0.876795 0.548775 0.848774
O O14 0.725263 0.250000 0.495161
O O15 0.636468 0.161810 0.580443
O O16 0.696467 0.132620 0.449512
O O17 0.660409 0.250000 0.667927
#
# Coordination Sequence:
#
# PCOD9467295 Si02
#       8
#     8   8   8   8   8   8   8   8
#     4  11  21  37  55  85 118 155 192 243 291 350
#     4  11  21  36  61  89 117 154 186 248 307 352
#     4  11  21  34  53  78 113 156 198 243 287 337
#     4  11  22  34  55  87 118 155 192 244 304 352
#     4  11  24  39  58  81 113 158 201 240 284 350
#     4  11  20  34  54  85 122 149 189 238 297 359
#     4  11  23  37  52  76 114 162 205 241 281 339
#     4  11  22  38  60  86 120 151 198 241 307 352
#
# _framework density 18.326356000000001
#
# number of rings (size 3 to 8) (size 9 to 14) (size 15 to 20)
#    0.000    1.000    3.750    6.000    1.750    2.000 
#    0.000    0.625    0.000    0.000    0.000    7.875 
#    0.000    0.000    0.000    0.000    0.000    0.000 
#
# Total GULP energy -357644.125909 kJ/mol
# GULP energy per Si atom -5588.189467 kJ/mol
# Density = 1.828464 g / cm^3
# Si number density = 18.326356 Si / 1000 Ang^3
#
#
#
# Elastic Constant Matrix: (Units=GPa)
#
#
# Indices 1 2 3 4 5 6 
#
# 1 36.8519 0.8601 -8.1862 0.0000 0.0000 0.0000
# 2 0.8601 40.3314 4.6019 0.0000 0.0000 0.0000
# 3 -8.1862 4.6019 57.1723 0.0000 0.0000 0.0000
# 4 0.0000 0.0000 0.0000 20.5825 0.0000 0.0000
# 5 0.0000 0.0000 0.0000 0.0000 39.5129 0.0000
# 6 0.0000 0.0000 0.0000 0.0000 0.0000 21.2859
#
#
#
# Elastic Compliance Matrix: (Units=1/GPa)
#
#
# Indices 1 2 3 4 5 6 
#
# 1 0.028073 -0.001067 0.004105 0.000000 0.000000 0.000000
# 2 -0.001067 0.025065 -0.002170 0.000000 0.000000 0.000000
# 3 0.004105 -0.002170 0.018254 0.000000 0.000000 0.000000
# 4 0.000000 0.000000 0.000000 0.048585 0.000000 0.000000
# 5 0.000000 0.000000 0.000000 0.000000 0.025308 0.000000
# 6 0.000000 0.000000 0.000000 0.000000 0.000000 0.046979
#
#
# Mechanical properties :
#
#
# Convention : Reuss Voigt Hill
#
# Bulk Modulus (GPa) = 13.67482 14.32302 13.99892
# Shear Modulus (GPa) = 23.26628 25.41492 24.34060
#
# Velocity S-wave (km/s) = 3.56694 3.72801 3.64837
# Velocity P-wave (km/s) = 4.94390 5.13452 5.04011
#
# Compressibility (1/GPa) = 0.07312711
#
# Stress axis : x y z
#
# Youngs Moduli (GPa) = 35.62197 39.89634 54.78392
#
# Poissons Ratio (x) = 0.04257 -0.22491
# Poissons Ratio (y) = 0.03801 0.11890
# Poissons Ratio (z) = -0.14624 0.08659
#
# Static dielectric constant tensor:
#      x y z
#    x 1.654400 0.000000 0.000000 
#    y 0.000000 1.614980 0.000000 
#    z 0.000000 0.000000 1.643980 
# 
# From -- ./inp_files/22549.got.cif
#   From: 2010.05.17/outbox.cif.g08.bks.cpg/sg62_12_cif.got.tgz:22549.got - 2010.06.03 15:25:27.
