data_PCOD9467660
_publ_section_title
;
Structure prediction by ZEFSAII (Michael W. Deem and Ramdas Pophale) SiO2 
 PCOD9467660
Probable space group: P N M A
;
_chemical_formula_sum "Si O2"
_cell_formula_units_Z 36
_cell_length_a 14.592130
_cell_length_b 14.676538
_cell_length_c 7.730997
_cell_angle_alpha 90.000000
_cell_angle_beta 90.000000
_cell_angle_gamma 90.000000
_cell_volume 1655.685396
_symmetry_space_group_name_H-M "P N M A"
_symmetry_group_IT_number 62
_symmetry_cell_setting 'orthorhombic'
loop_
_space_group_symop_operation_xyz
x,y,z
1/2-x,-y,1/2+z
1/2+x,1/2-y,1/2-z
-x,1/2+y,-z
-x,-y,-z
1/2+x,y,1/2-z
1/2-x,1/2+y,1/2+z
x,1/2-y,z
loop_
_atom_site_type_symbol
_atom_site_label
_atom_site_fract_x
_atom_site_fract_y
_atom_site_fract_z
Si Si1 0.271608 0.250000 0.703804
Si Si2 0.362811 0.067111 0.806775
Si Si3 0.791299 0.440899 0.303271
Si Si4 0.231069 0.250000 0.324808
Si Si5 0.882803 0.750000 0.010970
Si Si6 0.452323 0.940493 0.353306
O O1 0.332044 0.159351 0.711008
O O2 0.211050 0.250000 0.529295
O O3 0.209948 0.250000 0.875060
O O4 0.471971 0.061863 0.798158
O O5 0.310038 0.984124 0.712795
O O6 0.324725 0.068179 0.000875
O O7 0.787458 0.341649 0.217201
O O8 0.859967 0.511155 0.210625
O O9 0.146289 0.250000 0.190260
O O10 0.933911 0.659039 0.069829
O O11 0.500000 0.000000 0.500000
#
# Coordination Sequence:
#
# PCOD9467660 Si02
#       6
#     4   8   8   4   4   8
#     4  12  23  45  74  99 137 188 232 291 360 422
#     4  12  24  45  71 102 144 188 237 298 361 433
#     4  12  24  45  70 104 141 189 241 294 366 430
#     4  12  24  43  74 100 136 194 234 293 360 427
#     4  12  25  50  70 107 145 184 244 292 360 429
#     4  12  26  44  71 107 144 189 241 302 356 431
#
# _framework density 21.743262000000001
#
# number of rings (size 3 to 8) (size 9 to 14) (size 15 to 20)
#    0.000    0.000    4.444    6.667    0.000    0.889 
#    4.000    1.111    0.000    0.000    0.000    0.000 
#    0.000    0.000    0.000    0.000    0.000    0.000 
#
# Total GULP energy -201602.319200 kJ/mol
# GULP energy per Si atom -5600.064422 kJ/mol
# Density = 2.169377 g / cm^3
# Si number density = 21.743262 Si / 1000 Ang^3
#
#
#
# Elastic Constant Matrix: (Units=GPa)
#
#
# Indices 1 2 3 4 5 6 
#
# 1 82.9941 34.3781 -6.5559 0.0000 0.0000 0.0000
# 2 34.3781 177.1338 16.9375 0.0000 0.0000 0.0000
# 3 -6.5559 16.9375 84.8054 0.0000 0.0000 0.0000
# 4 0.0000 0.0000 0.0000 24.6592 0.0000 0.0000
# 5 0.0000 0.0000 0.0000 0.0000 27.6870 0.0000
# 6 0.0000 0.0000 0.0000 0.0000 0.0000 30.3904
#
#
#
# Elastic Compliance Matrix: (Units=1/GPa)
#
#
# Indices 1 2 3 4 5 6 
#
# 1 0.013305 -0.002733 0.001574 0.000000 0.000000 0.000000
# 2 -0.002733 0.006317 -0.001473 0.000000 0.000000 0.000000
# 3 0.001574 -0.001473 0.012208 0.000000 0.000000 0.000000
# 4 0.000000 0.000000 0.000000 0.040553 0.000000 0.000000
# 5 0.000000 0.000000 0.000000 0.000000 0.036118 0.000000
# 6 0.000000 0.000000 0.000000 0.000000 0.000000 0.032905
#
#
# Mechanical properties :
#
#
# Convention : Reuss Voigt Hill
#
# Bulk Modulus (GPa) = 37.64060 48.27252 42.95656
# Shear Modulus (GPa) = 32.14941 36.55891 34.35416
#
# Velocity S-wave (km/s) = 3.84942 4.10492 3.97922
# Velocity P-wave (km/s) = 6.09150 6.68704 6.39620
#
# Compressibility (1/GPa) = 0.02656706
#
# Stress axis : x y z
#
# Youngs Moduli (GPa) = 75.15734 158.31117 81.91636
#
# Poissons Ratio (x) = 0.43264 -0.12897
# Poissons Ratio (y) = 0.20539 0.12065
# Poissons Ratio (z) = -0.11833 0.23317
#
# Static dielectric constant tensor:
#      x y z
#    x 1.800530 0.000000 0.000000 
#    y 0.000000 1.790780 0.000000 
#    z 0.000000 0.000000 1.792500 
# 
# From -- ./inp_files/6049.got.cif
#   From: 2010.05.17/outbox.cif.g08.bks.cpg/sg62_4_cif.got.tgz:6049.got - 2010.06.03 15:25:27.
