data_PCOD9467740
_publ_section_title
;
Structure prediction by ZEFSAII (Michael W. Deem and Ramdas Pophale) SiO2 
 PCOD9467740
Probable space group: P N M A
;
_chemical_formula_sum "Si O2"
_cell_formula_units_Z 36
_cell_length_a 22.360359
_cell_length_b 12.323136
_cell_length_c 6.644684
_cell_angle_alpha 90.000000
_cell_angle_beta 90.000000
_cell_angle_gamma 90.000000
_cell_volume 1830.940982
_symmetry_space_group_name_H-M "P N M A"
_symmetry_group_IT_number 62
_symmetry_cell_setting 'orthorhombic'
loop_
_space_group_symop_operation_xyz
x,y,z
1/2-x,-y,1/2+z
1/2+x,1/2-y,1/2-z
-x,1/2+y,-z
-x,-y,-z
1/2+x,y,1/2-z
1/2-x,1/2+y,1/2+z
x,1/2-y,z
loop_
_atom_site_type_symbol
_atom_site_label
_atom_site_fract_x
_atom_site_fract_y
_atom_site_fract_z
Si Si1 0.856269 0.750000 0.991596
Si Si2 0.289309 0.750000 0.130811
Si Si3 0.060971 0.750000 0.773257
Si Si4 0.649500 0.750000 0.356000
Si Si5 0.615745 0.365522 0.111191
Si Si6 0.432354 0.098278 0.898503
Si Si7 0.016901 0.250000 0.842135
O O1 0.799396 0.750000 0.131194
O O2 0.912481 0.750000 0.140821
O O3 0.861487 0.648474 0.840550
O O4 0.219226 0.750000 0.098743
O O5 0.325815 0.851110 0.030415
O O6 0.063514 0.850958 0.620511
O O7 0.115322 0.750000 0.931301
O O8 0.005454 0.750000 0.926301
O O9 0.624759 0.649073 0.221941
O O10 0.581911 0.250000 0.076811
O O11 0.576460 0.470605 0.088307
O O12 0.487434 0.146139 0.768069
#
# Coordination Sequence:
#
# PCOD9467740 Si02
#       7
#     4   4   4   4   8   8   4
#     4   9  20  38  52  74 123 144 177 233 271 331
#     4   9  20  38  50  78 115 148 179 221 281 335
#     4   8  18  34  58  78 112 132 186 236 268 314
#     4   9  19  36  57  86 103 141 193 222 281 331
#     4   8  21  36  49  80 113 142 183 216 279 330
#     4   9  18  36  57  82 108 141 189 231 271 324
#     4   9  19  34  59  84 103 147 189 224 281 327
#
# _framework density 19.662019000000001
#
# number of rings (size 3 to 8) (size 9 to 14) (size 15 to 20)
#    1.333    2.222    0.000    0.000    0.000   11.556 
#    8.000    2.222    0.000    0.000    0.000    0.000 
#    0.000    0.000    0.000    0.000    0.000    0.000 
#
# Total GULP energy -200433.163240 kJ/mol
# GULP energy per Si atom -5567.587868 kJ/mol
# Density = 1.961727 g / cm^3
# Si number density = 19.662019 Si / 1000 Ang^3
#
#
#
# Elastic Constant Matrix: (Units=GPa)
#
#
# Indices 1 2 3 4 5 6 
#
# 1 65.6405 9.3627 27.0537 0.0000 0.0000 0.0000
# 2 9.3627 115.8812 27.0787 0.0000 0.0000 0.0000
# 3 27.0537 27.0787 142.1698 0.0000 0.0000 0.0000
# 4 0.0000 0.0000 0.0000 3.8750 0.0000 0.0000
# 5 0.0000 0.0000 0.0000 0.0000 25.1804 0.0000
# 6 0.0000 0.0000 0.0000 0.0000 0.0000 -290.2977
#
#
#
# Elastic Compliance Matrix: (Units=1/GPa)
#
#
# Indices 1 2 3 4 5 6 
#
# 1 0.016575 -0.000630 -0.003034 0.000000 0.000000 0.000000
# 2 -0.000630 0.009055 -0.001605 0.000000 0.000000 0.000000
# 3 -0.003034 -0.001605 0.007917 0.000000 0.000000 0.000000
# 4 0.000000 0.000000 0.000000 0.258062 0.000000 0.000000
# 5 0.000000 0.000000 0.000000 0.000000 0.039713 0.000000
# 6 0.000000 0.000000 0.000000 0.000000 0.000000 -0.003445
#
#
# Mechanical properties :
#
#
# Convention : Reuss Voigt Hill
#
# Bulk Modulus (GPa) = 43.46118 50.07575 46.76847
# Shear Modulus (GPa) = 14.44731 -34.90201 -10.22735
#
# Velocity S-wave (km/s) = 2.71363 -4.21776 -2.28317
# Velocity P-wave (km/s) = 5.65425 1.34321 4.10942
#
# Compressibility (1/GPa) = 0.02300904
#
# Stress axis : x y z
#
# Youngs Moduli (GPa) = 60.33238 110.43062 126.31272
#
# Poissons Ratio (x) = 0.06959 0.38324
# Poissons Ratio (y) = 0.03802 0.20271
# Poissons Ratio (z) = 0.18305 0.17722
#
# Static dielectric constant tensor:
#      x y z
#    x 1.696300 0.000000 0.000000 
#    y 0.000000 1.710450 0.000000 
#    z 0.000000 0.000000 1.712980 
# 
# From -- ./inp_files/3103.got.cif
#   From: 2010.05.17/outbox.cif.g08.bks.cpg/sg62_2_cif.got.tgz:3103.got - 2010.06.03 15:25:27.
