data_PCOD9467869
_publ_section_title
;
Structure prediction by ZEFSAII (Michael W. Deem and Ramdas Pophale) SiO2 
 PCOD9467869
Probable space group: P N M A
;
_chemical_formula_sum "Si O2"
_cell_formula_units_Z 48
_cell_length_a 9.000000
_cell_length_b 12.000000
_cell_length_c 24.000000
_cell_angle_alpha 90.000000
_cell_angle_beta 90.000000
_cell_angle_gamma 90.000000
_cell_volume 2592.000000
_symmetry_space_group_name_H-M "P N M A"
_symmetry_group_IT_number 62
_symmetry_cell_setting 'orthorhombic'
loop_
_space_group_symop_operation_xyz
x,y,z
1/2-x,-y,1/2+z
1/2+x,1/2-y,1/2-z
-x,1/2+y,-z
-x,-y,-z
1/2+x,y,1/2-z
1/2-x,1/2+y,1/2+z
x,1/2-y,z
loop_
_atom_site_type_symbol
_atom_site_label
_atom_site_fract_x
_atom_site_fract_y
_atom_site_fract_z
Si Si1 0.011571 0.380827 0.966035
Si Si2 0.722899 0.622959 0.364833
Si Si3 0.000569 0.492498 0.342059
Si Si4 0.288722 0.878916 0.363391
Si Si5 0.982383 0.512211 0.791379
Si Si6 0.987361 0.750000 0.672632
Si Si7 0.162927 0.250000 0.210074
O O1 0.007570 0.250000 0.990375
O O2 0.883290 0.381945 0.918537
O O3 0.158016 0.387303 0.927251
O O4 0.000000 0.500000 0.000000
O O5 0.773608 0.750000 0.357623
O O6 0.635834 0.581425 0.309813
O O7 0.851990 0.534278 0.370406
O O8 0.121091 0.584462 0.356669
O O9 0.986267 0.487215 0.274453
O O10 0.036093 0.365808 0.359049
O O11 0.317900 0.750000 0.345847
O O12 0.375908 0.970128 0.325958
O O13 0.917285 0.634229 0.808429
O O14 0.161070 0.750000 0.695023
O O15 0.869670 0.750000 0.723630
#
# Coordination Sequence:
#
# PCOD9467869 Si02
#       7
#     8   8   8   8   8   4   4
#     4   9  20  43  64  84 110 141 187 243 297 352
#     4  10  20  35  56  82 114 149 184 233 284 330
#     4  11  21  34  53  82 121 154 189 228 274 336
#     4  10  22  37  56  85 117 147 188 234 283 335
#     4  10  20  33  53  78 118 159 194 224 264 332
#     4  10  22  34  50  74 118 158 204 236 268 312
#     4  10  20  34  50  72 110 164 200 232 276 306
#
# _framework density 18.518519000000001
#
# number of rings (size 3 to 8) (size 9 to 14) (size 15 to 20)
#    0.000    2.000    1.667    3.000    7.000    4.000 
#    9.000    0.833    0.000    0.000    0.000    0.000 
#    0.000    0.000    0.000    0.000    0.000    0.000 
#
# Total GULP energy -267206.427706 kJ/mol
# GULP energy per Si atom -5566.800577 kJ/mol
# Density = 1.847637 g / cm^3
# Si number density = 18.518519 Si / 1000 Ang^3
#
#
#
# Elastic Constant Matrix: (Units=GPa)
#
#
# Indices 1 2 3 4 5 6 
#
# 1 34.3499 -7.9019 1.9009 0.0000 0.0000 0.0000
# 2 -7.9019 138.4934 34.7254 0.0000 0.0000 0.0000
# 3 1.9009 34.7254 31.1754 0.0000 0.0000 0.0000
# 4 0.0000 0.0000 0.0000 32.2704 0.0000 0.0000
# 5 0.0000 0.0000 0.0000 0.0000 -5.4549 0.0000
# 6 0.0000 0.0000 0.0000 0.0000 0.0000 33.1564
#
#
#
# Elastic Compliance Matrix: (Units=1/GPa)
#
#
# Indices 1 2 3 4 5 6 
#
# 1 0.030095 0.003021 -0.005200 0.000000 0.000000 0.000000
# 2 0.003021 0.010322 -0.011681 0.000000 0.000000 0.000000
# 3 -0.005200 -0.011681 0.045405 0.000000 0.000000 0.000000
# 4 0.000000 0.000000 0.000000 0.030988 0.000000 0.000000
# 5 0.000000 0.000000 0.000000 0.000000 -0.183321 0.000000
# 6 0.000000 0.000000 0.000000 0.000000 0.000000 0.030160
#
#
# Mechanical properties :
#
#
# Convention : Reuss Voigt Hill
#
# Bulk Modulus (GPa) = 17.21138 29.05194 23.13166
# Shear Modulus (GPa) = 465.66475 23.68066 244.67270
#
# Velocity S-wave (km/s) = 15.87466 3.57985 11.50696
# Velocity P-wave (km/s) = 18.58281 5.72793 13.75009
#
# Compressibility (1/GPa) = 0.05810110
#
# Stress axis : x y z
#
# Youngs Moduli (GPa) = 33.22828 96.88130 22.02384
#
# Poissons Ratio (x) = -0.29267 0.11452
# Poissons Ratio (y) = -0.10038 0.25727
# Poissons Ratio (z) = 0.17278 1.13172
#
# Static dielectric constant tensor:
#      x y z
#    x 1.709180 0.000000 0.000000 
#    y 0.000000 1.654110 0.000000 
#    z 0.000000 0.000000 1.610550 
# 
# From -- ./inp_files/28819.got.cif
#   From: 2010.05.17/outbox.ucp.g08.bks.cvg/sg62_15_cif.got.tgz:28819.got - 2010.06.11 16:29:25.
