data_PCOD9467451
_publ_section_title
;
Structure prediction by ZEFSAII (Michael W. Deem and Ramdas Pophale) SiO2 
 PCOD9467451
Probable space group: P N M A
;
_chemical_formula_sum "Si O2"
_cell_formula_units_Z 48
_cell_length_a 14.636820
_cell_length_b 8.701377
_cell_length_c 15.184760
_cell_angle_alpha 90.000000
_cell_angle_beta 90.000000
_cell_angle_gamma 90.000000
_cell_volume 1933.938457
_symmetry_space_group_name_H-M "P N M A"
_symmetry_group_IT_number 62
_symmetry_cell_setting 'orthorhombic'
loop_
_space_group_symop_operation_xyz
x,y,z
1/2-x,-y,1/2+z
1/2+x,1/2-y,1/2-z
-x,1/2+y,-z
-x,-y,-z
1/2+x,y,1/2-z
1/2-x,1/2+y,1/2+z
x,1/2-y,z
loop_
_atom_site_type_symbol
_atom_site_label
_atom_site_fract_x
_atom_site_fract_y
_atom_site_fract_z
Si Si1 0.622327 0.079855 0.873218
Si Si2 0.215835 0.570146 0.488309
Si Si3 0.520597 0.077107 0.407221
Si Si4 0.834344 0.503067 0.181075
Si Si5 0.060112 0.072781 0.372550
Si Si6 0.659264 0.569833 0.277023
O O1 0.601830 0.250000 0.906668
O O2 0.627859 0.089181 0.767408
O O3 0.544202 0.958181 0.896534
O O4 0.716524 0.015578 0.916764
O O5 0.197397 0.750000 0.500720
O O6 0.294828 0.561727 0.413329
O O7 0.133136 0.472895 0.445718
O O8 0.553683 0.250000 0.420264
O O9 0.500000 0.000000 0.500000
O O10 0.426038 0.082442 0.351066
O O11 0.600780 0.984387 0.359812
O O12 0.738025 0.460864 0.231389
O O13 0.070407 0.250000 0.344878
O O14 0.082072 0.948106 0.298082
O O15 0.688684 0.750000 0.281480
#
# Coordination Sequence:
#
# PCOD9467451 Si02
#       6
#     8   8   8   8   8   8
#     4  12  24  42  71 103 141 192 246 310 382 455
#     4  11  25  45  69 103 143 191 248 312 379 454
#     4  12  29  51  80 116 160 210 265 328 397 475
#     4  11  27  49  76 109 153 203 260 316 394 464
#     4  11  22  41  68 102 139 182 236 300 372 450
#     4  11  24  46  77 111 149 198 255 319 389 461
#
# _framework density 24.819818000000001
#
# number of rings (size 3 to 8) (size 9 to 14) (size 15 to 20)
#    0.000    0.667    1.667    6.500    2.333    8.000 
#    0.000    0.000    0.000    0.000    0.000    0.000 
#    0.000    0.000    0.000    0.000    0.000    0.000 
#
# Total GULP energy -267323.977022 kJ/mol
# GULP energy per Si atom -5569.249521 kJ/mol
# Density = 2.476333 g / cm^3
# Si number density = 24.819818 Si / 1000 Ang^3
#
#
#
# Elastic Constant Matrix: (Units=GPa)
#
#
# Indices 1 2 3 4 5 6 
#
# 1 143.1893 28.7802 21.1043 0.0000 0.0000 0.0000
# 2 28.7802 142.2455 27.1330 0.0000 0.0000 0.0000
# 3 21.1043 27.1330 105.7846 0.0000 0.0000 0.0000
# 4 0.0000 0.0000 0.0000 20.7800 0.0000 0.0000
# 5 0.0000 0.0000 0.0000 0.0000 33.8920 0.0000
# 6 0.0000 0.0000 0.0000 0.0000 0.0000 -54.3491
#
#
#
# Elastic Compliance Matrix: (Units=1/GPa)
#
#
# Indices 1 2 3 4 5 6 
#
# 1 0.007411 -0.001280 -0.001150 0.000000 0.000000 0.000000
# 2 -0.001280 0.007613 -0.001697 0.000000 0.000000 0.000000
# 3 -0.001150 -0.001697 0.010118 0.000000 0.000000 0.000000
# 4 0.000000 0.000000 0.000000 0.048123 0.000000 0.000000
# 5 0.000000 0.000000 0.000000 0.000000 0.029506 0.000000
# 6 0.000000 0.000000 0.000000 0.000000 0.000000 -0.018400
#
#
# Mechanical properties :
#
#
# Convention : Reuss Voigt Hill
#
# Bulk Modulus (GPa) = 59.21858 60.58382 59.90120
# Shear Modulus (GPa) = 50.88844 21.01136 35.94990
#
# Velocity S-wave (km/s) = 4.53295 2.91272 3.80996
# Velocity P-wave (km/s) = 7.16297 5.98117 6.59858
#
# Compressibility (1/GPa) = 0.01688659
#
# Stress axis : x y z
#
# Youngs Moduli (GPa) = 134.94290 131.35725 98.83413
#
# Poissons Ratio (x) = 0.16813 0.11367
# Poissons Ratio (y) = 0.17272 0.16775
# Poissons Ratio (z) = 0.15520 0.22295
#
# Static dielectric constant tensor:
#      x y z
#    x 2.014040 0.000000 0.000000 
#    y 0.000000 1.976220 0.000000 
#    z 0.000000 0.000000 2.107540 
# 
# From -- ./inp_files/19525.got.cif
#   From: 2010.05.17/outbox.cif.g08.bks.cpg/sg62_10_cif.got.tgz:19525.got - 2010.06.03 15:25:27.
