data_PCOD9467061
_publ_section_title
;
Structure prediction by ZEFSAII (Michael W. Deem and Ramdas Pophale) SiO2 
 PCOD9467061
Probable space group: P N M A
;
_chemical_formula_sum "Si O2"
_cell_formula_units_Z 60
_cell_length_a 18.167149
_cell_length_b 14.143870
_cell_length_c 11.498165
_cell_angle_alpha 90.000000
_cell_angle_beta 90.000000
_cell_angle_gamma 90.000000
_cell_volume 2954.497118
_symmetry_space_group_name_H-M "P N M A"
_symmetry_group_IT_number 62
_symmetry_cell_setting 'orthorhombic'
loop_
_space_group_symop_operation_xyz
x,y,z
1/2-x,-y,1/2+z
1/2+x,1/2-y,1/2-z
-x,1/2+y,-z
-x,-y,-z
1/2+x,y,1/2-z
1/2-x,1/2+y,1/2+z
x,1/2-y,z
loop_
_atom_site_type_symbol
_atom_site_label
_atom_site_fract_x
_atom_site_fract_y
_atom_site_fract_z
Si Si1 0.421322 0.461011 0.358713
Si Si2 0.424547 0.957199 0.122964
Si Si3 0.086568 0.924420 0.390441
Si Si4 0.554346 0.139500 0.481898
Si Si5 0.766197 0.606898 0.349291
Si Si6 0.313354 0.250000 0.828981
Si Si7 0.772391 0.353818 0.111692
Si Si8 0.337683 0.559114 0.710818
O O1 0.438723 0.465022 0.222656
O O2 0.433194 0.565185 0.413680
O O3 0.475845 0.390366 0.426393
O O4 0.337534 0.428842 0.373368
O O5 0.500041 0.899644 0.113012
O O6 0.353397 0.900458 0.163636
O O7 0.405146 0.008157 0.002256
O O8 0.138242 0.833839 0.392746
O O9 0.108164 0.986066 0.276759
O O10 0.555820 0.250000 0.513794
O O11 0.616743 0.116197 0.385359
O O12 0.730565 0.668576 0.248044
O O13 0.749294 0.645835 0.476987
O O14 0.726989 0.504271 0.345214
O O15 0.800700 0.250000 0.144366
O O16 0.702932 0.378608 0.192018
#
# Coordination Sequence:
#
# PCOD9467061 Si02
#       8
#     8   8   8   8   8   4   8   8
#     4  11  24  44  67  94 134 175 225 283 339 408
#     4  11  22  44  68  94 126 187 221 275 354 420
#     4  10  23  43  68  95 140 178 220 285 360 404
#     4  11  24  44  65  98 132 179 224 280 345 413
#     4  11  22  40  67  92 137 174 223 277 343 403
#     4  10  24  44  64 102 130 180 224 282 340 416
#     4  12  23  40  65 100 127 177 224 278 333 409
#     4  11  21  41  66  91 137 176 215 283 346 399
#
# _framework density 20.308025000000001
#
# number of rings (size 3 to 8) (size 9 to 14) (size 15 to 20)
#    0.000    1.067    6.000    0.800    0.000    0.533 
#    7.200    0.000    0.000    0.000    0.000    0.000 
#    0.000    0.000    0.000    0.000    0.000    0.000 
#
# Total GULP energy -334088.566079 kJ/mol
# GULP energy per Si atom -5568.142768 kJ/mol
# Density = 2.026180 g / cm^3
# Si number density = 20.308025 Si / 1000 Ang^3
#
#
#
# Elastic Constant Matrix: (Units=GPa)
#
#
# Indices 1 2 3 4 5 6 
#
# 1 93.4599 11.1264 19.4467 0.0000 0.0000 0.0000
# 2 11.1264 84.7284 -2.4941 0.0000 0.0000 0.0000
# 3 19.4467 -2.4941 40.5571 0.0000 0.0000 0.0000
# 4 0.0000 0.0000 0.0000 15.2433 0.0000 0.0000
# 5 0.0000 0.0000 0.0000 0.0000 31.6574 0.0000
# 6 0.0000 0.0000 0.0000 0.0000 0.0000 10.7180
#
#
#
# Elastic Compliance Matrix: (Units=1/GPa)
#
#
# Indices 1 2 3 4 5 6 
#
# 1 0.012145 -0.001769 -0.005932 0.000000 0.000000 0.000000
# 2 -0.001769 0.012082 0.001591 0.000000 0.000000 0.000000
# 3 -0.005932 0.001591 0.027599 0.000000 0.000000 0.000000
# 4 0.000000 0.000000 0.000000 0.065603 0.000000 0.000000
# 5 0.000000 0.000000 0.000000 0.000000 0.031588 0.000000
# 6 0.000000 0.000000 0.000000 0.000000 0.000000 0.093301
#
#
# Mechanical properties :
#
#
# Convention : Reuss Voigt Hill
#
# Bulk Modulus (GPa) = 25.24939 30.54483 27.89711
# Shear Modulus (GPa) = 18.67491 24.23482 21.45487
#
# Velocity S-wave (km/s) = 3.03575 3.45825 3.25387
# Velocity P-wave (km/s) = 4.97473 5.56951 5.28050
#
# Compressibility (1/GPa) = 0.03960492
#
# Stress axis : x y z
#
# Youngs Moduli (GPa) = 82.34015 82.77029 36.23344
#
# Poissons Ratio (x) = 0.14646 0.21494
# Poissons Ratio (y) = 0.14570 -0.05766
# Poissons Ratio (z) = 0.48845 -0.13172
#
# Static dielectric constant tensor:
#      x y z
#    x 1.731590 0.000000 0.000000 
#    y 0.000000 1.707060 0.000000 
#    z 0.000000 0.000000 1.722580 
# 
# From -- ./inp_files/14292.got.cif
#   From: 2010.05.17/outbox.cif.g08.bks.cpg/sg62_8_cif.got.tgz:14292.got - 2010.06.03 15:25:27.
