data_PCOD9467395
_publ_section_title
;
Structure prediction by ZEFSAII (Michael W. Deem and Ramdas Pophale) SiO2 
 PCOD9467395
Probable space group: P N M A
;
_chemical_formula_sum "Si O2"
_cell_formula_units_Z 40
_cell_length_a 8.125096
_cell_length_b 7.413282
_cell_length_c 24.665503
_cell_angle_alpha 90.000000
_cell_angle_beta 90.000000
_cell_angle_gamma 90.000000
_cell_volume 1485.692730
_symmetry_space_group_name_H-M "P N M A"
_symmetry_group_IT_number 62
_symmetry_cell_setting 'orthorhombic'
loop_
_space_group_symop_operation_xyz
x,y,z
1/2-x,-y,1/2+z
1/2+x,1/2-y,1/2-z
-x,1/2+y,-z
-x,-y,-z
1/2+x,y,1/2-z
1/2-x,1/2+y,1/2+z
x,1/2-y,z
loop_
_atom_site_type_symbol
_atom_site_label
_atom_site_fract_x
_atom_site_fract_y
_atom_site_fract_z
Si Si1 0.342371 0.537171 0.866253
Si Si2 0.156032 0.528842 0.565675
Si Si3 0.837480 0.537919 0.034540
Si Si4 0.859702 0.967722 0.834912
Si Si5 0.033192 0.969429 0.734481
O O1 0.365592 0.750000 0.860118
O O2 0.488826 0.468110 0.905573
O O3 0.180341 0.522157 0.903337
O O4 0.386890 0.469123 0.806375
O O5 0.154261 0.750000 0.565183
O O6 0.194475 0.463322 0.505350
O O7 0.305176 0.469946 0.605708
O O8 0.819463 0.750000 0.037389
O O9 0.000000 0.500000 0.000000
O O10 0.872893 0.750000 0.839389
O O11 0.005974 0.033834 0.795942
O O12 0.699562 0.009603 0.797479
O O13 0.030459 0.750000 0.738816
#
# Coordination Sequence:
#
# PCOD9467395 Si02
#       5
#     8   8   8   8   8
#     4   9  17  32  51  72  96 124 157 194 233 283
#     4   8  16  30  48  69  96 126 159 196 236 281
#     4  11  22  34  48  70  97 127 160 200 245 287
#     4   8  13  23  39  65  96 122 148 186 233 278
#     4   8  14  23  40  66  95 121 147 182 229 277
#
# _framework density 26.923468
#
# number of rings (size 3 to 8) (size 9 to 14) (size 15 to 20)
#    0.000    3.200    0.000    3.600    0.000    1.600 
#    0.000    7.000    0.000    0.000    0.000   14.000 
#    0.000    0.000    0.000    0.000    0.000    0.000 
#
# Total GULP energy -223359.491851 kJ/mol
# GULP energy per Si atom -5583.987296 kJ/mol
# Density = 2.686219 g / cm^3
# Si number density = 26.923468 Si / 1000 Ang^3
#
#
#
# Elastic Constant Matrix: (Units=GPa)
#
#
# Indices 1 2 3 4 5 6 
#
# 1 50.7291 -8.7784 -6.4869 0.0000 0.0000 0.0000
# 2 -8.7784 89.6857 -0.7388 0.0000 0.0000 0.0000
# 3 -6.4869 -0.7388 180.1426 0.0000 0.0000 0.0000
# 4 0.0000 0.0000 0.0000 0.0447 0.0000 0.0000
# 5 0.0000 0.0000 0.0000 0.0000 48.7258 0.0000
# 6 0.0000 0.0000 0.0000 0.0000 0.0000 -2.6756
#
#
#
# Elastic Compliance Matrix: (Units=1/GPa)
#
#
# Indices 1 2 3 4 5 6 
#
# 1 0.020149 0.001978 0.000734 0.000000 0.000000 0.000000
# 2 0.001978 0.011345 0.000118 0.000000 0.000000 0.000000
# 3 0.000734 0.000118 0.005578 0.000000 0.000000 0.000000
# 4 0.000000 0.000000 0.000000 22.362442 0.000000 0.000000
# 5 0.000000 0.000000 0.000000 0.000000 0.020523 0.000000
# 6 0.000000 0.000000 0.000000 0.000000 0.000000 -0.373746
#
#
# Mechanical properties :
#
#
# Convention : Reuss Voigt Hill
#
# Bulk Modulus (GPa) = 23.40243 32.06103 27.73173
# Shear Modulus (GPa) = 0.22671 31.65641 15.94156
#
# Velocity S-wave (km/s) = 0.29049 3.43270 2.43596
# Velocity P-wave (km/s) = 2.97045 5.25788 4.27018
#
# Compressibility (1/GPa) = 0.04273060
#
# Stress axis : x y z
#
# Youngs Moduli (GPa) = 49.63101 88.14733 179.27380
#
# Poissons Ratio (x) = -0.17437 -0.13153
# Poissons Ratio (y) = -0.09818 -0.02111
# Poissons Ratio (z) = -0.03641 -0.01038
#
# Static dielectric constant tensor:
#      x y z
#    x 2.161260 0.000000 0.000000 
#    y 0.000000 2.027720 0.000000 
#    z 0.000000 0.000000 1.714850 
# 
# From -- ./inp_files/28589.got.cif
#   From: 2010.05.17/outbox.cif.g08.bks.cpg/sg62_15_cif.got.tgz:28589.got - 2010.06.03 15:25:27.
