data_PCOD9467167
_publ_section_title
;
Structure prediction by ZEFSAII (Michael W. Deem and Ramdas Pophale) SiO2 
 PCOD9467167
Probable space group: P N M A
;
_chemical_formula_sum "Si O2"
_cell_formula_units_Z 48
_cell_length_a 9.323974
_cell_length_b 16.590137
_cell_length_c 14.055589
_cell_angle_alpha 90.000000
_cell_angle_beta 90.000000
_cell_angle_gamma 90.000000
_cell_volume 2174.202925
_symmetry_space_group_name_H-M "P N M A"
_symmetry_group_IT_number 62
_symmetry_cell_setting 'orthorhombic'
loop_
_space_group_symop_operation_xyz
x,y,z
1/2-x,-y,1/2+z
1/2+x,1/2-y,1/2-z
-x,1/2+y,-z
-x,-y,-z
1/2+x,y,1/2-z
1/2-x,1/2+y,1/2+z
x,1/2-y,z
loop_
_atom_site_type_symbol
_atom_site_label
_atom_site_fract_x
_atom_site_fract_y
_atom_site_fract_z
Si Si1 0.460788 0.655427 0.046088
Si Si2 0.392268 0.460241 0.800839
Si Si3 0.961950 0.907228 0.980011
Si Si4 0.868851 0.071650 0.199657
Si Si5 0.157742 0.842054 0.130733
Si Si6 0.318890 0.155844 0.107367
O O1 0.489957 0.750000 0.070341
O O2 0.539677 0.594911 0.117695
O O3 0.291784 0.643338 0.060292
O O4 0.526517 0.642164 0.941688
O O5 0.263538 0.517203 0.834859
O O6 0.513660 0.513666 0.749389
O O7 0.331179 0.401845 0.718794
O O8 0.798194 0.893909 0.951912
O O9 0.054476 0.883795 0.887172
O O10 0.013532 0.858412 0.071634
O O11 0.000000 0.000000 0.000000
O O12 0.816475 0.129257 0.283834
O O13 0.163059 0.750000 0.163471
O O14 0.283680 0.250000 0.098587
#
# Coordination Sequence:
#
# PCOD9467167 Si02
#       6
#     8   8   8   8   8   8
#     4  10  24  43  67  96 134 175 215 272 336 400
#     4  12  23  44  65  98 132 169 222 272 334 394
#     4  12  24  45  68  99 133 172 227 276 334 397
#     4  12  25  43  68  96 129 174 221 271 327 395
#     4  11  24  42  66  98 131 172 221 273 333 394
#     4  11  26  46  65  96 134 177 223 272 336 401
#
# _framework density 22.077055999999999
#
# number of rings (size 3 to 8) (size 9 to 14) (size 15 to 20)
#    0.000    0.667    5.000    2.000    2.333    2.000 
#    0.000    0.000    0.000    0.000    0.000    0.000 
#    0.000    0.000    0.000    0.000    0.000    0.000 
#
# Total GULP energy -268733.848183 kJ/mol
# GULP energy per Si atom -5598.621837 kJ/mol
# Density = 2.202681 g / cm^3
# Si number density = 22.077056 Si / 1000 Ang^3
#
#
#
# Elastic Constant Matrix: (Units=GPa)
#
#
# Indices 1 2 3 4 5 6 
#
# 1 49.0202 2.8372 -20.5448 0.0000 0.0000 0.0000
# 2 2.8372 53.0975 -0.9921 0.0000 0.0000 0.0000
# 3 -20.5448 -0.9921 46.4182 0.0000 0.0000 0.0000
# 4 0.0000 0.0000 0.0000 33.0304 0.0000 0.0000
# 5 0.0000 0.0000 0.0000 0.0000 41.7796 0.0000
# 6 0.0000 0.0000 0.0000 0.0000 0.0000 31.4767
#
#
#
# Elastic Compliance Matrix: (Units=1/GPa)
#
#
# Indices 1 2 3 4 5 6 
#
# 1 0.025114 -0.001135 0.011091 0.000000 0.000000 0.000000
# 2 -0.001135 0.018892 -0.000098 0.000000 0.000000 0.000000
# 3 0.011091 -0.000098 0.026450 0.000000 0.000000 0.000000
# 4 0.000000 0.000000 0.000000 0.030275 0.000000 0.000000
# 5 0.000000 0.000000 0.000000 0.000000 0.023935 0.000000
# 6 0.000000 0.000000 0.000000 0.000000 0.000000 0.031770
#
#
# Mechanical properties :
#
#
# Convention : Reuss Voigt Hill
#
# Bulk Modulus (GPa) = 11.08988 12.34850 11.71919
# Shear Modulus (GPa) = 29.98012 32.40639 31.19325
#
# Velocity S-wave (km/s) = 3.68907 3.83544 3.76297
# Velocity P-wave (km/s) = 4.81454 5.02192 4.91932
#
# Compressibility (1/GPa) = 0.09017228
#
# Stress axis : x y z
#
# Youngs Moduli (GPa) = 39.81867 52.93227 37.80688
#
# Poissons Ratio (x) = 0.06006 -0.41932
# Poissons Ratio (y) = 0.04518 0.00372
# Poissons Ratio (z) = -0.44164 0.00521
#
# Static dielectric constant tensor:
#      x y z
#    x 1.810930 0.000000 0.000000 
#    y 0.000000 1.784990 0.000000 
#    z 0.000000 0.000000 1.786260 
# 
# From -- ./inp_files/16956.got.cif
#   From: 2010.05.17/outbox.cif.g08.bks.cpg/sg62_9_cif.got.tgz:16956.got - 2010.06.03 15:25:27.
