data_PCOD9467747
_publ_section_title
;
Structure prediction by ZEFSAII (Michael W. Deem and Ramdas Pophale) SiO2 
 PCOD9467747
Probable space group: P N M A
;
_chemical_formula_sum "Si O2"
_cell_formula_units_Z 32
_cell_length_a 15.800892
_cell_length_b 11.279555
_cell_length_c 6.920450
_cell_angle_alpha 90.000000
_cell_angle_beta 90.000000
_cell_angle_gamma 90.000000
_cell_volume 1233.411252
_symmetry_space_group_name_H-M "P N M A"
_symmetry_group_IT_number 62
_symmetry_cell_setting 'orthorhombic'
loop_
_space_group_symop_operation_xyz
x,y,z
1/2-x,-y,1/2+z
1/2+x,1/2-y,1/2-z
-x,1/2+y,-z
-x,-y,-z
1/2+x,y,1/2-z
1/2-x,1/2+y,1/2+z
x,1/2-y,z
loop_
_atom_site_type_symbol
_atom_site_label
_atom_site_fract_x
_atom_site_fract_y
_atom_site_fract_z
Si Si1 0.095573 0.878329 0.099403
Si Si2 0.681840 0.120572 0.425935
Si Si3 0.881725 0.123035 0.359186
Si Si4 0.084196 0.122388 0.687164
O O1 0.136065 0.750000 0.150567
O O2 0.001899 0.879817 0.187415
O O3 0.143825 0.998319 0.154039
O O4 0.092251 0.878610 0.866135
O O5 0.647081 0.250000 0.360744
O O6 0.780896 0.122270 0.382136
O O7 0.659712 0.116333 0.654423
O O8 0.912727 0.250000 0.438455
O O9 0.911897 0.996633 0.436626
O O10 0.091744 0.250000 0.588294
#
# Coordination Sequence:
#
# PCOD9467747 Si02
#       4
#     8   8   8   8
#     4   9  17  29  44  62  84 109 137 169 204 242
#     4   9  16  25  39  61  86 109 134 166 204 243
#     4   9  16  25  39  61  86 109 134 166 204 243
#     4   9  17  29  44  62  84 109 137 169 204 242
#
# _framework density 25.944306999999998
#
# number of rings (size 3 to 8) (size 9 to 14) (size 15 to 20)
#    0.000    3.000    0.000    3.000    0.000    4.000 
#    0.000    0.000    0.000    0.000    0.000   28.000 
#    0.000   48.000    0.000    0.000    0.000    0.000 
#
# Total GULP energy -178802.643224 kJ/mol
# GULP energy per Si atom -5587.582601 kJ/mol
# Density = 2.588526 g / cm^3
# Si number density = 25.944307 Si / 1000 Ang^3
#
#
#
# Elastic Constant Matrix: (Units=GPa)
#
#
# Indices 1 2 3 4 5 6 
#
# 1 48.5181 43.7929 17.3920 0.0000 0.0000 0.0000
# 2 43.7929 362.4964 7.2673 0.0000 0.0000 0.0000
# 3 17.3920 7.2673 108.2369 0.0000 0.0000 0.0000
# 4 0.0000 0.0000 0.0000 -34.4806 0.0000 0.0000
# 5 0.0000 0.0000 0.0000 0.0000 6.9309 0.0000
# 6 0.0000 0.0000 0.0000 0.0000 0.0000 35.7142
#
#
#
# Elastic Compliance Matrix: (Units=1/GPa)
#
#
# Indices 1 2 3 4 5 6 
#
# 1 0.024567 -0.002893 -0.003753 0.000000 0.000000 0.000000
# 2 -0.002893 0.003103 0.000256 0.000000 0.000000 0.000000
# 3 -0.003753 0.000256 0.009825 0.000000 0.000000 0.000000
# 4 0.000000 0.000000 0.000000 -0.029002 0.000000 0.000000
# 5 0.000000 0.000000 0.000000 0.000000 0.144281 0.000000
# 6 0.000000 0.000000 0.000000 0.000000 0.000000 0.028000
#
#
# Mechanical properties :
#
#
# Convention : Reuss Voigt Hill
#
# Bulk Modulus (GPa) = 40.45970 72.90619 56.68294
# Shear Modulus (GPa) = 24.77801 31.68621 28.23211
#
# Velocity S-wave (km/s) = 3.09374 3.49852 3.30234
# Velocity P-wave (km/s) = 5.32825 6.66945 6.03622
#
# Compressibility (1/GPa) = 0.02471595
#
# Stress axis : x y z
#
# Youngs Moduli (GPa) = 40.70455 322.27175 101.78239
#
# Poissons Ratio (x) = 0.93224 0.38203
# Poissons Ratio (y) = 0.11775 -0.02610
# Poissons Ratio (z) = 0.15278 -0.08265
#
# Static dielectric constant tensor:
#      x y z
#    x 1.955160 0.000000 0.000000 
#    y 0.000000 2.147710 0.000000 
#    z 0.000000 0.000000 1.955780 
# 
# From -- ./inp_files/4849.got.cif
#   From: 2010.05.17/outbox.cif.g08.bks.cpg/sg62_3_cif.got.tgz:4849.got - 2010.06.03 15:25:27.
