data_PCOD9467626
_publ_section_title
;
Structure prediction by ZEFSAII (Michael W. Deem and Ramdas Pophale) SiO2 
 PCOD9467626
Probable space group: P N M A
;
_chemical_formula_sum "Si O2"
_cell_formula_units_Z 28
_cell_length_a 13.588681
_cell_length_b 7.362857
_cell_length_c 10.454273
_cell_angle_alpha 90.000000
_cell_angle_beta 90.000000
_cell_angle_gamma 90.000000
_cell_volume 1045.965852
_symmetry_space_group_name_H-M "P N M A"
_symmetry_group_IT_number 62
_symmetry_cell_setting 'orthorhombic'
loop_
_space_group_symop_operation_xyz
x,y,z
1/2-x,-y,1/2+z
1/2+x,1/2-y,1/2-z
-x,1/2+y,-z
-x,-y,-z
1/2+x,y,1/2-z
1/2-x,1/2+y,1/2+z
x,1/2-y,z
loop_
_atom_site_type_symbol
_atom_site_label
_atom_site_fract_x
_atom_site_fract_y
_atom_site_fract_z
Si Si1 0.236362 0.250000 0.821804
Si Si2 0.053485 0.250000 0.676123
Si Si3 0.453507 0.536224 0.640254
Si Si4 0.746708 0.954045 0.477253
Si Si5 0.102873 0.750000 0.500539
O O1 0.205330 0.425527 0.904260
O O2 0.351494 0.250000 0.855414
O O3 0.172614 0.250000 0.694301
O O4 0.012118 0.422613 0.754641
O O5 0.011345 0.250000 0.531155
O O6 0.500000 0.500000 0.500000
O O7 0.457191 0.750000 0.667610
O O8 0.338874 0.474797 0.628594
O O9 0.755485 0.750000 0.526864
O O10 0.844727 0.071674 0.443145
#
# Coordination Sequence:
#
# PCOD9467626 Si02
#       5
#     4   4   8   8   4
#     4   8  18  30  44  62  99 121 146 188 228 268
#     4  12  20  28  50  76  94 123 161 192 227 289
#     4  12  17  26  45  74  97 121 148 191 242 285
#     4   9  15  30  46  57  97 130 142 185 238 277
#     4   8  20  32  40  68  97 124 159 180 231 287
#
# _framework density 26.769515999999999
#
# number of rings (size 3 to 8) (size 9 to 14) (size 15 to 20)
#    1.714    0.000    8.571    0.000    0.000    1.143 
#    0.000    0.000    0.000    0.000    0.000    2.000 
#    0.000    0.000    0.000    0.000    0.000    0.000 
#
# Total GULP energy -156441.964513 kJ/mol
# GULP energy per Si atom -5587.213018 kJ/mol
# Density = 2.670859 g / cm^3
# Si number density = 26.769516 Si / 1000 Ang^3
#
#
#
# Elastic Constant Matrix: (Units=GPa)
#
#
# Indices 1 2 3 4 5 6 
#
# 1 149.9950 34.3247 7.1708 0.0000 0.0000 0.0000
# 2 34.3247 259.3998 12.7998 0.0000 0.0000 0.0000
# 3 7.1708 12.7998 63.5024 0.0000 0.0000 0.0000
# 4 0.0000 0.0000 0.0000 31.6548 0.0000 0.0000
# 5 0.0000 0.0000 0.0000 0.0000 55.9506 0.0000
# 6 0.0000 0.0000 0.0000 0.0000 0.0000 4.3933
#
#
#
# Elastic Compliance Matrix: (Units=1/GPa)
#
#
# Indices 1 2 3 4 5 6 
#
# 1 0.006898 -0.000883 -0.000601 0.000000 0.000000 0.000000
# 2 -0.000883 0.004007 -0.000708 0.000000 0.000000 0.000000
# 3 -0.000601 -0.000708 0.015958 0.000000 0.000000 0.000000
# 4 0.000000 0.000000 0.000000 0.031591 0.000000 0.000000
# 5 0.000000 0.000000 0.000000 0.000000 0.017873 0.000000
# 6 0.000000 0.000000 0.000000 0.000000 0.000000 0.227618
#
#
# Mechanical properties :
#
#
# Convention : Reuss Voigt Hill
#
# Bulk Modulus (GPa) = 44.48653 64.60976 54.54815
# Shear Modulus (GPa) = 15.83175 46.30655 31.06915
#
# Velocity S-wave (km/s) = 2.43453 4.16363 3.41048
# Velocity P-wave (km/s) = 4.95550 6.87767 5.99414
#
# Compressibility (1/GPa) = 0.02247872
#
# Stress axis : x y z
#
# Youngs Moduli (GPa) = 144.97592 249.57352 62.66459
#
# Poissons Ratio (x) = 0.22039 0.03766
# Poissons Ratio (y) = 0.12802 0.04436
# Poissons Ratio (z) = 0.08712 0.17668
#
# Static dielectric constant tensor:
#      x y z
#    x 2.173710 0.000000 0.000000 
#    y 0.000000 1.311500 0.000000 
#    z 0.000000 0.000000 2.028000 
# 
# From -- ./inp_files/18409.got.cif
#   From: 2010.05.17/outbox.cif.g08.bks.cpg/sg62_10_cif.got.tgz:18409.got - 2010.06.03 15:25:27.
