data_PCOD9467185
_publ_section_title
;
Structure prediction by ZEFSAII (Michael W. Deem and Ramdas Pophale) SiO2 
 PCOD9467185
Probable space group: P N M A
;
_chemical_formula_sum "Si O2"
_cell_formula_units_Z 40
_cell_length_a 12.544849
_cell_length_b 8.757399
_cell_length_c 18.126078
_cell_angle_alpha 90.000000
_cell_angle_beta 90.000000
_cell_angle_gamma 90.000000
_cell_volume 1991.335426
_symmetry_space_group_name_H-M "P N M A"
_symmetry_group_IT_number 62
_symmetry_cell_setting 'orthorhombic'
loop_
_space_group_symop_operation_xyz
x,y,z
1/2-x,-y,1/2+z
1/2+x,1/2-y,1/2-z
-x,1/2+y,-z
-x,-y,-z
1/2+x,y,1/2-z
1/2-x,1/2+y,1/2+z
x,1/2-y,z
loop_
_atom_site_type_symbol
_atom_site_label
_atom_site_fract_x
_atom_site_fract_y
_atom_site_fract_z
Si Si1 0.046960 0.066928 0.575951
Si Si2 0.960992 0.432062 0.866930
Si Si3 0.123685 0.931465 0.297685
Si Si4 0.194778 0.930743 0.886730
Si Si5 0.767004 0.931932 0.956372
O O1 0.053405 0.250000 0.570096
O O2 0.968669 0.028885 0.643506
O O3 0.164741 0.999062 0.585828
O O4 0.000000 0.000000 0.500000
O O5 0.971229 0.250000 0.878340
O O6 0.916703 0.459543 0.784687
O O7 0.875605 0.500350 0.923542
O O8 0.075378 0.509608 0.875690
O O9 0.145577 0.750000 0.305057
O O10 0.229428 0.022470 0.319203
O O11 0.195905 0.750000 0.898157
O O12 0.241276 0.013642 0.959123
O O13 0.767373 0.750000 0.952726
#
# Coordination Sequence:
#
# PCOD9467185 Si02
#       5
#     8   8   8   8   8
#     4  11  22  40  66  98 129 169 216 266 321 383
#     4  11  25  45  68  95 131 174 218 267 328 392
#     4  10  24  44  67  94 130 173 215 263 325 391
#     4  12  25  43  68  97 131 170 217 271 324 386
#     4  12  25  43  67  97 132 172 219 271 325 385
#
# _framework density 20.087022999999999
#
# number of rings (size 3 to 8) (size 9 to 14) (size 15 to 20)
#    0.000    0.800    2.000    5.400    2.800    2.400 
#    0.000    0.000    0.000    0.000    0.000    0.000 
#    0.000    0.000    0.000    0.000    0.000    0.000 
#
# Total GULP energy -223965.184256 kJ/mol
# GULP energy per Si atom -5599.129606 kJ/mol
# Density = 2.004130 g / cm^3
# Si number density = 20.087023 Si / 1000 Ang^3
#
#
#
# Elastic Constant Matrix: (Units=GPa)
#
#
# Indices 1 2 3 4 5 6 
#
# 1 104.8853 16.6920 -13.3676 0.0000 0.0000 0.0000
# 2 16.6920 55.4025 12.5632 0.0000 0.0000 0.0000
# 3 -13.3676 12.5632 31.0219 0.0000 0.0000 0.0000
# 4 0.0000 0.0000 0.0000 29.9950 0.0000 0.0000
# 5 0.0000 0.0000 0.0000 0.0000 3.6616 0.0000
# 6 0.0000 0.0000 0.0000 0.0000 0.0000 40.3675
#
#
#
# Elastic Compliance Matrix: (Units=1/GPa)
#
#
# Indices 1 2 3 4 5 6 
#
# 1 0.011184 -0.004914 0.006809 0.000000 0.000000 0.000000
# 2 -0.004914 0.022034 -0.011041 0.000000 0.000000 0.000000
# 3 0.006809 -0.011041 0.039641 0.000000 0.000000 0.000000
# 4 0.000000 0.000000 0.000000 0.033339 0.000000 0.000000
# 5 0.000000 0.000000 0.000000 0.000000 0.273102 0.000000
# 6 0.000000 0.000000 0.000000 0.000000 0.000000 0.024772
#
#
# Mechanical properties :
#
#
# Convention : Reuss Voigt Hill
#
# Bulk Modulus (GPa) = 18.32564 24.78723 21.55644
# Shear Modulus (GPa) = 11.34942 26.49964 18.92453
#
# Velocity S-wave (km/s) = 2.37958 3.63608 3.07274
# Velocity P-wave (km/s) = 4.08568 5.47675 4.83154
#
# Compressibility (1/GPa) = 0.05456836
#
# Stress axis : x y z
#
# Youngs Moduli (GPa) = 89.41310 45.38498 25.22670
#
# Poissons Ratio (x) = 0.22301 -0.17177
# Poissons Ratio (y) = 0.43935 0.27852
# Poissons Ratio (z) = -0.60883 0.50107
#
# Static dielectric constant tensor:
#      x y z
#    x 1.695130 0.000000 0.000000 
#    y 0.000000 1.681110 0.000000 
#    z 0.000000 0.000000 1.692130 
# 
# From -- ./inp_files/22775.got.cif
#   From: 2010.05.17/outbox.cif.g08.bks.cpg/sg62_12_cif.got.tgz:22775.got - 2010.06.03 15:25:27.
