data_PCOD9467204
_publ_section_title
;
Structure prediction by ZEFSAII (Michael W. Deem and Ramdas Pophale) SiO2 
 PCOD9467204
Probable space group: P N M A
;
_chemical_formula_sum "Si O2"
_cell_formula_units_Z 48
_cell_length_a 9.040360
_cell_length_b 17.336423
_cell_length_c 16.252505
_cell_angle_alpha 90.000000
_cell_angle_beta 90.000000
_cell_angle_gamma 90.000000
_cell_volume 2547.214559
_symmetry_space_group_name_H-M "P N M A"
_symmetry_group_IT_number 62
_symmetry_cell_setting 'orthorhombic'
loop_
_space_group_symop_operation_xyz
x,y,z
1/2-x,-y,1/2+z
1/2+x,1/2-y,1/2-z
-x,1/2+y,-z
-x,-y,-z
1/2+x,y,1/2-z
1/2-x,1/2+y,1/2+z
x,1/2-y,z
loop_
_atom_site_type_symbol
_atom_site_label
_atom_site_fract_x
_atom_site_fract_y
_atom_site_fract_z
Si Si1 0.966568 0.658822 0.655356
Si Si2 0.671490 0.658784 0.994828
Si Si3 0.842131 0.417486 0.204114
Si Si4 0.915956 0.542815 0.926969
Si Si5 0.543810 0.841831 0.174649
Si Si6 0.751061 0.432392 0.799189
O O1 0.943282 0.750000 0.664200
O O2 0.814370 0.615474 0.674493
O O3 0.031609 0.643178 0.564790
O O4 0.090163 0.630715 0.720162
O O5 0.706829 0.750000 0.986248
O O6 0.804020 0.605642 0.963611
O O7 0.629628 0.643418 0.089180
O O8 0.815526 0.503817 0.236971
O O9 0.963425 0.418263 0.132609
O O10 0.826909 0.480928 0.871871
O O11 0.000000 0.500000 0.000000
O O12 0.533703 0.750000 0.186412
O O13 0.382273 0.879425 0.169815
O O14 0.631534 0.881444 0.249237
#
# Coordination Sequence:
#
# PCOD9467204 Si02
#       6
#     8   8   8   8   8   8
#     4  11  22  39  64  95 132 176 214 261 323 390
#     4  10  24  45  67  96 136 175 217 272 332 394
#     4  12  22  41  63  96 130 169 219 266 322 389
#     4  12  26  42  66 100 130 173 221 273 333 387
#     4  11  25  45  68  94 127 175 222 273 331 389
#     4  12  23  44  67  95 130 168 221 273 325 394
#
# _framework density 18.844114000000001
#
# number of rings (size 3 to 8) (size 9 to 14) (size 15 to 20)
#    0.000    0.667    5.000    2.000    2.333    3.333 
#    0.000    0.833    0.000    0.000    0.000    0.000 
#    0.000    0.000    0.000    0.000    0.000    0.000 
#
# Total GULP energy -268495.283652 kJ/mol
# GULP energy per Si atom -5593.651743 kJ/mol
# Density = 1.880122 g / cm^3
# Si number density = 18.844114 Si / 1000 Ang^3
#
#
#
# Elastic Constant Matrix: (Units=GPa)
#
#
# Indices 1 2 3 4 5 6 
#
# 1 126.4673 63.0712 53.9732 0.0000 0.0000 0.0000
# 2 63.0712 88.9520 51.8728 0.0000 0.0000 0.0000
# 3 53.9732 51.8728 92.1129 0.0000 0.0000 0.0000
# 4 0.0000 0.0000 0.0000 33.6826 0.0000 0.0000
# 5 0.0000 0.0000 0.0000 0.0000 35.3681 0.0000
# 6 0.0000 0.0000 0.0000 0.0000 0.0000 40.4103
#
#
#
# Elastic Compliance Matrix: (Units=1/GPa)
#
#
# Indices 1 2 3 4 5 6 
#
# 1 0.012992 -0.007107 -0.003611 0.000000 0.000000 0.000000
# 2 -0.007107 0.020626 -0.007452 0.000000 0.000000 0.000000
# 3 -0.003611 -0.007452 0.017168 0.000000 0.000000 0.000000
# 4 0.000000 0.000000 0.000000 0.029689 0.000000 0.000000
# 5 0.000000 0.000000 0.000000 0.000000 0.028274 0.000000
# 6 0.000000 0.000000 0.000000 0.000000 0.000000 0.024746
#
#
# Mechanical properties :
#
#
# Convention : Reuss Voigt Hill
#
# Bulk Modulus (GPa) = 69.20818 71.70741 70.45779
# Shear Modulus (GPa) = 28.62867 31.13319 29.88093
#
# Velocity S-wave (km/s) = 3.90197 4.06907 3.98639
# Velocity P-wave (km/s) = 7.55691 7.75964 7.65894
#
# Compressibility (1/GPa) = 0.01444916
#
# Stress axis : x y z
#
# Youngs Moduli (GPa) = 76.96859 48.48184 58.24695
#
# Poissons Ratio (x) = 0.34454 0.21032
# Poissons Ratio (y) = 0.54698 0.43403
# Poissons Ratio (z) = 0.27792 0.36126
#
# Static dielectric constant tensor:
#      x y z
#    x 1.628550 0.000000 0.000000 
#    y 0.000000 1.628080 0.000000 
#    z 0.000000 0.000000 1.646320 
# 
# From -- ./inp_files/16939.got.cif
#   From: 2010.05.17/outbox.cif.g08.bks.cpg/sg62_9_cif.got.tgz:16939.got - 2010.06.03 15:25:27.
