data_PCOD9467179
_publ_section_title
;
Structure prediction by ZEFSAII (Michael W. Deem and Ramdas Pophale) SiO2 
 PCOD9467179
Probable space group: P N M A
;
_chemical_formula_sum "Si O2"
_cell_formula_units_Z 40
_cell_length_a 10.252298
_cell_length_b 18.438885
_cell_length_c 9.513101
_cell_angle_alpha 90.000000
_cell_angle_beta 90.000000
_cell_angle_gamma 90.000000
_cell_volume 1798.365592
_symmetry_space_group_name_H-M "P N M A"
_symmetry_group_IT_number 62
_symmetry_cell_setting 'orthorhombic'
loop_
_space_group_symop_operation_xyz
x,y,z
1/2-x,-y,1/2+z
1/2+x,1/2-y,1/2-z
-x,1/2+y,-z
-x,-y,-z
1/2+x,y,1/2-z
1/2-x,1/2+y,1/2+z
x,1/2-y,z
loop_
_atom_site_type_symbol
_atom_site_label
_atom_site_fract_x
_atom_site_fract_y
_atom_site_fract_z
Si Si1 0.349975 0.054416 0.613440
Si Si2 0.754438 0.394102 0.433057
Si Si3 0.501220 0.671845 0.034578
Si Si4 0.114007 0.387230 0.804593
Si Si5 0.727056 0.667013 0.620222
O O1 0.497864 0.055078 0.669468
O O2 0.242997 0.082069 0.727137
O O3 0.345276 0.110214 0.481982
O O4 0.301573 0.974935 0.573718
O O5 0.899111 0.390955 0.497063
O O6 0.661608 0.355479 0.547443
O O7 0.766340 0.359422 0.280078
O O8 0.566313 0.750000 0.011065
O O9 0.374783 0.667177 0.937656
O O10 0.451460 0.666586 0.193605
O O11 0.677153 0.750000 0.610193
#
# Coordination Sequence:
#
# PCOD9467179 Si02
#       5
#     8   8   8   8   8
#     4  11  25  44  72 103 139 181 229 285 341 414
#     4  12  24  42  72 102 135 178 234 283 346 404
#     4  10  24  44  65  96 135 180 229 283 344 407
#     4  11  24  45  67 101 133 181 230 280 339 408
#     4  10  25  44  66 100 143 181 224 285 353 412
#
# _framework density 22.242417
#
# number of rings (size 3 to 8) (size 9 to 14) (size 15 to 20)
#    0.000    1.200    2.000    2.400    5.600    4.000 
#    0.000    0.000    0.000    0.000    0.000    0.000 
#    0.000    0.000    0.000    0.000    0.000    0.000 
#
# Total GULP energy -223510.856795 kJ/mol
# GULP energy per Si atom -5587.771420 kJ/mol
# Density = 2.219179 g / cm^3
# Si number density = 22.242417 Si / 1000 Ang^3
#
#
#
# Elastic Constant Matrix: (Units=GPa)
#
#
# Indices 1 2 3 4 5 6 
#
# 1 62.8910 -2.1994 28.4930 0.0000 0.0000 0.0000
# 2 -2.1994 62.8530 43.5295 0.0000 0.0000 0.0000
# 3 28.4930 43.5295 158.2181 0.0000 0.0000 0.0000
# 4 0.0000 0.0000 0.0000 15.5183 0.0000 0.0000
# 5 0.0000 0.0000 0.0000 0.0000 11.7936 0.0000
# 6 0.0000 0.0000 0.0000 0.0000 0.0000 14.7822
#
#
#
# Elastic Compliance Matrix: (Units=1/GPa)
#
#
# Indices 1 2 3 4 5 6 
#
# 1 0.017928 0.003537 -0.004202 0.000000 0.000000 0.000000
# 2 0.003537 0.020353 -0.006237 0.000000 0.000000 0.000000
# 3 -0.004202 -0.006237 0.008793 0.000000 0.000000 0.000000
# 4 0.000000 0.000000 0.000000 0.064440 0.000000 0.000000
# 5 0.000000 0.000000 0.000000 0.000000 0.084792 0.000000
# 6 0.000000 0.000000 0.000000 0.000000 0.000000 0.067649
#
#
# Mechanical properties :
#
#
# Convention : Reuss Voigt Hill
#
# Bulk Modulus (GPa) = 30.05551 47.06757 38.56154
# Shear Modulus (GPa) = 17.31015 22.69475 20.00245
#
# Velocity S-wave (km/s) = 2.79274 3.19774 3.00207
# Velocity P-wave (km/s) = 4.89298 5.90264 5.42136
#
# Compressibility (1/GPa) = 0.03327177
#
# Stress axis : x y z
#
# Youngs Moduli (GPa) = 55.77907 49.13240 113.72791
#
# Poissons Ratio (x) = -0.17380 0.47786
# Poissons Ratio (y) = -0.19731 0.70928
# Poissons Ratio (z) = 0.23437 0.30642
#
# Static dielectric constant tensor:
#      x y z
#    x 1.796470 0.000000 0.000000 
#    y 0.000000 1.867950 0.000000 
#    z 0.000000 0.000000 1.849220 
# 
# From -- ./inp_files/5039.got.cif
#   From: 2010.05.17/outbox.cif.g08.bks.cpg/sg62_3_cif.got.tgz:5039.got - 2010.06.03 15:25:27.
