data_PCOD9467888
_publ_section_title
;
Structure prediction by ZEFSAII (Michael W. Deem and Ramdas Pophale) SiO2 
 PCOD9467888
Probable space group: P N M A
;
_chemical_formula_sum "Si O2"
_cell_formula_units_Z 64
_cell_length_a 9.000000
_cell_length_b 12.000000
_cell_length_c 30.000000
_cell_angle_alpha 90.000000
_cell_angle_beta 90.000000
_cell_angle_gamma 90.000000
_cell_volume 3240.000000
_symmetry_space_group_name_H-M "P N M A"
_symmetry_group_IT_number 62
_symmetry_cell_setting 'orthorhombic'
loop_
_space_group_symop_operation_xyz
x,y,z
1/2-x,-y,1/2+z
1/2+x,1/2-y,1/2-z
-x,1/2+y,-z
-x,-y,-z
1/2+x,y,1/2-z
1/2-x,1/2+y,1/2+z
x,1/2-y,z
loop_
_atom_site_type_symbol
_atom_site_label
_atom_site_fract_x
_atom_site_fract_y
_atom_site_fract_z
Si Si1 0.859491 0.875471 0.391311
Si Si2 0.922963 0.040633 0.936756
Si Si3 0.816107 0.119937 0.094978
Si Si4 0.327410 0.867761 0.493994
Si Si5 0.417839 0.490062 0.953301
Si Si6 0.491140 0.992763 0.738095
Si Si7 0.720520 0.123971 0.792351
Si Si8 0.265761 0.880448 0.805363
O O1 0.897423 0.750000 0.405895
O O2 0.866790 0.882865 0.338510
O O3 0.688925 0.899114 0.404244
O O4 0.965281 0.962639 0.415281
O O5 0.041819 0.956987 0.914714
O O6 0.827379 0.966304 0.970715
O O7 0.019060 0.122669 0.967362
O O8 0.855652 0.250000 0.094637
O O9 0.688609 0.092844 0.058965
O O10 0.748409 0.088916 0.142895
O O11 0.312448 0.750000 0.516994
O O12 0.197000 0.888244 0.459068
O O13 0.500000 0.500000 0.000000
O O14 0.396172 0.943029 0.779044
O O15 0.603533 0.905548 0.715779
O O16 0.604698 0.087061 0.754772
O O17 0.362971 0.043484 0.707104
O O18 0.771729 0.250000 0.785285
O O19 0.296655 0.750000 0.802125
#
# Coordination Sequence:
#
# PCOD9467888 Si02
#       8
#     8   8   8   8   8   8   8   8
#     4  11  22  37  57  83 114 146 183 234 282 329
#     4  10  20  36  54  79 107 140 186 228 273 328
#     4  10  22  38  58  81 113 148 186 233 280 329
#     4  10  20  35  54  75 102 140 184 227 269 321
#     4  11  22  39  54  79 109 145 186 227 276 333
#     4  10  20  36  59  83 114 150 181 232 273 335
#     4  10  21  36  57  84 113 146 186 227 279 334
#     4  10  20  36  57  85 113 147 186 226 279 335
#
# _framework density 19.753086
#
# number of rings (size 3 to 8) (size 9 to 14) (size 15 to 20)
#    0.000    1.750    1.250    3.375    0.000    1.000 
#    0.000    0.000    0.000   17.250    0.000    0.000 
#    0.000    0.000    0.000    0.000    0.000    0.000 
#
# Total GULP energy -356823.601172 kJ/mol
# GULP energy per Si atom -5575.368768 kJ/mol
# Density = 1.970813 g / cm^3
# Si number density = 19.753086 Si / 1000 Ang^3
#
#
#
# Elastic Constant Matrix: (Units=GPa)
#
#
# Indices 1 2 3 4 5 6 
#
# 1 64.2675 0.1753 0.9657 0.0000 0.0000 0.0000
# 2 0.1753 27.5753 6.2481 0.0000 0.0000 0.0000
# 3 0.9657 6.2481 46.2992 0.0000 0.0000 0.0000
# 4 0.0000 0.0000 0.0000 65.9155 0.0000 0.0000
# 5 0.0000 0.0000 0.0000 0.0000 28.2050 0.0000
# 6 0.0000 0.0000 0.0000 0.0000 0.0000 12.4143
#
#
#
# Elastic Compliance Matrix: (Units=1/GPa)
#
#
# Indices 1 2 3 4 5 6 
#
# 1 0.015565 -0.000026 -0.000321 0.000000 0.000000 0.000000
# 2 -0.000026 0.037408 -0.005048 0.000000 0.000000 0.000000
# 3 -0.000321 -0.005048 0.022287 0.000000 0.000000 0.000000
# 4 0.000000 0.000000 0.000000 0.015171 0.000000 0.000000
# 5 0.000000 0.000000 0.000000 0.000000 0.035455 0.000000
# 6 0.000000 0.000000 0.000000 0.000000 0.000000 0.080552
#
#
# Mechanical properties :
#
#
# Convention : Reuss Voigt Hill
#
# Bulk Modulus (GPa) = 15.51117 16.99112 16.25114
# Shear Modulus (GPa) = 20.94524 30.02380 25.48452
#
# Velocity S-wave (km/s) = 3.25984 3.90289 3.59577
# Velocity P-wave (km/s) = 4.69450 5.37871 5.04821
#
# Compressibility (1/GPa) = 0.06446967
#
# Stress axis : x y z
#
# Youngs Moduli (GPa) = 64.24725 26.73204 44.87011
#
# Poissons Ratio (x) = 0.00070 0.01441
# Poissons Ratio (y) = 0.00168 0.22649
# Poissons Ratio (z) = 0.02063 0.13494
#
# Static dielectric constant tensor:
#      x y z
#    x 1.714970 0.000000 0.000000 
#    y 0.000000 1.684100 0.000000 
#    z 0.000000 0.000000 1.716950 
# 
# From -- ./inp_files/32263.got.cif
#   From: 2010.05.17/outbox.ucp.g08.bks.cvg/sg62_17_cif.got.tgz:32263.got - 2010.06.11 16:29:25.
