data_PCOD9467441
_publ_section_title
;
Structure prediction by ZEFSAII (Michael W. Deem and Ramdas Pophale) SiO2 
 PCOD9467441
Probable space group: P N M A
;
_chemical_formula_sum "Si O2"
_cell_formula_units_Z 48
_cell_length_a 7.739649
_cell_length_b 10.368813
_cell_length_c 25.356211
_cell_angle_alpha 90.000000
_cell_angle_beta 90.000000
_cell_angle_gamma 90.000000
_cell_volume 2034.860609
_symmetry_space_group_name_H-M "P N M A"
_symmetry_group_IT_number 62
_symmetry_cell_setting 'orthorhombic'
loop_
_space_group_symop_operation_xyz
x,y,z
1/2-x,-y,1/2+z
1/2+x,1/2-y,1/2-z
-x,1/2+y,-z
-x,-y,-z
1/2+x,y,1/2-z
1/2-x,1/2+y,1/2+z
x,1/2-y,z
loop_
_atom_site_type_symbol
_atom_site_label
_atom_site_fract_x
_atom_site_fract_y
_atom_site_fract_z
Si Si1 0.388494 0.099824 0.568921
Si Si2 0.592539 0.250000 0.835491
Si Si3 0.934558 0.750000 0.779515
Si Si4 0.055221 0.750000 0.230697
Si Si5 0.578919 0.489948 0.672371
Si Si6 0.741371 0.599984 0.008865
Si Si7 0.560841 0.750000 0.835052
Si Si8 0.443920 0.006925 0.887844
O O1 0.332429 0.250000 0.572045
O O2 0.567756 0.105597 0.535351
O O3 0.447858 0.042952 0.624794
O O4 0.264876 0.998281 0.539596
O O5 0.436119 0.250000 0.793187
O O6 0.766731 0.250000 0.801487
O O7 0.565610 0.122434 0.869142
O O8 0.032091 0.876623 0.800122
O O9 0.747217 0.750000 0.806955
O O10 0.933162 0.750000 0.715912
O O11 0.950639 0.623231 0.213964
O O12 0.767616 0.489371 0.646897
O O13 0.692479 0.750000 0.997303
O O14 0.618883 0.535640 0.052875
O O15 0.529907 0.626916 0.871776
#
# Coordination Sequence:
#
# PCOD9467441 Si02
#       8
#     8   4   4   4   8   8   4   8
#     4   9  18  33  58  93 127 159 202 254 304 359
#     4  12  24  40  63  90 123 163 204 255 311 372
#     4  12  26  44  63  90 125 165 210 257 315 376
#     4  12  24  40  63  90 123 163 204 255 311 372
#     4  11  22  40  64  93 126 163 208 258 308 365
#     4   9  18  33  58  93 127 159 202 254 304 359
#     4  12  26  44  63  90 125 165 210 257 315 376
#     4  11  22  40  64  93 126 163 208 258 308 365
#
# _framework density 23.588840000000001
#
# number of rings (size 3 to 8) (size 9 to 14) (size 15 to 20)
#    0.000    1.333    1.667    5.000    2.333    0.000 
#    0.000    0.000    0.000    6.000    0.000    0.000 
#    0.000    0.000    0.000    0.000    0.000    0.000 
#
# Total GULP energy -269002.620529 kJ/mol
# GULP energy per Si atom -5604.221261 kJ/mol
# Density = 2.353515 g / cm^3
# Si number density = 23.588840 Si / 1000 Ang^3
#
#
#
# Elastic Constant Matrix: (Units=GPa)
#
#
# Indices 1 2 3 4 5 6 
#
# 1 114.8253 41.2943 11.6884 0.0000 0.0000 0.0000
# 2 41.2943 233.7261 79.6761 0.0000 0.0000 0.0000
# 3 11.6884 79.6761 108.6537 0.0000 0.0000 0.0000
# 4 0.0000 0.0000 0.0000 -28.7687 0.0000 0.0000
# 5 0.0000 0.0000 0.0000 0.0000 42.7861 0.0000
# 6 0.0000 0.0000 0.0000 0.0000 0.0000 -3.8240
#
#
#
# Elastic Compliance Matrix: (Units=1/GPa)
#
#
# Indices 1 2 3 4 5 6 
#
# 1 0.009306 -0.001737 0.000273 0.000000 0.000000 0.000000
# 2 -0.001737 0.006029 -0.004234 0.000000 0.000000 0.000000
# 3 0.000273 -0.004234 0.012279 0.000000 0.000000 0.000000
# 4 0.000000 0.000000 0.000000 -0.034760 0.000000 0.000000
# 5 0.000000 0.000000 0.000000 0.000000 0.023372 0.000000
# 6 0.000000 0.000000 0.000000 0.000000 0.000000 -0.261508
#
#
# Mechanical properties :
#
#
# Convention : Reuss Voigt Hill
#
# Bulk Modulus (GPa) = 61.66425 80.28029 70.97227
# Shear Modulus (GPa) = -21.88379 23.67510 0.89566
#
# Velocity S-wave (km/s) = -3.04915 3.17149 0.61686
# Velocity P-wave (km/s) = 3.71505 6.89334 5.53714
#
# Compressibility (1/GPa) = 0.01621685
#
# Stress axis : x y z
#
# Youngs Moduli (GPa) = 107.45945 165.87064 81.43945
#
# Poissons Ratio (x) = 0.28814 -0.02221
# Poissons Ratio (y) = 0.18667 0.34482
# Poissons Ratio (z) = -0.02931 0.70231
#
# Static dielectric constant tensor:
#      x y z
#    x 1.938070 0.000000 0.000000 
#    y 0.000000 1.836260 0.000000 
#    z 0.000000 0.000000 1.849110 
# 
# From -- ./inp_files/32125.got.cif
#   From: 2010.05.17/outbox.cif.g08.bks.cpg/sg62_17_cif.got.tgz:32125.got - 2010.06.03 15:25:27.
