data_PCOD9467966
_publ_section_title
;
Structure prediction by ZEFSAII (Michael W. Deem and Ramdas Pophale) SiO2 
 PCOD9467966
Probable space group: P N M A
;
_chemical_formula_sum "Si O2"
_cell_formula_units_Z 56
_cell_length_a 21.000000
_cell_length_b 9.000000
_cell_length_c 15.000000
_cell_angle_alpha 90.000000
_cell_angle_beta 90.000000
_cell_angle_gamma 90.000000
_cell_volume 2835.000000
_symmetry_space_group_name_H-M "P N M A"
_symmetry_group_IT_number 62
_symmetry_cell_setting 'orthorhombic'
loop_
_space_group_symop_operation_xyz
x,y,z
1/2-x,-y,1/2+z
1/2+x,1/2-y,1/2-z
-x,1/2+y,-z
-x,-y,-z
1/2+x,y,1/2-z
1/2-x,1/2+y,1/2+z
x,1/2-y,z
loop_
_atom_site_type_symbol
_atom_site_label
_atom_site_fract_x
_atom_site_fract_y
_atom_site_fract_z
Si Si1 0.372755 0.428612 0.607954
Si Si2 0.675894 0.073395 0.065929
Si Si3 0.477177 0.930206 0.717788
Si Si4 0.526842 0.424677 0.087398
Si Si5 0.766278 0.071269 0.393734
Si Si6 0.211447 0.930276 0.806172
Si Si7 0.911961 0.069646 0.085895
O O1 0.369756 0.250000 0.613191
O O2 0.410576 0.497993 0.690212
O O3 0.302952 0.496991 0.599674
O O4 0.409701 0.473376 0.517082
O O5 0.687004 0.250000 0.050855
O O6 0.602744 0.054015 0.090894
O O7 0.723470 0.024775 0.144770
O O8 0.692443 0.987066 0.975820
O O9 0.471208 0.750000 0.717136
O O10 0.498858 0.975731 0.816675
O O11 0.528403 0.978326 0.644357
O O12 0.513468 0.250000 0.080178
O O13 0.500000 0.500000 0.000000
O O14 0.761195 0.250000 0.396700
O O15 0.792880 0.025841 0.296724
O O16 0.210392 0.750000 0.806514
O O17 0.152325 0.981884 0.865377
O O18 0.911728 0.250000 0.087626
#
# Coordination Sequence:
#
# PCOD9467966 Si02
#       7
#     8   8   8   8   8   8   8
#     4  11  21  37  60  86 120 156 187 232 297 352
#     4  10  20  39  60  81 115 154 187 230 296 351
#     4  10  21  38  61  86 114 152 201 244 285 341
#     4  10  23  40  61  85 116 158 198 246 296 347
#     4  11  22  35  60  90 114 148 195 241 283 341
#     4   9  18  35  59  84 113 150 191 234 287 346
#     4   9  18  34  59  86 112 149 191 235 288 345
#
# _framework density 19.753086
#
# number of rings (size 3 to 8) (size 9 to 14) (size 15 to 20)
#    0.000    2.000    1.429    2.143    2.000    3.429 
#    0.000    3.571    0.000    0.000    0.000    0.000 
#    0.000    0.000    0.000    0.000    0.000    0.000 
#
# Total GULP energy -312619.266824 kJ/mol
# GULP energy per Si atom -5582.486908 kJ/mol
# Density = 1.970813 g / cm^3
# Si number density = 19.753086 Si / 1000 Ang^3
#
#
#
# Elastic Constant Matrix: (Units=GPa)
#
#
# Indices 1 2 3 4 5 6 
#
# 1 6.2123 28.2240 27.8653 0.0000 0.0000 0.0000
# 2 28.2240 11.3132 5.7421 0.0000 0.0000 0.0000
# 3 27.8653 5.7421 89.4495 0.0000 0.0000 0.0000
# 4 0.0000 0.0000 0.0000 27.9323 0.0000 0.0000
# 5 0.0000 0.0000 0.0000 0.0000 22.5603 0.0000
# 6 0.0000 0.0000 0.0000 0.0000 0.0000 23.5528
#
#
#
# Elastic Compliance Matrix: (Units=1/GPa)
#
#
# Indices 1 2 3 4 5 6 
#
# 1 -0.015079 0.036420 0.002359 0.000000 0.000000 0.000000
# 2 0.036420 0.003401 -0.011564 0.000000 0.000000 0.000000
# 3 0.002359 -0.011564 0.011187 0.000000 0.000000 0.000000
# 4 0.000000 0.000000 0.000000 0.035801 0.000000 0.000000
# 5 0.000000 0.000000 0.000000 0.000000 0.044326 0.000000
# 6 0.000000 0.000000 0.000000 0.000000 0.000000 0.042458
#
#
# Mechanical properties :
#
#
# Convention : Reuss Voigt Hill
#
# Bulk Modulus (GPa) = 18.53896 25.62643 22.08270
# Shear Modulus (GPa) = 58.38267 17.81866 38.10067
#
# Velocity S-wave (km/s) = 5.44246 3.00671 4.39663
# Velocity P-wave (km/s) = 6.99282 5.00552 6.08091
#
# Compressibility (1/GPa) = 0.05394045
#
# Stress axis : x y z
#
# Youngs Moduli (GPa) = -66.31921 294.05540 89.39058
#
# Poissons Ratio (x) = -10.70963 -0.21090
# Poissons Ratio (y) = 2.41537 1.03371
# Poissons Ratio (z) = 0.15647 3.40046
#
# Static dielectric constant tensor:
#      x y z
#    x 1.695230 0.000000 0.000000 
#    y 0.000000 1.658130 0.000000 
#    z 0.000000 0.000000 1.694070 
# 
# From -- ./inp_files/20205.got.cif
#   From: 2010.05.17/outbox.ucp.g08.bks.cvg/sg62_11_cif.got.tgz:20205.got - 2010.06.11 16:29:25.
