data_PCOD9467464
_publ_section_title
;
Structure prediction by ZEFSAII (Michael W. Deem and Ramdas Pophale) SiO2 
 PCOD9467464
Probable space group: P N M A
;
_chemical_formula_sum "Si O2"
_cell_formula_units_Z 64
_cell_length_a 11.792756
_cell_length_b 29.851097
_cell_length_c 8.116341
_cell_angle_alpha 90.000000
_cell_angle_beta 90.000000
_cell_angle_gamma 90.000000
_cell_volume 2857.168765
_symmetry_space_group_name_H-M "P N M A"
_symmetry_group_IT_number 62
_symmetry_cell_setting 'orthorhombic'
loop_
_space_group_symop_operation_xyz
x,y,z
1/2-x,-y,1/2+z
1/2+x,1/2-y,1/2-z
-x,1/2+y,-z
-x,-y,-z
1/2+x,y,1/2-z
1/2-x,1/2+y,1/2+z
x,1/2-y,z
loop_
_atom_site_type_symbol
_atom_site_label
_atom_site_fract_x
_atom_site_fract_y
_atom_site_fract_z
Si Si1 0.987969 0.947731 0.536440
Si Si2 0.470278 0.299955 0.963648
Si Si3 0.049514 0.045872 0.069773
Si Si4 0.777542 0.419200 0.364428
Si Si5 0.358561 0.624204 0.162911
Si Si6 0.009697 0.701696 0.852638
Si Si7 0.713781 0.332262 0.503265
Si Si8 0.865595 0.111534 0.040503
O O1 0.109206 0.923236 0.529411
O O2 0.956470 0.944899 0.731245
O O3 0.908719 0.922573 0.405870
O O4 0.000000 0.000000 0.500000
O O5 0.491093 0.250000 0.894352
O O6 0.504209 0.299413 0.156065
O O7 0.548710 0.338025 0.885251
O O8 0.334970 0.309982 0.957090
O O9 0.184608 0.049296 0.052980
O O10 0.975371 0.084037 0.978841
O O11 0.000000 0.000000 0.000000
O O12 0.732851 0.368510 0.360048
O O13 0.814730 0.424045 0.174743
O O14 0.327078 0.636477 0.348049
O O15 0.236374 0.625720 0.074715
O O16 0.063900 0.750000 0.894617
O O17 0.081917 0.657788 0.893116
O O18 0.889094 0.698457 0.944725
#
# Coordination Sequence:
#
# PCOD9467464 Si02
#       8
#     8   8   8   8   8   8   8   8
#     4  11  26  44  66 101 145 183 235 294 367 429
#     4  11  25  47  71 101 141 185 239 300 365 439
#     4  11  25  42  72 106 135 182 244 299 349 426
#     4  11  22  44  72  94 138 183 236 296 347 422
#     4  12  27  45  67 101 145 190 227 298 368 423
#     4  11  24  43  73 103 132 182 242 293 353 431
#     4  12  25  44  72 102 139 183 240 291 360 435
#     4  11  23  45  70  98 142 185 233 291 359 428
#
# _framework density 22.399797
#
# number of rings (size 3 to 8) (size 9 to 14) (size 15 to 20)
#    0.000    0.750    5.000    1.875    5.250    2.500 
#    0.000    0.000    0.000    0.000    0.000    0.000 
#    0.000    0.000    0.000    0.000    0.000    0.000 
#
# Total GULP energy -357208.510651 kJ/mol
# GULP energy per Si atom -5581.382979 kJ/mol
# Density = 2.234881 g / cm^3
# Si number density = 22.399797 Si / 1000 Ang^3
#
#
#
# Elastic Constant Matrix: (Units=GPa)
#
#
# Indices 1 2 3 4 5 6 
#
# 1 95.1648 -0.8448 33.5466 0.0000 0.0000 0.0000
# 2 -0.8448 96.8369 8.8478 0.0000 0.0000 0.0000
# 3 33.5466 8.8478 51.1603 0.0000 0.0000 0.0000
# 4 0.0000 0.0000 0.0000 15.2889 0.0000 0.0000
# 5 0.0000 0.0000 0.0000 0.0000 20.6759 0.0000
# 6 0.0000 0.0000 0.0000 0.0000 0.0000 29.1162
#
#
#
# Elastic Compliance Matrix: (Units=1/GPa)
#
#
# Indices 1 2 3 4 5 6 
#
# 1 0.013754 0.000959 -0.009185 0.000000 0.000000 0.000000
# 2 0.000959 0.010559 -0.002455 0.000000 0.000000 0.000000
# 3 -0.009185 -0.002455 0.025994 0.000000 0.000000 0.000000
# 4 0.000000 0.000000 0.000000 0.065407 0.000000 0.000000
# 5 0.000000 0.000000 0.000000 0.000000 0.048365 0.000000
# 6 0.000000 0.000000 0.000000 0.000000 0.000000 0.034345
#
#
# Mechanical properties :
#
#
# Convention : Reuss Voigt Hill
#
# Bulk Modulus (GPa) = 34.54729 36.25123 35.39926
# Shear Modulus (GPa) = 21.79267 26.45704 24.12485
#
# Velocity S-wave (km/s) = 3.12251 3.44048 3.28535
# Velocity P-wave (km/s) = 5.33448 5.65698 5.49809
#
# Compressibility (1/GPa) = 0.02894583
#
# Stress axis : x y z
#
# Youngs Moduli (GPa) = 72.70424 94.70303 38.47093
#
# Poissons Ratio (x) = -0.09084 0.35335
# Poissons Ratio (y) = -0.06974 0.09445
# Poissons Ratio (z) = 0.66778 0.23251
#
# Static dielectric constant tensor:
#      x y z
#    x 1.885250 0.000000 0.000000 
#    y 0.000000 1.826470 0.000000 
#    z 0.000000 0.000000 1.860700 
# 
# From -- ./inp_files/5544.got.cif
#   From: 2010.05.17/outbox.cif.g08.bks.cpg/sg62_3_cif.got.tgz:5544.got - 2010.06.03 15:25:27.
