data_PCOD9467086
_publ_section_title
;
Structure prediction by ZEFSAII (Michael W. Deem and Ramdas Pophale) SiO2 
 PCOD9467086
Probable space group: P N M A
;
_chemical_formula_sum "Si O2"
_cell_formula_units_Z 48
_cell_length_a 11.513152
_cell_length_b 15.476413
_cell_length_c 12.083804
_cell_angle_alpha 90.000000
_cell_angle_beta 90.000000
_cell_angle_gamma 90.000000
_cell_volume 2153.119932
_symmetry_space_group_name_H-M "P N M A"
_symmetry_group_IT_number 62
_symmetry_cell_setting 'orthorhombic'
loop_
_space_group_symop_operation_xyz
x,y,z
1/2-x,-y,1/2+z
1/2+x,1/2-y,1/2-z
-x,1/2+y,-z
-x,-y,-z
1/2+x,y,1/2-z
1/2-x,1/2+y,1/2+z
x,1/2-y,z
loop_
_atom_site_type_symbol
_atom_site_label
_atom_site_fract_x
_atom_site_fract_y
_atom_site_fract_z
Si Si1 0.386108 0.750000 0.943918
Si Si2 0.352019 0.106194 0.262810
Si Si3 0.163853 0.250000 0.210768
Si Si4 0.887252 0.250000 0.071149
Si Si5 0.457121 0.095504 0.018395
Si Si6 0.398947 0.750000 0.453108
Si Si7 0.886735 0.147111 0.708767
Si Si8 0.642982 0.406837 0.708746
O O1 0.423706 0.750000 0.814183
O O2 0.248691 0.750000 0.953218
O O3 0.440461 0.664887 0.994931
O O4 0.236754 0.162700 0.237988
O O5 0.414601 0.165576 0.354685
O O6 0.409829 0.101067 0.142487
O O7 0.341324 0.009462 0.309672
O O8 0.138471 0.250000 0.081355
O O9 0.961619 0.250000 0.961576
O O10 0.370362 0.119168 0.919761
O O11 0.500000 0.000000 0.000000
O O12 0.362622 0.835926 0.389051
O O13 0.898075 0.250000 0.713671
O O14 0.766248 0.118536 0.768753
O O15 0.011968 0.105391 0.741052
#
# Coordination Sequence:
#
# PCOD9467086 Si02
#       8
#     4   8   4   4   8   4   8   8
#     4  10  23  44  68 101 131 180 240 303 336 424
#     4  10  23  45  68 106 134 189 236 306 344 424
#     4  10  23  45  74  93 143 186 240 290 356 430
#     4  10  26  43  70  93 148 182 240 290 366 420
#     4  12  23  39  72 100 132 179 240 284 350 415
#     4  12  24  46  68 105 138 198 226 289 362 444
#     4  12  25  47  69 101 140 189 226 296 351 432
#     4  12  27  44  72 103 149 181 241 287 367 421
#
# _framework density 22.293230999999999
#
# number of rings (size 3 to 8) (size 9 to 14) (size 15 to 20)
#    0.000    1.000    4.167    3.000    4.667    3.333 
#    0.000    0.000    0.000    0.000    0.000    0.000 
#    0.000    0.000    0.000    0.000    0.000    0.000 
#
# Total GULP energy -267744.021192 kJ/mol
# GULP energy per Si atom -5578.000441 kJ/mol
# Density = 2.224249 g / cm^3
# Si number density = 22.293231 Si / 1000 Ang^3
#
#
#
# Elastic Constant Matrix: (Units=GPa)
#
#
# Indices 1 2 3 4 5 6 
#
# 1 126.2235 44.6351 23.7706 0.0000 0.0000 0.0000
# 2 44.6351 210.8498 33.2061 0.0000 0.0000 0.0000
# 3 23.7706 33.2061 73.9019 0.0000 0.0000 0.0000
# 4 0.0000 0.0000 0.0000 -14.5808 0.0000 0.0000
# 5 0.0000 0.0000 0.0000 0.0000 34.8487 0.0000
# 6 0.0000 0.0000 0.0000 0.0000 0.0000 -8.0976
#
#
#
# Elastic Compliance Matrix: (Units=1/GPa)
#
#
# Indices 1 2 3 4 5 6 
#
# 1 0.008874 -0.001538 -0.002163 0.000000 0.000000 0.000000
# 2 -0.001538 0.005370 -0.001918 0.000000 0.000000 0.000000
# 3 -0.002163 -0.001918 0.015089 0.000000 0.000000 0.000000
# 4 0.000000 0.000000 0.000000 -0.068583 0.000000 0.000000
# 5 0.000000 0.000000 0.000000 0.000000 0.028695 0.000000
# 6 0.000000 0.000000 0.000000 0.000000 0.000000 -0.123494
#
#
# Mechanical properties :
#
#
# Convention : Reuss Voigt Hill
#
# Bulk Modulus (GPa) = 55.26587 68.24433 61.75510
# Shear Modulus (GPa) = -42.81617 23.05829 -9.87894
#
# Velocity S-wave (km/s) = -4.38721 3.21957 -2.10736
# Velocity P-wave (km/s) = 0.90511 6.67079 4.67334
#
# Compressibility (1/GPa) = 0.01809435
#
# Stress axis : x y z
#
# Youngs Moduli (GPa) = 112.69337 186.20663 66.27234
#
# Poissons Ratio (x) = 0.28635 0.14336
# Poissons Ratio (y) = 0.17330 0.12714
# Poissons Ratio (z) = 0.24378 0.35722
#
# Static dielectric constant tensor:
#      x y z
#    x 1.937710 0.000000 0.000000 
#    y 0.000000 1.800210 0.000000 
#    z 0.000000 0.000000 1.891420 
# 
# From -- ./inp_files/18042.got.cif
#   From: 2010.05.17/outbox.cif.g08.bks.cpg/sg62_10_cif.got.tgz:18042.got - 2010.06.03 15:25:27.
