data_PCOD9467031
_publ_section_title
;
Structure prediction by ZEFSAII (Michael W. Deem and Ramdas Pophale) SiO2 
 PCOD9467031
Probable space group: P N M A
;
_chemical_formula_sum "Si O2"
_cell_formula_units_Z 36
_cell_length_a 14.789170
_cell_length_b 14.696007
_cell_length_c 8.007815
_cell_angle_alpha 90.000000
_cell_angle_beta 90.000000
_cell_angle_gamma 90.000000
_cell_volume 1740.432492
_symmetry_space_group_name_H-M "P N M A"
_symmetry_group_IT_number 62
_symmetry_cell_setting 'orthorhombic'
loop_
_space_group_symop_operation_xyz
x,y,z
1/2-x,-y,1/2+z
1/2+x,1/2-y,1/2-z
-x,1/2+y,-z
-x,-y,-z
1/2+x,y,1/2-z
1/2-x,1/2+y,1/2+z
x,1/2-y,z
loop_
_atom_site_type_symbol
_atom_site_label
_atom_site_fract_x
_atom_site_fract_y
_atom_site_fract_z
Si Si1 0.214157 0.438400 0.944809
Si Si2 0.400147 0.750000 0.991045
Si Si3 0.966242 0.250000 0.776802
Si Si4 0.629878 0.058736 0.183721
Si Si5 0.973997 0.549214 0.170251
Si Si6 0.257067 0.250000 0.774335
O O1 0.294767 0.509548 0.927743
O O2 0.132935 0.463911 0.816586
O O3 0.246600 0.339616 0.886317
O O4 0.172537 0.436209 0.129961
O O5 0.391365 0.658583 0.884037
O O6 0.495951 0.750000 0.087503
O O7 0.320233 0.750000 0.131303
O O8 0.858742 0.250000 0.796842
O O9 0.005940 0.156352 0.848459
O O10 0.540100 0.996095 0.195075
O O11 0.000000 0.500000 0.000000
#
# Coordination Sequence:
#
# PCOD9467031 Si02
#       6
#     8   4   4   8   8   4
#     4  11  22  43  71  98 135 180 224 287 343 402
#     4  12  27  44  67 101 143 178 228 287 336 413
#     4  12  24  43  68  99 132 184 222 280 343 403
#     4  11  25  43  68 102 136 179 232 279 346 407
#     4  10  23  42  68  99 135 178 226 281 346 404
#     4  12  23  43  69 100 135 178 226 283 343 406
#
# _framework density 20.684514
#
# number of rings (size 3 to 8) (size 9 to 14) (size 15 to 20)
#    0.000    0.889    4.444    2.000    3.111    5.333 
#    0.000    1.111    0.000    0.000    0.000    0.000 
#    0.000    0.000    0.000    0.000    0.000    0.000 
#
# Total GULP energy -201248.639098 kJ/mol
# GULP energy per Si atom -5590.239975 kJ/mol
# Density = 2.063744 g / cm^3
# Si number density = 20.684514 Si / 1000 Ang^3
#
#
#
# Elastic Constant Matrix: (Units=GPa)
#
#
# Indices 1 2 3 4 5 6 
#
# 1 70.0709 21.0612 10.6697 0.0000 0.0000 0.0000
# 2 21.0612 165.6760 33.1602 0.0000 0.0000 0.0000
# 3 10.6697 33.1602 67.7837 0.0000 0.0000 0.0000
# 4 0.0000 0.0000 0.0000 22.4860 0.0000 0.0000
# 5 0.0000 0.0000 0.0000 0.0000 30.4713 0.0000
# 6 0.0000 0.0000 0.0000 0.0000 0.0000 11.4582
#
#
#
# Elastic Compliance Matrix: (Units=1/GPa)
#
#
# Indices 1 2 3 4 5 6 
#
# 1 0.014990 -0.001589 -0.001582 0.000000 0.000000 0.000000
# 2 -0.001589 0.006859 -0.003106 0.000000 0.000000 0.000000
# 3 -0.001582 -0.003106 0.016521 0.000000 0.000000 0.000000
# 4 0.000000 0.000000 0.000000 0.044472 0.000000 0.000000
# 5 0.000000 0.000000 0.000000 0.000000 0.032818 0.000000
# 6 0.000000 0.000000 0.000000 0.000000 0.000000 0.087274
#
#
# Mechanical properties :
#
#
# Convention : Reuss Voigt Hill
#
# Bulk Modulus (GPa) = 38.73419 48.14587 43.44003
# Shear Modulus (GPa) = 22.31218 28.79240 25.55229
#
# Velocity S-wave (km/s) = 3.28790 3.73497 3.51855
# Velocity P-wave (km/s) = 5.76026 6.47509 6.12811
#
# Compressibility (1/GPa) = 0.02581698
#
# Stress axis : x y z
#
# Youngs Moduli (GPa) = 66.71228 145.78443 60.52852
#
# Poissons Ratio (x) = 0.23163 0.09577
# Poissons Ratio (y) = 0.10600 0.18798
# Poissons Ratio (z) = 0.10555 0.45275
#
# Static dielectric constant tensor:
#      x y z
#    x 1.757760 0.000000 0.000000 
#    y 0.000000 1.707140 0.000000 
#    z 0.000000 0.000000 1.760510 
# 
# From -- ./inp_files/6060.got.cif
#   From: 2010.05.17/outbox.cif.g08.bks.cpg/sg62_4_cif.got.tgz:6060.got - 2010.06.03 15:25:27.
