data_PCOD9467389
_publ_section_title
;
Structure prediction by ZEFSAII (Michael W. Deem and Ramdas Pophale) SiO2 
 PCOD9467389
Probable space group: P N M A
;
_chemical_formula_sum "Si O2"
_cell_formula_units_Z 40
_cell_length_a 10.026847
_cell_length_b 15.155251
_cell_length_c 12.884622
_cell_angle_alpha 90.000000
_cell_angle_beta 90.000000
_cell_angle_gamma 90.000000
_cell_volume 1957.939210
_symmetry_space_group_name_H-M "P N M A"
_symmetry_group_IT_number 62
_symmetry_cell_setting 'orthorhombic'
loop_
_space_group_symop_operation_xyz
x,y,z
1/2-x,-y,1/2+z
1/2+x,1/2-y,1/2-z
-x,1/2+y,-z
-x,-y,-z
1/2+x,y,1/2-z
1/2-x,1/2+y,1/2+z
x,1/2-y,z
loop_
_atom_site_type_symbol
_atom_site_label
_atom_site_fract_x
_atom_site_fract_y
_atom_site_fract_z
Si Si1 0.463566 0.850870 0.320768
Si Si2 0.731548 0.086545 0.508012
Si Si3 0.700012 0.617185 0.478261
Si Si4 0.171186 0.250000 0.144216
Si Si5 0.634440 0.750000 0.659616
Si Si6 0.000593 0.853070 0.409617
O O1 0.420792 0.750000 0.302883
O O2 0.345281 0.895572 0.384234
O O3 0.594704 0.851231 0.392204
O O4 0.495175 0.888647 0.207988
O O5 0.689418 0.163361 0.428008
O O6 0.889506 0.094922 0.525433
O O7 0.691853 0.988379 0.476972
O O8 0.662852 0.665163 0.585999
O O9 0.851631 0.642367 0.452840
O O10 0.275095 0.250000 0.238476
O O11 0.021180 0.250000 0.186946
O O12 0.044318 0.750000 0.408225
#
# Coordination Sequence:
#
# PCOD9467389 Si02
#       6
#     8   8   8   4   4   8
#     4  11  21  42  70  97 128 170 220 278 346 394
#     4  12  24  45  68  98 138 178 224 280 338 408
#     4  12  24  45  68  98 138 178 224 280 338 408
#     4  12  28  48  71  99 140 188 227 277 341 408
#     4  12  28  48  71  99 140 188 227 277 341 408
#     4  11  23  40  72  99 130 168 222 288 340 398
#
# _framework density 20.429644
#
# number of rings (size 3 to 8) (size 9 to 14) (size 15 to 20)
#    0.000    0.400    6.000    2.400    2.800    6.400 
#    0.000    0.000    0.000    0.000    0.000    0.000 
#    0.000    0.000    0.000    0.000    0.000    0.000 
#
# Total GULP energy -223736.338121 kJ/mol
# GULP energy per Si atom -5593.408453 kJ/mol
# Density = 2.038315 g / cm^3
# Si number density = 20.429644 Si / 1000 Ang^3
#
#
#
# Elastic Constant Matrix: (Units=GPa)
#
#
# Indices 1 2 3 4 5 6 
#
# 1 111.8004 -3.3860 15.0895 0.0000 0.0000 0.0000
# 2 -3.3860 110.4834 24.5134 0.0000 0.0000 0.0000
# 3 15.0895 24.5134 66.7887 0.0000 0.0000 0.0000
# 4 0.0000 0.0000 0.0000 -5.1481 0.0000 0.0000
# 5 0.0000 0.0000 0.0000 0.0000 35.7093 0.0000
# 6 0.0000 0.0000 0.0000 0.0000 0.0000 41.8001
#
#
#
# Elastic Compliance Matrix: (Units=1/GPa)
#
#
# Indices 1 2 3 4 5 6 
#
# 1 0.009293 0.000817 -0.002400 0.000000 0.000000 0.000000
# 2 0.000817 0.009925 -0.003828 0.000000 0.000000 0.000000
# 3 -0.002400 -0.003828 0.016920 0.000000 0.000000 0.000000
# 4 0.000000 0.000000 0.000000 -0.194248 0.000000 0.000000
# 5 0.000000 0.000000 0.000000 0.000000 0.028004 0.000000
# 6 0.000000 0.000000 0.000000 0.000000 0.000000 0.023923
#
#
# Mechanical properties :
#
#
# Convention : Reuss Voigt Hill
#
# Bulk Modulus (GPa) = 39.49709 40.16738 39.83223
# Shear Modulus (GPa) = -57.52183 31.32931 -13.09626
#
# Velocity S-wave (km/s) = -5.31199 3.92027 -2.53463
# Velocity P-wave (km/s) = 4.27174 6.33998 3.31268
#
# Compressibility (1/GPa) = 0.02531832
#
# Stress axis : x y z
#
# Youngs Moduli (GPa) = 107.60654 100.75149 59.10331
#
# Poissons Ratio (x) = -0.08233 0.14182
# Poissons Ratio (y) = -0.08794 0.22622
# Poissons Ratio (z) = 0.25820 0.38563
#
# Static dielectric constant tensor:
#      x y z
#    x 1.705440 0.000000 0.000000 
#    y 0.000000 1.744050 0.000000 
#    z 0.000000 0.000000 1.705070 
# 
# From -- ./inp_files/11105.got.cif
#   From: 2010.05.17/outbox.cif.g08.bks.cpg/sg62_6_cif.got.tgz:11105.got - 2010.06.03 15:25:27.
