data_PCOD9467862
_publ_section_title
;
Structure prediction by ZEFSAII (Michael W. Deem and Ramdas Pophale) SiO2 
 PCOD9467862
Probable space group: P N M A
;
_chemical_formula_sum "Si O2"
_cell_formula_units_Z 56
_cell_length_a 15.000000
_cell_length_b 9.000000
_cell_length_c 21.000000
_cell_angle_alpha 90.000000
_cell_angle_beta 90.000000
_cell_angle_gamma 90.000000
_cell_volume 2835.000000
_symmetry_space_group_name_H-M "P N M A"
_symmetry_group_IT_number 62
_symmetry_cell_setting 'orthorhombic'
loop_
_space_group_symop_operation_xyz
x,y,z
1/2-x,-y,1/2+z
1/2+x,1/2-y,1/2-z
-x,1/2+y,-z
-x,-y,-z
1/2+x,y,1/2-z
1/2-x,1/2+y,1/2+z
x,1/2-y,z
loop_
_atom_site_type_symbol
_atom_site_label
_atom_site_fract_x
_atom_site_fract_y
_atom_site_fract_z
Si Si1 0.590406 0.428882 0.634320
Si Si2 0.711402 0.925517 0.889596
Si Si3 0.096251 0.074021 0.502424
Si Si4 0.393862 0.073618 0.630787
Si Si5 0.783752 0.427621 0.603910
Si Si6 0.410121 0.425101 0.227997
Si Si7 0.910314 0.423978 0.717574
O O1 0.589265 0.250000 0.637601
O O2 0.493025 0.473706 0.608804
O O3 0.680515 0.473204 0.598643
O O4 0.598997 0.489263 0.705872
O O5 0.704752 0.750000 0.903020
O O6 0.672159 0.951956 0.819019
O O7 0.648423 0.016975 0.936000
O O8 0.812177 0.981207 0.896228
O O9 0.087637 0.250000 0.502266
O O10 0.154368 0.016754 0.443505
O O11 0.000000 0.000000 0.500000
O O12 0.381846 0.250000 0.618680
O O13 0.393367 0.052043 0.707585
O O14 0.789964 0.250000 0.591383
O O15 0.824245 0.453453 0.674357
O O16 0.416309 0.250000 0.240185
O O17 0.503630 0.480515 0.197949
O O18 0.933503 0.250000 0.709458
#
# Coordination Sequence:
#
# PCOD9467862 Si02
#       7
#     8   8   8   8   8   8   8
#     4   9  19  36  58  83 114 149 185 225 275 334
#     4  11  23  38  56  81 112 149 190 232 278 327
#     4  12  26  43  62  84 111 144 183 229 276 328
#     4   9  18  34  56  84 114 146 185 227 272 328
#     4  10  20  37  60  84 111 147 188 231 278 330
#     4  10  20  32  51  81 115 147 183 229 279 328
#     4   9  18  32  54  83 114 148 184 223 276 337
#
# _framework density 19.753086
#
# number of rings (size 3 to 8) (size 9 to 14) (size 15 to 20)
#    0.000    2.000    0.000    4.714    0.000    9.143 
#    0.000    0.714    0.000    0.000    0.000    0.000 
#    0.000    0.000    0.000    0.000    0.000    0.000 
#
# Total GULP energy -312711.805000 kJ/mol
# GULP energy per Si atom -5584.139375 kJ/mol
# Density = 1.970813 g / cm^3
# Si number density = 19.753086 Si / 1000 Ang^3
#
#
#
# Elastic Constant Matrix: (Units=GPa)
#
#
# Indices 1 2 3 4 5 6 
#
# 1 175.0366 64.2264 24.5019 0.0000 0.0000 0.0000
# 2 64.2264 42.4129 17.6203 0.0000 0.0000 0.0000
# 3 24.5019 17.6203 16.4508 0.0000 0.0000 0.0000
# 4 0.0000 0.0000 0.0000 23.6910 0.0000 0.0000
# 5 0.0000 0.0000 0.0000 0.0000 20.3456 0.0000
# 6 0.0000 0.0000 0.0000 0.0000 0.0000 32.3422
#
#
#
# Elastic Compliance Matrix: (Units=1/GPa)
#
#
# Indices 1 2 3 4 5 6 
#
# 1 0.012944 -0.020886 0.003092 0.000000 0.000000 0.000000
# 2 -0.020886 0.076181 -0.050490 0.000000 0.000000 0.000000
# 3 0.003092 -0.050490 0.110262 0.000000 0.000000 0.000000
# 4 0.000000 0.000000 0.000000 0.042210 0.000000 0.000000
# 5 0.000000 0.000000 0.000000 0.000000 0.049151 0.000000
# 6 0.000000 0.000000 0.000000 0.000000 0.000000 0.030919
#
#
# Mechanical properties :
#
#
# Convention : Reuss Voigt Hill
#
# Bulk Modulus (GPa) = 15.91869 49.62196 32.77033
# Shear Modulus (GPa) = 10.43464 23.77919 17.10691
#
# Velocity S-wave (km/s) = 2.30087 3.47338 2.94604
# Velocity P-wave (km/s) = 3.89037 6.42351 5.31020
#
# Compressibility (1/GPa) = 0.06281922
#
# Stress axis : x y z
#
# Youngs Moduli (GPa) = 77.25667 13.12667 9.06933
#
# Poissons Ratio (x) = 0.27416 -0.02804
# Poissons Ratio (y) = 1.61354 0.45791
# Poissons Ratio (z) = -0.23885 0.66276
#
# Static dielectric constant tensor:
#      x y z
#    x 1.713240 0.000000 0.000000 
#    y 0.000000 1.648190 0.000000 
#    z 0.000000 0.000000 1.710230 
# 
# From -- ./inp_files/27059.got.cif
#   From: 2010.05.17/outbox.ucp.g08.bks.cvg/sg62_14_cif.got.tgz:27059.got - 2010.06.11 16:29:25.
