data_PCOD9467224
_publ_section_title
;
Structure prediction by ZEFSAII (Michael W. Deem and Ramdas Pophale) SiO2 
 PCOD9467224
Probable space group: P N M A
;
_chemical_formula_sum "Si O2"
_cell_formula_units_Z 32
_cell_length_a 16.195627
_cell_length_b 16.548511
_cell_length_c 4.879219
_cell_angle_alpha 90.000000
_cell_angle_beta 90.000000
_cell_angle_gamma 90.000000
_cell_volume 1307.696618
_symmetry_space_group_name_H-M "P N M A"
_symmetry_group_IT_number 62
_symmetry_cell_setting 'orthorhombic'
loop_
_space_group_symop_operation_xyz
x,y,z
1/2-x,-y,1/2+z
1/2+x,1/2-y,1/2-z
-x,1/2+y,-z
-x,-y,-z
1/2+x,y,1/2-z
1/2-x,1/2+y,1/2+z
x,1/2-y,z
loop_
_atom_site_type_symbol
_atom_site_label
_atom_site_fract_x
_atom_site_fract_y
_atom_site_fract_z
Si Si1 0.910813 0.503327 0.357104
Si Si2 0.177883 0.158536 0.551161
Si Si3 0.075877 0.250000 0.159272
Si Si4 0.957044 0.250000 0.663568
Si Si5 0.143869 0.906689 0.157628
O O1 0.881185 0.594150 0.302762
O O2 0.848760 0.466972 0.585826
O O3 0.000000 0.500000 0.500000
O O4 0.906263 0.449949 0.085059
O O5 0.187718 0.250000 0.668184
O O6 0.268468 0.121464 0.541962
O O7 0.133142 0.175610 0.259681
O O8 0.996454 0.250000 0.363549
O O9 0.034205 0.250000 0.868549
O O10 0.903920 0.329083 0.725605
#
# Coordination Sequence:
#
# PCOD9467224 Si02
#       5
#     8   8   4   4   8
#     4  12  26  46  72 105 137 186 229 292 337 413
#     4  10  24  49  66 106 138 186 226 289 348 414
#     4  10  25  40  71  92 142 172 236 266 353 396
#     4  12  21  44  63 104 126 192 216 298 329 428
#     4  12  25  44  72  98 143 175 240 275 355 402
#
# _framework density 24.470507000000001
#
# number of rings (size 3 to 8) (size 9 to 14) (size 15 to 20)
#    0.750    0.000    1.250    6.750    0.000    4.000 
#    0.000    0.000    0.000    0.000    0.000    0.000 
#    0.000    0.000    0.000    0.000    0.000    0.000 
#
# Total GULP energy -179240.853223 kJ/mol
# GULP energy per Si atom -5601.276663 kJ/mol
# Density = 2.441481 g / cm^3
# Si number density = 24.470507 Si / 1000 Ang^3
#
#
#
# Elastic Constant Matrix: (Units=GPa)
#
#
# Indices 1 2 3 4 5 6 
#
# 1 114.2893 46.7215 -6.1071 0.0000 0.0000 0.0000
# 2 46.7215 165.7104 41.5893 0.0000 0.0000 0.0000
# 3 -6.1071 41.5893 74.9187 0.0000 0.0000 0.0000
# 4 0.0000 0.0000 0.0000 14.4956 0.0000 0.0000
# 5 0.0000 0.0000 0.0000 0.0000 7.2275 0.0000
# 6 0.0000 0.0000 0.0000 0.0000 0.0000 42.6347
#
#
#
# Elastic Compliance Matrix: (Units=1/GPa)
#
#
# Indices 1 2 3 4 5 6 
#
# 1 0.010397 -0.003653 0.002875 0.000000 0.000000 0.000000
# 2 -0.003653 0.008295 -0.004903 0.000000 0.000000 0.000000
# 3 0.002875 -0.004903 0.016304 0.000000 0.000000 0.000000
# 4 0.000000 0.000000 0.000000 0.068986 0.000000 0.000000
# 5 0.000000 0.000000 0.000000 0.000000 0.138360 0.000000
# 6 0.000000 0.000000 0.000000 0.000000 0.000000 0.023455
#
#
# Mechanical properties :
#
#
# Convention : Reuss Voigt Hill
#
# Bulk Modulus (GPa) = 42.30993 57.70286 50.00640
# Shear Modulus (GPa) = 17.54166 31.05254 24.29710
#
# Velocity S-wave (km/s) = 2.68031 3.56614 3.15447
# Velocity P-wave (km/s) = 5.18714 6.37089 5.80924
#
# Compressibility (1/GPa) = 0.02363511
#
# Stress axis : x y z
#
# Youngs Moduli (GPa) = 96.18433 120.55488 61.33578
#
# Poissons Ratio (x) = 0.44038 -0.17636
# Poissons Ratio (y) = 0.35136 0.30070
# Poissons Ratio (z) = -0.27656 0.59102
#
# Static dielectric constant tensor:
#      x y z
#    x 1.936770 0.000000 0.000000 
#    y 0.000000 1.985840 0.000000 
#    z 0.000000 0.000000 1.926140 
# 
# From -- ./inp_files/1507.got.cif
#   From: 2010.05.17/outbox.cif.g08.bks.cpg/sg62_1_cif.got.tgz:1507.got - 2010.06.03 15:25:27.
