data_PCOD9467698
_publ_section_title
;
Structure prediction by ZEFSAII (Michael W. Deem and Ramdas Pophale) SiO2 
 PCOD9467698
Probable space group: P N M A
;
_chemical_formula_sum "Si O2"
_cell_formula_units_Z 32
_cell_length_a 19.744908
_cell_length_b 9.002594
_cell_length_c 7.625763
_cell_angle_alpha 90.000000
_cell_angle_beta 90.000000
_cell_angle_gamma 90.000000
_cell_volume 1355.520478
_symmetry_space_group_name_H-M "P N M A"
_symmetry_group_IT_number 62
_symmetry_cell_setting 'orthorhombic'
loop_
_space_group_symop_operation_xyz
x,y,z
1/2-x,-y,1/2+z
1/2+x,1/2-y,1/2-z
-x,1/2+y,-z
-x,-y,-z
1/2+x,y,1/2-z
1/2-x,1/2+y,1/2+z
x,1/2-y,z
loop_
_atom_site_type_symbol
_atom_site_label
_atom_site_fract_x
_atom_site_fract_y
_atom_site_fract_z
Si Si1 0.189358 0.592584 0.084702
Si Si2 0.163828 0.011081 0.703545
Si Si3 0.893995 0.926936 0.645038
Si Si4 0.014136 0.079520 0.815775
O O1 0.158378 0.750000 0.137297
O O2 0.266145 0.590250 0.152939
O O3 0.149041 0.460779 0.179457
O O4 0.185330 0.582859 0.874078
O O5 0.138641 0.970520 0.507388
O O6 0.093668 0.081224 0.772200
O O7 0.891125 0.750000 0.602798
O O8 0.969731 0.981659 0.682502
O O9 0.991880 0.250000 0.818683
O O10 0.000000 0.000000 0.000000
#
# Coordination Sequence:
#
# PCOD9467698 Si02
#       4
#     8   8   8   8
#     4  12  27  48  76 112 150 198 252 307 379 455
#     4  12  27  49  77 110 153 195 253 314 381 448
#     4  12  27  49  77 111 151 197 252 313 376 447
#     4  12  26  47  77 111 154 201 253 315 379 454
#
# _framework density 23.607167
#
# number of rings (size 3 to 8) (size 9 to 14) (size 15 to 20)
#    0.000    0.000    5.000    4.500    0.000    5.000 
#    0.000    0.000    0.000    0.000    0.000    0.000 
#    0.000    0.000    0.000    0.000    0.000    0.000 
#
# Total GULP energy -178449.228339 kJ/mol
# GULP energy per Si atom -5576.538386 kJ/mol
# Density = 2.355344 g / cm^3
# Si number density = 23.607167 Si / 1000 Ang^3
#
#
#
# Elastic Constant Matrix: (Units=GPa)
#
#
# Indices 1 2 3 4 5 6 
#
# 1 182.6600 47.8752 34.9387 0.0000 0.0000 0.0000
# 2 47.8752 102.1980 39.0093 0.0000 0.0000 0.0000
# 3 34.9387 39.0093 153.8203 0.0000 0.0000 0.0000
# 4 0.0000 0.0000 0.0000 -10.5774 0.0000 0.0000
# 5 0.0000 0.0000 0.0000 0.0000 63.5528 0.0000
# 6 0.0000 0.0000 0.0000 0.0000 0.0000 -27.3220
#
#
#
# Elastic Compliance Matrix: (Units=1/GPa)
#
#
# Indices 1 2 3 4 5 6 
#
# 1 0.006320 -0.002671 -0.000758 0.000000 0.000000 0.000000
# 2 -0.002671 0.011963 -0.002427 0.000000 0.000000 0.000000
# 3 -0.000758 -0.002427 0.007289 0.000000 0.000000 0.000000
# 4 0.000000 0.000000 0.000000 -0.094541 0.000000 0.000000
# 5 0.000000 0.000000 0.000000 0.000000 0.015735 0.000000
# 6 0.000000 0.000000 0.000000 0.000000 0.000000 -0.036601
#
#
# Mechanical properties :
#
#
# Convention : Reuss Voigt Hill
#
# Bulk Modulus (GPa) = 72.15697 75.81387 73.98542
# Shear Modulus (GPa) = -68.02385 26.25435 -20.88475
#
# Velocity S-wave (km/s) = -5.37378 3.33849 -2.97758
# Velocity P-wave (km/s) = 2.80557 6.85895 4.42572
#
# Compressibility (1/GPa) = 0.01385868
#
# Stress axis : x y z
#
# Youngs Moduli (GPa) = 158.23365 83.59337 137.19717
#
# Poissons Ratio (x) = 0.22329 0.10400
# Poissons Ratio (y) = 0.42267 0.33298
# Poissons Ratio (z) = 0.11995 0.20288
#
# Static dielectric constant tensor:
#      x y z
#    x 1.886480 0.000000 0.000000 
#    y 0.000000 1.799430 0.000000 
#    z 0.000000 0.000000 1.908230 
# 
# From -- ./inp_files/8252.got.cif
#   From: 2010.05.17/outbox.cif.g08.bks.cpg/sg62_5_cif.got.tgz:8252.got - 2010.06.03 15:25:27.
