data_PCOD9467962
_publ_section_title
;
Structure prediction by ZEFSAII (Michael W. Deem and Ramdas Pophale) SiO2 
 PCOD9467962
Probable space group: P N M A
;
_chemical_formula_sum "Si O2"
_cell_formula_units_Z 64
_cell_length_a 9.000000
_cell_length_b 18.000000
_cell_length_c 21.000000
_cell_angle_alpha 90.000000
_cell_angle_beta 90.000000
_cell_angle_gamma 90.000000
_cell_volume 3402.000000
_symmetry_space_group_name_H-M "P N M A"
_symmetry_group_IT_number 62
_symmetry_cell_setting 'orthorhombic'
loop_
_space_group_symop_operation_xyz
x,y,z
1/2-x,-y,1/2+z
1/2+x,1/2-y,1/2-z
-x,1/2+y,-z
-x,-y,-z
1/2+x,y,1/2-z
1/2-x,1/2+y,1/2+z
x,1/2-y,z
loop_
_atom_site_type_symbol
_atom_site_label
_atom_site_fract_x
_atom_site_fract_y
_atom_site_fract_z
Si Si1 0.543569 0.663491 0.839784
Si Si2 0.643327 0.520461 0.459127
Si Si3 0.512521 0.489519 0.324373
Si Si4 0.275133 0.069074 0.776320
Si Si5 0.054298 0.163074 0.685967
Si Si6 0.345038 0.835813 0.040611
Si Si7 0.619007 0.164433 0.290525
Si Si8 0.930727 0.426484 0.466410
O O1 0.536514 0.750000 0.863464
O O2 0.421762 0.655911 0.784105
O O3 0.706918 0.654518 0.807396
O O4 0.528941 0.601144 0.894725
O O5 0.500000 0.500000 0.500000
O O6 0.585671 0.524094 0.387012
O O7 0.725971 0.598732 0.476131
O O8 0.759587 0.451826 0.464686
O O9 0.619716 0.516864 0.267006
O O10 0.344978 0.519575 0.314737
O O11 0.526886 0.400234 0.325665
O O12 0.169090 0.122139 0.733478
O O13 0.395941 0.120020 0.813003
O O14 0.034008 0.250000 0.703355
O O15 0.125630 0.159759 0.616021
O O16 0.304857 0.750000 0.024542
O O17 0.500900 0.859657 0.007940
O O18 0.579128 0.250000 0.307510
O O19 0.000000 0.500000 0.500000
#
# Coordination Sequence:
#
# PCOD9467962 Si02
#       8
#     8   8   8   8   8   8   8   8
#     4  10  20  39  61  90 123 158 203 259 320 376
#     4  11  24  43  62  91 123 168 210 263 316 374
#     4  11  21  39  60  89 128 159 207 253 312 374
#     4  10  22  35  62  92 124 162 202 246 315 377
#     4  10  20  38  62  92 127 159 206 255 306 370
#     4  10  22  43  65  90 123 164 213 263 314 376
#     4  10  21  37  61  90 122 158 200 253 316 376
#     4  10  22  40  66  86 120 164 217 259 309 381
#
# _framework density 18.812463000000001
#
# number of rings (size 3 to 8) (size 9 to 14) (size 15 to 20)
#    0.000    1.750    2.500    1.500    1.750    1.000 
#    6.750    2.500    0.000    0.000    0.000    0.000 
#    0.000    0.000    0.000    0.000    0.000    0.000 
#
# Total GULP energy -356905.715971 kJ/mol
# GULP energy per Si atom -5576.651812 kJ/mol
# Density = 1.876965 g / cm^3
# Si number density = 18.812463 Si / 1000 Ang^3
#
#
#
# Elastic Constant Matrix: (Units=GPa)
#
#
# Indices 1 2 3 4 5 6 
#
# 1 90.1185 38.2688 17.6059 0.0000 0.0000 0.0000
# 2 38.2688 128.1103 27.8622 0.0000 0.0000 0.0000
# 3 17.6059 27.8622 43.5441 0.0000 0.0000 0.0000
# 4 0.0000 0.0000 0.0000 35.2712 0.0000 0.0000
# 5 0.0000 0.0000 0.0000 0.0000 33.1876 0.0000
# 6 0.0000 0.0000 0.0000 0.0000 0.0000 32.1553
#
#
#
# Elastic Compliance Matrix: (Units=1/GPa)
#
#
# Indices 1 2 3 4 5 6 
#
# 1 0.013091 -0.003205 -0.003242 0.000000 0.000000 0.000000
# 2 -0.003205 0.009853 -0.005008 0.000000 0.000000 0.000000
# 3 -0.003242 -0.005008 0.027481 0.000000 0.000000 0.000000
# 4 0.000000 0.000000 0.000000 0.028352 0.000000 0.000000
# 5 0.000000 0.000000 0.000000 0.000000 0.030132 0.000000
# 6 0.000000 0.000000 0.000000 0.000000 0.000000 0.031099
#
#
# Mechanical properties :
#
#
# Convention : Reuss Voigt Hill
#
# Bulk Modulus (GPa) = 36.34663 47.69410 42.02037
# Shear Modulus (GPa) = 29.05474 31.99187 30.52331
#
# Velocity S-wave (km/s) = 3.93420 4.12827 4.03240
# Velocity P-wave (km/s) = 6.32453 6.93764 6.63817
#
# Compressibility (1/GPa) = 0.02751286
#
# Stress axis : x y z
#
# Youngs Moduli (GPa) = 76.38802 101.49694 36.38935
#
# Poissons Ratio (x) = 0.32534 0.11797
# Poissons Ratio (y) = 0.24486 0.18225
# Poissons Ratio (z) = 0.24765 0.50832
#
# Static dielectric constant tensor:
#      x y z
#    x 1.641620 0.000000 0.000000 
#    y 0.000000 1.677160 0.000000 
#    z 0.000000 0.000000 1.674210 
# 
# From -- ./inp_files/26196.got.cif
#   From: 2010.05.17/outbox.ucp.g08.bks.cvg/sg62_14_cif.got.tgz:26196.got - 2010.06.11 16:29:25.
