data_PCOD9467787
_publ_section_title
;
Structure prediction by ZEFSAII (Michael W. Deem and Ramdas Pophale) SiO2 
 PCOD9467787
Probable space group: P N M A
;
_chemical_formula_sum "Si O2"
_cell_formula_units_Z 64
_cell_length_a 15.000000
_cell_length_b 9.000000
_cell_length_c 24.000000
_cell_angle_alpha 90.000000
_cell_angle_beta 90.000000
_cell_angle_gamma 90.000000
_cell_volume 3240.000000
_symmetry_space_group_name_H-M "P N M A"
_symmetry_group_IT_number 62
_symmetry_cell_setting 'orthorhombic'
loop_
_space_group_symop_operation_xyz
x,y,z
1/2-x,-y,1/2+z
1/2+x,1/2-y,1/2-z
-x,1/2+y,-z
-x,-y,-z
1/2+x,y,1/2-z
1/2-x,1/2+y,1/2+z
x,1/2-y,z
loop_
_atom_site_type_symbol
_atom_site_label
_atom_site_fract_x
_atom_site_fract_y
_atom_site_fract_z
Si Si1 0.240580 0.927236 0.495459
Si Si2 0.162925 0.428819 0.102927
Si Si3 0.009510 0.428019 0.186039
Si Si4 0.360655 0.924702 0.786373
Si Si5 0.334549 0.919210 0.154407
Si Si6 0.874006 0.575230 0.584261
Si Si7 0.669962 0.418131 0.714605
Si Si8 0.435729 0.427480 0.064396
O O1 0.242328 0.750000 0.488782
O O2 0.320258 0.968300 0.537834
O O3 0.151488 0.973806 0.529847
O O4 0.217361 0.000203 0.436491
O O5 0.179025 0.250000 0.107521
O O6 0.068278 0.460515 0.131023
O O7 0.238131 0.512981 0.138876
O O8 0.999361 0.250000 0.190517
O O9 0.069385 0.478402 0.239535
O O10 0.912554 0.500297 0.185772
O O11 0.346645 0.750000 0.774403
O O12 0.391158 0.939575 0.850107
O O13 0.265416 0.003624 0.786653
O O14 0.340532 0.750000 0.132597
O O15 0.350925 0.915404 0.219660
O O16 0.406380 0.024318 0.125836
O O17 0.866737 0.750000 0.571263
O O18 0.964687 0.511568 0.556135
O O19 0.677678 0.250000 0.693626
O O20 0.441094 0.250000 0.059426
#
# Coordination Sequence:
#
# PCOD9467787 Si02
#       8
#     8   8   8   8   8   8   8   8
#     4   9  18  31  50  76 105 139 174 215 268 321
#     4   9  18  34  55  77 100 133 178 218 256 308
#     4  10  20  36  60  82 103 139 183 226 267 314
#     4  10  21  37  57  80 107 145 188 223 262 318
#     4  10  19  30  47  74 106 139 171 209 262 316
#     4  10  20  33  50  75 105 139 181 222 262 314
#     4  11  23  35  51  79 114 145 174 218 277 331
#     4   9  18  32  50  73 104 140 181 222 257 310
#
# _framework density 19.753086
#
# number of rings (size 3 to 8) (size 9 to 14) (size 15 to 20)
#    0.000    2.250    1.250    2.625    0.000    6.500 
#    0.000    0.000    0.000    0.750    0.000    0.000 
#    0.000    0.000    0.000    0.000    0.000    0.000 
#
# Total GULP energy -356540.599885 kJ/mol
# GULP energy per Si atom -5570.946873 kJ/mol
# Density = 1.970813 g / cm^3
# Si number density = 19.753086 Si / 1000 Ang^3
#
#
#
# Elastic Constant Matrix: (Units=GPa)
#
#
# Indices 1 2 3 4 5 6 
#
# 1 62.8939 2.3302 -10.6954 0.0000 0.0000 0.0000
# 2 2.3302 -53.1076 20.3366 0.0000 0.0000 0.0000
# 3 -10.6954 20.3366 -5.0373 0.0000 0.0000 0.0000
# 4 0.0000 0.0000 0.0000 20.8211 0.0000 0.0000
# 5 0.0000 0.0000 0.0000 0.0000 2.3530 0.0000
# 6 0.0000 0.0000 0.0000 0.0000 0.0000 15.8576
#
#
#
# Elastic Compliance Matrix: (Units=1/GPa)
#
#
# Indices 1 2 3 4 5 6 
#
# 1 0.035646 0.050218 0.127057 0.000000 0.000000 0.000000
# 2 0.050218 0.105235 0.318234 0.000000 0.000000 0.000000
# 3 0.127057 0.318234 0.816487 0.000000 0.000000 0.000000
# 4 0.000000 0.000000 0.000000 0.048028 0.000000 0.000000
# 5 0.000000 0.000000 0.000000 0.000000 0.424981 0.000000
# 6 0.000000 0.000000 0.000000 0.000000 0.000000 0.063061
#
#
# Mechanical properties :
#
#
# Convention : Reuss Voigt Hill
#
# Bulk Modulus (GPa) = 0.51325 3.18798 1.85061
# Shear Modulus (GPa) = 4.34072 7.32486 5.83279
#
# Velocity S-wave (km/s) = 1.48400 1.92776 1.72025
# Velocity P-wave (km/s) = 1.78794 2.56368 2.21011
#
# Compressibility (1/GPa) = 1.94838542
#
# Stress axis : x y z
#
# Youngs Moduli (GPa) = 28.05384 9.50250 1.22476
#
# Poissons Ratio (x) = -0.47720 -0.15561
# Poissons Ratio (y) = -1.40881 -0.38976
# Poissons Ratio (z) = -3.56443 -3.02402
#
# Static dielectric constant tensor:
#      x y z
#    x 1.705860 0.000000 0.000000 
#    y 0.000000 1.683240 0.000000 
#    z 0.000000 0.000000 1.820360 
# 
# From -- ./inp_files/29733.got.cif
#   From: 2010.05.17/outbox.ucp.g08.bks.cvg/sg62_15_cif.got.tgz:29733.got - 2010.06.11 16:29:25.
