data_PCOD9467546
_publ_section_title
;
Structure prediction by ZEFSAII (Michael W. Deem and Ramdas Pophale) SiO2 
 PCOD9467546
Probable space group: P N M A
;
_chemical_formula_sum "Si O2"
_cell_formula_units_Z 48
_cell_length_a 10.027248
_cell_length_b 29.401592
_cell_length_c 8.801499
_cell_angle_alpha 90.000000
_cell_angle_beta 90.000000
_cell_angle_gamma 90.000000
_cell_volume 2594.832011
_symmetry_space_group_name_H-M "P N M A"
_symmetry_group_IT_number 62
_symmetry_cell_setting 'orthorhombic'
loop_
_space_group_symop_operation_xyz
x,y,z
1/2-x,-y,1/2+z
1/2+x,1/2-y,1/2-z
-x,1/2+y,-z
-x,-y,-z
1/2+x,y,1/2-z
1/2-x,1/2+y,1/2+z
x,1/2-y,z
loop_
_atom_site_type_symbol
_atom_site_label
_atom_site_fract_x
_atom_site_fract_y
_atom_site_fract_z
Si Si1 0.211867 0.389732 0.894724
Si Si2 0.980972 0.697665 0.608935
Si Si3 0.615296 0.030848 0.071142
Si Si4 0.707431 0.303213 0.394274
Si Si5 0.362693 0.518260 0.569291
Si Si6 0.026826 0.115586 0.602530
O O1 0.174530 0.432279 0.001841
O O2 0.072174 0.418243 0.468562
O O3 0.185713 0.341466 0.977948
O O4 0.043510 0.334337 0.534299
O O5 0.956999 0.750000 0.568584
O O6 0.887589 0.686834 0.751777
O O7 0.629466 0.607672 0.138987
O O8 0.136953 0.692693 0.651752
O O9 0.629691 0.021708 0.249305
O O10 0.500000 0.000000 0.000000
O O11 0.749358 0.016586 0.985073
O O12 0.685698 0.250000 0.440351
O O13 0.500000 0.500000 0.500000
O O14 0.620659 0.392806 0.753956
#
# Coordination Sequence:
#
# PCOD9467546 Si02
#       6
#     8   8   8   8   8   8
#     4  11  24  41  60  90 123 162 205 252 308 364
#     4   9  19  38  62  89 121 158 201 253 308 365
#     4  12  24  44  63  91 124 160 206 252 308 363
#     4   9  19  38  63  89 121 158 202 252 307 367
#     4  12  26  42  67  91 122 165 204 257 308 367
#     4  11  24  40  61  88 125 161 204 255 305 368
#
# _framework density 18.498308000000002
#
# number of rings (size 3 to 8) (size 9 to 14) (size 15 to 20)
#    0.000    1.333    1.667    4.000    2.333    2.000 
#    0.000    0.000    0.000    0.000    0.000    0.000 
#    0.000    0.000    0.000    0.000    0.000    0.000 
#
# Total GULP energy -268182.582931 kJ/mol
# GULP energy per Si atom -5587.137144 kJ/mol
# Density = 1.845621 g / cm^3
# Si number density = 18.498308 Si / 1000 Ang^3
#
#
#
# Elastic Constant Matrix: (Units=GPa)
#
#
# Indices 1 2 3 4 5 6 
#
# 1 113.4782 36.3589 64.1163 0.0000 0.0000 0.0000
# 2 36.3589 68.3461 38.5353 0.0000 0.0000 0.0000
# 3 64.1163 38.5353 136.8508 0.0000 0.0000 0.0000
# 4 0.0000 0.0000 0.0000 29.5268 0.0000 0.0000
# 5 0.0000 0.0000 0.0000 0.0000 32.2342 0.0000
# 6 0.0000 0.0000 0.0000 0.0000 0.0000 30.4386
#
#
#
# Elastic Compliance Matrix: (Units=1/GPa)
#
#
# Indices 1 2 3 4 5 6 
#
# 1 0.012885 -0.004102 -0.004882 0.000000 0.000000 0.000000
# 2 -0.004102 0.018699 -0.003343 0.000000 0.000000 0.000000
# 3 -0.004882 -0.003343 0.010536 0.000000 0.000000 0.000000
# 4 0.000000 0.000000 0.000000 0.033867 0.000000 0.000000
# 5 0.000000 0.000000 0.000000 0.000000 0.031023 0.000000
# 6 0.000000 0.000000 0.000000 0.000000 0.000000 0.032853
#
#
# Mechanical properties :
#
#
# Convention : Reuss Voigt Hill
#
# Bulk Modulus (GPa) = 57.25710 66.29957 61.77833
# Shear Modulus (GPa) = 29.35331 30.41758 29.88545
#
# Velocity S-wave (km/s) = 3.98780 4.05945 4.02378
# Velocity P-wave (km/s) = 7.22656 7.60860 7.42004
#
# Compressibility (1/GPa) = 0.01746508
#
# Stress axis : x y z
#
# Youngs Moduli (GPa) = 77.61127 53.47945 94.91473
#
# Poissons Ratio (x) = 0.21938 0.46333
# Poissons Ratio (y) = 0.31837 0.31734
# Poissons Ratio (z) = 0.37886 0.17881
#
# Static dielectric constant tensor:
#      x y z
#    x 1.599540 0.000000 0.000000 
#    y 0.000000 1.640010 0.000000 
#    z 0.000000 0.000000 1.594360 
# 
# From -- ./inp_files/11477.got.cif
#   From: 2010.05.17/outbox.cif.g08.bks.cpg/sg62_6_cif.got.tgz:11477.got - 2010.06.03 15:25:27.
