data_PCOD9467324
_publ_section_title
;
Structure prediction by ZEFSAII (Michael W. Deem and Ramdas Pophale) SiO2 
 PCOD9467324
Probable space group: P N M A
;
_chemical_formula_sum "Si O2"
_cell_formula_units_Z 48
_cell_length_a 8.601681
_cell_length_b 31.085997
_cell_length_c 8.894061
_cell_angle_alpha 90.000000
_cell_angle_beta 90.000000
_cell_angle_gamma 90.000000
_cell_volume 2378.199245
_symmetry_space_group_name_H-M "P N M A"
_symmetry_group_IT_number 62
_symmetry_cell_setting 'orthorhombic'
loop_
_space_group_symop_operation_xyz
x,y,z
1/2-x,-y,1/2+z
1/2+x,1/2-y,1/2-z
-x,1/2+y,-z
-x,-y,-z
1/2+x,y,1/2-z
1/2-x,1/2+y,1/2+z
x,1/2-y,z
loop_
_atom_site_type_symbol
_atom_site_label
_atom_site_fract_x
_atom_site_fract_y
_atom_site_fract_z
Si Si1 0.683805 0.917275 0.784115
Si Si2 0.491522 0.297402 0.474089
Si Si3 0.865034 0.626570 0.163501
Si Si4 0.456893 0.952064 0.543508
Si Si5 0.024299 0.869204 0.467780
Si Si6 0.179447 0.175476 0.307361
O O1 0.598879 0.931683 0.635120
O O2 0.768000 0.871683 0.752784
O O3 0.809081 0.950566 0.845412
O O4 0.559799 0.908059 0.916920
O O5 0.496832 0.250000 0.543925
O O6 0.531588 0.335656 0.588817
O O7 0.616349 0.300376 0.338406
O O8 0.325009 0.304923 0.394992
O O9 0.895724 0.623798 0.340458
O O10 0.687889 0.637066 0.117339
O O11 0.912617 0.581062 0.089041
O O12 0.500000 0.000000 0.500000
O O13 0.962067 0.831564 0.575922
#
# Coordination Sequence:
#
# PCOD9467324 Si02
#       6
#     8   8   8   8   8   8
#     4  11  20  43  68  93 127 175 217 270 324 391
#     4  12  23  39  66 100 133 173 226 276 327 395
#     4  11  23  42  62  97 133 171 221 273 338 386
#     4  11  24  41  66  95 129 171 218 269 332 396
#     4  11  22  39  71  90 126 182 212 269 336 389
#     4  12  19  42  68  93 129 177 224 266 328 392
#
# _framework density 20.183339
#
# number of rings (size 3 to 8) (size 9 to 14) (size 15 to 20)
#    0.000    0.667    8.333    1.500    0.000    2.667 
#    0.000    6.667    0.000    0.000    0.000    0.000 
#    0.000    0.000    0.000    0.000    0.000    0.000 
#
# Total GULP energy -268189.312440 kJ/mol
# GULP energy per Si atom -5587.277343 kJ/mol
# Density = 2.013740 g / cm^3
# Si number density = 20.183339 Si / 1000 Ang^3
#
#
#
# Elastic Constant Matrix: (Units=GPa)
#
#
# Indices 1 2 3 4 5 6 
#
# 1 52.4124 16.8438 6.1140 0.0000 0.0000 0.0000
# 2 16.8438 76.2298 21.7168 0.0000 0.0000 0.0000
# 3 6.1140 21.7168 62.1580 0.0000 0.0000 0.0000
# 4 0.0000 0.0000 0.0000 18.0497 0.0000 0.0000
# 5 0.0000 0.0000 0.0000 0.0000 42.8866 0.0000
# 6 0.0000 0.0000 0.0000 0.0000 0.0000 14.3313
#
#
#
# Elastic Compliance Matrix: (Units=1/GPa)
#
#
# Indices 1 2 3 4 5 6 
#
# 1 0.020551 -0.004403 -0.000483 0.000000 0.000000 0.000000
# 2 -0.004403 0.015512 -0.004986 0.000000 0.000000 0.000000
# 3 -0.000483 -0.004986 0.017878 0.000000 0.000000 0.000000
# 4 0.000000 0.000000 0.000000 0.055403 0.000000 0.000000
# 5 0.000000 0.000000 0.000000 0.000000 0.023317 0.000000
# 6 0.000000 0.000000 0.000000 0.000000 0.000000 0.069777
#
#
# Mechanical properties :
#
#
# Convention : Reuss Voigt Hill
#
# Bulk Modulus (GPa) = 29.24410 31.12770 30.18590
# Shear Modulus (GPa) = 21.40583 24.79523 23.10053
#
# Velocity S-wave (km/s) = 3.26017 3.50880 3.38677
# Velocity P-wave (km/s) = 5.35652 5.64549 5.50290
#
# Compressibility (1/GPa) = 0.03419493
#
# Stress axis : x y z
#
# Youngs Moduli (GPa) = 48.65962 64.46725 55.93561
#
# Poissons Ratio (x) = 0.28387 0.02702
# Poissons Ratio (y) = 0.21427 0.27892
# Poissons Ratio (z) = 0.02350 0.32146
#
# Static dielectric constant tensor:
#      x y z
#    x 1.756440 0.000000 0.000000 
#    y 0.000000 1.747190 0.000000 
#    z 0.000000 0.000000 1.715360 
# 
# From -- ./inp_files/4517.got.cif
#   From: 2010.05.17/outbox.cif.g08.bks.cpg/sg62_3_cif.got.tgz:4517.got - 2010.06.03 15:25:27.
