data_PCOD9467505
_publ_section_title
;
Structure prediction by ZEFSAII (Michael W. Deem and Ramdas Pophale) SiO2 
 PCOD9467505
Probable space group: P N M A
;
_chemical_formula_sum "Si O2"
_cell_formula_units_Z 48
_cell_length_a 28.563956
_cell_length_b 8.767825
_cell_length_c 9.493252
_cell_angle_alpha 90.000000
_cell_angle_beta 90.000000
_cell_angle_gamma 90.000000
_cell_volume 2377.525797
_symmetry_space_group_name_H-M "P N M A"
_symmetry_group_IT_number 62
_symmetry_cell_setting 'orthorhombic'
loop_
_space_group_symop_operation_xyz
x,y,z
1/2-x,-y,1/2+z
1/2+x,1/2-y,1/2-z
-x,1/2+y,-z
-x,-y,-z
1/2+x,y,1/2-z
1/2-x,1/2+y,1/2+z
x,1/2-y,z
loop_
_atom_site_type_symbol
_atom_site_label
_atom_site_fract_x
_atom_site_fract_y
_atom_site_fract_z
Si Si1 0.194251 0.932375 0.013178
Si Si2 0.957673 0.927836 0.412522
Si Si3 0.381773 0.568406 0.702792
Si Si4 0.639843 0.931512 0.998982
Si Si5 0.782348 0.567480 0.291633
Si Si6 0.018360 0.572636 0.142295
O O1 0.189021 0.750000 0.005157
O O2 0.233273 0.968379 0.131843
O O3 0.146280 0.007559 0.067093
O O4 0.210954 0.994255 0.861990
O O5 0.950199 0.750000 0.451428
O O6 0.976206 0.934598 0.253705
O O7 0.910947 0.021638 0.439808
O O8 0.000000 0.000000 0.500000
O O9 0.379488 0.750000 0.709175
O O10 0.435534 0.513868 0.696538
O O11 0.358702 0.496961 0.842813
O O12 0.645444 0.750000 0.002660
O O13 0.678094 0.005729 0.897377
O O14 0.786070 0.750000 0.278500
O O15 0.031118 0.750000 0.124092
O O16 0.000000 0.500000 0.000000
#
# Coordination Sequence:
#
# PCOD9467505 Si02
#       6
#     8   8   8   8   8   8
#     4  11  25  45  70  99 133 171 215 267 325 388
#     4  11  23  41  66  95 130 173 221 268 321 386
#     4  12  25  43  68  96 132 174 218 271 327 388
#     4  12  25  42  67  97 133 174 219 270 325 388
#     4  11  25  45  70 100 133 171 216 267 324 388
#     4  11  25  43  65  94 132 174 220 270 326 388
#
# _framework density 20.189056999999998
#
# number of rings (size 3 to 8) (size 9 to 14) (size 15 to 20)
#    0.000    0.667    1.667    6.000    2.333    7.333 
#    0.000    0.000    0.000    0.000    0.000    0.000 
#    0.000    0.000    0.000    0.000    0.000    0.000 
#
# Total GULP energy -268715.765064 kJ/mol
# GULP energy per Si atom -5598.245105 kJ/mol
# Density = 2.014311 g / cm^3
# Si number density = 20.189057 Si / 1000 Ang^3
#
#
#
# Elastic Constant Matrix: (Units=GPa)
#
#
# Indices 1 2 3 4 5 6 
#
# 1 66.2760 9.7224 10.1227 0.0000 0.0000 0.0000
# 2 9.7224 71.6683 31.2026 0.0000 0.0000 0.0000
# 3 10.1227 31.2026 111.9489 0.0000 0.0000 0.0000
# 4 0.0000 0.0000 0.0000 40.3199 0.0000 0.0000
# 5 0.0000 0.0000 0.0000 0.0000 37.9665 0.0000
# 6 0.0000 0.0000 0.0000 0.0000 0.0000 22.9343
#
#
#
# Elastic Compliance Matrix: (Units=1/GPa)
#
#
# Indices 1 2 3 4 5 6 
#
# 1 0.015479 -0.001696 -0.000927 0.000000 0.000000 0.000000
# 2 -0.001696 0.016066 -0.004325 0.000000 0.000000 0.000000
# 3 -0.000927 -0.004325 0.010222 0.000000 0.000000 0.000000
# 4 0.000000 0.000000 0.000000 0.024802 0.000000 0.000000
# 5 0.000000 0.000000 0.000000 0.000000 0.026339 0.000000
# 6 0.000000 0.000000 0.000000 0.000000 0.000000 0.043603
#
#
# Mechanical properties :
#
#
# Convention : Reuss Voigt Hill
#
# Bulk Modulus (GPa) = 35.87924 39.10983 37.49453
# Shear Modulus (GPa) = 31.30949 33.50052 32.40501
#
# Velocity S-wave (km/s) = 3.94231 4.07792 4.01069
# Velocity P-wave (km/s) = 6.20747 6.44875 6.32926
#
# Compressibility (1/GPa) = 0.02787127
#
# Stress axis : x y z
#
# Youngs Moduli (GPa) = 64.60446 62.24287 97.83003
#
# Poissons Ratio (x) = 0.10558 0.09067
# Poissons Ratio (y) = 0.10959 0.42307
# Poissons Ratio (z) = 0.05988 0.26917
#
# Static dielectric constant tensor:
#      x y z
#    x 1.693650 0.000000 0.000000 
#    y 0.000000 1.678910 0.000000 
#    z 0.000000 0.000000 1.702570 
# 
# From -- ./inp_files/10232.got.cif
#   From: 2010.05.17/outbox.cif.g08.bks.cpg/sg62_6_cif.got.tgz:10232.got - 2010.06.03 15:25:27.
