data_PCOD9467080
_publ_section_title
;
Structure prediction by ZEFSAII (Michael W. Deem and Ramdas Pophale) SiO2 
 PCOD9467080
Probable space group: P N M A
;
_chemical_formula_sum "Si O2"
_cell_formula_units_Z 40
_cell_length_a 10.038161
_cell_length_b 24.707214
_cell_length_c 8.626279
_cell_angle_alpha 90.000000
_cell_angle_beta 90.000000
_cell_angle_gamma 90.000000
_cell_volume 2139.446517
_symmetry_space_group_name_H-M "P N M A"
_symmetry_group_IT_number 62
_symmetry_cell_setting 'orthorhombic'
loop_
_space_group_symop_operation_xyz
x,y,z
1/2-x,-y,1/2+z
1/2+x,1/2-y,1/2-z
-x,1/2+y,-z
-x,-y,-z
1/2+x,y,1/2-z
1/2-x,1/2+y,1/2+z
x,1/2-y,z
loop_
_atom_site_type_symbol
_atom_site_label
_atom_site_fract_x
_atom_site_fract_y
_atom_site_fract_z
Si Si1 0.634410 0.973822 0.434196
Si Si2 0.975672 0.143385 0.400847
Si Si3 0.292486 0.250000 0.601466
Si Si4 0.291969 0.360289 0.402858
Si Si5 0.015309 0.750000 0.395022
Si Si6 0.617336 0.963132 0.065233
O O1 0.665567 0.914606 0.505326
O O2 0.628190 0.968601 0.249355
O O3 0.500000 0.000000 0.500000
O O4 0.750043 0.014756 0.485306
O O5 0.885240 0.143392 0.247819
O O6 0.962938 0.198484 0.495979
O O7 0.920455 0.096594 0.511905
O O8 0.133446 0.134986 0.365546
O O9 0.310604 0.304924 0.501123
O O10 0.390320 0.250000 0.746847
O O11 0.139000 0.250000 0.656140
O O12 0.500000 0.000000 0.000000
#
# Coordination Sequence:
#
# PCOD9467080 Si02
#       6
#     8   8   4   8   4   8
#     4  12  26  42  68  95 132 175 218 270 331 383
#     4  11  24  42  67  94 133 168 218 271 325 388
#     4  10  23  44  68  94 132 168 219 268 326 386
#     4  11  24  43  66  97 129 171 217 269 327 389
#     4  10  23  44  66  96 130 170 215 274 322 388
#     4  12  24  44  64  95 133 169 219 270 321 392
#
# _framework density 18.696425000000001
#
# number of rings (size 3 to 8) (size 9 to 14) (size 15 to 20)
#    0.000    0.800    2.000    5.400    2.800    1.600 
#    0.000    0.000    0.000    0.000    0.000    0.000 
#    0.000    0.000    0.000    0.000    0.000    0.000 
#
# Total GULP energy -223705.516928 kJ/mol
# GULP energy per Si atom -5592.637923 kJ/mol
# Density = 1.865387 g / cm^3
# Si number density = 18.696425 Si / 1000 Ang^3
#
#
#
# Elastic Constant Matrix: (Units=GPa)
#
#
# Indices 1 2 3 4 5 6 
#
# 1 186.1754 92.6189 120.7797 0.0000 0.0000 0.0000
# 2 92.6189 173.5938 76.2780 0.0000 0.0000 0.0000
# 3 120.7797 76.2780 193.6839 0.0000 0.0000 0.0000
# 4 0.0000 0.0000 0.0000 23.0893 0.0000 0.0000
# 5 0.0000 0.0000 0.0000 0.0000 40.3420 0.0000
# 6 0.0000 0.0000 0.0000 0.0000 0.0000 32.0682
#
#
#
# Elastic Compliance Matrix: (Units=1/GPa)
#
#
# Indices 1 2 3 4 5 6 
#
# 1 0.010339 -0.003245 -0.005170 0.000000 0.000000 0.000000
# 2 -0.003245 0.007984 -0.001121 0.000000 0.000000 0.000000
# 3 -0.005170 -0.001121 0.008828 0.000000 0.000000 0.000000
# 4 0.000000 0.000000 0.000000 0.043310 0.000000 0.000000
# 5 0.000000 0.000000 0.000000 0.000000 0.024788 0.000000
# 6 0.000000 0.000000 0.000000 0.000000 0.000000 0.031184
#
#
# Mechanical properties :
#
#
# Convention : Reuss Voigt Hill
#
# Bulk Modulus (GPa) = 123.74649 125.86734 124.80692
# Shear Modulus (GPa) = 33.73862 36.68500 35.21181
#
# Velocity S-wave (km/s) = 4.25261 4.43441 4.34446
# Velocity P-wave (km/s) = 9.51020 9.67917 9.59506
#
# Compressibility (1/GPa) = 0.00808104
#
# Stress axis : x y z
#
# Youngs Moduli (GPa) = 96.71891 125.24417 113.27302
#
# Poissons Ratio (x) = 0.40640 0.58557
# Poissons Ratio (y) = 0.31384 0.12698
# Poissons Ratio (z) = 0.49999 0.14040
#
# Static dielectric constant tensor:
#      x y z
#    x 1.609160 0.000000 0.000000 
#    y 0.000000 1.633320 0.000000 
#    z 0.000000 0.000000 1.600570 
# 
# From -- ./inp_files/4340.got.cif
#   From: 2010.05.17/outbox.cif.g08.bks.cpg/sg62_3_cif.got.tgz:4340.got - 2010.06.03 15:25:27.
