data_PCOD9467597
_publ_section_title
;
Structure prediction by ZEFSAII (Michael W. Deem and Ramdas Pophale) SiO2 
 PCOD9467597
Probable space group: P N M A
;
_chemical_formula_sum "Si O2"
_cell_formula_units_Z 32
_cell_length_a 9.886950
_cell_length_b 16.519243
_cell_length_c 8.207955
_cell_angle_alpha 90.000000
_cell_angle_beta 90.000000
_cell_angle_gamma 90.000000
_cell_volume 1340.563672
_symmetry_space_group_name_H-M "P N M A"
_symmetry_group_IT_number 62
_symmetry_cell_setting 'orthorhombic'
loop_
_space_group_symop_operation_xyz
x,y,z
1/2-x,-y,1/2+z
1/2+x,1/2-y,1/2-z
-x,1/2+y,-z
-x,-y,-z
1/2+x,y,1/2-z
1/2-x,1/2+y,1/2+z
x,1/2-y,z
loop_
_atom_site_type_symbol
_atom_site_label
_atom_site_fract_x
_atom_site_fract_y
_atom_site_fract_z
Si Si1 0.870583 0.926489 0.619737
Si Si2 0.090010 0.841027 0.424671
Si Si3 0.115714 0.928365 0.115755
Si Si4 0.383489 0.841039 0.565921
O O1 0.983997 0.908699 0.483787
O O2 0.230638 0.933597 0.978320
O O3 0.879212 0.997972 0.754528
O O4 0.892153 0.850848 0.740662
O O5 0.037037 0.750000 0.444418
O O6 0.135478 0.853554 0.238692
O O7 0.226348 0.852129 0.526355
O O8 0.974207 0.907015 0.028398
O O9 0.423708 0.750000 0.516780
#
# Coordination Sequence:
#
# PCOD9467597 Si02
#       4
#     8   8   8   8
#     4  12  26  46  71 104 146 191 239 293 356 428
#     4  11  25  45  71 105 144 189 241 296 358 427
#     4  12  26  46  71 104 146 191 239 293 356 428
#     4  11  25  45  71 105 144 189 241 296 358 427
#
# _framework density 23.870555
#
# number of rings (size 3 to 8) (size 9 to 14) (size 15 to 20)
#    0.000    0.500    0.000    7.500    0.000   12.000 
#    0.000    0.000    0.000    0.000    0.000    0.000 
#    0.000    0.000    0.000    0.000    0.000    0.000 
#
# Total GULP energy -178870.276163 kJ/mol
# GULP energy per Si atom -5589.696130 kJ/mol
# Density = 2.381622 g / cm^3
# Si number density = 23.870555 Si / 1000 Ang^3
#
#
#
# Elastic Constant Matrix: (Units=GPa)
#
#
# Indices 1 2 3 4 5 6 
#
# 1 72.5865 52.7267 15.7916 0.0000 0.0000 0.0000
# 2 52.7267 116.1666 -2.1233 0.0000 0.0000 0.0000
# 3 15.7916 -2.1233 59.4788 0.0000 0.0000 0.0000
# 4 0.0000 0.0000 0.0000 43.1705 0.0000 0.0000
# 5 0.0000 0.0000 0.0000 0.0000 66.6406 0.0000
# 6 0.0000 0.0000 0.0000 0.0000 0.0000 23.0593
#
#
#
# Elastic Compliance Matrix: (Units=1/GPa)
#
#
# Indices 1 2 3 4 5 6 
#
# 1 0.022763 -0.010449 -0.006417 0.000000 0.000000 0.000000
# 2 -0.010449 0.013410 0.003253 0.000000 0.000000 0.000000
# 3 -0.006417 0.003253 0.018632 0.000000 0.000000 0.000000
# 4 0.000000 0.000000 0.000000 0.023164 0.000000 0.000000
# 5 0.000000 0.000000 0.000000 0.000000 0.015006 0.000000
# 6 0.000000 0.000000 0.000000 0.000000 0.000000 0.043367
#
#
# Mechanical properties :
#
#
# Convention : Reuss Voigt Hill
#
# Bulk Modulus (GPa) = 36.25756 42.33578 39.29667
# Shear Modulus (GPa) = 28.94173 38.69651 33.81912
#
# Velocity S-wave (km/s) = 3.48580 4.03065 3.76809
# Velocity P-wave (km/s) = 5.60564 6.27978 5.95226
#
# Compressibility (1/GPa) = 0.02758045
#
# Stress axis : x y z
#
# Youngs Moduli (GPa) = 43.93131 74.56844 53.66981
#
# Poissons Ratio (x) = 0.77917 0.34438
# Poissons Ratio (y) = 0.45904 -0.17459
# Poissons Ratio (z) = 0.28189 -0.24257
#
# Static dielectric constant tensor:
#      x y z
#    x 1.878470 0.000000 0.000000 
#    y 0.000000 2.009210 0.000000 
#    z 0.000000 0.000000 1.922290 
# 
# From -- ./inp_files/4982.got.cif
#   From: 2010.05.17/outbox.cif.g08.bks.cpg/sg62_3_cif.got.tgz:4982.got - 2010.06.03 15:25:27.
