data_PCOD9467229
_publ_section_title
;
Structure prediction by ZEFSAII (Michael W. Deem and Ramdas Pophale) SiO2 
 PCOD9467229
Probable space group: P N M A
;
_chemical_formula_sum "Si O2"
_cell_formula_units_Z 32
_cell_length_a 9.249277
_cell_length_b 24.110105
_cell_length_c 4.905616
_cell_angle_alpha 90.000000
_cell_angle_beta 90.000000
_cell_angle_gamma 90.000000
_cell_volume 1093.957468
_symmetry_space_group_name_H-M "P N M A"
_symmetry_group_IT_number 62
_symmetry_cell_setting 'orthorhombic'
loop_
_space_group_symop_operation_xyz
x,y,z
1/2-x,-y,1/2+z
1/2+x,1/2-y,1/2-z
-x,1/2+y,-z
-x,-y,-z
1/2+x,y,1/2-z
1/2-x,1/2+y,1/2+z
x,1/2-y,z
loop_
_atom_site_type_symbol
_atom_site_label
_atom_site_fract_x
_atom_site_fract_y
_atom_site_fract_z
Si Si1 0.447968 0.250000 0.151588
Si Si2 0.441384 0.370528 0.245543
Si Si3 0.691405 0.130415 0.610016
Si Si4 0.255298 0.037678 0.536238
Si Si5 0.280112 0.750000 0.163741
O O1 0.400790 0.305572 0.314017
O O2 0.368109 0.250000 0.856845
O O3 0.621550 0.250000 0.119281
O O4 0.361690 0.374991 0.956796
O O5 0.608048 0.372830 0.324574
O O6 0.374129 0.421278 0.411870
O O7 0.650093 0.079214 0.800819
O O8 0.661237 0.189809 0.735795
O O9 0.194898 0.003603 0.278451
#
# Coordination Sequence:
#
# PCOD9467229 Si02
#       5
#     4   8   8   8   4
#     4  10  25  47  79 127 162 208 260 330 414 488
#     4  11  27  50  79 117 162 207 267 333 406 480
#     4  11  27  48  81 118 161 209 268 334 406 483
#     4  12  28  53  76 118 159 218 275 335 391 469
#     4  10  25  43  79 121 158 204 258 326 408 490
#
# _framework density 29.251594000000001
#
# number of rings (size 3 to 8) (size 9 to 14) (size 15 to 20)
#    0.000    1.000    2.500    0.750   10.500    3.000 
#    0.000    0.000    0.000    0.000    0.000    0.000 
#    0.000    0.000    0.000    0.000    0.000    0.000 
#
# Total GULP energy -178783.091124 kJ/mol
# GULP energy per Si atom -5586.971598 kJ/mol
# Density = 2.918502 g / cm^3
# Si number density = 29.251594 Si / 1000 Ang^3
#
#
#
# Elastic Constant Matrix: (Units=GPa)
#
#
# Indices 1 2 3 4 5 6 
#
# 1 124.7174 41.5848 4.2680 0.0000 0.0000 0.0000
# 2 41.5848 245.2234 75.3873 0.0000 0.0000 0.0000
# 3 4.2680 75.3873 145.4505 0.0000 0.0000 0.0000
# 4 0.0000 0.0000 0.0000 62.4203 0.0000 0.0000
# 5 0.0000 0.0000 0.0000 0.0000 39.2687 0.0000
# 6 0.0000 0.0000 0.0000 0.0000 0.0000 30.0140
#
#
#
# Elastic Compliance Matrix: (Units=1/GPa)
#
#
# Indices 1 2 3 4 5 6 
#
# 1 0.008542 -0.001631 0.000595 0.000000 0.000000 0.000000
# 2 -0.001631 0.005162 -0.002628 0.000000 0.000000 0.000000
# 3 0.000595 -0.002628 0.008220 0.000000 0.000000 0.000000
# 4 0.000000 0.000000 0.000000 0.016020 0.000000 0.000000
# 5 0.000000 0.000000 0.000000 0.000000 0.025466 0.000000
# 6 0.000000 0.000000 0.000000 0.000000 0.000000 0.033318
#
#
# Mechanical properties :
#
#
# Convention : Reuss Voigt Hill
#
# Bulk Modulus (GPa) = 68.51531 84.20796 76.36163
# Shear Modulus (GPa) = 45.90465 52.61733 49.26099
#
# Velocity S-wave (km/s) = 3.96574 4.24581 4.10816
# Velocity P-wave (km/s) = 6.66657 7.27226 6.97599
#
# Compressibility (1/GPa) = 0.01459528
#
# Stress axis : x y z
#
# Youngs Moduli (GPa) = 117.07239 193.70774 121.65836
#
# Poissons Ratio (x) = 0.31601 -0.07238
# Poissons Ratio (y) = 0.19099 0.31970
# Poissons Ratio (z) = -0.06965 0.50903
#
# Static dielectric constant tensor:
#      x y z
#    x 2.453800 0.000000 0.000000 
#    y 0.000000 2.292300 0.000000 
#    z 0.000000 0.000000 2.263520 
# 
# From -- ./inp_files/519.got.cif
#   From: 2010.05.17/outbox.cif.g08.bks.cpg/sg62_1_cif.got.tgz:519.got - 2010.06.03 15:25:27.
