data_PCOD9467917
_publ_section_title
;
Structure prediction by ZEFSAII (Michael W. Deem and Ramdas Pophale) SiO2 
 PCOD9467917
Probable space group: P N M A
;
_chemical_formula_sum "Si O2"
_cell_formula_units_Z 48
_cell_length_a 18.000000
_cell_length_b 9.000000
_cell_length_c 15.000000
_cell_angle_alpha 90.000000
_cell_angle_beta 90.000000
_cell_angle_gamma 90.000000
_cell_volume 2430.000000
_symmetry_space_group_name_H-M "P N M A"
_symmetry_group_IT_number 62
_symmetry_cell_setting 'orthorhombic'
loop_
_space_group_symop_operation_xyz
x,y,z
1/2-x,-y,1/2+z
1/2+x,1/2-y,1/2-z
-x,1/2+y,-z
-x,-y,-z
1/2+x,y,1/2-z
1/2-x,1/2+y,1/2+z
x,1/2-y,z
loop_
_atom_site_type_symbol
_atom_site_label
_atom_site_fract_x
_atom_site_fract_y
_atom_site_fract_z
Si Si1 0.311581 0.918412 0.115108
Si Si2 0.011662 0.085193 0.589343
Si Si3 0.721638 0.422199 0.535411
Si Si4 0.336921 0.073385 0.294336
Si Si5 0.000340 0.429376 0.779819
Si Si6 0.437725 0.577910 0.559943
O O1 0.282026 0.750000 0.121813
O O2 0.400331 0.907377 0.106016
O O3 0.299982 0.012599 0.204217
O O4 0.279439 0.003749 0.031058
O O5 0.980818 0.250000 0.578967
O O6 0.979944 0.019751 0.680371
O O7 0.000000 0.000000 0.500000
O O8 0.738863 0.250000 0.554605
O O9 0.712001 0.517343 0.623966
O O10 0.641597 0.427329 0.486736
O O11 0.345277 0.250000 0.292690
O O12 0.418781 0.997886 0.302880
O O13 0.006968 0.250000 0.781610
O O14 0.940557 0.488358 0.848616
O O15 0.500000 0.500000 0.500000
O O16 0.457877 0.750000 0.574176
#
# Coordination Sequence:
#
# PCOD9467917 Si02
#       6
#     8   8   8   8   8   8
#     4  10  22  41  61  85 117 154 195 242 292 349
#     4   9  20  38  61  86 113 149 192 238 286 341
#     4  11  23  39  59  86 119 155 196 243 291 351
#     4  11  21  36  61  86 112 153 195 235 292 351
#     4  10  20  36  57  84 117 150 192 240 287 346
#     4  11  22  35  57  87 119 153 192 239 292 347
#
# _framework density 19.753086
#
# number of rings (size 3 to 8) (size 9 to 14) (size 15 to 20)
#    0.000    1.667    1.667    4.500    0.000    6.000 
#    3.000    0.000    0.000    0.000    0.000    0.000 
#    0.000    0.000    0.000    0.000    0.000    0.000 
#
# Total GULP energy -267929.892681 kJ/mol
# GULP energy per Si atom -5581.872764 kJ/mol
# Density = 1.970813 g / cm^3
# Si number density = 19.753086 Si / 1000 Ang^3
#
#
#
# Elastic Constant Matrix: (Units=GPa)
#
#
# Indices 1 2 3 4 5 6 
#
# 1 -13.0150 4.2342 3.3434 0.0000 0.0000 0.0000
# 2 4.2342 110.1593 48.2516 0.0000 0.0000 0.0000
# 3 3.3434 48.2516 147.9190 0.0000 0.0000 0.0000
# 4 0.0000 0.0000 0.0000 30.6314 0.0000 0.0000
# 5 0.0000 0.0000 0.0000 0.0000 30.4066 0.0000
# 6 0.0000 0.0000 0.0000 0.0000 0.0000 25.8171
#
#
#
# Elastic Compliance Matrix: (Units=1/GPa)
#
#
# Indices 1 2 3 4 5 6 
#
# 1 -0.075785 0.002523 0.000890 0.000000 0.000000 0.000000
# 2 0.002523 0.010507 -0.003484 0.000000 0.000000 0.000000
# 3 0.000890 -0.003484 0.007877 0.000000 0.000000 0.000000
# 4 0.000000 0.000000 0.000000 0.032646 0.000000 0.000000
# 5 0.000000 0.000000 0.000000 0.000000 0.032888 0.000000
# 6 0.000000 0.000000 0.000000 0.000000 0.000000 0.038734
#
#
# Mechanical properties :
#
#
# Convention : Reuss Voigt Hill
#
# Bulk Modulus (GPa) = -17.37800 39.63574 11.12887
# Shear Modulus (GPa) = 179.67441 29.98662 104.83052
#
# Velocity S-wave (km/s) = 9.54765 3.90047 7.29285
# Velocity P-wave (km/s) = 10.61729 6.35563 8.74988
#
# Compressibility (1/GPa) = -0.05754403
#
# Stress axis : x y z
#
# Youngs Moduli (GPa) = -13.19518 95.17439 126.95217
#
# Poissons Ratio (x) = -0.24014 -0.11298
# Poissons Ratio (y) = 0.03329 0.44236
# Poissons Ratio (z) = 0.01174 0.33163
#
# Static dielectric constant tensor:
#      x y z
#    x 1.646980 0.000000 0.000000 
#    y 0.000000 1.675100 0.000000 
#    z 0.000000 0.000000 1.819810 
# 
# From -- ./inp_files/19561.got.cif
#   From: 2010.05.17/outbox.ucp.g08.bks.cvg/sg62_10_cif.got.tgz:19561.got - 2010.06.11 16:29:25.
