data_PCOD9467848
_publ_section_title
;
Structure prediction by ZEFSAII (Michael W. Deem and Ramdas Pophale) SiO2 
 PCOD9467848
Probable space group: P N M A
;
_chemical_formula_sum "Si O2"
_cell_formula_units_Z 64
_cell_length_a 12.000000
_cell_length_b 9.000000
_cell_length_c 30.000000
_cell_angle_alpha 90.000000
_cell_angle_beta 90.000000
_cell_angle_gamma 90.000000
_cell_volume 3240.000000
_symmetry_space_group_name_H-M "P N M A"
_symmetry_group_IT_number 62
_symmetry_cell_setting 'orthorhombic'
loop_
_space_group_symop_operation_xyz
x,y,z
1/2-x,-y,1/2+z
1/2+x,1/2-y,1/2-z
-x,1/2+y,-z
-x,-y,-z
1/2+x,y,1/2-z
1/2-x,1/2+y,1/2+z
x,1/2-y,z
loop_
_atom_site_type_symbol
_atom_site_label
_atom_site_fract_x
_atom_site_fract_y
_atom_site_fract_z
Si Si1 0.673500 0.928329 0.639085
Si Si2 0.189147 0.069952 0.444508
Si Si3 0.278869 0.072180 0.688305
Si Si4 0.447432 0.074329 0.064970
Si Si5 0.468566 0.575152 0.157483
Si Si6 0.218160 0.928905 0.033902
Si Si7 0.691413 0.573128 0.213602
Si Si8 0.557631 0.569599 0.390313
O O1 0.669026 0.750000 0.639710
O O2 0.767081 0.978754 0.603266
O O3 0.712304 0.991902 0.686180
O O4 0.557907 0.994848 0.622119
O O5 0.183888 0.250000 0.443630
O O6 0.277093 0.026300 0.482337
O O7 0.064321 0.019488 0.456567
O O8 0.295202 0.250000 0.688715
O O9 0.316518 0.015480 0.736139
O O10 0.351602 0.020787 0.646671
O O11 0.148205 0.047683 0.681867
O O12 0.434113 0.250000 0.056985
O O13 0.471160 0.037102 0.116489
O O14 0.333894 0.990954 0.053342
O O15 0.468257 0.750000 0.142408
O O16 0.573892 0.553914 0.189069
O O17 0.223308 0.750000 0.036841
O O18 0.111922 0.975694 0.062537
O O19 0.716213 0.750000 0.214199
O O20 0.546137 0.750000 0.389595
#
# Coordination Sequence:
#
# PCOD9467848 Si02
#       8
#     8   8   8   8   8   8   8   8
#     4  11  23  40  57  79 117 154 184 227 284 341
#     4   9  20  37  57  81 113 151 184 227 284 333
#     4   9  19  36  59  87 114 143 184 239 284 317
#     4  11  20  34  56  85 120 150 178 224 282 337
#     4  10  19  35  59  86 112 147 187 228 278 330
#     4  10  20  38  61  83 109 146 191 234 278 329
#     4  10  21  36  61  88 111 144 192 238 275 327
#     4  10  21  38  60  83 109 145 191 239 279 326
#
# _framework density 19.753086
#
# number of rings (size 3 to 8) (size 9 to 14) (size 15 to 20)
#    0.000    2.000    2.500    1.125    1.750    1.000 
#    0.000    3.125    0.000    0.000    0.000    0.000 
#    0.000    0.000    0.000    0.000    0.000    0.000 
#
# Total GULP energy -356956.029509 kJ/mol
# GULP energy per Si atom -5577.437961 kJ/mol
# Density = 1.970813 g / cm^3
# Si number density = 19.753086 Si / 1000 Ang^3
#
#
#
# Elastic Constant Matrix: (Units=GPa)
#
#
# Indices 1 2 3 4 5 6 
#
# 1 44.8370 -1.1493 -17.0877 0.0000 0.0000 0.0000
# 2 -1.1493 6.4179 -7.3109 0.0000 0.0000 0.0000
# 3 -17.0877 -7.3109 46.7787 0.0000 0.0000 0.0000
# 4 0.0000 0.0000 0.0000 13.7198 0.0000 0.0000
# 5 0.0000 0.0000 0.0000 0.0000 10.2641 0.0000
# 6 0.0000 0.0000 0.0000 0.0000 0.0000 22.1034
#
#
#
# Elastic Compliance Matrix: (Units=1/GPa)
#
#
# Indices 1 2 3 4 5 6 
#
# 1 0.027910 0.020210 0.013354 0.000000 0.000000 0.000000
# 2 0.020210 0.204196 0.039296 0.000000 0.000000 0.000000
# 3 0.013354 0.039296 0.032397 0.000000 0.000000 0.000000
# 4 0.000000 0.000000 0.000000 0.072887 0.000000 0.000000
# 5 0.000000 0.000000 0.000000 0.000000 0.097427 0.000000
# 6 0.000000 0.000000 0.000000 0.000000 0.000000 0.045242
#
#
# Mechanical properties :
#
#
# Convention : Reuss Voigt Hill
#
# Bulk Modulus (GPa) = 2.43770 5.21531 3.82651
# Shear Modulus (GPa) = 10.61390 17.45625 14.03507
#
# Velocity S-wave (km/s) = 2.32055 2.97597 2.66846
# Velocity P-wave (km/s) = 2.90115 3.80191 3.38166
#
# Compressibility (1/GPa) = 0.41022193
#
# Stress axis : x y z
#
# Youngs Moduli (GPa) = 35.82912 4.89725 30.86732
#
# Poissons Ratio (x) = -0.09897 -0.41220
# Poissons Ratio (y) = -0.72410 -1.21295
# Poissons Ratio (z) = -0.47846 -0.19244
#
# Static dielectric constant tensor:
#      x y z
#    x 1.683250 0.000000 0.000000 
#    y 0.000000 1.659700 0.000000 
#    z 0.000000 0.000000 1.741280 
# 
# From -- ./inp_files/32457.got.cif
#   From: 2010.05.17/outbox.ucp.g08.bks.cvg/sg62_17_cif.got.tgz:32457.got - 2010.06.11 16:29:25.
