data_PCOD9467894
_publ_section_title
;
Structure prediction by ZEFSAII (Michael W. Deem and Ramdas Pophale) SiO2 
 PCOD9467894
Probable space group: P N M A
;
_chemical_formula_sum "Si O2"
_cell_formula_units_Z 48
_cell_length_a 9.000000
_cell_length_b 12.000000
_cell_length_c 24.000000
_cell_angle_alpha 90.000000
_cell_angle_beta 90.000000
_cell_angle_gamma 90.000000
_cell_volume 2592.000000
_symmetry_space_group_name_H-M "P N M A"
_symmetry_group_IT_number 62
_symmetry_cell_setting 'orthorhombic'
loop_
_space_group_symop_operation_xyz
x,y,z
1/2-x,-y,1/2+z
1/2+x,1/2-y,1/2-z
-x,1/2+y,-z
-x,-y,-z
1/2+x,y,1/2-z
1/2-x,1/2+y,1/2+z
x,1/2-y,z
loop_
_atom_site_type_symbol
_atom_site_label
_atom_site_fract_x
_atom_site_fract_y
_atom_site_fract_z
Si Si1 0.502851 0.374326 0.679880
Si Si2 0.159941 0.622576 0.630926
Si Si3 0.679515 0.119947 0.480085
Si Si4 0.756480 0.973172 0.263404
Si Si5 0.098335 0.526726 0.919442
Si Si6 0.171083 0.373427 0.334801
O O1 0.550599 0.250000 0.666464
O O2 0.342075 0.379210 0.707846
O O3 0.609268 0.425136 0.727322
O O4 0.510697 0.446746 0.623705
O O5 0.216310 0.750000 0.636497
O O6 0.216548 0.581524 0.571072
O O7 0.205961 0.553885 0.685220
O O8 0.983053 0.623878 0.632825
O O9 0.706712 0.250000 0.491506
O O10 0.514609 0.101254 0.454938
O O11 0.688006 0.047711 0.536047
O O12 0.667405 0.042926 0.216873
O O13 0.202247 0.596376 0.878654
O O14 0.196762 0.250000 0.311885
#
# Coordination Sequence:
#
# PCOD9467894 Si02
#       6
#     8   8   8   8   8   8
#     4  11  22  36  56  78 110 148 184 225 273 330
#     4  10  20  35  56  82 111 143 180 228 281 329
#     4  10  20  36  58  82 109 144 186 230 276 321
#     4  11  20  37  54  82 112 142 182 226 278 331
#     4  10  21  36  57  82 111 145 183 231 270 328
#     4  10  21  36  56  82 113 145 180 224 278 332
#
# _framework density 18.518519000000001
#
# number of rings (size 3 to 8) (size 9 to 14) (size 15 to 20)
#    0.000    1.667    3.333    2.000    0.000    0.667 
#    0.000    0.000    0.000    0.000    0.000    0.000 
#    0.000    0.000    0.000    0.000    0.000    0.000 
#
# Total GULP energy -267450.639228 kJ/mol
# GULP energy per Si atom -5571.888317 kJ/mol
# Density = 1.847637 g / cm^3
# Si number density = 18.518519 Si / 1000 Ang^3
#
#
#
# Elastic Constant Matrix: (Units=GPa)
#
#
# Indices 1 2 3 4 5 6 
#
# 1 22.4083 10.2711 -0.4827 0.0000 0.0000 0.0000
# 2 10.2711 37.8489 -8.8430 0.0000 0.0000 0.0000
# 3 -0.4827 -8.8430 30.4792 0.0000 0.0000 0.0000
# 4 0.0000 0.0000 0.0000 8.4087 0.0000 0.0000
# 5 0.0000 0.0000 0.0000 0.0000 11.4460 0.0000
# 6 0.0000 0.0000 0.0000 0.0000 0.0000 18.0292
#
#
#
# Elastic Compliance Matrix: (Units=1/GPa)
#
#
# Indices 1 2 3 4 5 6 
#
# 1 0.051304 -0.014731 -0.003462 0.000000 0.000000 0.000000
# 2 -0.014731 0.032572 0.009217 0.000000 0.000000 0.000000
# 3 -0.003462 0.009217 0.035429 0.000000 0.000000 0.000000
# 4 0.000000 0.000000 0.000000 0.118925 0.000000 0.000000
# 5 0.000000 0.000000 0.000000 0.000000 0.087367 0.000000
# 6 0.000000 0.000000 0.000000 0.000000 0.000000 0.055466
#
#
# Mechanical properties :
#
#
# Convention : Reuss Voigt Hill
#
# Bulk Modulus (GPa) = 9.86652 10.29191 10.07922
# Shear Modulus (GPa) = 11.55274 13.56284 12.55779
#
# Velocity S-wave (km/s) = 2.50040 2.70921 2.60690
# Velocity P-wave (km/s) = 3.69804 3.91869 3.80997
#
# Compressibility (1/GPa) = 0.10135282
#
# Stress axis : x y z
#
# Youngs Moduli (GPa) = 19.49166 30.70130 28.22580
#
# Poissons Ratio (x) = 0.45227 0.09770
# Poissons Ratio (y) = 0.28714 -0.26015
# Poissons Ratio (z) = 0.06747 -0.28297
#
# Static dielectric constant tensor:
#      x y z
#    x 1.670640 0.000000 0.000000 
#    y 0.000000 1.655420 0.000000 
#    z 0.000000 0.000000 1.575920 
# 
# From -- ./inp_files/26532.got.cif
#   From: 2010.05.17/outbox.ucp.g08.bks.cvg/sg62_14_cif.got.tgz:26532.got - 2010.06.11 16:29:25.
