data_PCOD9467267
_publ_section_title
;
Structure prediction by ZEFSAII (Michael W. Deem and Ramdas Pophale) SiO2 
 PCOD9467267
Probable space group: P N M A
;
_chemical_formula_sum "Si O2"
_cell_formula_units_Z 32
_cell_length_a 8.048002
_cell_length_b 17.517450
_cell_length_c 8.912084
_cell_angle_alpha 90.000000
_cell_angle_beta 90.000000
_cell_angle_gamma 90.000000
_cell_volume 1256.429814
_symmetry_space_group_name_H-M "P N M A"
_symmetry_group_IT_number 62
_symmetry_cell_setting 'orthorhombic'
loop_
_space_group_symop_operation_xyz
x,y,z
1/2-x,-y,1/2+z
1/2+x,1/2-y,1/2-z
-x,1/2+y,-z
-x,-y,-z
1/2+x,y,1/2-z
1/2-x,1/2+y,1/2+z
x,1/2-y,z
loop_
_atom_site_type_symbol
_atom_site_label
_atom_site_fract_x
_atom_site_fract_y
_atom_site_fract_z
Si Si1 0.983410 0.164277 0.567832
Si Si2 0.853394 0.607996 0.029745
Si Si3 0.290662 0.434830 0.532713
Si Si4 0.577513 0.666398 0.711434
O O1 0.032199 0.250000 0.612979
O O2 0.126219 0.102751 0.597056
O O3 0.959850 0.161621 0.385898
O O4 0.795631 0.146425 0.618203
O O5 0.908046 0.658434 0.886593
O O6 0.033277 0.591719 0.104520
O O7 0.788713 0.525479 0.975645
O O8 0.316205 0.401244 0.363683
O O9 0.149396 0.750000 0.825237
#
# Coordination Sequence:
#
# PCOD9467267 Si02
#       4
#     8   8   8   8
#     4  11  19  28  48  72  95 119 144 186 232 271
#     4   9  19  31  42  61  97 129 150 176 214 275
#     4   9  19  31  42  61  97 129 150 176 214 275
#     4   9  17  30  46  70  97 117 144 184 230 271
#
# _framework density 25.468992
#
# number of rings (size 3 to 8) (size 9 to 14) (size 15 to 20)
#    1.500    1.000    0.000    3.750    0.000    4.000 
#    0.000    0.000    0.000    0.000    0.000    0.000 
#    0.000  140.000    0.000    0.000    0.000    0.000 
#
# Total GULP energy -178758.001580 kJ/mol
# GULP energy per Si atom -5586.187549 kJ/mol
# Density = 2.541102 g / cm^3
# Si number density = 25.468992 Si / 1000 Ang^3
#
#
#
# Elastic Constant Matrix: (Units=GPa)
#
#
# Indices 1 2 3 4 5 6 
#
# 1 95.2010 10.4059 -0.3801 0.0000 0.0000 0.0000
# 2 10.4059 113.8608 12.1121 0.0000 0.0000 0.0000
# 3 -0.3801 12.1121 79.4839 0.0000 0.0000 0.0000
# 4 0.0000 0.0000 0.0000 -11.9863 0.0000 0.0000
# 5 0.0000 0.0000 0.0000 0.0000 36.4814 0.0000
# 6 0.0000 0.0000 0.0000 0.0000 0.0000 46.4919
#
#
#
# Elastic Compliance Matrix: (Units=1/GPa)
#
#
# Indices 1 2 3 4 5 6 
#
# 1 0.010613 -0.000991 0.000202 0.000000 0.000000 0.000000
# 2 -0.000991 0.009020 -0.001379 0.000000 0.000000 0.000000
# 3 0.000202 -0.001379 0.012792 0.000000 0.000000 0.000000
# 4 0.000000 0.000000 0.000000 -0.083428 0.000000 0.000000
# 5 0.000000 0.000000 0.000000 0.000000 0.027411 0.000000
# 6 0.000000 0.000000 0.000000 0.000000 0.000000 0.021509
#
#
# Mechanical properties :
#
#
# Convention : Reuss Voigt Hill
#
# Bulk Modulus (GPa) = 35.60256 36.98016 36.29136
# Shear Modulus (GPa) = 430.37295 31.95791 231.16543
#
# Velocity S-wave (km/s) = 13.01330 3.54613 9.53732
# Velocity P-wave (km/s) = 15.48560 5.59624 11.64306
#
# Compressibility (1/GPa) = 0.02808787
#
# Stress axis : x y z
#
# Youngs Moduli (GPa) = 94.22170 110.86493 78.17200
#
# Poissons Ratio (x) = 0.10992 -0.01578
# Poissons Ratio (y) = 0.09341 0.10782
# Poissons Ratio (z) = -0.01902 0.15291
#
# Static dielectric constant tensor:
#      x y z
#    x 2.094090 0.000000 0.000000 
#    y 0.000000 1.895860 0.000000 
#    z 0.000000 0.000000 2.030150 
# 
# From -- ./inp_files/4128.got.cif
#   From: 2010.05.17/outbox.cif.g08.bks.cpg/sg62_3_cif.got.tgz:4128.got - 2010.06.03 15:25:27.
