data_PCOD9467802
_publ_section_title
;
Structure prediction by ZEFSAII (Michael W. Deem and Ramdas Pophale) SiO2 
 PCOD9467802
Probable space group: P N M A
;
_chemical_formula_sum "Si O2"
_cell_formula_units_Z 56
_cell_length_a 15.000000
_cell_length_b 9.000000
_cell_length_c 21.000000
_cell_angle_alpha 90.000000
_cell_angle_beta 90.000000
_cell_angle_gamma 90.000000
_cell_volume 2835.000000
_symmetry_space_group_name_H-M "P N M A"
_symmetry_group_IT_number 62
_symmetry_cell_setting 'orthorhombic'
loop_
_space_group_symop_operation_xyz
x,y,z
1/2-x,-y,1/2+z
1/2+x,1/2-y,1/2-z
-x,1/2+y,-z
-x,-y,-z
1/2+x,y,1/2-z
1/2-x,1/2+y,1/2+z
x,1/2-y,z
loop_
_atom_site_type_symbol
_atom_site_label
_atom_site_fract_x
_atom_site_fract_y
_atom_site_fract_z
Si Si1 0.427391 0.921806 0.957865
Si Si2 0.918706 0.921325 0.220695
Si Si3 0.013135 0.415665 0.104713
Si Si4 0.545794 0.082621 0.192751
Si Si5 0.248597 0.577233 0.799970
Si Si6 0.750840 0.420064 0.565783
Si Si7 0.620554 0.586885 0.485542
O O1 0.410549 0.750000 0.975307
O O2 0.452874 0.922286 0.883374
O O3 0.342065 0.025256 0.963670
O O4 0.500000 0.000000 0.000000
O O5 0.918549 0.750000 0.202536
O O6 0.820069 0.976648 0.237814
O O7 0.955332 0.020250 0.162231
O O8 0.983734 0.958405 0.278269
O O9 0.047042 0.250000 0.120204
O O10 0.084548 0.537823 0.082893
O O11 0.954481 0.401106 0.040507
O O12 0.517403 0.250000 0.211999
O O13 0.647519 0.060008 0.215388
O O14 0.225466 0.750000 0.794446
O O15 0.237065 0.524933 0.873138
O O16 0.751401 0.250000 0.586308
O O17 0.678686 0.453426 0.512646
O O18 0.664408 0.750000 0.483390
#
# Coordination Sequence:
#
# PCOD9467802 Si02
#       7
#     8   8   8   8   8   8   8
#     4  10  21  39  62  86 112 144 186 235 287 337
#     4  12  23  35  57  86 117 152 190 235 286 341
#     4  10  20  33  52  76 112 151 184 225 273 328
#     4   9  21  40  61  84 113 149 190 235 284 339
#     4  10  20  37  59  82 110 149 194 238 283 337
#     4  11  20  32  55  84 114 147 188 232 279 336
#     4  10  19  32  51  78 112 147 185 229 273 322
#
# _framework density 19.753086
#
# number of rings (size 3 to 8) (size 9 to 14) (size 15 to 20)
#    0.000    1.714    1.429    5.143    0.000    4.571 
#    0.000    1.429    0.000    5.143    0.000    0.000 
#    0.000    0.000    0.000    0.000    0.000    0.000 
#
# Total GULP energy -312115.013701 kJ/mol
# GULP energy per Si atom -5573.482388 kJ/mol
# Density = 1.970813 g / cm^3
# Si number density = 19.753086 Si / 1000 Ang^3
#
#
#
# Elastic Constant Matrix: (Units=GPa)
#
#
# Indices 1 2 3 4 5 6 
#
# 1 42.0451 15.9847 10.4126 0.0000 0.0000 0.0000
# 2 15.9847 88.9048 11.2796 0.0000 0.0000 0.0000
# 3 10.4126 11.2796 -8.4823 0.0000 0.0000 0.0000
# 4 0.0000 0.0000 0.0000 15.6337 0.0000 0.0000
# 5 0.0000 0.0000 0.0000 0.0000 19.5836 0.0000
# 6 0.0000 0.0000 0.0000 0.0000 0.0000 23.2027
#
#
#
# Elastic Compliance Matrix: (Units=1/GPa)
#
#
# Indices 1 2 3 4 5 6 
#
# 1 0.021616 -0.006206 0.018282 0.000000 0.000000 0.000000
# 2 -0.006206 0.011406 0.007549 0.000000 0.000000 0.000000
# 3 0.018282 0.007549 -0.085411 0.000000 0.000000 0.000000
# 4 0.000000 0.000000 0.000000 0.063964 0.000000 0.000000
# 5 0.000000 0.000000 0.000000 0.000000 0.051063 0.000000
# 6 0.000000 0.000000 0.000000 0.000000 0.000000 0.043098
#
#
# Mechanical properties :
#
#
# Convention : Reuss Voigt Hill
#
# Bulk Modulus (GPa) = -76.11416 21.98014 -27.06701
# Shear Modulus (GPa) = 80.50744 17.33672 48.92208
#
# Velocity S-wave (km/s) = 6.39104 2.96577 4.98202
# Velocity P-wave (km/s) = 3.98046 4.78323 4.40019
#
# Compressibility (1/GPa) = -0.01313816
#
# Stress axis : x y z
#
# Youngs Moduli (GPa) = 46.26270 87.67324 -11.70810
#
# Poissons Ratio (x) = 0.54409 0.21405
# Poissons Ratio (y) = 0.28710 0.08839
# Poissons Ratio (z) = -0.84579 -0.66187
#
# Static dielectric constant tensor:
#      x y z
#    x 1.678360 0.000000 0.000000 
#    y 0.000000 1.686670 0.000000 
#    z 0.000000 0.000000 1.660740 
# 
# From -- ./inp_files/27056.got.cif
#   From: 2010.05.17/outbox.ucp.g08.bks.cvg/sg62_14_cif.got.tgz:27056.got - 2010.06.11 16:29:25.
