data_PCOD9467196
_publ_section_title
;
Structure prediction by ZEFSAII (Michael W. Deem and Ramdas Pophale) SiO2 
 PCOD9467196
Probable space group: P N M A
;
_chemical_formula_sum "Si O2"
_cell_formula_units_Z 60
_cell_length_a 13.298192
_cell_length_b 25.320728
_cell_length_c 9.499579
_cell_angle_alpha 90.000000
_cell_angle_beta 90.000000
_cell_angle_gamma 90.000000
_cell_volume 3198.697315
_symmetry_space_group_name_H-M "P N M A"
_symmetry_group_IT_number 62
_symmetry_cell_setting 'orthorhombic'
loop_
_space_group_symop_operation_xyz
x,y,z
1/2-x,-y,1/2+z
1/2+x,1/2-y,1/2-z
-x,1/2+y,-z
-x,-y,-z
1/2+x,y,1/2-z
1/2-x,1/2+y,1/2+z
x,1/2-y,z
loop_
_atom_site_type_symbol
_atom_site_label
_atom_site_fract_x
_atom_site_fract_y
_atom_site_fract_z
Si Si1 0.691874 0.966866 0.843786
Si Si2 0.637844 0.250000 0.782949
Si Si3 0.770349 0.691665 0.017744
Si Si4 0.302369 0.075835 0.610974
Si Si5 0.638267 0.383211 0.284872
Si Si6 0.892644 0.395716 0.589303
Si Si7 0.112255 0.146048 0.534928
Si Si8 0.542238 0.955617 0.604817
O O1 0.766406 0.922811 0.778902
O O2 0.608290 0.981339 0.728695
O O3 0.756978 0.016952 0.888506
O O4 0.638708 0.940295 0.977435
O O5 0.669902 0.295337 0.661849
O O6 0.612916 0.296438 0.897425
O O7 0.242218 0.750000 0.538835
O O8 0.672581 0.656505 0.051226
O O9 0.836460 0.659221 0.906171
O O10 0.357953 0.086238 0.757359
O O11 0.210034 0.115024 0.589529
O O12 0.383026 0.080261 0.487025
O O13 0.544832 0.419760 0.329804
O O14 0.618416 0.356338 0.134997
O O15 0.009861 0.383251 0.579641
O O16 0.500000 0.000000 0.500000
#
# Coordination Sequence:
#
# PCOD9467196 Si02
#       8
#     8   4   8   8   8   8   8   8
#     4  11  24  43  64  99 140 178 224 271 332 403
#     4  10  24  44  70  96 128 170 222 296 340 396
#     4   9  22  46  68  92 127 169 217 279 340 394
#     4  12  25  40  68  99 137 180 223 278 328 404
#     4  11  24  44  68  97 135 177 221 275 335 410
#     4  11  25  42  68  98 132 178 222 277 340 398
#     4  12  26  44  68  99 136 172 232 284 336 406
#     4  12  25  41  65  99 137 183 222 268 337 403
#
# _framework density 18.757636000000002
#
# number of rings (size 3 to 8) (size 9 to 14) (size 15 to 20)
#    0.400    0.533    5.333    0.800    7.467    0.533 
#    0.000    0.000    1.467    0.000    0.000    0.000 
#    0.000    0.000    0.000    0.000    0.000    0.000 
#
# Total GULP energy -334146.922430 kJ/mol
# GULP energy per Si atom -5569.115374 kJ/mol
# Density = 1.871494 g / cm^3
# Si number density = 18.757636 Si / 1000 Ang^3
#
#
#
# Elastic Constant Matrix: (Units=GPa)
#
#
# Indices 1 2 3 4 5 6 
#
# 1 91.2601 11.8067 51.0456 0.0000 0.0000 0.0000
# 2 11.8067 67.3657 20.6350 0.0000 0.0000 0.0000
# 3 51.0456 20.6350 114.2036 0.0000 0.0000 0.0000
# 4 0.0000 0.0000 0.0000 38.5123 0.0000 0.0000
# 5 0.0000 0.0000 0.0000 0.0000 -36.9530 0.0000
# 6 0.0000 0.0000 0.0000 0.0000 0.0000 11.1369
#
#
#
# Elastic Compliance Matrix: (Units=1/GPa)
#
#
# Indices 1 2 3 4 5 6 
#
# 1 0.014633 -0.000594 -0.006433 0.000000 0.000000 0.000000
# 2 -0.000594 0.015738 -0.002578 0.000000 0.000000 0.000000
# 3 -0.006433 -0.002578 0.012098 0.000000 0.000000 0.000000
# 4 0.000000 0.000000 0.000000 0.025966 0.000000 0.000000
# 5 0.000000 0.000000 0.000000 0.000000 -0.027061 0.000000
# 6 0.000000 0.000000 0.000000 0.000000 0.000000 0.089792
#
#
# Mechanical properties :
#
#
# Convention : Reuss Voigt Hill
#
# Bulk Modulus (GPa) = 42.99602 48.86710 45.93156
# Shear Modulus (GPa) = 31.62001 15.16205 23.39103
#
# Velocity S-wave (km/s) = 4.11020 2.84617 3.53514
# Velocity P-wave (km/s) = 6.74512 6.07530 6.41895
#
# Compressibility (1/GPa) = 0.02325797
#
# Stress axis : x y z
#
# Youngs Moduli (GPa) = 68.33934 63.53969 82.66137
#
# Poissons Ratio (x) = 0.03774 0.53177
# Poissons Ratio (y) = 0.04060 0.21311
# Poissons Ratio (z) = 0.43964 0.16382
#
# Static dielectric constant tensor:
#      x y z
#    x 1.638940 0.000000 0.000000 
#    y 0.000000 1.643390 0.000000 
#    z 0.000000 0.000000 1.648230 
# 
# From -- ./inp_files/5430.got.cif
#   From: 2010.05.17/outbox.cif.g08.bks.cpg/sg62_3_cif.got.tgz:5430.got - 2010.06.03 15:25:27.
