data_PCOD9467625
_publ_section_title
;
Structure prediction by ZEFSAII (Michael W. Deem and Ramdas Pophale) SiO2 
 PCOD9467625
Probable space group: P N M A
;
_chemical_formula_sum "Si O2"
_cell_formula_units_Z 24
_cell_length_a 9.860083
_cell_length_b 17.906216
_cell_length_c 5.134908
_cell_angle_alpha 90.000000
_cell_angle_beta 90.000000
_cell_angle_gamma 90.000000
_cell_volume 906.602801
_symmetry_space_group_name_H-M "P N M A"
_symmetry_group_IT_number 62
_symmetry_cell_setting 'orthorhombic'
loop_
_space_group_symop_operation_xyz
x,y,z
1/2-x,-y,1/2+z
1/2+x,1/2-y,1/2-z
-x,1/2+y,-z
-x,-y,-z
1/2+x,y,1/2-z
1/2-x,1/2+y,1/2+z
x,1/2-y,z
loop_
_atom_site_type_symbol
_atom_site_label
_atom_site_fract_x
_atom_site_fract_y
_atom_site_fract_z
Si Si1 0.082223 0.250000 0.291470
Si Si2 0.821966 0.250000 0.578712
Si Si3 0.241832 0.625159 0.051093
Si Si4 0.906399 0.490479 0.250353
O O1 0.921270 0.250000 0.330316
O O2 0.139047 0.323009 0.439537
O O3 0.165358 0.250000 0.020818
O O4 0.844835 0.178436 0.762192
O O5 0.296966 0.556175 0.220371
O O6 0.166296 0.587778 0.806879
O O7 0.000000 0.500000 0.500000
O O8 0.000000 0.500000 0.000000
#
# Coordination Sequence:
#
# PCOD9467625 Si02
#       4
#     4   4   8   8
#     4  11  28  48  85 112 168 224 288 358 438 525
#     4  11  28  54  81 128 172 232 294 368 444 533
#     4  11  28  51  78 123 170 223 293 365 440 528
#     4  12  28  48  84 120 171 222 286 356 442 522
#
# _framework density 26.472453999999999
#
# number of rings (size 3 to 8) (size 9 to 14) (size 15 to 20)
#    0.000    0.667    0.000    4.000   18.667    5.333 
#    0.000    0.000    0.000    0.000    0.000    0.000 
#    0.000    0.000    0.000    0.000    0.000    0.000 
#
# Total GULP energy -134762.558422 kJ/mol
# GULP energy per Si atom -5615.106601 kJ/mol
# Density = 2.641220 g / cm^3
# Si number density = 26.472454 Si / 1000 Ang^3
#
#
#
# Elastic Constant Matrix: (Units=GPa)
#
#
# Indices 1 2 3 4 5 6 
#
# 1 116.8224 65.8052 61.8437 0.0000 0.0000 0.0000
# 2 65.8052 195.1774 68.9068 0.0000 0.0000 0.0000
# 3 61.8437 68.9068 192.3686 0.0000 0.0000 0.0000
# 4 0.0000 0.0000 0.0000 63.2087 0.0000 0.0000
# 5 0.0000 0.0000 0.0000 0.0000 61.6679 0.0000
# 6 0.0000 0.0000 0.0000 0.0000 0.0000 22.2612
#
#
#
# Elastic Compliance Matrix: (Units=1/GPa)
#
#
# Indices 1 2 3 4 5 6 
#
# 1 0.011660 -0.002985 -0.002679 0.000000 0.000000 0.000000
# 2 -0.002985 0.006630 -0.001415 0.000000 0.000000 0.000000
# 3 -0.002679 -0.001415 0.006567 0.000000 0.000000 0.000000
# 4 0.000000 0.000000 0.000000 0.015821 0.000000 0.000000
# 5 0.000000 0.000000 0.000000 0.000000 0.016216 0.000000
# 6 0.000000 0.000000 0.000000 0.000000 0.000000 0.044921
#
#
# Mechanical properties :
#
#
# Convention : Reuss Voigt Hill
#
# Bulk Modulus (GPa) = 93.48337 99.71999 96.60168
# Shear Modulus (GPa) = 41.82755 49.94842 45.88798
#
# Velocity S-wave (km/s) = 3.97928 4.34845 4.16796
# Velocity P-wave (km/s) = 7.51685 7.93493 7.72872
#
# Compressibility (1/GPa) = 0.01069709
#
# Stress axis : x y z
#
# Youngs Moduli (GPa) = 85.76394 150.83784 152.28787
#
# Poissons Ratio (x) = 0.45030 0.40800
# Poissons Ratio (y) = 0.25604 0.21549
# Poissons Ratio (z) = 0.22977 0.21344
#
# Static dielectric constant tensor:
#      x y z
#    x 2.107880 0.000000 0.000000 
#    y 0.000000 2.032680 0.000000 
#    z 0.000000 0.000000 2.009210 
# 
# From -- ./inp_files/360.got.cif
#   From: 2010.05.17/outbox.cif.g08.bks.cpg/sg62_1_cif.got.tgz:360.got - 2010.06.03 15:25:27.
