data_PCOD9467700
_publ_section_title
;
Structure prediction by ZEFSAII (Michael W. Deem and Ramdas Pophale) SiO2 
 PCOD9467700
Probable space group: P N M A
;
_chemical_formula_sum "Si O2"
_cell_formula_units_Z 32
_cell_length_a 5.987621
_cell_length_b 18.289810
_cell_length_c 10.468338
_cell_angle_alpha 90.000000
_cell_angle_beta 90.000000
_cell_angle_gamma 90.000000
_cell_volume 1146.413346
_symmetry_space_group_name_H-M "P N M A"
_symmetry_group_IT_number 62
_symmetry_cell_setting 'orthorhombic'
loop_
_space_group_symop_operation_xyz
x,y,z
1/2-x,-y,1/2+z
1/2+x,1/2-y,1/2-z
-x,1/2+y,-z
-x,-y,-z
1/2+x,y,1/2-z
1/2-x,1/2+y,1/2+z
x,1/2-y,z
loop_
_atom_site_type_symbol
_atom_site_label
_atom_site_fract_x
_atom_site_fract_y
_atom_site_fract_z
Si Si1 0.457252 0.374405 0.926880
Si Si2 0.832048 0.361808 0.285123
Si Si3 0.153369 0.011791 0.876657
Si Si4 0.428334 0.168065 0.654293
O O1 0.404186 0.459659 0.901492
O O2 0.716622 0.354512 0.932752
O O3 0.337477 0.360446 0.060923
O O4 0.000000 0.500000 0.000000
O O5 0.082653 0.332162 0.249802
O O6 0.838163 0.441893 0.214771
O O7 0.054377 0.090272 0.835250
O O8 0.378489 0.174611 0.806634
O O9 0.487207 0.250000 0.610477
#
# Coordination Sequence:
#
# PCOD9467700 Si02
#       4
#     8   8   8   8
#     4  12  27  46  76 115 165 215 282 350 425 511
#     4  12  28  48  79 124 168 215 275 357 439 505
#     4  12  26  47  78 123 163 213 279 359 432 507
#     4  12  28  48  76 112 159 224 284 346 423 514
#
# _framework density 27.913139999999999
#
# number of rings (size 3 to 8) (size 9 to 14) (size 15 to 20)
#    0.000    0.000    5.000    3.750    3.500    6.000 
#    0.000    0.000    0.000   15.000    0.000    0.000 
#    0.000    0.000    0.000    0.000    0.000    0.000 
#
# Total GULP energy -178339.741426 kJ/mol
# GULP energy per Si atom -5573.116920 kJ/mol
# Density = 2.784961 g / cm^3
# Si number density = 27.913140 Si / 1000 Ang^3
#
#
#
# Elastic Constant Matrix: (Units=GPa)
#
#
# Indices 1 2 3 4 5 6 
#
# 1 133.2155 69.2001 -1.9063 0.0000 0.0000 0.0000
# 2 69.2001 210.7631 53.4871 0.0000 0.0000 0.0000
# 3 -1.9063 53.4871 103.0334 0.0000 0.0000 0.0000
# 4 0.0000 0.0000 0.0000 -86.5315 0.0000 0.0000
# 5 0.0000 0.0000 0.0000 0.0000 55.8467 0.0000
# 6 0.0000 0.0000 0.0000 0.0000 0.0000 8.4808
#
#
#
# Elastic Compliance Matrix: (Units=1/GPa)
#
#
# Indices 1 2 3 4 5 6 
#
# 1 0.009411 -0.003610 0.002048 0.000000 0.000000 0.000000
# 2 -0.003610 0.006849 -0.003622 0.000000 0.000000 0.000000
# 3 0.002048 -0.003622 0.011624 0.000000 0.000000 0.000000
# 4 0.000000 0.000000 0.000000 -0.011556 0.000000 0.000000
# 5 0.000000 0.000000 0.000000 0.000000 0.017906 0.000000
# 6 0.000000 0.000000 0.000000 0.000000 0.000000 0.117914
#
#
# Mechanical properties :
#
#
# Convention : Reuss Voigt Hill
#
# Bulk Modulus (GPa) = 57.09058 76.50822 66.79940
# Shear Modulus (GPa) = 29.69925 17.30793 23.50359
#
# Velocity S-wave (km/s) = 3.26542 2.49281 2.90492
# Velocity P-wave (km/s) = 5.89191 5.97950 5.93587
#
# Compressibility (1/GPa) = 0.01751602
#
# Stress axis : x y z
#
# Youngs Moduli (GPa) = 106.25845 146.00476 86.02960
#
# Poissons Ratio (x) = 0.52703 -0.17619
# Poissons Ratio (y) = 0.38356 0.31163
# Poissons Ratio (z) = -0.21762 0.52887
#
# Static dielectric constant tensor:
#      x y z
#    x 2.808320 0.000000 0.000000 
#    y 0.000000 2.165440 0.000000 
#    z 0.000000 0.000000 2.419920 
# 
# From -- ./inp_files/16097.got.cif
#   From: 2010.05.17/outbox.cif.g08.bks.cpg/sg62_9_cif.got.tgz:16097.got - 2010.06.03 15:25:27.
