data_PCOD9467475
_publ_section_title
;
Structure prediction by ZEFSAII (Michael W. Deem and Ramdas Pophale) SiO2 
 PCOD9467475
Probable space group: P N M A
;
_chemical_formula_sum "Si O2"
_cell_formula_units_Z 32
_cell_length_a 10.893052
_cell_length_b 14.467646
_cell_length_c 11.109078
_cell_angle_alpha 90.000000
_cell_angle_beta 90.000000
_cell_angle_gamma 90.000000
_cell_volume 1750.755368
_symmetry_space_group_name_H-M "P N M A"
_symmetry_group_IT_number 62
_symmetry_cell_setting 'orthorhombic'
loop_
_space_group_symop_operation_xyz
x,y,z
1/2-x,-y,1/2+z
1/2+x,1/2-y,1/2-z
-x,1/2+y,-z
-x,-y,-z
1/2+x,y,1/2-z
1/2-x,1/2+y,1/2+z
x,1/2-y,z
loop_
_atom_site_type_symbol
_atom_site_label
_atom_site_fract_x
_atom_site_fract_y
_atom_site_fract_z
Si Si1 0.400146 0.600152 0.913906
Si Si2 0.582939 0.750000 0.810760
Si Si3 0.241473 0.750000 0.468810
Si Si4 0.994637 0.250000 0.845152
Si Si5 0.307398 0.250000 0.441128
Si Si6 0.438023 0.399943 0.854077
O O1 0.503516 0.661980 0.850062
O O2 0.278194 0.660382 0.925018
O O3 0.388039 0.503953 0.843285
O O4 0.451235 0.588892 0.049942
O O5 0.601245 0.750000 0.670144
O O6 0.709393 0.750000 0.888667
O O7 0.380543 0.750000 0.423136
O O8 0.168632 0.662414 0.413597
O O9 0.984951 0.159262 0.759537
O O10 0.878723 0.250000 0.933917
#
# Coordination Sequence:
#
# PCOD9467475 Si02
#       6
#     8   4   4   4   4   8
#     4   9  20  41  61  82 115 161 198 228 306 362
#     4   9  20  39  58  77 118 163 199 238 292 358
#     4   9  20  37  58  87 118 155 191 248 300 340
#     4  11  23  35  63  95 119 145 203 257 293 337
#     4  11  23  37  61  87 117 159 193 245 295 351
#     4   9  20  39  62  86 115 152 191 249 298 354
#
# _framework density 18.277823999999999
#
# number of rings (size 3 to 8) (size 9 to 14) (size 15 to 20)
#    0.000    2.500    0.000    2.250   10.500    2.000 
#    9.000    2.500    0.000    0.000    0.000    0.000 
#    0.000    0.000    0.000    0.000    0.000    0.000 
#
# Total GULP energy -178375.681341 kJ/mol
# GULP energy per Si atom -5574.240042 kJ/mol
# Density = 1.823622 g / cm^3
# Si number density = 18.277824 Si / 1000 Ang^3
#
#
#
# Elastic Constant Matrix: (Units=GPa)
#
#
# Indices 1 2 3 4 5 6 
#
# 1 54.1298 30.9785 15.9851 0.0000 0.0000 0.0000
# 2 30.9785 154.4575 33.5998 0.0000 0.0000 0.0000
# 3 15.9851 33.5998 86.5986 0.0000 0.0000 0.0000
# 4 0.0000 0.0000 0.0000 3.6782 0.0000 0.0000
# 5 0.0000 0.0000 0.0000 0.0000 20.6627 0.0000
# 6 0.0000 0.0000 0.0000 0.0000 0.0000 -6.6344
#
#
#
# Elastic Compliance Matrix: (Units=1/GPa)
#
#
# Indices 1 2 3 4 5 6 
#
# 1 0.021350 -0.003740 -0.002490 0.000000 0.000000 0.000000
# 2 -0.003740 0.007726 -0.002307 0.000000 0.000000 0.000000
# 3 -0.002490 -0.002307 0.012902 0.000000 0.000000 0.000000
# 4 0.000000 0.000000 0.000000 0.271872 0.000000 0.000000
# 5 0.000000 0.000000 0.000000 0.000000 0.048396 0.000000
# 6 0.000000 0.000000 0.000000 0.000000 0.000000 -0.150730
#
#
# Mechanical properties :
#
#
# Convention : Reuss Voigt Hill
#
# Bulk Modulus (GPa) = 40.15458 50.70141 45.42799
# Shear Modulus (GPa) = 21.10659 17.84948 19.47803
#
# Velocity S-wave (km/s) = 3.40187 3.12839 3.26799
# Velocity P-wave (km/s) = 6.11940 6.39129 6.25682
#
# Compressibility (1/GPa) = 0.02490376
#
# Stress axis : x y z
#
# Youngs Moduli (GPa) = 46.83844 129.42651 77.50525
#
# Poissons Ratio (x) = 0.48411 0.19297
# Poissons Ratio (y) = 0.17520 0.17883
# Poissons Ratio (z) = 0.11661 0.29863
#
# Static dielectric constant tensor:
#      x y z
#    x 1.617030 0.000000 0.000000 
#    y 0.000000 1.622550 0.000000 
#    z 0.000000 0.000000 1.621070 
# 
# From -- ./inp_files/4884.got.cif
#   From: 2010.05.17/outbox.cif.g08.bks.cpg/sg62_3_cif.got.tgz:4884.got - 2010.06.03 15:25:27.
