data_PCOD9467749
_publ_section_title
;
Structure prediction by ZEFSAII (Michael W. Deem and Ramdas Pophale) SiO2 
 PCOD9467749
Probable space group: P N M A
;
_chemical_formula_sum "Si O2"
_cell_formula_units_Z 64
_cell_length_a 8.383174
_cell_length_b 13.950414
_cell_length_c 31.504721
_cell_angle_alpha 90.000000
_cell_angle_beta 90.000000
_cell_angle_gamma 90.000000
_cell_volume 3684.437675
_symmetry_space_group_name_H-M "P N M A"
_symmetry_group_IT_number 62
_symmetry_cell_setting 'orthorhombic'
loop_
_space_group_symop_operation_xyz
x,y,z
1/2-x,-y,1/2+z
1/2+x,1/2-y,1/2-z
-x,1/2+y,-z
-x,-y,-z
1/2+x,y,1/2-z
1/2-x,1/2+y,1/2+z
x,1/2-y,z
loop_
_atom_site_type_symbol
_atom_site_label
_atom_site_fract_x
_atom_site_fract_y
_atom_site_fract_z
Si Si1 0.615908 0.860142 0.707772
Si Si2 0.980634 0.861326 0.462724
Si Si3 0.098213 0.483599 0.269054
Si Si4 0.671088 0.357553 0.356794
Si Si5 0.297583 0.358072 0.605614
Si Si6 0.239832 0.485528 0.479306
Si Si7 0.563830 0.460626 0.437492
Si Si8 0.701502 0.458356 0.811232
O O1 0.661455 0.750000 0.715839
O O2 0.767962 0.928608 0.704161
O O3 0.513144 0.903137 0.746698
O O4 0.498243 0.863638 0.667712
O O5 0.023011 0.750000 0.469104
O O6 0.864594 0.867830 0.421946
O O7 0.130510 0.932185 0.458851
O O8 0.875466 0.903473 0.501775
O O9 0.186696 0.537449 0.230353
O O10 0.979996 0.549503 0.295881
O O11 0.733424 0.250000 0.351371
O O12 0.637886 0.383799 0.405438
O O13 0.778701 0.438723 0.334978
O O14 0.356739 0.250000 0.600319
O O15 0.416002 0.437539 0.586646
O O16 0.258790 0.382388 0.654224
O O17 0.379887 0.445701 0.449543
O O18 0.332452 0.531451 0.519707
#
# Coordination Sequence:
#
# PCOD9467749 Si02
#       8
#     8   8   8   8   8   8   8   8
#     4   9  16  26  41  63  89 118 151 182 218 271
#     4   9  18  32  50  72  97 126 159 194 235 283
#     4   9  17  28  45  65  88 118 150 188 229 271
#     4   9  18  30  44  66  96 125 151 184 230 283
#     4   9  18  34  52  68  91 123 158 197 239 278
#     4   9  18  32  50  72  97 125 160 199 236 278
#     4   9  18  32  50  71  95 125 159 197 237 278
#     4   9  18  32  48  67  91 120 153 190 233 279
#
# _framework density 17.370356000000001
#
# number of rings (size 3 to 8) (size 9 to 14) (size 15 to 20)
#    0.000    3.000    0.000    0.375    0.000    6.000 
#    0.000    3.125    0.000    0.000    0.000    0.000 
#    0.000    0.000    0.000    0.000    0.000    0.000 
#
# Total GULP energy -356547.280781 kJ/mol
# GULP energy per Si atom -5571.051262 kJ/mol
# Density = 1.733082 g / cm^3
# Si number density = 17.370356 Si / 1000 Ang^3
#
#
#
# Elastic Constant Matrix: (Units=GPa)
#
#
# Indices 1 2 3 4 5 6 
#
# 1 33.9160 0.9440 -9.4070 0.0000 0.0000 0.0000
# 2 0.9440 28.6399 1.2690 0.0000 0.0000 0.0000
# 3 -9.4070 1.2690 37.1946 0.0000 0.0000 0.0000
# 4 0.0000 0.0000 0.0000 12.2253 0.0000 0.0000
# 5 0.0000 0.0000 0.0000 0.0000 8.8977 0.0000
# 6 0.0000 0.0000 0.0000 0.0000 0.0000 11.1468
#
#
#
# Elastic Compliance Matrix: (Units=1/GPa)
#
#
# Indices 1 2 3 4 5 6 
#
# 1 0.031765 -0.001405 0.008082 0.000000 0.000000 0.000000
# 2 -0.001405 0.035031 -0.001551 0.000000 0.000000 0.000000
# 3 0.008082 -0.001551 0.028983 0.000000 0.000000 0.000000
# 4 0.000000 0.000000 0.000000 0.081798 0.000000 0.000000
# 5 0.000000 0.000000 0.000000 0.000000 0.112389 0.000000
# 6 0.000000 0.000000 0.000000 0.000000 0.000000 0.089711
#
#
# Mechanical properties :
#
#
# Convention : Reuss Voigt Hill
#
# Bulk Modulus (GPa) = 9.43115 9.48471 9.45793
# Shear Modulus (GPa) = 12.35274 13.58360 12.96817
#
# Velocity S-wave (km/s) = 2.66961 2.79946 2.73531
# Velocity P-wave (km/s) = 3.86571 3.99017 3.92843
#
# Compressibility (1/GPa) = 0.10603159
#
# Stress axis : x y z
#
# Youngs Moduli (GPa) = 31.48091 28.54590 34.50350
#
# Poissons Ratio (x) = 0.04011 -0.27885
# Poissons Ratio (y) = 0.04423 0.05350
# Poissons Ratio (z) = -0.25442 0.04426
#
# Static dielectric constant tensor:
#      x y z
#    x 1.583660 0.000000 0.000000 
#    y 0.000000 1.573080 0.000000 
#    z 0.000000 0.000000 1.597510 
# 
# From -- ./inp_files/32322.got.cif
#   From: 2010.05.17/outbox.cif.g08.bks.cpg/sg62_17_cif.got.tgz:32322.got - 2010.06.03 15:25:27.
