data_PCOD9467120
_publ_section_title
;
Structure prediction by ZEFSAII (Michael W. Deem and Ramdas Pophale) SiO2 
 PCOD9467120
Probable space group: P N M A
;
_chemical_formula_sum "Si O2"
_cell_formula_units_Z 40
_cell_length_a 7.027312
_cell_length_b 13.955456
_cell_length_c 16.384816
_cell_angle_alpha 90.000000
_cell_angle_beta 90.000000
_cell_angle_gamma 90.000000
_cell_volume 1606.848147
_symmetry_space_group_name_H-M "P N M A"
_symmetry_group_IT_number 62
_symmetry_cell_setting 'orthorhombic'
loop_
_space_group_symop_operation_xyz
x,y,z
1/2-x,-y,1/2+z
1/2+x,1/2-y,1/2-z
-x,1/2+y,-z
-x,-y,-z
1/2+x,y,1/2-z
1/2-x,1/2+y,1/2+z
x,1/2-y,z
loop_
_atom_site_type_symbol
_atom_site_label
_atom_site_fract_x
_atom_site_fract_y
_atom_site_fract_z
Si Si1 0.792388 0.750000 0.578814
Si Si2 0.285674 0.413549 0.310670
Si Si3 0.567624 0.250000 0.902450
Si Si4 0.720512 0.415846 0.362104
Si Si5 0.005623 0.417412 0.693324
Si Si6 0.356068 0.750000 0.517540
Si Si7 0.498141 0.250000 0.669185
O O1 0.825901 0.844983 0.629557
O O2 0.901916 0.750000 0.496373
O O3 0.568518 0.750000 0.556931
O O4 0.494198 0.432913 0.346538
O O5 0.293855 0.365452 0.221522
O O6 0.167578 0.509757 0.296566
O O7 0.455441 0.158326 0.874801
O O8 0.773274 0.250000 0.856185
O O9 0.833050 0.516772 0.352873
O O10 0.733786 0.346453 0.440611
O O11 0.032521 0.345141 0.772644
O O12 0.399012 0.750000 0.419883
#
# Coordination Sequence:
#
# PCOD9467120 Si02
#       7
#     4   8   4   8   8   4   4
#     4   9  22  43  67 104 144 182 226 303 356 419
#     4  11  22  41  72 103 138 178 238 290 356 421
#     4  10  23  46  69  98 147 189 239 291 360 420
#     4  11  22  42  74 104 139 182 238 291 354 425
#     4  11  24  44  76 102 135 192 238 291 351 430
#     4   9  22  45  73 106 144 192 228 299 362 419
#     4  10  23  48  73 100 147 189 241 289 362 422
#
# _framework density 24.893454999999999
#
# number of rings (size 3 to 8) (size 9 to 14) (size 15 to 20)
#    0.000    1.600    2.000    1.800    0.000    1.600 
#    3.600    7.000   22.000    1.200    0.000    0.000 
#    0.000    0.000    0.000    0.000    0.000    0.000 
#
# Total GULP energy -223170.688834 kJ/mol
# GULP energy per Si atom -5579.267221 kJ/mol
# Density = 2.483680 g / cm^3
# Si number density = 24.893455 Si / 1000 Ang^3
#
#
#
# Elastic Constant Matrix: (Units=GPa)
#
#
# Indices 1 2 3 4 5 6 
#
# 1 115.7863 63.0694 57.8552 0.0000 0.0000 0.0000
# 2 63.0694 199.4902 88.9254 0.0000 0.0000 0.0000
# 3 57.8552 88.9254 148.2909 0.0000 0.0000 0.0000
# 4 0.0000 0.0000 0.0000 -563.9565 0.0000 0.0000
# 5 0.0000 0.0000 0.0000 0.0000 35.6326 0.0000
# 6 0.0000 0.0000 0.0000 0.0000 0.0000 29.9763
#
#
#
# Elastic Compliance Matrix: (Units=1/GPa)
#
#
# Indices 1 2 3 4 5 6 
#
# 1 0.011402 -0.002213 -0.003121 0.000000 0.000000 0.000000
# 2 -0.002213 0.007271 -0.003497 0.000000 0.000000 0.000000
# 3 -0.003121 -0.003497 0.010058 0.000000 0.000000 0.000000
# 4 0.000000 0.000000 0.000000 -0.001773 0.000000 0.000000
# 5 0.000000 0.000000 0.000000 0.000000 0.028064 0.000000
# 6 0.000000 0.000000 0.000000 0.000000 0.000000 0.033360
#
#
# Mechanical properties :
#
#
# Convention : Reuss Voigt Hill
#
# Bulk Modulus (GPa) = 90.34572 98.14084 94.24328
# Shear Modulus (GPa) = 45.56473 -82.75504 -18.59516
#
# Velocity S-wave (km/s) = 4.28295 -5.77199 -2.73608
# Velocity P-wave (km/s) = 7.79935 2.21613 5.28766
#
# Compressibility (1/GPa) = 0.01106859
#
# Stress axis : x y z
#
# Youngs Moduli (GPa) = 87.70558 137.52655 99.42248
#
# Poissons Ratio (x) = 0.30441 0.31030
# Poissons Ratio (y) = 0.19413 0.34766
# Poissons Ratio (z) = 0.27373 0.48090
#
# Static dielectric constant tensor:
#      x y z
#    x 2.083760 0.000000 0.000000 
#    y 0.000000 1.974370 0.000000 
#    z 0.000000 0.000000 1.939660 
# 
# From -- ./inp_files/17895.got.cif
#   From: 2010.05.17/outbox.cif.g08.bks.cpg/sg62_9_cif.got.tgz:17895.got - 2010.06.03 15:25:27.
