data_PCOD9467794
_publ_section_title
;
Structure prediction by ZEFSAII (Michael W. Deem and Ramdas Pophale) SiO2 
 PCOD9467794
Probable space group: P N M A
;
_chemical_formula_sum "Si O2"
_cell_formula_units_Z 64
_cell_length_a 18.000000
_cell_length_b 9.000000
_cell_length_c 21.000000
_cell_angle_alpha 90.000000
_cell_angle_beta 90.000000
_cell_angle_gamma 90.000000
_cell_volume 3402.000000
_symmetry_space_group_name_H-M "P N M A"
_symmetry_group_IT_number 62
_symmetry_cell_setting 'orthorhombic'
loop_
_space_group_symop_operation_xyz
x,y,z
1/2-x,-y,1/2+z
1/2+x,1/2-y,1/2-z
-x,1/2+y,-z
-x,-y,-z
1/2+x,y,1/2-z
1/2-x,1/2+y,1/2+z
x,1/2-y,z
loop_
_atom_site_type_symbol
_atom_site_label
_atom_site_fract_x
_atom_site_fract_y
_atom_site_fract_z
Si Si1 0.841101 0.070654 0.337455
Si Si2 0.913115 0.080088 0.792259
Si Si3 0.343453 0.430119 0.894213
Si Si4 0.999861 0.078777 0.660255
Si Si5 0.728131 0.930636 0.971773
Si Si6 0.112959 0.080815 0.980439
Si Si7 0.274081 0.927921 0.769352
Si Si8 0.000315 0.917018 0.901327
O O1 0.840328 0.250000 0.337597
O O2 0.799784 0.018890 0.402530
O O3 0.797961 0.025083 0.272461
O O4 0.925111 0.013836 0.341739
O O5 0.887641 0.250000 0.801306
O O6 0.967328 0.077542 0.731554
O O7 0.843717 0.976140 0.774883
O O8 0.959077 0.021141 0.851611
O O9 0.339947 0.250000 0.887804
O O10 0.429013 0.474844 0.880958
O O11 0.291330 0.497537 0.838131
O O12 0.319727 0.471311 0.965774
O O13 0.015840 0.250000 0.642415
O O14 0.728594 0.750000 0.968795
O O15 0.811620 0.978301 0.988726
O O16 0.125919 0.250000 0.957473
O O17 0.078449 0.982444 0.924689
O O18 0.052464 0.088491 0.036653
O O19 0.272471 0.750000 0.777242
O O20 0.007991 0.750000 0.875889
#
# Coordination Sequence:
#
# PCOD9467794 Si02
#       8
#     8   8   8   8   8   8   8   8
#     4  10  21  36  56  82 109 139 175 218 269 320
#     4  10  20  35  55  77 103 138 178 215 260 319
#     4   9  19  37  58  78 104 141 181 218 261 317
#     4   9  20  36  52  75 104 133 172 219 262 311
#     4   9  18  35  57  77 102 140 183 223 266 320
#     4   9  18  33  51  73 104 141 178 215 262 321
#     4  10  20  35  55  80 109 137 172 220 269 317
#     4  10  19  31  50  77 109 141 175 218 265 315
#
# _framework density 18.812463000000001
#
# number of rings (size 3 to 8) (size 9 to 14) (size 15 to 20)
#    0.000    2.500    0.000    2.625    0.000    7.500 
#    0.000    5.625    0.000    0.000    0.000    0.000 
#    0.000    0.000    0.000    0.000    0.000    0.000 
#
# Total GULP energy -356836.392582 kJ/mol
# GULP energy per Si atom -5575.568634 kJ/mol
# Density = 1.876965 g / cm^3
# Si number density = 18.812463 Si / 1000 Ang^3
#
#
#
# Elastic Constant Matrix: (Units=GPa)
#
#
# Indices 1 2 3 4 5 6 
#
# 1 76.3124 7.3890 1.4024 0.0000 0.0000 0.0000
# 2 7.3890 22.9532 2.0365 0.0000 0.0000 0.0000
# 3 1.4024 2.0365 27.6898 0.0000 0.0000 0.0000
# 4 0.0000 0.0000 0.0000 21.9581 0.0000 0.0000
# 5 0.0000 0.0000 0.0000 0.0000 12.3659 0.0000
# 6 0.0000 0.0000 0.0000 0.0000 0.0000 28.8214
#
#
#
# Elastic Compliance Matrix: (Units=1/GPa)
#
#
# Indices 1 2 3 4 5 6 
#
# 1 0.013529 -0.004323 -0.000367 0.000000 0.000000 0.000000
# 2 -0.004323 0.045234 -0.003108 0.000000 0.000000 0.000000
# 3 -0.000367 -0.003108 0.036362 0.000000 0.000000 0.000000
# 4 0.000000 0.000000 0.000000 0.045541 0.000000 0.000000
# 5 0.000000 0.000000 0.000000 0.000000 0.080868 0.000000
# 6 0.000000 0.000000 0.000000 0.000000 0.000000 0.034696
#
#
# Mechanical properties :
#
#
# Convention : Reuss Voigt Hill
#
# Bulk Modulus (GPa) = 12.57401 16.51237 14.54319
# Shear Modulus (GPa) = 16.75961 20.37090 18.56525
#
# Velocity S-wave (km/s) = 2.98800 3.29422 3.14484
# Velocity P-wave (km/s) = 4.31307 4.82345 4.57538
#
# Compressibility (1/GPa) = 0.07952915
#
# Stress axis : x y z
#
# Youngs Moduli (GPa) = 73.91346 22.10711 27.50160
#
# Poissons Ratio (x) = 0.09556 0.01010
# Poissons Ratio (y) = 0.31951 0.08547
# Poissons Ratio (z) = 0.02715 0.06871
#
# Static dielectric constant tensor:
#      x y z
#    x 1.650250 0.000000 0.000000 
#    y 0.000000 1.654940 0.000000 
#    z 0.000000 0.000000 1.652090 
# 
# From -- ./inp_files/27634.got.cif
#   From: 2010.05.17/outbox.ucp.g08.bks.cvg/sg62_14_cif.got.tgz:27634.got - 2010.06.11 16:29:25.
