data_PCOD9467905
_publ_section_title
;
Structure prediction by ZEFSAII (Michael W. Deem and Ramdas Pophale) SiO2 
 PCOD9467905
Probable space group: P N M A
;
_chemical_formula_sum "Si O2"
_cell_formula_units_Z 48
_cell_length_a 15.000000
_cell_length_b 9.000000
_cell_length_c 18.000000
_cell_angle_alpha 90.000000
_cell_angle_beta 90.000000
_cell_angle_gamma 90.000000
_cell_volume 2430.000000
_symmetry_space_group_name_H-M "P N M A"
_symmetry_group_IT_number 62
_symmetry_cell_setting 'orthorhombic'
loop_
_space_group_symop_operation_xyz
x,y,z
1/2-x,-y,1/2+z
1/2+x,1/2-y,1/2-z
-x,1/2+y,-z
-x,-y,-z
1/2+x,y,1/2-z
1/2-x,1/2+y,1/2+z
x,1/2-y,z
loop_
_atom_site_type_symbol
_atom_site_label
_atom_site_fract_x
_atom_site_fract_y
_atom_site_fract_z
Si Si1 0.061678 0.574816 0.099549
Si Si2 0.616922 0.574760 0.569482
Si Si3 0.381329 0.424802 0.057730
Si Si4 0.237173 0.573606 0.331929
Si Si5 0.246567 0.573321 0.167060
Si Si6 0.079537 0.075510 0.401249
O O1 0.038070 0.750000 0.100422
O O2 0.141291 0.547980 0.156386
O O3 0.973188 0.479811 0.109427
O O4 0.101626 0.541376 0.017582
O O5 0.629048 0.750000 0.577167
O O6 0.700453 0.492533 0.604522
O O7 0.374072 0.250000 0.040428
O O8 0.300712 0.481889 0.106909
O O9 0.473778 0.448751 0.102152
O O10 0.390349 0.515839 0.981859
O O11 0.235428 0.750000 0.337302
O O12 0.273189 0.533120 0.250576
O O13 0.138255 0.511184 0.342293
O O14 0.261681 0.750000 0.154959
O O15 0.097564 0.250000 0.396091
#
# Coordination Sequence:
#
# PCOD9467905 Si02
#       6
#     8   8   8   8   8   8
#     4   9  19  37  58  80 107 141 183 227 272 326
#     4  10  20  35  58  84 109 141 181 229 281 329
#     4  10  21  37  60  87 112 143 185 231 278 331
#     4  11  23  37  55  81 113 150 189 228 274 329
#     4  10  22  38  56  80 113 152 188 226 275 329
#     4  10  21  38  59  83 112 146 186 233 280 327
#
# _framework density 19.753086
#
# number of rings (size 3 to 8) (size 9 to 14) (size 15 to 20)
#    0.000    2.000    0.000    3.000    0.000    7.333 
#    0.000    5.000    0.000    0.000    0.000    0.000 
#    0.000    0.000    0.000    0.000    0.000    0.000 
#
# Total GULP energy -268086.889865 kJ/mol
# GULP energy per Si atom -5585.143539 kJ/mol
# Density = 1.970813 g / cm^3
# Si number density = 19.753086 Si / 1000 Ang^3
#
#
#
# Elastic Constant Matrix: (Units=GPa)
#
#
# Indices 1 2 3 4 5 6 
#
# 1 45.7757 23.4998 10.7292 0.0000 0.0000 0.0000
# 2 23.4998 15.6611 12.3800 0.0000 0.0000 0.0000
# 3 10.7292 12.3800 17.0166 0.0000 0.0000 0.0000
# 4 0.0000 0.0000 0.0000 -7.8633 0.0000 0.0000
# 5 0.0000 0.0000 0.0000 0.0000 -13.9354 0.0000
# 6 0.0000 0.0000 0.0000 0.0000 0.0000 36.5417
#
#
#
# Elastic Compliance Matrix: (Units=1/GPa)
#
#
# Indices 1 2 3 4 5 6 
#
# 1 0.500776 -1.181065 0.543509 0.000000 0.000000 0.000000
# 2 -1.181065 2.935783 -1.391180 0.000000 0.000000 0.000000
# 3 0.543509 -1.391180 0.728196 0.000000 0.000000 0.000000
# 4 0.000000 0.000000 0.000000 -0.127173 0.000000 0.000000
# 5 0.000000 0.000000 0.000000 0.000000 -0.071760 0.000000
# 6 0.000000 0.000000 0.000000 0.000000 0.000000 0.027366
#
#
# Mechanical properties :
#
#
# Convention : Reuss Voigt Hill
#
# Bulk Modulus (GPa) = 9.32119 19.07459 14.19789
# Shear Modulus (GPa) = 0.61832 5.07157 2.84495
#
# Velocity S-wave (km/s) = 0.56009 1.60408 1.20141
# Velocity P-wave (km/s) = 2.26878 3.62053 3.02122
#
# Compressibility (1/GPa) = 0.10728245
#
# Stress axis : x y z
#
# Youngs Moduli (GPa) = 1.99690 0.34062 1.37326
#
# Poissons Ratio (x) = 0.40230 -0.74638
# Poissons Ratio (y) = 2.35847 1.91045
# Poissons Ratio (z) = -1.08533 0.47387
#
# Static dielectric constant tensor:
#      x y z
#    x 1.696700 0.000000 0.000000 
#    y 0.000000 1.653250 0.000000 
#    z 0.000000 0.000000 1.698310 
# 
# From -- ./inp_files/23771.got.cif
#   From: 2010.05.17/outbox.ucp.g08.bks.cvg/sg62_12_cif.got.tgz:23771.got - 2010.06.11 16:29:25.
