data_PCOD9467490
_publ_section_title
;
Structure prediction by ZEFSAII (Michael W. Deem and Ramdas Pophale) SiO2 
 PCOD9467490
Probable space group: P N M A
;
_chemical_formula_sum "Si O2"
_cell_formula_units_Z 48
_cell_length_a 27.524375
_cell_length_b 9.038622
_cell_length_c 9.582930
_cell_angle_alpha 90.000000
_cell_angle_beta 90.000000
_cell_angle_gamma 90.000000
_cell_volume 2384.064530
_symmetry_space_group_name_H-M "P N M A"
_symmetry_group_IT_number 62
_symmetry_cell_setting 'orthorhombic'
loop_
_space_group_symop_operation_xyz
x,y,z
1/2-x,-y,1/2+z
1/2+x,1/2-y,1/2-z
-x,1/2+y,-z
-x,-y,-z
1/2+x,y,1/2-z
1/2-x,1/2+y,1/2+z
x,1/2-y,z
loop_
_atom_site_type_symbol
_atom_site_label
_atom_site_fract_x
_atom_site_fract_y
_atom_site_fract_z
Si Si1 0.797318 0.426338 0.326032
Si Si2 0.607075 0.076115 0.703022
Si Si3 0.547253 0.075503 0.432745
Si Si4 0.393927 0.079272 0.801487
Si Si5 0.955413 0.079476 0.425748
Si Si6 0.704316 0.073891 0.130080
O O1 0.803224 0.250000 0.343789
O O2 0.844553 0.492424 0.249687
O O3 0.790830 0.499857 0.477801
O O4 0.750907 0.454007 0.227327
O O5 0.612179 0.250000 0.733761
O O6 0.591595 0.058900 0.542719
O O7 0.562939 0.008999 0.792563
O O8 0.538334 0.250000 0.412809
O O9 0.500000 0.000000 0.500000
O O10 0.565039 0.997840 0.292118
O O11 0.388269 0.250000 0.758293
O O12 0.343441 0.992903 0.796893
O O13 0.412003 0.077634 0.961225
O O14 0.966765 0.250000 0.392604
O O15 0.000000 0.000000 0.500000
O O16 0.698556 0.250000 0.113051
#
# Coordination Sequence:
#
# PCOD9467490 Si02
#       6
#     8   8   8   8   8   8
#     4  11  25  44  67  98 130 166 214 263 320 386
#     4  11  24  42  65  93 128 168 214 265 320 382
#     4  11  25  43  64  95 131 173 220 267 321 384
#     4  11  24  42  65  94 129 169 215 265 320 382
#     4  11  23  39  63  94 126 165 211 263 319 383
#     4  11  25  44  68  98 130 169 214 263 322 383
#
# _framework density 20.133682
#
# number of rings (size 3 to 8) (size 9 to 14) (size 15 to 20)
#    0.000    1.000    1.667    4.000    2.333   11.333 
#    0.000    0.000    0.000    0.000    0.000    0.000 
#    0.000    0.000    0.000    0.000    0.000    0.000 
#
# Total GULP energy -268626.499394 kJ/mol
# GULP energy per Si atom -5596.385404 kJ/mol
# Density = 2.008786 g / cm^3
# Si number density = 20.133682 Si / 1000 Ang^3
#
#
#
# Elastic Constant Matrix: (Units=GPa)
#
#
# Indices 1 2 3 4 5 6 
#
# 1 98.8614 47.9836 17.1278 0.0000 0.0000 0.0000
# 2 47.9836 113.1372 41.0679 0.0000 0.0000 0.0000
# 3 17.1278 41.0679 81.1048 0.0000 0.0000 0.0000
# 4 0.0000 0.0000 0.0000 30.6011 0.0000 0.0000
# 5 0.0000 0.0000 0.0000 0.0000 33.3679 0.0000
# 6 0.0000 0.0000 0.0000 0.0000 0.0000 36.7315
#
#
#
# Elastic Compliance Matrix: (Units=1/GPa)
#
#
# Indices 1 2 3 4 5 6 
#
# 1 0.012737 -0.005422 0.000056 0.000000 0.000000 0.000000
# 2 -0.005422 0.013138 -0.005507 0.000000 0.000000 0.000000
# 3 0.000056 -0.005507 0.015107 0.000000 0.000000 0.000000
# 4 0.000000 0.000000 0.000000 0.032679 0.000000 0.000000
# 5 0.000000 0.000000 0.000000 0.000000 0.029969 0.000000
# 6 0.000000 0.000000 0.000000 0.000000 0.000000 0.027225
#
#
# Mechanical properties :
#
#
# Convention : Reuss Voigt Hill
#
# Bulk Modulus (GPa) = 51.99162 56.16244 54.07703
# Shear Modulus (GPa) = 31.44407 32.60171 32.02289
#
# Velocity S-wave (km/s) = 3.95620 4.02837 3.99245
# Velocity P-wave (km/s) = 6.83725 7.04218 6.94047
#
# Compressibility (1/GPa) = 0.01923387
#
# Stress axis : x y z
#
# Youngs Moduli (GPa) = 78.50944 76.11725 66.19643
#
# Poissons Ratio (x) = 0.41274 -0.00369
# Poissons Ratio (y) = 0.42571 0.36456
# Poissons Ratio (z) = -0.00438 0.41919
#
# Static dielectric constant tensor:
#      x y z
#    x 1.700280 0.000000 0.000000 
#    y 0.000000 1.684390 0.000000 
#    z 0.000000 0.000000 1.703230 
# 
# From -- ./inp_files/10286.got.cif
#   From: 2010.05.17/outbox.cif.g08.bks.cpg/sg62_6_cif.got.tgz:10286.got - 2010.06.03 15:25:27.
