data_PCOD9467326
_publ_section_title
;
Structure prediction by ZEFSAII (Michael W. Deem and Ramdas Pophale) SiO2 
 PCOD9467326
Probable space group: P N M A
;
_chemical_formula_sum "Si O2"
_cell_formula_units_Z 56
_cell_length_a 14.114695
_cell_length_b 8.678092
_cell_length_c 30.289893
_cell_angle_alpha 90.000000
_cell_angle_beta 90.000000
_cell_angle_gamma 90.000000
_cell_volume 3710.167247
_symmetry_space_group_name_H-M "P N M A"
_symmetry_group_IT_number 62
_symmetry_cell_setting 'orthorhombic'
loop_
_space_group_symop_operation_xyz
x,y,z
1/2-x,-y,1/2+z
1/2+x,1/2-y,1/2-z
-x,1/2+y,-z
-x,-y,-z
1/2+x,y,1/2-z
1/2-x,1/2+y,1/2+z
x,1/2-y,z
loop_
_atom_site_type_symbol
_atom_site_label
_atom_site_fract_x
_atom_site_fract_y
_atom_site_fract_z
Si Si1 0.391600 0.564515 0.097077
Si Si2 0.714776 0.937029 0.181152
Si Si3 0.400224 0.936514 0.269519
Si Si4 0.393380 0.934394 0.999517
Si Si5 0.114597 0.935971 0.407659
Si Si6 0.298062 0.432973 0.183942
Si Si7 0.115359 0.563732 0.227864
O O1 0.386866 0.750000 0.101803
O O2 0.354138 0.523659 0.047964
O O3 0.503545 0.521840 0.098905
O O4 0.335166 0.488120 0.136679
O O5 0.714316 0.750000 0.179429
O O6 0.820678 0.985194 0.194990
O O7 0.674475 0.990940 0.134454
O O8 0.647614 0.979979 0.222374
O O9 0.398787 0.750000 0.267250
O O10 0.507243 0.984371 0.279825
O O11 0.365438 0.997666 0.222223
O O12 0.396950 0.750000 0.997191
O O13 0.500000 0.000000 0.000000
O O14 0.349926 0.999582 0.954525
O O15 0.117621 0.750000 0.409707
O O16 0.299804 0.250000 0.186789
O O17 0.192980 0.493906 0.195193
O O18 0.120969 0.750000 0.225015
#
# Coordination Sequence:
#
# PCOD9467326 Si02
#       7
#     8   8   8   8   8   8   8
#     4   9  17  29  43  59  84 119 152 176 205 255
#     4   8  14  25  43  66  86 109 144 177 208 249
#     4   9  17  31  49  65  85 117 153 182 209 251
#     4   9  17  28  42  61  85 113 144 176 212 255
#     4   9  16  27  44  65  90 116 141 174 213 255
#     4  11  21  29  42  66  92 115 142 180 224 262
#     4   9  17  31  48  62  83 117 153 183 208 247
#
# _framework density 15.093659000000001
#
# number of rings (size 3 to 8) (size 9 to 14) (size 15 to 20)
#    0.000    2.857    0.000    4.286    0.000    5.714 
#    0.000    2.857    0.000    0.000    0.000    1.000 
#    0.000    0.000    0.000    0.000    0.000    0.000 
#
# Total GULP energy -311885.541045 kJ/mol
# GULP energy per Si atom -5569.384662 kJ/mol
# Density = 1.505930 g / cm^3
# Si number density = 15.093659 Si / 1000 Ang^3
#
#
#
# Elastic Constant Matrix: (Units=GPa)
#
#
# Indices 1 2 3 4 5 6 
#
# 1 99.7350 24.9413 66.3592 0.0000 0.0000 0.0000
# 2 24.9413 18.7896 31.1122 0.0000 0.0000 0.0000
# 3 66.3592 31.1122 148.7170 0.0000 0.0000 0.0000
# 4 0.0000 0.0000 0.0000 23.1686 0.0000 0.0000
# 5 0.0000 0.0000 0.0000 0.0000 23.2540 0.0000
# 6 0.0000 0.0000 0.0000 0.0000 0.0000 9.6858
#
#
#
# Elastic Compliance Matrix: (Units=1/GPa)
#
#
# Indices 1 2 3 4 5 6 
#
# 1 0.016621 -0.014967 -0.004285 0.000000 0.000000 0.000000
# 2 -0.014967 0.094905 -0.013176 0.000000 0.000000 0.000000
# 3 -0.004285 -0.013176 0.011393 0.000000 0.000000 0.000000
# 4 0.000000 0.000000 0.000000 0.043162 0.000000 0.000000
# 5 0.000000 0.000000 0.000000 0.000000 0.043003 0.000000
# 6 0.000000 0.000000 0.000000 0.000000 0.000000 0.103244
#
#
# Mechanical properties :
#
#
# Convention : Reuss Voigt Hill
#
# Bulk Modulus (GPa) = 17.22290 56.89632 37.05961
# Shear Modulus (GPa) = 12.60915 20.87694 16.74305
#
# Velocity S-wave (km/s) = 2.89345 3.72312 3.33419
# Velocity P-wave (km/s) = 4.75376 7.50063 6.27924
#
# Compressibility (1/GPa) = 0.05806225
#
# Stress axis : x y z
#
# Youngs Moduli (GPa) = 60.16650 10.53686 87.77477
#
# Poissons Ratio (x) = 0.15770 0.37613
# Poissons Ratio (y) = 0.90049 1.15654
# Poissons Ratio (z) = 0.25783 0.13884
#
# Static dielectric constant tensor:
#      x y z
#    x 1.479080 0.000000 0.000000 
#    y 0.000000 1.509260 0.000000 
#    z 0.000000 0.000000 1.506900 
# 
# From -- ./inp_files/32650.got.cif
#   From: 2010.05.17/outbox.cif.g08.bks.cpg/sg62_17_cif.got.tgz:32650.got - 2010.06.03 15:25:27.
