data_PCOD9467606
_publ_section_title
;
Structure prediction by ZEFSAII (Michael W. Deem and Ramdas Pophale) SiO2 
 PCOD9467606
Probable space group: P N M A
;
_chemical_formula_sum "Si O2"
_cell_formula_units_Z 28
_cell_length_a 8.624131
_cell_length_b 16.351237
_cell_length_c 7.361743
_cell_angle_alpha 90.000000
_cell_angle_beta 90.000000
_cell_angle_gamma 90.000000
_cell_volume 1038.117734
_symmetry_space_group_name_H-M "P N M A"
_symmetry_group_IT_number 62
_symmetry_cell_setting 'orthorhombic'
loop_
_space_group_symop_operation_xyz
x,y,z
1/2-x,-y,1/2+z
1/2+x,1/2-y,1/2-z
-x,1/2+y,-z
-x,-y,-z
1/2+x,y,1/2-z
1/2-x,1/2+y,1/2+z
x,1/2-y,z
loop_
_atom_site_type_symbol
_atom_site_label
_atom_site_fract_x
_atom_site_fract_y
_atom_site_fract_z
Si Si1 0.861043 0.342045 0.655075
Si Si2 0.500000 0.500000 0.000000
Si Si3 0.207606 0.594629 0.947551
Si Si4 0.591140 0.340713 0.369125
O O1 0.922779 0.250000 0.636265
O O2 0.981839 0.406837 0.575951
O O3 0.830185 0.363024 0.863504
O O4 0.699300 0.344318 0.545050
O O5 0.690453 0.485683 0.025954
O O6 0.035214 0.586030 0.858061
O O7 0.297005 0.648338 0.800658
O O8 0.517949 0.250000 0.361555
#
# Coordination Sequence:
#
# PCOD9467606 Si02
#       4
#     8   4   8   8
#     4  11  27  53  82 120 169 223 282 348 430 516
#     4  12  30  48  82 122 166 214 282 346 418 508
#     4  12  27  48  80 119 166 219 275 352 427 506
#     4  11  25  47  81 116 156 214 281 347 419 509
#
# _framework density 26.971895
#
# number of rings (size 3 to 8) (size 9 to 14) (size 15 to 20)
#    0.000    0.571    0.000    6.000    8.000    9.143 
#    0.000    0.000    0.000    0.000    0.000    0.000 
#    0.000    0.000    0.000    0.000    0.000    0.000 
#
# Total GULP energy -156329.479854 kJ/mol
# GULP energy per Si atom -5583.195709 kJ/mol
# Density = 2.691051 g / cm^3
# Si number density = 26.971895 Si / 1000 Ang^3
#
#
#
# Elastic Constant Matrix: (Units=GPa)
#
#
# Indices 1 2 3 4 5 6 
#
# 1 118.1625 40.8489 38.0647 0.0000 0.0000 0.0000
# 2 40.8489 159.4103 9.1040 0.0000 0.0000 0.0000
# 3 38.0647 9.1040 127.3314 0.0000 0.0000 0.0000
# 4 0.0000 0.0000 0.0000 -9.9938 0.0000 0.0000
# 5 0.0000 0.0000 0.0000 0.0000 30.6997 0.0000
# 6 0.0000 0.0000 0.0000 0.0000 0.0000 59.1618
#
#
#
# Elastic Compliance Matrix: (Units=1/GPa)
#
#
# Indices 1 2 3 4 5 6 
#
# 1 0.010243 -0.002460 -0.002886 0.000000 0.000000 0.000000
# 2 -0.002460 0.006890 0.000243 0.000000 0.000000 0.000000
# 3 -0.002886 0.000243 0.008699 0.000000 0.000000 0.000000
# 4 0.000000 0.000000 0.000000 -0.100062 0.000000 0.000000
# 5 0.000000 0.000000 0.000000 0.000000 0.032574 0.000000
# 6 0.000000 0.000000 0.000000 0.000000 0.000000 0.016903
#
#
# Mechanical properties :
#
#
# Convention : Reuss Voigt Hill
#
# Bulk Modulus (GPa) = 64.00031 64.54882 64.27457
# Shear Modulus (GPa) = -535.41299 37.09933 -249.15683
#
# Velocity S-wave (km/s) = -14.10456 3.71277 -9.62169
# Velocity P-wave (km/s) = 15.53935 6.50872 9.97768
#
# Compressibility (1/GPa) = 0.01562493
#
# Stress axis : x y z
#
# Youngs Moduli (GPa) = 97.62682 145.14593 114.95616
#
# Poissons Ratio (x) = 0.35705 0.33179
# Poissons Ratio (y) = 0.24016 -0.02791
# Poissons Ratio (z) = 0.28177 -0.03524
#
# Static dielectric constant tensor:
#      x y z
#    x 2.044990 0.000000 0.000000 
#    y 0.000000 2.274000 0.000000 
#    z 0.000000 0.000000 2.225430 
# 
# From -- ./inp_files/4073.got.cif
#   From: 2010.05.17/outbox.cif.g08.bks.cpg/sg62_3_cif.got.tgz:4073.got - 2010.06.03 15:25:27.
