data_PCOD9467797
_publ_section_title
;
Structure prediction by ZEFSAII (Michael W. Deem and Ramdas Pophale) SiO2 
 PCOD9467797
Probable space group: P N M A
;
_chemical_formula_sum "Si O2"
_cell_formula_units_Z 48
_cell_length_a 9.000000
_cell_length_b 15.000000
_cell_length_c 18.000000
_cell_angle_alpha 90.000000
_cell_angle_beta 90.000000
_cell_angle_gamma 90.000000
_cell_volume 2430.000000
_symmetry_space_group_name_H-M "P N M A"
_symmetry_group_IT_number 62
_symmetry_cell_setting 'orthorhombic'
loop_
_space_group_symop_operation_xyz
x,y,z
1/2-x,-y,1/2+z
1/2+x,1/2-y,1/2-z
-x,1/2+y,-z
-x,-y,-z
1/2+x,y,1/2-z
1/2-x,1/2+y,1/2+z
x,1/2-y,z
loop_
_atom_site_type_symbol
_atom_site_label
_atom_site_fract_x
_atom_site_fract_y
_atom_site_fract_z
Si Si1 0.222730 0.542365 0.331656
Si Si2 0.724007 0.353407 0.356371
Si Si3 0.023882 0.856262 0.213510
Si Si4 0.383451 0.355679 0.297732
Si Si5 0.908841 0.357328 0.956074
Si Si6 0.719987 0.458912 0.504705
O O1 0.361778 0.604676 0.306584
O O2 0.095613 0.578510 0.275687
O O3 0.282195 0.439104 0.326327
O O4 0.187411 0.555483 0.419368
O O5 0.720502 0.250000 0.381267
O O6 0.555800 0.371822 0.323231
O O7 0.844938 0.359966 0.290192
O O8 0.763950 0.417188 0.425158
O O9 0.019445 0.750000 0.234562
O O10 0.108102 0.861310 0.133616
O O11 0.349833 0.250000 0.318696
O O12 0.899439 0.250000 0.976667
O O13 0.068774 0.401538 0.977264
O O14 0.804862 0.434193 0.992727
#
# Coordination Sequence:
#
# PCOD9467797 Si02
#       6
#     8   8   8   8   8   8
#     4  11  21  35  57  82 110 142 180 225 269 318
#     4  10  20  35  56  81 109 140 179 223 267 318
#     4  10  21  36  55  80 109 144 185 223 264 320
#     4  10  20  34  55  82 111 145 181 220 267 322
#     4   9  17  30  49  74 104 136 174 220 263 308
#     4  10  19  31  52  80 105 135 177 223 266 311
#
# _framework density 19.753086
#
# number of rings (size 3 to 8) (size 9 to 14) (size 15 to 20)
#    0.000    2.000    0.000    6.000    0.000    4.000 
#    0.000    0.000    0.000   13.000    0.000   25.667 
#    0.000    0.000    0.000    0.000    0.000    0.000 
#
# Total GULP energy -267538.106226 kJ/mol
# GULP energy per Si atom -5573.710546 kJ/mol
# Density = 1.970813 g / cm^3
# Si number density = 19.753086 Si / 1000 Ang^3
#
#
#
# Elastic Constant Matrix: (Units=GPa)
#
#
# Indices 1 2 3 4 5 6 
#
# 1 12.5721 -1.3615 11.1457 0.0000 0.0000 0.0000
# 2 -1.3615 148.0238 37.3004 0.0000 0.0000 0.0000
# 3 11.1457 37.3004 120.9811 0.0000 0.0000 0.0000
# 4 0.0000 0.0000 0.0000 38.8528 0.0000 0.0000
# 5 0.0000 0.0000 0.0000 0.0000 28.1269 0.0000
# 6 0.0000 0.0000 0.0000 0.0000 0.0000 24.3384
#
#
#
# Elastic Compliance Matrix: (Units=1/GPa)
#
#
# Indices 1 2 3 4 5 6 
#
# 1 0.087899 0.003089 -0.009050 0.000000 0.000000 0.000000
# 2 0.003089 0.007433 -0.002576 0.000000 0.000000 0.000000
# 3 -0.009050 -0.002576 0.009894 0.000000 0.000000 0.000000
# 4 0.000000 0.000000 0.000000 0.025738 0.000000 0.000000
# 5 0.000000 0.000000 0.000000 0.000000 0.035553 0.000000
# 6 0.000000 0.000000 0.000000 0.000000 0.000000 0.041087
#
#
# Mechanical properties :
#
#
# Convention : Reuss Voigt Hill
#
# Bulk Modulus (GPa) = 11.34417 41.74958 26.54688
# Shear Modulus (GPa) = 19.68009 33.89647 26.78828
#
# Velocity S-wave (km/s) = 3.15985 4.14697 3.68660
# Velocity P-wave (km/s) = 4.36673 6.64164 5.62049
#
# Compressibility (1/GPa) = 0.08815100
#
# Stress axis : x y z
#
# Youngs Moduli (GPa) = 11.37668 134.52961 101.07256
#
# Poissons Ratio (x) = -0.41557 0.91474
# Poissons Ratio (y) = -0.03514 0.26040
# Poissons Ratio (z) = 0.10296 0.34660
#
# Static dielectric constant tensor:
#      x y z
#    x 1.705100 0.000000 0.000000 
#    y 0.000000 1.711890 0.000000 
#    z 0.000000 0.000000 1.731200 
# 
# From -- ./inp_files/18010.got.cif
#   From: 2010.05.17/outbox.ucp.g08.bks.cvg/sg62_10_cif.got.tgz:18010.got - 2010.06.11 16:29:25.
