data_PCOD9467447
_publ_section_title
;
Structure prediction by ZEFSAII (Michael W. Deem and Ramdas Pophale) SiO2 
 PCOD9467447
Probable space group: P N M A
;
_chemical_formula_sum "Si O2"
_cell_formula_units_Z 48
_cell_length_a 8.674547
_cell_length_b 15.706681
_cell_length_c 18.446510
_cell_angle_alpha 90.000000
_cell_angle_beta 90.000000
_cell_angle_gamma 90.000000
_cell_volume 2513.306413
_symmetry_space_group_name_H-M "P N M A"
_symmetry_group_IT_number 62
_symmetry_cell_setting 'orthorhombic'
loop_
_space_group_symop_operation_xyz
x,y,z
1/2-x,-y,1/2+z
1/2+x,1/2-y,1/2-z
-x,1/2+y,-z
-x,-y,-z
1/2+x,y,1/2-z
1/2-x,1/2+y,1/2+z
x,1/2-y,z
loop_
_atom_site_type_symbol
_atom_site_label
_atom_site_fract_x
_atom_site_fract_y
_atom_site_fract_z
Si Si1 0.155497 0.468402 0.960583
Si Si2 0.291849 0.044837 0.722152
Si Si3 0.334440 0.078164 0.097635
Si Si4 0.648215 0.750000 0.704739
Si Si5 0.920734 0.851630 0.166421
Si Si6 0.700101 0.250000 0.352956
Si Si7 0.327993 0.915334 0.848405
O O1 0.129557 0.382893 0.913580
O O2 0.210991 0.535433 0.900771
O O3 0.289167 0.459135 0.019991
O O4 0.000000 0.500000 0.000000
O O5 0.417219 0.103220 0.683086
O O6 0.189218 0.106566 0.772339
O O7 0.207658 0.989827 0.660292
O O8 0.360227 0.974898 0.778247
O O9 0.229395 0.162466 0.105298
O O10 0.512576 0.100870 0.110078
O O11 0.669207 0.750000 0.790749
O O12 0.470609 0.750000 0.681172
O O13 0.739899 0.668151 0.676991
O O14 0.924868 0.750000 0.171858
#
# Coordination Sequence:
#
# PCOD9467447 Si02
#       7
#     8   8   8   4   8   4   8
#     4  11  24  42  66  94 132 176 214 262 334 397
#     4  11  22  40  69  92 124 167 219 267 324 380
#     4  12  23  42  64  96 132 173 212 268 331 391
#     4  12  24  40  62 104 126 167 214 273 322 392
#     4  11  24  43  66  95 124 169 219 275 317 386
#     4  12  26  36  68  96 136 163 218 267 328 396
#     4  11  24  42  66  94 131 171 220 267 323 392
#
# _framework density 19.098348999999999
#
# number of rings (size 3 to 8) (size 9 to 14) (size 15 to 20)
#    0.000    0.667    5.000    3.500    3.500    0.000 
#    1.500    0.000    0.000    0.000    0.000    0.000 
#    0.000    0.000    0.000    0.000    0.000    0.000 
#
# Total GULP energy -268256.468837 kJ/mol
# GULP energy per Si atom -5588.676434 kJ/mol
# Density = 1.905488 g / cm^3
# Si number density = 19.098349 Si / 1000 Ang^3
#
#
#
# Elastic Constant Matrix: (Units=GPa)
#
#
# Indices 1 2 3 4 5 6 
#
# 1 61.8417 13.5467 -2.6600 0.0000 0.0000 0.0000
# 2 13.5467 125.8605 28.7120 0.0000 0.0000 0.0000
# 3 -2.6600 28.7120 86.4467 0.0000 0.0000 0.0000
# 4 0.0000 0.0000 0.0000 50.3832 0.0000 0.0000
# 5 0.0000 0.0000 0.0000 0.0000 28.5008 0.0000
# 6 0.0000 0.0000 0.0000 0.0000 0.0000 62.6061
#
#
#
# Elastic Compliance Matrix: (Units=1/GPa)
#
#
# Indices 1 2 3 4 5 6 
#
# 1 0.016675 -0.002069 0.001200 0.000000 0.000000 0.000000
# 2 -0.002069 0.008853 -0.003004 0.000000 0.000000 0.000000
# 3 0.001200 -0.003004 0.012603 0.000000 0.000000 0.000000
# 4 0.000000 0.000000 0.000000 0.019848 0.000000 0.000000
# 5 0.000000 0.000000 0.000000 0.000000 0.035087 0.000000
# 6 0.000000 0.000000 0.000000 0.000000 0.000000 0.015973
#
#
# Mechanical properties :
#
#
# Convention : Reuss Voigt Hill
#
# Bulk Modulus (GPa) = 32.91016 39.26070 36.08543
# Shear Modulus (GPa) = 39.39736 43.93470 41.66603
#
# Velocity S-wave (km/s) = 4.54681 4.80150 4.67589
# Velocity P-wave (km/s) = 6.69582 7.16526 6.93451
#
# Compressibility (1/GPa) = 0.03038575
#
# Stress axis : x y z
#
# Youngs Moduli (GPa) = 59.96976 112.95268 79.34915
#
# Poissons Ratio (x) = 0.23365 -0.09523
# Poissons Ratio (y) = 0.12405 0.23838
# Poissons Ratio (z) = -0.07197 0.33932
#
# Static dielectric constant tensor:
#      x y z
#    x 1.669250 0.000000 0.000000 
#    y 0.000000 1.607900 0.000000 
#    z 0.000000 0.000000 1.639230 
# 
# From -- ./inp_files/22233.got.cif
#   From: 2010.05.17/outbox.cif.g08.bks.cpg/sg62_12_cif.got.tgz:22233.got - 2010.06.03 15:25:27.
