data_PCOD9467262
_publ_section_title
;
Structure prediction by ZEFSAII (Michael W. Deem and Ramdas Pophale) SiO2 
 PCOD9467262
Probable space group: P N M A
;
_chemical_formula_sum "Si O2"
_cell_formula_units_Z 40
_cell_length_a 13.232803
_cell_length_b 7.611893
_cell_length_c 14.804059
_cell_angle_alpha 90.000000
_cell_angle_beta 90.000000
_cell_angle_gamma 90.000000
_cell_volume 1491.163721
_symmetry_space_group_name_H-M "P N M A"
_symmetry_group_IT_number 62
_symmetry_cell_setting 'orthorhombic'
loop_
_space_group_symop_operation_xyz
x,y,z
1/2-x,-y,1/2+z
1/2+x,1/2-y,1/2-z
-x,1/2+y,-z
-x,-y,-z
1/2+x,y,1/2-z
1/2-x,1/2+y,1/2+z
x,1/2-y,z
loop_
_atom_site_type_symbol
_atom_site_label
_atom_site_fract_x
_atom_site_fract_y
_atom_site_fract_z
Si Si1 0.198352 0.040778 0.240088
Si Si2 0.694471 0.953446 0.929155
Si Si3 0.529476 0.959162 0.729903
Si Si4 0.424583 0.961020 0.900562
Si Si5 0.891582 0.039409 0.045742
O O1 0.217040 0.250000 0.249547
O O2 0.086716 0.021820 0.195656
O O3 0.173064 0.976956 0.340773
O O4 0.277682 0.965630 0.169058
O O5 0.678095 0.750000 0.911168
O O6 0.603486 0.000905 0.996913
O O7 0.797404 0.972974 0.987635
O O8 0.548983 0.750000 0.735901
O O9 0.513669 0.026003 0.832940
O O10 0.599741 0.027566 0.650007
O O11 0.429347 0.750000 0.895523
O O12 0.879580 0.250000 0.049881
O O13 0.000000 0.000000 0.000000
#
# Coordination Sequence:
#
# PCOD9467262 Si02
#       5
#     8   8   8   8   8
#     4   7  13  27  43  57  85 118 142 170 210 257
#     4  11  19  28  43  68  94 118 144 179 221 264
#     4   7  13  27  43  56  82 117 144 169 206 256
#     4   8  15  30  45  59  81 116 153 179 204 255
#     4  11  18  27  43  65  90 119 146 176 217 267
#
# _framework density 26.824687999999998
#
# number of rings (size 3 to 8) (size 9 to 14) (size 15 to 20)
#    1.200    2.000    2.000    1.200    0.000    0.000 
#    0.000    6.000    0.000    0.000    0.000    1.400 
#    0.000    0.000    0.000    0.000    0.000    0.000 
#
# Total GULP energy -222968.001653 kJ/mol
# GULP energy per Si atom -5574.200041 kJ/mol
# Density = 2.676363 g / cm^3
# Si number density = 26.824688 Si / 1000 Ang^3
#
#
#
# Elastic Constant Matrix: (Units=GPa)
#
#
# Indices 1 2 3 4 5 6 
#
# 1 130.7152 -8.3231 10.7925 0.0000 0.0000 0.0000
# 2 -8.3231 52.4217 -5.7687 0.0000 0.0000 0.0000
# 3 10.7925 -5.7687 208.7417 0.0000 0.0000 0.0000
# 4 0.0000 0.0000 0.0000 59.1381 0.0000 0.0000
# 5 0.0000 0.0000 0.0000 0.0000 52.4612 0.0000
# 6 0.0000 0.0000 0.0000 0.0000 0.0000 -26.1673
#
#
#
# Elastic Compliance Matrix: (Units=1/GPa)
#
#
# Indices 1 2 3 4 5 6 
#
# 1 0.007756 0.001191 -0.000368 0.000000 0.000000 0.000000
# 2 0.001191 0.019317 0.000472 0.000000 0.000000 0.000000
# 3 -0.000368 0.000472 0.004823 0.000000 0.000000 0.000000
# 4 0.000000 0.000000 0.000000 0.016910 0.000000 0.000000
# 5 0.000000 0.000000 0.000000 0.000000 0.019062 0.000000
# 6 0.000000 0.000000 0.000000 0.000000 0.000000 -0.038216
#
#
# Mechanical properties :
#
#
# Convention : Reuss Voigt Hill
#
# Bulk Modulus (GPa) = 28.99680 42.80889 35.90284
# Shear Modulus (GPa) = 129.67756 43.43159 86.55458
#
# Velocity S-wave (km/s) = 6.96043 4.02816 5.68655
# Velocity P-wave (km/s) = 8.68504 6.13418 7.51858
#
# Compressibility (1/GPa) = 0.03448657
#
# Stress axis : x y z
#
# Youngs Moduli (GPa) = 128.92502 51.76749 207.35297
#
# Poissons Ratio (x) = -0.06165 0.07633
# Poissons Ratio (y) = -0.15355 -0.09793
# Poissons Ratio (z) = 0.04746 -0.02445
#
# Static dielectric constant tensor:
#      x y z
#    x 2.254850 0.000000 0.000000 
#    y 0.000000 2.020130 0.000000 
#    z 0.000000 0.000000 2.180970 
# 
# From -- ./inp_files/24164.got.cif
#   From: 2010.05.17/outbox.cif.g08.bks.cpg/sg62_13_cif.got.tgz:24164.got - 2010.06.03 15:25:27.
