data_PCOD9467949
_publ_section_title
;
Structure prediction by ZEFSAII (Michael W. Deem and Ramdas Pophale) SiO2 
 PCOD9467949
Probable space group: P N M A
;
_chemical_formula_sum "Si O2"
_cell_formula_units_Z 64
_cell_length_a 30.000000
_cell_length_b 9.000000
_cell_length_c 12.000000
_cell_angle_alpha 90.000000
_cell_angle_beta 90.000000
_cell_angle_gamma 90.000000
_cell_volume 3240.000000
_symmetry_space_group_name_H-M "P N M A"
_symmetry_group_IT_number 62
_symmetry_cell_setting 'orthorhombic'
loop_
_space_group_symop_operation_xyz
x,y,z
1/2-x,-y,1/2+z
1/2+x,1/2-y,1/2-z
-x,1/2+y,-z
-x,-y,-z
1/2+x,y,1/2-z
1/2-x,1/2+y,1/2+z
x,1/2-y,z
loop_
_atom_site_type_symbol
_atom_site_label
_atom_site_fract_x
_atom_site_fract_y
_atom_site_fract_z
Si Si1 0.885061 0.427520 0.430833
Si Si2 0.933912 0.426736 0.037027
Si Si3 0.946635 0.428592 0.793228
Si Si4 0.311994 0.578122 0.221448
Si Si5 0.780866 0.574942 0.810101
Si Si6 0.634251 0.427577 0.168476
Si Si7 0.967808 0.070684 0.279161
Si Si8 0.841118 0.579080 0.025413
O O1 0.883644 0.250000 0.446777
O O2 0.847735 0.477967 0.342714
O O3 0.875643 0.508797 0.546700
O O4 0.932614 0.466599 0.375269
O O5 0.939615 0.250000 0.039799
O O6 0.948699 0.481579 0.158607
O O7 0.882502 0.469260 0.022340
O O8 0.956076 0.479480 0.921166
O O9 0.945678 0.250000 0.789604
O O10 0.899984 0.495385 0.753391
O O11 0.984642 0.492809 0.713018
O O12 0.318820 0.750000 0.189098
O O13 0.262728 0.523705 0.193955
O O14 0.318887 0.566309 0.353925
O O15 0.768952 0.750000 0.802895
O O16 0.815756 0.541240 0.711229
O O17 0.807056 0.551953 0.925625
O O18 0.627961 0.250000 0.171806
O O19 0.972723 0.250000 0.277357
O O20 0.857599 0.750000 0.012649
#
# Coordination Sequence:
#
# PCOD9467949 Si02
#       8
#     8   8   8   8   8   8   8   8
#     4  11  24  43  65  88 122 163 205 253 305 361
#     4  10  20  37  61  92 125 158 200 247 304 362
#     4  11  23  38  62  94 124 159 202 252 307 365
#     4  11  24  40  63  95 125 159 203 251 303 360
#     4  10  23  42  63  90 123 163 203 248 305 360
#     4  11  24  43  65  89 122 162 207 256 307 364
#     4  10  22  40  62  89 122 162 202 247 304 365
#     4  10  21  39  63  91 123 159 200 248 304 357
#
# _framework density 19.753086
#
# number of rings (size 3 to 8) (size 9 to 14) (size 15 to 20)
#    0.000    1.500    2.500    1.875    1.750    4.500 
#    0.000    0.000    0.000    0.000    0.000    0.000 
#    0.000    0.000    0.000    0.000    0.000    0.000 
#
# Total GULP energy -357564.624392 kJ/mol
# GULP energy per Si atom -5586.947256 kJ/mol
# Density = 1.970813 g / cm^3
# Si number density = 19.753086 Si / 1000 Ang^3
#
#
#
# Elastic Constant Matrix: (Units=GPa)
#
#
# Indices 1 2 3 4 5 6 
#
# 1 28.9832 -3.6835 -25.3166 0.0000 0.0000 0.0000
# 2 -3.6835 7.2395 -2.1423 0.0000 0.0000 0.0000
# 3 -25.3166 -2.1423 43.7598 0.0000 0.0000 0.0000
# 4 0.0000 0.0000 0.0000 30.8614 0.0000 0.0000
# 5 0.0000 0.0000 0.0000 0.0000 8.9122 0.0000
# 6 0.0000 0.0000 0.0000 0.0000 0.0000 31.2350
#
#
#
# Elastic Compliance Matrix: (Units=1/GPa)
#
#
# Indices 1 2 3 4 5 6 
#
# 1 0.091409 0.063072 0.055971 0.000000 0.000000 0.000000
# 2 0.063072 0.183681 0.045482 0.000000 0.000000 0.000000
# 3 0.055971 0.045482 0.057460 0.000000 0.000000 0.000000
# 4 0.000000 0.000000 0.000000 0.032403 0.000000 0.000000
# 5 0.000000 0.000000 0.000000 0.000000 0.112206 0.000000
# 6 0.000000 0.000000 0.000000 0.000000 0.000000 0.032015
#
#
# Mechanical properties :
#
#
# Convention : Reuss Voigt Hill
#
# Bulk Modulus (GPa) = 1.51148 1.96641 1.73895
# Shear Modulus (GPa) = 12.47949 21.61005 17.04477
#
# Velocity S-wave (km/s) = 2.51624 3.31117 2.94069
# Velocity P-wave (km/s) = 3.03460 3.95172 3.52313
#
# Compressibility (1/GPa) = 0.66160130
#
# Stress axis : x y z
#
# Youngs Moduli (GPa) = 10.93982 5.44421 17.40341
#
# Poissons Ratio (x) = -0.34338 -0.97409
# Poissons Ratio (y) = -0.69000 -0.79154
# Poissons Ratio (z) = -0.61232 -0.24761
#
# Static dielectric constant tensor:
#      x y z
#    x 1.677660 0.000000 0.000000 
#    y 0.000000 1.665050 0.000000 
#    z 0.000000 0.000000 1.701280 
# 
# From -- ./inp_files/15888.got.cif
#   From: 2010.05.17/outbox.ucp.g08.bks.cvg/sg62_8_cif.got.tgz:15888.got - 2010.06.11 16:29:25.
