data_PCOD9467354
_publ_section_title
;
Structure prediction by ZEFSAII (Michael W. Deem and Ramdas Pophale) SiO2 
 PCOD9467354
Probable space group: P N M A
;
_chemical_formula_sum "Si O2"
_cell_formula_units_Z 48
_cell_length_a 9.658965
_cell_length_b 7.516308
_cell_length_c 29.535716
_cell_angle_alpha 90.000000
_cell_angle_beta 90.000000
_cell_angle_gamma 90.000000
_cell_volume 2144.285772
_symmetry_space_group_name_H-M "P N M A"
_symmetry_group_IT_number 62
_symmetry_cell_setting 'orthorhombic'
loop_
_space_group_symop_operation_xyz
x,y,z
1/2-x,-y,1/2+z
1/2+x,1/2-y,1/2-z
-x,1/2+y,-z
-x,-y,-z
1/2+x,y,1/2-z
1/2-x,1/2+y,1/2+z
x,1/2-y,z
loop_
_atom_site_type_symbol
_atom_site_label
_atom_site_fract_x
_atom_site_fract_y
_atom_site_fract_z
Si Si1 0.809029 0.966832 0.115793
Si Si2 0.843832 0.539314 0.012849
Si Si3 0.508193 0.467217 0.696385
Si Si4 0.802777 0.532548 0.279620
Si Si5 0.997160 0.032201 0.639359
Si Si6 0.590080 0.450999 0.956611
O O1 0.811651 0.750000 0.114205
O O2 0.812284 0.028177 0.063641
O O3 0.664202 0.018285 0.139144
O O4 0.938010 0.023003 0.146825
O O5 0.818539 0.750000 0.013310
O O6 0.745496 0.463931 0.974005
O O7 0.000000 0.500000 0.000000
O O8 0.504682 0.250000 0.696348
O O9 0.624700 0.520922 0.732782
O O10 0.354677 0.526234 0.710956
O O11 0.798568 0.750000 0.279263
O O12 0.906118 0.474266 0.319585
O O13 0.999567 0.250000 0.642137
O O14 0.058117 0.963289 0.591517
O O15 0.550330 0.250000 0.947918
O O16 0.500000 0.500000 0.000000
#
# Coordination Sequence:
#
# PCOD9467354 Si02
#       6
#     8   8   8   8   8   8
#     4   9  17  30  46  67  99 136 173 217 270 321
#     4  11  23  38  55  79 111 148 187 230 277 326
#     4   9  16  25  40  63  95 133 171 213 265 324
#     4   9  16  25  40  64  95 132 171 212 265 325
#     4   9  17  29  46  69  99 135 173 216 269 322
#     4  11  21  36  57  81 111 148 187 228 272 325
#
# _framework density 22.385075000000001
#
# number of rings (size 3 to 8) (size 9 to 14) (size 15 to 20)
#    0.000    2.333    1.667    2.000    2.333    4.000 
#    0.000    0.000    0.000    0.000    0.000    0.000 
#    0.000    8.000    0.000    0.000    0.000    0.000 
#
# Total GULP energy -268025.400050 kJ/mol
# GULP energy per Si atom -5583.862501 kJ/mol
# Density = 2.233413 g / cm^3
# Si number density = 22.385075 Si / 1000 Ang^3
#
#
#
# Elastic Constant Matrix: (Units=GPa)
#
#
# Indices 1 2 3 4 5 6 
#
# 1 107.6696 -16.9051 18.5232 0.0000 0.0000 0.0000
# 2 -16.9051 51.6016 -0.8968 0.0000 0.0000 0.0000
# 3 18.5232 -0.8968 87.3899 0.0000 0.0000 0.0000
# 4 0.0000 0.0000 0.0000 5.3512 0.0000 0.0000
# 5 0.0000 0.0000 0.0000 0.0000 41.5728 0.0000
# 6 0.0000 0.0000 0.0000 0.0000 0.0000 7.0288
#
#
#
# Elastic Compliance Matrix: (Units=1/GPa)
#
#
# Indices 1 2 3 4 5 6 
#
# 1 0.010170 0.003295 -0.002122 0.000000 0.000000 0.000000
# 2 0.003295 0.020450 -0.000489 0.000000 0.000000 0.000000
# 3 -0.002122 -0.000489 0.011888 0.000000 0.000000 0.000000
# 4 0.000000 0.000000 0.000000 0.186875 0.000000 0.000000
# 5 0.000000 0.000000 0.000000 0.000000 0.024054 0.000000
# 6 0.000000 0.000000 0.000000 0.000000 0.000000 0.142272
#
#
# Mechanical properties :
#
#
# Convention : Reuss Voigt Hill
#
# Bulk Modulus (GPa) = 22.79097 27.56708 25.17903
# Shear Modulus (GPa) = 12.22596 27.18653 19.70625
#
# Velocity S-wave (km/s) = 2.33955 3.48874 2.97025
# Velocity P-wave (km/s) = 4.18347 5.34510 4.79956
#
# Compressibility (1/GPa) = 0.04387703
#
# Stress axis : x y z
#
# Youngs Moduli (GPa) = 98.32800 48.89927 84.12059
#
# Poissons Ratio (x) = -0.16112 0.17849
# Poissons Ratio (y) = -0.32398 0.04110
# Poissons Ratio (z) = 0.20864 0.02389
#
# Static dielectric constant tensor:
#      x y z
#    x 1.822410 0.000000 0.000000 
#    y 0.000000 3.610600 0.000000 
#    z 0.000000 0.000000 1.922340 
# 
# From -- ./inp_files/31974.got.cif
#   From: 2010.05.17/outbox.cif.g08.bks.cpg/sg62_16_cif.got.tgz:31974.got - 2010.06.03 15:25:27.
