data_PCOD9467719
_publ_section_title
;
Structure prediction by ZEFSAII (Michael W. Deem and Ramdas Pophale) SiO2 
 PCOD9467719
Probable space group: P N M A
;
_chemical_formula_sum "Si O2"
_cell_formula_units_Z 48
_cell_length_a 8.079411
_cell_length_b 7.259732
_cell_length_c 29.196996
_cell_angle_alpha 90.000000
_cell_angle_beta 90.000000
_cell_angle_gamma 90.000000
_cell_volume 1712.531073
_symmetry_space_group_name_H-M "P N M A"
_symmetry_group_IT_number 62
_symmetry_cell_setting 'orthorhombic'
loop_
_space_group_symop_operation_xyz
x,y,z
1/2-x,-y,1/2+z
1/2+x,1/2-y,1/2-z
-x,1/2+y,-z
-x,-y,-z
1/2+x,y,1/2-z
1/2-x,1/2+y,1/2+z
x,1/2-y,z
loop_
_atom_site_type_symbol
_atom_site_label
_atom_site_fract_x
_atom_site_fract_y
_atom_site_fract_z
Si Si1 0.653111 0.039647 0.153580
Si Si2 0.539584 0.525326 0.592900
Si Si3 0.369029 0.973537 0.678867
Si Si4 0.555622 0.030000 0.929955
Si Si5 0.551760 0.975123 0.764905
Si Si6 0.725670 0.533565 0.508249
O O1 0.702803 0.250000 0.162501
O O2 0.800193 0.963694 0.122750
O O3 0.598374 0.963702 0.202170
O O4 0.491645 0.041059 0.120223
O O5 0.539718 0.750000 0.590581
O O6 0.392950 0.464498 0.626658
O O7 0.579563 0.460737 0.541390
O O8 0.364121 0.750000 0.677181
O O9 0.520472 0.026263 0.712564
O O10 0.212110 0.036292 0.707629
O O11 0.567028 0.250000 0.927243
O O12 0.392613 0.984715 0.960600
O O13 0.713736 0.957862 0.959066
O O14 0.553975 0.750000 0.765437
O O15 0.299708 0.250000 0.497569
#
# Coordination Sequence:
#
# PCOD9467719 Si02
#       6
#     8   8   8   8   8   8
#     4   9  16  26  39  58  85 112 136 166 205 243
#     4   8  13  22  37  56  80 107 132 162 201 242
#     4   9  15  23  37  59  84 107 132 165 207 250
#     4   9  15  23  38  60  83 109 142 174 202 237
#     4   9  16  24  36  57  84 108 131 165 207 247
#     4   8  14  24  38  59  86 112 137 169 208 244
#
# _framework density 28.028690000000001
#
# number of rings (size 3 to 8) (size 9 to 14) (size 15 to 20)
#    0.000    3.333    0.000    2.500    0.000    4.667 
#    0.000    0.000    0.000    1.000    0.000   15.167 
#    0.000    0.000    0.000    0.000    0.000    1.500 
#
# Total GULP energy -268389.592624 kJ/mol
# GULP energy per Si atom -5591.449846 kJ/mol
# Density = 2.796490 g / cm^3
# Si number density = 28.028690 Si / 1000 Ang^3
#
#
#
# Elastic Constant Matrix: (Units=GPa)
#
#
# Indices 1 2 3 4 5 6 
#
# 1 87.7287 7.3025 34.7559 0.0000 0.0000 0.0000
# 2 7.3025 147.2041 0.1653 0.0000 0.0000 0.0000
# 3 34.7559 0.1653 225.6274 0.0000 0.0000 0.0000
# 4 0.0000 0.0000 0.0000 -0.0808 0.0000 0.0000
# 5 0.0000 0.0000 0.0000 0.0000 62.5814 0.0000
# 6 0.0000 0.0000 0.0000 0.0000 0.0000 1.5656
#
#
#
# Elastic Compliance Matrix: (Units=1/GPa)
#
#
# Indices 1 2 3 4 5 6 
#
# 1 0.012193 -0.000603 -0.001878 0.000000 0.000000 0.000000
# 2 -0.000603 0.006823 0.000088 0.000000 0.000000 0.000000
# 3 -0.001878 0.000088 0.004721 0.000000 0.000000 0.000000
# 4 0.000000 0.000000 0.000000-12.374476 0.000000 0.000000
# 5 0.000000 0.000000 0.000000 0.000000 0.015979 0.000000
# 6 0.000000 0.000000 0.000000 0.000000 0.000000 0.638715
#
#
# Mechanical properties :
#
#
# Convention : Reuss Voigt Hill
#
# Bulk Modulus (GPa) = 52.76515 60.55640 56.66077
# Shear Modulus (GPa) = -0.42790 40.70235 20.13723
#
# Velocity S-wave (km/s) = -0.39115 3.81487 2.68330
# Velocity P-wave (km/s) = 4.31999 6.40752 5.46437
#
# Compressibility (1/GPa) = 0.01895190
#
# Stress axis : x y z
#
# Youngs Moduli (GPa) = 82.01516 146.56109 211.80724
#
# Poissons Ratio (x) = 0.08834 0.39772
# Poissons Ratio (y) = 0.04944 -0.01861
# Poissons Ratio (z) = 0.15400 -0.01288
#
# Static dielectric constant tensor:
#      x y z
#    x 2.314290 0.000000 0.000000 
#    y 0.000000 1.997170 0.000000 
#    z 0.000000 0.000000 2.116660 
# 
# From -- ./inp_files/31967.got.cif
#   From: 2010.05.17/outbox.cif.g08.bks.cpg/sg62_16_cif.got.tgz:31967.got - 2010.06.03 15:25:27.
