data_PCOD9467977
_publ_section_title
;
Structure prediction by ZEFSAII (Michael W. Deem and Ramdas Pophale) SiO2 
 PCOD9467977
Probable space group: P N M A
;
_chemical_formula_sum "Si O2"
_cell_formula_units_Z 64
_cell_length_a 12.000000
_cell_length_b 9.000000
_cell_length_c 30.000000
_cell_angle_alpha 90.000000
_cell_angle_beta 90.000000
_cell_angle_gamma 90.000000
_cell_volume 3240.000000
_symmetry_space_group_name_H-M "P N M A"
_symmetry_group_IT_number 62
_symmetry_cell_setting 'orthorhombic'
loop_
_space_group_symop_operation_xyz
x,y,z
1/2-x,-y,1/2+z
1/2+x,1/2-y,1/2-z
-x,1/2+y,-z
-x,-y,-z
1/2+x,y,1/2-z
1/2-x,1/2+y,1/2+z
x,1/2-y,z
loop_
_atom_site_type_symbol
_atom_site_label
_atom_site_fract_x
_atom_site_fract_y
_atom_site_fract_z
Si Si1 0.904585 0.925364 0.061818
Si Si2 0.155440 0.926494 0.029528
Si Si3 0.503913 0.579907 0.753746
Si Si4 0.476904 0.573865 0.853202
Si Si5 0.293861 0.916807 0.266572
Si Si6 0.376983 0.084178 0.687047
Si Si7 0.201136 0.429095 0.612972
Si Si8 0.229887 0.926065 0.860314
O O1 0.885547 0.750000 0.068632
O O2 0.036886 0.948679 0.054529
O O3 0.855879 0.018186 0.102725
O O4 0.848453 0.981264 0.015881
O O5 0.163043 0.750000 0.019285
O O6 0.252317 0.966926 0.064191
O O7 0.470705 0.750000 0.752206
O O8 0.462180 0.521390 0.801723
O O9 0.633583 0.543617 0.757055
O O10 0.476797 0.514084 0.704893
O O11 0.500935 0.750000 0.851179
O O12 0.581336 0.494350 0.875400
O O13 0.357878 0.554821 0.876763
O O14 0.345657 0.750000 0.265662
O O15 0.188688 0.905783 0.234060
O O16 0.277263 0.972397 0.316419
O O17 0.412274 0.250000 0.673131
O O18 0.294165 0.024226 0.649544
O O19 0.195465 0.250000 0.616670
O O20 0.215231 0.750000 0.849785
#
# Coordination Sequence:
#
# PCOD9467977 Si02
#       8
#     8   8   8   8   8   8   8   8
#     4  10  21  39  64  92 118 148 188 234 291 354
#     4   9  20  40  64  89 119 149 181 235 295 348
#     4  11  22  36  53  77 113 156 197 241 290 339
#     4  10  22  38  56  80 117 157 195 241 287 340
#     4  11  22  36  55  81 114 153 198 241 285 340
#     4  10  21  35  54  81 113 152 194 239 286 337
#     4  10  21  38  60  86 115 151 195 239 290 346
#     4  11  23  40  59  85 119 155 197 241 293 345
#
# _framework density 19.753086
#
# number of rings (size 3 to 8) (size 9 to 14) (size 15 to 20)
#    0.000    1.750    2.500    1.500    1.750    3.500 
#    0.000    0.625    0.000    0.000    0.000    0.000 
#    0.000    0.000    0.000    0.000    0.000    0.000 
#
# Total GULP energy -356725.614488 kJ/mol
# GULP energy per Si atom -5573.837726 kJ/mol
# Density = 1.970813 g / cm^3
# Si number density = 19.753086 Si / 1000 Ang^3
#
#
#
# Elastic Constant Matrix: (Units=GPa)
#
#
# Indices 1 2 3 4 5 6 
#
# 1 25.4416 -0.1243 0.3656 0.0000 0.0000 0.0000
# 2 -0.1243 10.4839 10.1614 0.0000 0.0000 0.0000
# 3 0.3656 10.1614 51.8876 0.0000 0.0000 0.0000
# 4 0.0000 0.0000 0.0000 22.8505 0.0000 0.0000
# 5 0.0000 0.0000 0.0000 0.0000 29.1715 0.0000
# 6 0.0000 0.0000 0.0000 0.0000 0.0000 23.5915
#
#
#
# Elastic Compliance Matrix: (Units=1/GPa)
#
#
# Indices 1 2 3 4 5 6 
#
# 1 0.039317 0.000907 -0.000455 0.000000 0.000000 0.000000
# 2 0.000907 0.117752 -0.023066 0.000000 0.000000 0.000000
# 3 -0.000455 -0.023066 0.023793 0.000000 0.000000 0.000000
# 4 0.000000 0.000000 0.000000 0.043763 0.000000 0.000000
# 5 0.000000 0.000000 0.000000 0.000000 0.034280 0.000000
# 6 0.000000 0.000000 0.000000 0.000000 0.000000 0.042388
#
#
# Mechanical properties :
#
#
# Convention : Reuss Voigt Hill
#
# Bulk Modulus (GPa) = 7.37284 12.06873 9.72079
# Shear Modulus (GPa) = 12.76384 20.28339 16.52362
#
# Velocity S-wave (km/s) = 2.54474 3.20792 2.89538
# Velocity P-wave (km/s) = 3.51780 4.45467 4.01366
#
# Compressibility (1/GPa) = 0.13563290
#
# Stress axis : x y z
#
# Youngs Moduli (GPa) = 25.43450 8.49244 42.02952
#
# Poissons Ratio (x) = -0.00770 0.01911
# Poissons Ratio (y) = -0.02306 0.96947
# Poissons Ratio (z) = 0.01156 0.19589
#
# Static dielectric constant tensor:
#      x y z
#    x 1.748550 0.000000 0.000000 
#    y 0.000000 1.756950 0.000000 
#    z 0.000000 0.000000 1.687990 
# 
# From -- ./inp_files/32522.got.cif
#   From: 2010.05.17/outbox.ucp.g08.bks.cvg/sg62_17_cif.got.tgz:32522.got - 2010.06.11 16:29:25.
