data_PCOD9467702
_publ_section_title
;
Structure prediction by ZEFSAII (Michael W. Deem and Ramdas Pophale) SiO2 
 PCOD9467702
Probable space group: P N M A
;
_chemical_formula_sum "Si O2"
_cell_formula_units_Z 24
_cell_length_a 10.180198
_cell_length_b 10.296414
_cell_length_c 8.705764
_cell_angle_alpha 90.000000
_cell_angle_beta 90.000000
_cell_angle_gamma 90.000000
_cell_volume 912.534119
_symmetry_space_group_name_H-M "P N M A"
_symmetry_group_IT_number 62
_symmetry_cell_setting 'orthorhombic'
loop_
_space_group_symop_operation_xyz
x,y,z
1/2-x,-y,1/2+z
1/2+x,1/2-y,1/2-z
-x,1/2+y,-z
-x,-y,-z
1/2+x,y,1/2-z
1/2-x,1/2+y,1/2+z
x,1/2-y,z
loop_
_atom_site_type_symbol
_atom_site_label
_atom_site_fract_x
_atom_site_fract_y
_atom_site_fract_z
Si Si1 0.906798 0.250000 0.838150
Si Si2 0.332530 0.462812 0.414639
Si Si3 0.687761 0.250000 0.595772
Si Si4 0.965409 0.596215 0.639862
O O1 0.818996 0.250000 0.690673
O O2 0.059053 0.250000 0.795931
O O3 0.869497 0.129787 0.945705
O O4 0.322817 0.609757 0.479616
O O5 0.442178 0.444592 0.282695
O O6 0.191656 0.423088 0.345074
O O7 0.989339 0.750000 0.612172
O O8 0.000000 0.500000 0.500000
#
# Coordination Sequence:
#
# PCOD9467702 Si02
#       4
#     4   8   4   8
#     4  12  26  54  76 120 158 216 268 330 418 474
#     4  12  27  51  81 113 164 210 266 332 409 477
#     4  12  28  48  80 116 158 206 274 332 390 492
#     4  12  27  51  80 118 161 213 269 333 401 481
#
# _framework density 26.300387000000001
#
# number of rings (size 3 to 8) (size 9 to 14) (size 15 to 20)
#    0.000    0.000    3.333    5.000    4.667    2.667 
#    0.000    0.000    0.000    0.000    0.000    0.000 
#    0.000    0.000    0.000    0.000    0.000    0.000 
#
# Total GULP energy -134759.653179 kJ/mol
# GULP energy per Si atom -5614.985549 kJ/mol
# Density = 2.624053 g / cm^3
# Si number density = 26.300387 Si / 1000 Ang^3
#
#
#
# Elastic Constant Matrix: (Units=GPa)
#
#
# Indices 1 2 3 4 5 6 
#
# 1 169.1566 -4.5527 23.2996 0.0000 0.0000 0.0000
# 2 -4.5527 284.1664 38.6403 0.0000 0.0000 0.0000
# 3 23.2996 38.6403 52.1615 0.0000 0.0000 0.0000
# 4 0.0000 0.0000 0.0000 44.4841 0.0000 0.0000
# 5 0.0000 0.0000 0.0000 0.0000 30.0385 0.0000
# 6 0.0000 0.0000 0.0000 0.0000 0.0000 36.0186
#
#
#
# Elastic Compliance Matrix: (Units=1/GPa)
#
#
# Indices 1 2 3 4 5 6 
#
# 1 0.006374 0.000544 -0.003250 0.000000 0.000000 0.000000
# 2 0.000544 0.003960 -0.003176 0.000000 0.000000 0.000000
# 3 -0.003250 -0.003176 0.022976 0.000000 0.000000 0.000000
# 4 0.000000 0.000000 0.000000 0.022480 0.000000 0.000000
# 5 0.000000 0.000000 0.000000 0.000000 0.033291 0.000000
# 6 0.000000 0.000000 0.000000 0.000000 0.000000 0.027763
#
#
# Mechanical properties :
#
#
# Convention : Reuss Voigt Hill
#
# Bulk Modulus (GPa) = 46.41482 68.91765 57.66623
# Shear Modulus (GPa) = 36.82156 51.98141 44.40148
#
# Velocity S-wave (km/s) = 3.74577 4.45055 4.11328
# Velocity P-wave (km/s) = 6.03274 7.25747 6.67326
#
# Compressibility (1/GPa) = 0.02154484
#
# Stress axis : x y z
#
# Youngs Moduli (GPa) = 156.88722 252.54530 43.52374
#
# Poissons Ratio (x) = -0.13740 0.14146
# Poissons Ratio (y) = -0.08536 0.13824
# Poissons Ratio (z) = 0.50991 0.80216
#
# Static dielectric constant tensor:
#      x y z
#    x 2.045860 0.000000 0.000000 
#    y 0.000000 2.089250 0.000000 
#    z 0.000000 0.000000 1.965190 
# 
# From -- ./inp_files/4719.got.cif
#   From: 2010.05.17/outbox.cif.g08.bks.cpg/sg62_3_cif.got.tgz:4719.got - 2010.06.03 15:25:27.
