data_PCOD9467043
_publ_section_title
;
Structure prediction by ZEFSAII (Michael W. Deem and Ramdas Pophale) SiO2 
 PCOD9467043
Probable space group: P N M A
;
_chemical_formula_sum "Si O2"
_cell_formula_units_Z 36
_cell_length_a 9.425268
_cell_length_b 18.430146
_cell_length_c 9.299219
_cell_angle_alpha 90.000000
_cell_angle_beta 90.000000
_cell_angle_gamma 90.000000
_cell_volume 1615.358641
_symmetry_space_group_name_H-M "P N M A"
_symmetry_group_IT_number 62
_symmetry_cell_setting 'orthorhombic'
loop_
_space_group_symop_operation_xyz
x,y,z
1/2-x,-y,1/2+z
1/2+x,1/2-y,1/2-z
-x,1/2+y,-z
-x,-y,-z
1/2+x,y,1/2-z
1/2-x,1/2+y,1/2+z
x,1/2-y,z
loop_
_atom_site_type_symbol
_atom_site_label
_atom_site_fract_x
_atom_site_fract_y
_atom_site_fract_z
Si Si1 0.152803 0.250000 0.906727
Si Si2 0.804271 0.870437 0.538926
Si Si3 0.040328 0.750000 0.532279
Si Si4 0.907094 0.490761 0.643925
Si Si5 0.349458 0.905705 0.276663
Si Si6 0.085979 0.750000 0.868941
O O1 0.114650 0.176248 0.822550
O O2 0.321140 0.250000 0.934434
O O3 0.066870 0.250000 0.056066
O O4 0.780553 0.905499 0.383045
O O5 0.674269 0.819759 0.579920
O O6 0.941624 0.820045 0.512740
O O7 0.840070 0.929357 0.661225
O O8 0.081883 0.750000 0.698750
O O9 0.773679 0.437616 0.622965
O O10 0.000000 0.500000 0.500000
O O11 0.013841 0.457523 0.761454
#
# Coordination Sequence:
#
# PCOD9467043 Si02
#       6
#     4   8   4   8   8   4
#     4  12  22  40  72 100 126 166 239 279 328 393
#     4  10  23  44  64  93 138 174 222 270 332 403
#     4  11  24  43  66  93 136 178 213 280 336 394
#     4  10  23  43  63  98 138 171 213 272 343 394
#     4  11  23  42  70 100 129 177 226 283 333 389
#     4  11  24  41  64  99 128 180 220 269 340 397
#
# _framework density 22.286072999999998
#
# number of rings (size 3 to 8) (size 9 to 14) (size 15 to 20)
#    0.000    1.333    0.000    6.667    3.111    2.667 
#    8.000    5.556    0.000    0.000    0.000    0.000 
#    0.000    0.000    0.000    0.000    0.000    0.000 
#
# Total GULP energy -201234.073354 kJ/mol
# GULP energy per Si atom -5589.835371 kJ/mol
# Density = 2.223535 g / cm^3
# Si number density = 22.286073 Si / 1000 Ang^3
#
#
#
# Elastic Constant Matrix: (Units=GPa)
#
#
# Indices 1 2 3 4 5 6 
#
# 1 91.5363 40.4047 0.3355 0.0000 0.0000 0.0000
# 2 40.4047 129.0912 6.4795 0.0000 0.0000 0.0000
# 3 0.3355 6.4795 44.7382 0.0000 0.0000 0.0000
# 4 0.0000 0.0000 0.0000 24.9910 0.0000 0.0000
# 5 0.0000 0.0000 0.0000 0.0000 36.7839 0.0000
# 6 0.0000 0.0000 0.0000 0.0000 0.0000 -28.3231
#
#
#
# Elastic Compliance Matrix: (Units=1/GPa)
#
#
# Indices 1 2 3 4 5 6 
#
# 1 0.012686 -0.003995 0.000483 0.000000 0.000000 0.000000
# 2 -0.003995 0.009061 -0.001282 0.000000 0.000000 0.000000
# 3 0.000483 -0.001282 0.022534 0.000000 0.000000 0.000000
# 4 0.000000 0.000000 0.000000 0.040014 0.000000 0.000000
# 5 0.000000 0.000000 0.000000 0.000000 0.027186 0.000000
# 6 0.000000 0.000000 0.000000 0.000000 0.000000 -0.035307
#
#
# Mechanical properties :
#
#
# Convention : Reuss Voigt Hill
#
# Bulk Modulus (GPa) = 28.82341 39.97836 34.40089
# Shear Modulus (GPa) = 51.37277 21.23341 36.30309
#
# Velocity S-wave (km/s) = 4.80641 3.09004 4.04041
# Velocity P-wave (km/s) = 6.61540 5.54155 6.10214
#
# Compressibility (1/GPa) = 0.03469402
#
# Stress axis : x y z
#
# Youngs Moduli (GPa) = 78.82538 110.36024 44.37665
#
# Poissons Ratio (x) = 0.44089 -0.02145
# Poissons Ratio (y) = 0.31491 0.05691
# Poissons Ratio (z) = -0.03811 0.14153
#
# Static dielectric constant tensor:
#      x y z
#    x 1.799870 0.000000 0.000000 
#    y 0.000000 2.187080 0.000000 
#    z 0.000000 0.000000 1.821350 
# 
# From -- ./inp_files/4208.got.cif
#   From: 2010.05.17/outbox.cif.g08.bks.cpg/sg62_3_cif.got.tgz:4208.got - 2010.06.03 15:25:27.
