data_PCOD9467495
_publ_section_title
;
Structure prediction by ZEFSAII (Michael W. Deem and Ramdas Pophale) SiO2 
 PCOD9467495
Probable space group: P N M A
;
_chemical_formula_sum "Si O2"
_cell_formula_units_Z 56
_cell_length_a 9.899476
_cell_length_b 14.917698
_cell_length_c 19.156275
_cell_angle_alpha 90.000000
_cell_angle_beta 90.000000
_cell_angle_gamma 90.000000
_cell_volume 2828.948758
_symmetry_space_group_name_H-M "P N M A"
_symmetry_group_IT_number 62
_symmetry_cell_setting 'orthorhombic'
loop_
_space_group_symop_operation_xyz
x,y,z
1/2-x,-y,1/2+z
1/2+x,1/2-y,1/2-z
-x,1/2+y,-z
-x,-y,-z
1/2+x,y,1/2-z
1/2-x,1/2+y,1/2+z
x,1/2-y,z
loop_
_atom_site_type_symbol
_atom_site_label
_atom_site_fract_x
_atom_site_fract_y
_atom_site_fract_z
Si Si1 0.815844 0.646885 0.050571
Si Si2 0.057604 0.521505 0.680791
Si Si3 0.667736 0.353593 0.131957
Si Si4 0.677563 0.027718 0.416140
Si Si5 0.275316 0.848027 0.024503
Si Si6 0.598443 0.994626 0.659185
Si Si7 0.463339 0.346026 0.881748
O O1 0.862752 0.750000 0.055684
O O2 0.866845 0.583015 0.113517
O O3 0.653607 0.647849 0.061033
O O4 0.842493 0.602023 0.975876
O O5 0.181950 0.534269 0.626838
O O6 0.109111 0.498268 0.757646
O O7 0.958807 0.606316 0.673659
O O8 0.963635 0.436562 0.661385
O O9 0.690814 0.250000 0.149858
O O10 0.799047 0.414793 0.141404
O O11 0.646414 0.360479 0.048427
O O12 0.553595 0.029712 0.363017
O O13 0.682189 0.932075 0.457103
O O14 0.206876 0.750000 0.021445
O O15 0.390293 0.844567 0.083072
O O16 0.442762 0.250000 0.844269
#
# Coordination Sequence:
#
# PCOD9467495 Si02
#       7
#     8   8   8   8   8   8   8
#     4  11  23  40  66  96 129 166 214 267 320 377
#     4  11  23  42  67  90 128 170 216 262 314 383
#     4  11  23  41  65  90 123 164 212 264 316 374
#     4  11  23  40  65  95 129 169 212 264 316 377
#     4   9  18  35  63  95 124 160 213 266 314 368
#     4  12  25  42  61  95 134 172 208 257 326 385
#     4   9  18  36  64  95 122 158 210 264 310 368
#
# _framework density 19.795339999999999
#
# number of rings (size 3 to 8) (size 9 to 14) (size 15 to 20)
#    0.000    1.429    2.857    2.143    0.000    6.286 
#    0.000    1.429    0.000    0.000    0.000    0.000 
#    0.000    0.000    0.000    0.000    0.000    0.000 
#
# Total GULP energy -312406.373814 kJ/mol
# GULP energy per Si atom -5578.685247 kJ/mol
# Density = 1.975028 g / cm^3
# Si number density = 19.795340 Si / 1000 Ang^3
#
#
#
# Elastic Constant Matrix: (Units=GPa)
#
#
# Indices 1 2 3 4 5 6 
#
# 1 60.5294 15.4065 -7.9334 0.0000 0.0000 0.0000
# 2 15.4065 92.1181 18.9468 0.0000 0.0000 0.0000
# 3 -7.9334 18.9468 74.6227 0.0000 0.0000 0.0000
# 4 0.0000 0.0000 0.0000 -2.5788 0.0000 0.0000
# 5 0.0000 0.0000 0.0000 0.0000 14.4264 0.0000
# 6 0.0000 0.0000 0.0000 0.0000 0.0000 1.8300
#
#
#
# Elastic Compliance Matrix: (Units=1/GPa)
#
#
# Indices 1 2 3 4 5 6 
#
# 1 0.017790 -0.003550 0.002793 0.000000 0.000000 0.000000
# 2 -0.003550 0.012162 -0.003465 0.000000 0.000000 0.000000
# 3 0.002793 -0.003465 0.014577 0.000000 0.000000 0.000000
# 4 0.000000 0.000000 0.000000 -0.387782 0.000000 0.000000
# 5 0.000000 0.000000 0.000000 0.000000 0.069318 0.000000
# 6 0.000000 0.000000 0.000000 0.000000 0.000000 0.546459
#
#
# Mechanical properties :
#
#
# Convention : Reuss Voigt Hill
#
# Bulk Modulus (GPa) = 27.71231 31.12332 29.41782
# Shear Modulus (GPa) = 17.06501 16.12554 16.59527
#
# Velocity S-wave (km/s) = 2.93929 2.85724 2.89856
# Velocity P-wave (km/s) = 5.05461 5.16157 5.10837
#
# Compressibility (1/GPa) = 0.03608505
#
# Stress axis : x y z
#
# Youngs Moduli (GPa) = 56.20995 82.22278 68.59889
#
# Poissons Ratio (x) = 0.29187 -0.19157
# Poissons Ratio (y) = 0.19953 0.23772
# Poissons Ratio (z) = -0.15698 0.28493
#
# Static dielectric constant tensor:
#      x y z
#    x 1.698250 0.000000 0.000000 
#    y 0.000000 1.739380 0.000000 
#    z 0.000000 0.000000 1.724910 
# 
# From -- ./inp_files/26000.got.cif
#   From: 2010.05.17/outbox.cif.g08.bks.cpg/sg62_13_cif.got.tgz:26000.got - 2010.06.03 15:25:27.
