data_PCOD9467514
_publ_section_title
;
Structure prediction by ZEFSAII (Michael W. Deem and Ramdas Pophale) SiO2 
 PCOD9467514
Probable space group: P N M A
;
_chemical_formula_sum "Si O2"
_cell_formula_units_Z 48
_cell_length_a 8.680799
_cell_length_b 23.483730
_cell_length_c 9.584074
_cell_angle_alpha 90.000000
_cell_angle_beta 90.000000
_cell_angle_gamma 90.000000
_cell_volume 1953.785748
_symmetry_space_group_name_H-M "P N M A"
_symmetry_group_IT_number 62
_symmetry_cell_setting 'orthorhombic'
loop_
_space_group_symop_operation_xyz
x,y,z
1/2-x,-y,1/2+z
1/2+x,1/2-y,1/2-z
-x,1/2+y,-z
-x,-y,-z
1/2+x,y,1/2-z
1/2-x,1/2+y,1/2+z
x,1/2-y,z
loop_
_atom_site_type_symbol
_atom_site_label
_atom_site_fract_x
_atom_site_fract_y
_atom_site_fract_z
Si Si1 0.108578 0.466160 0.895643
Si Si2 0.938970 0.992262 0.655718
Si Si3 0.116560 0.815002 0.282320
Si Si4 0.300171 0.651618 0.537449
Si Si5 0.180236 0.319352 0.546845
Si Si6 0.010242 0.137895 0.288781
O O1 0.256704 0.502106 0.849888
O O2 0.009177 0.459584 0.755734
O O3 0.172459 0.411125 0.974596
O O4 0.000000 0.500000 0.000000
O O5 0.984950 0.930566 0.715096
O O6 0.000000 0.000000 0.500000
O O7 0.079225 0.750000 0.248492
O O8 0.253696 0.814762 0.397787
O O9 0.968288 0.837627 0.361544
O O10 0.175738 0.841022 0.137633
O O11 0.149824 0.655209 0.638138
O O12 0.444912 0.664048 0.638555
O O13 0.182546 0.250000 0.538191
O O14 0.145970 0.344017 0.395972
#
# Coordination Sequence:
#
# PCOD9467514 Si02
#       6
#     8   8   8   8   8   8
#     4  12  25  43  62  91 123 165 205 251 309 359
#     4  12  24  42  63  89 126 162 206 255 299 363
#     4   9  20  39  62  90 120 153 199 251 304 366
#     4  11  24  40  61  89 123 162 205 252 304 366
#     4   9  20  40  64  90 122 156 200 252 305 364
#     4  11  23  42  60  91 124 162 205 251 306 360
#
# _framework density 24.567689000000001
#
# number of rings (size 3 to 8) (size 9 to 14) (size 15 to 20)
#    0.000    1.333    3.333    2.000    2.333    2.000 
#    0.000    0.000    0.000    0.000    0.000    0.000 
#    0.000    0.000    0.000    0.000    0.000    0.000 
#
# Total GULP energy -268521.017590 kJ/mol
# GULP energy per Si atom -5594.187866 kJ/mol
# Density = 2.451177 g / cm^3
# Si number density = 24.567689 Si / 1000 Ang^3
#
#
#
# Elastic Constant Matrix: (Units=GPa)
#
#
# Indices 1 2 3 4 5 6 
#
# 1 70.2191 -12.3637 26.7582 0.0000 0.0000 0.0000
# 2 -12.3637 31.8619 -12.7260 0.0000 0.0000 0.0000
# 3 26.7582 -12.7260 135.1150 0.0000 0.0000 0.0000
# 4 0.0000 0.0000 0.0000 13.9859 0.0000 0.0000
# 5 0.0000 0.0000 0.0000 0.0000 42.4480 0.0000
# 6 0.0000 0.0000 0.0000 0.0000 0.0000 17.3238
#
#
#
# Elastic Compliance Matrix: (Units=1/GPa)
#
#
# Indices 1 2 3 4 5 6 
#
# 1 0.016192 0.005198 -0.002717 0.000000 0.000000 0.000000
# 2 0.005198 0.034281 0.002199 0.000000 0.000000 0.000000
# 3 -0.002717 0.002199 0.008146 0.000000 0.000000 0.000000
# 4 0.000000 0.000000 0.000000 0.071501 0.000000 0.000000
# 5 0.000000 0.000000 0.000000 0.000000 0.023558 0.000000
# 6 0.000000 0.000000 0.000000 0.000000 0.000000 0.057724
#
#
# Mechanical properties :
#
#
# Convention : Reuss Voigt Hill
#
# Bulk Modulus (GPa) = 14.71037 26.72590 20.71813
# Shear Modulus (GPa) = 22.25176 30.45337 26.35256
#
# Velocity S-wave (km/s) = 3.01280 3.52457 3.27869
# Velocity P-wave (km/s) = 4.25480 5.24076 4.77331
#
# Compressibility (1/GPa) = 0.06797928
#
# Stress axis : x y z
#
# Youngs Moduli (GPa) = 61.76002 29.17077 122.75451
#
# Poissons Ratio (x) = -0.15162 0.33353
# Poissons Ratio (y) = -0.32102 -0.26999
# Poissons Ratio (z) = 0.16780 -0.06416
#
# Static dielectric constant tensor:
#      x y z
#    x 1.982670 0.000000 0.000000 
#    y 0.000000 1.911420 0.000000 
#    z 0.000000 0.000000 1.951780 
# 
# From -- ./inp_files/4515.got.cif
#   From: 2010.05.17/outbox.cif.g08.bks.cpg/sg62_3_cif.got.tgz:4515.got - 2010.06.03 15:25:27.
