data_PCOD9467738
_publ_section_title
;
Structure prediction by ZEFSAII (Michael W. Deem and Ramdas Pophale) SiO2 
 PCOD9467738
Probable space group: P N M A
;
_chemical_formula_sum "Si O2"
_cell_formula_units_Z 24
_cell_length_a 9.315240
_cell_length_b 13.805586
_cell_length_c 7.870223
_cell_angle_alpha 90.000000
_cell_angle_beta 90.000000
_cell_angle_gamma 90.000000
_cell_volume 1012.129149
_symmetry_space_group_name_H-M "P N M A"
_symmetry_group_IT_number 62
_symmetry_cell_setting 'orthorhombic'
loop_
_space_group_symop_operation_xyz
x,y,z
1/2-x,-y,1/2+z
1/2+x,1/2-y,1/2-z
-x,1/2+y,-z
-x,-y,-z
1/2+x,y,1/2-z
1/2-x,1/2+y,1/2+z
x,1/2-y,z
loop_
_atom_site_type_symbol
_atom_site_label
_atom_site_fract_x
_atom_site_fract_y
_atom_site_fract_z
Si Si1 0.563039 0.056797 0.254275
Si Si2 0.551702 0.140087 0.611417
Si Si3 0.322658 0.136959 0.081532
O O1 0.504988 0.121249 0.415027
O O2 0.484017 0.099291 0.090824
O O3 0.731383 0.076583 0.278023
O O4 0.517937 0.947064 0.287162
O O5 0.520871 0.250000 0.665887
O O6 0.724485 0.126898 0.586953
O O7 0.318512 0.250000 0.122551
#
# Coordination Sequence:
#
# PCOD9467738 Si02
#       3
#     8   8   8
#     4   9  16  28  47  66  84 113 147 178 210 252
#     4   8  16  29  46  63  88 118 142 171 217 262
#     4   9  15  27  46  67  84 111 148 179 208 249
#
# _framework density 23.712389000000002
#
# number of rings (size 3 to 8) (size 9 to 14) (size 15 to 20)
#    2.000    1.333    0.000    2.000    0.000    0.000 
#    0.000    3.333    0.000    0.000    0.000    0.000 
#    0.000    0.000    0.000    0.000    0.000    0.000 
#
# Total GULP energy -133615.014023 kJ/mol
# GULP energy per Si atom -5567.292251 kJ/mol
# Density = 2.365842 g / cm^3
# Si number density = 23.712389 Si / 1000 Ang^3
#
#
#
# Elastic Constant Matrix: (Units=GPa)
#
#
# Indices 1 2 3 4 5 6 
#
# 1 27.5024 -11.1251 0.9809 0.0000 0.0000 0.0000
# 2 -11.1251 137.0617 16.8814 0.0000 0.0000 0.0000
# 3 0.9809 16.8814 32.2465 0.0000 0.0000 0.0000
# 4 0.0000 0.0000 0.0000 21.9074 0.0000 0.0000
# 5 0.0000 0.0000 0.0000 0.0000 20.4224 0.0000
# 6 0.0000 0.0000 0.0000 0.0000 0.0000 22.1560
#
#
#
# Elastic Compliance Matrix: (Units=1/GPa)
#
#
# Indices 1 2 3 4 5 6 
#
# 1 0.037856 0.003436 -0.002950 0.000000 0.000000 0.000000
# 2 0.003436 0.008111 -0.004351 0.000000 0.000000 0.000000
# 3 -0.002950 -0.004351 0.033378 0.000000 0.000000 0.000000
# 4 0.000000 0.000000 0.000000 0.045647 0.000000 0.000000
# 5 0.000000 0.000000 0.000000 0.000000 0.048966 0.000000
# 6 0.000000 0.000000 0.000000 0.000000 0.000000 0.045135
#
#
# Mechanical properties :
#
#
# Convention : Reuss Voigt Hill
#
# Bulk Modulus (GPa) = 13.96351 23.36498 18.66425
# Shear Modulus (GPa) = 19.94469 25.56871 22.75670
#
# Velocity S-wave (km/s) = 2.90333 3.28729 3.10126
# Velocity P-wave (km/s) = 4.14012 4.92780 4.55103
#
# Compressibility (1/GPa) = 0.07161521
#
# Stress axis : x y z
#
# Youngs Moduli (GPa) = 26.41613 123.29345 29.95944
#
# Poissons Ratio (x) = -0.42365 0.08839
# Poissons Ratio (y) = -0.09077 0.13034
# Poissons Ratio (z) = 0.07794 0.53640
#
# Static dielectric constant tensor:
#      x y z
#    x 1.949630 0.000000 0.000000 
#    y 0.000000 1.826640 0.000000 
#    z 0.000000 0.000000 1.951490 
# 
# From -- ./inp_files/3984.got.cif
#   From: 2010.05.17/outbox.cif.g08.bks.cpg/sg62_2_cif.got.tgz:3984.got - 2010.06.03 15:25:27.
