data_PCOD9467635
_publ_section_title
;
Structure prediction by ZEFSAII (Michael W. Deem and Ramdas Pophale) SiO2 
 PCOD9467635
Probable space group: P N M A
;
_chemical_formula_sum "Si O2"
_cell_formula_units_Z 20
_cell_length_a 7.631863
_cell_length_b 8.401721
_cell_length_c 10.692541
_cell_angle_alpha 90.000000
_cell_angle_beta 90.000000
_cell_angle_gamma 90.000000
_cell_volume 685.614108
_symmetry_space_group_name_H-M "P N M A"
_symmetry_group_IT_number 62
_symmetry_cell_setting 'orthorhombic'
loop_
_space_group_symop_operation_xyz
x,y,z
1/2-x,-y,1/2+z
1/2+x,1/2-y,1/2-z
-x,1/2+y,-z
-x,-y,-z
1/2+x,y,1/2-z
1/2-x,1/2+y,1/2+z
x,1/2-y,z
loop_
_atom_site_type_symbol
_atom_site_label
_atom_site_fract_x
_atom_site_fract_y
_atom_site_fract_z
Si Si1 0.957194 0.250000 0.037270
Si Si2 0.373551 0.076468 0.235683
Si Si3 0.749119 0.250000 0.676605
Si Si4 0.452146 0.750000 0.978157
O O1 0.973764 0.400903 0.131683
O O2 0.753602 0.250000 0.998320
O O3 0.097135 0.250000 0.928685
O O4 0.274623 0.250000 0.234673
O O5 0.489200 0.101890 0.111851
O O6 0.272680 0.912780 0.246661
O O7 0.430230 0.250000 0.898677
#
# Coordination Sequence:
#
# PCOD9467635 Si02
#       4
#     4   8   4   4
#     4   9  21  42  65  98 131 185 227 288 351 401
#     4   8  23  41  66 104 139 181 231 297 347 411
#     4  12  20  46  76  91 143 198 221 285 378 409
#     4   9  23  44  69 101 146 177 238 299 337 428
#
# _framework density 29.170931
#
# number of rings (size 3 to 8) (size 9 to 14) (size 15 to 20)
#    2.400    0.000    0.000    1.200   11.200    1.600 
#    3.600    6.000    0.000    0.000    0.000    0.000 
#    0.000    0.000    0.000    0.000    0.000    0.000 
#
# Total GULP energy -112008.968107 kJ/mol
# GULP energy per Si atom -5600.448405 kJ/mol
# Density = 2.910454 g / cm^3
# Si number density = 29.170931 Si / 1000 Ang^3
#
#
#
# Elastic Constant Matrix: (Units=GPa)
#
#
# Indices 1 2 3 4 5 6 
#
# 1 202.4239 64.9750 77.7793 0.0000 0.0000 0.0000
# 2 64.9750 232.9902 80.6894 0.0000 0.0000 0.0000
# 3 77.7793 80.6894 150.6351 0.0000 0.0000 0.0000
# 4 0.0000 0.0000 0.0000 51.9030 0.0000 0.0000
# 5 0.0000 0.0000 0.0000 0.0000 61.8110 0.0000
# 6 0.0000 0.0000 0.0000 0.0000 0.0000 41.9054
#
#
#
# Elastic Compliance Matrix: (Units=1/GPa)
#
#
# Indices 1 2 3 4 5 6 
#
# 1 0.006274 -0.000771 -0.002826 0.000000 0.000000 0.000000
# 2 -0.000771 0.005364 -0.002476 0.000000 0.000000 0.000000
# 3 -0.002826 -0.002476 0.009424 0.000000 0.000000 0.000000
# 4 0.000000 0.000000 0.000000 0.019267 0.000000 0.000000
# 5 0.000000 0.000000 0.000000 0.000000 0.016178 0.000000
# 6 0.000000 0.000000 0.000000 0.000000 0.000000 0.023863
#
#
# Mechanical properties :
#
#
# Convention : Reuss Voigt Hill
#
# Bulk Modulus (GPa) = 112.15120 114.77075 113.46097
# Shear Modulus (GPa) = 52.36278 55.29756 53.83017
#
# Velocity S-wave (km/s) = 4.24138 4.35862 4.30040
# Velocity P-wave (km/s) = 7.90667 8.04734 7.97731
#
# Compressibility (1/GPa) = 0.00891653
#
# Stress axis : x y z
#
# Youngs Moduli (GPa) = 159.39949 186.41884 106.11176
#
# Poissons Ratio (x) = 0.14367 0.29992
# Poissons Ratio (y) = 0.12284 0.26268
# Poissons Ratio (z) = 0.45054 0.46148
#
# Static dielectric constant tensor:
#      x y z
#    x 2.251190 0.000000 0.000000 
#    y 0.000000 2.246290 0.000000 
#    z 0.000000 0.000000 2.300420 
# 
# From -- ./inp_files/4623.got.cif
#   From: 2010.05.17/outbox.cif.g08.bks.cpg/sg62_3_cif.got.tgz:4623.got - 2010.06.03 15:25:27.
