data_PCOD9467703
_publ_section_title
;
Structure prediction by ZEFSAII (Michael W. Deem and Ramdas Pophale) SiO2 
 PCOD9467703
Probable space group: P N M A
;
_chemical_formula_sum "Si O2"
_cell_formula_units_Z 32
_cell_length_a 7.813057
_cell_length_b 8.198875
_cell_length_c 20.128371
_cell_angle_alpha 90.000000
_cell_angle_beta 90.000000
_cell_angle_gamma 90.000000
_cell_volume 1289.388779
_symmetry_space_group_name_H-M "P N M A"
_symmetry_group_IT_number 62
_symmetry_cell_setting 'orthorhombic'
loop_
_space_group_symop_operation_xyz
x,y,z
1/2-x,-y,1/2+z
1/2+x,1/2-y,1/2-z
-x,1/2+y,-z
-x,-y,-z
1/2+x,y,1/2-z
1/2-x,1/2+y,1/2+z
x,1/2-y,z
loop_
_atom_site_type_symbol
_atom_site_label
_atom_site_fract_x
_atom_site_fract_y
_atom_site_fract_z
Si Si1 0.812077 0.069226 0.987226
Si Si2 0.293282 0.501112 0.159315
Si Si3 0.587713 0.937719 0.704451
Si Si4 0.870141 0.440544 0.604394
O O1 0.801433 0.250000 0.016526
O O2 0.774279 0.080365 0.909233
O O3 0.679418 0.959618 0.027712
O O4 0.000000 0.000000 0.000000
O O5 0.372039 0.549354 0.231303
O O6 0.475078 0.443521 0.127954
O O7 0.111101 0.432515 0.184508
O O8 0.636965 0.750000 0.720697
O O9 0.702791 0.007782 0.645464
O O10 0.915522 0.250000 0.617649
#
# Coordination Sequence:
#
# PCOD9467703 Si02
#       4
#     8   8   8   8
#     4  12  27  49  79 114 156 207 261 322 389 463
#     4  12  27  49  77 114 155 199 261 318 388 460
#     4  12  27  48  79 114 152 204 258 317 384 465
#     4  12  28  49  78 114 155 203 255 320 387 458
#
# _framework density 24.817962000000001
#
# number of rings (size 3 to 8) (size 9 to 14) (size 15 to 20)
#    0.000    0.000    5.000    3.750    0.000    9.000 
#    0.000    0.000    0.000    0.000    0.000    0.000 
#    0.000    0.000    0.000    0.000    0.000    0.000 
#
# Total GULP energy -178174.396426 kJ/mol
# GULP energy per Si atom -5567.949888 kJ/mol
# Density = 2.476147 g / cm^3
# Si number density = 24.817962 Si / 1000 Ang^3
#
#
#
# Elastic Constant Matrix: (Units=GPa)
#
#
# Indices 1 2 3 4 5 6 
#
# 1 201.4814 34.9996 53.3596 0.0000 0.0000 0.0000
# 2 34.9996 103.7349 38.9399 0.0000 0.0000 0.0000
# 3 53.3596 38.9399 172.9792 0.0000 0.0000 0.0000
# 4 0.0000 0.0000 0.0000 -0.2795 0.0000 0.0000
# 5 0.0000 0.0000 0.0000 0.0000 69.0415 0.0000
# 6 0.0000 0.0000 0.0000 0.0000 0.0000 -142.8139
#
#
#
# Elastic Compliance Matrix: (Units=1/GPa)
#
#
# Indices 1 2 3 4 5 6 
#
# 1 0.005572 -0.001349 -0.001415 0.000000 0.000000 0.000000
# 2 -0.001349 0.010856 -0.002028 0.000000 0.000000 0.000000
# 3 -0.001415 -0.002028 0.006674 0.000000 0.000000 0.000000
# 4 0.000000 0.000000 0.000000 -3.578246 0.000000 0.000000
# 5 0.000000 0.000000 0.000000 0.000000 0.014484 0.000000
# 6 0.000000 0.000000 0.000000 0.000000 0.000000 -0.007002
#
#
# Mechanical properties :
#
#
# Convention : Reuss Voigt Hill
#
# Bulk Modulus (GPa) = 73.97061 81.42150 77.69606
# Shear Modulus (GPa) = -1.41500 8.58274 3.58387
#
# Velocity S-wave (km/s) = -0.75590 1.86166 1.20300
# Velocity P-wave (km/s) = 5.39519 6.12370 5.77096
#
# Compressibility (1/GPa) = 0.01351888
#
# Stress axis : x y z
#
# Youngs Moduli (GPa) = 179.45710 92.11295 149.83275
#
# Poissons Ratio (x) = 0.12424 0.21206
# Poissons Ratio (y) = 0.24205 0.30383
# Poissons Ratio (z) = 0.25398 0.18679
#
# Static dielectric constant tensor:
#      x y z
#    x 1.911880 0.000000 0.000000 
#    y 0.000000 2.093900 0.000000 
#    z 0.000000 0.000000 1.981620 
# 
# From -- ./inp_files/25540.got.cif
#   From: 2010.05.17/outbox.cif.g08.bks.cpg/sg62_13_cif.got.tgz:25540.got - 2010.06.03 15:25:27.
