data_PCOD9467099
_publ_section_title
;
Structure prediction by ZEFSAII (Michael W. Deem and Ramdas Pophale) SiO2 
 PCOD9467099
Probable space group: P N M A
;
_chemical_formula_sum "Si O2"
_cell_formula_units_Z 48
_cell_length_a 7.777075
_cell_length_b 9.077561
_cell_length_c 29.215964
_cell_angle_alpha 90.000000
_cell_angle_beta 90.000000
_cell_angle_gamma 90.000000
_cell_volume 2062.555692
_symmetry_space_group_name_H-M "P N M A"
_symmetry_group_IT_number 62
_symmetry_cell_setting 'orthorhombic'
loop_
_space_group_symop_operation_xyz
x,y,z
1/2-x,-y,1/2+z
1/2+x,1/2-y,1/2-z
-x,1/2+y,-z
-x,-y,-z
1/2+x,y,1/2-z
1/2-x,1/2+y,1/2+z
x,1/2-y,z
loop_
_atom_site_type_symbol
_atom_site_label
_atom_site_fract_x
_atom_site_fract_y
_atom_site_fract_z
Si Si1 0.854034 0.250000 0.319684
Si Si2 0.755196 0.418865 0.707423
Si Si3 0.544536 0.917133 0.546973
Si Si4 0.044602 0.424204 0.452264
Si Si5 0.646319 0.250000 0.247757
Si Si6 0.434800 0.549970 0.138955
Si Si7 0.545396 0.910061 0.363341
O O1 0.660210 0.250000 0.302788
O O2 0.917432 0.382501 0.348000
O O3 0.952485 0.250000 0.271232
O O4 0.741983 0.250000 0.729758
O O5 0.794165 0.578387 0.732435
O O6 0.578554 0.443795 0.679273
O O7 0.908990 0.400249 0.670582
O O8 0.485179 0.750000 0.541964
O O9 0.749839 0.920263 0.553541
O O10 0.500000 0.000000 0.500000
O O11 0.466201 0.982797 0.593464
O O12 0.987223 0.250000 0.449912
O O13 0.000000 0.500000 0.500000
O O14 0.973718 0.539890 0.414477
O O15 0.244267 0.603442 0.150393
O O16 0.485180 0.750000 0.380575
#
# Coordination Sequence:
#
# PCOD9467099 Si02
#       7
#     4   8   8   8   4   8   8
#     4  10  24  42  74 104 138 178 240 283 349 436
#     4  10  23  44  69  98 139 179 223 289 345 412
#     4  11  24  40  61  90 129 173 228 288 342 414
#     4  11  24  41  63  93 134 181 229 284 346 413
#     4  10  24  44  70 106 136 180 232 279 361 414
#     4  11  22  42  69  98 135 179 232 279 349 416
#     4  11  24  39  65  96 129 174 224 275 346 414
#
# _framework density 23.272099000000001
#
# number of rings (size 3 to 8) (size 9 to 14) (size 15 to 20)
#    0.000    1.333    2.500    2.000    4.667    5.333 
#    0.000    4.167    0.000    0.000    0.000    0.000 
#    0.000    0.000    0.000    0.000    0.000    0.000 
#
# Total GULP energy -267435.472792 kJ/mol
# GULP energy per Si atom -5571.572350 kJ/mol
# Density = 2.321913 g / cm^3
# Si number density = 23.272099 Si / 1000 Ang^3
#
#
#
# Elastic Constant Matrix: (Units=GPa)
#
#
# Indices 1 2 3 4 5 6 
#
# 1 97.4924 7.2826 -4.3776 0.0000 0.0000 0.0000
# 2 7.2826 171.2017 6.0505 0.0000 0.0000 0.0000
# 3 -4.3776 6.0505 30.1442 0.0000 0.0000 0.0000
# 4 0.0000 0.0000 0.0000 62.8273 0.0000 0.0000
# 5 0.0000 0.0000 0.0000 0.0000 33.7977 0.0000
# 6 0.0000 0.0000 0.0000 0.0000 0.0000 28.9575
#
#
#
# Elastic Compliance Matrix: (Units=1/GPa)
#
#
# Indices 1 2 3 4 5 6 
#
# 1 0.010366 -0.000498 0.001605 0.000000 0.000000 0.000000
# 2 -0.000498 0.005907 -0.001258 0.000000 0.000000 0.000000
# 3 0.001605 -0.001258 0.033659 0.000000 0.000000 0.000000
# 4 0.000000 0.000000 0.000000 0.015917 0.000000 0.000000
# 5 0.000000 0.000000 0.000000 0.000000 0.029588 0.000000
# 6 0.000000 0.000000 0.000000 0.000000 0.000000 0.034533
#
#
# Mechanical properties :
#
#
# Convention : Reuss Voigt Hill
#
# Bulk Modulus (GPa) = 20.14822 35.19436 27.67129
# Shear Modulus (GPa) = 34.05648 44.44202 39.24925
#
# Velocity S-wave (km/s) = 3.82960 4.37472 4.11120
# Velocity P-wave (km/s) = 5.31327 6.37757 5.86959
#
# Compressibility (1/GPa) = 0.04963218
#
# Stress axis : x y z
#
# Youngs Moduli (GPa) = 96.46488 169.29957 29.70934
#
# Poissons Ratio (x) = 0.08426 -0.04769
# Poissons Ratio (y) = 0.04801 0.03737
# Poissons Ratio (z) = -0.15486 0.21295
#
# Static dielectric constant tensor:
#      x y z
#    x 1.849290 0.000000 0.000000 
#    y 0.000000 1.891760 0.000000 
#    z 0.000000 0.000000 2.252240 
# 
# From -- ./inp_files/32079.got.cif
#   From: 2010.05.17/outbox.cif.g08.bks.cpg/sg62_17_cif.got.tgz:32079.got - 2010.06.03 15:25:27.
