data_PCOD9467319
_publ_section_title
;
Structure prediction by ZEFSAII (Michael W. Deem and Ramdas Pophale) SiO2 
 PCOD9467319
Probable space group: P N M A
;
_chemical_formula_sum "Si O2"
_cell_formula_units_Z 48
_cell_length_a 10.162537
_cell_length_b 19.577657
_cell_length_c 13.477305
_cell_angle_alpha 90.000000
_cell_angle_beta 90.000000
_cell_angle_gamma 90.000000
_cell_volume 2681.426592
_symmetry_space_group_name_H-M "P N M A"
_symmetry_group_IT_number 62
_symmetry_cell_setting 'orthorhombic'
loop_
_space_group_symop_operation_xyz
x,y,z
1/2-x,-y,1/2+z
1/2+x,1/2-y,1/2-z
-x,1/2+y,-z
-x,-y,-z
1/2+x,y,1/2-z
1/2-x,1/2+y,1/2+z
x,1/2-y,z
loop_
_atom_site_type_symbol
_atom_site_label
_atom_site_fract_x
_atom_site_fract_y
_atom_site_fract_z
Si Si1 0.896269 0.544019 0.331230
Si Si2 0.939907 0.118156 0.330641
Si Si3 0.444176 0.331076 0.394841
Si Si4 0.195545 0.081834 0.448047
Si Si5 0.698567 0.934692 0.156297
Si Si6 0.270004 0.829453 0.515607
O O1 0.897959 0.461494 0.327413
O O2 0.854472 0.567031 0.441148
O O3 0.795093 0.570423 0.249431
O O4 0.045662 0.567909 0.312728
O O5 0.950497 0.147317 0.220417
O O6 0.831795 0.157472 0.394989
O O7 0.079813 0.119050 0.386623
O O8 0.420539 0.250000 0.401814
O O9 0.326801 0.373676 0.444137
O O10 0.583763 0.346505 0.445987
O O11 0.218131 0.008787 0.395162
O O12 0.729454 0.877661 0.074858
O O13 0.266769 0.750000 0.487393
#
# Coordination Sequence:
#
# PCOD9467319 Si02
#       6
#     8   8   8   8   8   8
#     4  11  23  39  66  98 120 159 214 257 307 376
#     4  11  20  40  64  94 126 160 202 257 317 371
#     4  11  25  39  61  97 128 165 212 256 314 383
#     4  11  22  41  64  93 132 160 207 260 308 375
#     4  11  23  42  65  93 124 162 211 258 308 368
#     4  11  24  42  61  88 130 168 205 256 315 371
#
# _framework density 17.900918000000001
#
# number of rings (size 3 to 8) (size 9 to 14) (size 15 to 20)
#    0.000    1.000    5.000    2.500    4.667    3.333 
#    0.000    1.667    0.000    0.000    0.000    0.000 
#    0.000    0.000    0.000    0.000    0.000    0.000 
#
# Total GULP energy -268359.506804 kJ/mol
# GULP energy per Si atom -5590.823058 kJ/mol
# Density = 1.786017 g / cm^3
# Si number density = 17.900918 Si / 1000 Ang^3
#
#
#
# Elastic Constant Matrix: (Units=GPa)
#
#
# Indices 1 2 3 4 5 6 
#
# 1 139.0515 65.1537 51.5176 0.0000 0.0000 0.0000
# 2 65.1537 52.9442 20.5151 0.0000 0.0000 0.0000
# 3 51.5176 20.5151 78.8578 0.0000 0.0000 0.0000
# 4 0.0000 0.0000 0.0000 -113.9118 0.0000 0.0000
# 5 0.0000 0.0000 0.0000 0.0000 35.0352 0.0000
# 6 0.0000 0.0000 0.0000 0.0000 0.0000 27.1154
#
#
#
# Elastic Compliance Matrix: (Units=1/GPa)
#
#
# Indices 1 2 3 4 5 6 
#
# 1 0.020350 -0.022122 -0.007540 0.000000 0.000000 0.000000
# 2 -0.022122 0.045053 0.002732 0.000000 0.000000 0.000000
# 3 -0.007540 0.002732 0.016896 0.000000 0.000000 0.000000
# 4 0.000000 0.000000 0.000000 -0.008779 0.000000 0.000000
# 5 0.000000 0.000000 0.000000 0.000000 0.028543 0.000000
# 6 0.000000 0.000000 0.000000 0.000000 0.000000 0.036879
#
#
# Mechanical properties :
#
#
# Convention : Reuss Voigt Hill
#
# Bulk Modulus (GPa) = 35.16285 60.58067 47.87176
# Shear Modulus (GPa) = 24.71792 -1.44109 11.63842
#
# Velocity S-wave (km/s) = 3.71997 -0.89821 2.55259
# Velocity P-wave (km/s) = 6.17548 5.73062 5.95720
#
# Compressibility (1/GPa) = 0.02843910
#
# Stress axis : x y z
#
# Youngs Moduli (GPa) = 49.13918 22.19623 59.18504
#
# Poissons Ratio (x) = 0.49102 0.44624
# Poissons Ratio (y) = 1.08705 -0.16167
# Poissons Ratio (z) = 0.37050 -0.06063
#
# Static dielectric constant tensor:
#      x y z
#    x 1.603540 0.000000 0.000000 
#    y 0.000000 1.589260 0.000000 
#    z 0.000000 0.000000 1.579110 
# 
# From -- ./inp_files/17068.got.cif
#   From: 2010.05.17/outbox.cif.g08.bks.cpg/sg62_9_cif.got.tgz:17068.got - 2010.06.03 15:25:27.
