data_PCOD9467402
_publ_section_title
;
Structure prediction by ZEFSAII (Michael W. Deem and Ramdas Pophale) SiO2 
 PCOD9467402
Probable space group: P N M A
;
_chemical_formula_sum "Si O2"
_cell_formula_units_Z 64
_cell_length_a 21.084586
_cell_length_b 19.921079
_cell_length_c 8.538605
_cell_angle_alpha 90.000000
_cell_angle_beta 90.000000
_cell_angle_gamma 90.000000
_cell_volume 3586.450648
_symmetry_space_group_name_H-M "P N M A"
_symmetry_group_IT_number 62
_symmetry_cell_setting 'orthorhombic'
loop_
_space_group_symop_operation_xyz
x,y,z
1/2-x,-y,1/2+z
1/2+x,1/2-y,1/2-z
-x,1/2+y,-z
-x,-y,-z
1/2+x,y,1/2-z
1/2-x,1/2+y,1/2+z
x,1/2-y,z
loop_
_atom_site_type_symbol
_atom_site_label
_atom_site_fract_x
_atom_site_fract_y
_atom_site_fract_z
Si Si1 0.512271 0.173531 0.688628
Si Si2 0.687288 0.964775 0.312979
Si Si3 0.512271 0.326469 0.311376
Si Si4 0.635835 0.675147 0.690639
Si Si5 0.436189 0.539005 0.813329
Si Si6 0.135835 0.675147 0.190640
Si Si7 0.436187 0.539005 0.186668
Si Si8 0.187289 0.535225 0.812976
O O1 0.530064 0.250000 0.729369
O O2 0.515699 0.166994 0.500002
O O3 0.438105 0.164361 0.733773
O O4 0.553865 0.116244 0.766777
O O5 0.676818 0.888084 0.255171
O O6 0.749998 0.000001 0.250000
O O7 0.625173 0.006239 0.263856
O O8 0.690849 0.962684 0.500001
O O9 0.530065 0.250000 0.270635
O O10 0.438106 0.335639 0.266229
O O11 0.553865 0.383756 0.233227
O O12 0.654925 0.750000 0.743451
O O13 0.637280 0.675801 0.500000
O O14 0.676817 0.611916 0.744830
O O15 0.500002 0.500001 0.761172
O O16 0.430872 0.532382 0.999998
O O17 0.154926 0.750000 0.243452
O O18 0.374823 0.506241 0.263850
#
# Coordination Sequence:
#
# PCOD9467402 Si02
#       8
#     8   8   8   8   8   8   8   8
#     4   9  17  32  56  84 110 139 183 233 280 331
#     4  11  22  37  58  81 112 148 187 233 283 337
#     4   9  17  32  56  84 110 139 183 233 280 331
#     4   8  15  30  54  81 105 136 180 226 275 332
#     4  11  22  35  54  82 115 146 183 227 272 330
#     4   8  15  30  54  81 105 136 180 226 275 332
#     4  11  22  35  54  82 115 146 183 227 272 330
#     4  11  22  37  58  81 112 148 187 233 283 337
#
# _framework density 17.844942
#
# number of rings (size 3 to 8) (size 9 to 14) (size 15 to 20)
#    0.000    2.250    2.500    3.000    0.000    1.500 
#    0.000    1.250    0.000    7.500    0.000    0.000 
#    0.000    0.000    0.000    0.000    0.000    0.000 
#
# Total GULP energy -357054.962361 kJ/mol
# GULP energy per Si atom -5578.983787 kJ/mol
# Density = 1.780433 g / cm^3
# Si number density = 17.844942 Si / 1000 Ang^3
#
#
#
# Elastic Constant Matrix: (Units=GPa)
#
#
# Indices 1 2 3 4 5 6 
#
# 1 109.3544 78.5921 26.9820 0.0000 0.0000 0.0000
# 2 78.5921 166.8514 26.0239 0.0000 0.0000 0.0000
# 3 26.9820 26.0239 25.4488 0.0000 0.0000 0.0000
# 4 0.0000 0.0000 0.0000 18.9021 0.0000 0.0000
# 5 0.0000 0.0000 0.0000 0.0000 25.1968 0.0000
# 6 0.0000 0.0000 0.0000 0.0000 0.0000 26.7359
#
#
#
# Elastic Compliance Matrix: (Units=1/GPa)
#
#
# Indices 1 2 3 4 5 6 
#
# 1 0.016077 -0.005847 -0.011067 0.000000 0.000000 0.000000
# 2 -0.005847 0.009257 -0.003267 0.000000 0.000000 0.000000
# 3 -0.011067 -0.003267 0.054369 0.000000 0.000000 0.000000
# 4 0.000000 0.000000 0.000000 0.052904 0.000000 0.000000
# 5 0.000000 0.000000 0.000000 0.000000 0.039688 0.000000
# 6 0.000000 0.000000 0.000000 0.000000 0.000000 0.037403
#
#
# Mechanical properties :
#
#
# Convention : Reuss Voigt Hill
#
# Bulk Modulus (GPa) = 25.41825 62.76118 44.08972
# Shear Modulus (GPa) = 18.99885 25.50407 22.25146
#
# Velocity S-wave (km/s) = 3.26646 3.78458 3.53503
# Velocity P-wave (km/s) = 5.33865 7.37184 6.43604
#
# Compressibility (1/GPa) = 0.03934181
#
# Stress axis : x y z
#
# Youngs Moduli (GPa) = 62.19964 108.02707 18.39271
#
# Poissons Ratio (x) = 0.63161 0.20355
# Poissons Ratio (y) = 0.36367 0.06009
# Poissons Ratio (z) = 0.68836 0.35294
#
# Static dielectric constant tensor:
#      x y z
#    x 1.572220 0.000000 0.000000 
#    y 0.000000 1.638970 0.000000 
#    z 0.000000 0.000000 1.604540 
# 
# From -- ./inp_files/8852.got.cif
#   From: 2010.05.17/outbox.cif.g08.bks.cpg/sg62_5_cif.got.tgz:8852.got - 2010.06.03 15:25:27.
