data_PCOD9467596
_publ_section_title
;
Structure prediction by ZEFSAII (Michael W. Deem and Ramdas Pophale) SiO2 
 PCOD9467596
Probable space group: P N M A
;
_chemical_formula_sum "Si O2"
_cell_formula_units_Z 32
_cell_length_a 14.054854
_cell_length_b 16.931807
_cell_length_c 5.050639
_cell_angle_alpha 90.000000
_cell_angle_beta 90.000000
_cell_angle_gamma 90.000000
_cell_volume 1201.921146
_symmetry_space_group_name_H-M "P N M A"
_symmetry_group_IT_number 62
_symmetry_cell_setting 'orthorhombic'
loop_
_space_group_symop_operation_xyz
x,y,z
1/2-x,-y,1/2+z
1/2+x,1/2-y,1/2-z
-x,1/2+y,-z
-x,-y,-z
1/2+x,y,1/2-z
1/2-x,1/2+y,1/2+z
x,1/2-y,z
loop_
_atom_site_type_symbol
_atom_site_label
_atom_site_fract_x
_atom_site_fract_y
_atom_site_fract_z
Si Si1 0.446358 0.250000 0.462426
Si Si2 0.310430 0.250000 0.955870
Si Si3 0.369508 0.468719 0.350055
Si Si4 0.221530 0.115169 0.638247
Si Si5 0.948595 0.898328 0.748328
O O1 0.396668 0.250000 0.745760
O O2 0.514846 0.174435 0.423067
O O3 0.364136 0.250000 0.233968
O O4 0.244789 0.174152 0.877908
O O5 0.317606 0.393538 0.471339
O O6 0.408127 0.531018 0.568618
O O7 0.451322 0.436788 0.153849
O O8 0.295441 0.523801 0.204553
O O9 0.127647 0.132627 0.464247
#
# Coordination Sequence:
#
# PCOD9467596 Si02
#       5
#     4   4   8   8   8
#     4  12  29  51  76 109 158 204 258 314 385 464
#     4  12  31  49  78 111 156 204 260 316 383 462
#     4  11  25  44  77 113 151 197 271 312 396 463
#     4  12  25  46  75 112 152 207 252 329 380 468
#     4  11  26  47  75 110 156 202 258 322 391 464
#
# _framework density 26.624046
#
# number of rings (size 3 to 8) (size 9 to 14) (size 15 to 20)
#    0.000    0.500    5.000    1.500   10.500    1.000 
#    0.000    0.000    0.000    0.000    0.000    0.000 
#    0.000    0.000    0.000    0.000    0.000    0.000 
#
# Total GULP energy -179092.647066 kJ/mol
# GULP energy per Si atom -5596.645221 kJ/mol
# Density = 2.656345 g / cm^3
# Si number density = 26.624046 Si / 1000 Ang^3
#
#
#
# Elastic Constant Matrix: (Units=GPa)
#
#
# Indices 1 2 3 4 5 6 
#
# 1 127.3140 43.9153 28.5672 0.0000 0.0000 0.0000
# 2 43.9153 112.6127 27.1558 0.0000 0.0000 0.0000
# 3 28.5672 27.1558 60.5314 0.0000 0.0000 0.0000
# 4 0.0000 0.0000 0.0000 33.7358 0.0000 0.0000
# 5 0.0000 0.0000 0.0000 0.0000 55.0301 0.0000
# 6 0.0000 0.0000 0.0000 0.0000 0.0000 95.8826
#
#
#
# Elastic Compliance Matrix: (Units=1/GPa)
#
#
# Indices 1 2 3 4 5 6 
#
# 1 0.009597 -0.002972 -0.003196 0.000000 0.000000 0.000000
# 2 -0.002972 0.010877 -0.003477 0.000000 0.000000 0.000000
# 3 -0.003196 -0.003477 0.019589 0.000000 0.000000 0.000000
# 4 0.000000 0.000000 0.000000 0.029642 0.000000 0.000000
# 5 0.000000 0.000000 0.000000 0.000000 0.018172 0.000000
# 6 0.000000 0.000000 0.000000 0.000000 0.000000 0.010429
#
#
# Mechanical properties :
#
#
# Convention : Reuss Voigt Hill
#
# Bulk Modulus (GPa) = 48.13988 55.52607 51.83298
# Shear Modulus (GPa) = 40.15400 50.31769 45.23584
#
# Velocity S-wave (km/s) = 3.88775 4.35205 4.12644
# Velocity P-wave (km/s) = 6.18655 6.79373 6.49723
#
# Compressibility (1/GPa) = 0.02077280
#
# Stress axis : x y z
#
# Youngs Moduli (GPa) = 104.20161 91.93349 51.04992
#
# Poissons Ratio (x) = 0.27320 0.16315
# Poissons Ratio (y) = 0.30966 0.17752
# Poissons Ratio (z) = 0.33302 0.31969
#
# Static dielectric constant tensor:
#      x y z
#    x 2.190670 0.000000 0.000000 
#    y 0.000000 2.041330 0.000000 
#    z 0.000000 0.000000 2.127170 
# 
# From -- ./inp_files/898.got.cif
#   From: 2010.05.17/outbox.cif.g08.bks.cpg/sg62_1_cif.got.tgz:898.got - 2010.06.03 15:25:27.
