data_PCOD9467141
_publ_section_title
;
Structure prediction by ZEFSAII (Michael W. Deem and Ramdas Pophale) SiO2 
 PCOD9467141
Probable space group: P N M A
;
_chemical_formula_sum "Si O2"
_cell_formula_units_Z 32
_cell_length_a 9.368196
_cell_length_b 27.434205
_cell_length_c 5.266885
_cell_angle_alpha 90.000000
_cell_angle_beta 90.000000
_cell_angle_gamma 90.000000
_cell_volume 1353.636897
_symmetry_space_group_name_H-M "P N M A"
_symmetry_group_IT_number 62
_symmetry_cell_setting 'orthorhombic'
loop_
_space_group_symop_operation_xyz
x,y,z
1/2-x,-y,1/2+z
1/2+x,1/2-y,1/2-z
-x,1/2+y,-z
-x,-y,-z
1/2+x,y,1/2-z
1/2-x,1/2+y,1/2+z
x,1/2-y,z
loop_
_atom_site_type_symbol
_atom_site_label
_atom_site_fract_x
_atom_site_fract_y
_atom_site_fract_z
Si Si1 0.865128 0.807648 0.545894
Si Si2 0.663754 0.483282 0.041417
Si Si3 0.297326 0.390682 0.599858
Si Si4 0.918726 0.863065 0.051156
O O1 0.858974 0.750000 0.541014
O O2 0.715209 0.835678 0.506429
O O3 0.947201 0.830127 0.303682
O O4 0.918186 0.828958 0.809740
O O5 0.762607 0.497428 0.798416
O O6 0.684262 0.424755 0.042749
O O7 0.500000 0.500000 0.000000
O O8 0.236123 0.386465 0.884920
O O9 0.459793 0.404331 0.555306
#
# Coordination Sequence:
#
# PCOD9467141 Si02
#       4
#     8   8   8   8
#     4  10  24  41  66  96 135 176 227 277 341 409
#     4  12  28  46  77 107 144 187 245 299 367 434
#     4  10  26  44  72  95 143 172 232 278 355 401
#     4  10  24  41  66  95 133 175 221 275 340 403
#
# _framework density 23.64002
#
# number of rings (size 3 to 8) (size 9 to 14) (size 15 to 20)
#    1.500    0.000    0.000    3.000   10.500    2.000 
#    0.000    0.000    0.000    0.000    0.000    0.000 
#    0.000    0.000    0.000    0.000    0.000    0.000 
#
# Total GULP energy -178387.296310 kJ/mol
# GULP energy per Si atom -5574.603010 kJ/mol
# Density = 2.358621 g / cm^3
# Si number density = 23.640020 Si / 1000 Ang^3
#
#
#
# Elastic Constant Matrix: (Units=GPa)
#
#
# Indices 1 2 3 4 5 6 
#
# 1 110.4053 -10.2681 29.4898 0.0000 0.0000 0.0000
# 2 -10.2681 83.1890 16.6377 0.0000 0.0000 0.0000
# 3 29.4898 16.6377 153.3929 0.0000 0.0000 0.0000
# 4 0.0000 0.0000 0.0000 28.8864 0.0000 0.0000
# 5 0.0000 0.0000 0.0000 0.0000 23.8388 0.0000
# 6 0.0000 0.0000 0.0000 0.0000 0.0000 24.7984
#
#
#
# Elastic Compliance Matrix: (Units=1/GPa)
#
#
# Indices 1 2 3 4 5 6 
#
# 1 0.009755 0.001614 -0.002051 0.000000 0.000000 0.000000
# 2 0.001614 0.012554 -0.001672 0.000000 0.000000 0.000000
# 3 -0.002051 -0.001672 0.007095 0.000000 0.000000 0.000000
# 4 0.000000 0.000000 0.000000 0.034618 0.000000 0.000000
# 5 0.000000 0.000000 0.000000 0.000000 0.041948 0.000000
# 6 0.000000 0.000000 0.000000 0.000000 0.000000 0.040325
#
#
# Mechanical properties :
#
#
# Convention : Reuss Voigt Hill
#
# Bulk Modulus (GPa) = 39.70165 46.52290 43.11228
# Shear Modulus (GPa) = 31.46447 36.24657 33.85552
#
# Velocity S-wave (km/s) = 3.65222 3.91995 3.78845
# Velocity P-wave (km/s) = 5.88351 6.34117 6.11662
#
# Compressibility (1/GPa) = 0.02518787
#
# Stress axis : x y z
#
# Youngs Moduli (GPa) = 102.50757 79.65288 140.94864
#
# Poissons Ratio (x) = -0.12858 0.28902
# Poissons Ratio (y) = -0.16547 0.23567
# Poissons Ratio (z) = 0.21020 0.13318
#
# Static dielectric constant tensor:
#      x y z
#    x 2.040750 0.000000 0.000000 
#    y 0.000000 1.978730 0.000000 
#    z 0.000000 0.000000 1.945950 
# 
# From -- ./inp_files/196.got.cif
#   From: 2010.05.17/outbox.cif.g08.bks.cpg/sg62_1_cif.got.tgz:196.got - 2010.06.03 15:25:27.
