data_PCOD9467612
_publ_section_title
;
Structure prediction by ZEFSAII (Michael W. Deem and Ramdas Pophale) SiO2 
 PCOD9467612
Probable space group: P N M A
;
_chemical_formula_sum "Si O2"
_cell_formula_units_Z 36
_cell_length_a 9.379524
_cell_length_b 16.522505
_cell_length_c 9.238495
_cell_angle_alpha 90.000000
_cell_angle_beta 90.000000
_cell_angle_gamma 90.000000
_cell_volume 1431.719431
_symmetry_space_group_name_H-M "P N M A"
_symmetry_group_IT_number 62
_symmetry_cell_setting 'orthorhombic'
loop_
_space_group_symop_operation_xyz
x,y,z
1/2-x,-y,1/2+z
1/2+x,1/2-y,1/2-z
-x,1/2+y,-z
-x,-y,-z
1/2+x,y,1/2-z
1/2-x,1/2+y,1/2+z
x,1/2-y,z
loop_
_atom_site_type_symbol
_atom_site_label
_atom_site_fract_x
_atom_site_fract_y
_atom_site_fract_z
Si Si1 0.496619 0.999534 0.829121
Si Si2 0.125090 0.384557 0.087832
Si Si3 0.130191 0.750000 0.594570
Si Si4 0.640048 0.250000 0.882783
Si Si5 0.912081 0.250000 0.076844
Si Si6 0.269754 0.587641 0.288189
O O1 0.430608 0.927083 0.734017
O O2 0.660837 0.013932 0.797256
O O3 0.399009 0.076682 0.786384
O O4 0.500000 0.000000 0.000000
O O5 0.262962 0.326296 0.099635
O O6 0.994786 0.329633 0.028471
O O7 0.169474 0.434374 0.947071
O O8 0.059037 0.750000 0.751011
O O9 0.016238 0.750000 0.462107
O O10 0.677832 0.171578 0.783248
O O11 0.752821 0.250000 0.016711
#
# Coordination Sequence:
#
# PCOD9467612 Si02
#       6
#     8   8   4   4   4   8
#     4  12  29  49  77 111 156 211 262 325 402 466
#     4  11  26  49  71 110 154 194 260 312 387 467
#     4  11  26  47  77 110 150 198 247 323 385 473
#     4  12  26  48  81 119 152 202 266 314 413 471
#     4  11  26  43  78 111 150 200 247 325 376 478
#     4  12  27  48  78 113 155 204 258 331 386 485
#
# _framework density 25.144593
#
# number of rings (size 3 to 8) (size 9 to 14) (size 15 to 20)
#    0.000    0.444    0.000    7.333   12.444    2.667 
#    0.000    0.000    0.000    0.000    0.000    0.000 
#    0.000    0.000    0.000    0.000    0.000    0.000 
#
# Total GULP energy -201144.877482 kJ/mol
# GULP energy per Si atom -5587.357708 kJ/mol
# Density = 2.508736 g / cm^3
# Si number density = 25.144593 Si / 1000 Ang^3
#
#
#
# Elastic Constant Matrix: (Units=GPa)
#
#
# Indices 1 2 3 4 5 6 
#
# 1 118.5216 47.7303 25.7023 0.0000 0.0000 0.0000
# 2 47.7303 98.3966 51.3558 0.0000 0.0000 0.0000
# 3 25.7023 51.3558 151.6846 0.0000 0.0000 0.0000
# 4 0.0000 0.0000 0.0000 19.7931 0.0000 0.0000
# 5 0.0000 0.0000 0.0000 0.0000 42.2553 0.0000
# 6 0.0000 0.0000 0.0000 0.0000 0.0000 5.9687
#
#
#
# Elastic Compliance Matrix: (Units=1/GPa)
#
#
# Indices 1 2 3 4 5 6 
#
# 1 0.010486 -0.005052 -0.000066 0.000000 0.000000 0.000000
# 2 -0.005052 0.014778 -0.004147 0.000000 0.000000 0.000000
# 3 -0.000066 -0.004147 0.008008 0.000000 0.000000 0.000000
# 4 0.000000 0.000000 0.000000 0.050523 0.000000 0.000000
# 5 0.000000 0.000000 0.000000 0.000000 0.023666 0.000000
# 6 0.000000 0.000000 0.000000 0.000000 0.000000 0.167540
#
#
# Mechanical properties :
#
#
# Convention : Reuss Voigt Hill
#
# Bulk Modulus (GPa) = 67.83858 68.68661 68.26260
# Shear Modulus (GPa) = 16.75348 29.85772 23.30560
#
# Velocity S-wave (km/s) = 2.58405 3.44967 3.04775
# Velocity P-wave (km/s) = 5.99509 6.57593 6.29221
#
# Compressibility (1/GPa) = 0.01474088
#
# Stress axis : x y z
#
# Youngs Moduli (GPa) = 95.36356 67.66709 124.87403
#
# Poissons Ratio (x) = 0.34185 0.00829
# Poissons Ratio (y) = 0.48178 0.51791
# Poissons Ratio (z) = 0.00633 0.28064
#
# Static dielectric constant tensor:
#      x y z
#    x 2.075910 0.000000 0.000000 
#    y 0.000000 2.197570 0.000000 
#    z 0.000000 0.000000 2.046150 
# 
# From -- ./inp_files/4209.got.cif
#   From: 2010.05.17/outbox.cif.g08.bks.cpg/sg62_3_cif.got.tgz:4209.got - 2010.06.03 15:25:27.
