data_PCOD9467496
_publ_section_title
;
Structure prediction by ZEFSAII (Michael W. Deem and Ramdas Pophale) SiO2 
 PCOD9467496
Probable space group: P N M A
;
_chemical_formula_sum "Si O2"
_cell_formula_units_Z 40
_cell_length_a 9.260153
_cell_length_b 26.116987
_cell_length_c 7.384841
_cell_angle_alpha 90.000000
_cell_angle_beta 90.000000
_cell_angle_gamma 90.000000
_cell_volume 1786.003824
_symmetry_space_group_name_H-M "P N M A"
_symmetry_group_IT_number 62
_symmetry_cell_setting 'orthorhombic'
loop_
_space_group_symop_operation_xyz
x,y,z
1/2-x,-y,1/2+z
1/2+x,1/2-y,1/2-z
-x,1/2+y,-z
-x,-y,-z
1/2+x,y,1/2-z
1/2-x,1/2+y,1/2+z
x,1/2-y,z
loop_
_atom_site_type_symbol
_atom_site_label
_atom_site_fract_x
_atom_site_fract_y
_atom_site_fract_z
Si Si1 0.354094 0.549821 0.108900
Si Si2 0.088040 0.536369 0.862048
Si Si3 0.438862 0.150387 0.431685
Si Si4 0.368855 0.384149 0.830930
Si Si5 0.743666 0.308677 0.367226
O O1 0.404057 0.494369 0.176943
O O2 0.250754 0.574487 0.265966
O O3 0.489576 0.587106 0.097655
O O4 0.250143 0.544627 0.937674
O O5 0.023205 0.592938 0.863210
O O6 0.000000 0.500000 0.000000
O O7 0.410375 0.145018 0.644976
O O8 0.300203 0.170465 0.324515
O O9 0.572340 0.186123 0.384658
O O10 0.309110 0.345620 0.979437
O O11 0.788534 0.250000 0.391766
#
# Coordination Sequence:
#
# PCOD9467496 Si02
#       5
#     8   8   8   8   8
#     4  11  23  41  67 104 141 185 230 274 351 423
#     4  11  23  40  67 103 139 183 224 275 345 424
#     4  11  27  46  71 106 145 177 237 295 348 425
#     4  11  24  48  69 101 144 185 233 291 345 421
#     4  12  28  48  74 101 133 188 242 300 362 408
#
# _framework density 22.396369
#
# number of rings (size 3 to 8) (size 9 to 14) (size 15 to 20)
#    0.000    0.800    6.000    0.600   11.200    2.400 
#    0.000    0.000    0.000    0.000    0.000    0.000 
#    0.000    0.000    0.000    0.000    0.000    0.000 
#
# Total GULP energy -224172.373002 kJ/mol
# GULP energy per Si atom -5604.309325 kJ/mol
# Density = 2.234539 g / cm^3
# Si number density = 22.396369 Si / 1000 Ang^3
#
#
#
# Elastic Constant Matrix: (Units=GPa)
#
#
# Indices 1 2 3 4 5 6 
#
# 1 72.1033 2.2793 12.0701 0.0000 0.0000 0.0000
# 2 2.2793 89.3603 13.1991 0.0000 0.0000 0.0000
# 3 12.0701 13.1991 94.0302 0.0000 0.0000 0.0000
# 4 0.0000 0.0000 0.0000 14.0874 0.0000 0.0000
# 5 0.0000 0.0000 0.0000 0.0000 33.9324 0.0000
# 6 0.0000 0.0000 0.0000 0.0000 0.0000 37.9102
#
#
#
# Elastic Compliance Matrix: (Units=1/GPa)
#
#
# Indices 1 2 3 4 5 6 
#
# 1 0.014174 -0.000095 -0.001806 0.000000 0.000000 0.000000
# 2 -0.000095 0.011428 -0.001592 0.000000 0.000000 0.000000
# 3 -0.001806 -0.001592 0.011090 0.000000 0.000000 0.000000
# 4 0.000000 0.000000 0.000000 0.070986 0.000000 0.000000
# 5 0.000000 0.000000 0.000000 0.000000 0.029470 0.000000
# 6 0.000000 0.000000 0.000000 0.000000 0.000000 0.026378
#
#
# Mechanical properties :
#
#
# Convention : Reuss Voigt Hill
#
# Bulk Modulus (GPa) = 33.66229 34.51010 34.08619
# Shear Modulus (GPa) = 27.71388 32.38235 30.04812
#
# Velocity S-wave (km/s) = 3.52152 3.80659 3.66683
# Velocity P-wave (km/s) = 5.62119 5.89597 5.76021
#
# Compressibility (1/GPa) = 0.02970683
#
# Stress axis : x y z
#
# Youngs Moduli (GPa) = 70.55008 87.50268 90.16972
#
# Poissons Ratio (x) = 0.00829 0.16286
# Poissons Ratio (y) = 0.00669 0.14355
# Poissons Ratio (z) = 0.12743 0.13931
#
# Static dielectric constant tensor:
#      x y z
#    x 1.819280 0.000000 0.000000 
#    y 0.000000 1.793660 0.000000 
#    z 0.000000 0.000000 1.826480 
# 
# From -- ./inp_files/4262.got.cif
#   From: 2010.05.17/outbox.cif.g08.bks.cpg/sg62_3_cif.got.tgz:4262.got - 2010.06.03 15:25:27.
