data_PCOD9467011
_publ_section_title
;
Structure prediction by ZEFSAII (Michael W. Deem and Ramdas Pophale) SiO2 
 PCOD9467011
Probable space group: P N M A
;
_chemical_formula_sum "Si O2"
_cell_formula_units_Z 40
_cell_length_a 18.622268
_cell_length_b 12.881218
_cell_length_c 8.212113
_cell_angle_alpha 90.000000
_cell_angle_beta 90.000000
_cell_angle_gamma 90.000000
_cell_volume 1969.901085
_symmetry_space_group_name_H-M "P N M A"
_symmetry_group_IT_number 62
_symmetry_cell_setting 'orthorhombic'
loop_
_space_group_symop_operation_xyz
x,y,z
1/2-x,-y,1/2+z
1/2+x,1/2-y,1/2-z
-x,1/2+y,-z
-x,-y,-z
1/2+x,y,1/2-z
1/2-x,1/2+y,1/2+z
x,1/2-y,z
loop_
_atom_site_type_symbol
_atom_site_label
_atom_site_fract_x
_atom_site_fract_y
_atom_site_fract_z
Si Si1 0.611038 0.129397 0.302196
Si Si2 0.966952 0.461236 0.330931
Si Si3 0.361871 0.865937 0.311852
Si Si4 0.320157 0.366935 0.172483
Si Si5 0.265144 0.494721 0.865216
O O1 0.615808 0.250000 0.243632
O O2 0.629801 0.130848 0.492872
O O3 0.665555 0.050300 0.212415
O O4 0.531637 0.084132 0.275114
O O5 0.921536 0.557129 0.258555
O O6 0.905268 0.374663 0.347978
O O7 0.000000 0.500000 0.500000
O O8 0.373462 0.750000 0.251444
O O9 0.280351 0.903092 0.276960
O O10 0.294050 0.250000 0.151834
O O11 0.294162 0.413319 0.346100
O O12 0.287556 0.442119 0.034006
#
# Coordination Sequence:
#
# PCOD9467011 Si02
#       5
#     8   8   8   8   8
#     4  11  22  41  64  90 127 170 209 260 321 377
#     4  11  23  41  63  95 128 163 212 262 312 385
#     4  10  23  42  65  90 126 171 211 259 318 375
#     4  11  23  42  64  91 130 168 208 265 321 374
#     4  11  21  39  65  93 124 162 215 260 312 377
#
# _framework density 20.305586999999999
#
# number of rings (size 3 to 8) (size 9 to 14) (size 15 to 20)
#    0.000    1.200    4.000    2.400    0.000    1.600 
#    0.000    3.000    0.000    1.200    0.000    0.000 
#    0.000    0.000    0.000    0.000    0.000    0.000 
#
# Total GULP energy -222997.406496 kJ/mol
# GULP energy per Si atom -5574.935162 kJ/mol
# Density = 2.025937 g / cm^3
# Si number density = 20.305587 Si / 1000 Ang^3
#
#
#
# Elastic Constant Matrix: (Units=GPa)
#
#
# Indices 1 2 3 4 5 6 
#
# 1 149.7704 48.4141 21.0827 0.0000 0.0000 0.0000
# 2 48.4141 160.4235 51.8204 0.0000 0.0000 0.0000
# 3 21.0827 51.8204 36.2889 0.0000 0.0000 0.0000
# 4 0.0000 0.0000 0.0000 25.2021 0.0000 0.0000
# 5 0.0000 0.0000 0.0000 0.0000 37.8635 0.0000
# 6 0.0000 0.0000 0.0000 0.0000 0.0000 25.4833
#
#
#
# Elastic Compliance Matrix: (Units=1/GPa)
#
#
# Indices 1 2 3 4 5 6 
#
# 1 0.007483 -0.001585 -0.002084 0.000000 0.000000 0.000000
# 2 -0.001585 0.011907 -0.016082 0.000000 0.000000 0.000000
# 3 -0.002084 -0.016082 0.051732 0.000000 0.000000 0.000000
# 4 0.000000 0.000000 0.000000 0.039679 0.000000 0.000000
# 5 0.000000 0.000000 0.000000 0.000000 0.026411 0.000000
# 6 0.000000 0.000000 0.000000 0.000000 0.000000 0.039241
#
#
# Mechanical properties :
#
#
# Convention : Reuss Voigt Hill
#
# Bulk Modulus (GPa) = 31.62545 65.45744 48.54145
# Shear Modulus (GPa) = 22.07573 32.72082 27.39828
#
# Velocity S-wave (km/s) = 3.30081 4.01860 3.67726
# Velocity P-wave (km/s) = 5.48960 7.33747 6.47974
#
# Compressibility (1/GPa) = 0.03162010
#
# Stress axis : x y z
#
# Youngs Moduli (GPa) = 133.64363 83.98686 19.33050
#
# Poissons Ratio (x) = 0.13313 0.04028
# Poissons Ratio (y) = 0.21184 0.31087
# Poissons Ratio (z) = 0.27846 1.35065
#
# Static dielectric constant tensor:
#      x y z
#    x 1.743830 0.000000 0.000000 
#    y 0.000000 1.762020 0.000000 
#    z 0.000000 0.000000 1.740690 
# 
# From -- ./inp_files/7267.got.cif
#   From: 2010.05.17/outbox.cif.g08.bks.cpg/sg62_4_cif.got.tgz:7267.got - 2010.06.03 15:25:27.
