data_PCOD9467067
_publ_section_title
;
Structure prediction by ZEFSAII (Michael W. Deem and Ramdas Pophale) SiO2 
 PCOD9467067
Probable space group: P N M A
;
_chemical_formula_sum "Si O2"
_cell_formula_units_Z 36
_cell_length_a 4.936884
_cell_length_b 15.333904
_cell_length_c 19.265974
_cell_angle_alpha 90.000000
_cell_angle_beta 90.000000
_cell_angle_gamma 90.000000
_cell_volume 1458.467086
_symmetry_space_group_name_H-M "P N M A"
_symmetry_group_IT_number 62
_symmetry_cell_setting 'orthorhombic'
loop_
_space_group_symop_operation_xyz
x,y,z
1/2-x,-y,1/2+z
1/2+x,1/2-y,1/2-z
-x,1/2+y,-z
-x,-y,-z
1/2+x,y,1/2-z
1/2-x,1/2+y,1/2+z
x,1/2-y,z
loop_
_atom_site_type_symbol
_atom_site_label
_atom_site_fract_x
_atom_site_fract_y
_atom_site_fract_z
Si Si1 0.837734 0.846002 0.797995
Si Si2 0.322738 0.603769 0.298640
Si Si3 0.595058 0.250000 0.585936
Si Si4 0.316628 0.085753 0.511844
Si Si5 0.987577 0.971518 0.614232
O O1 0.140693 0.849843 0.769295
O O2 0.797822 0.750000 0.830277
O O3 0.725916 0.921055 0.846943
O O4 0.620900 0.612658 0.266671
O O5 0.300691 0.675423 0.358077
O O6 0.228059 0.514081 0.333808
O O7 0.470872 0.171675 0.535690
O O8 0.150188 0.093530 0.440643
O O9 0.500000 0.000000 0.500000
O O10 0.112695 0.052725 0.571575
#
# Coordination Sequence:
#
# PCOD9467067 Si02
#       5
#     8   8   4   8   8
#     4  10  23  43  70 108 147 190 249 314 373 450
#     4  12  26  46  77 110 149 198 251 322 386 459
#     4  12  26  50  76 108 158 194 264 314 394 466
#     4  11  26  50  72 111 152 203 256 322 374 474
#     4  11  25  46  74 109 151 203 261 309 398 459
#
# _framework density 24.683453
#
# number of rings (size 3 to 8) (size 9 to 14) (size 15 to 20)
#    0.000    0.889    2.222    3.333    4.667    2.667 
#    2.000    0.000    0.000    0.000    0.000    0.000 
#    0.000    0.000    0.000    0.000    0.000    0.000 
#
# Total GULP energy -200684.186561 kJ/mol
# GULP energy per Si atom -5574.560738 kJ/mol
# Density = 2.462727 g / cm^3
# Si number density = 24.683453 Si / 1000 Ang^3
#
#
#
# Elastic Constant Matrix: (Units=GPa)
#
#
# Indices 1 2 3 4 5 6 
#
# 1 50.5135 26.7013 13.5860 0.0000 0.0000 0.0000
# 2 26.7013 171.7485 47.2172 0.0000 0.0000 0.0000
# 3 13.5860 47.2172 52.5080 0.0000 0.0000 0.0000
# 4 0.0000 0.0000 0.0000 49.4248 0.0000 0.0000
# 5 0.0000 0.0000 0.0000 0.0000 35.0074 0.0000
# 6 0.0000 0.0000 0.0000 0.0000 0.0000 7.1628
#
#
#
# Elastic Compliance Matrix: (Units=1/GPa)
#
#
# Indices 1 2 3 4 5 6 
#
# 1 0.022038 -0.002469 -0.003482 0.000000 0.000000 0.000000
# 2 -0.002469 0.008011 -0.006565 0.000000 0.000000 0.000000
# 3 -0.003482 -0.006565 0.025849 0.000000 0.000000 0.000000
# 4 0.000000 0.000000 0.000000 0.020233 0.000000 0.000000
# 5 0.000000 0.000000 0.000000 0.000000 0.028565 0.000000
# 6 0.000000 0.000000 0.000000 0.000000 0.000000 0.139609
#
#
# Mechanical properties :
#
#
# Convention : Reuss Voigt Hill
#
# Bulk Modulus (GPa) = 32.39760 49.97546 41.18653
# Shear Modulus (GPa) = 17.88093 30.80338 24.34215
#
# Velocity S-wave (km/s) = 2.69441 3.53645 3.14375
# Velocity P-wave (km/s) = 4.77844 6.07995 5.46806
#
# Compressibility (1/GPa) = 0.03086648
#
# Stress axis : x y z
#
# Youngs Moduli (GPa) = 45.37555 124.82505 38.68578
#
# Poissons Ratio (x) = 0.30819 0.13471
# Poissons Ratio (y) = 0.11203 0.25398
# Poissons Ratio (z) = 0.15800 0.81950
#
# Static dielectric constant tensor:
#      x y z
#    x 2.008360 0.000000 0.000000 
#    y 0.000000 1.949950 0.000000 
#    z 0.000000 0.000000 1.980520 
# 
# From -- ./inp_files/25203.got.cif
#   From: 2010.05.17/outbox.cif.g08.bks.cpg/sg62_13_cif.got.tgz:25203.got - 2010.06.03 15:25:27.
