data_PCOD9467449
_publ_section_title
;
Structure prediction by ZEFSAII (Michael W. Deem and Ramdas Pophale) SiO2 
 PCOD9467449
Probable space group: P N M A
;
_chemical_formula_sum "Si O2"
_cell_formula_units_Z 40
_cell_length_a 8.025795
_cell_length_b 15.995305
_cell_length_c 12.003528
_cell_angle_alpha 90.000000
_cell_angle_beta 90.000000
_cell_angle_gamma 90.000000
_cell_volume 1540.953374
_symmetry_space_group_name_H-M "P N M A"
_symmetry_group_IT_number 62
_symmetry_cell_setting 'orthorhombic'
loop_
_space_group_symop_operation_xyz
x,y,z
1/2-x,-y,1/2+z
1/2+x,1/2-y,1/2-z
-x,1/2+y,-z
-x,-y,-z
1/2+x,y,1/2-z
1/2-x,1/2+y,1/2+z
x,1/2-y,z
loop_
_atom_site_type_symbol
_atom_site_label
_atom_site_fract_x
_atom_site_fract_y
_atom_site_fract_z
Si Si1 0.638221 0.847258 0.733152
Si Si2 0.825489 0.867819 0.394286
Si Si3 0.428731 0.939872 0.886032
Si Si4 0.487774 0.602130 0.510276
Si Si5 0.185409 0.622553 0.350822
O O1 0.632031 0.750000 0.762090
O O2 0.603829 0.907447 0.838408
O O3 0.806295 0.869441 0.666620
O O4 0.501587 0.871510 0.638371
O O5 0.880458 0.941539 0.483102
O O6 0.645132 0.852093 0.450533
O O7 0.772881 0.860178 0.265996
O O8 0.014432 0.833066 0.385818
O O9 0.371993 0.026272 0.833359
O O10 0.500000 0.500000 0.500000
O O11 0.322617 0.628711 0.446189
#
# Coordination Sequence:
#
# PCOD9467449 Si02
#       5
#     8   8   8   8   8
#     4  11  24  42  64  91 133 176 220 277 337 406
#     4  11  23  36  60  99 130 173 217 280 336 396
#     4  11  24  38  61  95 132 174 221 267 338 401
#     4  11  22  41  63  96 130 173 225 282 339 391
#     4  12  21  38  65  96 139 165 220 283 338 390
#
# _framework density 25.957958000000001
#
# number of rings (size 3 to 8) (size 9 to 14) (size 15 to 20)
#    0.000    0.800    6.000    3.600    2.800    0.000 
#    0.000    0.000    0.000    6.000    0.000    0.000 
#    0.000    0.000    0.000    0.000    0.000    0.000 
#
# Total GULP energy -222906.150200 kJ/mol
# GULP energy per Si atom -5572.653755 kJ/mol
# Density = 2.589888 g / cm^3
# Si number density = 25.957958 Si / 1000 Ang^3
#
#
#
# Elastic Constant Matrix: (Units=GPa)
#
#
# Indices 1 2 3 4 5 6 
#
# 1 184.5941 2.6825 40.8645 0.0000 0.0000 0.0000
# 2 2.6825 110.6599 -2.2796 0.0000 0.0000 0.0000
# 3 40.8645 -2.2796 126.1737 0.0000 0.0000 0.0000
# 4 0.0000 0.0000 0.0000 41.3173 0.0000 0.0000
# 5 0.0000 0.0000 0.0000 0.0000 73.4144 0.0000
# 6 0.0000 0.0000 0.0000 0.0000 0.0000 -33.7288
#
#
#
# Elastic Compliance Matrix: (Units=1/GPa)
#
#
# Indices 1 2 3 4 5 6 
#
# 1 0.005839 -0.000181 -0.001894 0.000000 0.000000 0.000000
# 2 -0.000181 0.009046 0.000222 0.000000 0.000000 0.000000
# 3 -0.001894 0.000222 0.008543 0.000000 0.000000 0.000000
# 4 0.000000 0.000000 0.000000 0.024203 0.000000 0.000000
# 5 0.000000 0.000000 0.000000 0.000000 0.013621 0.000000
# 6 0.000000 0.000000 0.000000 0.000000 0.000000 -0.029648
#
#
# Mechanical properties :
#
#
# Convention : Reuss Voigt Hill
#
# Bulk Modulus (GPa) = 50.70517 55.99581 53.35049
# Shear Modulus (GPa) = 119.37639 41.54459 80.46049
#
# Velocity S-wave (km/s) = 6.78883 4.00491 5.57349
# Velocity P-wave (km/s) = 9.00149 6.55777 7.87500
#
# Compressibility (1/GPa) = 0.01972186
#
# Stress axis : x y z
#
# Youngs Moduli (GPa) = 171.25333 110.55044 117.05267
#
# Poissons Ratio (x) = 0.01996 0.22175
# Poissons Ratio (y) = 0.03092 -0.02598
# Poissons Ratio (z) = 0.32443 -0.02453
#
# Static dielectric constant tensor:
#      x y z
#    x 2.107230 0.000000 0.000000 
#    y 0.000000 2.090650 0.000000 
#    z 0.000000 0.000000 2.044260 
# 
# From -- ./inp_files/11212.got.cif
#   From: 2010.05.17/outbox.cif.g08.bks.cpg/sg62_6_cif.got.tgz:11212.got - 2010.06.03 15:25:27.
