data_PCOD9467481
_publ_section_title
;
Structure prediction by ZEFSAII (Michael W. Deem and Ramdas Pophale) SiO2 
 PCOD9467481
Probable space group: P N M A
;
_chemical_formula_sum "Si O2"
_cell_formula_units_Z 64
_cell_length_a 15.799901
_cell_length_b 7.759366
_cell_length_c 25.366297
_cell_angle_alpha 90.000000
_cell_angle_beta 90.000000
_cell_angle_gamma 90.000000
_cell_volume 3109.837357
_symmetry_space_group_name_H-M "P N M A"
_symmetry_group_IT_number 62
_symmetry_cell_setting 'orthorhombic'
loop_
_space_group_symop_operation_xyz
x,y,z
1/2-x,-y,1/2+z
1/2+x,1/2-y,1/2-z
-x,1/2+y,-z
-x,-y,-z
1/2+x,y,1/2-z
1/2-x,1/2+y,1/2+z
x,1/2-y,z
loop_
_atom_site_type_symbol
_atom_site_label
_atom_site_fract_x
_atom_site_fract_y
_atom_site_fract_z
Si Si1 0.596789 0.461058 0.240631
Si Si2 0.595668 0.545074 0.513956
Si Si3 0.649314 0.047283 0.126182
Si Si4 0.595668 0.454926 0.013956
Si Si5 0.750000 0.547012 0.937115
Si Si6 0.250000 0.461438 0.183259
Si Si7 0.096789 0.538942 0.759369
Si Si8 0.149314 0.547283 0.873818
O O1 0.599915 0.250000 0.240818
O O2 0.621906 0.524230 0.182445
O O3 0.666120 0.514889 0.284108
O O4 0.500000 0.511651 0.250000
O O5 0.500000 0.500000 0.500000
O O6 0.603190 0.750000 0.518010
O O7 0.666358 0.495198 0.471092
O O8 0.614809 0.470152 0.572012
O O9 0.623847 0.250000 0.127404
O O10 0.750000 0.041006 0.123076
O O11 0.614809 0.970152 0.072012
O O12 0.603190 0.250000 0.018010
O O13 0.666358 0.504802 0.971092
O O14 0.500000 0.500000 0.000000
O O15 0.750000 0.750000 0.930364
O O16 0.750000 0.475339 0.877305
O O17 0.250000 0.250000 0.182979
O O18 0.333880 0.514889 0.215892
O O19 0.099915 0.750000 0.759182
O O20 0.121906 0.475770 0.817555
O O21 0.123846 0.750000 0.872596
#
# Coordination Sequence:
#
# PCOD9467481 Si02
#       8
#     8   8   8   8   8   8   8   8
#     4   9  16  26  45  73 107 141 174 224 287 330
#     4  11  23  39  59  85 116 152 194 238 287 340
#     4   9  16  30  51  75 106 142 182 232 281 327
#     4  11  23  39  59  85 116 152 194 238 287 340
#     4  11  23  38  57  85 121 155 190 231 282 346
#     4   9  18  30  45  75 113 143 178 227 280 336
#     4   9  16  26  45  73 107 141 174 224 287 330
#     4   9  16  30  51  75 106 142 182 232 281 327
#
# _framework density 20.579854999999998
#
# number of rings (size 3 to 8) (size 9 to 14) (size 15 to 20)
#    0.000    2.250    2.500    1.125    3.500    0.000 
#    0.000    0.000    0.000    0.000    0.000   12.250 
#    0.000    0.000    0.000    0.000    0.000    0.000 
#
# Total GULP energy -357057.442056 kJ/mol
# GULP energy per Si atom -5579.022532 kJ/mol
# Density = 2.053301 g / cm^3
# Si number density = 20.579855 Si / 1000 Ang^3
#
#
#
# Elastic Constant Matrix: (Units=GPa)
#
#
# Indices 1 2 3 4 5 6 
#
# 1 130.4462 6.2614 109.7982 0.0000 0.0000 0.0000
# 2 6.2614 34.9453 11.2756 0.0000 0.0000 0.0000
# 3 109.7982 11.2756 230.6087 0.0000 0.0000 0.0000
# 4 0.0000 0.0000 0.0000 16.5026 0.0000 0.0000
# 5 0.0000 0.0000 0.0000 0.0000 41.3454 0.0000
# 6 0.0000 0.0000 0.0000 0.0000 0.0000 18.4187
#
#
#
# Elastic Compliance Matrix: (Units=1/GPa)
#
#
# Indices 1 2 3 4 5 6 
#
# 1 0.012797 -0.000332 -0.006077 0.000000 0.000000 0.000000
# 2 -0.000332 0.029083 -0.001264 0.000000 0.000000 0.000000
# 3 -0.006077 -0.001264 0.007291 0.000000 0.000000 0.000000
# 4 0.000000 0.000000 0.000000 0.060597 0.000000 0.000000
# 5 0.000000 0.000000 0.000000 0.000000 0.024186 0.000000
# 6 0.000000 0.000000 0.000000 0.000000 0.000000 0.054293
#
#
# Mechanical properties :
#
#
# Convention : Reuss Voigt Hill
#
# Bulk Modulus (GPa) = 29.56284 72.29673 50.92979
# Shear Modulus (GPa) = 23.27013 33.16434 28.21724
#
# Velocity S-wave (km/s) = 3.36627 4.01870 3.70687
# Velocity P-wave (km/s) = 5.43187 7.53255 6.56675
#
# Compressibility (1/GPa) = 0.03382624
#
# Stress axis : x y z
#
# Youngs Moduli (GPa) = 78.14550 34.38381 137.14921
#
# Poissons Ratio (x) = 0.01142 0.83339
# Poissons Ratio (y) = 0.02596 0.17334
# Poissons Ratio (z) = 0.47485 0.04346
#
# Static dielectric constant tensor:
#      x y z
#    x 1.679910 0.000000 0.000000 
#    y 0.000000 1.797920 0.000000 
#    z 0.000000 0.000000 1.806420 
# 
# From -- ./inp_files/29780.got.cif
#   From: 2010.05.17/outbox.cif.g08.bks.cpg/sg62_15_cif.got.tgz:29780.got - 2010.06.03 15:25:27.
