data_PCOD9467931
_publ_section_title
;
Structure prediction by ZEFSAII (Michael W. Deem and Ramdas Pophale) SiO2 
 PCOD9467931
Probable space group: P N M A
;
_chemical_formula_sum "Si O2"
_cell_formula_units_Z 64
_cell_length_a 24.000000
_cell_length_b 9.000000
_cell_length_c 15.000000
_cell_angle_alpha 90.000000
_cell_angle_beta 90.000000
_cell_angle_gamma 90.000000
_cell_volume 3240.000000
_symmetry_space_group_name_H-M "P N M A"
_symmetry_group_IT_number 62
_symmetry_cell_setting 'orthorhombic'
loop_
_space_group_symop_operation_xyz
x,y,z
1/2-x,-y,1/2+z
1/2+x,1/2-y,1/2-z
-x,1/2+y,-z
-x,-y,-z
1/2+x,y,1/2-z
1/2-x,1/2+y,1/2+z
x,1/2-y,z
loop_
_atom_site_type_symbol
_atom_site_label
_atom_site_fract_x
_atom_site_fract_y
_atom_site_fract_z
Si Si1 0.601128 0.423834 0.105876
Si Si2 0.103094 0.928588 0.588454
Si Si3 0.336398 0.572189 0.382147
Si Si4 0.062379 0.574701 0.217057
Si Si5 0.060157 0.426185 0.757232
Si Si6 0.346516 0.571167 0.592751
Si Si7 0.228851 0.422763 0.405044
Si Si8 0.225977 0.572532 0.596190
O O1 0.585873 0.250000 0.100684
O O2 0.570193 0.508171 0.184333
O O3 0.666787 0.431619 0.132755
O O4 0.594050 0.497819 0.008408
O O5 0.102057 0.750000 0.579447
O O6 0.164726 0.978825 0.624157
O O7 0.062248 0.984746 0.664850
O O8 0.326673 0.750000 0.377462
O O9 0.388813 0.533734 0.321331
O O10 0.348049 0.535930 0.486694
O O11 0.281319 0.484115 0.351090
O O12 0.073100 0.750000 0.219780
O O13 0.104150 0.499586 0.148168
O O14 0.998024 0.548928 0.193122
O O15 0.064098 0.250000 0.736601
O O16 0.349275 0.750000 0.600424
O O17 0.285948 0.519636 0.630607
O O18 0.238433 0.250000 0.428944
O O19 0.227351 0.526109 0.492402
O O20 0.226295 0.750000 0.605081
#
# Coordination Sequence:
#
# PCOD9467931 Si02
#       8
#     8   8   8   8   8   8   8   8
#     4  10  21  38  59  82 112 147 179 219 274 328
#     4  10  20  36  60  87 112 141 180 224 271 325
#     4   9  19  37  59  81 110 147 180 218 273 329
#     4  11  24  39  55  78 108 144 190 235 269 315
#     4  10  23  41  56  76 109 147 188 230 272 320
#     4   9  18  35  58  82 111 145 177 217 273 327
#     4   9  17  30  53  85 113 137 173 220 268 323
#     4   8  16  32  54  81 113 144 173 212 268 331
#
# _framework density 19.753086
#
# number of rings (size 3 to 8) (size 9 to 14) (size 15 to 20)
#    0.000    2.500    0.000    2.250    0.000    7.500 
#    0.000    3.750    0.000    0.000    0.000    0.000 
#    0.000    0.000    0.000    0.000    0.000    0.000 
#
# Total GULP energy -356890.075490 kJ/mol
# GULP energy per Si atom -5576.407430 kJ/mol
# Density = 1.970813 g / cm^3
# Si number density = 19.753086 Si / 1000 Ang^3
#
#
#
# Elastic Constant Matrix: (Units=GPa)
#
#
# Indices 1 2 3 4 5 6 
#
# 1 41.2506 -7.1484 10.2672 0.0000 0.0000 0.0000
# 2 -7.1484 -17.0771 7.2550 0.0000 0.0000 0.0000
# 3 10.2672 7.2550 45.9015 0.0000 0.0000 0.0000
# 4 0.0000 0.0000 0.0000 20.6490 0.0000 0.0000
# 5 0.0000 0.0000 0.0000 0.0000 -37.2189 0.0000
# 6 0.0000 0.0000 0.0000 0.0000 0.0000 22.6389
#
#
#
# Elastic Compliance Matrix: (Units=1/GPa)
#
#
# Indices 1 2 3 4 5 6 
#
# 1 0.023161 -0.011148 -0.003419 0.000000 0.000000 0.000000
# 2 -0.011148 -0.049508 0.010319 0.000000 0.000000 0.000000
# 3 -0.003419 0.010319 0.020920 0.000000 0.000000 0.000000
# 4 0.000000 0.000000 0.000000 0.048428 0.000000 0.000000
# 5 0.000000 0.000000 0.000000 0.000000 -0.026868 0.000000
# 6 0.000000 0.000000 0.000000 0.000000 0.000000 0.044172
#
#
# Mechanical properties :
#
#
# Convention : Reuss Voigt Hill
#
# Bulk Modulus (GPa) = -71.82489 10.09140 -30.86675
# Shear Modulus (GPa) = 77.93067 5.19387 41.56227
#
# Velocity S-wave (km/s) = 6.28793 1.62330 4.59201
# Velocity P-wave (km/s) = 4.03449 2.93825 3.52920
#
# Compressibility (1/GPa) = -0.01392275
#
# Stress axis : x y z
#
# Youngs Moduli (GPa) = 43.17571 -20.19875 47.80212
#
# Poissons Ratio (x) = -0.22517 0.16342
# Poissons Ratio (y) = 0.48131 -0.49325
# Poissons Ratio (z) = 0.14760 0.20842
#
# Static dielectric constant tensor:
#      x y z
#    x 1.761600 0.000000 0.000000 
#    y 0.000000 1.663240 0.000000 
#    z 0.000000 0.000000 1.668320 
# 
# From -- ./inp_files/20992.got.cif
#   From: 2010.05.17/outbox.ucp.g08.bks.cvg/sg62_11_cif.got.tgz:20992.got - 2010.06.11 16:29:25.
