data_PCOD9467405
_publ_section_title
;
Structure prediction by ZEFSAII (Michael W. Deem and Ramdas Pophale) SiO2 
 PCOD9467405
Probable space group: P N M A
;
_chemical_formula_sum "Si O2"
_cell_formula_units_Z 32
_cell_length_a 7.412998
_cell_length_b 19.018199
_cell_length_c 10.365309
_cell_angle_alpha 90.000000
_cell_angle_beta 90.000000
_cell_angle_gamma 90.000000
_cell_volume 1461.320658
_symmetry_space_group_name_H-M "P N M A"
_symmetry_group_IT_number 62
_symmetry_cell_setting 'orthorhombic'
loop_
_space_group_symop_operation_xyz
x,y,z
1/2-x,-y,1/2+z
1/2+x,1/2-y,1/2-z
-x,1/2+y,-z
-x,-y,-z
1/2+x,y,1/2-z
1/2-x,1/2+y,1/2+z
x,1/2-y,z
loop_
_atom_site_type_symbol
_atom_site_label
_atom_site_fract_x
_atom_site_fract_y
_atom_site_fract_z
Si Si1 0.456464 0.900040 0.085882
Si Si2 0.085541 0.532692 0.153950
Si Si3 0.688685 0.402085 0.452909
Si Si4 0.807916 0.750000 0.340185
Si Si5 0.595441 0.250000 0.547570
O O1 0.560868 0.930421 0.209917
O O2 0.265013 0.939010 0.082379
O O3 0.596392 0.907910 0.969721
O O4 0.410407 0.819361 0.113992
O O5 0.915330 0.558186 0.070434
O O6 0.113914 0.448934 0.164306
O O7 0.636936 0.320670 0.468202
O O8 0.797138 0.750000 0.184184
O O9 0.610898 0.750000 0.404046
#
# Coordination Sequence:
#
# PCOD9467405 Si02
#       5
#     8   8   8   4   4
#     4  12  20  38  58  84 119 148 184 235 282 340
#     4  11  22  36  55  87 112 150 187 226 283 339
#     4  11  23  36  57  82 116 149 187 229 283 331
#     4  12  20  32  56  87 110 148 179 226 308 334
#     4  12  20  36  54  81 120 142 185 238 278 344
#
# _framework density 21.897998999999999
#
# number of rings (size 3 to 8) (size 9 to 14) (size 15 to 20)
#    0.000    0.500    7.500    3.000    0.000    0.000 
#    0.000    0.000    0.000    1.500    0.000    0.000 
#    0.000    0.000    0.000    0.000    0.000    0.000 
#
# Total GULP energy -178928.042120 kJ/mol
# GULP energy per Si atom -5591.501316 kJ/mol
# Density = 2.184816 g / cm^3
# Si number density = 21.897999 Si / 1000 Ang^3
#
#
#
# Elastic Constant Matrix: (Units=GPa)
#
#
# Indices 1 2 3 4 5 6 
#
# 1 148.9724 32.9308 17.4012 0.0000 0.0000 0.0000
# 2 32.9308 133.6845 22.2745 0.0000 0.0000 0.0000
# 3 17.4012 22.2745 13.7699 0.0000 0.0000 0.0000
# 4 0.0000 0.0000 0.0000 12.7125 0.0000 0.0000
# 5 0.0000 0.0000 0.0000 0.0000 12.1239 0.0000
# 6 0.0000 0.0000 0.0000 0.0000 0.0000 28.4888
#
#
#
# Elastic Compliance Matrix: (Units=1/GPa)
#
#
# Indices 1 2 3 4 5 6 
#
# 1 0.007890 -0.000386 -0.009345 0.000000 0.000000 0.000000
# 2 -0.000386 0.010259 -0.016107 0.000000 0.000000 0.000000
# 3 -0.009345 -0.016107 0.110488 0.000000 0.000000 0.000000
# 4 0.000000 0.000000 0.000000 0.078663 0.000000 0.000000
# 5 0.000000 0.000000 0.000000 0.000000 0.082482 0.000000
# 6 0.000000 0.000000 0.000000 0.000000 0.000000 0.035102
#
#
# Mechanical properties :
#
#
# Convention : Reuss Voigt Hill
#
# Bulk Modulus (GPa) = 12.99403 49.07109 31.03256
# Shear Modulus (GPa) = 12.43121 25.58638 19.00879
#
# Velocity S-wave (km/s) = 2.38520 3.42195 2.94948
# Velocity P-wave (km/s) = 3.67864 6.17013 5.07951
#
# Compressibility (1/GPa) = 0.07695840
#
# Stress axis : x y z
#
# Youngs Moduli (GPa) = 126.74810 97.47252 9.05079
#
# Poissons Ratio (x) = 0.03766 0.08458
# Poissons Ratio (y) = 0.04897 0.14579
# Poissons Ratio (z) = 1.18449 1.57003
#
# Static dielectric constant tensor:
#      x y z
#    x 1.816610 0.000000 0.000000 
#    y 0.000000 1.836190 0.000000 
#    z 0.000000 0.000000 2.271300 
# 
# From -- ./inp_files/11029.got.cif
#   From: 2010.05.17/outbox.cif.g08.bks.cpg/sg62_6_cif.got.tgz:11029.got - 2010.06.03 15:25:27.
