data_PCOD9467493
_publ_section_title
;
Structure prediction by ZEFSAII (Michael W. Deem and Ramdas Pophale) SiO2 
 PCOD9467493
Probable space group: P N M A
;
_chemical_formula_sum "Si O2"
_cell_formula_units_Z 32
_cell_length_a 8.934095
_cell_length_b 29.504221
_cell_length_c 5.127634
_cell_angle_alpha 90.000000
_cell_angle_beta 90.000000
_cell_angle_gamma 90.000000
_cell_volume 1351.611061
_symmetry_space_group_name_H-M "P N M A"
_symmetry_group_IT_number 62
_symmetry_cell_setting 'orthorhombic'
loop_
_space_group_symop_operation_xyz
x,y,z
1/2-x,-y,1/2+z
1/2+x,1/2-y,1/2-z
-x,1/2+y,-z
-x,-y,-z
1/2+x,y,1/2-z
1/2-x,1/2+y,1/2+z
x,1/2-y,z
loop_
_atom_site_type_symbol
_atom_site_label
_atom_site_fract_x
_atom_site_fract_y
_atom_site_fract_z
Si Si1 0.224573 0.697025 0.409682
Si Si2 0.600309 0.164829 0.102838
Si Si3 0.895965 0.475684 0.788216
Si Si4 0.153507 0.435946 0.437143
O O1 0.195512 0.750000 0.357404
O O2 0.344392 0.692376 0.645310
O O3 0.069049 0.675133 0.511629
O O4 0.293664 0.675496 0.146518
O O5 0.620166 0.112105 0.183742
O O6 0.795538 0.519815 0.722991
O O7 0.790949 0.433968 0.865361
O O8 0.004616 0.454361 0.573473
O O9 0.000000 0.500000 0.000000
#
# Coordination Sequence:
#
# PCOD9467493 Si02
#       4
#     8   8   8   8
#     4  12  26  49  73 106 140 184 232 302 373 425
#     4  12  28  45  79 105 144 186 242 298 347 444
#     4  11  23  40  63  92 137 181 218 281 329 402
#     4  11  25  41  66  97 134 181 234 273 343 399
#
# _framework density 23.675447999999999
#
# number of rings (size 3 to 8) (size 9 to 14) (size 15 to 20)
#    0.000    0.500    2.500    5.250    7.000    0.000 
#    0.000    0.000    0.000    0.000    0.000    0.000 
#    0.000    0.000    0.000    0.000    0.000    0.000 
#
# Total GULP energy -178793.830700 kJ/mol
# GULP energy per Si atom -5587.307209 kJ/mol
# Density = 2.362156 g / cm^3
# Si number density = 23.675448 Si / 1000 Ang^3
#
#
#
# Elastic Constant Matrix: (Units=GPa)
#
#
# Indices 1 2 3 4 5 6 
#
# 1 80.0794 -7.5507 -1.5874 0.0000 0.0000 0.0000
# 2 -7.5507 87.8755 0.5750 0.0000 0.0000 0.0000
# 3 -1.5874 0.5750 59.9228 0.0000 0.0000 0.0000
# 4 0.0000 0.0000 0.0000 29.8737 0.0000 0.0000
# 5 0.0000 0.0000 0.0000 0.0000 41.9917 0.0000
# 6 0.0000 0.0000 0.0000 0.0000 0.0000 32.1040
#
#
#
# Elastic Compliance Matrix: (Units=1/GPa)
#
#
# Indices 1 2 3 4 5 6 
#
# 1 0.012596 0.001080 0.000323 0.000000 0.000000 0.000000
# 2 0.001080 0.011473 -0.000081 0.000000 0.000000 0.000000
# 3 0.000323 -0.000081 0.016697 0.000000 0.000000 0.000000
# 4 0.000000 0.000000 0.000000 0.033474 0.000000 0.000000
# 5 0.000000 0.000000 0.000000 0.000000 0.023814 0.000000
# 6 0.000000 0.000000 0.000000 0.000000 0.000000 0.031149
#
#
# Mechanical properties :
#
#
# Convention : Reuss Voigt Hill
#
# Bulk Modulus (GPa) = 23.03592 23.41683 23.22638
# Shear Modulus (GPa) = 35.45351 36.55661 36.00506
#
# Velocity S-wave (km/s) = 3.87393 3.93373 3.90394
# Velocity P-wave (km/s) = 5.45534 5.52671 5.49114
#
# Compressibility (1/GPa) = 0.04341047
#
# Stress axis : x y z
#
# Youngs Moduli (GPa) = 79.39112 87.16056 59.88924
#
# Poissons Ratio (x) = -0.09415 -0.01936
# Poissons Ratio (y) = -0.08576 0.00488
# Poissons Ratio (z) = -0.02567 0.00710
#
# Static dielectric constant tensor:
#      x y z
#    x 2.008590 0.000000 0.000000 
#    y 0.000000 2.114230 0.000000 
#    z 0.000000 0.000000 2.358510 
# 
# From -- ./inp_files/185.got.cif
#   From: 2010.05.17/outbox.cif.g08.bks.cpg/sg62_1_cif.got.tgz:185.got - 2010.06.03 15:25:27.
