data_PCOD9467795
_publ_section_title
;
Structure prediction by ZEFSAII (Michael W. Deem and Ramdas Pophale) SiO2 
 PCOD9467795
Probable space group: P N M A
;
_chemical_formula_sum "Si O2"
_cell_formula_units_Z 56
_cell_length_a 15.000000
_cell_length_b 9.000000
_cell_length_c 21.000000
_cell_angle_alpha 90.000000
_cell_angle_beta 90.000000
_cell_angle_gamma 90.000000
_cell_volume 2835.000000
_symmetry_space_group_name_H-M "P N M A"
_symmetry_group_IT_number 62
_symmetry_cell_setting 'orthorhombic'
loop_
_space_group_symop_operation_xyz
x,y,z
1/2-x,-y,1/2+z
1/2+x,1/2-y,1/2-z
-x,1/2+y,-z
-x,-y,-z
1/2+x,y,1/2-z
1/2-x,1/2+y,1/2+z
x,1/2-y,z
loop_
_atom_site_type_symbol
_atom_site_label
_atom_site_fract_x
_atom_site_fract_y
_atom_site_fract_z
Si Si1 0.598533 0.422031 0.214923
Si Si2 0.530264 0.917066 0.562038
Si Si3 0.470999 0.921682 0.308021
Si Si4 0.237983 0.078779 0.807540
Si Si5 0.508913 0.581868 0.097767
Si Si6 0.241074 0.585277 0.939484
Si Si7 0.363907 0.417654 0.026817
O O1 0.601545 0.250000 0.202887
O O2 0.527244 0.466618 0.266696
O O3 0.695810 0.480925 0.233778
O O4 0.565021 0.506319 0.152449
O O5 0.493016 0.750000 0.570563
O O6 0.636082 0.901700 0.555609
O O7 0.500000 0.000000 0.500000
O O8 0.513365 0.026520 0.620374
O O9 0.496023 0.750000 0.297585
O O10 0.366030 0.937472 0.293426
O O11 0.263100 0.250000 0.802378
O O12 0.253138 0.023347 0.879757
O O13 0.486470 0.750000 0.115252
O O14 0.420359 0.489825 0.082935
O O15 0.568873 0.585119 0.033981
O O16 0.279376 0.750000 0.926857
O O17 0.283743 0.518197 0.002492
O O18 0.336402 0.250000 0.040622
#
# Coordination Sequence:
#
# PCOD9467795 Si02
#       7
#     8   8   8   8   8   8   8
#     4  12  23  36  58  85 117 153 189 233 285 340
#     4  10  21  38  60  86 113 144 184 231 283 334
#     4  10  22  40  62  86 115 149 190 238 284 336
#     4  10  20  36  58  83 110 147 192 235 280 335
#     4  10  20  33  51  76 112 149 184 224 269 324
#     4  10  19  32  54  82 112 145 185 231 277 330
#     4  10  19  31  50  78 111 146 184 226 271 321
#
# _framework density 19.753086
#
# number of rings (size 3 to 8) (size 9 to 14) (size 15 to 20)
#    0.000    1.714    1.429    3.857    0.000    4.571 
#    0.000    1.429    0.000    8.571    0.000    0.000 
#    0.000    0.000    0.000    0.000    0.000    0.000 
#
# Total GULP energy -312233.460151 kJ/mol
# GULP energy per Si atom -5575.597503 kJ/mol
# Density = 1.970813 g / cm^3
# Si number density = 19.753086 Si / 1000 Ang^3
#
#
#
# Elastic Constant Matrix: (Units=GPa)
#
#
# Indices 1 2 3 4 5 6 
#
# 1 -25.1825 -39.8379 38.3092 0.0000 0.0000 0.0000
# 2 -39.8379 -45.4007 20.7260 0.0000 0.0000 0.0000
# 3 38.3092 20.7260 23.3969 0.0000 0.0000 0.0000
# 4 0.0000 0.0000 0.0000 23.3973 0.0000 0.0000
# 5 0.0000 0.0000 0.0000 0.0000 29.8529 0.0000
# 6 0.0000 0.0000 0.0000 0.0000 0.0000 17.5018
#
#
#
# Elastic Compliance Matrix: (Units=1/GPa)
#
#
# Indices 1 2 3 4 5 6 
#
# 1 -0.392314 0.453924 0.240254 0.000000 0.000000 0.000000
# 2 0.453924 -0.540893 -0.264090 0.000000 0.000000 0.000000
# 3 0.240254 -0.264090 -0.116698 0.000000 0.000000 0.000000
# 4 0.000000 0.000000 0.000000 0.042740 0.000000 0.000000
# 5 0.000000 0.000000 0.000000 0.000000 0.033498 0.000000
# 6 0.000000 0.000000 0.000000 0.000000 0.000000 0.057137
#
#
# Mechanical properties :
#
#
# Convention : Reuss Voigt Hill
#
# Bulk Modulus (GPa) = -5.27063 -0.97685 -3.12374
# Shear Modulus (GPa) = -2.71747 9.72483 3.50368
#
# Velocity S-wave (km/s) = -1.17418 2.22123 1.33326
# Velocity P-wave (km/s) = 2.12422 2.46635 0.88617
#
# Compressibility (1/GPa) = -0.18973064
#
# Stress axis : x y z
#
# Youngs Moduli (GPa) = -2.54898 -1.84879 -8.56911
#
# Poissons Ratio (x) = 0.83921 2.05876
# Poissons Ratio (y) = 1.15704 -2.26302
# Poissons Ratio (z) = 0.61240 -0.48825
#
# Static dielectric constant tensor:
#      x y z
#    x 1.694500 0.000000 0.000000 
#    y 0.000000 1.700700 0.000000 
#    z 0.000000 0.000000 1.641720 
# 
# From -- ./inp_files/27148.got.cif
#   From: 2010.05.17/outbox.ucp.g08.bks.cvg/sg62_14_cif.got.tgz:27148.got - 2010.06.11 16:29:25.
