data_PCOD9467599
_publ_section_title
;
Structure prediction by ZEFSAII (Michael W. Deem and Ramdas Pophale) SiO2 
 PCOD9467599
Probable space group: P N M A
;
_chemical_formula_sum "Si O2"
_cell_formula_units_Z 56
_cell_length_a 13.939466
_cell_length_b 23.270576
_cell_length_c 6.905769
_cell_angle_alpha 90.000000
_cell_angle_beta 90.000000
_cell_angle_gamma 90.000000
_cell_volume 2240.089225
_symmetry_space_group_name_H-M "P N M A"
_symmetry_group_IT_number 62
_symmetry_cell_setting 'orthorhombic'
loop_
_space_group_symop_operation_xyz
x,y,z
1/2-x,-y,1/2+z
1/2+x,1/2-y,1/2-z
-x,1/2+y,-z
-x,-y,-z
1/2+x,y,1/2-z
1/2-x,1/2+y,1/2+z
x,1/2-y,z
loop_
_atom_site_type_symbol
_atom_site_label
_atom_site_fract_x
_atom_site_fract_y
_atom_site_fract_z
Si Si1 0.055119 0.437809 0.517855
Si Si2 0.197721 0.066565 0.776461
Si Si3 0.631536 0.636072 0.646690
Si Si4 0.546977 0.061874 0.482569
Si Si5 0.219666 0.811974 0.213201
Si Si6 0.039068 0.687524 0.488326
Si Si7 0.300637 0.549705 0.765717
O O1 0.000000 0.500000 0.500000
O O2 0.076191 0.437580 0.769045
O O3 0.016526 0.372073 0.526186
O O4 0.077890 0.435062 0.266368
O O5 0.224256 0.133426 0.788546
O O6 0.176978 0.059623 0.518558
O O7 0.281212 0.018799 0.772051
O O8 0.171826 0.058704 0.022124
O O9 0.539872 0.608853 0.534870
O O10 0.698073 0.673385 0.507514
O O11 0.595103 0.678219 0.811836
O O12 0.698391 0.584757 0.731509
O O13 0.500000 0.000000 0.500000
O O14 0.266541 0.750000 0.241672
O O15 0.118082 0.811090 0.321078
O O16 0.988266 0.750000 0.488836
#
# Coordination Sequence:
#
# PCOD9467599 Si02
#       7
#     8   8   8   8   8   8   8
#     4  12  23  42  66  99 136 177 229 294 354 420
#     4  12  23  41  67 101 138 181 230 294 354 421
#     4  12  23  47  73 104 141 190 241 293 365 426
#     4  12  23  41  67 103 144 182 236 297 358 434
#     4  11  25  46  71 102 143 190 238 291 355 429
#     4  11  25  47  71 101 140 187 239 292 355 430
#     4  12  23  41  67 103 138 177 235 293 360 424
#
# _framework density 24.999003999999999
#
# number of rings (size 3 to 8) (size 9 to 14) (size 15 to 20)
#    0.000    0.286    4.286    6.429    0.000    0.571 
#    0.000    1.429    0.000    0.000    0.000    0.000 
#    0.000    0.000    0.000    0.000    0.000    0.000 
#
# Total GULP energy -312513.980662 kJ/mol
# GULP energy per Si atom -5580.606798 kJ/mol
# Density = 2.494211 g / cm^3
# Si number density = 24.999004 Si / 1000 Ang^3
#
#
#
# Elastic Constant Matrix: (Units=GPa)
#
#
# Indices 1 2 3 4 5 6 
#
# 1 99.6798 88.9912 49.9046 0.0000 0.0000 0.0000
# 2 88.9912 250.8214 43.1337 0.0000 0.0000 0.0000
# 3 49.9046 43.1337 178.7489 0.0000 0.0000 0.0000
# 4 0.0000 0.0000 0.0000 -36.2776 0.0000 0.0000
# 5 0.0000 0.0000 0.0000 0.0000 71.7305 0.0000
# 6 0.0000 0.0000 0.0000 0.0000 0.0000 32.7839
#
#
#
# Elastic Compliance Matrix: (Units=1/GPa)
#
#
# Indices 1 2 3 4 5 6 
#
# 1 0.016362 -0.005237 -0.003304 0.000000 0.000000 0.000000
# 2 -0.005237 0.005836 0.000054 0.000000 0.000000 0.000000
# 3 -0.003304 0.000054 0.006504 0.000000 0.000000 0.000000
# 4 0.000000 0.000000 0.000000 -0.027565 0.000000 0.000000
# 5 0.000000 0.000000 0.000000 0.000000 0.013941 0.000000
# 6 0.000000 0.000000 0.000000 0.000000 0.000000 0.030503
#
#
# Mechanical properties :
#
#
# Convention : Reuss Voigt Hill
#
# Bulk Modulus (GPa) = 85.27502 99.25658 92.26580
# Shear Modulus (GPa) = 75.22916 36.79540 56.01228
#
# Velocity S-wave (km/s) = 5.49165 3.84066 4.73861
# Velocity P-wave (km/s) = 8.62533 7.71090 8.18090
#
# Compressibility (1/GPa) = 0.01172676
#
# Stress axis : x y z
#
# Youngs Moduli (GPa) = 61.11806 171.35959 153.75246
#
# Poissons Ratio (x) = 0.89739 0.50805
# Poissons Ratio (y) = 0.32007 -0.00828
# Poissons Ratio (z) = 0.20195 -0.00923
#
# Static dielectric constant tensor:
#      x y z
#    x 2.001130 0.000000 0.000000 
#    y 0.000000 1.795450 0.000000 
#    z 0.000000 0.000000 2.403630 
# 
# From -- ./inp_files/2880.got.cif
#   From: 2010.05.17/outbox.cif.g08.bks.cpg/sg62_2_cif.got.tgz:2880.got - 2010.06.03 15:25:27.
