data_PCOD9467533
_publ_section_title
;
Structure prediction by ZEFSAII (Michael W. Deem and Ramdas Pophale) SiO2 
 PCOD9467533
Probable space group: P N M A
;
_chemical_formula_sum "Si O2"
_cell_formula_units_Z 32
_cell_length_a 9.706843
_cell_length_b 26.321197
_cell_length_c 6.751295
_cell_angle_alpha 90.000000
_cell_angle_beta 90.000000
_cell_angle_gamma 90.000000
_cell_volume 1724.927023
_symmetry_space_group_name_H-M "P N M A"
_symmetry_group_IT_number 62
_symmetry_cell_setting 'orthorhombic'
loop_
_space_group_symop_operation_xyz
x,y,z
1/2-x,-y,1/2+z
1/2+x,1/2-y,1/2-z
-x,1/2+y,-z
-x,-y,-z
1/2+x,y,1/2-z
1/2-x,1/2+y,1/2+z
x,1/2-y,z
loop_
_atom_site_type_symbol
_atom_site_label
_atom_site_fract_x
_atom_site_fract_y
_atom_site_fract_z
Si Si1 0.789007 0.310003 0.972859
Si Si2 0.511963 0.440144 0.029050
Si Si3 0.264375 0.609800 0.694025
Si Si4 0.934886 0.859988 0.194612
O O1 0.797613 0.250000 0.001372
O O2 0.660020 0.324958 0.834295
O O3 0.926290 0.331583 0.869139
O O4 0.770603 0.340153 0.178429
O O5 0.375223 0.418154 0.132201
O O6 0.641639 0.425458 0.166021
O O7 0.500000 0.500000 0.000000
O O8 0.529613 0.409990 0.822686
O O9 0.349668 0.624708 0.499550
#
# Coordination Sequence:
#
# PCOD9467533 Si02
#       4
#     8   8   8   8
#     4  11  24  42  67  93 126 173 212 265 325 376
#     4  11  26  42  69  96 130 174 212 266 325 378
#     4  11  24  45  62  97 132 164 218 268 311 392
#     4  11  23  45  63  96 134 161 220 267 311 390
#
# _framework density 18.551507000000001
#
# number of rings (size 3 to 8) (size 9 to 14) (size 15 to 20)
#    0.000    1.000    5.000    0.750    3.500    3.000 
#    0.000    0.000    0.000    0.000    0.000    0.000 
#    0.000    0.000    0.000    0.000    0.000    0.000 
#
# Total GULP energy -178975.152977 kJ/mol
# GULP energy per Si atom -5592.973531 kJ/mol
# Density = 1.850928 g / cm^3
# Si number density = 18.551507 Si / 1000 Ang^3
#
#
#
# Elastic Constant Matrix: (Units=GPa)
#
#
# Indices 1 2 3 4 5 6 
#
# 1 119.1858 59.1335 69.6523 0.0000 0.0000 0.0000
# 2 59.1335 172.5907 101.1878 0.0000 0.0000 0.0000
# 3 69.6523 101.1878 144.9476 0.0000 0.0000 0.0000
# 4 0.0000 0.0000 0.0000 13.5010 0.0000 0.0000
# 5 0.0000 0.0000 0.0000 0.0000 48.4096 0.0000
# 6 0.0000 0.0000 0.0000 0.0000 0.0000 11.3958
#
#
#
# Elastic Compliance Matrix: (Units=1/GPa)
#
#
# Indices 1 2 3 4 5 6 
#
# 1 0.011816 -0.001218 -0.004828 0.000000 0.000000 0.000000
# 2 -0.001218 0.009934 -0.006350 0.000000 0.000000 0.000000
# 3 -0.004828 -0.006350 0.013652 0.000000 0.000000 0.000000
# 4 0.000000 0.000000 0.000000 0.074069 0.000000 0.000000
# 5 0.000000 0.000000 0.000000 0.000000 0.020657 0.000000
# 6 0.000000 0.000000 0.000000 0.000000 0.000000 0.087752
#
#
# Mechanical properties :
#
#
# Convention : Reuss Voigt Hill
#
# Bulk Modulus (GPa) = 94.24277 99.63014 96.93646
# Shear Modulus (GPa) = 20.30812 28.44464 24.37638
#
# Velocity S-wave (km/s) = 3.31220 3.91996 3.62882
# Velocity P-wave (km/s) = 8.09558 8.62028 8.36205
#
# Compressibility (1/GPa) = 0.01061089
#
# Stress axis : x y z
#
# Youngs Moduli (GPa) = 84.63216 100.66309 73.25134
#
# Poissons Ratio (x) = 0.12261 0.35363
# Poissons Ratio (y) = 0.10308 0.46513
# Poissons Ratio (z) = 0.40857 0.63918
#
# Static dielectric constant tensor:
#      x y z
#    x 1.627570 0.000000 0.000000 
#    y 0.000000 1.586220 0.000000 
#    z 0.000000 0.000000 1.624930 
# 
# From -- ./inp_files/194.got.cif
#   From: 2010.05.17/outbox.cif.g08.bks.cpg/sg62_1_cif.got.tgz:194.got - 2010.06.03 15:25:27.
