data_PCOD9467945
_publ_section_title
;
Structure prediction by ZEFSAII (Michael W. Deem and Ramdas Pophale) SiO2 
 PCOD9467945
Probable space group: P N M A
;
_chemical_formula_sum "Si O2"
_cell_formula_units_Z 48
_cell_length_a 15.000000
_cell_length_b 9.000000
_cell_length_c 18.000000
_cell_angle_alpha 90.000000
_cell_angle_beta 90.000000
_cell_angle_gamma 90.000000
_cell_volume 2430.000000
_symmetry_space_group_name_H-M "P N M A"
_symmetry_group_IT_number 62
_symmetry_cell_setting 'orthorhombic'
loop_
_space_group_symop_operation_xyz
x,y,z
1/2-x,-y,1/2+z
1/2+x,1/2-y,1/2-z
-x,1/2+y,-z
-x,-y,-z
1/2+x,y,1/2-z
1/2-x,1/2+y,1/2+z
x,1/2-y,z
loop_
_atom_site_type_symbol
_atom_site_label
_atom_site_fract_x
_atom_site_fract_y
_atom_site_fract_z
Si Si1 0.408261 0.417900 0.487484
Si Si2 0.035088 0.580663 0.282941
Si Si3 0.063885 0.077552 0.559652
Si Si4 0.604631 0.916876 0.690266
Si Si5 0.771840 0.426538 0.501225
Si Si6 0.796497 0.926131 0.662299
O O1 0.500000 0.500000 0.500000
O O2 0.408230 0.250000 0.516918
O O3 0.396753 0.410177 0.398673
O O4 0.325362 0.511165 0.517275
O O5 0.064746 0.750000 0.272946
O O6 0.118699 0.473446 0.290941
O O7 0.981227 0.570593 0.360257
O O8 0.968141 0.528654 0.219751
O O9 0.076615 0.250000 0.539309
O O10 0.156581 0.992063 0.555295
O O11 0.000000 0.000000 0.500000
O O12 0.587504 0.750000 0.719495
O O13 0.706003 0.962579 0.706517
O O14 0.773798 0.250000 0.502797
O O15 0.797284 0.488028 0.583533
O O16 0.795348 0.750000 0.646790
#
# Coordination Sequence:
#
# PCOD9467945 Si02
#       6
#     8   8   8   8   8   8
#     4  10  21  40  64  89 116 152 196 242 292 348
#     4  11  23  37  58  87 117 151 193 241 290 345
#     4  11  22  36  56  86 119 153 192 236 288 345
#     4   9  21  40  60  84 114 152 193 233 288 349
#     4  11  21  35  58  87 116 151 192 238 288 345
#     4  10  20  37  61  83 111 153 193 236 287 346
#
# _framework density 19.753086
#
# number of rings (size 3 to 8) (size 9 to 14) (size 15 to 20)
#    0.000    1.667    1.667    4.500    0.000    6.000 
#    3.000    0.000    0.000    0.000    0.000    0.000 
#    0.000    0.000    0.000    0.000    0.000    0.000 
#
# Total GULP energy -268053.952801 kJ/mol
# GULP energy per Si atom -5584.457350 kJ/mol
# Density = 1.970813 g / cm^3
# Si number density = 19.753086 Si / 1000 Ang^3
#
#
#
# Elastic Constant Matrix: (Units=GPa)
#
#
# Indices 1 2 3 4 5 6 
#
# 1 145.9986 64.8342 6.2086 0.0000 0.0000 0.0000
# 2 64.8342 121.3579 4.6934 0.0000 0.0000 0.0000
# 3 6.2086 4.6934 -5.9732 0.0000 0.0000 0.0000
# 4 0.0000 0.0000 0.0000 23.6337 0.0000 0.0000
# 5 0.0000 0.0000 0.0000 0.0000 20.4480 0.0000
# 6 0.0000 0.0000 0.0000 0.0000 0.0000 33.2308
#
#
#
# Elastic Compliance Matrix: (Units=1/GPa)
#
#
# Indices 1 2 3 4 5 6 
#
# 1 0.008804 -0.004908 0.005294 0.000000 0.000000 0.000000
# 2 -0.004908 0.010733 0.003332 0.000000 0.000000 0.000000
# 3 0.005294 0.003332 -0.159294 0.000000 0.000000 0.000000
# 4 0.000000 0.000000 0.000000 0.042312 0.000000 0.000000
# 5 0.000000 0.000000 0.000000 0.000000 0.048905 0.000000
# 6 0.000000 0.000000 0.000000 0.000000 0.000000 0.030093
#
#
# Mechanical properties :
#
#
# Convention : Reuss Voigt Hill
#
# Bulk Modulus (GPa) = -7.55741 45.87287 19.15773
# Shear Modulus (GPa) = -71.43778 27.83896 -21.79941
#
# Velocity S-wave (km/s) = -6.02029 3.75820 -3.32564
# Velocity P-wave (km/s) = 7.22215 6.48889 2.24207
#
# Compressibility (1/GPa) = -0.13232052
#
# Stress axis : x y z
#
# Youngs Moduli (GPa) = 113.58730 93.16779 -6.27769
#
# Poissons Ratio (x) = 0.45728 0.03324
# Poissons Ratio (y) = 0.55750 0.02092
# Poissons Ratio (z) = -0.60136 -0.31045
#
# Static dielectric constant tensor:
#      x y z
#    x 1.727930 0.000000 0.000000 
#    y 0.000000 1.686800 0.000000 
#    z 0.000000 0.000000 1.684300 
# 
# From -- ./inp_files/23758.got.cif
#   From: 2010.05.17/outbox.ucp.g08.bks.cvg/sg62_12_cif.got.tgz:23758.got - 2010.06.11 16:29:25.
