data_PCOD9467650
_publ_section_title
;
Structure prediction by ZEFSAII (Michael W. Deem and Ramdas Pophale) SiO2 
 PCOD9467650
Probable space group: P N M A
;
_chemical_formula_sum "Si O2"
_cell_formula_units_Z 32
_cell_length_a 31.318030
_cell_length_b 9.076581
_cell_length_c 4.772765
_cell_angle_alpha 90.000000
_cell_angle_beta 90.000000
_cell_angle_gamma 90.000000
_cell_volume 1356.709215
_symmetry_space_group_name_H-M "P N M A"
_symmetry_group_IT_number 62
_symmetry_cell_setting 'orthorhombic'
loop_
_space_group_symop_operation_xyz
x,y,z
1/2-x,-y,1/2+z
1/2+x,1/2-y,1/2-z
-x,1/2+y,-z
-x,-y,-z
1/2+x,y,1/2-z
1/2-x,1/2+y,1/2+z
x,1/2-y,z
loop_
_atom_site_type_symbol
_atom_site_label
_atom_site_fract_x
_atom_site_fract_y
_atom_site_fract_z
Si Si1 0.086836 0.020890 0.263993
Si Si2 0.272304 0.072142 0.011536
Si Si3 0.477195 0.750000 0.501666
Si Si4 0.354690 0.581220 0.272270
Si Si5 0.965511 0.250000 0.502332
O O1 0.110755 0.094370 0.524359
O O2 0.051204 0.113529 0.098757
O O3 0.062052 0.887283 0.402756
O O4 0.123430 0.997240 0.031598
O O5 0.271445 0.250000 0.990118
O O6 0.235521 0.008390 0.216229
O O7 0.315742 0.011175 0.146878
O O8 0.490400 0.750000 0.179470
O O9 0.520950 0.750000 0.680024
O O10 0.342674 0.750000 0.355715
#
# Coordination Sequence:
#
# PCOD9467650 Si02
#       5
#     8   8   4   8   4
#     4  12  25  42  68  98 135 178 230 282 348 405
#     4  12  27  48  77 110 147 186 235 287 352 422
#     4  12  22  46  62  98 130 182 226 284 348 410
#     4  12  24  45  70  98 139 181 227 281 341 412
#     4  12  26  40  68  94 136 172 234 288 342 408
#
# _framework density 23.586483000000001
#
# number of rings (size 3 to 8) (size 9 to 14) (size 15 to 20)
#    0.000    0.000    2.500    8.250    3.500    0.000 
#    0.000    0.000    0.000    0.000    0.000    0.000 
#    0.000    0.000    0.000    0.000    0.000    0.000 
#
# Total GULP energy -179299.966662 kJ/mol
# GULP energy per Si atom -5603.123958 kJ/mol
# Density = 2.353280 g / cm^3
# Si number density = 23.586483 Si / 1000 Ang^3
#
#
#
# Elastic Constant Matrix: (Units=GPa)
#
#
# Indices 1 2 3 4 5 6 
#
# 1 80.5015 38.7234 3.0846 0.0000 0.0000 0.0000
# 2 38.7234 99.2482 -20.6344 0.0000 0.0000 0.0000
# 3 3.0846 -20.6344 90.9973 0.0000 0.0000 0.0000
# 4 0.0000 0.0000 0.0000 43.0751 0.0000 0.0000
# 5 0.0000 0.0000 0.0000 0.0000 52.6764 0.0000
# 6 0.0000 0.0000 0.0000 0.0000 0.0000 -8.8529
#
#
#
# Elastic Compliance Matrix: (Units=1/GPa)
#
#
# Indices 1 2 3 4 5 6 
#
# 1 0.015634 -0.006517 -0.002008 0.000000 0.000000 0.000000
# 2 -0.006517 0.013291 0.003235 0.000000 0.000000 0.000000
# 3 -0.002008 0.003235 0.011791 0.000000 0.000000 0.000000
# 4 0.000000 0.000000 0.000000 0.023215 0.000000 0.000000
# 5 0.000000 0.000000 0.000000 0.000000 0.018984 0.000000
# 6 0.000000 0.000000 0.000000 0.000000 0.000000 -0.112958
#
#
# Mechanical properties :
#
#
# Convention : Reuss Voigt Hill
#
# Bulk Modulus (GPa) = 33.18359 34.78827 33.98593
# Shear Modulus (GPa) = -530.97239 34.01795 -248.47722
#
# Velocity S-wave (km/s) = -15.02018 3.80184 -10.27502
# Velocity P-wave (km/s) = 16.93247 5.83551 11.23956
#
# Compressibility (1/GPa) = 0.03013537
#
# Stress axis : x y z
#
# Youngs Moduli (GPa) = 63.96278 75.23809 84.81109
#
# Poissons Ratio (x) = 0.49035 0.17029
# Poissons Ratio (y) = 0.41687 -0.27435
# Poissons Ratio (z) = 0.12843 -0.24338
#
# Static dielectric constant tensor:
#      x y z
#    x 1.914330 0.000000 0.000000 
#    y 0.000000 1.856070 0.000000 
#    z 0.000000 0.000000 1.869190 
# 
# From -- ./inp_files/3423.got.cif
#   From: 2010.05.17/outbox.cif.g08.bks.cpg/sg62_2_cif.got.tgz:3423.got - 2010.06.03 15:25:27.
