data_PCOD9467390
_publ_section_title
;
Structure prediction by ZEFSAII (Michael W. Deem and Ramdas Pophale) SiO2 
 PCOD9467390
Probable space group: P N M A
;
_chemical_formula_sum "Si O2"
_cell_formula_units_Z 48
_cell_length_a 9.455993
_cell_length_b 13.618712
_cell_length_c 17.976465
_cell_angle_alpha 90.000000
_cell_angle_beta 90.000000
_cell_angle_gamma 90.000000
_cell_volume 2314.981215
_symmetry_space_group_name_H-M "P N M A"
_symmetry_group_IT_number 62
_symmetry_cell_setting 'orthorhombic'
loop_
_space_group_symop_operation_xyz
x,y,z
1/2-x,-y,1/2+z
1/2+x,1/2-y,1/2-z
-x,1/2+y,-z
-x,-y,-z
1/2+x,y,1/2-z
1/2-x,1/2+y,1/2+z
x,1/2-y,z
loop_
_atom_site_type_symbol
_atom_site_label
_atom_site_fract_x
_atom_site_fract_y
_atom_site_fract_z
Si Si1 0.317704 0.463229 0.166823
Si Si2 0.962136 0.250000 0.139063
Si Si3 0.293816 0.250000 0.137046
Si Si4 0.034170 0.750000 0.040036
Si Si5 0.702078 0.750000 0.041411
Si Si6 0.063729 0.958860 0.422759
Si Si7 0.186648 0.543986 0.834029
Si Si8 0.562105 0.537848 0.421597
O O1 0.365526 0.349878 0.163977
O O2 0.441263 0.533415 0.138818
O O3 0.267918 0.482391 0.250532
O O4 0.191572 0.473433 0.107301
O O5 0.879832 0.152679 0.163850
O O6 0.127981 0.250000 0.162140
O O7 0.962378 0.250000 0.049279
O O8 0.299877 0.250000 0.048075
O O9 0.103895 0.849520 0.068593
O O10 0.868190 0.750000 0.062542
O O11 0.626164 0.650187 0.067657
O O12 0.188526 0.028957 0.392864
O O13 0.000000 0.000000 0.500000
O O14 0.060893 0.473709 0.861389
O O15 0.500000 0.500000 0.500000
#
# Coordination Sequence:
#
# PCOD9467390 Si02
#       8
#     8   4   4   4   4   8   8   8
#     4  12  26  44  68 105 143 182 223 288 359 410
#     4  11  23  39  76 100 134 178 235 282 328 422
#     4  11  21  42  71  99 139 179 227 287 342 412
#     4  11  22  40  76 104 125 180 251 285 321 404
#     4  11  22  45  69 105 134 177 235 294 343 398
#     4  12  26  44  70 101 142 180 224 290 351 409
#     4  12  25  45  67 103 141 179 227 286 351 413
#     4  12  22  45  73  97 131 184 243 275 328 420
#
# _framework density 20.734508000000002
#
# number of rings (size 3 to 8) (size 9 to 14) (size 15 to 20)
#    0.000    0.333    6.667    3.500    0.000    2.000 
#    0.000    5.000    0.000    0.000    0.000    0.000 
#    0.000    0.000    0.000    0.000    0.000    0.000 
#
# Total GULP energy -268490.431081 kJ/mol
# GULP energy per Si atom -5593.550648 kJ/mol
# Density = 2.068732 g / cm^3
# Si number density = 20.734508 Si / 1000 Ang^3
#
#
#
# Elastic Constant Matrix: (Units=GPa)
#
#
# Indices 1 2 3 4 5 6 
#
# 1 71.3326 13.4010 26.2417 0.0000 0.0000 0.0000
# 2 13.4010 112.0213 45.9258 0.0000 0.0000 0.0000
# 3 26.2417 45.9258 91.6723 0.0000 0.0000 0.0000
# 4 0.0000 0.0000 0.0000 16.4296 0.0000 0.0000
# 5 0.0000 0.0000 0.0000 0.0000 28.6428 0.0000
# 6 0.0000 0.0000 0.0000 0.0000 0.0000 34.0515
#
#
#
# Elastic Compliance Matrix: (Units=1/GPa)
#
#
# Indices 1 2 3 4 5 6 
#
# 1 0.015669 -0.000045 -0.004463 0.000000 0.000000 0.000000
# 2 -0.000045 0.011234 -0.005615 0.000000 0.000000 0.000000
# 3 -0.004463 -0.005615 0.014999 0.000000 0.000000 0.000000
# 4 0.000000 0.000000 0.000000 0.060866 0.000000 0.000000
# 5 0.000000 0.000000 0.000000 0.000000 0.034913 0.000000
# 6 0.000000 0.000000 0.000000 0.000000 0.000000 0.029367
#
#
# Mechanical properties :
#
#
# Convention : Reuss Voigt Hill
#
# Bulk Modulus (GPa) = 46.17565 49.57368 47.87467
# Shear Modulus (GPa) = 25.70520 28.45530 27.08025
#
# Velocity S-wave (km/s) = 3.52480 3.70856 3.61785
# Velocity P-wave (km/s) = 6.23570 6.50374 6.37113
#
# Compressibility (1/GPa) = 0.02165644
#
# Stress axis : x y z
#
# Youngs Moduli (GPa) = 63.82009 89.01243 66.67059
#
# Poissons Ratio (x) = 0.00399 0.29754
# Poissons Ratio (y) = 0.00286 0.37438
# Poissons Ratio (z) = 0.28482 0.49984
#
# Static dielectric constant tensor:
#      x y z
#    x 1.760520 0.000000 0.000000 
#    y 0.000000 1.729380 0.000000 
#    z 0.000000 0.000000 1.745440 
# 
# From -- ./inp_files/22277.got.cif
#   From: 2010.05.17/outbox.cif.g08.bks.cpg/sg62_12_cif.got.tgz:22277.got - 2010.06.03 15:25:27.
