data_PCOD9467725
_publ_section_title
;
Structure prediction by ZEFSAII (Michael W. Deem and Ramdas Pophale) SiO2 
 PCOD9467725
Probable space group: P N M A
;
_chemical_formula_sum "Si O2"
_cell_formula_units_Z 40
_cell_length_a 8.123095
_cell_length_b 7.243241
_cell_length_c 24.338816
_cell_angle_alpha 90.000000
_cell_angle_beta 90.000000
_cell_angle_gamma 90.000000
_cell_volume 1432.035932
_symmetry_space_group_name_H-M "P N M A"
_symmetry_group_IT_number 62
_symmetry_cell_setting 'orthorhombic'
loop_
_space_group_symop_operation_xyz
x,y,z
1/2-x,-y,1/2+z
1/2+x,1/2-y,1/2-z
-x,1/2+y,-z
-x,-y,-z
1/2+x,y,1/2-z
1/2-x,1/2+y,1/2+z
x,1/2-y,z
loop_
_atom_site_type_symbol
_atom_site_label
_atom_site_fract_x
_atom_site_fract_y
_atom_site_fract_z
Si Si1 0.837131 0.467965 0.462128
Si Si2 0.446265 0.459148 0.864558
Si Si3 0.654869 0.024358 0.768120
Si Si4 0.027985 0.526099 0.165014
Si Si5 0.142157 0.474920 0.938525
O O1 0.819732 0.250000 0.454801
O O2 0.890975 0.547524 0.403662
O O3 0.684493 0.538212 0.499609
O O4 0.000000 0.500000 0.500000
O O5 0.393228 0.250000 0.852930
O O6 0.503782 0.537258 0.806857
O O7 0.301578 0.535538 0.902297
O O8 0.656691 0.250000 0.768930
O O9 0.622886 0.972972 0.705319
O O10 0.814774 0.963169 0.800953
O O11 0.032816 0.750000 0.163133
O O12 0.003794 0.465129 0.102202
O O13 0.142496 0.250000 0.941449
#
# Coordination Sequence:
#
# PCOD9467725 Si02
#       5
#     8   8   8   8   8
#     4   9  16  27  44  66  89 117 148 180 215 257
#     4   9  16  27  42  64  90 116 144 177 213 257
#     4   9  16  24  38  60  87 113 141 177 220 261
#     4   9  15  24  38  60  87 114 141 178 223 262
#     4   8  14  24  39  58  84 112 141 174 212 253
#
# _framework density 27.932259999999999
#
# number of rings (size 3 to 8) (size 9 to 14) (size 15 to 20)
#    0.000    3.200    0.000    3.000    0.000    4.800 
#    0.000    1.000    0.000    0.000    0.000   19.600 
#    0.000    0.000    0.000    0.000    0.000    0.000 
#
# Total GULP energy -223632.473822 kJ/mol
# GULP energy per Si atom -5590.811846 kJ/mol
# Density = 2.786868 g / cm^3
# Si number density = 27.932260 Si / 1000 Ang^3
#
#
#
# Elastic Constant Matrix: (Units=GPa)
#
#
# Indices 1 2 3 4 5 6 
#
# 1 91.5333 0.3101 32.5552 0.0000 0.0000 0.0000
# 2 0.3101 143.0028 -2.4622 0.0000 0.0000 0.0000
# 3 32.5552 -2.4622 213.4498 0.0000 0.0000 0.0000
# 4 0.0000 0.0000 0.0000 2.0556 0.0000 0.0000
# 5 0.0000 0.0000 0.0000 0.0000 61.4372 0.0000
# 6 0.0000 0.0000 0.0000 0.0000 0.0000 -3.5655
#
#
#
# Elastic Compliance Matrix: (Units=1/GPa)
#
#
# Indices 1 2 3 4 5 6 
#
# 1 0.011552 -0.000055 -0.001763 0.000000 0.000000 0.000000
# 2 -0.000055 0.006995 0.000089 0.000000 0.000000 0.000000
# 3 -0.001763 0.000089 0.004955 0.000000 0.000000 0.000000
# 4 0.000000 0.000000 0.000000 0.486477 0.000000 0.000000
# 5 0.000000 0.000000 0.000000 0.000000 0.016277 0.000000
# 6 0.000000 0.000000 0.000000 0.000000 0.000000 -0.280469
#
#
# Mechanical properties :
#
#
# Convention : Reuss Voigt Hill
#
# Bulk Modulus (GPa) = 49.89089 56.53246 53.21167
# Shear Modulus (GPa) = 19.53694 39.82432 29.68063
#
# Velocity S-wave (km/s) = 2.64756 3.78000 3.26328
# Velocity P-wave (km/s) = 5.21980 6.27171 5.76977
#
# Compressibility (1/GPa) = 0.02004374
#
# Stress axis : x y z
#
# Youngs Moduli (GPa) = 86.56474 142.96896 201.82483
#
# Poissons Ratio (x) = 0.00792 0.35573
# Poissons Ratio (y) = 0.00480 -0.01799
# Poissons Ratio (z) = 0.15257 -0.01274
#
# Static dielectric constant tensor:
#      x y z
#    x 2.305990 0.000000 0.000000 
#    y 0.000000 2.112910 0.000000 
#    z 0.000000 0.000000 2.091650 
# 
# From -- ./inp_files/30662.got.cif
#   From: 2010.05.17/outbox.cif.g08.bks.cpg/sg62_16_cif.got.tgz:30662.got - 2010.06.03 15:25:27.
