data_PCOD9467839
_publ_section_title
;
Structure prediction by ZEFSAII (Michael W. Deem and Ramdas Pophale) SiO2 
 PCOD9467839
Probable space group: P N M A
;
_chemical_formula_sum "Si O2"
_cell_formula_units_Z 64
_cell_length_a 12.000000
_cell_length_b 9.000000
_cell_length_c 30.000000
_cell_angle_alpha 90.000000
_cell_angle_beta 90.000000
_cell_angle_gamma 90.000000
_cell_volume 3240.000000
_symmetry_space_group_name_H-M "P N M A"
_symmetry_group_IT_number 62
_symmetry_cell_setting 'orthorhombic'
loop_
_space_group_symop_operation_xyz
x,y,z
1/2-x,-y,1/2+z
1/2+x,1/2-y,1/2-z
-x,1/2+y,-z
-x,-y,-z
1/2+x,y,1/2-z
1/2-x,1/2+y,1/2+z
x,1/2-y,z
loop_
_atom_site_type_symbol
_atom_site_label
_atom_site_fract_x
_atom_site_fract_y
_atom_site_fract_z
Si Si1 0.907063 0.930427 0.222103
Si Si2 0.133714 0.928955 0.873020
Si Si3 0.561368 0.078913 0.437143
Si Si4 0.726494 0.080397 0.351953
Si Si5 0.093444 0.423894 0.593427
Si Si6 0.243969 0.576503 0.007935
Si Si7 0.666187 0.572535 0.080901
Si Si8 0.660370 0.926907 0.262839
O O1 0.907184 0.750000 0.220829
O O2 0.027828 0.973559 0.245973
O O3 0.781379 0.975859 0.240385
O O4 0.910934 0.998267 0.172340
O O5 0.130896 0.750000 0.869441
O O6 0.055688 0.969905 0.915611
O O7 0.256722 0.989906 0.883158
O O8 0.552200 0.250000 0.452653
O O9 0.644014 0.077919 0.394294
O O10 0.624902 0.980474 0.473632
O O11 0.732519 0.250000 0.335656
O O12 0.844941 0.022483 0.369789
O O13 0.680231 0.974634 0.313782
O O14 0.098908 0.250000 0.606654
O O15 0.166040 0.437919 0.548129
O O16 0.964733 0.463427 0.585827
O O17 0.236485 0.750000 0.995442
O O18 0.289514 0.481677 0.966936
O O19 0.678753 0.750000 0.085288
O O20 0.659331 0.750000 0.256677
#
# Coordination Sequence:
#
# PCOD9467839 Si02
#       8
#     8   8   8   8   8   8   8   8
#     4  10  22  40  62  88 119 158 200 244 297 358
#     4  11  23  40  60  83 115 152 194 244 294 348
#     4   9  19  36  57  81 112 149 190 237 288 342
#     4  10  19  34  59  88 114 147 192 238 288 343
#     4   9  20  37  57  83 116 155 196 240 290 351
#     4  10  20  35  58  86 113 148 196 246 294 344
#     4  11  23  38  56  81 117 157 195 239 295 352
#     4  10  21  38  61  88 120 157 198 243 294 356
#
# _framework density 19.753086
#
# number of rings (size 3 to 8) (size 9 to 14) (size 15 to 20)
#    0.000    2.000    1.250    1.875    0.000    5.000 
#    0.000    2.500    0.000    0.000    0.000    0.000 
#    0.000    0.000    0.000    0.000    0.000    0.000 
#
# Total GULP energy -357014.314313 kJ/mol
# GULP energy per Si atom -5578.348661 kJ/mol
# Density = 1.970813 g / cm^3
# Si number density = 19.753086 Si / 1000 Ang^3
#
#
#
# Elastic Constant Matrix: (Units=GPa)
#
#
# Indices 1 2 3 4 5 6 
#
# 1 150.8666 25.5466 17.4295 0.0000 0.0000 0.0000
# 2 25.5466 19.1079 1.8801 0.0000 0.0000 0.0000
# 3 17.4295 1.8801 24.1146 0.0000 0.0000 0.0000
# 4 0.0000 0.0000 0.0000 29.8947 0.0000 0.0000
# 5 0.0000 0.0000 0.0000 0.0000 28.4587 0.0000
# 6 0.0000 0.0000 0.0000 0.0000 0.0000 23.1305
#
#
#
# Elastic Compliance Matrix: (Units=1/GPa)
#
#
# Indices 1 2 3 4 5 6 
#
# 1 0.009310 -0.011876 -0.005803 0.000000 0.000000 0.000000
# 2 -0.011876 0.067888 0.003291 0.000000 0.000000 0.000000
# 3 -0.005803 0.003291 0.045406 0.000000 0.000000 0.000000
# 4 0.000000 0.000000 0.000000 0.033451 0.000000 0.000000
# 5 0.000000 0.000000 0.000000 0.000000 0.035139 0.000000
# 6 0.000000 0.000000 0.000000 0.000000 0.000000 0.043233
#
#
# Mechanical properties :
#
#
# Convention : Reuss Voigt Hill
#
# Bulk Modulus (GPa) = 10.65782 31.53351 21.09567
# Shear Modulus (GPa) = 16.97916 26.24564 21.61240
#
# Velocity S-wave (km/s) = 2.93502 3.64907 3.31135
# Velocity P-wave (km/s) = 4.11012 5.80971 5.03219
#
# Compressibility (1/GPa) = 0.09382782
#
# Stress axis : x y z
#
# Youngs Moduli (GPa) = 107.41440 14.73015 22.02332
#
# Poissons Ratio (x) = 0.17493 0.12780
# Poissons Ratio (y) = 1.27563 -0.07247
# Poissons Ratio (z) = 0.62332 -0.04847
#
# Static dielectric constant tensor:
#      x y z
#    x 1.734610 0.000000 0.000000 
#    y 0.000000 1.660060 0.000000 
#    z 0.000000 0.000000 1.692420 
# 
# From -- ./inp_files/32496.got.cif
#   From: 2010.05.17/outbox.ucp.g08.bks.cvg/sg62_17_cif.got.tgz:32496.got - 2010.06.11 16:29:25.
