data_PCOD9467103
_publ_section_title
;
Structure prediction by ZEFSAII (Michael W. Deem and Ramdas Pophale) SiO2 
 PCOD9467103
Probable space group: P N M A
;
_chemical_formula_sum "Si O2"
_cell_formula_units_Z 32
_cell_length_a 11.304158
_cell_length_b 22.215871
_cell_length_c 4.845464
_cell_angle_alpha 90.000000
_cell_angle_beta 90.000000
_cell_angle_gamma 90.000000
_cell_volume 1216.849689
_symmetry_space_group_name_H-M "P N M A"
_symmetry_group_IT_number 62
_symmetry_cell_setting 'orthorhombic'
loop_
_space_group_symop_operation_xyz
x,y,z
1/2-x,-y,1/2+z
1/2+x,1/2-y,1/2-z
-x,1/2+y,-z
-x,-y,-z
1/2+x,y,1/2-z
1/2-x,1/2+y,1/2+z
x,1/2-y,z
loop_
_atom_site_type_symbol
_atom_site_label
_atom_site_fract_x
_atom_site_fract_y
_atom_site_fract_z
Si Si1 0.574114 0.623712 0.183928
Si Si2 0.817543 0.504113 0.653456
Si Si3 0.399564 0.750000 0.974761
Si Si4 0.173852 0.750000 0.301904
Si Si5 0.927602 0.630303 0.819572
O O1 0.614131 0.555959 0.241119
O O2 0.654721 0.679187 0.280045
O O3 0.454729 0.633154 0.358416
O O4 0.549396 0.627211 0.857624
O O5 0.803718 0.502789 0.325330
O O6 0.864964 0.568320 0.746080
O O7 0.316241 0.750000 0.242279
O O8 0.543046 0.750000 0.026314
O O9 0.369176 0.809040 0.794026
#
# Coordination Sequence:
#
# PCOD9467103 Si02
#       5
#     8   8   4   4   8
#     4  11  23  43  66  97 136 184 234 291 351 418
#     4  12  24  40  64  98 135 182 233 290 352 422
#     4  10  23  44  73 106 144 186 236 290 352 418
#     4  10  23  44  71 106 142 186 234 290 350 418
#     4  11  23  43  67  97 136 184 233 291 351 418
#
# _framework density 26.297412999999999
#
# number of rings (size 3 to 8) (size 9 to 14) (size 15 to 20)
#    0.000    1.000    0.000    6.750    0.000    2.000 
#    0.000   16.250    0.000    0.000    0.000    0.000 
#    0.000    0.000    0.000    0.000    0.000    0.000 
#
# Total GULP energy -178246.454974 kJ/mol
# GULP energy per Si atom -5570.201718 kJ/mol
# Density = 2.623756 g / cm^3
# Si number density = 26.297413 Si / 1000 Ang^3
#
#
#
# Elastic Constant Matrix: (Units=GPa)
#
#
# Indices 1 2 3 4 5 6 
#
# 1 34.4425 45.5510 15.3290 0.0000 0.0000 0.0000
# 2 45.5510 250.6658 22.4027 0.0000 0.0000 0.0000
# 3 15.3290 22.4027 95.9802 0.0000 0.0000 0.0000
# 4 0.0000 0.0000 0.0000 18.4457 0.0000 0.0000
# 5 0.0000 0.0000 0.0000 0.0000 -78.5269 0.0000
# 6 0.0000 0.0000 0.0000 0.0000 0.0000 40.7521
#
#
#
# Elastic Compliance Matrix: (Units=1/GPa)
#
#
# Indices 1 2 3 4 5 6 
#
# 1 0.040296 -0.006891 -0.004827 0.000000 0.000000 0.000000
# 2 -0.006891 0.005253 -0.000125 0.000000 0.000000 0.000000
# 3 -0.004827 -0.000125 0.011219 0.000000 0.000000 0.000000
# 4 0.000000 0.000000 0.000000 0.054213 0.000000 0.000000
# 5 0.000000 0.000000 0.000000 0.000000 -0.012734 0.000000
# 6 0.000000 0.000000 0.000000 0.000000 0.000000 0.024539
#
#
# Mechanical properties :
#
#
# Convention : Reuss Voigt Hill
#
# Bulk Modulus (GPa) = 30.22954 60.85043 45.53998
# Shear Modulus (GPa) = 31.74606 15.98791 23.86698
#
# Velocity S-wave (km/s) = 3.47824 2.46837 3.01587
# Velocity P-wave (km/s) = 5.25843 5.59583 5.42975
#
# Compressibility (1/GPa) = 0.03308023
#
# Stress axis : x y z
#
# Youngs Moduli (GPa) = 24.81633 190.37266 89.13403
#
# Poissons Ratio (x) = 1.31189 0.43027
# Poissons Ratio (y) = 0.17101 0.01118
# Poissons Ratio (z) = 0.11979 0.02389
#
# Static dielectric constant tensor:
#      x y z
#    x 2.153320 0.000000 0.000000 
#    y 0.000000 2.062870 0.000000 
#    z 0.000000 0.000000 1.996530 
# 
# From -- ./inp_files/451.got.cif
#   From: 2010.05.17/outbox.cif.g08.bks.cpg/sg62_1_cif.got.tgz:451.got - 2010.06.03 15:25:27.
