data_PCOD9467731
_publ_section_title
;
Structure prediction by ZEFSAII (Michael W. Deem and Ramdas Pophale) SiO2 
 PCOD9467731
Probable space group: P N M A
;
_chemical_formula_sum "Si O2"
_cell_formula_units_Z 56
_cell_length_a 18.416879
_cell_length_b 7.366056
_cell_length_c 18.056623
_cell_angle_alpha 90.000000
_cell_angle_beta 90.000000
_cell_angle_gamma 90.000000
_cell_volume 2449.557180
_symmetry_space_group_name_H-M "P N M A"
_symmetry_group_IT_number 62
_symmetry_cell_setting 'orthorhombic'
loop_
_space_group_symop_operation_xyz
x,y,z
1/2-x,-y,1/2+z
1/2+x,1/2-y,1/2-z
-x,1/2+y,-z
-x,-y,-z
1/2+x,y,1/2-z
1/2-x,1/2+y,1/2+z
x,1/2-y,z
loop_
_atom_site_type_symbol
_atom_site_label
_atom_site_fract_x
_atom_site_fract_y
_atom_site_fract_z
Si Si1 0.910364 0.030346 0.428825
Si Si2 0.308548 0.529603 0.779801
Si Si3 0.458537 0.455321 0.321467
Si Si4 0.339884 0.472685 0.217330
Si Si5 0.075084 0.038372 0.401359
Si Si6 0.113665 0.471481 0.129799
Si Si7 0.083623 0.464561 0.975255
O O1 0.912643 0.250000 0.429057
O O2 0.849353 0.975645 0.368739
O O3 0.991852 0.966226 0.404770
O O4 0.897525 0.974785 0.513768
O O5 0.307752 0.750000 0.786312
O O6 0.225362 0.468501 0.771197
O O7 0.365315 0.464693 0.842664
O O8 0.336038 0.481741 0.697515
O O9 0.476413 0.250000 0.298447
O O10 0.413832 0.536873 0.255542
O O11 0.534207 0.538817 0.345663
O O12 0.409150 0.450156 0.395032
O O13 0.337695 0.250000 0.218215
O O14 0.067003 0.250000 0.381548
O O15 0.111360 0.250000 0.125195
O O16 0.129270 0.530712 0.045933
O O17 0.093800 0.250000 0.966101
O O18 0.000000 0.500000 0.000000
#
# Coordination Sequence:
#
# PCOD9467731 Si02
#       7
#     8   8   8   8   8   8   8
#     4   9  17  31  51  74  96 122 159 201 240 280
#     4   9  16  28  46  69  93 120 157 195 231 279
#     4   9  16  28  46  67  90 118 153 194 231 269
#     4   9  17  29  46  68  93 122 159 195 232 279
#     4   9  17  30  51  74  95 121 157 199 242 284
#     4   8  14  25  43  64  87 115 150 188 222 262
#     4   9  16  27  44  68  93 118 150 188 228 271
#
# _framework density 22.861276
#
# number of rings (size 3 to 8) (size 9 to 14) (size 15 to 20)
#    0.000    3.143    0.000    2.143    0.000    3.429 
#    2.571    0.714    0.000   10.286    0.000    0.000 
#    0.000    0.000    0.000    0.000    0.000    0.000 
#
# Total GULP energy -311880.673899 kJ/mol
# GULP energy per Si atom -5569.297748 kJ/mol
# Density = 2.280924 g / cm^3
# Si number density = 22.861276 Si / 1000 Ang^3
#
#
#
# Elastic Constant Matrix: (Units=GPa)
#
#
# Indices 1 2 3 4 5 6 
#
# 1 26.7383 -4.2851 6.5486 0.0000 0.0000 0.0000
# 2 -4.2851 84.7963 -13.0477 0.0000 0.0000 0.0000
# 3 6.5486 -13.0477 80.2234 0.0000 0.0000 0.0000
# 4 0.0000 0.0000 0.0000 14.7855 0.0000 0.0000
# 5 0.0000 0.0000 0.0000 0.0000 27.0417 0.0000
# 6 0.0000 0.0000 0.0000 0.0000 0.0000 -2.8642
#
#
#
# Elastic Compliance Matrix: (Units=1/GPa)
#
#
# Indices 1 2 3 4 5 6 
#
# 1 0.038346 0.001494 -0.002887 0.000000 0.000000 0.000000
# 2 0.001494 0.012154 0.001855 0.000000 0.000000 0.000000
# 3 -0.002887 0.001855 0.013003 0.000000 0.000000 0.000000
# 4 0.000000 0.000000 0.000000 0.067634 0.000000 0.000000
# 5 0.000000 0.000000 0.000000 0.000000 0.036980 0.000000
# 6 0.000000 0.000000 0.000000 0.000000 0.000000 -0.349139
#
#
# Mechanical properties :
#
#
# Convention : Reuss Voigt Hill
#
# Bulk Modulus (GPa) = 15.52204 18.90996 17.21600
# Shear Modulus (GPa) = -31.15846 21.29541 -4.93152
#
# Velocity S-wave (km/s) = -3.69580 3.05537 -1.47032
# Velocity P-wave (km/s) = 3.37750 4.55375 2.15975
#
# Compressibility (1/GPa) = 0.06442454
#
# Stress axis : x y z
#
# Youngs Moduli (GPa) = 26.07833 82.27849 76.90805
#
# Poissons Ratio (x) = -0.12288 0.22205
# Poissons Ratio (y) = -0.03895 -0.14265
# Poissons Ratio (z) = 0.07529 -0.15261
#
# Static dielectric constant tensor:
#      x y z
#    x 1.879440 0.000000 0.000000 
#    y 0.000000 1.838090 0.000000 
#    z 0.000000 0.000000 1.862760 
# 
# From -- ./inp_files/24652.got.cif
#   From: 2010.05.17/outbox.cif.g08.bks.cpg/sg62_13_cif.got.tgz:24652.got - 2010.06.03 15:25:27.
