data_PCOD9467836
_publ_section_title
;
Structure prediction by ZEFSAII (Michael W. Deem and Ramdas Pophale) SiO2 
 PCOD9467836
Probable space group: P N M A
;
_chemical_formula_sum "Si O2"
_cell_formula_units_Z 64
_cell_length_a 30.000000
_cell_length_b 9.000000
_cell_length_c 12.000000
_cell_angle_alpha 90.000000
_cell_angle_beta 90.000000
_cell_angle_gamma 90.000000
_cell_volume 3240.000000
_symmetry_space_group_name_H-M "P N M A"
_symmetry_group_IT_number 62
_symmetry_cell_setting 'orthorhombic'
loop_
_space_group_symop_operation_xyz
x,y,z
1/2-x,-y,1/2+z
1/2+x,1/2-y,1/2-z
-x,1/2+y,-z
-x,-y,-z
1/2+x,y,1/2-z
1/2-x,1/2+y,1/2+z
x,1/2-y,z
loop_
_atom_site_type_symbol
_atom_site_label
_atom_site_fract_x
_atom_site_fract_y
_atom_site_fract_z
Si Si1 0.624485 0.072972 0.169639
Si Si2 0.784129 0.926289 0.568823
Si Si3 0.907800 0.571650 0.077961
Si Si4 0.425733 0.079228 0.029766
Si Si5 0.944719 0.927169 0.848584
Si Si6 0.472994 0.572681 0.223258
Si Si7 0.685220 0.576396 0.610476
Si Si8 0.672689 0.584500 0.873492
O O1 0.624755 0.250000 0.148376
O O2 0.675032 0.018062 0.147584
O O3 0.603180 0.048066 0.289832
O O4 0.590064 0.000008 0.082802
O O5 0.780586 0.750000 0.588504
O O6 0.734084 0.986249 0.580958
O O7 0.802223 0.963079 0.446426
O O8 0.904369 0.750000 0.073352
O O9 0.932416 0.532186 0.192782
O O10 0.858605 0.505400 0.066867
O O11 0.939335 0.524088 0.975850
O O12 0.438084 0.250000 0.008872
O O13 0.379746 0.075847 0.101056
O O14 0.462592 0.998009 0.103618
O O15 0.953998 0.750000 0.844066
O O16 0.982684 0.011026 0.780800
O O17 0.474892 0.750000 0.214259
O O18 0.682905 0.750000 0.576695
O O19 0.681816 0.569599 0.744087
O O20 0.687438 0.750000 0.910323
#
# Coordination Sequence:
#
# PCOD9467836 Si02
#       8
#     8   8   8   8   8   8   8   8
#     4   9  19  37  57  79 111 149 186 230 280 334
#     4   9  19  34  54  80 109 142 180 224 276 331
#     4  10  22  38  57  83 113 147 189 232 278 335
#     4  10  19  34  58  83 108 143 186 232 277 329
#     4  10  22  39  58  81 112 151 189 227 281 339
#     4  11  22  36  57  85 113 146 187 234 285 333
#     4  10  20  35  56  83 111 144 185 228 280 332
#     4   9  18  33  53  77 106 141 180 225 274 324
#
# _framework density 19.753086
#
# number of rings (size 3 to 8) (size 9 to 14) (size 15 to 20)
#    0.000    2.250    1.250    1.125    0.000    4.500 
#    0.000    2.500    0.000    3.000    0.000    0.000 
#    0.000    0.000    0.000    0.000    0.000    0.000 
#
# Total GULP energy -356992.624841 kJ/mol
# GULP energy per Si atom -5578.009763 kJ/mol
# Density = 1.970813 g / cm^3
# Si number density = 19.753086 Si / 1000 Ang^3
#
#
#
# Elastic Constant Matrix: (Units=GPa)
#
#
# Indices 1 2 3 4 5 6 
#
# 1 49.9693 41.2135 34.9779 0.0000 0.0000 0.0000
# 2 41.2135 7.1799 7.1583 0.0000 0.0000 0.0000
# 3 34.9779 7.1583 35.6652 0.0000 0.0000 0.0000
# 4 0.0000 0.0000 0.0000 18.3501 0.0000 0.0000
# 5 0.0000 0.0000 0.0000 0.0000 19.8143 0.0000
# 6 0.0000 0.0000 0.0000 0.0000 0.0000 28.1337
#
#
#
# Elastic Compliance Matrix: (Units=1/GPa)
#
#
# Indices 1 2 3 4 5 6 
#
# 1 -0.005322 0.031684 -0.001140 0.000000 0.000000 0.000000
# 2 0.031684 -0.014516 -0.028160 0.000000 0.000000 0.000000
# 3 -0.001140 -0.028160 0.034809 0.000000 0.000000 0.000000
# 4 0.000000 0.000000 0.000000 0.054496 0.000000 0.000000
# 5 0.000000 0.000000 0.000000 0.000000 0.050469 0.000000
# 6 0.000000 0.000000 0.000000 0.000000 0.000000 0.035545
#
#
# Mechanical properties :
#
#
# Convention : Reuss Voigt Hill
#
# Bulk Modulus (GPa) = 50.66118 28.83486 39.74802
# Shear Modulus (GPa) = 31.78800 13.89058 22.83929
#
# Velocity S-wave (km/s) = 4.01592 2.65469 3.40404
# Velocity P-wave (km/s) = 6.87069 4.90162 5.96792
#
# Compressibility (1/GPa) = 0.01973898
#
# Stress axis : x y z
#
# Youngs Moduli (GPa) = -187.91146 -68.89055 28.72852
#
# Poissons Ratio (x) = 2.18271 0.03275
# Poissons Ratio (y) = 5.95374 0.80899
# Poissons Ratio (z) = -0.21424 -1.93994
#
# Static dielectric constant tensor:
#      x y z
#    x 1.697070 0.000000 0.000000 
#    y 0.000000 1.686540 0.000000 
#    z 0.000000 0.000000 1.686100 
# 
# From -- ./inp_files/15794.got.cif
#   From: 2010.05.17/outbox.ucp.g08.bks.cvg/sg62_8_cif.got.tgz:15794.got - 2010.06.11 16:29:25.
