data_PCOD9467861
_publ_section_title
;
Structure prediction by ZEFSAII (Michael W. Deem and Ramdas Pophale) SiO2 
 PCOD9467861
Probable space group: P N M A
;
_chemical_formula_sum "Si O2"
_cell_formula_units_Z 64
_cell_length_a 15.000000
_cell_length_b 9.000000
_cell_length_c 24.000000
_cell_angle_alpha 90.000000
_cell_angle_beta 90.000000
_cell_angle_gamma 90.000000
_cell_volume 3240.000000
_symmetry_space_group_name_H-M "P N M A"
_symmetry_group_IT_number 62
_symmetry_cell_setting 'orthorhombic'
loop_
_space_group_symop_operation_xyz
x,y,z
1/2-x,-y,1/2+z
1/2+x,1/2-y,1/2-z
-x,1/2+y,-z
-x,-y,-z
1/2+x,y,1/2-z
1/2-x,1/2+y,1/2+z
x,1/2-y,z
loop_
_atom_site_type_symbol
_atom_site_label
_atom_site_fract_x
_atom_site_fract_y
_atom_site_fract_z
Si Si1 0.818328 0.915815 0.668884
Si Si2 0.230401 0.070958 0.127578
Si Si3 0.531821 0.074360 0.354578
Si Si4 0.935267 0.582757 0.563275
Si Si5 0.549367 0.923458 0.238649
Si Si6 0.367278 0.427799 0.037007
Si Si7 0.648244 0.078039 0.650945
Si Si8 0.355644 0.580635 0.213993
O O1 0.804289 0.750000 0.692902
O O2 0.896981 0.907498 0.624304
O O3 0.856436 0.037860 0.711135
O O4 0.730839 0.972696 0.637706
O O5 0.228216 0.250000 0.128259
O O6 0.127923 0.022358 0.123407
O O7 0.287994 0.015873 0.075305
O O8 0.285578 0.020659 0.181955
O O9 0.519996 0.250000 0.363952
O O10 0.539657 0.038018 0.289018
O O11 0.444526 0.983943 0.372610
O O12 0.936450 0.750000 0.539253
O O13 0.871142 0.484193 0.525585
O O14 0.036216 0.525594 0.561167
O O15 0.546726 0.750000 0.256771
O O16 0.460594 0.945643 0.201150
O O17 0.363148 0.250000 0.038423
O O18 0.661596 0.250000 0.636096
O O19 0.646385 0.068019 0.718862
O O20 0.333922 0.750000 0.199118
#
# Coordination Sequence:
#
# PCOD9467861 Si02
#       8
#     8   8   8   8   8   8   8   8
#     4  11  21  33  52  76 101 132 170 210 253 301
#     4  10  20  32  50  75 100 129 166 206 247 296
#     4  10  20  34  51  72 100 135 173 211 252 295
#     4   9  19  34  52  76 103 129 160 200 247 301
#     4  10  20  33  48  72 106 139 172 208 247 294
#     4   9  18  34  53  74 102 131 158 195 246 300
#     4  10  21  36  51  71 101 135 172 212 253 297
#     4   9  19  32  47  70 101 135 167 202 243 290
#
# _framework density 19.753086
#
# number of rings (size 3 to 8) (size 9 to 14) (size 15 to 20)
#    0.000    2.250    0.000    3.750    0.000    8.500 
#    0.000    2.500    0.000    0.750    0.000    0.000 
#    0.000    0.000    0.000    0.000    0.000    0.000 
#
# Total GULP energy -356557.812700 kJ/mol
# GULP energy per Si atom -5571.215823 kJ/mol
# Density = 1.970813 g / cm^3
# Si number density = 19.753086 Si / 1000 Ang^3
#
#
#
# Elastic Constant Matrix: (Units=GPa)
#
#
# Indices 1 2 3 4 5 6 
#
# 1 80.4483 22.5258 -11.7780 0.0000 0.0000 0.0000
# 2 22.5258 36.6347 -0.1274 0.0000 0.0000 0.0000
# 3 -11.7780 -0.1274 1.2463 0.0000 0.0000 0.0000
# 4 0.0000 0.0000 0.0000 -12.9757 0.0000 0.0000
# 5 0.0000 0.0000 0.0000 0.0000 10.2916 0.0000
# 6 0.0000 0.0000 0.0000 0.0000 0.0000 28.3527
#
#
#
# Elastic Compliance Matrix: (Units=1/GPa)
#
#
# Indices 1 2 3 4 5 6 
#
# 1 -0.023109 0.013455 -0.217017 0.000000 0.000000 0.000000
# 2 0.013455 0.019473 0.129143 0.000000 0.000000 0.000000
# 3 -0.217017 0.129143 -1.235320 0.000000 0.000000 0.000000
# 4 0.000000 0.000000 0.000000 -0.077067 0.000000 0.000000
# 5 0.000000 0.000000 0.000000 0.000000 0.097166 0.000000
# 6 0.000000 0.000000 0.000000 0.000000 0.000000 0.035270
#
#
# Mechanical properties :
#
#
# Convention : Reuss Voigt Hill
#
# Bulk Modulus (GPa) = -0.72057 15.50779 7.39361
# Shear Modulus (GPa) = -3.33924 12.31431 4.48754
#
# Velocity S-wave (km/s) = -1.30160 2.49953 1.50889
# Velocity P-wave (km/s) = 1.62002 4.02468 2.60515
#
# Compressibility (1/GPa) = -1.38779431
#
# Stress axis : x y z
#
# Youngs Moduli (GPa) = -43.27276 51.35427 -0.80951
#
# Poissons Ratio (x) = -0.69096 -0.17568
# Poissons Ratio (y) = 0.58222 0.10454
# Poissons Ratio (z) = -9.39091 -6.63206
#
# Static dielectric constant tensor:
#      x y z
#    x 1.756980 0.000000 0.000000 
#    y 0.000000 1.692100 0.000000 
#    z 0.000000 0.000000 1.706920 
# 
# From -- ./inp_files/29783.got.cif
#   From: 2010.05.17/outbox.ucp.g08.bks.cvg/sg62_15_cif.got.tgz:29783.got - 2010.06.11 16:29:25.
