data_PCOD9467759
_publ_section_title
;
Structure prediction by ZEFSAII (Michael W. Deem and Ramdas Pophale) SiO2 
 PCOD9467759
Probable space group: P N M A
;
_chemical_formula_sum "Si O2"
_cell_formula_units_Z 64
_cell_length_a 15.000000
_cell_length_b 9.000000
_cell_length_c 30.000000
_cell_angle_alpha 90.000000
_cell_angle_beta 90.000000
_cell_angle_gamma 90.000000
_cell_volume 4050.000000
_symmetry_space_group_name_H-M "P N M A"
_symmetry_group_IT_number 62
_symmetry_cell_setting 'orthorhombic'
loop_
_space_group_symop_operation_xyz
x,y,z
1/2-x,-y,1/2+z
1/2+x,1/2-y,1/2-z
-x,1/2+y,-z
-x,-y,-z
1/2+x,y,1/2-z
1/2-x,1/2+y,1/2+z
x,1/2-y,z
loop_
_atom_site_type_symbol
_atom_site_label
_atom_site_fract_x
_atom_site_fract_y
_atom_site_fract_z
Si Si1 0.108208 0.570683 0.044655
Si Si2 0.238167 0.072634 0.279608
Si Si3 0.162134 0.078125 0.858807
Si Si4 0.973617 0.079072 0.812194
Si Si5 0.098926 0.428801 0.951458
Si Si6 0.298089 0.429370 0.631660
Si Si7 0.529544 0.075091 0.222095
Si Si8 0.350172 0.570886 0.198107
O O1 0.111174 0.750000 0.042870
O O2 0.174771 0.516316 0.082958
O O3 0.005337 0.529593 0.055641
O O4 0.128892 0.502567 0.997025
O O5 0.242479 0.250000 0.272378
O O6 0.133416 0.029195 0.282391
O O7 0.283783 0.024394 0.325567
O O8 0.294052 0.991891 0.240397
O O9 0.193052 0.250000 0.855107
O O10 0.159604 0.028242 0.909789
O O11 0.058352 0.079380 0.844290
O O12 0.964846 0.250000 0.794956
O O13 0.882470 0.038136 0.836702
O O14 0.991907 0.964578 0.773175
O O15 0.100893 0.250000 0.954680
O O16 0.294351 0.250000 0.629188
O O17 0.207472 0.477307 0.655126
O O18 0.523254 0.250000 0.213213
O O19 0.450762 0.989823 0.196534
O O20 0.351568 0.750000 0.201662
#
# Coordination Sequence:
#
# PCOD9467759 Si02
#       8
#     8   8   8   8   8   8   8   8
#     4   9  16  29  47  68  97 129 158 192 237 286
#     4  11  23  35  48  70 100 130 163 203 247 292
#     4  10  19  31  50  72  96 132 169 201 237 282
#     4  10  17  29  49  70  95 130 168 201 234 279
#     4   9  17  29  45  70 100 127 158 195 236 285
#     4   9  17  30  49  72  96 127 167 203 234 279
#     4  11  23  36  47  67 101 133 161 204 250 289
#     4  11  21  33  52  73  94 127 170 207 240 285
#
# _framework density 15.802469
#
# number of rings (size 3 to 8) (size 9 to 14) (size 15 to 20)
#    0.000    2.000    3.750    1.125    0.000    2.000 
#    0.000    1.875    0.000    0.000    0.000    0.875 
#    0.000    0.000    0.000    0.000    0.000    0.000 
#
# Total GULP energy -356628.240959 kJ/mol
# GULP energy per Si atom -5572.316265 kJ/mol
# Density = 1.576650 g / cm^3
# Si number density = 15.802469 Si / 1000 Ang^3
#
#
#
# Elastic Constant Matrix: (Units=GPa)
#
#
# Indices 1 2 3 4 5 6 
#
# 1 43.5760 14.1963 -2.4663 0.0000 0.0000 0.0000
# 2 14.1963 22.4022 6.1344 0.0000 0.0000 0.0000
# 3 -2.4663 6.1344 59.4348 0.0000 0.0000 0.0000
# 4 0.0000 0.0000 0.0000 12.5924 0.0000 0.0000
# 5 0.0000 0.0000 0.0000 0.0000 16.4096 0.0000
# 6 0.0000 0.0000 0.0000 0.0000 0.0000 21.1435
#
#
#
# Elastic Compliance Matrix: (Units=1/GPa)
#
#
# Indices 1 2 3 4 5 6 
#
# 1 0.029515 -0.019593 0.003247 0.000000 0.000000 0.000000
# 2 -0.019593 0.058943 -0.006897 0.000000 0.000000 0.000000
# 3 0.003247 -0.006897 0.017672 0.000000 0.000000 0.000000
# 4 0.000000 0.000000 0.000000 0.079413 0.000000 0.000000
# 5 0.000000 0.000000 0.000000 0.000000 0.060940 0.000000
# 6 0.000000 0.000000 0.000000 0.000000 0.000000 0.047296
#
#
# Mechanical properties :
#
#
# Convention : Reuss Voigt Hill
#
# Bulk Modulus (GPa) = 16.76592 17.90462 17.33527
# Shear Modulus (GPa) = 13.88329 17.19901 15.54115
#
# Velocity S-wave (km/s) = 2.96725 3.30263 3.13942
# Velocity P-wave (km/s) = 4.72992 5.08901 4.91275
#
# Compressibility (1/GPa) = 0.05964479
#
# Stress axis : x y z
#
# Youngs Moduli (GPa) = 33.88086 16.96559 56.58758
#
# Poissons Ratio (x) = 0.33240 -0.18374
# Poissons Ratio (y) = 0.66382 0.39026
# Poissons Ratio (z) = -0.11001 0.11701
#
# Static dielectric constant tensor:
#      x y z
#    x 1.542130 0.000000 0.000000 
#    y 0.000000 1.534630 0.000000 
#    z 0.000000 0.000000 1.543040 
# 
# From -- ./inp_files/32727.got.cif
#   From: 2010.05.17/outbox.ucp.g08.bks.cvg/sg62_17_cif.got.tgz:32727.got - 2010.06.11 16:29:25.
