data_PCOD9467873
_publ_section_title
;
Structure prediction by ZEFSAII (Michael W. Deem and Ramdas Pophale) SiO2 
 PCOD9467873
Probable space group: P N M A
;
_chemical_formula_sum "Si O2"
_cell_formula_units_Z 48
_cell_length_a 30.000000
_cell_length_b 9.000000
_cell_length_c 9.000000
_cell_angle_alpha 90.000000
_cell_angle_beta 90.000000
_cell_angle_gamma 90.000000
_cell_volume 2430.000000
_symmetry_space_group_name_H-M "P N M A"
_symmetry_group_IT_number 62
_symmetry_cell_setting 'orthorhombic'
loop_
_space_group_symop_operation_xyz
x,y,z
1/2-x,-y,1/2+z
1/2+x,1/2-y,1/2-z
-x,1/2+y,-z
-x,-y,-z
1/2+x,y,1/2-z
1/2-x,1/2+y,1/2+z
x,1/2-y,z
loop_
_atom_site_type_symbol
_atom_site_label
_atom_site_fract_x
_atom_site_fract_y
_atom_site_fract_z
Si Si1 0.768304 0.573351 0.100167
Si Si2 0.144705 0.928157 0.784747
Si Si3 0.934497 0.428908 0.417333
Si Si4 0.306278 0.573952 0.727254
Si Si5 0.973270 0.571412 0.714033
Si Si6 0.602896 0.428638 0.424236
O O1 0.770299 0.750000 0.117210
O O2 0.806460 0.499086 0.202736
O O3 0.720109 0.513772 0.146918
O O4 0.782260 0.538682 0.930638
O O5 0.148638 0.750000 0.786786
O O6 0.113602 0.972715 0.646151
O O7 0.117874 0.984560 0.929786
O O8 0.934915 0.250000 0.433618
O O9 0.948559 0.502785 0.571305
O O10 0.974619 0.468589 0.301919
O O11 0.301690 0.750000 0.753870
O O12 0.358373 0.541725 0.698605
O O13 0.970282 0.750000 0.704646
O O14 0.945061 0.527756 0.858872
O O15 0.604252 0.250000 0.453188
#
# Coordination Sequence:
#
# PCOD9467873 Si02
#       6
#     8   8   8   8   8   8
#     4  10  21  36  54  76 101 132 170 208 249 300
#     4  10  20  34  52  75 104 135 167 207 252 296
#     4   9  19  34  51  75 105 134 168 209 250 295
#     4   9  19  35  52  74 103 131 164 208 253 297
#     4   9  18  34  54  75 102 135 169 207 250 296
#     4   9  19  35  53  75 103 133 168 209 250 297
#
# _framework density 19.753086
#
# number of rings (size 3 to 8) (size 9 to 14) (size 15 to 20)
#    0.000    2.667    0.000    2.000    0.000    7.333 
#    0.000    3.333    0.000    0.000    0.000    0.000 
#    0.000    0.000    0.000    0.000    0.000    0.000 
#
# Total GULP energy -267866.537289 kJ/mol
# GULP energy per Si atom -5580.552860 kJ/mol
# Density = 1.970813 g / cm^3
# Si number density = 19.753086 Si / 1000 Ang^3
#
#
#
# Elastic Constant Matrix: (Units=GPa)
#
#
# Indices 1 2 3 4 5 6 
#
# 1 23.7838 -1.2541 -6.4584 0.0000 0.0000 0.0000
# 2 -1.2541 9.0814 -2.1386 0.0000 0.0000 0.0000
# 3 -6.4584 -2.1386 2.9129 0.0000 0.0000 0.0000
# 4 0.0000 0.0000 0.0000 26.2651 0.0000 0.0000
# 5 0.0000 0.0000 0.0000 0.0000 39.6846 0.0000
# 6 0.0000 0.0000 0.0000 0.0000 0.0000 24.6270
#
#
#
# Elastic Compliance Matrix: (Units=1/GPa)
#
#
# Indices 1 2 3 4 5 6 
#
# 1 0.213744 0.170617 0.599167 0.000000 0.000000 0.000000
# 2 0.170617 0.269325 0.576016 0.000000 0.000000 0.000000
# 3 0.599167 0.576016 2.094640 0.000000 0.000000 0.000000
# 4 0.000000 0.000000 0.000000 0.038073 0.000000 0.000000
# 5 0.000000 0.000000 0.000000 0.000000 0.025199 0.000000
# 6 0.000000 0.000000 0.000000 0.000000 0.000000 0.040606
#
#
# Mechanical properties :
#
#
# Convention : Reuss Voigt Hill
#
# Bulk Modulus (GPa) = 0.18978 1.78621 0.98799
# Shear Modulus (GPa) = 2.86299 21.15728 12.01014
#
# Velocity S-wave (km/s) = 1.20521 3.27630 2.46847
# Velocity P-wave (km/s) = 1.42583 3.90108 2.93695
#
# Compressibility (1/GPa) = 5.26930857
#
# Stress axis : x y z
#
# Youngs Moduli (GPa) = 4.67848 3.71299 0.47741
#
# Poissons Ratio (x) = -0.63350 -0.28605
# Poissons Ratio (y) = -0.79823 -0.27500
# Poissons Ratio (z) = -2.80320 -2.13874
#
# Static dielectric constant tensor:
#      x y z
#    x 1.706320 0.000000 0.000000 
#    y 0.000000 1.654340 0.000000 
#    z 0.000000 0.000000 1.695910 
# 
# From -- ./inp_files/10183.got.cif
#   From: 2010.05.17/outbox.ucp.g08.bks.cvg/sg62_6_cif.got.tgz:10183.got - 2010.06.11 16:29:25.
