data_PCOD9467409
_publ_section_title
;
Structure prediction by ZEFSAII (Michael W. Deem and Ramdas Pophale) SiO2 
 PCOD9467409
Probable space group: P N M A
;
_chemical_formula_sum "Si O2"
_cell_formula_units_Z 56
_cell_length_a 16.538626
_cell_length_b 7.696258
_cell_length_c 22.204922
_cell_angle_alpha 90.000000
_cell_angle_beta 90.000000
_cell_angle_gamma 90.000000
_cell_volume 2826.365324
_symmetry_space_group_name_H-M "P N M A"
_symmetry_group_IT_number 62
_symmetry_cell_setting 'orthorhombic'
loop_
_space_group_symop_operation_xyz
x,y,z
1/2-x,-y,1/2+z
1/2+x,1/2-y,1/2-z
-x,1/2+y,-z
-x,-y,-z
1/2+x,y,1/2-z
1/2-x,1/2+y,1/2+z
x,1/2-y,z
loop_
_atom_site_type_symbol
_atom_site_label
_atom_site_fract_x
_atom_site_fract_y
_atom_site_fract_z
Si Si1 0.941933 0.949521 0.808117
Si Si2 0.617923 0.540005 0.019485
Si Si3 0.520104 0.545638 0.903360
Si Si4 0.086173 0.536629 0.724819
Si Si5 0.049010 0.944868 0.058269
Si Si6 0.770912 0.960046 0.951898
Si Si7 0.241054 0.038628 0.186678
O O1 0.935664 0.750000 0.787201
O O2 0.850636 0.024870 0.799041
O O3 0.020505 0.023354 0.774107
O O4 0.958061 0.950455 0.879670
O O5 0.614527 0.750000 0.020264
O O6 0.573582 0.477448 0.079394
O O7 0.567753 0.473002 0.961172
O O8 0.708494 0.487949 0.003514
O O9 0.538852 0.750000 0.902233
O O10 0.549124 0.479235 0.839446
O O11 0.088567 0.750000 0.727041
O O12 0.180704 0.481398 0.725100
O O13 0.026052 0.750000 0.074499
O O14 0.142459 0.957316 0.040370
O O15 0.000000 0.000000 0.000000
O O16 0.778909 0.750000 0.953251
O O17 0.742136 0.003531 0.883874
O O18 0.238051 0.250000 0.189639
#
# Coordination Sequence:
#
# PCOD9467409 Si02
#       7
#     8   8   8   8   8   8   8
#     4   9  18  32  53  77  99 129 168 209 253 300
#     4   9  16  27  44  69 101 136 166 201 250 294
#     4   9  16  26  43  68 101 137 171 206 239 286
#     4   9  15  27  48  72  98 133 175 212 247 294
#     4  11  22  37  56  76  99 126 161 208 257 304
#     4   9  16  30  52  74  98 131 170 207 252 302
#     4   8  13  25  46  70  95 126 167 211 249 292
#
# _framework density 19.813431999999999
#
# number of rings (size 3 to 8) (size 9 to 14) (size 15 to 20)
#    0.000    2.857    1.429    2.143    0.000    0.571 
#    0.000    2.143    0.000    6.857    0.000    0.000 
#    0.000    0.000    0.000    0.000    0.000    0.000 
#
# Total GULP energy -311806.274851 kJ/mol
# GULP energy per Si atom -5567.969194 kJ/mol
# Density = 1.976834 g / cm^3
# Si number density = 19.813432 Si / 1000 Ang^3
#
#
#
# Elastic Constant Matrix: (Units=GPa)
#
#
# Indices 1 2 3 4 5 6 
#
# 1 144.5863 0.9670 71.1435 0.0000 0.0000 0.0000
# 2 0.9670 28.9889 -3.7214 0.0000 0.0000 0.0000
# 3 71.1435 -3.7214 59.4313 0.0000 0.0000 0.0000
# 4 0.0000 0.0000 0.0000 9.5230 0.0000 0.0000
# 5 0.0000 0.0000 0.0000 0.0000 38.9504 0.0000
# 6 0.0000 0.0000 0.0000 0.0000 0.0000 13.4074
#
#
#
# Elastic Compliance Matrix: (Units=1/GPa)
#
#
# Indices 1 2 3 4 5 6 
#
# 1 0.017123 -0.003229 -0.020700 0.000000 0.000000 0.000000
# 2 -0.003229 0.035384 0.006080 0.000000 0.000000 0.000000
# 3 -0.020700 0.006080 0.041986 0.000000 0.000000 0.000000
# 4 0.000000 0.000000 0.000000 0.105009 0.000000 0.000000
# 5 0.000000 0.000000 0.000000 0.000000 0.025674 0.000000
# 6 0.000000 0.000000 0.000000 0.000000 0.000000 0.074585
#
#
# Mechanical properties :
#
#
# Convention : Reuss Voigt Hill
#
# Bulk Modulus (GPa) = 17.00748 41.08719 29.04734
# Shear Modulus (GPa) = 14.08225 23.35066 18.71646
#
# Velocity S-wave (km/s) = 2.66887 3.43669 3.07683
# Velocity P-wave (km/s) = 4.25436 6.04399 5.22635
#
# Compressibility (1/GPa) = 0.05879765
#
# Stress axis : x y z
#
# Youngs Moduli (GPa) = 58.40005 28.26118 23.81731
#
# Poissons Ratio (x) = 0.09124 0.49302
# Poissons Ratio (y) = 0.18855 -0.14482
# Poissons Ratio (z) = 1.20888 -0.17184
#
# Static dielectric constant tensor:
#      x y z
#    x 1.660340 0.000000 0.000000 
#    y 0.000000 1.948630 0.000000 
#    z 0.000000 0.000000 1.413420 
# 
# From -- ./inp_files/27552.got.cif
#   From: 2010.05.17/outbox.cif.g08.bks.cpg/sg62_14_cif.got.tgz:27552.got - 2010.06.03 15:25:27.
