data_PCOD9467286
_publ_section_title
;
Structure prediction by ZEFSAII (Michael W. Deem and Ramdas Pophale) SiO2 
 PCOD9467286
Probable space group: P N M A
;
_chemical_formula_sum "Si O2"
_cell_formula_units_Z 56
_cell_length_a 19.981901
_cell_length_b 7.502222
_cell_length_c 18.705573
_cell_angle_alpha 90.000000
_cell_angle_beta 90.000000
_cell_angle_gamma 90.000000
_cell_volume 2804.127332
_symmetry_space_group_name_H-M "P N M A"
_symmetry_group_IT_number 62
_symmetry_cell_setting 'orthorhombic'
loop_
_space_group_symop_operation_xyz
x,y,z
1/2-x,-y,1/2+z
1/2+x,1/2-y,1/2-z
-x,1/2+y,-z
-x,-y,-z
1/2+x,y,1/2-z
1/2-x,1/2+y,1/2+z
x,1/2-y,z
loop_
_atom_site_type_symbol
_atom_site_label
_atom_site_fract_x
_atom_site_fract_y
_atom_site_fract_z
Si Si1 0.170091 0.456718 0.988034
Si Si2 0.182917 0.966900 0.737819
Si Si3 0.966086 0.446829 0.074359
Si Si4 0.694582 0.032748 0.352895
Si Si5 0.466078 0.469360 0.266584
Si Si6 0.771839 0.965164 0.625833
Si Si7 0.606623 0.466949 0.216485
O O1 0.149507 0.250000 0.990938
O O2 0.113049 0.551174 0.941676
O O3 0.240767 0.469639 0.947909
O O4 0.174720 0.528349 0.068403
O O5 0.182523 0.750000 0.737517
O O6 0.231631 0.022902 0.673436
O O7 0.106503 0.027366 0.738831
O O8 0.220765 0.019853 0.810837
O O9 0.993044 0.250000 0.086266
O O10 0.976158 0.535196 0.151505
O O11 0.000000 0.500000 0.000000
O O12 0.694417 0.250000 0.355191
O O13 0.643149 0.980341 0.290566
O O14 0.464270 0.250000 0.267635
O O15 0.529911 0.523776 0.220008
O O16 0.771873 0.750000 0.623473
O O17 0.845138 0.024640 0.651875
O O18 0.607249 0.250000 0.215628
#
# Coordination Sequence:
#
# PCOD9467286 Si02
#       7
#     8   8   8   8   8   8   8
#     4  11  20  30  46  69  96 126 157 191 234 282
#     4   8  13  25  45  66  86 113 157 202 231 262
#     4  11  21  32  47  71 101 129 155 186 234 288
#     4   8  15  26  41  63  91 121 153 191 231 272
#     4   9  15  25  45  71  91 113 152 199 234 267
#     4   9  16  29  47  67  89 118 152 192 235 276
#     4   8  14  25  44  67  90 113 148 195 234 266
#
# _framework density 19.970562999999999
#
# number of rings (size 3 to 8) (size 9 to 14) (size 15 to 20)
#    0.000    2.857    1.429    3.429    0.000    2.286 
#    0.000    0.000    0.000   12.857    0.000    0.000 
#    0.000    0.000    0.000    0.000    0.000    0.143 
#
# Total GULP energy -312244.372581 kJ/mol
# GULP energy per Si atom -5575.792368 kJ/mol
# Density = 1.992511 g / cm^3
# Si number density = 19.970563 Si / 1000 Ang^3
#
#
#
# Elastic Constant Matrix: (Units=GPa)
#
#
# Indices 1 2 3 4 5 6 
#
# 1 102.5328 -2.7281 -14.6426 0.0000 0.0000 0.0000
# 2 -2.7281 49.2375 -5.4296 0.0000 0.0000 0.0000
# 3 -14.6426 -5.4296 12.3212 0.0000 0.0000 0.0000
# 4 0.0000 0.0000 0.0000 7.3408 0.0000 0.0000
# 5 0.0000 0.0000 0.0000 0.0000 32.0275 0.0000
# 6 0.0000 0.0000 0.0000 0.0000 0.0000 5.0130
#
#
#
# Elastic Compliance Matrix: (Units=1/GPa)
#
#
# Indices 1 2 3 4 5 6 
#
# 1 0.012000 0.002352 0.015298 0.000000 0.000000 0.000000
# 2 0.002352 0.021808 0.012405 0.000000 0.000000 0.000000
# 3 0.015298 0.012405 0.104807 0.000000 0.000000 0.000000
# 4 0.000000 0.000000 0.000000 0.136226 0.000000 0.000000
# 5 0.000000 0.000000 0.000000 0.000000 0.031223 0.000000
# 6 0.000000 0.000000 0.000000 0.000000 0.000000 0.199480
#
#
# Mechanical properties :
#
#
# Convention : Reuss Voigt Hill
#
# Bulk Modulus (GPa) = 5.03210 13.16566 9.09888
# Shear Modulus (GPa) = 9.77178 21.33572 15.55375
#
# Velocity S-wave (km/s) = 2.21443 3.27212 2.79379
# Velocity P-wave (km/s) = 3.01057 4.56974 3.86950
#
# Compressibility (1/GPa) = 0.19872418
#
# Stress axis : x y z
#
# Youngs Moduli (GPa) = 83.33215 45.85485 9.54130
#
# Poissons Ratio (x) = -0.10784 -0.14596
# Poissons Ratio (y) = -0.19598 -0.11836
# Poissons Ratio (z) = -1.27477 -0.56883
#
# Static dielectric constant tensor:
#      x y z
#    x 1.720970 0.000000 0.000000 
#    y 0.000000 1.722840 0.000000 
#    z 0.000000 0.000000 1.689410 
# 
# From -- ./inp_files/24644.got.cif
#   From: 2010.05.17/outbox.cif.g08.bks.cpg/sg62_13_cif.got.tgz:24644.got - 2010.06.03 15:25:27.
