data_PCOD9467483
_publ_section_title
;
Structure prediction by ZEFSAII (Michael W. Deem and Ramdas Pophale) SiO2 
 PCOD9467483
Probable space group: P N M A
;
_chemical_formula_sum "Si O2"
_cell_formula_units_Z 64
_cell_length_a 11.528414
_cell_length_b 18.647503
_cell_length_c 14.527783
_cell_angle_alpha 90.000000
_cell_angle_beta 90.000000
_cell_angle_gamma 90.000000
_cell_volume 3123.126634
_symmetry_space_group_name_H-M "P N M A"
_symmetry_group_IT_number 62
_symmetry_cell_setting 'orthorhombic'
loop_
_space_group_symop_operation_xyz
x,y,z
1/2-x,-y,1/2+z
1/2+x,1/2-y,1/2-z
-x,1/2+y,-z
-x,-y,-z
1/2+x,y,1/2-z
1/2-x,1/2+y,1/2+z
x,1/2-y,z
loop_
_atom_site_type_symbol
_atom_site_label
_atom_site_fract_x
_atom_site_fract_y
_atom_site_fract_z
Si Si1 0.128999 0.978257 0.973799
Si Si2 0.599823 0.557621 0.187874
Si Si3 0.240344 0.583761 0.605710
Si Si4 0.946825 0.669594 0.803737
Si Si5 0.149340 0.480888 0.760010
Si Si6 0.592826 0.105765 0.120294
Si Si7 0.828148 0.329872 0.068119
Si Si8 0.426723 0.164916 0.977572
O O1 0.151971 0.895816 0.000477
O O2 0.139883 0.988489 0.863769
O O3 0.217664 0.028254 0.027926
O O4 0.000000 0.000000 0.000000
O O5 0.475155 0.557473 0.240939
O O6 0.724196 0.559118 0.241123
O O7 0.600266 0.479069 0.137638
O O8 0.599609 0.622634 0.115925
O O9 0.352784 0.615276 0.655948
O O10 0.166217 0.540578 0.680879
O O11 0.173148 0.645858 0.551560
O O12 0.898730 0.750000 0.800476
O O13 0.977369 0.643105 0.702360
O O14 0.059325 0.670626 0.867384
O O15 0.716465 0.145194 0.125077
O O16 0.538674 0.126864 0.023005
O O17 0.811357 0.250000 0.030310
O O18 0.441006 0.250000 0.967125
#
# Coordination Sequence:
#
# PCOD9467483 Si02
#       8
#     8   8   8   8   8   8   8   8
#     4  12  23  42  68 102 137 185 233 289 353 424
#     4  12  25  46  74 102 140 184 239 296 346 427
#     4  12  23  42  72  99 136 187 229 291 354 434
#     4  11  23  38  60 100 142 176 220 286 366 430
#     4  12  25  45  73 108 137 178 246 289 352 425
#     4  12  23  41  65  98 134 181 230 282 354 431
#     4  11  23  38  58  93 136 173 220 285 352 423
#     4  12  27  45  68 102 141 187 236 292 361 427
#
# _framework density 20.492284000000001
#
# number of rings (size 3 to 8) (size 9 to 14) (size 15 to 20)
#    0.000    0.250    6.250    3.375    3.500    0.000 
#    0.000    0.625    0.000    2.250    0.000    0.000 
#    0.000    0.000    0.000    0.000    0.000    0.000 
#
# Total GULP energy -357566.595879 kJ/mol
# GULP energy per Si atom -5586.978061 kJ/mol
# Density = 2.044564 g / cm^3
# Si number density = 20.492284 Si / 1000 Ang^3
#
#
#
# Elastic Constant Matrix: (Units=GPa)
#
#
# Indices 1 2 3 4 5 6 
#
# 1 118.3404 10.5998 23.5917 0.0000 0.0000 0.0000
# 2 10.5998 102.3503 26.7646 0.0000 0.0000 0.0000
# 3 23.5917 26.7646 66.7752 0.0000 0.0000 0.0000
# 4 0.0000 0.0000 0.0000 24.6682 0.0000 0.0000
# 5 0.0000 0.0000 0.0000 0.0000 33.0382 0.0000
# 6 0.0000 0.0000 0.0000 0.0000 0.0000 18.3644
#
#
#
# Elastic Compliance Matrix: (Units=1/GPa)
#
#
# Indices 1 2 3 4 5 6 
#
# 1 0.009092 -0.000114 -0.003167 0.000000 0.000000 0.000000
# 2 -0.000114 0.010916 -0.004335 0.000000 0.000000 0.000000
# 3 -0.003167 -0.004335 0.017832 0.000000 0.000000 0.000000
# 4 0.000000 0.000000 0.000000 0.040538 0.000000 0.000000
# 5 0.000000 0.000000 0.000000 0.000000 0.030268 0.000000
# 6 0.000000 0.000000 0.000000 0.000000 0.000000 0.054453
#
#
# Mechanical properties :
#
#
# Convention : Reuss Voigt Hill
#
# Bulk Modulus (GPa) = 44.23031 45.48649 44.85840
# Shear Modulus (GPa) = 26.90121 30.31481 28.60801
#
# Velocity S-wave (km/s) = 3.62712 3.85038 3.74041
# Velocity P-wave (km/s) = 6.25876 6.48169 6.37120
#
# Compressibility (1/GPa) = 0.02260893
#
# Stress axis : x y z
#
# Youngs Moduli (GPa) = 109.99118 91.61067 56.07905
#
# Poissons Ratio (x) = 0.01040 0.17758
# Poissons Ratio (y) = 0.01248 0.24311
# Poissons Ratio (z) = 0.34830 0.39714
#
# Static dielectric constant tensor:
#      x y z
#    x 1.814030 0.000000 0.000000 
#    y 0.000000 1.729640 0.000000 
#    z 0.000000 0.000000 1.753220 
# 
# From -- ./inp_files/18292.got.cif
#   From: 2010.05.17/outbox.cif.g08.bks.cpg/sg62_10_cif.got.tgz:18292.got - 2010.06.03 15:25:27.
