data_PCOD9467934
_publ_section_title
;
Structure prediction by ZEFSAII (Michael W. Deem and Ramdas Pophale) SiO2 
 PCOD9467934
Probable space group: P N M A
;
_chemical_formula_sum "Si O2"
_cell_formula_units_Z 64
_cell_length_a 24.000000
_cell_length_b 9.000000
_cell_length_c 15.000000
_cell_angle_alpha 90.000000
_cell_angle_beta 90.000000
_cell_angle_gamma 90.000000
_cell_volume 3240.000000
_symmetry_space_group_name_H-M "P N M A"
_symmetry_group_IT_number 62
_symmetry_cell_setting 'orthorhombic'
loop_
_space_group_symop_operation_xyz
x,y,z
1/2-x,-y,1/2+z
1/2+x,1/2-y,1/2-z
-x,1/2+y,-z
-x,-y,-z
1/2+x,y,1/2-z
1/2-x,1/2+y,1/2+z
x,1/2-y,z
loop_
_atom_site_type_symbol
_atom_site_label
_atom_site_fract_x
_atom_site_fract_y
_atom_site_fract_z
Si Si1 0.553718 0.072241 0.545861
Si Si2 0.656691 0.418942 0.038962
Si Si3 0.358759 0.423939 0.584695
Si Si4 0.267044 0.924386 0.486897
Si Si5 0.294133 0.072213 0.298366
Si Si6 0.090868 0.069648 0.753170
Si Si7 0.165779 0.421882 0.254220
Si Si8 0.042020 0.078363 0.567769
O O1 0.549860 0.250000 0.541894
O O2 0.564591 0.032337 0.649810
O O3 0.500000 0.000000 0.500000
O O4 0.603888 0.014051 0.484819
O O5 0.680494 0.250000 0.031218
O O6 0.701951 0.539162 0.011072
O O7 0.645666 0.439806 0.144148
O O8 0.602029 0.426983 0.980143
O O9 0.366968 0.250000 0.572544
O O10 0.296852 0.477568 0.561115
O O11 0.366663 0.473564 0.686296
O O12 0.278447 0.750000 0.496661
O O13 0.289544 0.986100 0.392423
O O14 0.301029 0.250000 0.311891
O O15 0.232765 0.050633 0.255669
O O16 0.347950 0.005588 0.248917
O O17 0.097366 0.250000 0.748799
O O18 0.052752 0.022696 0.668937
O O19 0.157595 0.250000 0.227472
O O20 0.024387 0.250000 0.575384
O O21 0.000000 0.000000 0.500000
#
# Coordination Sequence:
#
# PCOD9467934 Si02
#       8
#     8   8   8   8   8   8   8   8
#     4  11  24  43  65  91 125 165 208 260 314 373
#     4   9  20  40  62  88 122 161 204 255 311 370
#     4  12  24  38  59  89 125 167 210 254 308 369
#     4  11  21  35  58  88 125 162 200 252 310 367
#     4  10  20  36  60  90 125 162 206 251 306 374
#     4  10  22  40  63  91 122 159 205 257 310 367
#     4   9  20  37  57  88 128 166 205 252 307 369
#     4  10  23  43  65  91 122 160 208 260 313 369
#
# _framework density 19.753086
#
# number of rings (size 3 to 8) (size 9 to 14) (size 15 to 20)
#    0.000    1.750    1.250    3.750    1.750    5.000 
#    0.000    2.500    0.000    0.000    0.000    0.000 
#    0.000    0.000    0.000    0.000    0.000    0.000 
#
# Total GULP energy -357349.887099 kJ/mol
# GULP energy per Si atom -5583.591986 kJ/mol
# Density = 1.970813 g / cm^3
# Si number density = 19.753086 Si / 1000 Ang^3
#
#
#
# Elastic Constant Matrix: (Units=GPa)
#
#
# Indices 1 2 3 4 5 6 
#
# 1 34.9800 20.9287 37.1239 0.0000 0.0000 0.0000
# 2 20.9287 59.0972 36.8951 0.0000 0.0000 0.0000
# 3 37.1239 36.8951 112.1963 0.0000 0.0000 0.0000
# 4 0.0000 0.0000 0.0000 23.4820 0.0000 0.0000
# 5 0.0000 0.0000 0.0000 0.0000 23.5712 0.0000
# 6 0.0000 0.0000 0.0000 0.0000 0.0000 32.8450
#
#
#
# Elastic Compliance Matrix: (Units=1/GPa)
#
#
# Indices 1 2 3 4 5 6 
#
# 1 0.047445 -0.008810 -0.012802 0.000000 0.000000 0.000000
# 2 -0.008810 0.022929 -0.004625 0.000000 0.000000 0.000000
# 3 -0.012802 -0.004625 0.014670 0.000000 0.000000 0.000000
# 4 0.000000 0.000000 0.000000 0.042586 0.000000 0.000000
# 5 0.000000 0.000000 0.000000 0.000000 0.042425 0.000000
# 6 0.000000 0.000000 0.000000 0.000000 0.000000 0.030446
#
#
# Mechanical properties :
#
#
# Convention : Reuss Voigt Hill
#
# Bulk Modulus (GPa) = 30.70282 44.01877 37.36080
# Shear Modulus (GPa) = 18.95163 23.40137 21.17650
#
# Velocity S-wave (km/s) = 3.10082 3.44567 3.27779
# Velocity P-wave (km/s) = 5.32890 6.17763 5.76889
#
# Compressibility (1/GPa) = 0.03257029
#
# Stress axis : x y z
#
# Youngs Moduli (GPa) = 21.07701 43.61361 68.16790
#
# Poissons Ratio (x) = 0.38424 0.87266
# Poissons Ratio (y) = 0.18569 0.31527
# Poissons Ratio (z) = 0.26982 0.20171
#
# Static dielectric constant tensor:
#      x y z
#    x 1.757090 0.000000 0.000000 
#    y 0.000000 1.674860 0.000000 
#    z 0.000000 0.000000 1.738780 
# 
# From -- ./inp_files/20861.got.cif
#   From: 2010.05.17/outbox.ucp.g08.bks.cvg/sg62_11_cif.got.tgz:20861.got - 2010.06.11 16:29:25.
