data_PCOD9467953
_publ_section_title
;
Structure prediction by ZEFSAII (Michael W. Deem and Ramdas Pophale) SiO2 
 PCOD9467953
Probable space group: P N M A
;
_chemical_formula_sum "Si O2"
_cell_formula_units_Z 48
_cell_length_a 9.000000
_cell_length_b 9.000000
_cell_length_c 30.000000
_cell_angle_alpha 90.000000
_cell_angle_beta 90.000000
_cell_angle_gamma 90.000000
_cell_volume 2430.000000
_symmetry_space_group_name_H-M "P N M A"
_symmetry_group_IT_number 62
_symmetry_cell_setting 'orthorhombic'
loop_
_space_group_symop_operation_xyz
x,y,z
1/2-x,-y,1/2+z
1/2+x,1/2-y,1/2-z
-x,1/2+y,-z
-x,-y,-z
1/2+x,y,1/2-z
1/2-x,1/2+y,1/2+z
x,1/2-y,z
loop_
_atom_site_type_symbol
_atom_site_label
_atom_site_fract_x
_atom_site_fract_y
_atom_site_fract_z
Si Si1 0.454807 0.572052 0.546969
Si Si2 0.704044 0.577552 0.891899
Si Si3 0.849922 0.070958 0.293442
Si Si4 0.694637 0.427910 0.605735
Si Si5 0.298078 0.570775 0.800611
Si Si6 0.068567 0.074812 0.455445
O O1 0.500000 0.500000 0.500000
O O2 0.460697 0.750000 0.540984
O O3 0.295986 0.518674 0.565702
O O4 0.552514 0.518920 0.588928
O O5 0.751569 0.750000 0.887360
O O6 0.711707 0.513366 0.841631
O O7 0.540107 0.577887 0.912308
O O8 0.828431 0.250000 0.294207
O O9 0.780589 0.022298 0.246017
O O10 0.026216 0.044213 0.294531
O O11 0.674402 0.250000 0.607427
O O12 0.744333 0.488784 0.654305
O O13 0.803039 0.471363 0.564563
O O14 0.275073 0.750000 0.806139
O O15 0.108476 0.250000 0.463956
O O16 0.000000 0.000000 0.500000
#
# Coordination Sequence:
#
# PCOD9467953 Si02
#       6
#     8   8   8   8   8   8
#     4  11  23  40  64  91 124 162 206 257 316 373
#     4   9  19  36  60  89 119 152 194 251 310 373
#     4   9  18  34  61  94 118 145 196 254 312 376
#     4  12  25  41  59  86 127 170 212 251 297 364
#     4  10  20  37  64  92 119 153 200 257 312 368
#     4  11  21  38  64  92 121 155 200 254 314 372
#
# _framework density 19.753086
#
# number of rings (size 3 to 8) (size 9 to 14) (size 15 to 20)
#    0.000    1.667    1.667    3.500    2.333    1.333 
#    0.000    3.333    0.000    0.000    0.000    0.000 
#    0.000    0.000    0.000    0.000    0.000    0.000 
#
# Total GULP energy -267373.437182 kJ/mol
# GULP energy per Si atom -5570.279941 kJ/mol
# Density = 1.970813 g / cm^3
# Si number density = 19.753086 Si / 1000 Ang^3
#
#
#
# Elastic Constant Matrix: (Units=GPa)
#
#
# Indices 1 2 3 4 5 6 
#
# 1 32.3981 6.2050 11.9618 0.0000 0.0000 0.0000
# 2 6.2050 63.0289 30.4668 0.0000 0.0000 0.0000
# 3 11.9618 30.4668 148.5586 0.0000 0.0000 0.0000
# 4 0.0000 0.0000 0.0000 36.8729 0.0000 0.0000
# 5 0.0000 0.0000 0.0000 0.0000 42.1992 0.0000
# 6 0.0000 0.0000 0.0000 0.0000 0.0000 12.8756
#
#
#
# Elastic Compliance Matrix: (Units=1/GPa)
#
#
# Indices 1 2 3 4 5 6 
#
# 1 0.032065 -0.002119 -0.002147 0.000000 0.000000 0.000000
# 2 -0.002119 0.017752 -0.003470 0.000000 0.000000 0.000000
# 3 -0.002147 -0.003470 0.007616 0.000000 0.000000 0.000000
# 4 0.000000 0.000000 0.000000 0.027120 0.000000 0.000000
# 5 0.000000 0.000000 0.000000 0.000000 0.023697 0.000000
# 6 0.000000 0.000000 0.000000 0.000000 0.000000 0.077666
#
#
# Mechanical properties :
#
#
# Convention : Reuss Voigt Hill
#
# Bulk Modulus (GPa) = 23.83209 37.91695 30.87452
# Shear Modulus (GPa) = 23.21537 31.41299 27.31418
#
# Velocity S-wave (km/s) = 3.43195 3.99216 3.72261
# Velocity P-wave (km/s) = 5.27215 6.36293 5.84305
#
# Compressibility (1/GPa) = 0.04196023
#
# Stress axis : x y z
#
# Youngs Moduli (GPa) = 31.18701 56.33286 131.30462
#
# Poissons Ratio (x) = 0.11935 0.28195
# Poissons Ratio (y) = 0.06608 0.45562
# Poissons Ratio (z) = 0.06697 0.19547
#
# Static dielectric constant tensor:
#      x y z
#    x 2.080830 0.000000 0.000000 
#    y 0.000000 2.095330 0.000000 
#    z 0.000000 0.000000 1.673010 
# 
# From -- ./inp_files/31931.got.cif
#   From: 2010.05.17/outbox.ucp.g08.bks.cvg/sg62_16_cif.got.tgz:31931.got - 2010.06.11 16:29:25.
