data_PCOD9467048
_publ_section_title
;
Structure prediction by ZEFSAII (Michael W. Deem and Ramdas Pophale) SiO2 
 PCOD9467048
Probable space group: P N M A
;
_chemical_formula_sum "Si O2"
_cell_formula_units_Z 64
_cell_length_a 14.498568
_cell_length_b 23.466756
_cell_length_c 9.677250
_cell_angle_alpha 90.000000
_cell_angle_beta 90.000000
_cell_angle_gamma 90.000000
_cell_volume 3292.532937
_symmetry_space_group_name_H-M "P N M A"
_symmetry_group_IT_number 62
_symmetry_cell_setting 'orthorhombic'
loop_
_space_group_symop_operation_xyz
x,y,z
1/2-x,-y,1/2+z
1/2+x,1/2-y,1/2-z
-x,1/2+y,-z
-x,-y,-z
1/2+x,y,1/2-z
1/2-x,1/2+y,1/2+z
x,1/2-y,z
loop_
_atom_site_type_symbol
_atom_site_label
_atom_site_fract_x
_atom_site_fract_y
_atom_site_fract_z
Si Si1 0.116691 0.466773 0.461818
Si Si2 0.283514 0.316367 0.560356
Si Si3 0.387096 0.316684 0.840399
Si Si4 0.989649 0.037512 0.196418
Si Si5 0.912562 0.637526 0.334844
Si Si6 0.287226 0.084133 0.007696
Si Si7 0.290298 0.406097 0.321539
Si Si8 0.083563 0.425288 0.933043
O O1 0.091850 0.423916 0.586836
O O2 0.142318 0.530891 0.505458
O O3 0.209219 0.442583 0.390538
O O4 0.038776 0.464411 0.344104
O O5 0.285404 0.250000 0.528145
O O6 0.358444 0.327815 0.680659
O O7 0.182510 0.332312 0.621703
O O8 0.301049 0.352809 0.423492
O O9 0.366142 0.250000 0.868381
O O10 0.494210 0.329377 0.872601
O O11 0.328313 0.362519 0.925773
O O12 0.887033 0.061586 0.189325
O O13 0.980351 0.973633 0.136833
O O14 0.048169 0.076063 0.089608
O O15 0.919403 0.627655 0.170480
O O16 0.192287 0.061394 0.941168
O O17 0.265771 0.104785 0.162532
#
# Coordination Sequence:
#
# PCOD9467048 Si02
#       8
#     8   8   8   8   8   8   8   8
#     4  11  24  38  64  94 131 171 206 251 322 383
#     4  10  23  43  66  90 120 166 217 267 323 373
#     4  11  24  42  67  93 121 164 216 270 320 370
#     4  11  22  39  58  92 129 169 207 249 311 380
#     4  11  22  41  65  95 127 168 212 264 318 377
#     4  12  23  41  62  95 132 168 210 259 318 378
#     4  11  23  39  62  88 129 165 204 259 311 385
#     4  11  22  36  62  91 130 169 205 258 307 374
#
# _framework density 19.437923000000001
#
# number of rings (size 3 to 8) (size 9 to 14) (size 15 to 20)
#    0.000    1.000    3.750    3.375    0.000    3.000 
#    0.000    0.000    0.000    0.750    0.000    0.000 
#    0.000    0.000    0.000    0.000    0.000    0.000 
#
# Total GULP energy -357377.901758 kJ/mol
# GULP energy per Si atom -5584.029715 kJ/mol
# Density = 1.939368 g / cm^3
# Si number density = 19.437923 Si / 1000 Ang^3
#
#
#
# Elastic Constant Matrix: (Units=GPa)
#
#
# Indices 1 2 3 4 5 6 
#
# 1 105.0926 17.0465 19.8236 0.0000 0.0000 0.0000
# 2 17.0465 87.8071 51.0740 0.0000 0.0000 0.0000
# 3 19.8236 51.0740 97.2688 0.0000 0.0000 0.0000
# 4 0.0000 0.0000 0.0000 21.7025 0.0000 0.0000
# 5 0.0000 0.0000 0.0000 0.0000 36.5186 0.0000
# 6 0.0000 0.0000 0.0000 0.0000 0.0000 16.2142
#
#
#
# Elastic Compliance Matrix: (Units=1/GPa)
#
#
# Indices 1 2 3 4 5 6 
#
# 1 0.009967 -0.001085 -0.001462 0.000000 0.000000 0.000000
# 2 -0.001085 0.016514 -0.008450 0.000000 0.000000 0.000000
# 3 -0.001462 -0.008450 0.015016 0.000000 0.000000 0.000000
# 4 0.000000 0.000000 0.000000 0.046078 0.000000 0.000000
# 5 0.000000 0.000000 0.000000 0.000000 0.027383 0.000000
# 6 0.000000 0.000000 0.000000 0.000000 0.000000 0.061674
#
#
# Mechanical properties :
#
#
# Convention : Reuss Voigt Hill
#
# Bulk Modulus (GPa) = 51.27232 51.78406 51.52819
# Shear Modulus (GPa) = 24.37508 28.36869 26.37189
#
# Velocity S-wave (km/s) = 3.54502 3.82442 3.68737
# Velocity P-wave (km/s) = 6.57198 6.79707 6.68547
#
# Compressibility (1/GPa) = 0.01950370
#
# Stress axis : x y z
#
# Youngs Moduli (GPa) = 100.33017 60.55314 66.59649
#
# Poissons Ratio (x) = 0.06568 0.09735
# Poissons Ratio (y) = 0.10883 0.56276
# Poissons Ratio (z) = 0.14666 0.51169
#
# Static dielectric constant tensor:
#      x y z
#    x 1.693920 0.000000 0.000000 
#    y 0.000000 1.660120 0.000000 
#    z 0.000000 0.000000 1.688560 
# 
# From -- ./inp_files/6944.got.cif
#   From: 2010.05.17/outbox.cif.g08.bks.cpg/sg62_4_cif.got.tgz:6944.got - 2010.06.03 15:25:27.
