data_PCOD9467005
_publ_section_title
;
Structure prediction by ZEFSAII (Michael W. Deem and Ramdas Pophale) SiO2 
 PCOD9467005
Probable space group: P N M A
;
_chemical_formula_sum "Si O2"
_cell_formula_units_Z 64
_cell_length_a 9.264433
_cell_length_b 25.397991
_cell_length_c 14.131666
_cell_angle_alpha 90.000000
_cell_angle_beta 90.000000
_cell_angle_gamma 90.000000
_cell_volume 3325.152548
_symmetry_space_group_name_H-M "P N M A"
_symmetry_group_IT_number 62
_symmetry_cell_setting 'orthorhombic'
loop_
_space_group_symop_operation_xyz
x,y,z
1/2-x,-y,1/2+z
1/2+x,1/2-y,1/2-z
-x,1/2+y,-z
-x,-y,-z
1/2+x,y,1/2-z
1/2-x,1/2+y,1/2+z
x,1/2-y,z
loop_
_atom_site_type_symbol
_atom_site_label
_atom_site_fract_x
_atom_site_fract_y
_atom_site_fract_z
Si Si1 0.805608 0.928174 0.596531
Si Si2 0.873571 0.556852 0.800634
Si Si3 0.488854 0.396338 0.482953
Si Si4 0.531294 0.687722 0.363694
Si Si5 0.616802 0.016632 0.798280
Si Si6 0.368499 0.812906 0.169161
Si Si7 0.198571 0.452026 0.897468
Si Si8 0.480279 0.097896 0.945364
O O1 0.809944 0.914986 0.707458
O O2 0.680095 0.899223 0.539707
O O3 0.956600 0.914923 0.548090
O O4 0.763259 0.989740 0.588050
O O5 0.932668 0.593626 0.883073
O O6 0.746342 0.518958 0.837653
O O7 0.001154 0.520363 0.756451
O O8 0.515260 0.344447 0.544144
O O9 0.546767 0.443007 0.551122
O O10 0.523388 0.750000 0.380327
O O11 0.698340 0.674490 0.338964
O O12 0.432212 0.675308 0.273122
O O13 0.682031 0.052747 0.715066
O O14 0.544833 0.052482 0.876757
O O15 0.385649 0.750000 0.153442
O O16 0.459232 0.847472 0.094892
O O17 0.309838 0.409698 0.938511
#
# Coordination Sequence:
#
# PCOD9467005 Si02
#       8
#     8   8   8   8   8   8   8   8
#     4  11  23  39  56  86 123 166 207 246 299 355
#     4  11  23  39  56  83 123 162 203 250 296 350
#     4  12  23  40  62  87 119 164 207 250 302 359
#     4  10  23  44  67  92 120 157 199 249 308 366
#     4  11  22  37  53  86 125 161 201 247 298 357
#     4  10  23  42  64  91 123 155 196 250 305 363
#     4  11  24  35  55  88 123 165 200 245 295 368
#     4  12  23  36  59  86 123 161 207 247 302 361
#
# _framework density 19.247236999999998
#
# number of rings (size 3 to 8) (size 9 to 14) (size 15 to 20)
#    0.000    1.000    6.250    2.250    7.000    0.000 
#    0.000    0.000    0.000    1.500    0.000    0.000 
#    0.000    0.000    0.000    0.000    0.000    0.000 
#
# Total GULP energy -357774.790478 kJ/mol
# GULP energy per Si atom -5590.231101 kJ/mol
# Density = 1.920343 g / cm^3
# Si number density = 19.247237 Si / 1000 Ang^3
#
#
#
# Elastic Constant Matrix: (Units=GPa)
#
#
# Indices 1 2 3 4 5 6 
#
# 1 57.9159 11.4292 -0.8279 0.0000 0.0000 0.0000
# 2 11.4292 58.1436 25.8652 0.0000 0.0000 0.0000
# 3 -0.8279 25.8652 74.2054 0.0000 0.0000 0.0000
# 4 0.0000 0.0000 0.0000 29.7136 0.0000 0.0000
# 5 0.0000 0.0000 0.0000 0.0000 32.9662 0.0000
# 6 0.0000 0.0000 0.0000 0.0000 0.0000 21.1817
#
#
#
# Elastic Compliance Matrix: (Units=1/GPa)
#
#
# Indices 1 2 3 4 5 6 
#
# 1 0.018145 -0.004328 0.001711 0.000000 0.000000 0.000000
# 2 -0.004328 0.021387 -0.007503 0.000000 0.000000 0.000000
# 3 0.001711 -0.007503 0.016110 0.000000 0.000000 0.000000
# 4 0.000000 0.000000 0.000000 0.033655 0.000000 0.000000
# 5 0.000000 0.000000 0.000000 0.000000 0.030334 0.000000
# 6 0.000000 0.000000 0.000000 0.000000 0.000000 0.047211
#
#
# Mechanical properties :
#
#
# Convention : Reuss Voigt Hill
#
# Bulk Modulus (GPa) = 28.24638 29.24421 28.74530
# Shear Modulus (GPa) = 25.14042 27.02552 26.08297
#
# Velocity S-wave (km/s) = 3.61804 3.75123 3.68524
# Velocity P-wave (km/s) = 5.67107 5.83003 5.75110
#
# Compressibility (1/GPa) = 0.03540276
#
# Stress axis : x y z
#
# Youngs Moduli (GPa) = 55.11181 46.75673 62.07134
#
# Poissons Ratio (x) = 0.20236 -0.10620
# Poissons Ratio (y) = 0.23852 0.46573
# Poissons Ratio (z) = -0.09430 0.35082
#
# Static dielectric constant tensor:
#      x y z
#    x 1.736820 0.000000 0.000000 
#    y 0.000000 1.665190 0.000000 
#    z 0.000000 0.000000 1.678910 
# 
# From -- ./inp_files/17355.got.cif
#   From: 2010.05.17/outbox.cif.g08.bks.cpg/sg62_9_cif.got.tgz:17355.got - 2010.06.03 15:25:27.
