data_PCOD9467377
_publ_section_title
;
Structure prediction by ZEFSAII (Michael W. Deem and Ramdas Pophale) SiO2 
 PCOD9467377
Probable space group: P N M A
;
_chemical_formula_sum "Si O2"
_cell_formula_units_Z 48
_cell_length_a 27.808421
_cell_length_b 8.456503
_cell_length_c 10.310246
_cell_angle_alpha 90.000000
_cell_angle_beta 90.000000
_cell_angle_gamma 90.000000
_cell_volume 2424.578025
_symmetry_space_group_name_H-M "P N M A"
_symmetry_group_IT_number 62
_symmetry_cell_setting 'orthorhombic'
loop_
_space_group_symop_operation_xyz
x,y,z
1/2-x,-y,1/2+z
1/2+x,1/2-y,1/2-z
-x,1/2+y,-z
-x,-y,-z
1/2+x,y,1/2-z
1/2-x,1/2+y,1/2+z
x,1/2-y,z
loop_
_atom_site_type_symbol
_atom_site_label
_atom_site_fract_x
_atom_site_fract_y
_atom_site_fract_z
Si Si1 0.036767 0.439140 0.607449
Si Si2 0.036474 0.560477 0.891912
Si Si3 0.855039 0.561440 0.465089
Si Si4 0.176770 0.561648 0.259257
Si Si5 0.284472 0.061198 0.253281
Si Si6 0.142445 0.557501 0.977623
O O1 0.036180 0.250000 0.607061
O O2 0.023250 0.500019 0.749605
O O3 0.091381 0.491244 0.575355
O O4 0.000000 0.500000 0.500000
O O5 0.036470 0.750000 0.891542
O O6 0.090537 0.504854 0.926605
O O7 0.000000 0.500000 0.000000
O O8 0.851328 0.750000 0.446449
O O9 0.844999 0.519941 0.614113
O O10 0.815800 0.479242 0.373280
O O11 0.169918 0.750000 0.270858
O O12 0.233263 0.523038 0.251220
O O13 0.152932 0.506749 0.124318
O O14 0.276999 0.250000 0.261199
O O15 0.315878 0.008906 0.377843
O O16 0.142479 0.750000 0.977269
#
# Coordination Sequence:
#
# PCOD9467377 Si02
#       6
#     8   8   8   8   8   8
#     4  11  25  44  67  95 127 167 212 263 318 378
#     4  11  23  43  67  95 126 165 211 259 315 378
#     4  11  24  42  62  92 129 166 212 262 311 373
#     4  11  23  39  62  94 128 168 210 256 311 373
#     4  11  21  40  66  92 124 167 211 258 316 373
#     4   9  21  40  62  88 124 163 204 252 311 373
#
# _framework density 19.797260000000001
#
# number of rings (size 3 to 8) (size 9 to 14) (size 15 to 20)
#    0.000    1.333    1.667    3.500    2.333    3.333 
#    0.000    5.000    0.000    0.000    0.000    0.000 
#    0.000    0.000    0.000    0.000    0.000    0.000 
#
# Total GULP energy -268500.882041 kJ/mol
# GULP energy per Si atom -5593.768376 kJ/mol
# Density = 1.975220 g / cm^3
# Si number density = 19.797260 Si / 1000 Ang^3
#
#
#
# Elastic Constant Matrix: (Units=GPa)
#
#
# Indices 1 2 3 4 5 6 
#
# 1 76.1837 5.8489 42.8026 0.0000 0.0000 0.0000
# 2 5.8489 27.3609 3.2093 0.0000 0.0000 0.0000
# 3 42.8026 3.2093 162.4193 0.0000 0.0000 0.0000
# 4 0.0000 0.0000 0.0000 26.8146 0.0000 0.0000
# 5 0.0000 0.0000 0.0000 0.0000 42.9231 0.0000
# 6 0.0000 0.0000 0.0000 0.0000 0.0000 26.7388
#
#
#
# Elastic Compliance Matrix: (Units=1/GPa)
#
#
# Indices 1 2 3 4 5 6 
#
# 1 0.015628 -0.002864 -0.004062 0.000000 0.000000 0.000000
# 2 -0.002864 0.037158 0.000021 0.000000 0.000000 0.000000
# 3 -0.004062 0.000021 0.007227 0.000000 0.000000 0.000000
# 4 0.000000 0.000000 0.000000 0.037293 0.000000 0.000000
# 5 0.000000 0.000000 0.000000 0.000000 0.023297 0.000000
# 6 0.000000 0.000000 0.000000 0.000000 0.000000 0.037399
#
#
# Mechanical properties :
#
#
# Convention : Reuss Voigt Hill
#
# Bulk Modulus (GPa) = 21.64398 41.07618 31.36008
# Shear Modulus (GPa) = 26.70724 33.56883 30.13803
#
# Velocity S-wave (km/s) = 3.67691 4.12227 3.90594
# Velocity P-wave (km/s) = 5.38356 6.59173 6.01804
#
# Compressibility (1/GPa) = 0.04620221
#
# Stress axis : x y z
#
# Youngs Moduli (GPa) = 63.98690 26.91181 138.37115
#
# Poissons Ratio (x) = 0.07709 0.56205
# Poissons Ratio (y) = 0.18328 -0.00285
# Poissons Ratio (z) = 0.25991 -0.00055
#
# Static dielectric constant tensor:
#      x y z
#    x 1.671380 0.000000 0.000000 
#    y 0.000000 1.674240 0.000000 
#    z 0.000000 0.000000 1.663710 
# 
# From -- ./inp_files/10186.got.cif
#   From: 2010.05.17/outbox.cif.g08.bks.cpg/sg62_6_cif.got.tgz:10186.got - 2010.06.03 15:25:27.
