data_PCOD9467826
_publ_section_title
;
Structure prediction by ZEFSAII (Michael W. Deem and Ramdas Pophale) SiO2 
 PCOD9467826
Probable space group: P N M A
;
_chemical_formula_sum "Si O2"
_cell_formula_units_Z 48
_cell_length_a 9.000000
_cell_length_b 9.000000
_cell_length_c 30.000000
_cell_angle_alpha 90.000000
_cell_angle_beta 90.000000
_cell_angle_gamma 90.000000
_cell_volume 2430.000000
_symmetry_space_group_name_H-M "P N M A"
_symmetry_group_IT_number 62
_symmetry_cell_setting 'orthorhombic'
loop_
_space_group_symop_operation_xyz
x,y,z
1/2-x,-y,1/2+z
1/2+x,1/2-y,1/2-z
-x,1/2+y,-z
-x,-y,-z
1/2+x,y,1/2-z
1/2-x,1/2+y,1/2+z
x,1/2-y,z
loop_
_atom_site_type_symbol
_atom_site_label
_atom_site_fract_x
_atom_site_fract_y
_atom_site_fract_z
Si Si1 0.597954 0.919247 0.062938
Si Si2 0.769113 0.920501 0.483073
Si Si3 0.968780 0.570230 0.190249
Si Si4 0.964066 0.427127 0.355113
Si Si5 0.643805 0.569898 0.223363
Si Si6 0.840824 0.069473 0.890423
O O1 0.630940 0.750000 0.076528
O O2 0.434887 0.919257 0.039231
O O3 0.577654 0.022988 0.105678
O O4 0.714211 0.978597 0.026551
O O5 0.734675 0.750000 0.495160
O O6 0.661909 0.971467 0.442820
O O7 0.962226 0.750000 0.189831
O O8 0.808039 0.520167 0.207977
O O9 0.095146 0.529483 0.226454
O O10 0.020811 0.525420 0.140755
O O11 0.954011 0.250000 0.352571
O O12 0.805911 0.497811 0.368585
O O13 0.024760 0.498975 0.309968
O O14 0.637335 0.750000 0.220027
O O15 0.825356 0.250000 0.889174
#
# Coordination Sequence:
#
# PCOD9467826 Si02
#       6
#     8   8   8   8   8   8
#     4   9  16  27  45  69  98 132 170 210 249 292
#     4   8  14  24  42  70 103 132 160 201 250 296
#     4   9  18  33  57  81 100 128 167 208 248 298
#     4  11  21  32  48  73 104 137 171 209 254 298
#     4  10  19  34  55  77 100 129 167 208 250 298
#     4   9  17  32  53  78 105 134 169 207 249 298
#
# _framework density 19.753086
#
# number of rings (size 3 to 8) (size 9 to 14) (size 15 to 20)
#    0.000    2.667    0.000    4.000    0.000    6.667 
#    0.000    4.167    0.000    1.000    0.000    0.000 
#    0.000    0.000    0.000    0.000    0.000    0.000 
#
# Total GULP energy -267772.489150 kJ/mol
# GULP energy per Si atom -5578.593524 kJ/mol
# Density = 1.970813 g / cm^3
# Si number density = 19.753086 Si / 1000 Ang^3
#
#
#
# Elastic Constant Matrix: (Units=GPa)
#
#
# Indices 1 2 3 4 5 6 
#
# 1 12.4444 -8.6761 -34.1614 0.0000 0.0000 0.0000
# 2 -8.6761 35.8679 -1.9071 0.0000 0.0000 0.0000
# 3 -34.1614 -1.9071 14.2050 0.0000 0.0000 0.0000
# 4 0.0000 0.0000 0.0000 18.3125 0.0000 0.0000
# 5 0.0000 0.0000 0.0000 0.0000 16.2587 0.0000
# 6 0.0000 0.0000 0.0000 0.0000 0.0000 7.8076
#
#
#
# Elastic Compliance Matrix: (Units=1/GPa)
#
#
# Indices 1 2 3 4 5 6 
#
# 1 -0.013396 -0.004989 -0.032886 0.000000 0.000000 0.000000
# 2 -0.004989 0.026223 -0.008477 0.000000 0.000000 0.000000
# 3 -0.032886 -0.008477 -0.009827 0.000000 0.000000 0.000000
# 4 0.000000 0.000000 0.000000 0.054607 0.000000 0.000000
# 5 0.000000 0.000000 0.000000 0.000000 0.061505 0.000000
# 6 0.000000 0.000000 0.000000 0.000000 0.000000 0.128080
#
#
# Mechanical properties :
#
#
# Convention : Reuss Voigt Hill
#
# Bulk Modulus (GPa) = -11.14777 -2.99685 -7.07231
# Shear Modulus (GPa) = 16.12932 15.62658 15.87795
#
# Velocity S-wave (km/s) = 2.86063 2.81569 2.83825
# Velocity P-wave (km/s) = 2.29240 3.00839 2.67446
#
# Compressibility (1/GPa) = -0.08970404
#
# Stress axis : x y z
#
# Youngs Moduli (GPa) = -74.64851 38.13504 -101.76286
#
# Poissons Ratio (x) = 0.19025 -3.34655
# Poissons Ratio (y) = -0.37241 -0.86267
# Poissons Ratio (z) = -2.45487 0.32328
#
# Static dielectric constant tensor:
#      x y z
#    x 1.713220 0.000000 0.000000 
#    y 0.000000 1.654060 0.000000 
#    z 0.000000 0.000000 1.719240 
# 
# From -- ./inp_files/32001.got.cif
#   From: 2010.05.17/outbox.ucp.g08.bks.cvg/sg62_17_cif.got.tgz:32001.got - 2010.06.11 16:29:25.
