data_PCOD9467607
_publ_section_title
;
Structure prediction by ZEFSAII (Michael W. Deem and Ramdas Pophale) SiO2 
 PCOD9467607
Probable space group: P N M A
;
_chemical_formula_sum "Si O2"
_cell_formula_units_Z 40
_cell_length_a 9.403764
_cell_length_b 15.790630
_cell_length_c 12.281151
_cell_angle_alpha 90.000000
_cell_angle_beta 90.000000
_cell_angle_gamma 90.000000
_cell_volume 1823.644789
_symmetry_space_group_name_H-M "P N M A"
_symmetry_group_IT_number 62
_symmetry_cell_setting 'orthorhombic'
loop_
_space_group_symop_operation_xyz
x,y,z
1/2-x,-y,1/2+z
1/2+x,1/2-y,1/2-z
-x,1/2+y,-z
-x,-y,-z
1/2+x,y,1/2-z
1/2-x,1/2+y,1/2+z
x,1/2-y,z
loop_
_atom_site_type_symbol
_atom_site_label
_atom_site_fract_x
_atom_site_fract_y
_atom_site_fract_z
Si Si1 0.561318 0.595476 0.515564
Si Si2 0.159645 0.457647 0.381150
Si Si3 0.335308 0.655621 0.676661
Si Si4 0.429849 0.750000 0.128397
Si Si5 0.398107 0.386822 0.002383
Si Si6 0.412068 0.250000 0.642087
O O1 0.500000 0.500000 0.500000
O O2 0.727870 0.585921 0.538612
O O3 0.485622 0.635430 0.621033
O O4 0.541098 0.664236 0.420892
O O5 0.190630 0.418428 0.263758
O O6 0.175187 0.556407 0.408848
O O7 0.997132 0.438727 0.413452
O O8 0.334901 0.750000 0.727021
O O9 0.222024 0.653331 0.578439
O O10 0.491506 0.827323 0.058332
O O11 0.260470 0.750000 0.145308
O O12 0.512253 0.750000 0.242308
#
# Coordination Sequence:
#
# PCOD9467607 Si02
#       6
#     8   8   8   4   8   4
#     4  12  26  49  72 106 149 189 249 307 368 446
#     4  11  26  45  72 105 148 194 242 304 378 440
#     4  12  26  44  77 109 145 195 246 308 379 455
#     4  12  28  48  81 107 148 194 247 305 379 444
#     4  11  25  48  71 108 149 188 247 309 367 453
#     4  12  30  50  77 107 148 198 249 309 375 448
#
# _framework density 21.934094000000002
#
# number of rings (size 3 to 8) (size 9 to 14) (size 15 to 20)
#    0.000    0.400    6.000    1.200    8.400    1.600 
#    0.000    0.000    0.000    0.000    0.000    0.000 
#    0.000    0.000    0.000    0.000    0.000    0.000 
#
# Total GULP energy -223410.318107 kJ/mol
# GULP energy per Si atom -5585.257953 kJ/mol
# Density = 2.188417 g / cm^3
# Si number density = 21.934094 Si / 1000 Ang^3
#
#
#
# Elastic Constant Matrix: (Units=GPa)
#
#
# Indices 1 2 3 4 5 6 
#
# 1 85.4289 34.0762 18.0146 0.0000 0.0000 0.0000
# 2 34.0762 108.7957 56.2171 0.0000 0.0000 0.0000
# 3 18.0146 56.2171 94.9916 0.0000 0.0000 0.0000
# 4 0.0000 0.0000 0.0000 35.8214 0.0000 0.0000
# 5 0.0000 0.0000 0.0000 0.0000 35.2976 0.0000
# 6 0.0000 0.0000 0.0000 0.0000 0.0000 47.9300
#
#
#
# Elastic Compliance Matrix: (Units=1/GPa)
#
#
# Indices 1 2 3 4 5 6 
#
# 1 0.013377 -0.004147 -0.000083 0.000000 0.000000 0.000000
# 2 -0.004147 0.014526 -0.007810 0.000000 0.000000 0.000000
# 3 -0.000083 -0.007810 0.015165 0.000000 0.000000 0.000000
# 4 0.000000 0.000000 0.000000 0.027916 0.000000 0.000000
# 5 0.000000 0.000000 0.000000 0.000000 0.028331 0.000000
# 6 0.000000 0.000000 0.000000 0.000000 0.000000 0.020864
#
#
# Mechanical properties :
#
#
# Convention : Reuss Voigt Hill
#
# Bulk Modulus (GPa) = 52.66349 56.20355 54.43352
# Shear Modulus (GPa) = 33.20295 35.87036 34.53666
#
# Velocity S-wave (km/s) = 3.89493 4.04836 3.97238
# Velocity P-wave (km/s) = 6.65502 6.89433 6.77573
#
# Compressibility (1/GPa) = 0.01898849
#
# Stress axis : x y z
#
# Youngs Moduli (GPa) = 74.75337 68.84077 65.94083
#
# Poissons Ratio (x) = 0.28550 0.00544
# Poissons Ratio (y) = 0.31003 0.51502
# Poissons Ratio (z) = 0.00617 0.53767
#
# Static dielectric constant tensor:
#      x y z
#    x 1.759230 0.000000 0.000000 
#    y 0.000000 1.868740 0.000000 
#    z 0.000000 0.000000 1.768280 
# 
# From -- ./inp_files/11120.got.cif
#   From: 2010.05.17/outbox.cif.g08.bks.cpg/sg62_6_cif.got.tgz:11120.got - 2010.06.03 15:25:27.
