data_PCOD9467874
_publ_section_title
;
Structure prediction by ZEFSAII (Michael W. Deem and Ramdas Pophale) SiO2 
 PCOD9467874
Probable space group: P N M A
;
_chemical_formula_sum "Si O2"
_cell_formula_units_Z 56
_cell_length_a 18.000000
_cell_length_b 9.000000
_cell_length_c 21.000000
_cell_angle_alpha 90.000000
_cell_angle_beta 90.000000
_cell_angle_gamma 90.000000
_cell_volume 3402.000000
_symmetry_space_group_name_H-M "P N M A"
_symmetry_group_IT_number 62
_symmetry_cell_setting 'orthorhombic'
loop_
_space_group_symop_operation_xyz
x,y,z
1/2-x,-y,1/2+z
1/2+x,1/2-y,1/2-z
-x,1/2+y,-z
-x,-y,-z
1/2+x,y,1/2-z
1/2-x,1/2+y,1/2+z
x,1/2-y,z
loop_
_atom_site_type_symbol
_atom_site_label
_atom_site_fract_x
_atom_site_fract_y
_atom_site_fract_z
Si Si1 0.983342 0.924960 0.819539
Si Si2 0.559842 0.927707 0.452463
Si Si3 0.232842 0.928736 0.023110
Si Si4 0.227520 0.927123 0.386681
Si Si5 0.852095 0.926593 0.729485
Si Si6 0.364394 0.575866 0.288667
Si Si7 0.238784 0.427676 0.670471
O O1 0.978434 0.750000 0.833856
O O2 0.934123 0.954045 0.756771
O O3 0.066542 0.974159 0.805016
O O4 0.953722 0.012437 0.881239
O O5 0.551258 0.750000 0.453189
O O6 0.644438 0.962138 0.473498
O O7 0.500000 0.000000 0.500000
O O8 0.242382 0.750000 0.017306
O O9 0.263367 0.970570 0.095024
O O10 0.264762 0.003184 0.957909
O O11 0.216120 0.750000 0.392714
O O12 0.301689 0.949533 0.343087
O O13 0.166607 0.997445 0.338231
O O14 0.839267 0.750000 0.723421
O O15 0.801164 0.989412 0.787435
O O16 0.385075 0.750000 0.292445
O O17 0.332260 0.549799 0.217193
O O18 0.254922 0.250000 0.671220
#
# Coordination Sequence:
#
# PCOD9467874 Si02
#       7
#     8   8   8   8   8   8   8
#     4  11  22  34  51  77 107 138 174 215 260 311
#     4  11  22  34  51  75 108 145 175 209 256 314
#     4  10  20  34  53  76 104 138 172 213 263 310
#     4  10  21  35  53  77 105 137 175 217 259 311
#     4  10  20  34  53  76 102 136 176 218 260 307
#     4   9  19  34  53  75 102 137 174 215 260 309
#     4   9  18  35  55  76 101 134 177 218 260 312
#
# _framework density 16.460905
#
# number of rings (size 3 to 8) (size 9 to 14) (size 15 to 20)
#    0.000    2.000    1.429    3.429    0.000    8.571 
#    0.000    0.000    0.000    0.857    0.000    0.000 
#    0.000    0.000    0.000    0.000    0.000    0.000 
#
# Total GULP energy -312130.742052 kJ/mol
# GULP energy per Si atom -5573.763251 kJ/mol
# Density = 1.642344 g / cm^3
# Si number density = 16.460905 Si / 1000 Ang^3
#
#
#
# Elastic Constant Matrix: (Units=GPa)
#
#
# Indices 1 2 3 4 5 6 
#
# 1 23.7915 17.8850 13.1399 0.0000 0.0000 0.0000
# 2 17.8850 42.8314 36.7951 0.0000 0.0000 0.0000
# 3 13.1399 36.7951 147.6737 0.0000 0.0000 0.0000
# 4 0.0000 0.0000 0.0000 37.9732 0.0000 0.0000
# 5 0.0000 0.0000 0.0000 0.0000 27.0937 0.0000
# 6 0.0000 0.0000 0.0000 0.0000 0.0000 21.2211
#
#
#
# Elastic Compliance Matrix: (Units=1/GPa)
#
#
# Indices 1 2 3 4 5 6 
#
# 1 0.061423 -0.026660 0.001177 0.000000 0.000000 0.000000
# 2 -0.026660 0.041277 -0.007913 0.000000 0.000000 0.000000
# 3 0.001177 -0.007913 0.008638 0.000000 0.000000 0.000000
# 4 0.000000 0.000000 0.000000 0.026334 0.000000 0.000000
# 5 0.000000 0.000000 0.000000 0.000000 0.036909 0.000000
# 6 0.000000 0.000000 0.000000 0.000000 0.000000 0.047123
#
#
# Mechanical properties :
#
#
# Convention : Reuss Voigt Hill
#
# Bulk Modulus (GPa) = 22.44748 38.88184 30.66466
# Shear Modulus (GPa) = 16.48294 27.02270 21.75282
#
# Velocity S-wave (km/s) = 3.16783 4.05610 3.63917
# Velocity P-wave (km/s) = 5.20064 6.75336 6.02721
#
# Compressibility (1/GPa) = 0.04454843
#
# Stress axis : x y z
#
# Youngs Moduli (GPa) = 16.28061 24.22652 115.76105
#
# Poissons Ratio (x) = 0.64587 -0.13628
# Poissons Ratio (y) = 0.43403 0.91598
# Poissons Ratio (z) = -0.01917 0.19170
#
# Static dielectric constant tensor:
#      x y z
#    x 1.568030 0.000000 0.000000 
#    y 0.000000 1.562300 0.000000 
#    z 0.000000 0.000000 1.539480 
# 
# From -- ./inp_files/27545.got.cif
#   From: 2010.05.17/outbox.ucp.g08.bks.cvg/sg62_14_cif.got.tgz:27545.got - 2010.06.11 16:29:25.
