data_PCOD9467355
_publ_section_title
;
Structure prediction by ZEFSAII (Michael W. Deem and Ramdas Pophale) SiO2 
 PCOD9467355
Probable space group: P N M A
;
_chemical_formula_sum "Si O2"
_cell_formula_units_Z 32
_cell_length_a 10.216179
_cell_length_b 19.546374
_cell_length_c 9.077443
_cell_angle_alpha 90.000000
_cell_angle_beta 90.000000
_cell_angle_gamma 90.000000
_cell_volume 1812.667835
_symmetry_space_group_name_H-M "P N M A"
_symmetry_group_IT_number 62
_symmetry_cell_setting 'orthorhombic'
loop_
_space_group_symop_operation_xyz
x,y,z
1/2-x,-y,1/2+z
1/2+x,1/2-y,1/2-z
-x,1/2+y,-z
-x,-y,-z
1/2+x,y,1/2-z
1/2-x,1/2+y,1/2+z
x,1/2-y,z
loop_
_atom_site_type_symbol
_atom_site_label
_atom_site_fract_x
_atom_site_fract_y
_atom_site_fract_z
Si Si1 0.665635 0.171360 0.790915
Si Si2 0.060492 0.671751 0.067880
Si Si3 0.379366 0.527501 0.089739
Si Si4 0.382785 0.035867 0.413934
O O1 0.637790 0.250000 0.836852
O O2 0.824115 0.163390 0.806589
O O3 0.583616 0.162186 0.639423
O O4 0.611655 0.109341 0.888131
O O5 0.069821 0.750000 0.016319
O O6 0.093063 0.616551 0.942919
O O7 0.375688 0.490338 0.247661
O O8 0.500000 0.500000 0.000000
O O9 0.248834 0.515030 0.997585
O O10 0.500000 0.000000 0.500000
#
# Coordination Sequence:
#
# PCOD9467355 Si02
#       4
#     8   8   8   8
#     4   9  18  33  55  81 110 146 186 225 270 332
#     4   9  18  33  55  81 112 147 183 227 274 329
#     4  11  23  37  57  83 114 147 188 233 282 332
#     4  11  21  36  57  82 114 145 186 231 280 329
#
# _framework density 17.653538999999999
#
# number of rings (size 3 to 8) (size 9 to 14) (size 15 to 20)
#    0.000    2.000    2.500    1.500    3.500    0.000 
#    0.000    1.250    0.000    6.000    0.000    0.000 
#    0.000    0.000    0.000    0.000    0.000    0.000 
#
# Total GULP energy -178172.691637 kJ/mol
# GULP energy per Si atom -5567.896614 kJ/mol
# Density = 1.761336 g / cm^3
# Si number density = 17.653539 Si / 1000 Ang^3
#
#
#
# Elastic Constant Matrix: (Units=GPa)
#
#
# Indices 1 2 3 4 5 6 
#
# 1 87.6894 46.7243 53.1366 0.0000 0.0000 0.0000
# 2 46.7243 92.0896 52.8826 0.0000 0.0000 0.0000
# 3 53.1366 52.8826 121.8055 0.0000 0.0000 0.0000
# 4 0.0000 0.0000 0.0000 16.0809 0.0000 0.0000
# 5 0.0000 0.0000 0.0000 0.0000 31.7450 0.0000
# 6 0.0000 0.0000 0.0000 0.0000 0.0000 25.9410
#
#
#
# Elastic Compliance Matrix: (Units=1/GPa)
#
#
# Indices 1 2 3 4 5 6 
#
# 1 0.017726 -0.006065 -0.005099 0.000000 0.000000 0.000000
# 2 -0.006065 0.016541 -0.004535 0.000000 0.000000 0.000000
# 3 -0.005099 -0.004535 0.012403 0.000000 0.000000 0.000000
# 4 0.000000 0.000000 0.000000 0.062185 0.000000 0.000000
# 5 0.000000 0.000000 0.000000 0.000000 0.031501 0.000000
# 6 0.000000 0.000000 0.000000 0.000000 0.000000 0.038549
#
#
# Mechanical properties :
#
#
# Convention : Reuss Voigt Hill
#
# Bulk Modulus (GPa) = 65.48853 67.45239 66.47046
# Shear Modulus (GPa) = 23.21308 24.67611 23.94460
#
# Velocity S-wave (km/s) = 3.63012 3.74277 3.68688
# Velocity P-wave (km/s) = 7.39915 7.54783 7.47386
#
# Compressibility (1/GPa) = 0.01526985
#
# Stress axis : x y z
#
# Youngs Moduli (GPa) = 56.41490 60.45630 80.62278
#
# Poissons Ratio (x) = 0.36669 0.41113
# Poissons Ratio (y) = 0.34218 0.36565
# Poissons Ratio (z) = 0.28768 0.27419
#
# Static dielectric constant tensor:
#      x y z
#    x 1.612170 0.000000 0.000000 
#    y 0.000000 1.641760 0.000000 
#    z 0.000000 0.000000 1.560180 
# 
# From -- ./inp_files/4122.got.cif
#   From: 2010.05.17/outbox.cif.g08.bks.cpg/sg62_3_cif.got.tgz:4122.got - 2010.06.03 15:25:27.
