data_PCOD9467457
_publ_section_title
;
Structure prediction by ZEFSAII (Michael W. Deem and Ramdas Pophale) SiO2 
 PCOD9467457
Probable space group: P N M A
;
_chemical_formula_sum "Si O2"
_cell_formula_units_Z 48
_cell_length_a 9.116382
_cell_length_b 16.714520
_cell_length_c 15.653739
_cell_angle_alpha 90.000000
_cell_angle_beta 90.000000
_cell_angle_gamma 90.000000
_cell_volume 2385.253340
_symmetry_space_group_name_H-M "P N M A"
_symmetry_group_IT_number 62
_symmetry_cell_setting 'orthorhombic'
loop_
_space_group_symop_operation_xyz
x,y,z
1/2-x,-y,1/2+z
1/2+x,1/2-y,1/2-z
-x,1/2+y,-z
-x,-y,-z
1/2+x,y,1/2-z
1/2-x,1/2+y,1/2+z
x,1/2-y,z
loop_
_atom_site_type_symbol
_atom_site_label
_atom_site_fract_x
_atom_site_fract_y
_atom_site_fract_z
Si Si1 0.932452 0.911369 0.496691
Si Si2 0.801848 0.943792 0.771860
Si Si3 0.606293 0.951856 0.437116
Si Si4 0.479042 0.156662 0.179065
Si Si5 0.612832 0.904716 0.169043
Si Si6 0.569228 0.341087 0.678883
O O1 0.759520 0.921538 0.477310
O O2 0.967044 0.863309 0.582821
O O3 0.026233 0.881015 0.416193
O O4 0.000000 0.000000 0.500000
O O5 0.893523 0.865930 0.745406
O O6 0.643691 0.908674 0.795022
O O7 0.854646 0.991537 0.855983
O O8 0.822529 0.005998 0.691731
O O9 0.511102 0.877974 0.402714
O O10 0.500000 0.000000 0.500000
O O11 0.436444 0.250000 0.184740
O O12 0.493412 0.890226 0.241804
O O13 0.757122 0.851172 0.175300
O O14 0.527154 0.250000 0.690448
#
# Coordination Sequence:
#
# PCOD9467457 Si02
#       6
#     8   8   8   8   8   8
#     4  12  23  44  69  97 133 171 229 278 331 407
#     4  11  22  44  67  95 131 176 230 267 321 414
#     4  11  24  43  70  97 127 177 227 276 335 409
#     4  12  27  43  68 102 138 177 220 282 344 394
#     4  11  22  42  70  97 131 183 224 273 333 409
#     4  11  24  40  65 101 136 171 218 279 341 396
#
# _framework density 20.123649
#
# number of rings (size 3 to 8) (size 9 to 14) (size 15 to 20)
#    0.000    0.667    3.333    6.000    2.333    2.000 
#    0.000    0.833    0.000    0.000    0.000    0.000 
#    0.000    0.000    0.000    0.000    0.000    0.000 
#
# Total GULP energy -267917.539404 kJ/mol
# GULP energy per Si atom -5581.615404 kJ/mol
# Density = 2.007785 g / cm^3
# Si number density = 20.123649 Si / 1000 Ang^3
#
#
#
# Elastic Constant Matrix: (Units=GPa)
#
#
# Indices 1 2 3 4 5 6 
#
# 1 124.8854 -6.0673 50.4151 0.0000 0.0000 0.0000
# 2 -6.0673 63.9179 3.7197 0.0000 0.0000 0.0000
# 3 50.4151 3.7197 65.5365 0.0000 0.0000 0.0000
# 4 0.0000 0.0000 0.0000 20.0433 0.0000 0.0000
# 5 0.0000 0.0000 0.0000 0.0000 33.7281 0.0000
# 6 0.0000 0.0000 0.0000 0.0000 0.0000 25.5912
#
#
#
# Elastic Compliance Matrix: (Units=1/GPa)
#
#
# Indices 1 2 3 4 5 6 
#
# 1 0.011785 0.001652 -0.009160 0.000000 0.000000 0.000000
# 2 0.001652 0.015928 -0.002175 0.000000 0.000000 0.000000
# 3 -0.009160 -0.002175 0.022428 0.000000 0.000000 0.000000
# 4 0.000000 0.000000 0.000000 0.049892 0.000000 0.000000
# 5 0.000000 0.000000 0.000000 0.000000 0.029649 0.000000
# 6 0.000000 0.000000 0.000000 0.000000 0.000000 0.039076
#
#
# Mechanical properties :
#
#
# Convention : Reuss Voigt Hill
#
# Bulk Modulus (GPa) = 32.49214 38.94165 35.71689
# Shear Modulus (GPa) = 25.20371 29.62399 27.41385
#
# Velocity S-wave (km/s) = 3.54283 3.84096 3.69490
# Velocity P-wave (km/s) = 5.73731 6.25010 5.99919
#
# Compressibility (1/GPa) = 0.03077667
#
# Stress axis : x y z
#
# Youngs Moduli (GPa) = 84.85127 62.78086 44.58619
#
# Poissons Ratio (x) = -0.10370 0.40840
# Poissons Ratio (y) = -0.14015 0.09696
# Poissons Ratio (z) = 0.77722 0.13653
#
# Static dielectric constant tensor:
#      x y z
#    x 1.756480 0.000000 0.000000 
#    y 0.000000 1.734140 0.000000 
#    z 0.000000 0.000000 1.883860 
# 
# From -- ./inp_files/16943.got.cif
#   From: 2010.05.17/outbox.cif.g08.bks.cpg/sg62_9_cif.got.tgz:16943.got - 2010.06.03 15:25:27.
