data_PCOD9467570
_publ_section_title
;
Structure prediction by ZEFSAII (Michael W. Deem and Ramdas Pophale) SiO2 
 PCOD9467570
Probable space group: P N M A
;
_chemical_formula_sum "Si O2"
_cell_formula_units_Z 40
_cell_length_a 10.883830
_cell_length_b 26.081193
_cell_length_c 6.649503
_cell_angle_alpha 90.000000
_cell_angle_beta 90.000000
_cell_angle_gamma 90.000000
_cell_volume 1887.549671
_symmetry_space_group_name_H-M "P N M A"
_symmetry_group_IT_number 62
_symmetry_cell_setting 'orthorhombic'
loop_
_space_group_symop_operation_xyz
x,y,z
1/2-x,-y,1/2+z
1/2+x,1/2-y,1/2-z
-x,1/2+y,-z
-x,-y,-z
1/2+x,y,1/2-z
1/2-x,1/2+y,1/2+z
x,1/2-y,z
loop_
_atom_site_type_symbol
_atom_site_label
_atom_site_fract_x
_atom_site_fract_y
_atom_site_fract_z
Si Si1 0.658304 0.548012 0.410748
Si Si2 0.684562 0.858851 0.126697
Si Si3 0.909861 0.534301 0.629876
Si Si4 0.952445 0.126726 0.231269
Si Si5 0.045334 0.310768 0.874522
O O1 0.683032 0.583459 0.214936
O O2 0.781110 0.532590 0.521600
O O3 0.597519 0.495495 0.339820
O O4 0.591420 0.585693 0.565340
O O5 0.819999 0.835515 0.168963
O O6 0.568746 0.830487 0.235692
O O7 0.653214 0.858565 0.889292
O O8 0.000000 0.500000 0.500000
O O9 0.949552 0.593246 0.644922
O O10 0.008609 0.172675 0.102098
O O11 0.055286 0.250000 0.854237
#
# Coordination Sequence:
#
# PCOD9467570 Si02
#       5
#     8   8   8   8   8
#     4  11  25  39  63  98 135 180 230 279 340 411
#     4  11  24  47  71 101 139 181 236 292 353 420
#     4  12  23  40  65  96 137 186 224 277 339 408
#     4  11  24  44  66  98 137 181 233 282 343 418
#     4  11  26  45  73 102 136 181 233 297 358 419
#
# _framework density 21.191496999999998
#
# number of rings (size 3 to 8) (size 9 to 14) (size 15 to 20)
#    0.000    0.800    2.000    4.800    5.600    3.200 
#    0.000    0.000    0.000    0.000    0.000    0.000 
#    0.000    0.000    0.000    0.000    0.000    0.000 
#
# Total GULP energy -223487.026134 kJ/mol
# GULP energy per Si atom -5587.175653 kJ/mol
# Density = 2.114326 g / cm^3
# Si number density = 21.191497 Si / 1000 Ang^3
#
#
#
# Elastic Constant Matrix: (Units=GPa)
#
#
# Indices 1 2 3 4 5 6 
#
# 1 101.0910 26.9941 30.0835 0.0000 0.0000 0.0000
# 2 26.9941 85.0618 2.6121 0.0000 0.0000 0.0000
# 3 30.0835 2.6121 59.6916 0.0000 0.0000 0.0000
# 4 0.0000 0.0000 0.0000 26.1474 0.0000 0.0000
# 5 0.0000 0.0000 0.0000 0.0000 42.6346 0.0000
# 6 0.0000 0.0000 0.0000 0.0000 0.0000 31.5036
#
#
#
# Elastic Compliance Matrix: (Units=1/GPa)
#
#
# Indices 1 2 3 4 5 6 
#
# 1 0.012793 -0.003867 -0.006278 0.000000 0.000000 0.000000
# 2 -0.003867 0.012941 0.001383 0.000000 0.000000 0.000000
# 3 -0.006278 0.001383 0.019856 0.000000 0.000000 0.000000
# 4 0.000000 0.000000 0.000000 0.038245 0.000000 0.000000
# 5 0.000000 0.000000 0.000000 0.000000 0.023455 0.000000
# 6 0.000000 0.000000 0.000000 0.000000 0.000000 0.031742
#
#
# Mechanical properties :
#
#
# Convention : Reuss Voigt Hill
#
# Bulk Modulus (GPa) = 35.63155 40.58042 38.10599
# Shear Modulus (GPa) = 30.13631 32.46743 31.30187
#
# Velocity S-wave (km/s) = 3.77516 3.91845 3.84747
# Velocity P-wave (km/s) = 5.98774 6.29788 6.14477
#
# Compressibility (1/GPa) = 0.02806501
#
# Stress axis : x y z
#
# Youngs Moduli (GPa) = 78.16778 77.27451 50.36162
#
# Poissons Ratio (x) = 0.29882 0.31618
# Poissons Ratio (y) = 0.30228 -0.06963
# Poissons Ratio (z) = 0.49075 -0.10684
#
# Static dielectric constant tensor:
#      x y z
#    x 1.758680 0.000000 0.000000 
#    y 0.000000 1.723670 0.000000 
#    z 0.000000 0.000000 1.836180 
# 
# From -- ./inp_files/602.got.cif
#   From: 2010.05.17/outbox.cif.g08.bks.cpg/sg62_1_cif.got.tgz:602.got - 2010.06.03 15:25:27.
