data_PCOD9467939
_publ_section_title
;
Structure prediction by ZEFSAII (Michael W. Deem and Ramdas Pophale) SiO2 
 PCOD9467939
Probable space group: P N M A
;
_chemical_formula_sum "Si O2"
_cell_formula_units_Z 48
_cell_length_a 18.000000
_cell_length_b 9.000000
_cell_length_c 15.000000
_cell_angle_alpha 90.000000
_cell_angle_beta 90.000000
_cell_angle_gamma 90.000000
_cell_volume 2430.000000
_symmetry_space_group_name_H-M "P N M A"
_symmetry_group_IT_number 62
_symmetry_cell_setting 'orthorhombic'
loop_
_space_group_symop_operation_xyz
x,y,z
1/2-x,-y,1/2+z
1/2+x,1/2-y,1/2-z
-x,1/2+y,-z
-x,-y,-z
1/2+x,y,1/2-z
1/2-x,1/2+y,1/2+z
x,1/2-y,z
loop_
_atom_site_type_symbol
_atom_site_label
_atom_site_fract_x
_atom_site_fract_y
_atom_site_fract_z
Si Si1 0.025749 0.922974 0.089237
Si Si2 0.259052 0.569627 0.262587
Si Si3 0.800054 0.075705 0.926473
Si Si4 0.431850 0.928259 0.050514
Si Si5 0.575574 0.069232 0.745225
Si Si6 0.201262 0.573175 0.444403
O O1 0.004970 0.750000 0.082751
O O2 0.113720 0.931556 0.095516
O O3 0.985793 0.985225 0.176732
O O4 0.000000 0.000000 0.000000
O O5 0.256620 0.750000 0.260290
O O6 0.241067 0.521860 0.162865
O O7 0.342493 0.524648 0.285996
O O8 0.203852 0.525259 0.341279
O O9 0.780713 0.250000 0.943629
O O10 0.778152 0.973750 0.009105
O O11 0.434272 0.750000 0.047874
O O12 0.434110 0.977790 0.153151
O O13 0.500000 0.000000 0.000000
O O14 0.359028 0.986718 0.001430
O O15 0.573197 0.250000 0.747291
O O16 0.189586 0.750000 0.448913
#
# Coordination Sequence:
#
# PCOD9467939 Si02
#       6
#     8   8   8   8   8   8
#     4  10  21  36  59  86 114 151 196 240 289 347
#     4   9  18  34  58  84 110 149 197 237 284 349
#     4  10  20  37  59  84 115 152 195 240 288 347
#     4  11  23  40  62  86 119 158 199 243 291 347
#     4   9  18  36  61  83 110 157 201 234 279 351
#     4  11  22  37  62  90 117 150 195 245 293 350
#
# _framework density 19.753086
#
# number of rings (size 3 to 8) (size 9 to 14) (size 15 to 20)
#    0.000    2.000    1.667    2.000    2.333    2.000 
#    0.000    3.333    0.000    0.000    0.000    0.000 
#    0.000    0.000    0.000    0.000    0.000    0.000 
#
# Total GULP energy -267710.784452 kJ/mol
# GULP energy per Si atom -5577.308009 kJ/mol
# Density = 1.970813 g / cm^3
# Si number density = 19.753086 Si / 1000 Ang^3
#
#
#
# Elastic Constant Matrix: (Units=GPa)
#
#
# Indices 1 2 3 4 5 6 
#
# 1 47.2325 18.9181 40.7640 0.0000 0.0000 0.0000
# 2 18.9181 23.1420 13.7803 0.0000 0.0000 0.0000
# 3 40.7640 13.7803 96.9799 0.0000 0.0000 0.0000
# 4 0.0000 0.0000 0.0000 25.1538 0.0000 0.0000
# 5 0.0000 0.0000 0.0000 0.0000 35.0777 0.0000
# 6 0.0000 0.0000 0.0000 0.0000 0.0000 24.8776
#
#
#
# Elastic Compliance Matrix: (Units=1/GPa)
#
#
# Indices 1 2 3 4 5 6 
#
# 1 0.045527 -0.028209 -0.015128 0.000000 0.000000 0.000000
# 2 -0.028209 0.064684 0.002666 0.000000 0.000000 0.000000
# 3 -0.015128 0.002666 0.016292 0.000000 0.000000 0.000000
# 4 0.000000 0.000000 0.000000 0.039755 0.000000 0.000000
# 5 0.000000 0.000000 0.000000 0.000000 0.028508 0.000000
# 6 0.000000 0.000000 0.000000 0.000000 0.000000 0.040197
#
#
# Mechanical properties :
#
#
# Convention : Reuss Voigt Hill
#
# Bulk Modulus (GPa) = 22.14341 34.91992 28.53166
# Shear Modulus (GPa) = 15.08939 23.28131 19.18535
#
# Velocity S-wave (km/s) = 2.76687 3.43682 3.11988
# Velocity P-wave (km/s) = 4.63054 5.78494 5.23963
#
# Compressibility (1/GPa) = 0.04516017
#
# Stress axis : x y z
#
# Youngs Moduli (GPa) = 21.96504 15.45973 61.38167
#
# Poissons Ratio (x) = 0.43610 0.92860
# Poissons Ratio (y) = 0.61961 -0.16364
# Poissons Ratio (z) = 0.33229 -0.04122
#
# Static dielectric constant tensor:
#      x y z
#    x 1.318760 0.000000 0.000000 
#    y 0.000000 1.628810 0.000000 
#    z 0.000000 0.000000 1.690990 
# 
# From -- ./inp_files/19587.got.cif
#   From: 2010.05.17/outbox.ucp.g08.bks.cvg/sg62_10_cif.got.tgz:19587.got - 2010.06.11 16:29:25.
