data_PCOD9467049
_publ_section_title
;
Structure prediction by ZEFSAII (Michael W. Deem and Ramdas Pophale) SiO2 
 PCOD9467049
Probable space group: P N M A
;
_chemical_formula_sum "Si O2"
_cell_formula_units_Z 48
_cell_length_a 11.134462
_cell_length_b 20.568249
_cell_length_c 9.709823
_cell_angle_alpha 90.000000
_cell_angle_beta 90.000000
_cell_angle_gamma 90.000000
_cell_volume 2223.708581
_symmetry_space_group_name_H-M "P N M A"
_symmetry_group_IT_number 62
_symmetry_cell_setting 'orthorhombic'
loop_
_space_group_symop_operation_xyz
x,y,z
1/2-x,-y,1/2+z
1/2+x,1/2-y,1/2-z
-x,1/2+y,-z
-x,-y,-z
1/2+x,y,1/2-z
1/2-x,1/2+y,1/2+z
x,1/2-y,z
loop_
_atom_site_type_symbol
_atom_site_label
_atom_site_fract_x
_atom_site_fract_y
_atom_site_fract_z
Si Si1 0.225535 0.877271 0.575372
Si Si2 0.874201 0.991462 0.076855
Si Si3 0.646098 0.676351 0.199510
Si Si4 0.119835 0.329486 0.632888
Si Si5 0.025106 0.975168 0.651985
Si Si6 0.692871 0.102828 0.144522
O O1 0.191005 0.826783 0.458272
O O2 0.106643 0.912378 0.630400
O O3 0.282733 0.854672 0.719219
O O4 0.299774 0.934061 0.495362
O O5 0.906168 0.980920 0.238279
O O6 0.801184 0.059794 0.080725
O O7 0.000000 0.000000 0.000000
O O8 0.632825 0.750000 0.248373
O O9 0.509705 0.649175 0.196905
O O10 0.758219 0.649389 0.287240
O O11 0.117107 0.250000 0.631037
O O12 0.134044 0.357386 0.479247
O O13 0.895981 0.952756 0.703853
O O14 0.000000 0.000000 0.500000
#
# Coordination Sequence:
#
# PCOD9467049 Si02
#       6
#     8   8   8   8   8   8
#     4  11  23  38  62  90 121 166 204 254 316 380
#     4  11  24  39  58  91 129 159 205 258 314 382
#     4  10  23  43  66  93 124 164 215 265 319 380
#     4  10  23  44  68  94 127 169 216 271 325 382
#     4  11  22  38  57  86 124 161 204 248 306 372
#     4  11  23  40  62  89 126 164 206 257 317 381
#
# _framework density 21.585560999999998
#
# number of rings (size 3 to 8) (size 9 to 14) (size 15 to 20)
#    0.000    1.333    5.000    0.000    2.333    3.333 
#    0.000    0.000    0.000    0.000    0.000    0.000 
#    0.000    0.000    0.000    0.000    0.000    0.000 
#
# Total GULP energy -267538.813438 kJ/mol
# GULP energy per Si atom -5573.725280 kJ/mol
# Density = 2.153643 g / cm^3
# Si number density = 21.585561 Si / 1000 Ang^3
#
#
#
# Elastic Constant Matrix: (Units=GPa)
#
#
# Indices 1 2 3 4 5 6 
#
# 1 136.2320 21.0394 52.6464 0.0000 0.0000 0.0000
# 2 21.0394 37.3493 8.9667 0.0000 0.0000 0.0000
# 3 52.6464 8.9667 120.4298 0.0000 0.0000 0.0000
# 4 0.0000 0.0000 0.0000 30.6390 0.0000 0.0000
# 5 0.0000 0.0000 0.0000 0.0000 24.2491 0.0000
# 6 0.0000 0.0000 0.0000 0.0000 0.0000 18.0213
#
#
#
# Elastic Compliance Matrix: (Units=1/GPa)
#
#
# Indices 1 2 3 4 5 6 
#
# 1 0.009503 -0.004435 -0.003824 0.000000 0.000000 0.000000
# 2 -0.004435 0.029331 -0.000245 0.000000 0.000000 0.000000
# 3 -0.003824 -0.000245 0.009994 0.000000 0.000000 0.000000
# 4 0.000000 0.000000 0.000000 0.032638 0.000000 0.000000
# 5 0.000000 0.000000 0.000000 0.000000 0.041239 0.000000
# 6 0.000000 0.000000 0.000000 0.000000 0.000000 0.055490
#
#
# Mechanical properties :
#
#
# Convention : Reuss Voigt Hill
#
# Bulk Modulus (GPa) = 31.42727 51.03513 41.23120
# Shear Modulus (GPa) = 24.29422 28.67245 26.48334
#
# Velocity S-wave (km/s) = 3.35846 3.64856 3.50651
# Velocity P-wave (km/s) = 5.44335 6.43769 5.96129
#
# Compressibility (1/GPa) = 0.03181950
#
# Stress axis : x y z
#
# Youngs Moduli (GPa) = 105.22757 34.09308 100.06425
#
# Poissons Ratio (x) = 0.15121 0.38266
# Poissons Ratio (y) = 0.46670 0.02452
# Poissons Ratio (z) = 0.40241 0.00835
#
# Static dielectric constant tensor:
#      x y z
#    x 1.845560 0.000000 0.000000 
#    y 0.000000 1.777490 0.000000 
#    z 0.000000 0.000000 1.808230 
# 
# From -- ./inp_files/5308.got.cif
#   From: 2010.05.17/outbox.cif.g08.bks.cpg/sg62_3_cif.got.tgz:5308.got - 2010.06.03 15:25:27.
