data_PCOD9467455
_publ_section_title
;
Structure prediction by ZEFSAII (Michael W. Deem and Ramdas Pophale) SiO2 
 PCOD9467455
Probable space group: P N M A
;
_chemical_formula_sum "Si O2"
_cell_formula_units_Z 56
_cell_length_a 30.423010
_cell_length_b 13.530572
_cell_length_c 5.627259
_cell_angle_alpha 90.000000
_cell_angle_beta 90.000000
_cell_angle_gamma 90.000000
_cell_volume 2316.408987
_symmetry_space_group_name_H-M "P N M A"
_symmetry_group_IT_number 62
_symmetry_cell_setting 'orthorhombic'
loop_
_space_group_symop_operation_xyz
x,y,z
1/2-x,-y,1/2+z
1/2+x,1/2-y,1/2-z
-x,1/2+y,-z
-x,-y,-z
1/2+x,y,1/2-z
1/2-x,1/2+y,1/2+z
x,1/2-y,z
loop_
_atom_site_type_symbol
_atom_site_label
_atom_site_fract_x
_atom_site_fract_y
_atom_site_fract_z
Si Si1 0.741750 0.910686 0.789722
Si Si2 0.432017 0.066791 0.967784
Si Si3 0.717761 0.614212 0.285983
Si Si4 0.648352 0.477285 0.785538
Si Si5 0.128120 0.250000 0.653836
Si Si6 0.573693 0.250000 0.356422
Si Si7 0.006942 0.078005 0.208216
Si Si8 0.879306 0.142537 0.927941
O O1 0.739991 0.857095 0.537058
O O2 0.779010 0.994095 0.789334
O O3 0.695750 0.971695 0.796379
O O4 0.741518 0.856507 0.041688
O O5 0.420689 0.136523 0.747565
O O6 0.462979 0.976098 0.902728
O O7 0.460431 0.113784 0.181602
O O8 0.385132 0.018071 0.019562
O O9 0.667640 0.646878 0.292654
O O10 0.651268 0.358809 0.819398
O O11 0.625310 0.536873 0.563748
O O12 0.101322 0.250000 0.397094
O O13 0.101458 0.250000 0.902424
O O14 0.540059 0.339683 0.375273
O O15 0.000000 0.000000 0.000000
O O16 0.880733 0.250000 0.062183
#
# Coordination Sequence:
#
# PCOD9467455 Si02
#       8
#     8   8   8   8   4   4   8   8
#     4   9  18  35  67  91 137 173 227 283 344 400
#     4  11  22  42  67  92 135 178 233 288 349 417
#     4   9  18  37  61  97 128 185 223 280 338 416
#     4  11  23  44  67 102 139 179 241 296 354 424
#     4  12  26  44  76 102 133 183 239 299 364 412
#     4  12  26  46  72  98 133 183 229 295 358 426
#     4  11  25  44  66  96 137 177 232 291 354 422
#     4  11  24  41  66  99 142 190 234 289 359 429
#
# _framework density 24.175348
#
# number of rings (size 3 to 8) (size 9 to 14) (size 15 to 20)
#    0.000    1.429    2.857    2.571    3.000    0.571 
#    5.143    0.000    0.000    0.000    7.429    0.000 
#    0.000    0.000    0.000    0.000    0.000    0.000 
#
# Total GULP energy -311957.370744 kJ/mol
# GULP energy per Si atom -5570.667335 kJ/mol
# Density = 2.412032 g / cm^3
# Si number density = 24.175348 Si / 1000 Ang^3
#
#
#
# Elastic Constant Matrix: (Units=GPa)
#
#
# Indices 1 2 3 4 5 6 
#
# 1 80.0646 29.3464 8.4729 0.0000 0.0000 0.0000
# 2 29.3464 128.4844 27.5618 0.0000 0.0000 0.0000
# 3 8.4729 27.5618 143.3052 0.0000 0.0000 0.0000
# 4 0.0000 0.0000 0.0000 4.3731 0.0000 0.0000
# 5 0.0000 0.0000 0.0000 0.0000 41.9218 0.0000
# 6 0.0000 0.0000 0.0000 0.0000 0.0000 -113.4759
#
#
#
# Elastic Compliance Matrix: (Units=1/GPa)
#
#
# Indices 1 2 3 4 5 6 
#
# 1 0.013638 -0.003069 -0.000216 0.000000 0.000000 0.000000
# 2 -0.003069 0.008808 -0.001513 0.000000 0.000000 0.000000
# 3 -0.000216 -0.001513 0.007282 0.000000 0.000000 0.000000
# 4 0.000000 0.000000 0.000000 0.228673 0.000000 0.000000
# 5 0.000000 0.000000 0.000000 0.000000 0.023854 0.000000
# 6 0.000000 0.000000 0.000000 0.000000 0.000000 -0.008812
#
#
# Mechanical properties :
#
#
# Convention : Reuss Voigt Hill
#
# Bulk Modulus (GPa) = 49.66958 53.62405 51.64682
# Shear Modulus (GPa) = 17.25641 5.66201 11.45921
#
# Velocity S-wave (km/s) = 2.67461 1.53204 2.17953
# Velocity P-wave (km/s) = 5.48891 5.03577 5.26722
#
# Compressibility (1/GPa) = 0.02013305
#
# Stress axis : x y z
#
# Youngs Moduli (GPa) = 73.32721 113.52803 137.32819
#
# Poissons Ratio (x) = 0.34836 0.02968
# Poissons Ratio (y) = 0.22500 0.20773
# Poissons Ratio (z) = 0.01585 0.17173
#
# Static dielectric constant tensor:
#      x y z
#    x 1.193790 0.000000 0.000000 
#    y 0.000000 2.122210 0.000000 
#    z 0.000000 0.000000 1.759930 
# 
# From -- ./inp_files/3634.got.cif
#   From: 2010.05.17/outbox.cif.g08.bks.cpg/sg62_2_cif.got.tgz:3634.got - 2010.06.03 15:25:27.
