data_PCOD9467865
_publ_section_title
;
Structure prediction by ZEFSAII (Michael W. Deem and Ramdas Pophale) SiO2 
 PCOD9467865
Probable space group: P N M A
;
_chemical_formula_sum "Si O2"
_cell_formula_units_Z 64
_cell_length_a 15.000000
_cell_length_b 9.000000
_cell_length_c 24.000000
_cell_angle_alpha 90.000000
_cell_angle_beta 90.000000
_cell_angle_gamma 90.000000
_cell_volume 3240.000000
_symmetry_space_group_name_H-M "P N M A"
_symmetry_group_IT_number 62
_symmetry_cell_setting 'orthorhombic'
loop_
_space_group_symop_operation_xyz
x,y,z
1/2-x,-y,1/2+z
1/2+x,1/2-y,1/2-z
-x,1/2+y,-z
-x,-y,-z
1/2+x,y,1/2-z
1/2-x,1/2+y,1/2+z
x,1/2-y,z
loop_
_atom_site_type_symbol
_atom_site_label
_atom_site_fract_x
_atom_site_fract_y
_atom_site_fract_z
Si Si1 0.616177 0.429374 0.616754
Si Si2 0.874072 0.579077 0.446076
Si Si3 0.548058 0.928941 0.108068
Si Si4 0.231448 0.078304 0.668310
Si Si5 0.774657 0.072044 0.544324
Si Si6 0.069400 0.423696 0.278491
Si Si7 0.284448 0.422930 0.280429
Si Si8 0.434890 0.428744 0.661728
O O1 0.617602 0.250000 0.615968
O O2 0.679000 0.482234 0.566176
O O3 0.665352 0.483975 0.672650
O O4 0.512980 0.477712 0.619677
O O5 0.878131 0.750000 0.465454
O O6 0.830478 0.575800 0.385138
O O7 0.810619 0.490642 0.486914
O O8 0.974532 0.522388 0.436955
O O9 0.541956 0.750000 0.112877
O O10 0.647334 0.967943 0.088226
O O11 0.528960 0.002381 0.167005
O O12 0.238321 0.250000 0.688134
O O13 0.331950 0.028552 0.651351
O O14 0.194806 0.980621 0.718619
O O15 0.772179 0.250000 0.541164
O O16 0.048504 0.250000 0.274843
O O17 0.177005 0.440033 0.284277
O O18 0.041985 0.506225 0.222244
O O19 0.306461 0.250000 0.287041
O O20 0.437122 0.250000 0.663666
#
# Coordination Sequence:
#
# PCOD9467865 Si02
#       8
#     8   8   8   8   8   8   8   8
#     4  10  20  35  56  80 106 143 185 221 265 323
#     4  10  22  37  56  79 105 141 185 228 271 321
#     4  10  20  35  54  78 108 145 182 217 264 325
#     4   9  19  37  56  77 107 143 183 225 268 319
#     4  10  21  37  56  78 107 141 182 228 272 320
#     4  10  20  33  51  80 114 144 174 215 270 324
#     4  10  20  33  52  80 112 143 174 219 273 322
#     4   9  19  35  56  77 106 146 183 221 264 320
#
# _framework density 19.753086
#
# number of rings (size 3 to 8) (size 9 to 14) (size 15 to 20)
#    0.000    2.250    1.250    1.125    1.750    3.500 
#    0.000    0.625    0.000    0.000    0.000    0.000 
#    0.000    0.000    0.000    0.000    0.000    0.000 
#
# Total GULP energy -357090.816384 kJ/mol
# GULP energy per Si atom -5579.544006 kJ/mol
# Density = 1.970813 g / cm^3
# Si number density = 19.753086 Si / 1000 Ang^3
#
#
#
# Elastic Constant Matrix: (Units=GPa)
#
#
# Indices 1 2 3 4 5 6 
#
# 1 24.7179 3.5186 -12.8273 0.0000 0.0000 0.0000
# 2 3.5186 -16.6311 5.3938 0.0000 0.0000 0.0000
# 3 -12.8273 5.3938 18.2574 0.0000 0.0000 0.0000
# 4 0.0000 0.0000 0.0000 21.5230 0.0000 0.0000
# 5 0.0000 0.0000 0.0000 0.0000 21.5910 0.0000
# 6 0.0000 0.0000 0.0000 0.0000 0.0000 14.1697
#
#
#
# Elastic Compliance Matrix: (Units=1/GPa)
#
#
# Indices 1 2 3 4 5 6 
#
# 1 0.053659 0.021518 0.031343 0.000000 0.000000 0.000000
# 2 0.021518 -0.046242 0.028779 0.000000 0.000000 0.000000
# 3 0.031343 0.028779 0.068291 0.000000 0.000000 0.000000
# 4 0.000000 0.000000 0.000000 0.046462 0.000000 0.000000
# 5 0.000000 0.000000 0.000000 0.000000 0.046316 0.000000
# 6 0.000000 0.000000 0.000000 0.000000 0.000000 0.070573
#
#
# Mechanical properties :
#
#
# Convention : Reuss Voigt Hill
#
# Bulk Modulus (GPa) = 4.18434 2.05715 3.12074
# Shear Modulus (GPa) = 32.16652 13.47401 22.82027
#
# Velocity S-wave (km/s) = 4.03976 2.61458 3.40262
# Velocity P-wave (km/s) = 4.88697 3.18722 4.12558
#
# Compressibility (1/GPa) = 0.23898646
#
# Stress axis : x y z
#
# Youngs Moduli (GPa) = 18.63625 -21.62520 14.64325
#
# Poissons Ratio (x) = 0.46532 -0.45896
# Poissons Ratio (y) = -0.40101 -0.42142
# Poissons Ratio (z) = -0.58411 0.62236
#
# Static dielectric constant tensor:
#      x y z
#    x 1.744150 0.000000 0.000000 
#    y 0.000000 1.664190 0.000000 
#    z 0.000000 0.000000 1.678430 
# 
# From -- ./inp_files/29748.got.cif
#   From: 2010.05.17/outbox.ucp.g08.bks.cvg/sg62_15_cif.got.tgz:29748.got - 2010.06.11 16:29:25.
