data_PCOD9467081
_publ_section_title
;
Structure prediction by ZEFSAII (Michael W. Deem and Ramdas Pophale) SiO2 
 PCOD9467081
Probable space group: P N M A
;
_chemical_formula_sum "Si O2"
_cell_formula_units_Z 32
_cell_length_a 14.751950
_cell_length_b 16.177301
_cell_length_c 5.170104
_cell_angle_alpha 90.000000
_cell_angle_beta 90.000000
_cell_angle_gamma 90.000000
_cell_volume 1233.828442
_symmetry_space_group_name_H-M "P N M A"
_symmetry_group_IT_number 62
_symmetry_cell_setting 'orthorhombic'
loop_
_space_group_symop_operation_xyz
x,y,z
1/2-x,-y,1/2+z
1/2+x,1/2-y,1/2-z
-x,1/2+y,-z
-x,-y,-z
1/2+x,y,1/2-z
1/2-x,1/2+y,1/2+z
x,1/2-y,z
loop_
_atom_site_type_symbol
_atom_site_label
_atom_site_fract_x
_atom_site_fract_y
_atom_site_fract_z
Si Si1 0.840209 0.605824 0.108376
Si Si2 0.151544 0.839949 0.202265
Si Si3 0.494701 0.159501 0.313180
Si Si4 0.113981 0.479870 0.388245
O O1 0.757996 0.655700 0.234112
O O2 0.934268 0.653616 0.055979
O O3 0.858720 0.536482 0.320513
O O4 0.820412 0.564860 0.827855
O O5 0.121276 0.750000 0.302094
O O6 0.108099 0.842218 0.914847
O O7 0.114666 0.924901 0.317577
O O8 0.514814 0.250000 0.196446
O O9 0.525121 0.076315 0.167093
#
# Coordination Sequence:
#
# PCOD9467081 Si02
#       4
#     8   8   8   8
#     4  10  23  44  67  91 132 169 218 261 324 378
#     4  11  22  42  67 101 131 170 218 267 321 385
#     4   9  22  42  67  97 132 170 217 266 322 382
#     4  10  23  45  67  92 132 172 214 264 323 382
#
# _framework density 25.935535999999999
#
# number of rings (size 3 to 8) (size 9 to 14) (size 15 to 20)
#    1.500    0.500    0.000    3.000    0.000    3.000 
#    4.500    3.750    0.000    0.000    0.000    0.000 
#    0.000    0.000    0.000    0.000    0.000    0.000 
#
# Total GULP energy -178418.443691 kJ/mol
# GULP energy per Si atom -5575.576365 kJ/mol
# Density = 2.587651 g / cm^3
# Si number density = 25.935536 Si / 1000 Ang^3
#
#
#
# Elastic Constant Matrix: (Units=GPa)
#
#
# Indices 1 2 3 4 5 6 
#
# 1 109.7390 6.1946 6.7406 0.0000 0.0000 0.0000
# 2 6.1946 201.4682 -4.6049 0.0000 0.0000 0.0000
# 3 6.7406 -4.6049 48.4168 0.0000 0.0000 0.0000
# 4 0.0000 0.0000 0.0000 -76.8259 0.0000 0.0000
# 5 0.0000 0.0000 0.0000 0.0000 6.3337 0.0000
# 6 0.0000 0.0000 0.0000 0.0000 0.0000 19.2178
#
#
#
# Elastic Compliance Matrix: (Units=1/GPa)
#
#
# Indices 1 2 3 4 5 6 
#
# 1 0.009211 -0.000313 -0.001312 0.000000 0.000000 0.000000
# 2 -0.000313 0.004985 0.000518 0.000000 0.000000 0.000000
# 3 -0.001312 0.000518 0.020886 0.000000 0.000000 0.000000
# 4 0.000000 0.000000 0.000000 -0.013016 0.000000 0.000000
# 5 0.000000 0.000000 0.000000 0.000000 0.157884 0.000000
# 6 0.000000 0.000000 0.000000 0.000000 0.000000 0.052035
#
#
# Mechanical properties :
#
#
# Convention : Reuss Voigt Hill
#
# Bulk Modulus (GPa) = 30.42606 41.80939 36.11772
# Shear Modulus (GPa) = 20.39521 13.16470 16.77996
#
# Velocity S-wave (km/s) = 2.80729 2.25543 2.54635
# Velocity P-wave (km/s) = 4.71855 4.78937 4.75409
#
# Compressibility (1/GPa) = 0.03286657
#
# Stress axis : x y z
#
# Youngs Moduli (GPa) = 108.56810 200.60074 47.87916
#
# Poissons Ratio (x) = 0.06283 0.06282
# Poissons Ratio (y) = 0.03400 -0.02479
# Poissons Ratio (z) = 0.14245 -0.10386
#
# Static dielectric constant tensor:
#      x y z
#    x 2.125250 0.000000 0.000000 
#    y 0.000000 2.010430 0.000000 
#    z 0.000000 0.000000 2.053570 
# 
# From -- ./inp_files/1532.got.cif
#   From: 2010.05.17/outbox.cif.g08.bks.cpg/sg62_1_cif.got.tgz:1532.got - 2010.06.03 15:25:27.
