data_PCOD9467116
_publ_section_title
;
Structure prediction by ZEFSAII (Michael W. Deem and Ramdas Pophale) SiO2 
 PCOD9467116
Probable space group: P N M A
;
_chemical_formula_sum "Si O2"
_cell_formula_units_Z 40
_cell_length_a 12.493813
_cell_length_b 15.807466
_cell_length_c 8.767512
_cell_angle_alpha 90.000000
_cell_angle_beta 90.000000
_cell_angle_gamma 90.000000
_cell_volume 1731.544378
_symmetry_space_group_name_H-M "P N M A"
_symmetry_group_IT_number 62
_symmetry_cell_setting 'orthorhombic'
loop_
_space_group_symop_operation_xyz
x,y,z
1/2-x,-y,1/2+z
1/2+x,1/2-y,1/2-z
-x,1/2+y,-z
-x,-y,-z
1/2+x,y,1/2-z
1/2-x,1/2+y,1/2+z
x,1/2-y,z
loop_
_atom_site_type_symbol
_atom_site_label
_atom_site_fract_x
_atom_site_fract_y
_atom_site_fract_z
Si Si1 0.596946 0.093150 0.619645
Si Si2 0.066250 0.250000 0.320682
Si Si3 0.366418 0.092820 0.497758
Si Si4 0.810898 0.250000 0.203114
Si Si5 0.808497 0.342802 0.687436
Si Si6 0.486997 0.901444 0.036916
O O1 0.492597 0.112656 0.521061
O O2 0.695939 0.154163 0.605734
O O3 0.564851 0.101060 0.796060
O O4 0.636766 0.999325 0.576937
O O5 0.184478 0.250000 0.234350
O O6 0.938191 0.250000 0.265902
O O7 0.068950 0.162939 0.420995
O O8 0.314191 0.164466 0.396477
O O9 0.317253 0.094458 0.668347
O O10 0.832097 0.250000 0.751531
O O11 0.894927 0.365333 0.562295
O O12 0.500000 0.000000 0.000000
#
# Coordination Sequence:
#
# PCOD9467116 Si02
#       6
#     8   4   8   4   8   8
#     4  10  24  41  71  98 138 185 239 295 366 426
#     4  12  28  47  74 110 146 201 245 309 374 448
#     4  10  23  46  66 103 136 188 239 293 358 439
#     4  12  26  45  72 100 150 185 251 303 372 420
#     4  11  23  40  71 102 135 183 234 298 356 427
#     4  11  25  46  68 101 143 184 246 296 363 437
#
# _framework density 23.100764000000002
#
# number of rings (size 3 to 8) (size 9 to 14) (size 15 to 20)
#    0.000    1.200    2.000    2.400    8.400    1.600 
#    0.000    0.000    0.000    0.000    0.000    0.000 
#    0.000    0.000    0.000    0.000    0.000    0.000 
#
# Total GULP energy -223135.894097 kJ/mol
# GULP energy per Si atom -5578.397352 kJ/mol
# Density = 2.304819 g / cm^3
# Si number density = 23.100764 Si / 1000 Ang^3
#
#
#
# Elastic Constant Matrix: (Units=GPa)
#
#
# Indices 1 2 3 4 5 6 
#
# 1 137.5102 68.4053 34.2542 0.0000 0.0000 0.0000
# 2 68.4053 87.4356 19.1466 0.0000 0.0000 0.0000
# 3 34.2542 19.1466 41.8153 0.0000 0.0000 0.0000
# 4 0.0000 0.0000 0.0000 43.7412 0.0000 0.0000
# 5 0.0000 0.0000 0.0000 0.0000 -8.6255 0.0000
# 6 0.0000 0.0000 0.0000 0.0000 0.0000 7.4400
#
#
#
# Elastic Compliance Matrix: (Units=1/GPa)
#
#
# Indices 1 2 3 4 5 6 
#
# 1 0.013492 -0.009042 -0.006912 0.000000 0.000000 0.000000
# 2 -0.009042 0.018771 -0.001188 0.000000 0.000000 0.000000
# 3 -0.006912 -0.001188 0.030121 0.000000 0.000000 0.000000
# 4 0.000000 0.000000 0.000000 0.022862 0.000000 0.000000
# 5 0.000000 0.000000 0.000000 0.000000 -0.115935 0.000000
# 6 0.000000 0.000000 0.000000 0.000000 0.000000 0.134409
#
#
# Mechanical properties :
#
#
# Convention : Reuss Voigt Hill
#
# Bulk Modulus (GPa) = 35.58751 56.70815 46.14783
# Shear Modulus (GPa) = 33.92804 18.17478 26.05141
#
# Velocity S-wave (km/s) = 3.83652 2.80797 3.36181
# Velocity P-wave (km/s) = 5.92148 5.92574 5.92361
#
# Compressibility (1/GPa) = 0.02809975
#
# Stress axis : x y z
#
# Youngs Moduli (GPa) = 74.11831 53.27360 33.19937
#
# Poissons Ratio (x) = 0.48169 0.22948
# Poissons Ratio (y) = 0.67016 0.03945
# Poissons Ratio (z) = 0.51232 0.06330
#
# Static dielectric constant tensor:
#      x y z
#    x 2.240870 0.000000 0.000000 
#    y 0.000000 0.194750 0.000000 
#    z 0.000000 0.000000 1.852440 
# 
# From -- ./inp_files/5066.got.cif
#   From: 2010.05.17/outbox.cif.g08.bks.cpg/sg62_3_cif.got.tgz:5066.got - 2010.06.03 15:25:27.
