data_PCOD9467536
_publ_section_title
;
Structure prediction by ZEFSAII (Michael W. Deem and Ramdas Pophale) SiO2 
 PCOD9467536
Probable space group: P N M A
;
_chemical_formula_sum "Si O2"
_cell_formula_units_Z 40
_cell_length_a 10.824499
_cell_length_b 30.694201
_cell_length_c 5.267079
_cell_angle_alpha 90.000000
_cell_angle_beta 90.000000
_cell_angle_gamma 90.000000
_cell_volume 1749.983564
_symmetry_space_group_name_H-M "P N M A"
_symmetry_group_IT_number 62
_symmetry_cell_setting 'orthorhombic'
loop_
_space_group_symop_operation_xyz
x,y,z
1/2-x,-y,1/2+z
1/2+x,1/2-y,1/2-z
-x,1/2+y,-z
-x,-y,-z
1/2+x,y,1/2-z
1/2-x,1/2+y,1/2+z
x,1/2-y,z
loop_
_atom_site_type_symbol
_atom_site_label
_atom_site_fract_x
_atom_site_fract_y
_atom_site_fract_z
Si Si1 0.233252 0.080207 0.277606
Si Si2 0.102958 0.876916 0.149744
Si Si3 0.021145 0.550850 0.544550
Si Si4 0.786413 0.700384 0.324221
Si Si5 0.610076 0.163136 0.341452
O O1 0.284328 0.092765 0.554841
O O2 0.342229 0.052898 0.159701
O O3 0.215726 0.126154 0.138600
O O4 0.098315 0.060665 0.284714
O O5 0.026122 0.909025 0.336997
O O6 0.168339 0.831115 0.216951
O O7 0.016407 0.861736 0.912624
O O8 0.000000 0.500000 0.500000
O O9 0.749843 0.750000 0.375266
O O10 0.868865 0.682874 0.562017
O O11 0.865136 0.696748 0.066661
#
# Coordination Sequence:
#
# PCOD9467536 Si02
#       5
#     8   8   8   8   8
#     4  11  25  47  71 110 150 202 258 318 396 474
#     4  11  24  46  72 102 155 206 259 322 402 475
#     4  12  28  45  77 113 157 211 270 335 401 485
#     4  11  25  43  72 111 150 198 260 324 395 481
#     4  11  23  45  73 104 150 200 249 317 392 470
#
# _framework density 22.857358999999999
#
# number of rings (size 3 to 8) (size 9 to 14) (size 15 to 20)
#    0.000    0.800    4.000    3.000    2.800    2.400 
#    0.000    0.000    0.000    0.000    0.000    0.000 
#    0.000    0.000    0.000    0.000    0.000    0.000 
#
# Total GULP energy -222957.470323 kJ/mol
# GULP energy per Si atom -5573.936758 kJ/mol
# Density = 2.280533 g / cm^3
# Si number density = 22.857359 Si / 1000 Ang^3
#
#
#
# Elastic Constant Matrix: (Units=GPa)
#
#
# Indices 1 2 3 4 5 6 
#
# 1 98.5340 27.5182 30.5442 0.0000 0.0000 0.0000
# 2 27.5182 145.6444 43.5966 0.0000 0.0000 0.0000
# 3 30.5442 43.5966 92.0622 0.0000 0.0000 0.0000
# 4 0.0000 0.0000 0.0000 23.1256 0.0000 0.0000
# 5 0.0000 0.0000 0.0000 0.0000 37.9598 0.0000
# 6 0.0000 0.0000 0.0000 0.0000 0.0000 25.9441
#
#
#
# Elastic Compliance Matrix: (Units=1/GPa)
#
#
# Indices 1 2 3 4 5 6 
#
# 1 0.011489 -0.001200 -0.003244 0.000000 0.000000 0.000000
# 2 -0.001200 0.008125 -0.003450 0.000000 0.000000 0.000000
# 3 -0.003244 -0.003450 0.013572 0.000000 0.000000 0.000000
# 4 0.000000 0.000000 0.000000 0.043242 0.000000 0.000000
# 5 0.000000 0.000000 0.000000 0.000000 0.026344 0.000000
# 6 0.000000 0.000000 0.000000 0.000000 0.000000 0.038544
#
#
# Mechanical properties :
#
#
# Convention : Reuss Voigt Hill
#
# Bulk Modulus (GPa) = 57.47064 59.95096 58.71080
# Shear Modulus (GPa) = 30.69299 33.04467 31.86883
#
# Velocity S-wave (km/s) = 3.66841 3.80635 3.73801
# Velocity P-wave (km/s) = 6.56816 6.75300 6.66122
#
# Compressibility (1/GPa) = 0.01740019
#
# Stress axis : x y z
#
# Youngs Moduli (GPa) = 87.03691 123.07141 73.68076
#
# Poissons Ratio (x) = 0.14767 0.23900
# Poissons Ratio (y) = 0.10443 0.25418
# Poissons Ratio (z) = 0.28232 0.42456
#
# Static dielectric constant tensor:
#      x y z
#    x 1.839320 0.000000 0.000000 
#    y 0.000000 1.871360 0.000000 
#    z 0.000000 0.000000 2.224770 
# 
# From -- ./inp_files/673.got.cif
#   From: 2010.05.17/outbox.cif.g08.bks.cpg/sg62_1_cif.got.tgz:673.got - 2010.06.03 15:25:27.
