data_PCOD9467753
_publ_section_title
;
Structure prediction by ZEFSAII (Michael W. Deem and Ramdas Pophale) SiO2 
 PCOD9467753
Probable space group: P N M A
;
_chemical_formula_sum "Si O2"
_cell_formula_units_Z 48
_cell_length_a 12.904501
_cell_length_b 13.418362
_cell_length_c 17.323561
_cell_angle_alpha 90.000000
_cell_angle_beta 90.000000
_cell_angle_gamma 90.000000
_cell_volume 2999.700457
_symmetry_space_group_name_H-M "P N M A"
_symmetry_group_IT_number 62
_symmetry_cell_setting 'orthorhombic'
loop_
_space_group_symop_operation_xyz
x,y,z
1/2-x,-y,1/2+z
1/2+x,1/2-y,1/2-z
-x,1/2+y,-z
-x,-y,-z
1/2+x,y,1/2-z
1/2-x,1/2+y,1/2+z
x,1/2-y,z
loop_
_atom_site_type_symbol
_atom_site_label
_atom_site_fract_x
_atom_site_fract_y
_atom_site_fract_z
Si Si1 0.620114 0.014935 0.226759
Si Si2 0.207537 0.132920 0.126909
Si Si3 0.977789 0.365778 0.839525
Si Si4 0.661065 0.975520 0.648649
Si Si5 0.572381 0.634579 0.795967
Si Si6 0.616278 0.966891 0.479967
O O1 0.578975 0.914111 0.265829
O O2 0.646962 0.089397 0.298453
O O3 0.724104 0.000880 0.178423
O O4 0.525153 0.066578 0.182614
O O5 0.184245 0.250000 0.114981
O O6 0.328700 0.122649 0.148294
O O7 0.175186 0.061791 0.056594
O O8 0.998903 0.250000 0.831644
O O9 0.901609 0.387072 0.912204
O O10 0.083728 0.429264 0.850553
O O11 0.610979 0.900084 0.710937
O O12 0.663905 0.934685 0.561439
O O13 0.542899 0.750000 0.794437
O O14 0.500000 0.000000 0.500000
#
# Coordination Sequence:
#
# PCOD9467753 Si02
#       6
#     8   8   8   8   8   8
#     4   9  17  30  48  70  93 119 156 192 225 271
#     4   9  17  30  48  69  95 123 149 185 233 277
#     4   9  18  31  45  64  93 125 155 190 229 269
#     4   9  18  31  47  70  94 120 154 190 229 272
#     4   9  17  30  49  71  94 120 150 189 234 274
#     4   9  18  30  45  68  93 119 152 188 230 273
#
# _framework density 16.001598999999999
#
# number of rings (size 3 to 8) (size 9 to 14) (size 15 to 20)
#    0.000    3.000    0.000    1.500    0.000    4.667 
#    0.000    0.833    0.000    0.000    0.000    0.000 
#    0.000    0.000    0.000    0.000    0.000    0.000 
#
# Total GULP energy -267230.980733 kJ/mol
# GULP energy per Si atom -5567.312099 kJ/mol
# Density = 1.596518 g / cm^3
# Si number density = 16.001599 Si / 1000 Ang^3
#
#
#
# Elastic Constant Matrix: (Units=GPa)
#
#
# Indices 1 2 3 4 5 6 
#
# 1 73.5599 27.3646 33.9382 0.0000 0.0000 0.0000
# 2 27.3646 71.5808 23.2262 0.0000 0.0000 0.0000
# 3 33.9382 23.2262 64.3786 0.0000 0.0000 0.0000
# 4 0.0000 0.0000 0.0000 6.9154 0.0000 0.0000
# 5 0.0000 0.0000 0.0000 0.0000 19.5310 0.0000
# 6 0.0000 0.0000 0.0000 0.0000 0.0000 16.8120
#
#
#
# Elastic Compliance Matrix: (Units=1/GPa)
#
#
# Indices 1 2 3 4 5 6 
#
# 1 0.019212 -0.004596 -0.008470 0.000000 0.000000 0.000000
# 2 -0.004596 0.016922 -0.003682 0.000000 0.000000 0.000000
# 3 -0.008470 -0.003682 0.021326 0.000000 0.000000 0.000000
# 4 0.000000 0.000000 0.000000 0.144605 0.000000 0.000000
# 5 0.000000 0.000000 0.000000 0.000000 0.051201 0.000000
# 6 0.000000 0.000000 0.000000 0.000000 0.000000 0.059481
#
#
# Mechanical properties :
#
#
# Convention : Reuss Voigt Hill
#
# Bulk Modulus (GPa) = 41.72856 42.06414 41.89635
# Shear Modulus (GPa) = 14.11508 16.98437 15.54973
#
# Velocity S-wave (km/s) = 2.97325 3.26147 3.12069
# Velocity P-wave (km/s) = 6.15803 6.36612 6.26294
#
# Compressibility (1/GPa) = 0.02396440
#
# Stress axis : x y z
#
# Youngs Moduli (GPa) = 52.05136 59.09446 46.89027
#
# Poissons Ratio (x) = 0.27162 0.39714
# Poissons Ratio (y) = 0.23924 0.17265
# Poissons Ratio (z) = 0.44085 0.21759
#
# Static dielectric constant tensor:
#      x y z
#    x 1.543850 0.000000 0.000000 
#    y 0.000000 1.519530 0.000000 
#    z 0.000000 0.000000 1.555380 
# 
# From -- ./inp_files/23033.got.cif
#   From: 2010.05.17/outbox.cif.g08.bks.cpg/sg62_12_cif.got.tgz:23033.got - 2010.06.03 15:25:27.
