data_PCOD9467059
_publ_section_title
;
Structure prediction by ZEFSAII (Michael W. Deem and Ramdas Pophale) SiO2 
 PCOD9467059
Probable space group: P N M A
;
_chemical_formula_sum "Si O2"
_cell_formula_units_Z 48
_cell_length_a 8.597463
_cell_length_b 22.205420
_cell_length_c 11.386597
_cell_angle_alpha 90.000000
_cell_angle_beta 90.000000
_cell_angle_gamma 90.000000
_cell_volume 2173.818386
_symmetry_space_group_name_H-M "P N M A"
_symmetry_group_IT_number 62
_symmetry_cell_setting 'orthorhombic'
loop_
_space_group_symop_operation_xyz
x,y,z
1/2-x,-y,1/2+z
1/2+x,1/2-y,1/2-z
-x,1/2+y,-z
-x,-y,-z
1/2+x,y,1/2-z
1/2-x,1/2+y,1/2+z
x,1/2-y,z
loop_
_atom_site_type_symbol
_atom_site_label
_atom_site_fract_x
_atom_site_fract_y
_atom_site_fract_z
Si Si1 0.266658 0.479294 0.626811
Si Si2 0.053851 0.318320 0.581853
Si Si3 0.707625 0.318436 0.506696
Si Si4 0.934442 0.593424 0.199771
Si Si5 0.287088 0.595513 0.917697
Si Si6 0.062447 0.398727 0.175438
O O1 0.413866 0.434817 0.641591
O O2 0.158696 0.461008 0.736849
O O3 0.190021 0.461730 0.503077
O O4 0.334026 0.545739 0.628017
O O5 0.088962 0.250000 0.616610
O O6 0.029576 0.360395 0.694780
O O7 0.187757 0.347510 0.502806
O O8 0.894194 0.319216 0.508582
O O9 0.659279 0.250000 0.537099
O O10 0.654100 0.367371 0.602935
O O11 0.634091 0.339373 0.384110
O O12 0.412045 0.598641 0.814323
O O13 0.116020 0.594954 0.862079
#
# Coordination Sequence:
#
# PCOD9467059 Si02
#       6
#     8   8   8   8   8   8
#     4  11  24  41  70 100 139 172 225 283 344 405
#     4  10  23  43  67  96 133 174 225 279 335 405
#     4  11  24  42  66  95 134 179 225 276 336 405
#     4  11  21  42  67 103 132 173 219 283 348 399
#     4  11  25  43  65  97 133 177 227 277 334 405
#     4  12  25  43  67  97 138 181 231 276 340 402
#
# _framework density 22.080960999999999
#
# number of rings (size 3 to 8) (size 9 to 14) (size 15 to 20)
#    0.000    1.000    3.333    3.000    2.333    1.333 
#    0.000    4.167    0.000    0.000    0.000    0.000 
#    0.000    0.000    0.000    0.000    0.000    0.000 
#
# Total GULP energy -268648.135965 kJ/mol
# GULP energy per Si atom -5596.836166 kJ/mol
# Density = 2.203070 g / cm^3
# Si number density = 22.080961 Si / 1000 Ang^3
#
#
#
# Elastic Constant Matrix: (Units=GPa)
#
#
# Indices 1 2 3 4 5 6 
#
# 1 46.3369 6.5535 22.2074 0.0000 0.0000 0.0000
# 2 6.5535 73.5384 14.7164 0.0000 0.0000 0.0000
# 3 22.2074 14.7164 91.5674 0.0000 0.0000 0.0000
# 4 0.0000 0.0000 0.0000 21.6473 0.0000 0.0000
# 5 0.0000 0.0000 0.0000 0.0000 37.6671 0.0000
# 6 0.0000 0.0000 0.0000 0.0000 0.0000 25.4365
#
#
#
# Elastic Compliance Matrix: (Units=1/GPa)
#
#
# Indices 1 2 3 4 5 6 
#
# 1 0.024494 -0.001027 -0.005775 0.000000 0.000000 0.000000
# 2 -0.001027 0.014093 -0.002016 0.000000 0.000000 0.000000
# 3 -0.005775 -0.002016 0.012646 0.000000 0.000000 0.000000
# 4 0.000000 0.000000 0.000000 0.046195 0.000000 0.000000
# 5 0.000000 0.000000 0.000000 0.000000 0.026548 0.000000
# 6 0.000000 0.000000 0.000000 0.000000 0.000000 0.039314
#
#
# Mechanical properties :
#
#
# Convention : Reuss Voigt Hill
#
# Bulk Modulus (GPa) = 29.76518 33.15526 31.46022
# Shear Modulus (GPa) = 26.02461 28.14787 27.08624
#
# Velocity S-wave (km/s) = 3.43680 3.57425 3.50620
# Velocity P-wave (km/s) = 5.40907 5.66406 5.53803
#
# Compressibility (1/GPa) = 0.03359631
#
# Stress axis : x y z
#
# Youngs Moduli (GPa) = 40.82589 70.95577 79.07898
#
# Poissons Ratio (x) = 0.07288 0.45671
# Poissons Ratio (y) = 0.04193 0.15942
# Poissons Ratio (z) = 0.23579 0.14304
#
# Static dielectric constant tensor:
#      x y z
#    x 1.796360 0.000000 0.000000 
#    y 0.000000 1.788110 0.000000 
#    z 0.000000 0.000000 1.826790 
# 
# From -- ./inp_files/11297.got.cif
#   From: 2010.05.17/outbox.cif.g08.bks.cpg/sg62_6_cif.got.tgz:11297.got - 2010.06.03 15:25:27.
