data_PCOD9467042
_publ_section_title
;
Structure prediction by ZEFSAII (Michael W. Deem and Ramdas Pophale) SiO2 
 PCOD9467042
Probable space group: P N M A
;
_chemical_formula_sum "Si O2"
_cell_formula_units_Z 56
_cell_length_a 16.924107
_cell_length_b 16.419418
_cell_length_c 8.240668
_cell_angle_alpha 90.000000
_cell_angle_beta 90.000000
_cell_angle_gamma 90.000000
_cell_volume 2289.949680
_symmetry_space_group_name_H-M "P N M A"
_symmetry_group_IT_number 62
_symmetry_cell_setting 'orthorhombic'
loop_
_space_group_symop_operation_xyz
x,y,z
1/2-x,-y,1/2+z
1/2+x,1/2-y,1/2-z
-x,1/2+y,-z
-x,-y,-z
1/2+x,y,1/2-z
1/2-x,1/2+y,1/2+z
x,1/2-y,z
loop_
_atom_site_type_symbol
_atom_site_label
_atom_site_fract_x
_atom_site_fract_y
_atom_site_fract_z
Si Si1 0.297490 0.463274 0.394344
Si Si2 0.372436 0.867555 0.213472
Si Si3 0.299506 0.397185 0.748964
Si Si4 0.059522 0.155405 0.062817
Si Si5 0.958174 0.048292 0.264913
Si Si6 0.037338 0.616831 0.385856
Si Si7 0.828548 0.845318 0.627368
O O1 0.317629 0.444521 0.580125
O O2 0.233173 0.533824 0.371356
O O3 0.371060 0.486254 0.277745
O O4 0.257434 0.380177 0.331426
O O5 0.278792 0.842600 0.226508
O O6 0.392253 0.871525 0.406479
O O7 0.460654 0.833538 0.166849
O O8 0.359721 0.898905 0.023982
O O9 0.379238 0.357620 0.812347
O O10 0.036343 0.250000 0.048718
O O11 0.115323 0.146276 0.219381
O O12 0.987112 0.096647 0.107083
O O13 0.955172 0.106209 0.421034
O O14 0.013837 0.972510 0.311236
O O15 0.827721 0.750000 0.582313
#
# Coordination Sequence:
#
# PCOD9467042 Si02
#       7
#     8   8   8   8   8   8   8
#     4  11  23  38  61  94 129 171 214 271 324 398
#     4  11  23  43  67  99 128 172 217 276 334 396
#     4  11  24  37  63  99 129 169 215 267 344 391
#     4  11  24  41  67  93 124 177 221 261 325 394
#     4  11  23  40  64  94 133 171 222 270 331 398
#     4  11  23  40  63  98 135 170 211 283 338 390
#     4  10  23  43  63  90 129 171 215 268 322 387
#
# _framework density 24.454685000000001
#
# number of rings (size 3 to 8) (size 9 to 14) (size 15 to 20)
#    0.000    1.143    2.857    3.000   10.000    1.714 
#    0.000    0.000    0.000    3.429    0.000    0.000 
#    0.000    0.000    0.000    0.000    0.000    0.000 
#
# Total GULP energy -312014.817797 kJ/mol
# GULP energy per Si atom -5571.693175 kJ/mol
# Density = 2.439902 g / cm^3
# Si number density = 24.454685 Si / 1000 Ang^3
#
#
#
# Elastic Constant Matrix: (Units=GPa)
#
#
# Indices 1 2 3 4 5 6 
#
# 1 153.3024 6.2430 20.9605 0.0000 0.0000 0.0000
# 2 6.2430 74.6264 30.0193 0.0000 0.0000 0.0000
# 3 20.9605 30.0193 115.2257 0.0000 0.0000 0.0000
# 4 0.0000 0.0000 0.0000 1.5244 0.0000 0.0000
# 5 0.0000 0.0000 0.0000 0.0000 1.3660 0.0000
# 6 0.0000 0.0000 0.0000 0.0000 0.0000 -12.5526
#
#
#
# Elastic Compliance Matrix: (Units=1/GPa)
#
#
# Indices 1 2 3 4 5 6 
#
# 1 0.006690 -0.000078 -0.001197 0.000000 0.000000 0.000000
# 2 -0.000078 0.014970 -0.003886 0.000000 0.000000 0.000000
# 3 -0.001197 -0.003886 0.009909 0.000000 0.000000 0.000000
# 4 0.000000 0.000000 0.000000 0.656000 0.000000 0.000000
# 5 0.000000 0.000000 0.000000 0.000000 0.732050 0.000000
# 6 0.000000 0.000000 0.000000 0.000000 0.000000 -0.079665
#
#
# Mechanical properties :
#
#
# Convention : Reuss Voigt Hill
#
# Bulk Modulus (GPa) = 47.06558 50.84446 48.95502
# Shear Modulus (GPa) = 3.68363 17.12968 10.40666
#
# Velocity S-wave (km/s) = 1.22865 2.64950 2.06512
# Velocity P-wave (km/s) = 4.61526 5.49511 5.07429
#
# Compressibility (1/GPa) = 0.02124695
#
# Stress axis : x y z
#
# Youngs Moduli (GPa) = 149.48029 66.80150 100.92223
#
# Poissons Ratio (x) = 0.00523 0.12076
# Poissons Ratio (y) = 0.01171 0.39216
# Poissons Ratio (z) = 0.17886 0.25957
#
# Static dielectric constant tensor:
#      x y z
#    x 2.022620 0.000000 0.000000 
#    y 0.000000 3.175310 0.000000 
#    z 0.000000 0.000000 1.954820 
# 
# From -- ./inp_files/6780.got.cif
#   From: 2010.05.17/outbox.cif.g08.bks.cpg/sg62_4_cif.got.tgz:6780.got - 2010.06.03 15:25:27.
