data_PCOD9467175
_publ_section_title
;
Structure prediction by ZEFSAII (Michael W. Deem and Ramdas Pophale) SiO2 
 PCOD9467175
Probable space group: P N M A
;
_chemical_formula_sum "Si O2"
_cell_formula_units_Z 32
_cell_length_a 18.463604
_cell_length_b 8.729298
_cell_length_c 10.050834
_cell_angle_alpha 90.000000
_cell_angle_beta 90.000000
_cell_angle_gamma 90.000000
_cell_volume 1619.936149
_symmetry_space_group_name_H-M "P N M A"
_symmetry_group_IT_number 62
_symmetry_cell_setting 'orthorhombic'
loop_
_space_group_symop_operation_xyz
x,y,z
1/2-x,-y,1/2+z
1/2+x,1/2-y,1/2-z
-x,1/2+y,-z
-x,-y,-z
1/2+x,y,1/2-z
1/2-x,1/2+y,1/2+z
x,1/2-y,z
loop_
_atom_site_type_symbol
_atom_site_label
_atom_site_fract_x
_atom_site_fract_y
_atom_site_fract_z
Si Si1 0.939105 0.933061 0.099102
Si Si2 0.177648 0.066399 0.296113
Si Si3 0.708838 0.567085 0.482947
Si Si4 0.511582 0.434163 0.146726
O O1 0.942380 0.750000 0.096233
O O2 0.861451 0.989685 0.048445
O O3 0.957015 0.994966 0.245939
O O4 0.000000 0.000000 0.000000
O O5 0.181596 0.250000 0.278555
O O6 0.221054 0.026466 0.429648
O O7 0.093235 0.025227 0.307206
O O8 0.212928 0.987740 0.168489
O O9 0.699786 0.750000 0.486693
O O10 0.505175 0.250000 0.145827
O O11 0.500000 0.500000 0.000000
#
# Coordination Sequence:
#
# PCOD9467175 Si02
#       4
#     8   8   8   8
#     4  12  24  42  67  95 126 167 214 267 321 382
#     4  10  24  44  64  93 130 168 214 263 314 378
#     4  11  24  42  66  96 128 170 216 262 321 384
#     4  11  24  43  66  96 131 168 213 268 320 381
#
# _framework density 19.753864
#
# number of rings (size 3 to 8) (size 9 to 14) (size 15 to 20)
#    0.000    1.000    2.500    3.750    3.500    3.000 
#    0.000    0.000    0.000    0.000    0.000    0.000 
#    0.000    0.000    0.000    0.000    0.000    0.000 
#
# Total GULP energy -179074.377165 kJ/mol
# GULP energy per Si atom -5596.074286 kJ/mol
# Density = 1.970890 g / cm^3
# Si number density = 19.753864 Si / 1000 Ang^3
#
#
#
# Elastic Constant Matrix: (Units=GPa)
#
#
# Indices 1 2 3 4 5 6 
#
# 1 26.1050 12.0851 -6.6643 0.0000 0.0000 0.0000
# 2 12.0851 56.0495 29.9081 0.0000 0.0000 0.0000
# 3 -6.6643 29.9081 124.1110 0.0000 0.0000 0.0000
# 4 0.0000 0.0000 0.0000 41.3928 0.0000 0.0000
# 5 0.0000 0.0000 0.0000 0.0000 41.3815 0.0000
# 6 0.0000 0.0000 0.0000 0.0000 0.0000 25.3942
#
#
#
# Elastic Compliance Matrix: (Units=1/GPa)
#
#
# Indices 1 2 3 4 5 6 
#
# 1 0.045643 -0.012794 0.005534 0.000000 0.000000 0.000000
# 2 -0.012794 0.024060 -0.006485 0.000000 0.000000 0.000000
# 3 0.005534 -0.006485 0.009917 0.000000 0.000000 0.000000
# 4 0.000000 0.000000 0.000000 0.024159 0.000000 0.000000
# 5 0.000000 0.000000 0.000000 0.000000 0.024165 0.000000
# 6 0.000000 0.000000 0.000000 0.000000 0.000000 0.039379
#
#
# Mechanical properties :
#
#
# Convention : Reuss Voigt Hill
#
# Bulk Modulus (GPa) = 19.18293 30.76926 24.97609
# Shear Modulus (GPa) = 23.56376 33.02949 28.29663
#
# Velocity S-wave (km/s) = 3.45754 4.09351 3.78889
# Velocity P-wave (km/s) = 5.06670 6.16057 5.64022
#
# Compressibility (1/GPa) = 0.05212968
#
# Stress axis : x y z
#
# Youngs Moduli (GPa) = 21.90940 41.56207 100.83483
#
# Poissons Ratio (x) = 0.53175 -0.55801
# Poissons Ratio (y) = 0.28031 0.65392
# Poissons Ratio (z) = -0.12125 0.26953
#
# Static dielectric constant tensor:
#      x y z
#    x 1.670300 0.000000 0.000000 
#    y 0.000000 1.661080 0.000000 
#    z 0.000000 0.000000 1.675670 
# 
# From -- ./inp_files/8248.got.cif
#   From: 2010.05.17/outbox.cif.g08.bks.cpg/sg62_5_cif.got.tgz:8248.got - 2010.06.03 15:25:27.
