data_PCOD9467741
_publ_section_title
;
Structure prediction by ZEFSAII (Michael W. Deem and Ramdas Pophale) SiO2 
 PCOD9467741
Probable space group: P N M A
;
_chemical_formula_sum "Si O2"
_cell_formula_units_Z 16
_cell_length_a 10.733346
_cell_length_b 12.704585
_cell_length_c 4.743250
_cell_angle_alpha 90.000000
_cell_angle_beta 90.000000
_cell_angle_gamma 90.000000
_cell_volume 646.802408
_symmetry_space_group_name_H-M "P N M A"
_symmetry_group_IT_number 62
_symmetry_cell_setting 'orthorhombic'
loop_
_space_group_symop_operation_xyz
x,y,z
1/2-x,-y,1/2+z
1/2+x,1/2-y,1/2-z
-x,1/2+y,-z
-x,-y,-z
1/2+x,y,1/2-z
1/2-x,1/2+y,1/2+z
x,1/2-y,z
loop_
_atom_site_type_symbol
_atom_site_label
_atom_site_fract_x
_atom_site_fract_y
_atom_site_fract_z
Si Si1 0.248219 0.926081 0.759268
Si Si2 0.122878 0.250000 0.559099
Si Si3 0.610890 0.750000 0.460377
O O1 0.362351 0.852391 0.860335
O O2 0.131331 0.852720 0.844626
O O3 0.246434 0.031551 0.946085
O O4 0.258218 0.250000 0.717350
O O5 0.007787 0.250000 0.764990
#
# Coordination Sequence:
#
# PCOD9467741 Si02
#       3
#     8   4   4
#     4   9  20  37  58  82 112 149 186 229 280 332
#     4   8  20  36  56  84 114 144 188 232 276 332
#     4   8  20  36  56  84 114 144 188 232 276 332
#
# _framework density 24.737075000000001
#
# number of rings (size 3 to 8) (size 9 to 14) (size 15 to 20)
#    3.000    0.000    0.000    0.000    0.000   12.000 
#    0.000    5.000    0.000    0.000    0.000    0.000 
#    0.000    0.000    0.000    0.000    0.000    0.000 
#
# Total GULP energy -89282.755806 kJ/mol
# GULP energy per Si atom -5580.172238 kJ/mol
# Density = 2.468077 g / cm^3
# Si number density = 24.737075 Si / 1000 Ang^3
#
#
#
# Elastic Constant Matrix: (Units=GPa)
#
#
# Indices 1 2 3 4 5 6 
#
# 1 131.3050 -18.8337 34.2288 0.0000 0.0000 0.0000
# 2 -18.8337 136.4945 32.6312 0.0000 0.0000 0.0000
# 3 34.2288 32.6312 60.7461 0.0000 0.0000 0.0000
# 4 0.0000 0.0000 0.0000 -67.2886 0.0000 0.0000
# 5 0.0000 0.0000 0.0000 0.0000 37.2476 0.0000
# 6 0.0000 0.0000 0.0000 0.0000 0.0000 -13.7280
#
#
#
# Elastic Compliance Matrix: (Units=1/GPa)
#
#
# Indices 1 2 3 4 5 6 
#
# 1 0.009963 0.003117 -0.007288 0.000000 0.000000 0.000000
# 2 0.003117 0.009381 -0.006796 0.000000 0.000000 0.000000
# 3 -0.007288 -0.006796 0.024219 0.000000 0.000000 0.000000
# 4 0.000000 0.000000 0.000000 -0.014861 0.000000 0.000000
# 5 0.000000 0.000000 0.000000 0.000000 0.026847 0.000000
# 6 0.000000 0.000000 0.000000 0.000000 0.000000 -0.072844
#
#
# Mechanical properties :
#
#
# Convention : Reuss Voigt Hill
#
# Bulk Modulus (GPa) = 46.23328 47.17758 46.70543
# Shear Modulus (GPa) = 421.99161 9.94748 215.96954
#
# Velocity S-wave (km/s) = 13.07521 2.00749 9.35391
# Velocity P-wave (km/s) = 15.70600 4.94837 11.64399
#
# Compressibility (1/GPa) = 0.02162944
#
# Stress axis : x y z
#
# Youngs Moduli (GPa) = 100.37289 106.59857 41.28973
#
# Poissons Ratio (x) = -0.33227 0.30093
# Poissons Ratio (y) = -0.31287 0.28059
# Poissons Ratio (z) = 0.73154 0.72440
#
# Static dielectric constant tensor:
#      x y z
#    x 2.036620 0.000000 0.000000 
#    y 0.000000 1.959740 0.000000 
#    z 0.000000 0.000000 1.943160 
# 
# From -- ./inp_files/80.got.cif
#   From: 2010.05.17/outbox.cif.g08.bks.cpg/sg62_1_cif.got.tgz:80.got - 2010.06.03 15:25:27.
