data_PCOD9467183
_publ_section_title
;
Structure prediction by ZEFSAII (Michael W. Deem and Ramdas Pophale) SiO2 
 PCOD9467183
Probable space group: P N M A
;
_chemical_formula_sum "Si O2"
_cell_formula_units_Z 48
_cell_length_a 23.525485
_cell_length_b 16.930621
_cell_length_c 5.763792
_cell_angle_alpha 90.000000
_cell_angle_beta 90.000000
_cell_angle_gamma 90.000000
_cell_volume 2295.724523
_symmetry_space_group_name_H-M "P N M A"
_symmetry_group_IT_number 62
_symmetry_cell_setting 'orthorhombic'
loop_
_space_group_symop_operation_xyz
x,y,z
1/2-x,-y,1/2+z
1/2+x,1/2-y,1/2-z
-x,1/2+y,-z
-x,-y,-z
1/2+x,y,1/2-z
1/2-x,1/2+y,1/2+z
x,1/2-y,z
loop_
_atom_site_type_symbol
_atom_site_label
_atom_site_fract_x
_atom_site_fract_y
_atom_site_fract_z
Si Si1 0.514488 0.837369 0.556394
Si Si2 0.399178 0.912907 0.478679
Si Si3 0.273645 0.654477 0.526906
Si Si4 0.283870 0.345413 0.524546
Si Si5 0.440243 0.024780 0.117039
Si Si6 0.898223 0.416755 0.799945
O O1 0.528313 0.750000 0.637786
O O2 0.447553 0.849739 0.534993
O O3 0.539385 0.908525 0.705398
O O4 0.548147 0.857760 0.320334
O O5 0.336821 0.881115 0.521769
O O6 0.412311 0.946403 0.222985
O O7 0.409867 0.992944 0.624020
O O8 0.275755 0.750000 0.531386
O O9 0.246704 0.633307 0.272552
O O10 0.243932 0.630716 0.774705
O O11 0.287739 0.250000 0.520633
O O12 0.346015 0.382855 0.557607
O O13 0.391577 0.069346 0.971436
O O14 0.500000 0.000000 0.000000
#
# Coordination Sequence:
#
# PCOD9467183 Si02
#       6
#     8   8   8   8   8   8
#     4  11  23  39  63  98 131 170 223 279 347 418
#     4  11  23  40  66  93 133 176 220 282 346 415
#     4  10  24  45  67  96 134 176 230 287 343 407
#     4  10  24  44  66  95 132 176 226 287 343 404
#     4  11  21  42  64  96 136 176 221 282 351 421
#     4  11  23  41  65  91 131 174 220 280 343 415
#
# _framework density 20.908434
#
# number of rings (size 3 to 8) (size 9 to 14) (size 15 to 20)
#    0.000    1.333    3.333    2.000    7.000    2.667 
#    0.000    0.000    0.000    0.000    0.000    0.000 
#    0.000    0.000    0.000    0.000    0.000    0.000 
#
# Total GULP energy -267269.419732 kJ/mol
# GULP energy per Si atom -5568.112911 kJ/mol
# Density = 2.086084 g / cm^3
# Si number density = 20.908434 Si / 1000 Ang^3
#
#
#
# Elastic Constant Matrix: (Units=GPa)
#
#
# Indices 1 2 3 4 5 6 
#
# 1 118.4026 22.7828 45.4405 0.0000 0.0000 0.0000
# 2 22.7828 48.4141 16.9606 0.0000 0.0000 0.0000
# 3 45.4405 16.9606 101.3657 0.0000 0.0000 0.0000
# 4 0.0000 0.0000 0.0000 17.0727 0.0000 0.0000
# 5 0.0000 0.0000 0.0000 0.0000 35.7082 0.0000
# 6 0.0000 0.0000 0.0000 0.0000 0.0000 36.8083
#
#
#
# Elastic Compliance Matrix: (Units=1/GPa)
#
#
# Indices 1 2 3 4 5 6 
#
# 1 0.010755 -0.003582 -0.004222 0.000000 0.000000 0.000000
# 2 -0.003582 0.023134 -0.002265 0.000000 0.000000 0.000000
# 3 -0.004222 -0.002265 0.012137 0.000000 0.000000 0.000000
# 4 0.000000 0.000000 0.000000 0.058573 0.000000 0.000000
# 5 0.000000 0.000000 0.000000 0.000000 0.028005 0.000000
# 6 0.000000 0.000000 0.000000 0.000000 0.000000 0.027168
#
#
# Mechanical properties :
#
#
# Convention : Reuss Voigt Hill
#
# Bulk Modulus (GPa) = 38.62784 48.72781 43.67782
# Shear Modulus (GPa) = 26.51955 30.11774 28.31864
#
# Velocity S-wave (km/s) = 3.56528 3.79946 3.68423
# Velocity P-wave (km/s) = 5.95509 6.52715 6.24767
#
# Compressibility (1/GPa) = 0.02588806
#
# Stress axis : x y z
#
# Youngs Moduli (GPa) = 92.97665 43.22580 82.39317
#
# Poissons Ratio (x) = 0.15484 0.34787
# Poissons Ratio (y) = 0.33306 0.18662
# Poissons Ratio (z) = 0.39255 0.09791
#
# Static dielectric constant tensor:
#      x y z
#    x 1.843850 0.000000 0.000000 
#    y 0.000000 1.692950 0.000000 
#    z 0.000000 0.000000 2.044240 
# 
# From -- ./inp_files/2740.got.cif
#   From: 2010.05.17/outbox.cif.g08.bks.cpg/sg62_2_cif.got.tgz:2740.got - 2010.06.03 15:25:27.
