data_PCOD9467893
_publ_section_title
;
Structure prediction by ZEFSAII (Michael W. Deem and Ramdas Pophale) SiO2 
 PCOD9467893
Probable space group: P N M A
;
_chemical_formula_sum "Si O2"
_cell_formula_units_Z 56
_cell_length_a 18.000000
_cell_length_b 9.000000
_cell_length_c 21.000000
_cell_angle_alpha 90.000000
_cell_angle_beta 90.000000
_cell_angle_gamma 90.000000
_cell_volume 3402.000000
_symmetry_space_group_name_H-M "P N M A"
_symmetry_group_IT_number 62
_symmetry_cell_setting 'orthorhombic'
loop_
_space_group_symop_operation_xyz
x,y,z
1/2-x,-y,1/2+z
1/2+x,1/2-y,1/2-z
-x,1/2+y,-z
-x,-y,-z
1/2+x,y,1/2-z
1/2-x,1/2+y,1/2+z
x,1/2-y,z
loop_
_atom_site_type_symbol
_atom_site_label
_atom_site_fract_x
_atom_site_fract_y
_atom_site_fract_z
Si Si1 0.061968 0.568705 0.547566
Si Si2 0.228602 0.072193 0.164196
Si Si3 0.974183 0.925660 0.315333
Si Si4 0.856507 0.428025 0.227975
Si Si5 0.774112 0.567701 0.473706
Si Si6 0.645722 0.923680 0.222138
Si Si7 0.265906 0.930941 0.386573
O O1 0.063560 0.750000 0.544102
O O2 0.044190 0.513942 0.619524
O O3 0.142166 0.499387 0.529201
O O4 0.000000 0.500000 0.500000
O O5 0.221852 0.250000 0.153086
O O6 0.298744 0.048579 0.212522
O O7 0.238176 0.991642 0.094592
O O8 0.164706 0.012175 0.212683
O O9 0.955653 0.750000 0.323781
O O10 0.060831 0.937786 0.298702
O O11 0.929429 0.995149 0.256273
O O12 0.863340 0.250000 0.219230
O O13 0.829238 0.502853 0.161493
O O14 0.773410 0.750000 0.474286
O O15 0.740650 0.504637 0.542099
O O16 0.662994 0.750000 0.235192
O O17 0.694379 0.964835 0.159226
O O18 0.271911 0.750000 0.393149
#
# Coordination Sequence:
#
# PCOD9467893 Si02
#       7
#     8   8   8   8   8   8   8
#     4  12  24  37  53  79 115 152 188 226 277 338
#     4  10  20  35  56  80 108 144 187 231 274 327
#     4  11  21  35  56  82 112 149 187 227 279 333
#     4  10  20  35  55  80 110 145 189 233 275 330
#     4  12  23  36  56  81 112 148 186 229 280 334
#     4   9  20  36  55  80 110 144 184 229 275 329
#     4  10  20  36  57  80 111 146 186 234 280 330
#
# _framework density 16.460905
#
# number of rings (size 3 to 8) (size 9 to 14) (size 15 to 20)
#    0.000    1.429    1.429    5.143    0.000    4.000 
#    0.000    0.000    0.000    0.857    0.000    0.000 
#    0.000    0.000    0.000    0.000    0.000    0.000 
#
# Total GULP energy -312196.380562 kJ/mol
# GULP energy per Si atom -5574.935367 kJ/mol
# Density = 1.642344 g / cm^3
# Si number density = 16.460905 Si / 1000 Ang^3
#
#
#
# Elastic Constant Matrix: (Units=GPa)
#
#
# Indices 1 2 3 4 5 6 
#
# 1 38.5530 22.3946 26.6056 0.0000 0.0000 0.0000
# 2 22.3946 136.9553 63.5560 0.0000 0.0000 0.0000
# 3 26.6056 63.5560 159.3178 0.0000 0.0000 0.0000
# 4 0.0000 0.0000 0.0000 44.6110 0.0000 0.0000
# 5 0.0000 0.0000 0.0000 0.0000 32.6397 0.0000
# 6 0.0000 0.0000 0.0000 0.0000 0.0000 24.7281
#
#
#
# Elastic Compliance Matrix: (Units=1/GPa)
#
#
# Indices 1 2 3 4 5 6 
#
# 1 0.030426 -0.003212 -0.003800 0.000000 0.000000 0.000000
# 2 -0.003212 0.009300 -0.003173 0.000000 0.000000 0.000000
# 3 -0.003800 -0.003173 0.008177 0.000000 0.000000 0.000000
# 4 0.000000 0.000000 0.000000 0.022416 0.000000 0.000000
# 5 0.000000 0.000000 0.000000 0.000000 0.030638 0.000000
# 6 0.000000 0.000000 0.000000 0.000000 0.000000 0.040440
#
#
# Mechanical properties :
#
#
# Convention : Reuss Voigt Hill
#
# Bulk Modulus (GPa) = 36.32022 62.21538 49.26780
# Shear Modulus (GPa) = 29.24927 35.21374 32.23151
#
# Velocity S-wave (km/s) = 4.21989 4.63020 4.42980
# Velocity P-wave (km/s) = 6.77169 8.15248 7.49396
#
# Compressibility (1/GPa) = 0.02753287
#
# Stress axis : x y z
#
# Youngs Moduli (GPa) = 32.86628 107.53217 122.28983
#
# Poissons Ratio (x) = 0.34538 0.46468
# Poissons Ratio (y) = 0.10556 0.38808
# Poissons Ratio (z) = 0.12489 0.34125
#
# Static dielectric constant tensor:
#      x y z
#    x 1.584800 0.000000 0.000000 
#    y 0.000000 1.568760 0.000000 
#    z 0.000000 0.000000 1.536440 
# 
# From -- ./inp_files/27572.got.cif
#   From: 2010.05.17/outbox.ucp.g08.bks.cvg/sg62_14_cif.got.tgz:27572.got - 2010.06.11 16:29:25.
