data_PCOD9467065
_publ_section_title
;
Structure prediction by ZEFSAII (Michael W. Deem and Ramdas Pophale) SiO2 
 PCOD9467065
Probable space group: P N M A
;
_chemical_formula_sum "Si O2"
_cell_formula_units_Z 48
_cell_length_a 9.521507
_cell_length_b 17.372338
_cell_length_c 14.053258
_cell_angle_alpha 90.000000
_cell_angle_beta 90.000000
_cell_angle_gamma 90.000000
_cell_volume 2324.561181
_symmetry_space_group_name_H-M "P N M A"
_symmetry_group_IT_number 62
_symmetry_cell_setting 'orthorhombic'
loop_
_space_group_symop_operation_xyz
x,y,z
1/2-x,-y,1/2+z
1/2+x,1/2-y,1/2-z
-x,1/2+y,-z
-x,-y,-z
1/2+x,y,1/2-z
1/2-x,1/2+y,1/2+z
x,1/2-y,z
loop_
_atom_site_type_symbol
_atom_site_label
_atom_site_fract_x
_atom_site_fract_y
_atom_site_fract_z
Si Si1 0.707229 0.572881 0.334780
Si Si2 0.459842 0.338938 0.156447
Si Si3 0.733958 0.073180 0.216363
Si Si4 0.983113 0.839278 0.265095
Si Si5 0.325098 0.162230 0.953491
Si Si6 0.337527 0.504237 0.473725
O O1 0.667834 0.498217 0.273102
O O2 0.574448 0.629405 0.323139
O O3 0.737815 0.542098 0.440373
O O4 0.844413 0.612266 0.288992
O O5 0.448070 0.250000 0.183616
O O6 0.343452 0.386426 0.213763
O O7 0.611652 0.370601 0.182931
O O8 0.427878 0.345081 0.044277
O O9 0.809647 0.038785 0.124480
O O10 0.944960 0.750000 0.252227
O O11 0.086720 0.845483 0.356409
O O12 0.265954 0.250000 0.956079
O O13 0.217309 0.091750 0.963979
O O14 0.500000 0.500000 0.500000
#
# Coordination Sequence:
#
# PCOD9467065 Si02
#       6
#     8   8   8   8   8   8
#     4  12  24  41  68  97 133 173 221 275 329 391
#     4  11  24  44  66  96 131 176 222 271 331 394
#     4  12  24  41  68  97 133 173 221 275 329 391
#     4  11  24  44  66  96 131 176 222 271 331 394
#     4  10  23  43  69  93 129 173 220 273 332 393
#     4  12  25  43  65 103 136 170 224 277 334 397
#
# _framework density 20.649058
#
# number of rings (size 3 to 8) (size 9 to 14) (size 15 to 20)
#    0.000    0.667    3.333    5.000    0.000    1.333 
#    0.000    4.167    0.000    0.000    0.000    0.000 
#    0.000    0.000    0.000    0.000    0.000    0.000 
#
# Total GULP energy -268652.400294 kJ/mol
# GULP energy per Si atom -5596.925006 kJ/mol
# Density = 2.060206 g / cm^3
# Si number density = 20.649058 Si / 1000 Ang^3
#
#
#
# Elastic Constant Matrix: (Units=GPa)
#
#
# Indices 1 2 3 4 5 6 
#
# 1 67.4860 20.1145 -6.4378 0.0000 0.0000 0.0000
# 2 20.1145 98.6420 25.5937 0.0000 0.0000 0.0000
# 3 -6.4378 25.5937 85.4751 0.0000 0.0000 0.0000
# 4 0.0000 0.0000 0.0000 31.2083 0.0000 0.0000
# 5 0.0000 0.0000 0.0000 0.0000 25.8873 0.0000
# 6 0.0000 0.0000 0.0000 0.0000 0.0000 20.8189
#
#
#
# Elastic Compliance Matrix: (Units=1/GPa)
#
#
# Indices 1 2 3 4 5 6 
#
# 1 0.016218 -0.003929 0.002398 0.000000 0.000000 0.000000
# 2 -0.003929 0.011944 -0.003872 0.000000 0.000000 0.000000
# 3 0.002398 -0.003872 0.013039 0.000000 0.000000 0.000000
# 4 0.000000 0.000000 0.000000 0.032043 0.000000 0.000000
# 5 0.000000 0.000000 0.000000 0.000000 0.038629 0.000000
# 6 0.000000 0.000000 0.000000 0.000000 0.000000 0.048033
#
#
# Mechanical properties :
#
#
# Convention : Reuss Voigt Hill
#
# Bulk Modulus (GPa) = 32.90133 36.68265 34.79199
# Shear Modulus (GPa) = 27.64818 29.73842 28.69330
#
# Velocity S-wave (km/s) = 3.66314 3.79909 3.73174
# Velocity P-wave (km/s) = 5.81891 6.08667 5.95429
#
# Compressibility (1/GPa) = 0.03039391
#
# Stress axis : x y z
#
# Youngs Moduli (GPa) = 61.66078 83.72710 76.69085
#
# Poissons Ratio (x) = 0.32898 -0.18390
# Poissons Ratio (y) = 0.24228 0.29696
# Poissons Ratio (z) = -0.14786 0.32421
#
# Static dielectric constant tensor:
#      x y z
#    x 1.706670 0.000000 0.000000 
#    y 0.000000 1.718460 0.000000 
#    z 0.000000 0.000000 1.750670 
# 
# From -- ./inp_files/16934.got.cif
#   From: 2010.05.17/outbox.cif.g08.bks.cpg/sg62_9_cif.got.tgz:16934.got - 2010.06.03 15:25:27.
