data_PCOD9467654
_publ_section_title
;
Structure prediction by ZEFSAII (Michael W. Deem and Ramdas Pophale) SiO2 
 PCOD9467654
Probable space group: P N M A
;
_chemical_formula_sum "Si O2"
_cell_formula_units_Z 48
_cell_length_a 10.447267
_cell_length_b 8.703314
_cell_length_c 30.070088
_cell_angle_alpha 90.000000
_cell_angle_beta 90.000000
_cell_angle_gamma 90.000000
_cell_volume 2734.148165
_symmetry_space_group_name_H-M "P N M A"
_symmetry_group_IT_number 62
_symmetry_cell_setting 'orthorhombic'
loop_
_space_group_symop_operation_xyz
x,y,z
1/2-x,-y,1/2+z
1/2+x,1/2-y,1/2-z
-x,1/2+y,-z
-x,-y,-z
1/2+x,y,1/2-z
1/2-x,1/2+y,1/2+z
x,1/2-y,z
loop_
_atom_site_type_symbol
_atom_site_label
_atom_site_fract_x
_atom_site_fract_y
_atom_site_fract_z
Si Si1 0.989917 0.437329 0.715516
Si Si2 0.122266 0.432286 0.474147
Si Si3 0.782843 0.437523 0.787378
Si Si4 0.523688 0.933611 0.113995
Si Si5 0.719923 0.566389 0.388781
Si Si6 0.872202 0.567633 0.978704
O O1 0.990875 0.250000 0.716362
O O2 0.888394 0.490307 0.752133
O O3 0.952137 0.479742 0.665089
O O4 0.137063 0.486171 0.723418
O O5 0.123322 0.250000 0.479477
O O6 0.104896 0.479246 0.422808
O O7 0.249864 0.501527 0.495223
O O8 0.000000 0.500000 0.500000
O O9 0.782235 0.250000 0.786777
O O10 0.812499 0.481358 0.838336
O O11 0.544858 0.750000 0.109849
O O12 0.372356 0.960720 0.105369
O O13 0.700035 0.750000 0.392648
O O14 0.643995 0.482676 0.427469
O O15 0.872898 0.750000 0.982021
O O16 0.000000 0.500000 0.000000
#
# Coordination Sequence:
#
# PCOD9467654 Si02
#       6
#     8   8   8   8   8   8
#     4   8  14  26  45  71 104 139 178 223 267 315
#     4  12  23  37  59  85 112 145 187 232 275 329
#     4   8  14  26  46  72 103 139 178 222 267 314
#     4   9  17  31  53  80 110 144 184 229 274 322
#     4   9  17  32  54  78 109 147 185 225 272 327
#     4  12  25  41  59  81 112 149 186 230 283 338
#
# _framework density 17.555741999999999
#
# number of rings (size 3 to 8) (size 9 to 14) (size 15 to 20)
#    0.000    2.333    1.667    5.000    0.000    0.000 
#    3.000    0.000    0.000    1.000    0.000    0.000 
#    0.000    0.000    0.000    0.000    0.000    0.000 
#
# Total GULP energy -267812.193500 kJ/mol
# GULP energy per Si atom -5579.420698 kJ/mol
# Density = 1.751578 g / cm^3
# Si number density = 17.555742 Si / 1000 Ang^3
#
#
#
# Elastic Constant Matrix: (Units=GPa)
#
#
# Indices 1 2 3 4 5 6 
#
# 1 130.6906 48.6274 103.7422 0.0000 0.0000 0.0000
# 2 48.6274 63.4979 50.9883 0.0000 0.0000 0.0000
# 3 103.7422 50.9883 162.8425 0.0000 0.0000 0.0000
# 4 0.0000 0.0000 0.0000 24.0881 0.0000 0.0000
# 5 0.0000 0.0000 0.0000 0.0000 35.8879 0.0000
# 6 0.0000 0.0000 0.0000 0.0000 0.0000 17.2093
#
#
#
# Elastic Compliance Matrix: (Units=1/GPa)
#
#
# Indices 1 2 3 4 5 6 
#
# 1 0.016916 -0.005745 -0.008978 0.000000 0.000000 0.000000
# 2 -0.005745 0.022990 -0.003538 0.000000 0.000000 0.000000
# 3 -0.008978 -0.003538 0.012968 0.000000 0.000000 0.000000
# 4 0.000000 0.000000 0.000000 0.041514 0.000000 0.000000
# 5 0.000000 0.000000 0.000000 0.000000 0.027865 0.000000
# 6 0.000000 0.000000 0.000000 0.000000 0.000000 0.058108
#
#
# Mechanical properties :
#
#
# Convention : Reuss Voigt Hill
#
# Bulk Modulus (GPa) = 61.15757 84.86076 73.00916
# Shear Modulus (GPa) = 22.48877 25.68193 24.08535
#
# Velocity S-wave (km/s) = 3.58298 3.82891 3.70798
# Velocity P-wave (km/s) = 7.21310 8.24562 7.74658
#
# Compressibility (1/GPa) = 0.01635121
#
# Stress axis : x y z
#
# Youngs Moduli (GPa) = 59.11621 43.49809 77.11216
#
# Poissons Ratio (x) = 0.24991 0.69228
# Poissons Ratio (y) = 0.33965 0.27283
# Poissons Ratio (z) = 0.53072 0.15390
#
# Static dielectric constant tensor:
#      x y z
#    x 1.573140 0.000000 0.000000 
#    y 0.000000 1.595190 0.000000 
#    z 0.000000 0.000000 1.607140 
# 
# From -- ./inp_files/32346.got.cif
#   From: 2010.05.17/outbox.cif.g08.bks.cpg/sg62_17_cif.got.tgz:32346.got - 2010.06.03 15:25:27.
