data_PCOD9467552
_publ_section_title
;
Structure prediction by ZEFSAII (Michael W. Deem and Ramdas Pophale) SiO2 
 PCOD9467552
Probable space group: P N M A
;
_chemical_formula_sum "Si O2"
_cell_formula_units_Z 32
_cell_length_a 8.949488
_cell_length_b 23.205187
_cell_length_c 5.523522
_cell_angle_alpha 90.000000
_cell_angle_beta 90.000000
_cell_angle_gamma 90.000000
_cell_volume 1147.094905
_symmetry_space_group_name_H-M "P N M A"
_symmetry_group_IT_number 62
_symmetry_cell_setting 'orthorhombic'
loop_
_space_group_symop_operation_xyz
x,y,z
1/2-x,-y,1/2+z
1/2+x,1/2-y,1/2-z
-x,1/2+y,-z
-x,-y,-z
1/2+x,y,1/2-z
1/2-x,1/2+y,1/2+z
x,1/2-y,z
loop_
_atom_site_type_symbol
_atom_site_label
_atom_site_fract_x
_atom_site_fract_y
_atom_site_fract_z
Si Si1 0.442125 0.154688 0.000078
Si Si2 0.174001 0.070087 0.575102
Si Si3 0.921863 0.048917 0.226073
Si Si4 0.965881 0.250000 0.105961
Si Si5 0.742144 0.250000 0.741382
O O1 0.989198 0.193037 0.267685
O O2 0.331677 0.195011 0.858535
O O3 0.591032 0.129906 0.872473
O O4 0.360247 0.096351 0.083629
O O5 0.349672 0.071037 0.522610
O O6 0.093287 0.053032 0.314371
O O7 0.128207 0.016666 0.741018
O O8 0.079059 0.250000 0.877683
O O9 0.791110 0.250000 0.022463
#
# Coordination Sequence:
#
# PCOD9467552 Si02
#       5
#     8   8   8   4   4
#     4   9  21  44  63  86 135 165 203 256 317 368
#     4   9  19  38  59  91 122 164 199 251 309 374
#     4   9  19  38  59  89 122 163 199 248 312 370
#     4  11  24  42  69  91 125 171 209 271 314 370
#     4  11  24  42  65 101 119 165 227 253 316 386
#
# _framework density 27.896557999999999
#
# number of rings (size 3 to 8) (size 9 to 14) (size 15 to 20)
#    1.500    1.000    0.000    1.500    0.000    7.000 
#   13.500    0.000    0.000    0.000    0.000    0.000 
#    0.000    0.000    0.000    0.000    0.000    0.000 
#
# Total GULP energy -178770.906458 kJ/mol
# GULP energy per Si atom -5586.590827 kJ/mol
# Density = 2.783306 g / cm^3
# Si number density = 27.896558 Si / 1000 Ang^3
#
#
#
# Elastic Constant Matrix: (Units=GPa)
#
#
# Indices 1 2 3 4 5 6 
#
# 1 130.8471 43.0310 45.0046 0.0000 0.0000 0.0000
# 2 43.0310 143.1760 47.4010 0.0000 0.0000 0.0000
# 3 45.0046 47.4010 46.5387 0.0000 0.0000 0.0000
# 4 0.0000 0.0000 0.0000 35.6455 0.0000 0.0000
# 5 0.0000 0.0000 0.0000 0.0000 55.4922 0.0000
# 6 0.0000 0.0000 0.0000 0.0000 0.0000 40.7031
#
#
#
# Elastic Compliance Matrix: (Units=1/GPa)
#
#
# Indices 1 2 3 4 5 6 
#
# 1 0.011462 0.000339 -0.011430 0.000000 0.000000 0.000000
# 2 0.000339 0.010548 -0.011071 0.000000 0.000000 0.000000
# 3 -0.011430 -0.011071 0.043817 0.000000 0.000000 0.000000
# 4 0.000000 0.000000 0.000000 0.028054 0.000000 0.000000
# 5 0.000000 0.000000 0.000000 0.000000 0.018021 0.000000
# 6 0.000000 0.000000 0.000000 0.000000 0.000000 0.024568
#
#
# Mechanical properties :
#
#
# Convention : Reuss Voigt Hill
#
# Bulk Modulus (GPa) = 46.50482 65.71501 56.10991
# Shear Modulus (GPa) = 26.60126 38.70983 32.65555
#
# Velocity S-wave (km/s) = 3.09134 3.72912 3.42511
# Velocity P-wave (km/s) = 5.42665 6.49227 5.98323
#
# Compressibility (1/GPa) = 0.02150315
#
# Stress axis : x y z
#
# Youngs Moduli (GPa) = 87.24299 94.80637 22.82230
#
# Poissons Ratio (x) = -0.03215 0.26085
# Poissons Ratio (y) = -0.02958 0.25267
# Poissons Ratio (z) = 0.99717 1.04962
#
# Static dielectric constant tensor:
#      x y z
#    x 2.156070 0.000000 0.000000 
#    y 0.000000 2.100330 0.000000 
#    z 0.000000 0.000000 2.187170 
# 
# From -- ./inp_files/5119.got.cif
#   From: 2010.05.17/outbox.cif.g08.bks.cpg/sg62_3_cif.got.tgz:5119.got - 2010.06.03 15:25:27.
