data_PCOD9467814
_publ_section_title
;
Structure prediction by ZEFSAII (Michael W. Deem and Ramdas Pophale) SiO2 
 PCOD9467814
Probable space group: P N M A
;
_chemical_formula_sum "Si O2"
_cell_formula_units_Z 64
_cell_length_a 24.000000
_cell_length_b 15.000000
_cell_length_c 9.000000
_cell_angle_alpha 90.000000
_cell_angle_beta 90.000000
_cell_angle_gamma 90.000000
_cell_volume 3240.000000
_symmetry_space_group_name_H-M "P N M A"
_symmetry_group_IT_number 62
_symmetry_cell_setting 'orthorhombic'
loop_
_space_group_symop_operation_xyz
x,y,z
1/2-x,-y,1/2+z
1/2+x,1/2-y,1/2-z
-x,1/2+y,-z
-x,-y,-z
1/2+x,y,1/2-z
1/2-x,1/2+y,1/2+z
x,1/2-y,z
loop_
_atom_site_type_symbol
_atom_site_label
_atom_site_fract_x
_atom_site_fract_y
_atom_site_fract_z
Si Si1 0.463522 0.471661 0.641027
Si Si2 0.695037 0.954111 0.753832
Si Si3 0.844053 0.044997 0.591867
Si Si4 0.901159 0.353652 0.076514
Si Si5 0.753757 0.643185 0.263706
Si Si6 0.485848 0.650017 0.776504
Si Si7 0.294749 0.854965 0.895178
Si Si8 0.536481 0.856171 0.102103
O O1 0.500000 0.500000 0.500000
O O2 0.416046 0.408342 0.572245
O O3 0.450628 0.566315 0.717677
O O4 0.493426 0.408293 0.762490
O O5 0.681465 0.944671 0.927186
O O6 0.645293 0.909817 0.661445
O O7 0.748631 0.893438 0.717339
O O8 0.705703 0.059325 0.713927
O O9 0.805039 0.101998 0.705938
O O10 0.905045 0.090149 0.590289
O O11 0.839950 0.936458 0.612060
O O12 0.885261 0.250000 0.048757
O O13 0.956545 0.351135 0.180610
O O14 0.759951 0.750000 0.218515
O O15 0.765114 0.643553 0.441431
O O16 0.461737 0.750000 0.759559
O O17 0.503168 0.636382 0.947894
O O18 0.310701 0.750000 0.869137
O O19 0.544465 0.750000 0.130842
#
# Coordination Sequence:
#
# PCOD9467814 Si02
#       8
#     8   8   8   8   8   8   8   8
#     4  10  22  38  56  80 113 143 173 224 288 345
#     4  10  19  33  54  80 110 150 191 232 278 325
#     4  10  20  34  54  83 114 145 189 237 277 320
#     4  10  19  33  55  83 110 140 183 232 276 328
#     4   9  19  34  51  75 112 152 189 230 276 328
#     4   9  19  37  59  81 107 138 176 225 285 339
#     4   9  19  34  53  76 113 155 188 224 276 333
#     4  11  21  35  60  88 109 140 185 235 279 331
#
# _framework density 19.753086
#
# number of rings (size 3 to 8) (size 9 to 14) (size 15 to 20)
#    0.000    2.250    1.250    1.500    1.750    2.000 
#    0.000    1.250    0.000    3.000    0.000    0.000 
#    0.000    0.000    0.000    0.000    0.000    0.000 
#
# Total GULP energy -356604.660184 kJ/mol
# GULP energy per Si atom -5571.947815 kJ/mol
# Density = 1.970813 g / cm^3
# Si number density = 19.753086 Si / 1000 Ang^3
#
#
#
# Elastic Constant Matrix: (Units=GPa)
#
#
# Indices 1 2 3 4 5 6 
#
# 1 27.8579 31.3706 25.7266 0.0000 0.0000 0.0000
# 2 31.3706 219.4932 64.2462 0.0000 0.0000 0.0000
# 3 25.7266 64.2462 88.7303 0.0000 0.0000 0.0000
# 4 0.0000 0.0000 0.0000 42.1388 0.0000 0.0000
# 5 0.0000 0.0000 0.0000 0.0000 27.3345 0.0000
# 6 0.0000 0.0000 0.0000 0.0000 0.0000 28.7525
#
#
#
# Elastic Compliance Matrix: (Units=1/GPa)
#
#
# Indices 1 2 3 4 5 6 
#
# 1 0.051388 -0.003786 -0.012158 0.000000 0.000000 0.000000
# 2 -0.003786 0.006060 -0.003290 0.000000 0.000000 0.000000
# 3 -0.012158 -0.003290 0.017178 0.000000 0.000000 0.000000
# 4 0.000000 0.000000 0.000000 0.023731 0.000000 0.000000
# 5 0.000000 0.000000 0.000000 0.000000 0.036584 0.000000
# 6 0.000000 0.000000 0.000000 0.000000 0.000000 0.034780
#
#
# Mechanical properties :
#
#
# Convention : Reuss Voigt Hill
#
# Bulk Modulus (GPa) = 27.65726 64.30756 45.98241
# Shear Modulus (GPa) = 22.70242 33.96101 28.33171
#
# Velocity S-wave (km/s) = 3.39383 4.15091 3.79131
# Velocity P-wave (km/s) = 5.42119 7.45653 6.51878
#
# Compressibility (1/GPa) = 0.03615688
#
# Stress axis : x y z
#
# Youngs Moduli (GPa) = 19.45991 165.01444 58.21515
#
# Poissons Ratio (x) = 0.62469 0.70780
# Poissons Ratio (y) = 0.07367 0.19154
# Poissons Ratio (z) = 0.23660 0.54294
#
# Static dielectric constant tensor:
#      x y z
#    x 1.726840 0.000000 0.000000 
#    y 0.000000 1.705580 0.000000 
#    z 0.000000 0.000000 1.727660 
# 
# From -- ./inp_files/9523.got.cif
#   From: 2010.05.17/outbox.ucp.g08.bks.cvg/sg62_5_cif.got.tgz:9523.got - 2010.06.11 16:29:25.
