data_PCOD9467105
_publ_section_title
;
Structure prediction by ZEFSAII (Michael W. Deem and Ramdas Pophale) SiO2 
 PCOD9467105
Probable space group: P N M A
;
_chemical_formula_sum "Si O2"
_cell_formula_units_Z 56
_cell_length_a 19.126124
_cell_length_b 15.449596
_cell_length_c 8.281487
_cell_angle_alpha 90.000000
_cell_angle_beta 90.000000
_cell_angle_gamma 90.000000
_cell_volume 2447.103955
_symmetry_space_group_name_H-M "P N M A"
_symmetry_group_IT_number 62
_symmetry_cell_setting 'orthorhombic'
loop_
_space_group_symop_operation_xyz
x,y,z
1/2-x,-y,1/2+z
1/2+x,1/2-y,1/2-z
-x,1/2+y,-z
-x,-y,-z
1/2+x,y,1/2-z
1/2-x,1/2+y,1/2+z
x,1/2-y,z
loop_
_atom_site_type_symbol
_atom_site_label
_atom_site_fract_x
_atom_site_fract_y
_atom_site_fract_z
Si Si1 0.198996 0.156434 0.191628
Si Si2 0.861891 0.153002 0.839241
Si Si3 0.702670 0.382025 0.937365
Si Si4 0.382506 0.515395 0.487900
Si Si5 0.056483 0.848461 0.486448
Si Si6 0.334921 0.438191 0.166196
Si Si7 0.435321 0.848841 0.255777
O O1 0.176432 0.250000 0.127300
O O2 0.191817 0.154679 0.384477
O O3 0.280801 0.139879 0.157548
O O4 0.157456 0.077763 0.111911
O O5 0.878987 0.250000 0.900204
O O6 0.883801 0.150651 0.652411
O O7 0.779606 0.138000 0.869725
O O8 0.902184 0.073561 0.923344
O O9 0.690074 0.484883 0.948220
O O10 0.643041 0.348672 0.816090
O O11 0.333175 0.479288 0.344091
O O12 0.435702 0.579239 0.395484
O O13 0.047215 0.750000 0.544241
O O14 0.086844 0.908909 0.624975
O O15 0.986464 0.874107 0.391847
O O16 0.454281 0.750000 0.303433
#
# Coordination Sequence:
#
# PCOD9467105 Si02
#       7
#     8   8   8   8   8   8   8
#     4  12  22  37  62  98 130 163 208 267 323 387
#     4  11  22  40  64  96 130 170 220 280 335 390
#     4  11  23  39  66  94 131 170 221 273 331 393
#     4  11  24  38  64  93 130 169 213 268 326 394
#     4  10  24  43  67  93 130 177 226 274 330 400
#     4  11  22  39  63  92 128 165 216 268 322 386
#     4  10  23  45  65  94 133 178 225 271 332 400
#
# _framework density 22.884191999999999
#
# number of rings (size 3 to 8) (size 9 to 14) (size 15 to 20)
#    0.000    1.143    2.857    3.000    4.000    3.429 
#    0.000    1.429    0.000    3.429    0.000    0.000 
#    0.000    0.000    0.000    0.000    0.000    0.000 
#
# Total GULP energy -312974.700561 kJ/mol
# GULP energy per Si atom -5588.833939 kJ/mol
# Density = 2.283211 g / cm^3
# Si number density = 22.884192 Si / 1000 Ang^3
#
#
#
# Elastic Constant Matrix: (Units=GPa)
#
#
# Indices 1 2 3 4 5 6 
#
# 1 85.1460 5.5333 9.0411 0.0000 0.0000 0.0000
# 2 5.5333 134.7455 13.3701 0.0000 0.0000 0.0000
# 3 9.0411 13.3701 42.2770 0.0000 0.0000 0.0000
# 4 0.0000 0.0000 0.0000 17.2247 0.0000 0.0000
# 5 0.0000 0.0000 0.0000 0.0000 28.9619 0.0000
# 6 0.0000 0.0000 0.0000 0.0000 0.0000 7.9876
#
#
#
# Elastic Compliance Matrix: (Units=1/GPa)
#
#
# Indices 1 2 3 4 5 6 
#
# 1 0.012025 -0.000246 -0.002494 0.000000 0.000000 0.000000
# 2 -0.000246 0.007667 -0.002372 0.000000 0.000000 0.000000
# 3 -0.002494 -0.002372 0.024937 0.000000 0.000000 0.000000
# 4 0.000000 0.000000 0.000000 0.058056 0.000000 0.000000
# 5 0.000000 0.000000 0.000000 0.000000 0.034528 0.000000
# 6 0.000000 0.000000 0.000000 0.000000 0.000000 0.125194
#
#
# Mechanical properties :
#
#
# Convention : Reuss Voigt Hill
#
# Bulk Modulus (GPa) = 29.06556 35.33974 32.20265
# Shear Modulus (GPa) = 17.59945 26.44977 22.02461
#
# Velocity S-wave (km/s) = 2.77621 3.40341 3.10568
# Velocity P-wave (km/s) = 4.79637 5.56063 5.19258
#
# Compressibility (1/GPa) = 0.03440499
#
# Stress axis : x y z
#
# Youngs Moduli (GPa) = 83.15774 130.43128 40.10107
#
# Poissons Ratio (x) = 0.03213 0.10000
# Poissons Ratio (y) = 0.02049 0.09512
# Poissons Ratio (z) = 0.20738 0.30938
#
# Static dielectric constant tensor:
#      x y z
#    x 1.851210 0.000000 0.000000 
#    y 0.000000 1.896140 0.000000 
#    z 0.000000 0.000000 1.854780 
# 
# From -- ./inp_files/8710.got.cif
#   From: 2010.05.17/outbox.cif.g08.bks.cpg/sg62_5_cif.got.tgz:8710.got - 2010.06.03 15:25:27.
