data_PCOD9467603
_publ_section_title
;
Structure prediction by ZEFSAII (Michael W. Deem and Ramdas Pophale) SiO2 
 PCOD9467603
Probable space group: P N M A
;
_chemical_formula_sum "Si O2"
_cell_formula_units_Z 40
_cell_length_a 12.206104
_cell_length_b 15.752271
_cell_length_c 8.748161
_cell_angle_alpha 90.000000
_cell_angle_beta 90.000000
_cell_angle_gamma 90.000000
_cell_volume 1682.042666
_symmetry_space_group_name_H-M "P N M A"
_symmetry_group_IT_number 62
_symmetry_cell_setting 'orthorhombic'
loop_
_space_group_symop_operation_xyz
x,y,z
1/2-x,-y,1/2+z
1/2+x,1/2-y,1/2-z
-x,1/2+y,-z
-x,-y,-z
1/2+x,y,1/2-z
1/2-x,1/2+y,1/2+z
x,1/2-y,z
loop_
_atom_site_type_symbol
_atom_site_label
_atom_site_fract_x
_atom_site_fract_y
_atom_site_fract_z
Si Si1 0.463959 0.925250 0.885458
Si Si2 0.388119 0.887631 0.421512
Si Si3 0.302481 0.846508 0.109572
Si Si4 0.686261 0.250000 0.350699
Si Si5 0.609890 0.961356 0.399397
Si Si6 0.562335 0.750000 0.803499
O O1 0.547237 0.844859 0.877590
O O2 0.436782 0.973561 0.727341
O O3 0.355276 0.882897 0.956684
O O4 0.500000 0.000000 0.000000
O O5 0.386041 0.854268 0.249821
O O6 0.319513 0.829654 0.534311
O O7 0.517043 0.896773 0.456283
O O8 0.350080 0.983445 0.456426
O O9 0.269208 0.750000 0.089428
O O10 0.205548 0.905653 0.165934
O O11 0.804988 0.250000 0.263816
O O12 0.560569 0.250000 0.280985
#
# Coordination Sequence:
#
# PCOD9467603 Si02
#       6
#     8   8   8   4   8   4
#     4  12  26  48  74 110 154 207 263 326 403 479
#     4  11  25  47  71 110 141 201 252 318 380 472
#     4  12  26  43  74 112 151 199 261 330 392 468
#     4  12  28  49  80 110 162 198 268 322 405 465
#     4  11  26  46  74 104 153 202 259 320 399 469
#     4  12  30  51  78 120 156 214 262 338 391 497
#
# _framework density 23.780611
#
# number of rings (size 3 to 8) (size 9 to 14) (size 15 to 20)
#    0.000    0.400    6.000    1.200    7.000    1.600 
#    0.000    0.000    0.000    0.000    0.000    0.000 
#    0.000    0.000    0.000    0.000    0.000    0.000 
#
# Total GULP energy -222956.851976 kJ/mol
# GULP energy per Si atom -5573.921299 kJ/mol
# Density = 2.372648 g / cm^3
# Si number density = 23.780611 Si / 1000 Ang^3
#
#
#
# Elastic Constant Matrix: (Units=GPa)
#
#
# Indices 1 2 3 4 5 6 
#
# 1 97.5744 50.2236 35.5135 0.0000 0.0000 0.0000
# 2 50.2236 121.1730 14.0023 0.0000 0.0000 0.0000
# 3 35.5135 14.0023 78.2359 0.0000 0.0000 0.0000
# 4 0.0000 0.0000 0.0000 27.5008 0.0000 0.0000
# 5 0.0000 0.0000 0.0000 0.0000 21.4191 0.0000
# 6 0.0000 0.0000 0.0000 0.0000 0.0000 31.7565
#
#
#
# Elastic Compliance Matrix: (Units=1/GPa)
#
#
# Indices 1 2 3 4 5 6 
#
# 1 0.015329 -0.005667 -0.005944 0.000000 0.000000 0.000000
# 2 -0.005667 0.010522 0.000689 0.000000 0.000000 0.000000
# 3 -0.005944 0.000689 0.015357 0.000000 0.000000 0.000000
# 4 0.000000 0.000000 0.000000 0.036363 0.000000 0.000000
# 5 0.000000 0.000000 0.000000 0.000000 0.046687 0.000000
# 6 0.000000 0.000000 0.000000 0.000000 0.000000 0.031490
#
#
# Mechanical properties :
#
#
# Convention : Reuss Voigt Hill
#
# Bulk Modulus (GPa) = 51.64169 55.16246 53.40207
# Shear Modulus (GPa) = 27.16742 29.28488 28.22615
#
# Velocity S-wave (km/s) = 3.38364 3.51302 3.44894
# Velocity P-wave (km/s) = 6.08509 6.30094 6.19396
#
# Compressibility (1/GPa) = 0.01936420
#
# Stress axis : x y z
#
# Youngs Moduli (GPa) = 65.23733 95.04177 65.11831
#
# Poissons Ratio (x) = 0.53856 0.38706
# Poissons Ratio (y) = 0.36967 -0.04487
# Poissons Ratio (z) = 0.38777 -0.06549
#
# Static dielectric constant tensor:
#      x y z
#    x 1.958670 0.000000 0.000000 
#    y 0.000000 1.947370 0.000000 
#    z 0.000000 0.000000 1.993240 
# 
# From -- ./inp_files/5056.got.cif
#   From: 2010.05.17/outbox.cif.g08.bks.cpg/sg62_3_cif.got.tgz:5056.got - 2010.06.03 15:25:27.
