data_PCOD9467379
_publ_section_title
;
Structure prediction by ZEFSAII (Michael W. Deem and Ramdas Pophale) SiO2 
 PCOD9467379
Probable space group: P N M A
;
_chemical_formula_sum "Si O2"
_cell_formula_units_Z 32
_cell_length_a 14.816760
_cell_length_b 11.064860
_cell_length_c 7.253515
_cell_angle_alpha 90.000000
_cell_angle_beta 90.000000
_cell_angle_gamma 90.000000
_cell_volume 1189.180237
_symmetry_space_group_name_H-M "P N M A"
_symmetry_group_IT_number 62
_symmetry_cell_setting 'orthorhombic'
loop_
_space_group_symop_operation_xyz
x,y,z
1/2-x,-y,1/2+z
1/2+x,1/2-y,1/2-z
-x,1/2+y,-z
-x,-y,-z
1/2+x,y,1/2-z
1/2-x,1/2+y,1/2+z
x,1/2-y,z
loop_
_atom_site_type_symbol
_atom_site_label
_atom_site_fract_x
_atom_site_fract_y
_atom_site_fract_z
Si Si1 0.994443 0.750000 0.343161
Si Si2 0.767473 0.509170 0.878459
Si Si3 0.960293 0.250000 0.231263
Si Si4 0.248794 0.250000 0.218920
Si Si5 0.704498 0.750000 0.210935
Si Si6 0.907910 0.999050 0.211844
O O1 0.951229 0.871988 0.263484
O O2 0.998350 0.750000 0.564468
O O3 0.097817 0.750000 0.286877
O O4 0.768044 0.372714 0.808885
O O5 0.658455 0.534438 0.886419
O O6 0.796412 0.621045 0.742742
O O7 0.837793 0.513642 0.044159
O O8 0.850329 0.250000 0.204798
O O9 0.975668 0.389273 0.167126
O O10 0.255808 0.250000 0.995288
#
# Coordination Sequence:
#
# PCOD9467379 Si02
#       6
#     4   8   4   4   4   8
#     4  11  24  42  64  91 139 175 202 266 346 379
#     4  11  21  40  69  95 125 171 225 268 322 377
#     4   9  21  38  60  91 129 163 220 258 313 395
#     4   9  19  38  59  95 125 164 213 272 317 364
#     4  11  22  40  63  95 135 170 209 276 322 390
#     4  11  22  40  68  96 125 172 218 270 321 386
#
# _framework density 26.909293999999999
#
# number of rings (size 3 to 8) (size 9 to 14) (size 15 to 20)
#    0.000    1.500    2.500    3.000    0.000    1.000 
#    0.000    1.250    0.000    0.000    0.000    0.000 
#    0.000    0.000    0.000    0.000    0.000    0.000 
#
# Total GULP energy -178701.842581 kJ/mol
# GULP energy per Si atom -5584.432581 kJ/mol
# Density = 2.684805 g / cm^3
# Si number density = 26.909294 Si / 1000 Ang^3
#
#
#
# Elastic Constant Matrix: (Units=GPa)
#
#
# Indices 1 2 3 4 5 6 
#
# 1 72.3561 26.9569 14.3449 0.0000 0.0000 0.0000
# 2 26.9569 257.1243 6.8691 0.0000 0.0000 0.0000
# 3 14.3449 6.8691 55.9426 0.0000 0.0000 0.0000
# 4 0.0000 0.0000 0.0000 29.2930 0.0000 0.0000
# 5 0.0000 0.0000 0.0000 0.0000 44.0902 0.0000
# 6 0.0000 0.0000 0.0000 0.0000 0.0000 14.6488
#
#
#
# Elastic Compliance Matrix: (Units=1/GPa)
#
#
# Indices 1 2 3 4 5 6 
#
# 1 0.015106 -0.001485 -0.003691 0.000000 0.000000 0.000000
# 2 -0.001485 0.004048 -0.000116 0.000000 0.000000 0.000000
# 3 -0.003691 -0.000116 0.018836 0.000000 0.000000 0.000000
# 4 0.000000 0.000000 0.000000 0.034138 0.000000 0.000000
# 5 0.000000 0.000000 0.000000 0.000000 0.022681 0.000000
# 6 0.000000 0.000000 0.000000 0.000000 0.000000 0.068265
#
#
# Mechanical properties :
#
#
# Convention : Reuss Voigt Hill
#
# Bulk Modulus (GPa) = 36.48964 53.52942 45.00953
# Shear Modulus (GPa) = 27.35338 40.08989 33.72163
#
# Velocity S-wave (km/s) = 3.19172 3.86400 3.54384
# Velocity P-wave (km/s) = 5.21272 6.31214 5.78859
#
# Compressibility (1/GPa) = 0.02740504
#
# Stress axis : x y z
#
# Youngs Moduli (GPa) = 66.20079 247.03750 53.08930
#
# Poissons Ratio (x) = 0.36687 0.19595
# Poissons Ratio (y) = 0.09831 0.00617
# Poissons Ratio (z) = 0.24435 0.02872
#
# Static dielectric constant tensor:
#      x y z
#    x 2.107960 0.000000 0.000000 
#    y 0.000000 2.311190 0.000000 
#    z 0.000000 0.000000 2.259690 
# 
# From -- ./inp_files/5816.got.cif
#   From: 2010.05.17/outbox.cif.g08.bks.cpg/sg62_3_cif.got.tgz:5816.got - 2010.06.03 15:25:27.
