data_PCOD9467999
_publ_section_title
;
Structure prediction by ZEFSAII (Michael W. Deem and Ramdas Pophale) SiO2 
 PCOD9467999
Probable space group: P N M A
;
_chemical_formula_sum "Si O2"
_cell_formula_units_Z 64
_cell_length_a 24.000000
_cell_length_b 9.000000
_cell_length_c 15.000000
_cell_angle_alpha 90.000000
_cell_angle_beta 90.000000
_cell_angle_gamma 90.000000
_cell_volume 3240.000000
_symmetry_space_group_name_H-M "P N M A"
_symmetry_group_IT_number 62
_symmetry_cell_setting 'orthorhombic'
loop_
_space_group_symop_operation_xyz
x,y,z
1/2-x,-y,1/2+z
1/2+x,1/2-y,1/2-z
-x,1/2+y,-z
-x,-y,-z
1/2+x,y,1/2-z
1/2-x,1/2+y,1/2+z
x,1/2-y,z
loop_
_atom_site_type_symbol
_atom_site_label
_atom_site_fract_x
_atom_site_fract_y
_atom_site_fract_z
Si Si1 0.105938 0.429944 0.400839
Si Si2 0.870066 0.572715 0.405719
Si Si3 0.689448 0.428383 0.246792
Si Si4 0.812827 0.428764 0.246705
Si Si5 0.507533 0.573809 0.339758
Si Si6 0.513995 0.928046 0.849410
Si Si7 0.133715 0.923881 0.095270
Si Si8 0.099138 0.927888 0.902477
O O1 0.103659 0.250000 0.394498
O O2 0.137310 0.467033 0.491231
O O3 0.140573 0.487398 0.317098
O O4 0.041588 0.476934 0.402037
O O5 0.869205 0.750000 0.395817
O O6 0.825580 0.498330 0.341880
O O7 0.930710 0.510871 0.379399
O O8 0.687714 0.250000 0.243513
O O9 0.751113 0.474308 0.216868
O O10 0.675012 0.481416 0.345315
O O11 0.814218 0.250000 0.251770
O O12 0.863052 0.472380 0.181379
O O13 0.501370 0.750000 0.321512
O O14 0.498795 0.475878 0.251602
O O15 0.569467 0.549011 0.376359
O O16 0.458108 0.518452 0.403705
O O17 0.521631 0.750000 0.855727
O O18 0.145333 0.750000 0.110600
O O19 0.135032 0.953867 0.990669
O O20 0.087103 0.750000 0.898161
#
# Coordination Sequence:
#
# PCOD9467999 Si02
#       8
#     8   8   8   8   8   8   8   8
#     4   9  20  37  59  86 113 150 191 231 283 342
#     4  11  22  37  59  87 118 148 187 236 288 341
#     4  10  21  40  61  81 110 151 197 239 282 337
#     4  10  22  39  59  82 111 151 197 238 281 336
#     4  11  21  34  56  88 120 147 186 236 285 337
#     4  11  20  35  59  85 116 151 189 227 282 349
#     4  10  22  38  58  88 118 148 188 236 289 341
#     4  10  21  38  59  83 116 156 191 227 284 347
#
# _framework density 19.753086
#
# number of rings (size 3 to 8) (size 9 to 14) (size 15 to 20)
#    0.000    1.750    2.500    1.875    0.000    2.500 
#    0.000    5.625    0.000    0.000    0.000    0.000 
#    0.000    0.000    0.000    0.000    0.000    0.000 
#
# Total GULP energy -357202.049855 kJ/mol
# GULP energy per Si atom -5581.282029 kJ/mol
# Density = 1.970813 g / cm^3
# Si number density = 19.753086 Si / 1000 Ang^3
#
#
#
# Elastic Constant Matrix: (Units=GPa)
#
#
# Indices 1 2 3 4 5 6 
#
# 1 61.4690 11.8385 -0.0680 0.0000 0.0000 0.0000
# 2 11.8385 -0.9924 -5.6601 0.0000 0.0000 0.0000
# 3 -0.0680 -5.6601 43.9692 0.0000 0.0000 0.0000
# 4 0.0000 0.0000 0.0000 22.5660 0.0000 0.0000
# 5 0.0000 0.0000 0.0000 0.0000 9.1800 0.0000
# 6 0.0000 0.0000 0.0000 0.0000 0.0000 19.4138
#
#
#
# Elastic Compliance Matrix: (Units=1/GPa)
#
#
# Indices 1 2 3 4 5 6 
#
# 1 0.007004 0.048140 0.006208 0.000000 0.000000 0.000000
# 2 0.048140 -0.250143 -0.032126 0.000000 0.000000 0.000000
# 3 0.006208 -0.032126 0.018617 0.000000 0.000000 0.000000
# 4 0.000000 0.000000 0.000000 0.044314 0.000000 0.000000
# 5 0.000000 0.000000 0.000000 0.000000 0.108933 0.000000
# 6 0.000000 0.000000 0.000000 0.000000 0.000000 0.051510
#
#
# Mechanical properties :
#
#
# Convention : Reuss Voigt Hill
#
# Bulk Modulus (GPa) = -5.55315 12.96295 3.70490
# Shear Modulus (GPa) = -40.24621 16.78764 -11.72928
#
# Velocity S-wave (km/s) = -4.51873 2.91842 -2.43943
# Velocity P-wave (km/s) = 5.48111 4.23474 2.46065
#
# Compressibility (1/GPa) = -0.18007800
#
# Stress axis : x y z
#
# Youngs Moduli (GPa) = 142.78113 -3.99771 53.71364
#
# Poissons Ratio (x) = 0.19245 -0.33345
# Poissons Ratio (y) = -6.87353 1.72561
# Poissons Ratio (z) = -0.88637 -0.12843
#
# Static dielectric constant tensor:
#      x y z
#    x 1.697640 0.000000 0.000000 
#    y 0.000000 1.657790 0.000000 
#    z 0.000000 0.000000 1.719390 
# 
# From -- ./inp_files/20845.got.cif
#   From: 2010.05.17/outbox.ucp.g08.bks.cvg/sg62_11_cif.got.tgz:20845.got - 2010.06.11 16:29:25.
