data_PCOD9467213
_publ_section_title
;
Structure prediction by ZEFSAII (Michael W. Deem and Ramdas Pophale) SiO2 
 PCOD9467213
Probable space group: P N M A
;
_chemical_formula_sum "Si O2"
_cell_formula_units_Z 40
_cell_length_a 17.145040
_cell_length_b 16.529882
_cell_length_c 6.369726
_cell_angle_alpha 90.000000
_cell_angle_beta 90.000000
_cell_angle_gamma 90.000000
_cell_volume 1805.215306
_symmetry_space_group_name_H-M "P N M A"
_symmetry_group_IT_number 62
_symmetry_cell_setting 'orthorhombic'
loop_
_space_group_symop_operation_xyz
x,y,z
1/2-x,-y,1/2+z
1/2+x,1/2-y,1/2-z
-x,1/2+y,-z
-x,-y,-z
1/2+x,y,1/2-z
1/2-x,1/2+y,1/2+z
x,1/2-y,z
loop_
_atom_site_type_symbol
_atom_site_label
_atom_site_fract_x
_atom_site_fract_y
_atom_site_fract_z
Si Si1 0.238025 0.250000 0.114389
Si Si2 0.631270 0.496272 0.959965
Si Si3 0.244394 0.608851 0.281005
Si Si4 0.432743 0.750000 0.602572
Si Si5 0.330679 0.250000 0.515899
Si Si6 0.505337 0.886172 0.865231
Si Si7 0.986389 0.250000 0.714727
O O1 0.151623 0.250000 0.214183
O O2 0.311765 0.250000 0.269255
O O3 0.238827 0.329962 0.972116
O O4 0.684961 0.542588 0.127708
O O5 0.565543 0.445356 0.079983
O O6 0.682371 0.438261 0.814255
O O7 0.583262 0.562919 0.827513
O O8 0.209435 0.668658 0.105473
O O9 0.478411 0.828900 0.678631
O O10 0.434055 0.750000 0.350406
O O11 0.415847 0.250000 0.619401
O O12 0.518801 0.827697 0.065326
#
# Coordination Sequence:
#
# PCOD9467213 Si02
#       7
#     4   8   8   4   4   8   4
#     4  11  26  46  67 101 135 185 235 279 339 421
#     4  11  24  45  67  98 141 179 220 298 343 401
#     4  11  26  43  71  99 141 180 234 280 351 408
#     4  11  24  40  73  93 129 183 223 276 336 422
#     4  11  24  45  70  97 134 187 226 288 333 416
#     4  10  24  46  65  99 141 172 225 286 347 399
#     4  11  22  43  72  97 130 181 232 269 340 429
#
# _framework density 22.158021999999999
#
# number of rings (size 3 to 8) (size 9 to 14) (size 15 to 20)
#    0.000    1.200    2.000    2.400    8.400    3.200 
#    0.000    3.000    0.000    0.000    0.000    0.000 
#    0.000    0.000    0.000    0.000    0.000    0.000 
#
# Total GULP energy -223848.997552 kJ/mol
# GULP energy per Si atom -5596.224939 kJ/mol
# Density = 2.210759 g / cm^3
# Si number density = 22.158022 Si / 1000 Ang^3
#
#
#
# Elastic Constant Matrix: (Units=GPa)
#
#
# Indices 1 2 3 4 5 6 
#
# 1 93.2850 45.6561 24.1944 0.0000 0.0000 0.0000
# 2 45.6561 123.5027 39.1408 0.0000 0.0000 0.0000
# 3 24.1944 39.1408 66.1166 0.0000 0.0000 0.0000
# 4 0.0000 0.0000 0.0000 -6.2028 0.0000 0.0000
# 5 0.0000 0.0000 0.0000 0.0000 10.4285 0.0000
# 6 0.0000 0.0000 0.0000 0.0000 0.0000 42.3635
#
#
#
# Elastic Compliance Matrix: (Units=1/GPa)
#
#
# Indices 1 2 3 4 5 6 
#
# 1 0.013397 -0.004184 -0.002426 0.000000 0.000000 0.000000
# 2 -0.004184 0.011273 -0.005143 0.000000 0.000000 0.000000
# 3 -0.002426 -0.005143 0.019057 0.000000 0.000000 0.000000
# 4 0.000000 0.000000 0.000000 -0.161219 0.000000 0.000000
# 5 0.000000 0.000000 0.000000 0.000000 0.095891 0.000000
# 6 0.000000 0.000000 0.000000 0.000000 0.000000 0.023605
#
#
# Mechanical properties :
#
#
# Convention : Reuss Voigt Hill
#
# Bulk Modulus (GPa) = 49.44933 55.65410 52.55171
# Shear Modulus (GPa) = 155.03917 20.91205 87.97561
#
# Velocity S-wave (km/s) = 8.37387 3.07541 6.30793
# Velocity P-wave (km/s) = 10.76386 6.14673 8.76479
#
# Compressibility (1/GPa) = 0.02022272
#
# Stress axis : x y z
#
# Youngs Moduli (GPa) = 74.64617 88.70360 52.47427
#
# Poissons Ratio (x) = 0.37111 0.12728
# Poissons Ratio (y) = 0.31230 0.26987
# Poissons Ratio (z) = 0.18106 0.45619
#
# Static dielectric constant tensor:
#      x y z
#    x 1.833020 0.000000 0.000000 
#    y 0.000000 1.787050 0.000000 
#    z 0.000000 0.000000 1.811970 
# 
# From -- ./inp_files/1604.got.cif
#   From: 2010.05.17/outbox.cif.g08.bks.cpg/sg62_1_cif.got.tgz:1604.got - 2010.06.03 15:25:27.
