data_PCOD9467154
_publ_section_title
;
Structure prediction by ZEFSAII (Michael W. Deem and Ramdas Pophale) SiO2 
 PCOD9467154
Probable space group: P N M A
;
_chemical_formula_sum "Si O2"
_cell_formula_units_Z 36
_cell_length_a 9.125982
_cell_length_b 9.106954
_cell_length_c 19.181344
_cell_angle_alpha 90.000000
_cell_angle_beta 90.000000
_cell_angle_gamma 90.000000
_cell_volume 1594.159549
_symmetry_space_group_name_H-M "P N M A"
_symmetry_group_IT_number 62
_symmetry_cell_setting 'orthorhombic'
loop_
_space_group_symop_operation_xyz
x,y,z
1/2-x,-y,1/2+z
1/2+x,1/2-y,1/2-z
-x,1/2+y,-z
-x,-y,-z
1/2+x,y,1/2-z
1/2-x,1/2+y,1/2+z
x,1/2-y,z
loop_
_atom_site_type_symbol
_atom_site_label
_atom_site_fract_x
_atom_site_fract_y
_atom_site_fract_z
Si Si1 0.870736 0.500460 0.574016
Si Si2 0.635671 0.415850 0.466124
Si Si3 0.669040 0.576834 0.704383
Si Si4 0.536992 0.250000 0.962880
Si Si5 0.355394 0.073256 0.675008
O O1 0.758934 0.408728 0.524958
O O2 0.779340 0.560965 0.638842
O O3 0.927769 0.626119 0.523368
O O4 0.992629 0.381358 0.592619
O O5 0.500000 0.500000 0.500000
O O6 0.596538 0.250000 0.444038
O O7 0.685481 0.513636 0.401521
O O8 0.641500 0.750000 0.717449
O O9 0.748166 0.498980 0.768960
O O10 0.518260 0.492245 0.687969
O O11 0.354753 0.250000 0.676605
#
# Coordination Sequence:
#
# PCOD9467154 Si02
#       5
#     8   8   8   4   8
#     4  11  24  45  74 103 145 183 238 289 365 421
#     4  12  25  44  75 106 141 185 243 291 357 427
#     4  12  26  50  76 104 147 194 241 298 367 434
#     4  10  24  42  66 108 140 184 226 296 352 424
#     4  12  29  48  75 107 144 193 245 303 363 435
#
# _framework density 22.582429999999999
#
# number of rings (size 3 to 8) (size 9 to 14) (size 15 to 20)
#    0.000    0.444    4.444    3.333    6.222    3.556 
#    4.000    0.000    0.000    0.000    0.000    0.000 
#    0.000    0.000    0.000    0.000    0.000    0.000 
#
# Total GULP energy -200517.083081 kJ/mol
# GULP energy per Si atom -5569.918974 kJ/mol
# Density = 2.253103 g / cm^3
# Si number density = 22.582430 Si / 1000 Ang^3
#
#
#
# Elastic Constant Matrix: (Units=GPa)
#
#
# Indices 1 2 3 4 5 6 
#
# 1 65.6839 34.5013 21.9519 0.0000 0.0000 0.0000
# 2 34.5013 240.7417 31.6050 0.0000 0.0000 0.0000
# 3 21.9519 31.6050 99.4434 0.0000 0.0000 0.0000
# 4 0.0000 0.0000 0.0000 37.0643 0.0000 0.0000
# 5 0.0000 0.0000 0.0000 0.0000 46.7231 0.0000
# 6 0.0000 0.0000 0.0000 0.0000 0.0000 36.9134
#
#
#
# Elastic Compliance Matrix: (Units=1/GPa)
#
#
# Indices 1 2 3 4 5 6 
#
# 1 0.017375 -0.002073 -0.003177 0.000000 0.000000 0.000000
# 2 -0.002073 0.004582 -0.000999 0.000000 0.000000 0.000000
# 3 -0.003177 -0.000999 0.011075 0.000000 0.000000 0.000000
# 4 0.000000 0.000000 0.000000 0.026980 0.000000 0.000000
# 5 0.000000 0.000000 0.000000 0.000000 0.021403 0.000000
# 6 0.000000 0.000000 0.000000 0.000000 0.000000 0.027090
#
#
# Mechanical properties :
#
#
# Convention : Reuss Voigt Hill
#
# Bulk Modulus (GPa) = 48.69739 64.66504 56.68121
# Shear Modulus (GPa) = 39.10943 45.32755 42.21849
#
# Velocity S-wave (km/s) = 4.16607 4.48504 4.32849
# Velocity P-wave (km/s) = 6.68974 7.45105 7.08063
#
# Compressibility (1/GPa) = 0.02053498
#
# Stress axis : x y z
#
# Youngs Moduli (GPa) = 57.55411 218.24426 90.29680
#
# Poissons Ratio (x) = 0.45242 0.28684
# Poissons Ratio (y) = 0.11931 0.09017
# Poissons Ratio (z) = 0.18283 0.21795
#
# Static dielectric constant tensor:
#      x y z
#    x 1.982610 0.000000 0.000000 
#    y 0.000000 1.800020 0.000000 
#    z 0.000000 0.000000 1.858560 
# 
# From -- ./inp_files/25613.got.cif
#   From: 2010.05.17/outbox.cif.g08.bks.cpg/sg62_13_cif.got.tgz:25613.got - 2010.06.03 15:25:27.
