data_PCOD9467000
_publ_section_title
;
Structure prediction by ZEFSAII (Michael W. Deem and Ramdas Pophale) SiO2 
 PCOD9467000
Probable space group: P N M A
;
_chemical_formula_sum "Si O2"
_cell_formula_units_Z 48
_cell_length_a 19.009595
_cell_length_b 8.853307
_cell_length_c 15.193981
_cell_angle_alpha 90.000000
_cell_angle_beta 90.000000
_cell_angle_gamma 90.000000
_cell_volume 2557.113279
_symmetry_space_group_name_H-M "P N M A"
_symmetry_group_IT_number 62
_symmetry_cell_setting 'orthorhombic'
loop_
_space_group_symop_operation_xyz
x,y,z
1/2-x,-y,1/2+z
1/2+x,1/2-y,1/2-z
-x,1/2+y,-z
-x,-y,-z
1/2+x,y,1/2-z
1/2-x,1/2+y,1/2+z
x,1/2-y,z
loop_
_atom_site_type_symbol
_atom_site_label
_atom_site_fract_x
_atom_site_fract_y
_atom_site_fract_z
Si Si1 0.212298 0.069048 0.507667
Si Si2 0.828697 0.430593 0.139355
Si Si3 0.564892 0.930987 0.053351
Si Si4 0.589488 0.568113 0.255372
Si Si5 0.978199 0.930565 0.093338
Si Si6 0.761356 0.569290 0.809033
O O1 0.204286 0.250000 0.509380
O O2 0.269404 0.030670 0.432700
O O3 0.138053 0.993954 0.484525
O O4 0.241043 0.009921 0.600271
O O5 0.840460 0.250000 0.134170
O O6 0.900932 0.513845 0.119470
O O7 0.796538 0.466142 0.234616
O O8 0.563547 0.750000 0.045608
O O9 0.562924 0.970039 0.157333
O O10 0.500000 0.000000 0.000000
O O11 0.599442 0.750000 0.258869
O O12 0.533435 0.525572 0.330353
O O13 0.663414 0.488858 0.275079
O O14 0.979160 0.750000 0.086271
O O15 0.000000 0.000000 0.000000
O O16 0.763815 0.750000 0.820272
#
# Coordination Sequence:
#
# PCOD9467000 Si02
#       6
#     8   8   8   8   8   8
#     4  11  23  42  65  91 126 165 206 259 315 372
#     4  10  23  42  62  90 126 161 203 255 310 368
#     4  11  24  42  64  92 126 167 213 262 316 377
#     4  10  23  43  64  91 127 166 208 256 313 373
#     4  11  24  41  63  92 125 164 207 255 310 370
#     4  11  23  40  64  95 124 161 209 257 311 371
#
# _framework density 18.771166999999998
#
# number of rings (size 3 to 8) (size 9 to 14) (size 15 to 20)
#    0.000    1.333    1.667    3.000    2.333    8.667 
#    0.000    0.000    0.000    0.000    0.000    0.000 
#    0.000    0.000    0.000    0.000    0.000    0.000 
#
# Total GULP energy -268455.812629 kJ/mol
# GULP energy per Si atom -5592.829430 kJ/mol
# Density = 1.872844 g / cm^3
# Si number density = 18.771167 Si / 1000 Ang^3
#
#
#
# Elastic Constant Matrix: (Units=GPa)
#
#
# Indices 1 2 3 4 5 6 
#
# 1 98.6264 31.9828 21.1818 0.0000 0.0000 0.0000
# 2 31.9828 37.0783 32.2291 0.0000 0.0000 0.0000
# 3 21.1818 32.2291 105.8077 0.0000 0.0000 0.0000
# 4 0.0000 0.0000 0.0000 32.8010 0.0000 0.0000
# 5 0.0000 0.0000 0.0000 0.0000 38.5218 0.0000
# 6 0.0000 0.0000 0.0000 0.0000 0.0000 42.3884
#
#
#
# Elastic Compliance Matrix: (Units=1/GPa)
#
#
# Indices 1 2 3 4 5 6 
#
# 1 0.014189 -0.013289 0.001207 0.000000 0.000000 0.000000
# 2 -0.013289 0.049127 -0.012304 0.000000 0.000000 0.000000
# 3 0.001207 -0.012304 0.012957 0.000000 0.000000 0.000000
# 4 0.000000 0.000000 0.000000 0.030487 0.000000 0.000000
# 5 0.000000 0.000000 0.000000 0.000000 0.025959 0.000000
# 6 0.000000 0.000000 0.000000 0.000000 0.000000 0.023591
#
#
# Mechanical properties :
#
#
# Convention : Reuss Voigt Hill
#
# Bulk Modulus (GPa) = 36.35975 45.81109 41.08542
# Shear Modulus (GPa) = 23.33730 33.15014 28.24372
#
# Velocity S-wave (km/s) = 3.52980 4.20696 3.88317
# Velocity P-wave (km/s) = 6.00206 6.93224 6.48385
#
# Compressibility (1/GPa) = 0.02750294
#
# Stress axis : x y z
#
# Youngs Moduli (GPa) = 70.47583 20.35540 77.17712
#
# Poissons Ratio (x) = 0.27049 -0.09316
# Poissons Ratio (y) = 0.93652 0.94958
# Poissons Ratio (z) = -0.08507 0.25045
#
# Static dielectric constant tensor:
#      x y z
#    x 1.602200 0.000000 0.000000 
#    y 0.000000 1.628720 0.000000 
#    z 0.000000 0.000000 1.629400 
# 
# From -- ./inp_files/19629.got.cif
#   From: 2010.05.17/outbox.cif.g08.bks.cpg/sg62_10_cif.got.tgz:19629.got - 2010.06.03 15:25:27.
