data_PCOD9467363
_publ_section_title
;
Structure prediction by ZEFSAII (Michael W. Deem and Ramdas Pophale) SiO2 
 PCOD9467363
Probable space group: P N M A
;
_chemical_formula_sum "Si O2"
_cell_formula_units_Z 32
_cell_length_a 6.058762
_cell_length_b 18.648896
_cell_length_c 10.509513
_cell_angle_alpha 90.000000
_cell_angle_beta 90.000000
_cell_angle_gamma 90.000000
_cell_volume 1187.461702
_symmetry_space_group_name_H-M "P N M A"
_symmetry_group_IT_number 62
_symmetry_cell_setting 'orthorhombic'
loop_
_space_group_symop_operation_xyz
x,y,z
1/2-x,-y,1/2+z
1/2+x,1/2-y,1/2-z
-x,1/2+y,-z
-x,-y,-z
1/2+x,y,1/2-z
1/2-x,1/2+y,1/2+z
x,1/2-y,z
loop_
_atom_site_type_symbol
_atom_site_label
_atom_site_fract_x
_atom_site_fract_y
_atom_site_fract_z
Si Si1 0.280033 0.830855 0.353023
Si Si2 0.151861 0.973651 0.691022
Si Si3 0.311934 0.392994 0.573580
Si Si4 0.490549 0.828889 0.904754
O O1 0.379614 0.750000 0.354501
O O2 0.425697 0.893386 0.415627
O O3 0.229456 0.852917 0.209492
O O4 0.077625 0.825615 0.449068
O O5 0.397647 0.986442 0.756457
O O6 0.133644 0.889745 0.660313
O O7 0.184239 0.032544 0.580008
O O8 0.254740 0.354356 0.441189
O O9 0.503725 0.750000 0.847653
#
# Coordination Sequence:
#
# PCOD9467363 Si02
#       4
#     8   8   8   8
#     4  11  21  37  65 101 140 175 221 288 362 424
#     4  12  28  50  72  99 141 193 243 291 340 407
#     4  12  22  41  68 103 141 176 225 291 361 429
#     4  11  26  44  69 102 137 187 238 288 351 418
#
# _framework density 26.948239999999998
#
# number of rings (size 3 to 8) (size 9 to 14) (size 15 to 20)
#    0.000    0.500    5.000    3.000    3.500    2.000 
#    0.000    0.000    0.000    0.000    0.000    0.000 
#    0.000    0.000    0.000    0.000    0.000    0.000 
#
# Total GULP energy -178464.206703 kJ/mol
# GULP energy per Si atom -5577.006459 kJ/mol
# Density = 2.688691 g / cm^3
# Si number density = 26.948240 Si / 1000 Ang^3
#
#
#
# Elastic Constant Matrix: (Units=GPa)
#
#
# Indices 1 2 3 4 5 6 
#
# 1 107.1725 4.3195 24.1810 0.0000 0.0000 0.0000
# 2 4.3195 154.9033 17.2876 0.0000 0.0000 0.0000
# 3 24.1810 17.2876 59.5939 0.0000 0.0000 0.0000
# 4 0.0000 0.0000 0.0000 36.5985 0.0000 0.0000
# 5 0.0000 0.0000 0.0000 0.0000 28.9320 0.0000
# 6 0.0000 0.0000 0.0000 0.0000 0.0000 34.3589
#
#
#
# Elastic Compliance Matrix: (Units=1/GPa)
#
#
# Indices 1 2 3 4 5 6 
#
# 1 0.010276 0.000185 -0.004223 0.000000 0.000000 0.000000
# 2 0.000185 0.006675 -0.002011 0.000000 0.000000 0.000000
# 3 -0.004223 -0.002011 0.019077 0.000000 0.000000 0.000000
# 4 0.000000 0.000000 0.000000 0.027324 0.000000 0.000000
# 5 0.000000 0.000000 0.000000 0.000000 0.034564 0.000000
# 6 0.000000 0.000000 0.000000 0.000000 0.000000 0.029105
#
#
# Mechanical properties :
#
#
# Convention : Reuss Voigt Hill
#
# Bulk Modulus (GPa) = 41.79058 45.91620 43.85339
# Shear Modulus (GPa) = 33.99131 38.36997 36.18064
#
# Velocity S-wave (km/s) = 3.55541 3.77747 3.66812
# Velocity P-wave (km/s) = 5.69175 6.00844 5.85224
#
# Compressibility (1/GPa) = 0.02392884
#
# Stress axis : x y z
#
# Youngs Moduli (GPa) = 97.31230 149.81374 52.41818
#
# Poissons Ratio (x) = -0.02768 0.22138
# Poissons Ratio (y) = -0.01798 0.10543
# Poissons Ratio (z) = 0.41098 0.30132
#
# Static dielectric constant tensor:
#      x y z
#    x 2.310450 0.000000 0.000000 
#    y 0.000000 2.229650 0.000000 
#    z 0.000000 0.000000 2.135940 
# 
# From -- ./inp_files/10638.got.cif
#   From: 2010.05.17/outbox.cif.g08.bks.cpg/sg62_6_cif.got.tgz:10638.got - 2010.06.03 15:25:27.
