data_PCOD9467012
_publ_section_title
;
Structure prediction by ZEFSAII (Michael W. Deem and Ramdas Pophale) SiO2 
 PCOD9467012
Probable space group: P N M A
;
_chemical_formula_sum "Si O2"
_cell_formula_units_Z 40
_cell_length_a 23.277904
_cell_length_b 8.710066
_cell_length_c 10.413923
_cell_angle_alpha 90.000000
_cell_angle_beta 90.000000
_cell_angle_gamma 90.000000
_cell_volume 2111.444551
_symmetry_space_group_name_H-M "P N M A"
_symmetry_group_IT_number 62
_symmetry_cell_setting 'orthorhombic'
loop_
_space_group_symop_operation_xyz
x,y,z
1/2-x,-y,1/2+z
1/2+x,1/2-y,1/2-z
-x,1/2+y,-z
-x,-y,-z
1/2+x,y,1/2-z
1/2-x,1/2+y,1/2+z
x,1/2-y,z
loop_
_atom_site_type_symbol
_atom_site_label
_atom_site_fract_x
_atom_site_fract_y
_atom_site_fract_z
Si Si1 0.620516 0.433272 0.746603
Si Si2 0.996727 0.067380 0.356141
Si Si3 0.615394 0.566327 0.228769
Si Si4 0.193324 0.566306 0.519562
Si Si5 0.820878 0.066033 0.994949
O O1 0.619787 0.250000 0.739518
O O2 0.558011 0.495721 0.785191
O O3 0.642210 0.503316 0.613212
O O4 0.663899 0.486913 0.858521
O O5 0.990078 0.250000 0.363394
O O6 0.000000 0.000000 0.500000
O O7 0.055653 0.021513 0.286386
O O8 0.604153 0.750000 0.226241
O O9 0.655830 0.530473 0.107002
O O10 0.648141 0.529622 0.360278
O O11 0.192633 0.750000 0.537381
O O12 0.257956 0.508358 0.502364
O O13 0.815462 0.250000 0.004368
#
# Coordination Sequence:
#
# PCOD9467012 Si02
#       5
#     8   8   8   8   8
#     4  12  25  42  65  94 129 171 215 261 315 377
#     4  12  24  41  67  95 124 162 210 264 320 380
#     4  10  23  42  65  93 127 167 211 262 317 376
#     4  11  22  40  67  96 129 167 213 264 316 379
#     4  11  24  42  64  95 133 169 211 263 320 377
#
# _framework density 18.944376999999999
#
# number of rings (size 3 to 8) (size 9 to 14) (size 15 to 20)
#    0.000    0.800    2.000    6.000    0.000    4.800 
#    0.000    0.000    0.000    0.000    0.000    0.000 
#    0.000    0.000    0.000    0.000    0.000    0.000 
#
# Total GULP energy -223912.136208 kJ/mol
# GULP energy per Si atom -5597.803405 kJ/mol
# Density = 1.890126 g / cm^3
# Si number density = 18.944377 Si / 1000 Ang^3
#
#
#
# Elastic Constant Matrix: (Units=GPa)
#
#
# Indices 1 2 3 4 5 6 
#
# 1 86.9921 14.1468 -0.3023 0.0000 0.0000 0.0000
# 2 14.1468 55.5733 16.1318 0.0000 0.0000 0.0000
# 3 -0.3023 16.1318 80.1402 0.0000 0.0000 0.0000
# 4 0.0000 0.0000 0.0000 26.1612 0.0000 0.0000
# 5 0.0000 0.0000 0.0000 0.0000 -194.4702 0.0000
# 6 0.0000 0.0000 0.0000 0.0000 0.0000 41.3166
#
#
#
# Elastic Compliance Matrix: (Units=1/GPa)
#
#
# Indices 1 2 3 4 5 6 
#
# 1 0.012029 -0.003266 0.000703 0.000000 0.000000 0.000000
# 2 -0.003266 0.019998 -0.004038 0.000000 0.000000 0.000000
# 3 0.000703 -0.004038 0.013294 0.000000 0.000000 0.000000
# 4 0.000000 0.000000 0.000000 0.038225 0.000000 0.000000
# 5 0.000000 0.000000 0.000000 0.000000 -0.005142 0.000000
# 6 0.000000 0.000000 0.000000 0.000000 0.000000 0.024203
#
#
# Mechanical properties :
#
#
# Convention : Reuss Voigt Hill
#
# Bulk Modulus (GPa) = 31.13507 31.40646 31.27077
# Shear Modulus (GPa) = 39.52131 -12.54984 13.48573
#
# Velocity S-wave (km/s) = 4.57242 -2.57662 2.67096
# Velocity P-wave (km/s) = 6.65933 2.78609 5.10436
#
# Compressibility (1/GPa) = 0.03211812
#
# Stress axis : x y z
#
# Youngs Moduli (GPa) = 83.13327 50.00558 75.22432
#
# Poissons Ratio (x) = 0.16332 -0.05287
# Poissons Ratio (y) = 0.27152 0.30374
# Poissons Ratio (z) = -0.05843 0.20191
#
# Static dielectric constant tensor:
#      x y z
#    x 1.621210 0.000000 0.000000 
#    y 0.000000 1.632370 0.000000 
#    z 0.000000 0.000000 1.628810 
# 
# From -- ./inp_files/9116.got.cif
#   From: 2010.05.17/outbox.cif.g08.bks.cpg/sg62_5_cif.got.tgz:9116.got - 2010.06.03 15:25:27.
