data_PCOD9467407
_publ_section_title
;
Structure prediction by ZEFSAII (Michael W. Deem and Ramdas Pophale) SiO2 
 PCOD9467407
Probable space group: P N M A
;
_chemical_formula_sum "Si O2"
_cell_formula_units_Z 32
_cell_length_a 9.714066
_cell_length_b 14.224388
_cell_length_c 10.134291
_cell_angle_alpha 90.000000
_cell_angle_beta 90.000000
_cell_angle_gamma 90.000000
_cell_volume 1400.322318
_symmetry_space_group_name_H-M "P N M A"
_symmetry_group_IT_number 62
_symmetry_cell_setting 'orthorhombic'
loop_
_space_group_symop_operation_xyz
x,y,z
1/2-x,-y,1/2+z
1/2+x,1/2-y,1/2-z
-x,1/2+y,-z
-x,-y,-z
1/2+x,y,1/2-z
1/2-x,1/2+y,1/2+z
x,1/2-y,z
loop_
_atom_site_type_symbol
_atom_site_label
_atom_site_fract_x
_atom_site_fract_y
_atom_site_fract_z
Si Si1 0.712324 0.443268 0.557876
Si Si2 0.479869 0.142249 0.047550
Si Si3 0.494234 0.550926 0.678450
Si Si4 0.442379 0.853132 0.232439
O O1 0.860139 0.429936 0.495515
O O2 0.651792 0.539084 0.623923
O O3 0.604456 0.422338 0.440398
O O4 0.689315 0.367945 0.674461
O O5 0.427859 0.250000 0.051311
O O6 0.523637 0.113857 0.193509
O O7 0.584148 0.138816 0.923890
O O8 0.466921 0.442620 0.722565
O O9 0.501640 0.750000 0.256654
#
# Coordination Sequence:
#
# PCOD9467407 Si02
#       4
#     8   8   8   8
#     4   9  21  38  58  83 113 154 186 239 281 333
#     4  11  22  36  60  86 115 151 191 235 284 341
#     4   9  21  38  58  83 117 149 188 237 283 338
#     4   9  19  37  59  85 114 148 193 238 279 337
#
# _framework density 22.851882
#
# number of rings (size 3 to 8) (size 9 to 14) (size 15 to 20)
#    1.500    1.000    0.000    1.500    3.500    2.000 
#    0.000    0.000    0.000    0.000    0.000    0.000 
#    0.000    0.000    0.000    0.000    0.000    0.000 
#
# Total GULP energy -178221.036339 kJ/mol
# GULP energy per Si atom -5569.407386 kJ/mol
# Density = 2.279987 g / cm^3
# Si number density = 22.851882 Si / 1000 Ang^3
#
#
#
# Elastic Constant Matrix: (Units=GPa)
#
#
# Indices 1 2 3 4 5 6 
#
# 1 44.9473 15.3494 34.3566 0.0000 0.0000 0.0000
# 2 15.3494 69.5574 5.3428 0.0000 0.0000 0.0000
# 3 34.3566 5.3428 155.9875 0.0000 0.0000 0.0000
# 4 0.0000 0.0000 0.0000 20.1834 0.0000 0.0000
# 5 0.0000 0.0000 0.0000 0.0000 19.0831 0.0000
# 6 0.0000 0.0000 0.0000 0.0000 0.0000 13.6519
#
#
#
# Elastic Compliance Matrix: (Units=1/GPa)
#
#
# Indices 1 2 3 4 5 6 
#
# 1 0.028998 -0.005924 -0.006184 0.000000 0.000000 0.000000
# 2 -0.005924 0.015625 0.000770 0.000000 0.000000 0.000000
# 3 -0.006184 0.000770 0.007746 0.000000 0.000000 0.000000
# 4 0.000000 0.000000 0.000000 0.049546 0.000000 0.000000
# 5 0.000000 0.000000 0.000000 0.000000 0.052402 0.000000
# 6 0.000000 0.000000 0.000000 0.000000 0.000000 0.073250
#
#
# Mechanical properties :
#
#
# Convention : Reuss Voigt Hill
#
# Bulk Modulus (GPa) = 33.67858 42.28777 37.98317
# Shear Modulus (GPa) = 19.22029 24.94658 22.08344
#
# Velocity S-wave (km/s) = 2.90329 3.30762 3.11203
# Velocity P-wave (km/s) = 5.09986 5.75608 5.43788
#
# Compressibility (1/GPa) = 0.02969246
#
# Stress axis : x y z
#
# Youngs Moduli (GPa) = 34.48481 64.00081 129.09122
#
# Poissons Ratio (x) = 0.37915 0.79830
# Poissons Ratio (y) = 0.20429 -0.09935
# Poissons Ratio (z) = 0.21326 -0.04926
#
# Static dielectric constant tensor:
#      x y z
#    x 1.924680 0.000000 0.000000 
#    y 0.000000 1.873130 0.000000 
#    z 0.000000 0.000000 1.848150 
# 
# From -- ./inp_files/4900.got.cif
#   From: 2010.05.17/outbox.cif.g08.bks.cpg/sg62_3_cif.got.tgz:4900.got - 2010.06.03 15:25:27.
