data_PCOD9467777
_publ_section_title
;
Structure prediction by ZEFSAII (Michael W. Deem and Ramdas Pophale) SiO2 
 PCOD9467777
Probable space group: P N M A
;
_chemical_formula_sum "Si O2"
_cell_formula_units_Z 64
_cell_length_a 12.000000
_cell_length_b 9.000000
_cell_length_c 30.000000
_cell_angle_alpha 90.000000
_cell_angle_beta 90.000000
_cell_angle_gamma 90.000000
_cell_volume 3240.000000
_symmetry_space_group_name_H-M "P N M A"
_symmetry_group_IT_number 62
_symmetry_cell_setting 'orthorhombic'
loop_
_space_group_symop_operation_xyz
x,y,z
1/2-x,-y,1/2+z
1/2+x,1/2-y,1/2-z
-x,1/2+y,-z
-x,-y,-z
1/2+x,y,1/2-z
1/2-x,1/2+y,1/2+z
x,1/2-y,z
loop_
_atom_site_type_symbol
_atom_site_label
_atom_site_fract_x
_atom_site_fract_y
_atom_site_fract_z
Si Si1 0.346760 0.070117 0.085753
Si Si2 0.407973 0.568285 0.722176
Si Si3 0.218718 0.922529 0.859974
Si Si4 0.942271 0.571139 0.068906
Si Si5 0.749581 0.070839 0.509569
Si Si6 0.842496 0.079053 0.243485
Si Si7 0.910306 0.428729 0.593669
Si Si8 0.140711 0.570057 0.128208
O O1 0.349572 0.250000 0.088305
O O2 0.468987 0.001922 0.090853
O O3 0.261752 0.001846 0.121533
O O4 0.297559 0.021457 0.037570
O O5 0.410122 0.750000 0.720911
O O6 0.280790 0.523090 0.738609
O O7 0.526008 0.523762 0.747690
O O8 0.413093 0.498352 0.672726
O O9 0.221649 0.750000 0.874722
O O10 0.177818 0.924750 0.809536
O O11 0.136297 0.017107 0.890762
O O12 0.339191 0.996990 0.866757
O O13 0.943301 0.750000 0.066882
O O14 0.873039 0.516266 0.025551
O O15 0.064762 0.525334 0.085182
O O16 0.742780 0.250000 0.507110
O O17 0.838488 0.036953 0.548782
O O18 0.847118 0.250000 0.259534
O O19 0.916394 0.250000 0.598031
O O20 0.145431 0.750000 0.130751
#
# Coordination Sequence:
#
# PCOD9467777 Si02
#       8
#     8   8   8   8   8   8   8   8
#     4  11  22  36  55  80 111 150 195 241 285 338
#     4  10  20  39  61  85 114 152 193 239 291 348
#     4  10  18  32  56  87 112 142 191 233 274 338
#     4   9  18  35  57  79 109 148 187 231 285 338
#     4   8  17  34  56  81 109 146 191 237 287 339
#     4   9  19  34  59  88 117 148 191 241 290 340
#     4  10  20  36  56  81 116 153 187 234 291 345
#     4  11  23  38  56  81 114 152 188 232 291 347
#
# _framework density 19.753086
#
# number of rings (size 3 to 8) (size 9 to 14) (size 15 to 20)
#    0.000    2.250    1.250    2.625    0.000    2.000 
#    0.000   10.000    0.000    0.000    0.000    0.000 
#    0.000    0.000    0.000    0.000    0.000    0.000 
#
# Total GULP energy -356499.340965 kJ/mol
# GULP energy per Si atom -5570.302203 kJ/mol
# Density = 1.970813 g / cm^3
# Si number density = 19.753086 Si / 1000 Ang^3
#
#
#
# Elastic Constant Matrix: (Units=GPa)
#
#
# Indices 1 2 3 4 5 6 
#
# 1 156.1737 9.5547 13.4928 0.0000 0.0000 0.0000
# 2 9.5547 -0.1605 -10.0706 0.0000 0.0000 0.0000
# 3 13.4928 -10.0706 19.5524 0.0000 0.0000 0.0000
# 4 0.0000 0.0000 0.0000 20.2093 0.0000 0.0000
# 5 0.0000 0.0000 0.0000 0.0000 30.7782 0.0000
# 6 0.0000 0.0000 0.0000 0.0000 0.0000 21.0937
#
#
#
# Elastic Compliance Matrix: (Units=1/GPa)
#
#
# Indices 1 2 3 4 5 6 
#
# 1 0.005056 0.015604 0.004548 0.000000 0.000000 0.000000
# 2 0.015604 -0.138848 -0.082282 0.000000 0.000000 0.000000
# 3 0.004548 -0.082282 0.005626 0.000000 0.000000 0.000000
# 4 0.000000 0.000000 0.000000 0.049482 0.000000 0.000000
# 5 0.000000 0.000000 0.000000 0.000000 0.032490 0.000000
# 6 0.000000 0.000000 0.000000 0.000000 0.000000 0.047408
#
#
# Mechanical properties :
#
#
# Convention : Reuss Voigt Hill
#
# Bulk Modulus (GPa) = -3.96153 22.39104 9.21475
# Shear Modulus (GPa) = 120.96953 25.25551 73.11252
#
# Velocity S-wave (km/s) = 7.83414 3.57957 6.09045
# Velocity P-wave (km/s) = 8.93431 5.33334 7.35753
#
# Compressibility (1/GPa) = -0.25242769
#
# Stress axis : x y z
#
# Youngs Moduli (GPa) = 197.80110 -7.20212 177.74226
#
# Poissons Ratio (x) = 0.11238 -0.80836
# Poissons Ratio (y) = -3.08640 14.62502
# Poissons Ratio (z) = -0.89959 -0.59261
#
# Static dielectric constant tensor:
#      x y z
#    x 1.747550 0.000000 0.000000 
#    y 0.000000 1.653610 0.000000 
#    z 0.000000 0.000000 1.717500 
# 
# From -- ./inp_files/32613.got.cif
#   From: 2010.05.17/outbox.ucp.g08.bks.cvg/sg62_17_cif.got.tgz:32613.got - 2010.06.11 16:29:25.
