data_PCOD9467242
_publ_section_title
;
Structure prediction by ZEFSAII (Michael W. Deem and Ramdas Pophale) SiO2 
 PCOD9467242
Probable space group: P N M A
;
_chemical_formula_sum "Si O2"
_cell_formula_units_Z 52
_cell_length_a 5.351062
_cell_length_b 20.092735
_cell_length_c 23.124079
_cell_angle_alpha 90.000000
_cell_angle_beta 90.000000
_cell_angle_gamma 90.000000
_cell_volume 2486.242487
_symmetry_space_group_name_H-M "P N M A"
_symmetry_group_IT_number 62
_symmetry_cell_setting 'orthorhombic'
loop_
_space_group_symop_operation_xyz
x,y,z
1/2-x,-y,1/2+z
1/2+x,1/2-y,1/2-z
-x,1/2+y,-z
-x,-y,-z
1/2+x,y,1/2-z
1/2-x,1/2+y,1/2+z
x,1/2-y,z
loop_
_atom_site_type_symbol
_atom_site_label
_atom_site_fract_x
_atom_site_fract_y
_atom_site_fract_z
Si Si1 0.031849 0.407213 0.395049
Si Si2 0.198877 0.954593 0.384747
Si Si3 0.189838 0.671327 0.997732
Si Si4 0.692131 0.059722 0.489790
Si Si5 0.844532 0.250000 0.787958
Si Si6 0.642105 0.670037 0.783454
Si Si7 0.219866 0.875378 0.128123
O O1 0.208685 0.466552 0.372591
O O2 0.149602 0.363379 0.446849
O O3 0.928389 0.362948 0.343887
O O4 0.810851 0.446116 0.427458
O O5 0.140369 0.947425 0.453609
O O6 0.464524 0.918857 0.374355
O O7 0.964876 0.918114 0.354921
O O8 0.177093 0.750000 0.988944
O O9 0.265854 0.655477 0.063853
O O10 0.928261 0.632666 0.992079
O O11 0.500000 0.000000 0.500000
O O12 0.611508 0.250000 0.743867
O O13 0.821110 0.315043 0.828027
O O14 0.917396 0.651706 0.760621
O O15 0.636887 0.750000 0.789457
#
# Coordination Sequence:
#
# PCOD9467242 Si02
#       7
#     8   8   8   8   4   8   8
#     4  12  23  41  69 101 136 184 234 278 357 424
#     4  11  23  40  69 100 141 177 218 281 352 422
#     4  11  23  38  63 102 142 176 226 289 346 420
#     4  11  22  39  63  99 147 183 222 270 360 434
#     4  12  26  50  78  98 138 192 240 292 358 420
#     4  10  25  47  68  92 134 184 231 285 338 396
#     4  11  24  45  66 101 134 179 228 285 350 411
#
# _framework density 20.915095000000001
#
# number of rings (size 3 to 8) (size 9 to 14) (size 15 to 20)
#    0.000    0.923    3.846    3.692    2.154    1.231 
#    1.385    4.615    0.000    0.000    0.000    0.000 
#    0.000    0.000    0.000    0.000    0.000    0.000 
#
# Total GULP energy -290482.688790 kJ/mol
# GULP energy per Si atom -5586.205554 kJ/mol
# Density = 2.086749 g / cm^3
# Si number density = 20.915095 Si / 1000 Ang^3
#
#
#
# Elastic Constant Matrix: (Units=GPa)
#
#
# Indices 1 2 3 4 5 6 
#
# 1 61.4444 39.5653 5.9430 0.0000 0.0000 0.0000
# 2 39.5653 122.5429 12.0723 0.0000 0.0000 0.0000
# 3 5.9430 12.0723 41.9268 0.0000 0.0000 0.0000
# 4 0.0000 0.0000 0.0000 33.5501 0.0000 0.0000
# 5 0.0000 0.0000 0.0000 0.0000 30.5849 0.0000
# 6 0.0000 0.0000 0.0000 0.0000 0.0000 24.4648
#
#
#
# Elastic Compliance Matrix: (Units=1/GPa)
#
#
# Indices 1 2 3 4 5 6 
#
# 1 0.020590 -0.006546 -0.001034 0.000000 0.000000 0.000000
# 2 -0.006546 0.010480 -0.002090 0.000000 0.000000 0.000000
# 3 -0.001034 -0.002090 0.024599 0.000000 0.000000 0.000000
# 4 0.000000 0.000000 0.000000 0.029806 0.000000 0.000000
# 5 0.000000 0.000000 0.000000 0.000000 0.032696 0.000000
# 6 0.000000 0.000000 0.000000 0.000000 0.000000 0.040875
#
#
# Mechanical properties :
#
#
# Convention : Reuss Voigt Hill
#
# Bulk Modulus (GPa) = 27.52526 37.89727 32.71127
# Shear Modulus (GPa) = 26.24743 28.94222 27.59482
#
# Velocity S-wave (km/s) = 3.54637 3.72398 3.63626
# Velocity P-wave (km/s) = 5.47340 6.05389 5.77095
#
# Compressibility (1/GPa) = 0.03633026
#
# Stress axis : x y z
#
# Youngs Moduli (GPa) = 48.56733 95.42190 40.65158
#
# Poissons Ratio (x) = 0.62463 0.04202
# Poissons Ratio (y) = 0.31792 0.08495
# Poissons Ratio (z) = 0.05021 0.19940
#
# Static dielectric constant tensor:
#      x y z
#    x 1.850650 0.000000 0.000000 
#    y 0.000000 1.753550 0.000000 
#    z 0.000000 0.000000 1.732460 
# 
# From -- ./inp_files/25345.got.cif
#   From: 2010.05.17/outbox.cif.g08.bks.cpg/sg62_13_cif.got.tgz:25345.got - 2010.06.03 15:25:27.
