data_PCOD9467434
_publ_section_title
;
Structure prediction by ZEFSAII (Michael W. Deem and Ramdas Pophale) SiO2 
 PCOD9467434
Probable space group: P N M A
;
_chemical_formula_sum "Si O2"
_cell_formula_units_Z 64
_cell_length_a 31.589916
_cell_length_b 8.436958
_cell_length_c 12.241746
_cell_angle_alpha 90.000000
_cell_angle_beta 90.000000
_cell_angle_gamma 90.000000
_cell_volume 3262.704354
_symmetry_space_group_name_H-M "P N M A"
_symmetry_group_IT_number 62
_symmetry_cell_setting 'orthorhombic'
loop_
_space_group_symop_operation_xyz
x,y,z
1/2-x,-y,1/2+z
1/2+x,1/2-y,1/2-z
-x,1/2+y,-z
-x,-y,-z
1/2+x,y,1/2-z
1/2-x,1/2+y,1/2+z
x,1/2-y,z
loop_
_atom_site_type_symbol
_atom_site_label
_atom_site_fract_x
_atom_site_fract_y
_atom_site_fract_z
Si Si1 0.705728 0.940491 0.716642
Si Si2 0.834530 0.057254 0.990837
Si Si3 0.067827 0.942923 0.008714
Si Si4 0.873755 0.559671 0.353008
Si Si5 0.875370 0.560178 0.605796
Si Si6 0.800121 0.059671 0.756688
Si Si7 0.045813 0.560255 0.252629
Si Si8 0.543198 0.559994 0.727716
O O1 0.704719 0.750000 0.719837
O O2 0.692062 0.994365 0.595268
O O3 0.670211 0.003817 0.799497
O O4 0.752798 0.998896 0.739882
O O5 0.834021 0.250000 0.989602
O O6 0.883209 0.009966 0.003638
O O7 0.816625 0.003415 0.875071
O O8 0.065835 0.750000 0.009543
O O9 0.044314 0.997213 0.899086
O O10 0.052839 0.997906 0.127556
O O11 0.875575 0.750000 0.348911
O O12 0.876433 0.508279 0.479484
O O13 0.913531 0.492067 0.285745
O O14 0.874326 0.750000 0.607786
O O15 0.833490 0.497680 0.666419
O O16 0.916835 0.503410 0.671130
O O17 0.800039 0.250000 0.756348
O O18 0.048495 0.750000 0.252659
O O19 0.998722 0.507271 0.284586
O O20 0.541331 0.750000 0.727707
#
# Coordination Sequence:
#
# PCOD9467434 Si02
#       8
#     8   8   8   8   8   8   8   8
#     4  11  23  41  65  93 126 163 204 250 305 366
#     4   9  18  37  63  89 122 161 196 246 308 357
#     4   9  17  35  61  91 124 158 196 245 305 361
#     4  11  25  44  63  87 122 163 208 258 308 359
#     4  11  25  44  63  87 122 163 208 258 308 359
#     4  11  23  41  65  93 126 163 204 250 305 366
#     4  11  22  39  64  92 124 160 201 250 306 369
#     4  11  22  39  64  92 124 160 201 250 306 369
#
# _framework density 19.615628999999998
#
# number of rings (size 3 to 8) (size 9 to 14) (size 15 to 20)
#    0.000    1.500    2.500    2.625    1.750    2.500 
#    0.000    5.000    0.000    0.000    0.000    0.000 
#    0.000    0.000    0.000    0.000    0.000    0.000 
#
# Total GULP energy -357670.546374 kJ/mol
# GULP energy per Si atom -5588.602287 kJ/mol
# Density = 1.957098 g / cm^3
# Si number density = 19.615629 Si / 1000 Ang^3
#
#
#
# Elastic Constant Matrix: (Units=GPa)
#
#
# Indices 1 2 3 4 5 6 
#
# 1 76.3627 -4.8813 13.7070 0.0000 0.0000 0.0000
# 2 -4.8813 29.9768 11.2067 0.0000 0.0000 0.0000
# 3 13.7070 11.2067 109.0289 0.0000 0.0000 0.0000
# 4 0.0000 0.0000 0.0000 24.9527 0.0000 0.0000
# 5 0.0000 0.0000 0.0000 0.0000 0.5004 0.0000
# 6 0.0000 0.0000 0.0000 0.0000 0.0000 36.2562
#
#
#
# Elastic Compliance Matrix: (Units=1/GPa)
#
#
# Indices 1 2 3 4 5 6 
#
# 1 0.013649 0.002978 -0.002022 0.000000 0.000000 0.000000
# 2 0.002978 0.035342 -0.004007 0.000000 0.000000 0.000000
# 3 -0.002022 -0.004007 0.009838 0.000000 0.000000 0.000000
# 4 0.000000 0.000000 0.000000 0.040076 0.000000 0.000000
# 5 0.000000 0.000000 0.000000 0.000000 1.998277 0.000000
# 6 0.000000 0.000000 0.000000 0.000000 0.000000 0.027582
#
#
# Mechanical properties :
#
#
# Convention : Reuss Voigt Hill
#
# Bulk Modulus (GPa) = 18.96548 28.38146 23.67347
# Shear Modulus (GPa) = 2.32727 25.36426 13.84577
#
# Velocity S-wave (km/s) = 1.09042 3.59982 2.65967
# Velocity P-wave (km/s) = 3.35781 5.63724 4.63969
#
# Compressibility (1/GPa) = 0.05272738
#
# Stress axis : x y z
#
# Youngs Moduli (GPa) = 73.26678 28.29482 101.64697
#
# Poissons Ratio (x) = -0.08427 0.20554
# Poissons Ratio (y) = -0.21822 0.40732
# Poissons Ratio (z) = 0.14815 0.11338
#
# Static dielectric constant tensor:
#      x y z
#    x 1.654490 0.000000 0.000000 
#    y 0.000000 1.676790 0.000000 
#    z 0.000000 0.000000 1.691540 
# 
# From -- ./inp_files/15924.got.cif
#   From: 2010.05.17/outbox.cif.g08.bks.cpg/sg62_8_cif.got.tgz:15924.got - 2010.06.03 15:25:27.
