data_PCOD9467261
_publ_section_title
;
Structure prediction by ZEFSAII (Michael W. Deem and Ramdas Pophale) SiO2 
 PCOD9467261
Probable space group: P N M A
;
_chemical_formula_sum "Si O2"
_cell_formula_units_Z 40
_cell_length_a 24.700030
_cell_length_b 12.558794
_cell_length_c 5.312583
_cell_angle_alpha 90.000000
_cell_angle_beta 90.000000
_cell_angle_gamma 90.000000
_cell_volume 1647.976999
_symmetry_space_group_name_H-M "P N M A"
_symmetry_group_IT_number 62
_symmetry_cell_setting 'orthorhombic'
loop_
_space_group_symop_operation_xyz
x,y,z
1/2-x,-y,1/2+z
1/2+x,1/2-y,1/2-z
-x,1/2+y,-z
-x,-y,-z
1/2+x,y,1/2-z
1/2-x,1/2+y,1/2+z
x,1/2-y,z
loop_
_atom_site_type_symbol
_atom_site_label
_atom_site_fract_x
_atom_site_fract_y
_atom_site_fract_z
Si Si1 0.087098 0.132465 0.376639
Si Si2 0.294792 0.138224 0.923637
Si Si3 0.492838 0.750000 0.179785
Si Si4 0.937481 0.250000 0.180830
Si Si5 0.885150 0.048779 0.936975
Si Si6 0.188591 0.072692 0.694294
O O1 0.084955 0.250000 0.247246
O O2 0.147361 0.117716 0.488002
O O3 0.045801 0.150062 0.609358
O O4 0.073855 0.026487 0.219624
O O5 0.302233 0.250000 0.058969
O O6 0.346852 0.113292 0.754234
O O7 0.240435 0.140514 0.760249
O O8 0.287939 0.040248 0.107050
O O9 0.538411 0.750000 0.960672
O O10 0.518418 0.750000 0.453202
O O11 0.907056 0.137740 0.128366
O O12 0.848615 0.959303 0.071237
#
# Coordination Sequence:
#
# PCOD9467261 Si02
#       6
#     8   8   4   4   8   8
#     4   9  24  46  70 101 137 177 245 295 360 426
#     4  11  23  41  65 100 140 186 233 282 356 439
#     4  10  28  50  75 108 137 192 250 304 376 416
#     4  12  28  48  75 106 147 188 244 308 366 432
#     4  11  25  42  71 101 145 185 234 293 364 429
#     4  11  23  43  66 102 141 186 231 292 358 430
#
# _framework density 24.272182999999998
#
# number of rings (size 3 to 8) (size 9 to 14) (size 15 to 20)
#    0.600    0.800    3.000    0.600    9.800    3.200 
#    0.000    0.000    0.000    0.000    0.000    0.000 
#    0.000    0.000    0.000    0.000    0.000    0.000 
#
# Total GULP energy -223519.522300 kJ/mol
# GULP energy per Si atom -5587.988057 kJ/mol
# Density = 2.421694 g / cm^3
# Si number density = 24.272183 Si / 1000 Ang^3
#
#
#
# Elastic Constant Matrix: (Units=GPa)
#
#
# Indices 1 2 3 4 5 6 
#
# 1 60.6052 24.8770 13.6938 0.0000 0.0000 0.0000
# 2 24.8770 129.8030 15.1727 0.0000 0.0000 0.0000
# 3 13.6938 15.1727 51.9301 0.0000 0.0000 0.0000
# 4 0.0000 0.0000 0.0000 64.1155 0.0000 0.0000
# 5 0.0000 0.0000 0.0000 0.0000 39.0976 0.0000
# 6 0.0000 0.0000 0.0000 0.0000 0.0000 15.6849
#
#
#
# Elastic Compliance Matrix: (Units=1/GPa)
#
#
# Indices 1 2 3 4 5 6 
#
# 1 0.018685 -0.003111 -0.004018 0.000000 0.000000 0.000000
# 2 -0.003111 0.008494 -0.001661 0.000000 0.000000 0.000000
# 3 -0.004018 -0.001661 0.020802 0.000000 0.000000 0.000000
# 4 0.000000 0.000000 0.000000 0.015597 0.000000 0.000000
# 5 0.000000 0.000000 0.000000 0.000000 0.025577 0.000000
# 6 0.000000 0.000000 0.000000 0.000000 0.000000 0.063756
#
#
# Mechanical properties :
#
#
# Convention : Reuss Voigt Hill
#
# Bulk Modulus (GPa) = 32.89533 38.86948 35.88240
# Shear Modulus (GPa) = 27.68148 36.35258 32.01703
#
# Velocity S-wave (km/s) = 3.38074 3.87422 3.63586
# Velocity P-wave (km/s) = 5.36854 6.00513 5.69574
#
# Compressibility (1/GPa) = 0.03039946
#
# Stress axis : x y z
#
# Youngs Moduli (GPa) = 53.51804 117.72343 48.07312
#
# Poissons Ratio (x) = 0.36628 0.19317
# Poissons Ratio (y) = 0.16652 0.07987
# Poissons Ratio (z) = 0.21505 0.19559
#
# Static dielectric constant tensor:
#      x y z
#    x 2.031450 0.000000 0.000000 
#    y 0.000000 1.912480 0.000000 
#    z 0.000000 0.000000 1.971250 
# 
# From -- ./inp_files/3083.got.cif
#   From: 2010.05.17/outbox.cif.g08.bks.cpg/sg62_2_cif.got.tgz:3083.got - 2010.06.03 15:25:27.
