data_PCOD9467253
_publ_section_title
;
Structure prediction by ZEFSAII (Michael W. Deem and Ramdas Pophale) SiO2 
 PCOD9467253
Probable space group: P N M A
;
_chemical_formula_sum "Si O2"
_cell_formula_units_Z 28
_cell_length_a 29.132516
_cell_length_b 7.423070
_cell_length_c 4.908603
_cell_angle_alpha 90.000000
_cell_angle_beta 90.000000
_cell_angle_gamma 90.000000
_cell_volume 1061.498679
_symmetry_space_group_name_H-M "P N M A"
_symmetry_group_IT_number 62
_symmetry_cell_setting 'orthorhombic'
loop_
_space_group_symop_operation_xyz
x,y,z
1/2-x,-y,1/2+z
1/2+x,1/2-y,1/2-z
-x,1/2+y,-z
-x,-y,-z
1/2+x,y,1/2-z
1/2-x,1/2+y,1/2+z
x,1/2-y,z
loop_
_atom_site_type_symbol
_atom_site_label
_atom_site_fract_x
_atom_site_fract_y
_atom_site_fract_z
Si Si1 0.221070 0.546197 0.816089
Si Si2 0.413077 0.750000 0.986277
Si Si3 0.133292 0.965033 0.156540
Si Si4 0.957902 0.041202 0.198699
O O1 0.261076 0.545774 0.043915
O O2 0.209969 0.750000 0.733725
O O3 0.177119 0.477059 0.980534
O O4 0.452164 0.593599 0.052697
O O5 0.375380 0.590576 0.913511
O O6 0.135879 0.750000 0.212510
O O7 0.087929 0.004305 0.977290
O O8 0.955826 0.250000 0.272371
O O9 0.000000 0.000000 0.000000
#
# Coordination Sequence:
#
# PCOD9467253 Si02
#       4
#     8   4   8   8
#     4  11  26  46  74 107 144 189 241 302 371 440
#     4  12  24  42  76  96 134 186 234 292 360 418
#     4  10  26  46  66 101 139 183 235 295 360 436
#     4  11  24  46  67 101 144 184 237 298 361 435
#
# _framework density 26.377799
#
# number of rings (size 3 to 8) (size 9 to 14) (size 15 to 20)
#    0.000    1.143    1.429    2.571    8.000    1.143 
#    0.000    0.000    0.000    0.000    0.000    0.000 
#    0.000    0.000    0.000    0.000    0.000    0.000 
#
# Total GULP energy -156008.479482 kJ/mol
# GULP energy per Si atom -5571.731410 kJ/mol
# Density = 2.631776 g / cm^3
# Si number density = 26.377799 Si / 1000 Ang^3
#
#
#
# Elastic Constant Matrix: (Units=GPa)
#
#
# Indices 1 2 3 4 5 6 
#
# 1 131.2668 -5.7056 24.1205 0.0000 0.0000 0.0000
# 2 -5.7056 69.7684 1.4571 0.0000 0.0000 0.0000
# 3 24.1205 1.4571 95.7437 0.0000 0.0000 0.0000
# 4 0.0000 0.0000 0.0000 -20.9766 0.0000 0.0000
# 5 0.0000 0.0000 0.0000 0.0000 57.5393 0.0000
# 6 0.0000 0.0000 0.0000 0.0000 0.0000 40.0824
#
#
#
# Elastic Compliance Matrix: (Units=1/GPa)
#
#
# Indices 1 2 3 4 5 6 
#
# 1 0.008022 0.000698 -0.002032 0.000000 0.000000 0.000000
# 2 0.000698 0.014398 -0.000395 0.000000 0.000000 0.000000
# 3 -0.002032 -0.000395 0.010962 0.000000 0.000000 0.000000
# 4 0.000000 0.000000 0.000000 -0.047672 0.000000 0.000000
# 5 0.000000 0.000000 0.000000 0.000000 0.017379 0.000000
# 6 0.000000 0.000000 0.000000 0.000000 0.000000 0.024949
#
#
# Mechanical properties :
#
#
# Convention : Reuss Voigt Hill
#
# Bulk Modulus (GPa) = 33.41548 37.39144 35.40346
# Shear Modulus (GPa) = 120.56821 33.78947 77.17884
#
# Velocity S-wave (km/s) = 6.76812 3.58296 5.41503
# Velocity P-wave (km/s) = 8.58907 5.59669 7.24897
#
# Compressibility (1/GPa) = 0.02992625
#
# Stress axis : x y z
#
# Youngs Moduli (GPa) = 124.66149 69.45168 91.22122
#
# Poissons Ratio (x) = -0.04851 0.18532
# Poissons Ratio (y) = -0.08707 0.03604
# Poissons Ratio (z) = 0.25325 0.02744
#
# Static dielectric constant tensor:
#      x y z
#    x 2.113750 0.000000 0.000000 
#    y 0.000000 1.972800 0.000000 
#    z 0.000000 0.000000 2.185290 
# 
# From -- ./inp_files/2985.got.cif
#   From: 2010.05.17/outbox.cif.g08.bks.cpg/sg62_2_cif.got.tgz:2985.got - 2010.06.03 15:25:27.
