data_PCOD9467989
_publ_section_title
;
Structure prediction by ZEFSAII (Michael W. Deem and Ramdas Pophale) SiO2 
 PCOD9467989
Probable space group: P N M A
;
_chemical_formula_sum "Si O2"
_cell_formula_units_Z 48
_cell_length_a 24.000000
_cell_length_b 9.000000
_cell_length_c 12.000000
_cell_angle_alpha 90.000000
_cell_angle_beta 90.000000
_cell_angle_gamma 90.000000
_cell_volume 2592.000000
_symmetry_space_group_name_H-M "P N M A"
_symmetry_group_IT_number 62
_symmetry_cell_setting 'orthorhombic'
loop_
_space_group_symop_operation_xyz
x,y,z
1/2-x,-y,1/2+z
1/2+x,1/2-y,1/2-z
-x,1/2+y,-z
-x,-y,-z
1/2+x,y,1/2-z
1/2-x,1/2+y,1/2+z
x,1/2-y,z
loop_
_atom_site_type_symbol
_atom_site_label
_atom_site_fract_x
_atom_site_fract_y
_atom_site_fract_z
Si Si1 0.847238 0.071612 0.180260
Si Si2 0.937891 0.429664 0.997187
Si Si3 0.156424 0.081775 0.586467
Si Si4 0.383072 0.071843 0.741970
Si Si5 0.720044 0.069398 0.128512
Si Si6 0.952148 0.580940 0.568413
O O1 0.848160 0.250000 0.176615
O O2 0.784219 0.026435 0.146322
O O3 0.853810 0.015643 0.305729
O O4 0.897295 0.021185 0.098858
O O5 0.944157 0.250000 0.002254
O O6 0.903944 0.463720 0.882964
O O7 0.000000 0.500000 0.000000
O O8 0.171535 0.250000 0.621057
O O9 0.201786 0.026185 0.497048
O O10 0.100605 0.088284 0.513656
O O11 0.378495 0.250000 0.751871
O O12 0.324577 0.000202 0.784502
O O13 0.430580 0.009291 0.824886
O O14 0.714845 0.250000 0.135639
O O15 0.967909 0.750000 0.599168
O O16 0.000000 0.500000 0.500000
#
# Coordination Sequence:
#
# PCOD9467989 Si02
#       6
#     8   8   8   8   8   8
#     4  10  22  39  60  86 117 153 193 242 295 349
#     4  10  24  42  60  85 119 161 201 244 294 352
#     4   9  20  37  57  83 114 147 187 235 288 347
#     4  10  21  38  61  87 117 152 197 242 293 354
#     4   9  20  39  61  86 118 152 190 240 301 353
#     4  10  21  37  59  85 116 151 190 239 292 342
#
# _framework density 18.518519000000001
#
# number of rings (size 3 to 8) (size 9 to 14) (size 15 to 20)
#    0.000    2.333    0.000    2.000    4.667    6.000 
#    0.000    0.000    0.000    0.000    0.000    0.000 
#    0.000    0.000    0.000    0.000    0.000    0.000 
#
# Total GULP energy -267732.459799 kJ/mol
# GULP energy per Si atom -5577.759579 kJ/mol
# Density = 1.847637 g / cm^3
# Si number density = 18.518519 Si / 1000 Ang^3
#
#
#
# Elastic Constant Matrix: (Units=GPa)
#
#
# Indices 1 2 3 4 5 6 
#
# 1 80.4457 25.9937 46.0619 0.0000 0.0000 0.0000
# 2 25.9937 40.4378 29.6768 0.0000 0.0000 0.0000
# 3 46.0619 29.6768 123.6282 0.0000 0.0000 0.0000
# 4 0.0000 0.0000 0.0000 31.6575 0.0000 0.0000
# 5 0.0000 0.0000 0.0000 0.0000 10.4622 0.0000
# 6 0.0000 0.0000 0.0000 0.0000 0.0000 33.0101
#
#
#
# Elastic Compliance Matrix: (Units=1/GPa)
#
#
# Indices 1 2 3 4 5 6 
#
# 1 0.017672 -0.007923 -0.004682 0.000000 0.000000 0.000000
# 2 -0.007923 0.033570 -0.005106 0.000000 0.000000 0.000000
# 3 -0.004682 -0.005106 0.011059 0.000000 0.000000 0.000000
# 4 0.000000 0.000000 0.000000 0.031588 0.000000 0.000000
# 5 0.000000 0.000000 0.000000 0.000000 0.095582 0.000000
# 6 0.000000 0.000000 0.000000 0.000000 0.000000 0.030294
#
#
# Mechanical properties :
#
#
# Convention : Reuss Voigt Hill
#
# Bulk Modulus (GPa) = 37.20647 49.77518 43.49083
# Shear Modulus (GPa) = 18.92877 24.54459 21.73668
#
# Velocity S-wave (km/s) = 3.20058 3.64456 3.42977
# Velocity P-wave (km/s) = 5.81321 6.68187 6.26262
#
# Compressibility (1/GPa) = 0.02687704
#
# Stress axis : x y z
#
# Youngs Moduli (GPa) = 56.58683 29.78853 90.42354
#
# Poissons Ratio (x) = 0.23603 0.42339
# Poissons Ratio (y) = 0.44836 0.46173
# Poissons Ratio (z) = 0.26496 0.15211
#
# Static dielectric constant tensor:
#      x y z
#    x 1.648650 0.000000 0.000000 
#    y 0.000000 1.655120 0.000000 
#    z 0.000000 0.000000 1.636190 
# 
# From -- ./inp_files/15123.got.cif
#   From: 2010.05.17/outbox.ucp.g08.bks.cvg/sg62_8_cif.got.tgz:15123.got - 2010.06.11 16:29:25.
