data_PCOD9467634
_publ_section_title
;
Structure prediction by ZEFSAII (Michael W. Deem and Ramdas Pophale) SiO2 
 PCOD9467634
Probable space group: P N M A
;
_chemical_formula_sum "Si O2"
_cell_formula_units_Z 32
_cell_length_a 7.410116
_cell_length_b 11.094987
_cell_length_c 16.457576
_cell_angle_alpha 90.000000
_cell_angle_beta 90.000000
_cell_angle_gamma 90.000000
_cell_volume 1353.061926
_symmetry_space_group_name_H-M "P N M A"
_symmetry_group_IT_number 62
_symmetry_cell_setting 'orthorhombic'
loop_
_space_group_symop_operation_xyz
x,y,z
1/2-x,-y,1/2+z
1/2+x,1/2-y,1/2-z
-x,1/2+y,-z
-x,-y,-z
1/2+x,y,1/2-z
1/2-x,1/2+y,1/2+z
x,1/2-y,z
loop_
_atom_site_type_symbol
_atom_site_label
_atom_site_fract_x
_atom_site_fract_y
_atom_site_fract_z
Si Si1 0.124147 0.992427 0.921527
Si Si2 0.131955 0.250000 0.655381
Si Si3 0.440265 0.750000 0.347580
Si Si4 0.653694 0.387216 0.299884
Si Si5 0.480910 0.991615 0.863172
O O1 0.015366 0.909407 0.858503
O O2 0.331750 0.951379 0.928585
O O3 0.133147 0.127939 0.886482
O O4 0.000000 0.000000 0.000000
O O5 0.344652 0.250000 0.639467
O O6 0.103675 0.250000 0.752558
O O7 0.043327 0.372102 0.623785
O O8 0.658064 0.250000 0.270675
O O9 0.624261 0.475416 0.223422
O O10 0.836173 0.416782 0.348855
#
# Coordination Sequence:
#
# PCOD9467634 Si02
#       5
#     8   4   4   8   8
#     4  12  28  46  67 102 143 185 223 283 358 410
#     4  12  20  42  78 107 127 169 241 298 332 392
#     4  12  22  44  70 103 135 171 231 290 342 410
#     4  12  25  44  70 104 135 182 235 282 337 413
#     4  12  23  44  74 102 136 178 234 289 337 408
#
# _framework density 23.650065000000001
#
# number of rings (size 3 to 8) (size 9 to 14) (size 15 to 20)
#    0.000    0.000    7.500    3.000    1.750    2.000 
#    0.000    0.000    0.000    0.000    0.000    0.000 
#    0.000    0.000    0.000    0.000    0.000    0.000 
#
# Total GULP energy -179297.576105 kJ/mol
# GULP energy per Si atom -5603.049253 kJ/mol
# Density = 2.359624 g / cm^3
# Si number density = 23.650065 Si / 1000 Ang^3
#
#
#
# Elastic Constant Matrix: (Units=GPa)
#
#
# Indices 1 2 3 4 5 6 
#
# 1 163.2035 33.9833 -8.5949 0.0000 0.0000 0.0000
# 2 33.9833 98.7087 4.2900 0.0000 0.0000 0.0000
# 3 -8.5949 4.2900 30.0099 0.0000 0.0000 0.0000
# 4 0.0000 0.0000 0.0000 6.8690 0.0000 0.0000
# 5 0.0000 0.0000 0.0000 0.0000 24.4960 0.0000
# 6 0.0000 0.0000 0.0000 0.0000 0.0000 7.4869
#
#
#
# Elastic Compliance Matrix: (Units=1/GPa)
#
#
# Indices 1 2 3 4 5 6 
#
# 1 0.006752 -0.002424 0.002280 0.000000 0.000000 0.000000
# 2 -0.002424 0.011064 -0.002276 0.000000 0.000000 0.000000
# 3 0.002280 -0.002276 0.034301 0.000000 0.000000 0.000000
# 4 0.000000 0.000000 0.000000 0.145582 0.000000 0.000000
# 5 0.000000 0.000000 0.000000 0.000000 0.040823 0.000000
# 6 0.000000 0.000000 0.000000 0.000000 0.000000 0.133567
#
#
# Mechanical properties :
#
#
# Convention : Reuss Voigt Hill
#
# Bulk Modulus (GPa) = 21.15122 39.03098 30.09110
# Shear Modulus (GPa) = 12.73278 25.25328 18.99303
#
# Velocity S-wave (km/s) = 2.32282 3.27125 2.83695
# Velocity P-wave (km/s) = 4.01956 5.55045 4.84584
#
# Compressibility (1/GPa) = 0.04727860
#
# Stress axis : x y z
#
# Youngs Moduli (GPa) = 148.10234 90.38196 29.15383
#
# Poissons Ratio (x) = 0.21906 -0.06648
# Poissons Ratio (y) = 0.35896 0.06635
# Poissons Ratio (z) = -0.33772 0.20569
#
# Static dielectric constant tensor:
#      x y z
#    x 1.948220 0.000000 0.000000 
#    y 0.000000 1.836450 0.000000 
#    z 0.000000 0.000000 1.927670 
# 
# From -- ./inp_files/16483.got.cif
#   From: 2010.05.17/outbox.cif.g08.bks.cpg/sg62_9_cif.got.tgz:16483.got - 2010.06.03 15:25:27.
