data_PCOD9467209
_publ_section_title
;
Structure prediction by ZEFSAII (Michael W. Deem and Ramdas Pophale) SiO2 
 PCOD9467209
Probable space group: P N M A
;
_chemical_formula_sum "Si O2"
_cell_formula_units_Z 28
_cell_length_a 16.956331
_cell_length_b 8.599190
_cell_length_c 7.943677
_cell_angle_alpha 90.000000
_cell_angle_beta 90.000000
_cell_angle_gamma 90.000000
_cell_volume 1158.273199
_symmetry_space_group_name_H-M "P N M A"
_symmetry_group_IT_number 62
_symmetry_cell_setting 'orthorhombic'
loop_
_space_group_symop_operation_xyz
x,y,z
1/2-x,-y,1/2+z
1/2+x,1/2-y,1/2-z
-x,1/2+y,-z
-x,-y,-z
1/2+x,y,1/2-z
1/2-x,1/2+y,1/2+z
x,1/2-y,z
loop_
_atom_site_type_symbol
_atom_site_label
_atom_site_fract_x
_atom_site_fract_y
_atom_site_fract_z
Si Si1 0.964377 0.250000 0.779136
Si Si2 0.941076 0.250000 0.158335
Si Si3 0.338693 0.926108 0.381198
Si Si4 0.928131 0.750000 0.545204
Si Si5 0.335451 0.989739 0.768749
O O1 0.905794 0.391499 0.754869
O O2 0.022148 0.250000 0.622261
O O3 0.985538 0.250000 0.977360
O O4 0.890454 0.415094 0.162727
O O5 0.006375 0.250000 0.304447
O O6 0.362196 0.750000 0.327499
O O7 0.331866 0.917480 0.583256
O O8 0.251184 0.951599 0.309986
O O9 0.868094 0.609621 0.575936
#
# Coordination Sequence:
#
# PCOD9467209 Si02
#       5
#     4   4   8   4   8
#     4  10  24  45  68 107 146 187 247 301 375 445
#     4  10  27  47  75 111 147 202 245 307 384 439
#     4  11  24  48  74 105 147 194 257 312 363 448
#     4  12  25  48  73 110 155 191 246 312 375 452
#     4  11  24  46  68 108 142 191 251 301 370 444
#
# _framework density 24.173916999999999
#
# number of rings (size 3 to 8) (size 9 to 14) (size 15 to 20)
#    0.000    1.143    2.857    1.714    4.000    4.571 
#    7.714    0.000    0.000    0.000    0.000    0.000 
#    0.000    0.000    0.000    0.000    0.000    0.000 
#
# Total GULP energy -156348.792838 kJ/mol
# GULP energy per Si atom -5583.885459 kJ/mol
# Density = 2.411890 g / cm^3
# Si number density = 24.173917 Si / 1000 Ang^3
#
#
#
# Elastic Constant Matrix: (Units=GPa)
#
#
# Indices 1 2 3 4 5 6 
#
# 1 141.6629 52.7045 96.4130 0.0000 0.0000 0.0000
# 2 52.7045 144.3524 57.6523 0.0000 0.0000 0.0000
# 3 96.4130 57.6523 117.6899 0.0000 0.0000 0.0000
# 4 0.0000 0.0000 0.0000 25.8641 0.0000 0.0000
# 5 0.0000 0.0000 0.0000 0.0000 55.0307 0.0000
# 6 0.0000 0.0000 0.0000 0.0000 0.0000 -136.8855
#
#
#
# Elastic Compliance Matrix: (Units=1/GPa)
#
#
# Indices 1 2 3 4 5 6 
#
# 1 0.016020 -0.000755 -0.012754 0.000000 0.000000 0.000000
# 2 -0.000755 0.008648 -0.003618 0.000000 0.000000 0.000000
# 3 -0.012754 -0.003618 0.020717 0.000000 0.000000 0.000000
# 4 0.000000 0.000000 0.000000 0.038664 0.000000 0.000000
# 5 0.000000 0.000000 0.000000 0.000000 0.018172 0.000000
# 6 0.000000 0.000000 0.000000 0.000000 0.000000 -0.007305
#
#
# Mechanical properties :
#
#
# Convention : Reuss Voigt Hill
#
# Bulk Modulus (GPa) = 89.83336 90.80499 90.31917
# Shear Modulus (GPa) = 37.62815 1.93087 19.77951
#
# Velocity S-wave (km/s) = 3.94961 0.89469 2.86355
# Velocity P-wave (km/s) = 7.61847 6.22190 6.95533
#
# Compressibility (1/GPa) = 0.01113172
#
# Stress axis : x y z
#
# Youngs Moduli (GPa) = 62.42189 115.63226 48.26933
#
# Poissons Ratio (x) = 0.08735 0.61562
# Poissons Ratio (y) = 0.04715 0.17462
# Poissons Ratio (z) = 0.79611 0.41831
#
# Static dielectric constant tensor:
#      x y z
#    x 1.846600 0.000000 0.000000 
#    y 0.000000 1.978770 0.000000 
#    z 0.000000 0.000000 1.886850 
# 
# From -- ./inp_files/7165.got.cif
#   From: 2010.05.17/outbox.cif.g08.bks.cpg/sg62_4_cif.got.tgz:7165.got - 2010.06.03 15:25:27.
