data_PCOD9467126
_publ_section_title
;
Structure prediction by ZEFSAII (Michael W. Deem and Ramdas Pophale) SiO2 
 PCOD9467126
Probable space group: P N M A
;
_chemical_formula_sum "Si O2"
_cell_formula_units_Z 56
_cell_length_a 15.200404
_cell_length_b 31.202683
_cell_length_c 5.747976
_cell_angle_alpha 90.000000
_cell_angle_beta 90.000000
_cell_angle_gamma 90.000000
_cell_volume 2726.227008
_symmetry_space_group_name_H-M "P N M A"
_symmetry_group_IT_number 62
_symmetry_cell_setting 'orthorhombic'
loop_
_space_group_symop_operation_xyz
x,y,z
1/2-x,-y,1/2+z
1/2+x,1/2-y,1/2-z
-x,1/2+y,-z
-x,-y,-z
1/2+x,y,1/2-z
1/2-x,1/2+y,1/2+z
x,1/2-y,z
loop_
_atom_site_type_symbol
_atom_site_label
_atom_site_fract_x
_atom_site_fract_y
_atom_site_fract_z
Si Si1 0.331268 0.041084 0.983347
Si Si2 0.775250 0.863873 0.442893
Si Si3 0.385687 0.797953 0.799386
Si Si4 0.431403 0.673533 0.294682
Si Si5 0.911746 0.389627 0.862981
Si Si6 0.315229 0.551340 0.824477
Si Si7 0.513987 0.961423 0.681392
O O1 0.252695 0.063472 0.121950
O O2 0.412735 0.023544 0.136779
O O3 0.376417 0.075516 0.818700
O O4 0.292460 0.998367 0.868354
O O5 0.815186 0.835967 0.655935
O O6 0.671240 0.859828 0.420761
O O7 0.796065 0.914172 0.476754
O O8 0.833303 0.846275 0.230368
O O9 0.347309 0.750000 0.788637
O O10 0.434975 0.805677 0.552667
O O11 0.438643 0.800689 0.047976
O O12 0.505168 0.637171 0.279973
O O13 0.942836 0.418771 0.076296
O O14 0.418008 0.551746 0.768913
O O15 0.500000 0.000000 0.500000
#
# Coordination Sequence:
#
# PCOD9467126 Si02
#       7
#     8   8   8   8   8   8   8
#     4  12  26  42  61  94 140 186 242 290 339 413
#     4  10  25  42  70 100 135 182 228 290 345 417
#     4  10  23  49  76 105 137 177 223 282 358 432
#     4  10  25  43  76 102 139 183 222 285 349 419
#     4  12  25  43  64 102 138 183 234 287 344 413
#     4  12  23  42  63  93 136 186 236 287 348 394
#     4  12  25  40  60  90 131 185 242 291 340 398
#
# _framework density 20.541208999999998
#
# number of rings (size 3 to 8) (size 9 to 14) (size 15 to 20)
#    0.857    0.000    2.857    4.286    8.000    0.000 
#    0.000    1.429    0.000    0.000    0.000    0.000 
#    0.000    0.000    0.000    0.000    0.000    0.000 
#
# Total GULP energy -312218.915334 kJ/mol
# GULP energy per Si atom -5575.337774 kJ/mol
# Density = 2.049446 g / cm^3
# Si number density = 20.541209 Si / 1000 Ang^3
#
#
#
# Elastic Constant Matrix: (Units=GPa)
#
#
# Indices 1 2 3 4 5 6 
#
# 1 70.4101 4.2386 15.9613 0.0000 0.0000 0.0000
# 2 4.2386 76.7425 19.4527 0.0000 0.0000 0.0000
# 3 15.9613 19.4527 96.6499 0.0000 0.0000 0.0000
# 4 0.0000 0.0000 0.0000 13.8438 0.0000 0.0000
# 5 0.0000 0.0000 0.0000 0.0000 32.1284 0.0000
# 6 0.0000 0.0000 0.0000 0.0000 0.0000 -1.4207
#
#
#
# Elastic Compliance Matrix: (Units=1/GPa)
#
#
# Indices 1 2 3 4 5 6 
#
# 1 0.014758 -0.000208 -0.002395 0.000000 0.000000 0.000000
# 2 -0.000208 0.013734 -0.002730 0.000000 0.000000 0.000000
# 3 -0.002395 -0.002730 0.011292 0.000000 0.000000 0.000000
# 4 0.000000 0.000000 0.000000 0.072235 0.000000 0.000000
# 5 0.000000 0.000000 0.000000 0.000000 0.031125 0.000000
# 6 0.000000 0.000000 0.000000 0.000000 0.000000 -0.703902
#
#
# Mechanical properties :
#
#
# Convention : Reuss Voigt Hill
#
# Bulk Modulus (GPa) = 34.34382 35.90085 35.12233
# Shear Modulus (GPa) = -9.25265 22.52029 6.63382
#
# Velocity S-wave (km/s) = -2.12467 3.31470 1.79904
# Velocity P-wave (km/s) = 3.27671 5.67143 4.63152
#
# Compressibility (1/GPa) = 0.02911732
#
# Stress axis : x y z
#
# Youngs Moduli (GPa) = 67.75970 72.81169 88.56094
#
# Poissons Ratio (x) = 0.01514 0.21214
# Poissons Ratio (y) = 0.01409 0.24176
# Poissons Ratio (z) = 0.16231 0.19877
#
# Static dielectric constant tensor:
#      x y z
#    x 1.766220 0.000000 0.000000 
#    y 0.000000 1.709080 0.000000 
#    z 0.000000 0.000000 1.817030 
# 
# From -- ./inp_files/1271.got.cif
#   From: 2010.05.17/outbox.cif.g08.bks.cpg/sg62_1_cif.got.tgz:1271.got - 2010.06.03 15:25:27.
