data_PCOD9467543
_publ_section_title
;
Structure prediction by ZEFSAII (Michael W. Deem and Ramdas Pophale) SiO2 
 PCOD9467543
Probable space group: P N M A
;
_chemical_formula_sum "Si O2"
_cell_formula_units_Z 44
_cell_length_a 15.310703
_cell_length_b 14.344487
_cell_length_c 9.489090
_cell_angle_alpha 90.000000
_cell_angle_beta 90.000000
_cell_angle_gamma 90.000000
_cell_volume 2084.033612
_symmetry_space_group_name_H-M "P N M A"
_symmetry_group_IT_number 62
_symmetry_cell_setting 'orthorhombic'
loop_
_space_group_symop_operation_xyz
x,y,z
1/2-x,-y,1/2+z
1/2+x,1/2-y,1/2-z
-x,1/2+y,-z
-x,-y,-z
1/2+x,y,1/2-z
1/2-x,1/2+y,1/2+z
x,1/2-y,z
loop_
_atom_site_type_symbol
_atom_site_label
_atom_site_fract_x
_atom_site_fract_y
_atom_site_fract_z
Si Si1 0.485254 0.750000 0.833917
Si Si2 0.424150 0.575572 0.015412
Si Si3 0.716369 0.750000 0.144424
Si Si4 0.807044 0.250000 0.311388
Si Si5 0.359148 0.598075 0.330282
Si Si6 0.233038 0.591022 0.903172
Si Si7 0.855047 0.250000 0.918472
Si Si8 0.550131 0.250000 0.480173
O O1 0.587874 0.750000 0.796713
O O2 0.434201 0.750000 0.686079
O O3 0.459098 0.662836 0.928083
O O4 0.407825 0.595201 0.180538
O O5 0.331763 0.495034 0.377570
O O6 0.500000 0.500000 0.000000
O O7 0.772036 0.840528 0.185413
O O8 0.635100 0.750000 0.249780
O O9 0.706430 0.750000 0.978012
O O10 0.768275 0.158383 0.234451
O O11 0.171323 0.445786 0.447827
O O12 0.411781 0.657707 0.445702
O O13 0.197222 0.660193 0.024046
O O14 0.948088 0.250000 0.989900
#
# Coordination Sequence:
#
# PCOD9467543 Si02
#       8
#     4   8   4   4   8   8   4   4
#     4  12  25  49  73 105 153 182 249 305 361 437
#     4  12  28  47  75 111 147 197 244 307 370 440
#     4  11  25  43  73 103 143 189 241 293 363 437
#     4  11  26  45  76 107 138 198 244 291 369 433
#     4  11  27  46  70 108 150 186 248 296 369 444
#     4  11  25  49  73 101 150 190 246 299 358 441
#     4  11  23  49  74 100 142 198 235 308 361 428
#     4  11  27  46  72 109 142 193 239 305 372 427
#
# _framework density 21.112904
#
# number of rings (size 3 to 8) (size 9 to 14) (size 15 to 20)
#    0.000    0.727    3.636    3.273   12.727    0.727 
#    0.000    0.000    0.000    0.000    0.000    0.000 
#    0.000    0.000    0.000    0.000    0.000    0.000 
#
# Total GULP energy -246046.468884 kJ/mol
# GULP energy per Si atom -5591.965202 kJ/mol
# Density = 2.106485 g / cm^3
# Si number density = 21.112904 Si / 1000 Ang^3
#
#
#
# Elastic Constant Matrix: (Units=GPa)
#
#
# Indices 1 2 3 4 5 6 
#
# 1 110.6636 55.0028 58.0390 0.0000 0.0000 0.0000
# 2 55.0028 143.0243 115.3234 0.0000 0.0000 0.0000
# 3 58.0390 115.3234 196.6365 0.0000 0.0000 0.0000
# 4 0.0000 0.0000 0.0000 -7.7317 0.0000 0.0000
# 5 0.0000 0.0000 0.0000 0.0000 38.8227 0.0000
# 6 0.0000 0.0000 0.0000 0.0000 0.0000 33.1664
#
#
#
# Elastic Compliance Matrix: (Units=1/GPa)
#
#
# Indices 1 2 3 4 5 6 
#
# 1 0.011402 -0.003171 -0.001506 0.000000 0.000000 0.000000
# 2 -0.003171 0.014146 -0.007361 0.000000 0.000000 0.000000
# 3 -0.001506 -0.007361 0.009847 0.000000 0.000000 0.000000
# 4 0.000000 0.000000 0.000000 -0.129337 0.000000 0.000000
# 5 0.000000 0.000000 0.000000 0.000000 0.025758 0.000000
# 6 0.000000 0.000000 0.000000 0.000000 0.000000 0.030151
#
#
# Mechanical properties :
#
#
# Convention : Reuss Voigt Hill
#
# Bulk Modulus (GPa) = 88.33303 100.78386 94.55845
# Shear Modulus (GPa) = -490.91258 27.64876 -231.63191
#
# Velocity S-wave (km/s) = -15.26508 3.62272 -10.48567
# Velocity P-wave (km/s) = 16.39413 8.08320 10.08537
#
# Compressibility (1/GPa) = 0.01132079
#
# Stress axis : x y z
#
# Youngs Moduli (GPa) = 87.70322 70.69060 101.55539
#
# Poissons Ratio (x) = 0.22414 0.15293
# Poissons Ratio (y) = 0.27808 0.74751
# Poissons Ratio (z) = 0.13207 0.52032
#
# Static dielectric constant tensor:
#      x y z
#    x 1.777410 0.000000 0.000000 
#    y 0.000000 1.762660 0.000000 
#    z 0.000000 0.000000 1.773500 
# 
# From -- ./inp_files/7597.got.cif
#   From: 2010.05.17/outbox.cif.g08.bks.cpg/sg62_4_cif.got.tgz:7597.got - 2010.06.03 15:25:27.
