data_PCOD9467258
_publ_section_title
;
Structure prediction by ZEFSAII (Michael W. Deem and Ramdas Pophale) SiO2 
 PCOD9467258
Probable space group: P N M A
;
_chemical_formula_sum "Si O2"
_cell_formula_units_Z 44
_cell_length_a 16.001890
_cell_length_b 24.124376
_cell_length_c 4.952060
_cell_angle_alpha 90.000000
_cell_angle_beta 90.000000
_cell_angle_gamma 90.000000
_cell_volume 1911.671508
_symmetry_space_group_name_H-M "P N M A"
_symmetry_group_IT_number 62
_symmetry_cell_setting 'orthorhombic'
loop_
_space_group_symop_operation_xyz
x,y,z
1/2-x,-y,1/2+z
1/2+x,1/2-y,1/2-z
-x,1/2+y,-z
-x,-y,-z
1/2+x,y,1/2-z
1/2-x,1/2+y,1/2+z
x,1/2-y,z
loop_
_atom_site_type_symbol
_atom_site_label
_atom_site_fract_x
_atom_site_fract_y
_atom_site_fract_z
Si Si1 0.468014 0.250000 0.466653
Si Si2 0.674434 0.142685 0.272791
Si Si3 0.638214 0.650297 0.769150
Si Si4 0.082572 0.583761 0.231579
Si Si5 0.930651 0.655002 0.283676
Si Si6 0.804519 0.514513 0.629476
O O1 0.421025 0.201402 0.289399
O O2 0.511373 0.298083 0.658256
O O3 0.765942 0.166328 0.219138
O O4 0.646999 0.149031 0.580725
O O5 0.678625 0.078154 0.195021
O O6 0.604157 0.168641 0.079081
O O7 0.609797 0.600723 0.569157
O O8 0.630557 0.626281 0.069045
O O9 0.115109 0.523397 0.309497
O O10 0.985685 0.598714 0.278065
O O11 0.768834 0.506787 0.329727
#
# Coordination Sequence:
#
# PCOD9467258 Si02
#       6
#     4   8   8   8   8   8
#     4  10  26  48  68  92 130 188 216 278 350 398
#     4  12  24  42  68 105 135 173 230 293 334 407
#     4  11  23  42  71  95 128 178 242 270 328 416
#     4  11  22  43  66  99 136 183 222 272 341 425
#     4  11  26  42  66  98 145 171 225 293 348 399
#     4  12  22  40  71  99 137 182 223 280 343 407
#
# _framework density 23.016507000000001
#
# number of rings (size 3 to 8) (size 9 to 14) (size 15 to 20)
#    0.000    0.727    3.636    4.364    0.000    9.455 
#    0.000    0.000    0.000    0.000    0.000    0.000 
#    0.000    0.000    0.000    0.000    0.000    0.000 
#
# Total GULP energy -245408.577315 kJ/mol
# GULP energy per Si atom -5577.467666 kJ/mol
# Density = 2.296412 g / cm^3
# Si number density = 23.016507 Si / 1000 Ang^3
#
#
#
# Elastic Constant Matrix: (Units=GPa)
#
#
# Indices 1 2 3 4 5 6 
#
# 1 62.5673 -13.2911 13.4147 0.0000 0.0000 0.0000
# 2 -13.2911 86.8883 -5.1384 0.0000 0.0000 0.0000
# 3 13.4147 -5.1384 64.9973 0.0000 0.0000 0.0000
# 4 0.0000 0.0000 0.0000 13.2139 0.0000 0.0000
# 5 0.0000 0.0000 0.0000 0.0000 43.5942 0.0000
# 6 0.0000 0.0000 0.0000 0.0000 0.0000 -4.2826
#
#
#
# Elastic Compliance Matrix: (Units=1/GPa)
#
#
# Indices 1 2 3 4 5 6 
#
# 1 0.017221 0.002435 -0.003362 0.000000 0.000000 0.000000
# 2 0.002435 0.011908 0.000439 0.000000 0.000000 0.000000
# 3 -0.003362 0.000439 0.016114 0.000000 0.000000 0.000000
# 4 0.000000 0.000000 0.000000 0.075678 0.000000 0.000000
# 5 0.000000 0.000000 0.000000 0.000000 0.022939 0.000000
# 6 0.000000 0.000000 0.000000 0.000000 0.000000 -0.233505
#
#
# Mechanical properties :
#
#
# Convention : Reuss Voigt Hill
#
# Bulk Modulus (GPa) = 22.59011 22.71369 22.65190
# Shear Modulus (GPa) = -67.64529 25.13628 -21.25451
#
# Velocity S-wave (km/s) = -5.42713 3.30828 -3.04212
# Velocity P-wave (km/s) = 5.42545 4.94801 1.57366
#
# Compressibility (1/GPa) = 0.04426716
#
# Stress axis : x y z
#
# Youngs Moduli (GPa) = 58.06892 83.98057 62.05878
#
# Poissons Ratio (x) = -0.20453 0.20862
# Poissons Ratio (y) = -0.14142 -0.02723
# Poissons Ratio (z) = 0.19521 -0.03684
#
# Static dielectric constant tensor:
#      x y z
#    x 1.896520 0.000000 0.000000 
#    y 0.000000 1.872300 0.000000 
#    z 0.000000 0.000000 1.821030 
# 
# From -- ./inp_files/1098.got.cif
#   From: 2010.05.17/outbox.cif.g08.bks.cpg/sg62_1_cif.got.tgz:1098.got - 2010.06.03 15:25:27.
