data_PCOD9467878
_publ_section_title
;
Structure prediction by ZEFSAII (Michael W. Deem and Ramdas Pophale) SiO2 
 PCOD9467878
Probable space group: P N M A
;
_chemical_formula_sum "Si O2"
_cell_formula_units_Z 64
_cell_length_a 15.000000
_cell_length_b 9.000000
_cell_length_c 24.000000
_cell_angle_alpha 90.000000
_cell_angle_beta 90.000000
_cell_angle_gamma 90.000000
_cell_volume 3240.000000
_symmetry_space_group_name_H-M "P N M A"
_symmetry_group_IT_number 62
_symmetry_cell_setting 'orthorhombic'
loop_
_space_group_symop_operation_xyz
x,y,z
1/2-x,-y,1/2+z
1/2+x,1/2-y,1/2-z
-x,1/2+y,-z
-x,-y,-z
1/2+x,y,1/2-z
1/2-x,1/2+y,1/2+z
x,1/2-y,z
loop_
_atom_site_type_symbol
_atom_site_label
_atom_site_fract_x
_atom_site_fract_y
_atom_site_fract_z
Si Si1 0.767717 0.426330 0.340031
Si Si2 0.866780 0.071939 0.924071
Si Si3 0.810362 0.574411 0.727366
Si Si4 0.713538 0.572706 0.542755
Si Si5 0.014942 0.920560 0.233414
Si Si6 0.437192 0.573037 0.385542
Si Si7 0.055193 0.079908 0.642016
Si Si8 0.142883 0.927876 0.387896
O O1 0.758688 0.250000 0.342516
O O2 0.687999 0.500953 0.373910
O O3 0.761435 0.468373 0.274456
O O4 0.859669 0.479066 0.367184
O O5 0.859613 0.250000 0.919937
O O6 0.971007 0.036152 0.917781
O O7 0.824382 0.025093 0.982737
O O8 0.804675 0.750000 0.716043
O O9 0.903865 0.532729 0.757135
O O10 0.811999 0.486960 0.669317
O O11 0.722271 0.750000 0.543261
O O12 0.642165 0.519785 0.588497
O O13 0.805858 0.497472 0.560302
O O14 0.049362 0.750000 0.225096
O O15 0.956743 0.956784 0.179465
O O16 0.963032 0.920157 0.291579
O O17 0.419227 0.750000 0.391563
O O18 0.074035 0.250000 0.624962
O O19 0.961667 0.031122 0.615141
O O20 0.148333 0.750000 0.388074
#
# Coordination Sequence:
#
# PCOD9467878 Si02
#       8
#     8   8   8   8   8   8   8   8
#     4  11  23  36  57  89 119 152 193 239 297 349
#     4  10  22  41  62  84 117 158 199 242 289 347
#     4  10  20  34  54  85 120 152 185 236 296 344
#     4  11  24  39  59  88 118 153 196 247 302 346
#     4   9  18  34  56  84 115 154 196 231 278 345
#     4  10  20  36  59  87 118 158 200 236 283 348
#     4   9  20  37  58  84 115 151 194 241 289 346
#     4  10  22  41  62  84 113 156 202 243 290 350
#
# _framework density 19.753086
#
# number of rings (size 3 to 8) (size 9 to 14) (size 15 to 20)
#    0.000    2.000    1.250    2.625    1.750    6.000 
#    0.000    0.625    0.000    0.000    0.000    0.000 
#    0.000    0.000    0.000    0.000    0.000    0.000 
#
# Total GULP energy -357379.728125 kJ/mol
# GULP energy per Si atom -5584.058252 kJ/mol
# Density = 1.970813 g / cm^3
# Si number density = 19.753086 Si / 1000 Ang^3
#
#
#
# Elastic Constant Matrix: (Units=GPa)
#
#
# Indices 1 2 3 4 5 6 
#
# 1 49.2969 13.0954 -21.4671 0.0000 0.0000 0.0000
# 2 13.0954 14.8045 -9.8934 0.0000 0.0000 0.0000
# 3 -21.4671 -9.8934 6.4225 0.0000 0.0000 0.0000
# 4 0.0000 0.0000 0.0000 26.8738 0.0000 0.0000
# 5 0.0000 0.0000 0.0000 0.0000 5.2325 0.0000
# 6 0.0000 0.0000 0.0000 0.0000 0.0000 27.7397
#
#
#
# Elastic Compliance Matrix: (Units=1/GPa)
#
#
# Indices 1 2 3 4 5 6 
#
# 1 0.001119 -0.051326 -0.075323 0.000000 0.000000 0.000000
# 2 -0.051326 0.057708 -0.082661 0.000000 0.000000 0.000000
# 3 -0.075323 -0.082661 -0.223397 0.000000 0.000000 0.000000
# 4 0.000000 0.000000 0.000000 0.037211 0.000000 0.000000
# 5 0.000000 0.000000 0.000000 0.000000 0.191114 0.000000
# 6 0.000000 0.000000 0.000000 0.000000 0.000000 0.036049
#
#
# Mechanical properties :
#
#
# Convention : Reuss Voigt Hill
#
# Bulk Modulus (GPa) = -1.71471 3.77710 1.03120
# Shear Modulus (GPa) = 15.43078 17.88847 16.65963
#
# Velocity S-wave (km/s) = 2.79800 3.01259 2.90727
# Velocity P-wave (km/s) = 3.09329 3.74396 3.43407
#
# Compressibility (1/GPa) = -0.58318979
#
# Stress axis : x y z
#
# Youngs Moduli (GPa) = 893.55448 17.32867 -4.47634
#
# Poissons Ratio (x) = 0.88941 -0.33717
# Poissons Ratio (y) = 45.86238 -0.37002
# Poissons Ratio (z) = 67.30526 1.43241
#
# Static dielectric constant tensor:
#      x y z
#    x 1.701200 0.000000 0.000000 
#    y 0.000000 2.031270 0.000000 
#    z 0.000000 0.000000 1.701220 
# 
# From -- ./inp_files/29892.got.cif
#   From: 2010.05.17/outbox.ucp.g08.bks.cvg/sg62_15_cif.got.tgz:29892.got - 2010.06.11 16:29:25.
