data_PCOD9467632
_publ_section_title
;
Structure prediction by ZEFSAII (Michael W. Deem and Ramdas Pophale) SiO2 
 PCOD9467632
Probable space group: P N M A
;
_chemical_formula_sum "Si O2"
_cell_formula_units_Z 20
_cell_length_a 14.018511
_cell_length_b 8.330295
_cell_length_c 7.323367
_cell_angle_alpha 90.000000
_cell_angle_beta 90.000000
_cell_angle_gamma 90.000000
_cell_volume 855.210584
_symmetry_space_group_name_H-M "P N M A"
_symmetry_group_IT_number 62
_symmetry_cell_setting 'orthorhombic'
loop_
_space_group_symop_operation_xyz
x,y,z
1/2-x,-y,1/2+z
1/2+x,1/2-y,1/2-z
-x,1/2+y,-z
-x,-y,-z
1/2+x,y,1/2-z
1/2-x,1/2+y,1/2+z
x,1/2-y,z
loop_
_atom_site_type_symbol
_atom_site_label
_atom_site_fract_x
_atom_site_fract_y
_atom_site_fract_z
Si Si1 0.316538 0.750000 0.787631
Si Si2 0.587492 0.924126 0.336883
Si Si3 0.908872 0.250000 0.188160
Si Si4 0.472251 0.750000 0.059650
O O1 0.355704 0.586397 0.696498
O O2 0.203478 0.750000 0.780516
O O3 0.364189 0.750000 0.989719
O O4 0.642604 0.750000 0.299123
O O5 0.565367 0.895142 0.550083
O O6 0.504222 0.897801 0.187221
O O7 0.965623 0.250000 0.374976
#
# Coordination Sequence:
#
# PCOD9467632 Si02
#       4
#     4   8   4   4
#     4  12  20  40  68  84 120 174 184 246 326 322
#     4   8  23  40  57  90 118 153 204 245 290 361
#     4   9  23  41  57  94 124 146 215 247 277 381
#     4   9  21  41  63  88 126 152 201 253 287 365
#
# _framework density 23.386054999999999
#
# number of rings (size 3 to 8) (size 9 to 14) (size 15 to 20)
#    2.400    0.000    0.000    1.200    5.600    1.600 
#    0.000   10.000    0.000    0.000    0.000    0.000 
#    0.000    0.000    0.000    0.000    0.000    0.000 
#
# Total GULP energy -111386.588225 kJ/mol
# GULP energy per Si atom -5569.329411 kJ/mol
# Density = 2.333283 g / cm^3
# Si number density = 23.386055 Si / 1000 Ang^3
#
#
#
# Elastic Constant Matrix: (Units=GPa)
#
#
# Indices 1 2 3 4 5 6 
#
# 1 86.7236 17.5109 44.1954 0.0000 0.0000 0.0000
# 2 17.5109 186.6239 67.0051 0.0000 0.0000 0.0000
# 3 44.1954 67.0051 162.7285 0.0000 0.0000 0.0000
# 4 0.0000 0.0000 0.0000 45.7606 0.0000 0.0000
# 5 0.0000 0.0000 0.0000 0.0000 15.0113 0.0000
# 6 0.0000 0.0000 0.0000 0.0000 0.0000 14.6759
#
#
#
# Elastic Compliance Matrix: (Units=1/GPa)
#
#
# Indices 1 2 3 4 5 6 
#
# 1 0.013384 0.000058 -0.003659 0.000000 0.000000 0.000000
# 2 0.000058 0.006288 -0.002605 0.000000 0.000000 0.000000
# 3 -0.003659 -0.002605 0.008211 0.000000 0.000000 0.000000
# 4 0.000000 0.000000 0.000000 0.021853 0.000000 0.000000
# 5 0.000000 0.000000 0.000000 0.000000 0.066617 0.000000
# 6 0.000000 0.000000 0.000000 0.000000 0.000000 0.068139
#
#
# Mechanical properties :
#
#
# Convention : Reuss Voigt Hill
#
# Bulk Modulus (GPa) = 64.63372 77.05542 70.84457
# Shear Modulus (GPa) = 24.74503 35.58052 30.16277
#
# Velocity S-wave (km/s) = 3.25639 3.90480 3.59524
# Velocity P-wave (km/s) = 6.46811 7.30416 6.89881
#
# Compressibility (1/GPa) = 0.01547180
#
# Stress axis : x y z
#
# Youngs Moduli (GPa) = 74.71756 159.02754 121.78070
#
# Poissons Ratio (x) = -0.00920 0.44556
# Poissons Ratio (y) = -0.00432 0.31723
# Poissons Ratio (z) = 0.27337 0.41426
#
# Static dielectric constant tensor:
#      x y z
#    x 1.894870 0.000000 0.000000 
#    y 0.000000 2.042520 0.000000 
#    z 0.000000 0.000000 1.895040 
# 
# From -- ./inp_files/5600.got.cif
#   From: 2010.05.17/outbox.cif.g08.bks.cpg/sg62_3_cif.got.tgz:5600.got - 2010.06.03 15:25:27.
