data_PCOD9467223
_publ_section_title
;
Structure prediction by ZEFSAII (Michael W. Deem and Ramdas Pophale) SiO2 
 PCOD9467223
Probable space group: P N M A
;
_chemical_formula_sum "Si O2"
_cell_formula_units_Z 60
_cell_length_a 8.433549
_cell_length_b 23.836647
_cell_length_c 11.705652
_cell_angle_alpha 90.000000
_cell_angle_beta 90.000000
_cell_angle_gamma 90.000000
_cell_volume 2353.158314
_symmetry_space_group_name_H-M "P N M A"
_symmetry_group_IT_number 62
_symmetry_cell_setting 'orthorhombic'
loop_
_space_group_symop_operation_xyz
x,y,z
1/2-x,-y,1/2+z
1/2+x,1/2-y,1/2-z
-x,1/2+y,-z
-x,-y,-z
1/2+x,y,1/2-z
1/2-x,1/2+y,1/2+z
x,1/2-y,z
loop_
_atom_site_type_symbol
_atom_site_label
_atom_site_fract_x
_atom_site_fract_y
_atom_site_fract_z
Si Si1 0.416551 0.940759 0.155357
Si Si2 0.326082 0.750000 0.439295
Si Si3 0.894304 0.380917 0.181015
Si Si4 0.859107 0.571286 0.984086
Si Si5 0.989054 0.350088 0.828755
Si Si6 0.773053 0.993258 0.652377
Si Si7 0.210371 0.153516 0.525150
Si Si8 0.119063 0.660333 0.566990
O O1 0.497954 0.885000 0.212610
O O2 0.545597 0.988811 0.136486
O O3 0.291253 0.966859 0.244332
O O4 0.331933 0.912055 0.047913
O O5 0.393834 0.700806 0.352878
O O6 0.257698 0.701762 0.528713
O O7 0.766362 0.430680 0.188847
O O8 0.825952 0.339892 0.083225
O O9 0.915094 0.348454 0.299088
O O10 0.046537 0.413774 0.130614
O O11 0.686901 0.600391 0.974499
O O12 0.825101 0.511158 0.038781
O O13 0.962812 0.602823 0.079145
O O14 0.813702 0.329498 0.865018
O O15 0.041755 0.179793 0.495013
#
# Coordination Sequence:
#
# PCOD9467223 Si02
#       8
#     8   4   8   8   8   8   8   8
#     4  11  22  41  67 103 142 179 226 286 343 419
#     4  10  24  48  78  98 132 180 222 288 376 414
#     4  11  25  40  62 100 144 191 241 279 334 415
#     4   9  20  41  60  90 140 186 223 290 340 401
#     4   9  21  43  69  97 131 171 220 283 357 422
#     4  11  23  38  67  98 143 191 234 279 353 404
#     4  11  23  43  67  97 143 176 225 293 337 409
#     4  11  23  43  69 100 135 178 238 295 338 414
#
# _framework density 25.497648000000002
#
# number of rings (size 3 to 8) (size 9 to 14) (size 15 to 20)
#    0.000    1.600    2.667    1.200    3.733    2.133 
#    0.000   13.333    0.000    0.000    0.000    0.000 
#    0.000    0.000    0.000    0.000    0.000    0.000 
#
# Total GULP energy -334542.092561 kJ/mol
# GULP energy per Si atom -5575.701543 kJ/mol
# Density = 2.543961 g / cm^3
# Si number density = 25.497648 Si / 1000 Ang^3
#
#
#
# Elastic Constant Matrix: (Units=GPa)
#
#
# Indices 1 2 3 4 5 6 
#
# 1 87.5192 -0.5140 53.4835 0.0000 0.0000 0.0000
# 2 -0.5140 83.7382 21.7733 0.0000 0.0000 0.0000
# 3 53.4835 21.7733 99.4642 0.0000 0.0000 0.0000
# 4 0.0000 0.0000 0.0000 8.9592 0.0000 0.0000
# 5 0.0000 0.0000 0.0000 0.0000 37.3065 0.0000
# 6 0.0000 0.0000 0.0000 0.0000 0.0000 27.4788
#
#
#
# Elastic Compliance Matrix: (Units=1/GPa)
#
#
# Indices 1 2 3 4 5 6 
#
# 1 0.017584 0.002721 -0.010051 0.000000 0.000000 0.000000
# 2 0.002721 0.013084 -0.004327 0.000000 0.000000 0.000000
# 3 -0.010051 -0.004327 0.016406 0.000000 0.000000 0.000000
# 4 0.000000 0.000000 0.000000 0.111617 0.000000 0.000000
# 5 0.000000 0.000000 0.000000 0.000000 0.026805 0.000000
# 6 0.000000 0.000000 0.000000 0.000000 0.000000 0.036392
#
#
# Mechanical properties :
#
#
# Convention : Reuss Voigt Hill
#
# Bulk Modulus (GPa) = 42.08813 46.68969 44.38891
# Shear Modulus (GPa) = 19.75331 27.81416 23.78374
#
# Velocity S-wave (km/s) = 2.78638 3.30639 3.05746
# Velocity P-wave (km/s) = 5.18598 5.73824 5.46909
#
# Compressibility (1/GPa) = 0.02375967
#
# Stress axis : x y z
#
# Youngs Moduli (GPa) = 56.86877 76.42983 60.95394
#
# Poissons Ratio (x) = -0.20800 0.61266
# Poissons Ratio (y) = -0.15476 0.26378
# Poissons Ratio (z) = 0.57159 0.33075
#
# Static dielectric constant tensor:
#      x y z
#    x 2.110390 0.000000 0.000000 
#    y 0.000000 1.907440 0.000000 
#    z 0.000000 0.000000 2.045020 
# 
# From -- ./inp_files/11451.got.cif
#   From: 2010.05.17/outbox.cif.g08.bks.cpg/sg62_6_cif.got.tgz:11451.got - 2010.06.03 15:25:27.
