data_PCOD9467790
_publ_section_title
;
Structure prediction by ZEFSAII (Michael W. Deem and Ramdas Pophale) SiO2 
 PCOD9467790
Probable space group: P N M A
;
_chemical_formula_sum "Si O2"
_cell_formula_units_Z 64
_cell_length_a 18.000000
_cell_length_b 9.000000
_cell_length_c 24.000000
_cell_angle_alpha 90.000000
_cell_angle_beta 90.000000
_cell_angle_gamma 90.000000
_cell_volume 3888.000000
_symmetry_space_group_name_H-M "P N M A"
_symmetry_group_IT_number 62
_symmetry_cell_setting 'orthorhombic'
loop_
_space_group_symop_operation_xyz
x,y,z
1/2-x,-y,1/2+z
1/2+x,1/2-y,1/2-z
-x,1/2+y,-z
-x,-y,-z
1/2+x,y,1/2-z
1/2-x,1/2+y,1/2+z
x,1/2-y,z
loop_
_atom_site_type_symbol
_atom_site_label
_atom_site_fract_x
_atom_site_fract_y
_atom_site_fract_z
Si Si1 0.910065 0.428918 0.704430
Si Si2 0.331168 0.071942 0.446009
Si Si3 0.812870 0.574895 0.237636
Si Si4 0.819558 0.073855 0.814143
Si Si5 0.787311 0.927363 0.642437
Si Si6 0.372937 0.429633 0.567530
Si Si7 0.029124 0.427610 0.886028
Si Si8 0.532234 0.574372 0.732872
O O1 0.906568 0.250000 0.700374
O O2 0.867436 0.480525 0.761418
O O3 0.868700 0.506717 0.653166
O O4 0.990970 0.490504 0.717025
O O5 0.345543 0.250000 0.444092
O O6 0.251741 0.048279 0.416972
O O7 0.338593 0.018374 0.509513
O O8 0.394813 0.992820 0.409814
O O9 0.832102 0.750000 0.230304
O O10 0.764500 0.559920 0.293561
O O11 0.762285 0.520115 0.186401
O O12 0.882014 0.466999 0.238510
O O13 0.837143 0.250000 0.816766
O O14 0.837062 0.012137 0.875001
O O15 0.785363 0.750000 0.654190
O O16 0.364426 0.250000 0.567515
O O17 0.460732 0.460364 0.572576
O O18 0.033974 0.250000 0.878694
O O19 0.010881 0.502061 0.826740
O O20 0.518496 0.750000 0.732927
#
# Coordination Sequence:
#
# PCOD9467790 Si02
#       8
#     8   8   8   8   8   8   8   8
#     4  10  19  33  52  71  93 125 164 202 243 295
#     4  10  20  32  48  69  99 132 166 201 239 282
#     4  10  19  31  50  71  94 128 166 202 242 292
#     4   8  15  29  49  71  92 119 160 202 238 280
#     4  10  19  31  46  71 101 129 160 198 242 286
#     4   9  17  31  49  70  95 129 166 204 240 279
#     4  11  20  31  48  67  97 135 173 204 232 279
#     4  12  22  32  48  72 101 129 159 202 254 299
#
# _framework density 16.460905
#
# number of rings (size 3 to 8) (size 9 to 14) (size 15 to 20)
#    0.000    2.000    2.500    3.750    0.000    0.500 
#    0.000    0.625    0.000    0.000    0.000    0.875 
#    0.000    0.000    0.000    0.000    0.000    0.000 
#
# Total GULP energy -356531.466899 kJ/mol
# GULP energy per Si atom -5570.804170 kJ/mol
# Density = 1.642344 g / cm^3
# Si number density = 16.460905 Si / 1000 Ang^3
#
#
#
# Elastic Constant Matrix: (Units=GPa)
#
#
# Indices 1 2 3 4 5 6 
#
# 1 3.6288 -7.9336 -0.7325 0.0000 0.0000 0.0000
# 2 -7.9336 47.6012 7.5363 0.0000 0.0000 0.0000
# 3 -0.7325 7.5363 31.6826 0.0000 0.0000 0.0000
# 4 0.0000 0.0000 0.0000 15.2115 0.0000 0.0000
# 5 0.0000 0.0000 0.0000 0.0000 21.2236 0.0000
# 6 0.0000 0.0000 0.0000 0.0000 0.0000 20.0801
#
#
#
# Elastic Compliance Matrix: (Units=1/GPa)
#
#
# Indices 1 2 3 4 5 6 
#
# 1 0.435252 0.073726 -0.007474 0.000000 0.000000 0.000000
# 2 0.073726 0.034318 -0.006459 0.000000 0.000000 0.000000
# 3 -0.007474 -0.006459 0.032927 0.000000 0.000000 0.000000
# 4 0.000000 0.000000 0.000000 0.065740 0.000000 0.000000
# 5 0.000000 0.000000 0.000000 0.000000 0.047117 0.000000
# 6 0.000000 0.000000 0.000000 0.000000 0.000000 0.049801
#
#
# Mechanical properties :
#
#
# Convention : Reuss Voigt Hill
#
# Bulk Modulus (GPa) = 1.60750 8.96144 5.28447
# Shear Modulus (GPa) = 6.64074 16.90587 11.77330
#
# Velocity S-wave (km/s) = 2.01072 3.20821 2.67728
# Velocity P-wave (km/s) = 2.52376 4.37943 3.57412
#
# Compressibility (1/GPa) = 0.62208213
#
# Stress axis : x y z
#
# Youngs Moduli (GPa) = 2.29752 29.13910 30.37057
#
# Poissons Ratio (x) = -2.14830 0.22700
# Poissons Ratio (y) = -0.16939 0.19615
# Poissons Ratio (z) = 0.01717 0.18820
#
# Static dielectric constant tensor:
#      x y z
#    x 1.605960 0.000000 0.000000 
#    y 0.000000 1.545870 0.000000 
#    z 0.000000 0.000000 1.567420 
# 
# From -- ./inp_files/30051.got.cif
#   From: 2010.05.17/outbox.ucp.g08.bks.cvg/sg62_16_cif.got.tgz:30051.got - 2010.06.11 16:29:25.
