data_PCOD9467423
_publ_section_title
;
Structure prediction by ZEFSAII (Michael W. Deem and Ramdas Pophale) SiO2 
 PCOD9467423
Probable space group: P N M A
;
_chemical_formula_sum "Si O2"
_cell_formula_units_Z 48
_cell_length_a 9.335109
_cell_length_b 26.718809
_cell_length_c 10.069754
_cell_angle_alpha 90.000000
_cell_angle_beta 90.000000
_cell_angle_gamma 90.000000
_cell_volume 2511.628195
_symmetry_space_group_name_H-M "P N M A"
_symmetry_group_IT_number 62
_symmetry_cell_setting 'orthorhombic'
loop_
_space_group_symop_operation_xyz
x,y,z
1/2-x,-y,1/2+z
1/2+x,1/2-y,1/2-z
-x,1/2+y,-z
-x,-y,-z
1/2+x,y,1/2-z
1/2-x,1/2+y,1/2+z
x,1/2-y,z
loop_
_atom_site_type_symbol
_atom_site_label
_atom_site_fract_x
_atom_site_fract_y
_atom_site_fract_z
Si Si1 0.690148 0.462894 0.219570
Si Si2 0.963645 0.584773 0.472008
Si Si3 0.548904 0.030346 0.695767
Si Si4 0.717094 0.305336 0.619031
Si Si5 0.197999 0.094377 0.023604
Si Si6 0.058397 0.193651 0.601066
O O1 0.610736 0.509680 0.289851
O O2 0.850916 0.481349 0.199120
O O3 0.680242 0.417588 0.322514
O O4 0.612521 0.448768 0.083115
O O5 0.926011 0.564590 0.325606
O O6 0.917908 0.643197 0.483517
O O7 0.136117 0.581479 0.488108
O O8 0.593100 0.060606 0.565705
O O9 0.677902 0.250000 0.570446
O O10 0.672782 0.348868 0.519672
O O11 0.645798 0.312089 0.762564
O O12 0.888935 0.307513 0.633630
O O13 0.089547 0.250000 0.547237
#
# Coordination Sequence:
#
# PCOD9467423 Si02
#       6
#     8   8   8   8   8   8
#     4  12  24  39  56  82 118 156 190 233 276 335
#     4  11  22  40  58  85 119 148 187 238 286 331
#     4  12  22  39  60  82 112 156 194 232 279 328
#     4   9  18  35  59  85 111 141 183 234 283 335
#     4  11  22  39  59  86 114 151 191 232 286 336
#     4   9  18  35  60  85 110 142 184 233 283 334
#
# _framework density 19.111108000000002
#
# number of rings (size 3 to 8) (size 9 to 14) (size 15 to 20)
#    0.000    1.333    5.000    2.000    0.000    0.000 
#    3.000    0.833    0.000    0.000    0.000    0.000 
#    0.000    0.000    0.000    0.000    0.000    0.000 
#
# Total GULP energy -267989.131862 kJ/mol
# GULP energy per Si atom -5583.106914 kJ/mol
# Density = 1.906761 g / cm^3
# Si number density = 19.111108 Si / 1000 Ang^3
#
#
#
# Elastic Constant Matrix: (Units=GPa)
#
#
# Indices 1 2 3 4 5 6 
#
# 1 18.9230 3.6795 -7.4120 0.0000 0.0000 0.0000
# 2 3.6795 66.9041 4.5225 0.0000 0.0000 0.0000
# 3 -7.4120 4.5225 34.0563 0.0000 0.0000 0.0000
# 4 0.0000 0.0000 0.0000 14.4016 0.0000 0.0000
# 5 0.0000 0.0000 0.0000 0.0000 18.6397 0.0000
# 6 0.0000 0.0000 0.0000 0.0000 0.0000 21.7901
#
#
#
# Elastic Compliance Matrix: (Units=1/GPa)
#
#
# Indices 1 2 3 4 5 6 
#
# 1 0.058887 -0.004142 0.013366 0.000000 0.000000 0.000000
# 2 -0.004142 0.015374 -0.002943 0.000000 0.000000 0.000000
# 3 0.013366 -0.002943 0.032663 0.000000 0.000000 0.000000
# 4 0.000000 0.000000 0.000000 0.069437 0.000000 0.000000
# 5 0.000000 0.000000 0.000000 0.000000 0.053649 0.000000
# 6 0.000000 0.000000 0.000000 0.000000 0.000000 0.045892
#
#
# Mechanical properties :
#
#
# Convention : Reuss Voigt Hill
#
# Bulk Modulus (GPa) = 8.36922 13.49592 10.93257
# Shear Modulus (GPa) = 16.49253 18.90584 17.69919
#
# Velocity S-wave (km/s) = 2.94084 3.14866 3.04652
# Velocity P-wave (km/s) = 3.99001 4.50510 4.25535
#
# Compressibility (1/GPa) = 0.11948540
#
# Stress axis : x y z
#
# Youngs Moduli (GPa) = 16.98177 65.04699 30.61567
#
# Poissons Ratio (x) = 0.26943 -0.40922
# Poissons Ratio (y) = 0.07034 0.09010
# Poissons Ratio (z) = -0.22698 0.19143
#
# Static dielectric constant tensor:
#      x y z
#    x 1.644090 0.000000 0.000000 
#    y 0.000000 1.704770 0.000000 
#    z 0.000000 0.000000 1.626110 
# 
# From -- ./inp_files/4512.got.cif
#   From: 2010.05.17/outbox.cif.g08.bks.cpg/sg62_3_cif.got.tgz:4512.got - 2010.06.03 15:25:27.
