data_PCOD9467985
_publ_section_title
;
Structure prediction by ZEFSAII (Michael W. Deem and Ramdas Pophale) SiO2 
 PCOD9467985
Probable space group: P N M A
;
_chemical_formula_sum "Si O2"
_cell_formula_units_Z 64
_cell_length_a 9.000000
_cell_length_b 21.000000
_cell_length_c 18.000000
_cell_angle_alpha 90.000000
_cell_angle_beta 90.000000
_cell_angle_gamma 90.000000
_cell_volume 3402.000000
_symmetry_space_group_name_H-M "P N M A"
_symmetry_group_IT_number 62
_symmetry_cell_setting 'orthorhombic'
loop_
_space_group_symop_operation_xyz
x,y,z
1/2-x,-y,1/2+z
1/2+x,1/2-y,1/2-z
-x,1/2+y,-z
-x,-y,-z
1/2+x,y,1/2-z
1/2-x,1/2+y,1/2+z
x,1/2-y,z
loop_
_atom_site_type_symbol
_atom_site_label
_atom_site_fract_x
_atom_site_fract_y
_atom_site_fract_z
Si Si1 0.674168 0.492317 0.709090
Si Si2 0.277972 0.862559 0.799744
Si Si3 0.670748 0.424348 0.978163
Si Si4 0.358185 0.179664 0.445884
Si Si5 0.320040 0.883072 0.552844
Si Si6 0.846196 0.488944 0.854137
Si Si7 0.849761 0.449365 0.575340
Si Si8 0.602501 0.676667 0.839538
O O1 0.714039 0.566282 0.695897
O O2 0.715329 0.481220 0.794258
O O3 0.505887 0.479450 0.683850
O O4 0.787708 0.453260 0.657754
O O5 0.188102 0.822228 0.859914
O O6 0.232807 0.834736 0.720342
O O7 0.454052 0.861495 0.816409
O O8 0.802940 0.444861 0.922941
O O9 0.514014 0.421585 0.935963
O O10 0.729498 0.361698 0.016702
O O11 0.649189 0.479363 0.040158
O O12 0.356749 0.250000 0.476480
O O13 0.523550 0.152017 0.453238
O O14 0.267915 0.912015 0.475160
O O15 0.180007 0.843539 0.584039
O O16 0.342279 0.940534 0.611310
O O17 0.557787 0.750000 0.840825
#
# Coordination Sequence:
#
# PCOD9467985 Si02
#       8
#     8   8   8   8   8   8   8   8
#     4  12  21  37  56  87 111 155 180 242 291 353
#     4  12  23  37  52  78 112 155 201 234 280 341
#     4  10  21  38  58  88 109 153 188 244 291 344
#     4  12  23  39  58  82 118 157 199 237 284 343
#     4  11  22  37  56  83 109 155 191 242 284 338
#     4  11  22  35  59  82 119 144 193 236 295 345
#     4  10  21  36  62  81 118 143 194 242 298 344
#     4  12  24  37  51  74 112 157 202 237 275 330
#
# _framework density 18.812463000000001
#
# number of rings (size 3 to 8) (size 9 to 14) (size 15 to 20)
#    0.000    0.750    3.750    5.250    3.500    2.000 
#    0.000    0.625    0.000    0.000    0.000    8.750 
#    0.000    0.000    0.000    0.000    0.000    0.000 
#
# Total GULP energy -357570.487593 kJ/mol
# GULP energy per Si atom -5587.038869 kJ/mol
# Density = 1.876965 g / cm^3
# Si number density = 18.812463 Si / 1000 Ang^3
#
#
#
# Elastic Constant Matrix: (Units=GPa)
#
#
# Indices 1 2 3 4 5 6 
#
# 1 55.9171 5.7958 -2.1894 0.0000 0.0000 0.0000
# 2 5.7958 40.7444 30.8747 0.0000 0.0000 0.0000
# 3 -2.1894 30.8747 37.7924 0.0000 0.0000 0.0000
# 4 0.0000 0.0000 0.0000 643.7635 0.0000 0.0000
# 5 0.0000 0.0000 0.0000 0.0000 21.6490 0.0000
# 6 0.0000 0.0000 0.0000 0.0000 0.0000 4.1534
#
#
#
# Elastic Compliance Matrix: (Units=1/GPa)
#
#
# Indices 1 2 3 4 5 6 
#
# 1 0.019200 -0.009382 0.008777 0.000000 0.000000 0.000000
# 2 -0.009382 0.069013 -0.056924 0.000000 0.000000 0.000000
# 3 0.008777 -0.056924 0.073473 0.000000 0.000000 0.000000
# 4 0.000000 0.000000 0.000000 0.001553 0.000000 0.000000
# 5 0.000000 0.000000 0.000000 0.000000 0.046192 0.000000
# 6 0.000000 0.000000 0.000000 0.000000 0.000000 0.240766
#
#
# Mechanical properties :
#
#
# Convention : Reuss Voigt Hill
#
# Bulk Modulus (GPa) = 21.44648 22.60180 22.02414
# Shear Modulus (GPa) = 8.60886 140.57802 74.59344
#
# Velocity S-wave (km/s) = 2.14151 8.65380 6.30374
# Velocity P-wave (km/s) = 4.18804 10.57787 8.04459
#
# Compressibility (1/GPa) = 0.04662770
#
# Stress axis : x y z
#
# Youngs Moduli (GPa) = 52.08410 14.49006 13.61042
#
# Poissons Ratio (x) = 0.13595 -0.11946
# Poissons Ratio (y) = 0.48865 0.77476
# Poissons Ratio (z) = -0.45714 0.82483
#
# Static dielectric constant tensor:
#      x y z
#    x 1.642320 0.000000 0.000000 
#    y 0.000000 1.676290 0.000000 
#    z 0.000000 0.000000 1.726910 
# 
# From -- ./inp_files/22572.got.cif
#   From: 2010.05.17/outbox.ucp.g08.bks.cvg/sg62_12_cif.got.tgz:22572.got - 2010.06.11 16:29:25.
