data_PCOD9467385
_publ_section_title
;
Structure prediction by ZEFSAII (Michael W. Deem and Ramdas Pophale) SiO2 
 PCOD9467385
Probable space group: P N M A
;
_chemical_formula_sum "Si O2"
_cell_formula_units_Z 40
_cell_length_a 7.786005
_cell_length_b 10.928977
_cell_length_c 20.721137
_cell_angle_alpha 90.000000
_cell_angle_beta 90.000000
_cell_angle_gamma 90.000000
_cell_volume 1763.225152
_symmetry_space_group_name_H-M "P N M A"
_symmetry_group_IT_number 62
_symmetry_cell_setting 'orthorhombic'
loop_
_space_group_symop_operation_xyz
x,y,z
1/2-x,-y,1/2+z
1/2+x,1/2-y,1/2-z
-x,1/2+y,-z
-x,-y,-z
1/2+x,y,1/2-z
1/2-x,1/2+y,1/2+z
x,1/2-y,z
loop_
_atom_site_type_symbol
_atom_site_label
_atom_site_fract_x
_atom_site_fract_y
_atom_site_fract_z
Si Si1 0.743224 0.250000 0.726934
Si Si2 0.942304 0.037503 0.570806
Si Si3 0.147748 0.388388 0.307738
Si Si4 0.957279 0.604319 0.052964
Si Si5 0.903718 0.750000 0.355185
Si Si6 0.517347 0.016466 0.687829
O O1 0.751048 0.250000 0.804549
O O2 0.923195 0.250000 0.689935
O O3 0.633518 0.132049 0.707817
O O4 0.749035 0.093194 0.566131
O O5 0.074092 0.135145 0.599191
O O6 0.937779 0.933250 0.625769
O O7 0.000000 0.000000 0.500000
O O8 0.100798 0.250000 0.293007
O O9 0.349590 0.404873 0.320134
O O10 0.101010 0.474573 0.246800
O O11 0.995084 0.750000 0.040174
O O12 0.049708 0.555559 0.118046
O O13 0.000000 0.500000 0.000000
#
# Coordination Sequence:
#
# PCOD9467385 Si02
#       6
#     4   8   8   8   4   8
#     4  12  18  42  74  98 124 163 229 286 342 381
#     4  11  24  44  65  94 132 181 223 275 340 413
#     4  11  24  39  62  94 129 167 208 271 336 405
#     4  11  24  45  68  97 138 181 228 291 348 414
#     4  12  22  44  72 100 132 169 231 292 338 403
#     4  11  21  42  65  92 124 166 217 273 333 399
#
# _framework density 22.685701000000002
#
# number of rings (size 3 to 8) (size 9 to 14) (size 15 to 20)
#    0.000    0.800    8.000    0.600    1.400    5.600 
#    3.600    0.000    0.000    0.000    0.000    0.000 
#    0.000    0.000    0.000    0.000    0.000    0.000 
#
# Total GULP energy -223605.745029 kJ/mol
# GULP energy per Si atom -5590.143626 kJ/mol
# Density = 2.263407 g / cm^3
# Si number density = 22.685701 Si / 1000 Ang^3
#
#
#
# Elastic Constant Matrix: (Units=GPa)
#
#
# Indices 1 2 3 4 5 6 
#
# 1 67.1101 30.9077 41.8899 0.0000 0.0000 0.0000
# 2 30.9077 160.7603 88.2840 0.0000 0.0000 0.0000
# 3 41.8899 88.2840 217.4523 0.0000 0.0000 0.0000
# 4 0.0000 0.0000 0.0000 40.6298 0.0000 0.0000
# 5 0.0000 0.0000 0.0000 0.0000 38.0100 0.0000
# 6 0.0000 0.0000 0.0000 0.0000 0.0000 26.2298
#
#
#
# Elastic Compliance Matrix: (Units=1/GPa)
#
#
# Indices 1 2 3 4 5 6 
#
# 1 0.017393 -0.001936 -0.002565 0.000000 0.000000 0.000000
# 2 -0.001936 0.008221 -0.002965 0.000000 0.000000 0.000000
# 3 -0.002565 -0.002965 0.006296 0.000000 0.000000 0.000000
# 4 0.000000 0.000000 0.000000 0.024612 0.000000 0.000000
# 5 0.000000 0.000000 0.000000 0.000000 0.026309 0.000000
# 6 0.000000 0.000000 0.000000 0.000000 0.000000 0.038125
#
#
# Mechanical properties :
#
#
# Convention : Reuss Voigt Hill
#
# Bulk Modulus (GPa) = 58.89165 85.27620 72.08393
# Shear Modulus (GPa) = 35.32413 39.92333 37.62373
#
# Velocity S-wave (km/s) = 3.95030 4.19960 4.07686
# Velocity P-wave (km/s) = 6.84271 7.82224 7.34881
#
# Compressibility (1/GPa) = 0.01698034
#
# Stress axis : x y z
#
# Youngs Moduli (GPa) = 57.49359 121.64483 158.82019
#
# Poissons Ratio (x) = 0.23544 0.40735
# Poissons Ratio (y) = 0.11128 0.47085
# Poissons Ratio (z) = 0.14746 0.36064
#
# Static dielectric constant tensor:
#      x y z
#    x 1.930490 0.000000 0.000000 
#    y 0.000000 1.846220 0.000000 
#    z 0.000000 0.000000 1.954990 
# 
# From -- ./inp_files/21953.got.cif
#   From: 2010.05.17/outbox.cif.g08.bks.cpg/sg62_11_cif.got.tgz:21953.got - 2010.06.03 15:25:27.
