data_PCOD9467693
_publ_section_title
;
Structure prediction by ZEFSAII (Michael W. Deem and Ramdas Pophale) SiO2 
 PCOD9467693
Probable space group: P N M A
;
_chemical_formula_sum "Si O2"
_cell_formula_units_Z 24
_cell_length_a 8.432340
_cell_length_b 24.339700
_cell_length_c 4.754923
_cell_angle_alpha 90.000000
_cell_angle_beta 90.000000
_cell_angle_gamma 90.000000
_cell_volume 975.903373
_symmetry_space_group_name_H-M "P N M A"
_symmetry_group_IT_number 62
_symmetry_cell_setting 'orthorhombic'
loop_
_space_group_symop_operation_xyz
x,y,z
1/2-x,-y,1/2+z
1/2+x,1/2-y,1/2-z
-x,1/2+y,-z
-x,-y,-z
1/2+x,y,1/2-z
1/2-x,1/2+y,1/2+z
x,1/2-y,z
loop_
_atom_site_type_symbol
_atom_site_label
_atom_site_fract_x
_atom_site_fract_y
_atom_site_fract_z
Si Si1 0.401175 0.355641 0.352677
Si Si2 0.842712 0.021084 0.347519
Si Si3 0.087662 0.313254 0.658024
O O1 0.543923 0.350658 0.576519
O O2 0.250061 0.330381 0.509171
O O3 0.366339 0.417640 0.263301
O O4 0.452591 0.322293 0.077366
O O5 0.793292 0.983756 0.083688
O O6 0.000000 0.000000 0.500000
O O7 0.092145 0.250000 0.748504
#
# Coordination Sequence:
#
# PCOD9467693 Si02
#       3
#     8   8   8
#     4  12  27  47  74 109 148 194 245 304 369 440
#     4  12  27  50  76 109 149 196 248 305 368 440
#     4  12  25  47  74 108 147 192 243 303 369 440
#
# _framework density 24.592597000000001
#
# number of rings (size 3 to 8) (size 9 to 14) (size 15 to 20)
#    0.000    0.000    0.000   10.000    0.000    5.333 
#    0.000    0.000    0.000    0.000    0.000    0.000 
#    0.000    0.000    0.000    0.000    0.000    0.000 
#
# Total GULP energy -134885.375957 kJ/mol
# GULP energy per Si atom -5620.223998 kJ/mol
# Density = 2.453662 g / cm^3
# Si number density = 24.592597 Si / 1000 Ang^3
#
#
#
# Elastic Constant Matrix: (Units=GPa)
#
#
# Indices 1 2 3 4 5 6 
#
# 1 70.2132 35.3026 13.6083 0.0000 0.0000 0.0000
# 2 35.3026 125.5199 24.6056 0.0000 0.0000 0.0000
# 3 13.6083 24.6056 130.6186 0.0000 0.0000 0.0000
# 4 0.0000 0.0000 0.0000 44.9206 0.0000 0.0000
# 5 0.0000 0.0000 0.0000 0.0000 47.4113 0.0000
# 6 0.0000 0.0000 0.0000 0.0000 0.0000 39.2878
#
#
#
# Elastic Compliance Matrix: (Units=1/GPa)
#
#
# Indices 1 2 3 4 5 6 
#
# 1 0.016686 -0.004519 -0.000887 0.000000 0.000000 0.000000
# 2 -0.004519 0.009496 -0.001318 0.000000 0.000000 0.000000
# 3 -0.000887 -0.001318 0.007997 0.000000 0.000000 0.000000
# 4 0.000000 0.000000 0.000000 0.022261 0.000000 0.000000
# 5 0.000000 0.000000 0.000000 0.000000 0.021092 0.000000
# 6 0.000000 0.000000 0.000000 0.000000 0.000000 0.025453
#
#
# Mechanical properties :
#
#
# Convention : Reuss Voigt Hill
#
# Bulk Modulus (GPa) = 48.23794 52.59831 50.41812
# Shear Modulus (GPa) = 40.53669 43.17962 41.85815
#
# Velocity S-wave (km/s) = 4.06437 4.19477 4.13008
# Velocity P-wave (km/s) = 6.45622 6.70043 6.57946
#
# Compressibility (1/GPa) = 0.02073057
#
# Stress axis : x y z
#
# Youngs Moduli (GPa) = 59.92875 105.30446 125.05317
#
# Poissons Ratio (x) = 0.47589 0.11094
# Poissons Ratio (y) = 0.27083 0.16483
# Poissons Ratio (z) = 0.05317 0.13880
#
# Static dielectric constant tensor:
#      x y z
#    x 2.038000 0.000000 0.000000 
#    y 0.000000 1.894330 0.000000 
#    z 0.000000 0.000000 2.047200 
# 
# From -- ./inp_files/136.got.cif
#   From: 2010.05.17/outbox.cif.g08.bks.cpg/sg62_1_cif.got.tgz:136.got - 2010.06.03 15:25:27.
