data_PCOD9467277
_publ_section_title
;
Structure prediction by ZEFSAII (Michael W. Deem and Ramdas Pophale) SiO2 
 PCOD9467277
Probable space group: P N M A
;
_chemical_formula_sum "Si O2"
_cell_formula_units_Z 32
_cell_length_a 11.019713
_cell_length_b 17.360359
_cell_length_c 6.780091
_cell_angle_alpha 90.000000
_cell_angle_beta 90.000000
_cell_angle_gamma 90.000000
_cell_volume 1297.073267
_symmetry_space_group_name_H-M "P N M A"
_symmetry_group_IT_number 62
_symmetry_cell_setting 'orthorhombic'
loop_
_space_group_symop_operation_xyz
x,y,z
1/2-x,-y,1/2+z
1/2+x,1/2-y,1/2-z
-x,1/2+y,-z
-x,-y,-z
1/2+x,y,1/2-z
1/2-x,1/2+y,1/2+z
x,1/2-y,z
loop_
_atom_site_type_symbol
_atom_site_label
_atom_site_fract_x
_atom_site_fract_y
_atom_site_fract_z
Si Si1 0.299100 0.163739 0.937781
Si Si2 0.139739 0.063251 0.179029
Si Si3 0.578349 0.887843 0.404120
Si Si4 0.676029 0.334481 0.973190
O O1 0.293652 0.250000 0.019227
O O2 0.423051 0.152100 0.812082
O O3 0.196017 0.158873 0.762577
O O4 0.264134 0.097418 0.088834
O O5 0.122865 0.096025 0.398886
O O6 0.132042 0.972225 0.151487
O O7 0.034341 0.098550 0.042858
O O8 0.678961 0.839836 0.521559
O O9 0.629575 0.250000 0.028393
#
# Coordination Sequence:
#
# PCOD9467277 Si02
#       4
#     8   8   8   8
#     4   9  20  36  53  80 111 139 180 225 261 318
#     4  11  19  37  60  77 108 151 171 218 284 309
#     4   9  21  37  54  85 110 133 187 226 254 327
#     4   9  20  36  53  80 111 139 180 225 261 318
#
# _framework density 24.670925
#
# number of rings (size 3 to 8) (size 9 to 14) (size 15 to 20)
#    1.500    1.000    0.000    2.250    0.000    4.000 
#    4.500    2.500    0.000    0.000    0.000    0.000 
#    0.000    0.000    0.000    0.000    0.000    0.000 
#
# Total GULP energy -178268.687881 kJ/mol
# GULP energy per Si atom -5570.896496 kJ/mol
# Density = 2.461477 g / cm^3
# Si number density = 24.670925 Si / 1000 Ang^3
#
#
#
# Elastic Constant Matrix: (Units=GPa)
#
#
# Indices 1 2 3 4 5 6 
#
# 1 16.0626 15.6034 -1.7554 0.0000 0.0000 0.0000
# 2 15.6034 80.7166 29.8849 0.0000 0.0000 0.0000
# 3 -1.7554 29.8849 66.0557 0.0000 0.0000 0.0000
# 4 0.0000 0.0000 0.0000 24.0532 0.0000 0.0000
# 5 0.0000 0.0000 0.0000 0.0000 31.5859 0.0000
# 6 0.0000 0.0000 0.0000 0.0000 0.0000 21.1749
#
#
#
# Elastic Compliance Matrix: (Units=1/GPa)
#
#
# Indices 1 2 3 4 5 6 
#
# 1 0.083233 -0.020311 0.011401 0.000000 0.000000 0.000000
# 2 -0.020311 0.019838 -0.009515 0.000000 0.000000 0.000000
# 3 0.011401 -0.009515 0.019746 0.000000 0.000000 0.000000
# 4 0.000000 0.000000 0.000000 0.041575 0.000000 0.000000
# 5 0.000000 0.000000 0.000000 0.000000 0.031660 0.000000
# 6 0.000000 0.000000 0.000000 0.000000 0.000000 0.047226
#
#
# Mechanical properties :
#
#
# Convention : Reuss Voigt Hill
#
# Bulk Modulus (GPa) = 11.63232 27.81122 19.72177
# Shear Modulus (GPa) = 16.19260 23.30293 19.74777
#
# Velocity S-wave (km/s) = 2.56470 3.07669 2.83229
# Velocity P-wave (km/s) = 3.67362 4.89067 4.32517
#
# Compressibility (1/GPa) = 0.08596735
#
# Stress axis : x y z
#
# Youngs Moduli (GPa) = 12.01451 50.40772 50.64200
#
# Poissons Ratio (x) = 1.02383 -0.57736
# Poissons Ratio (y) = 0.24403 0.48186
# Poissons Ratio (z) = -0.13698 0.47963
#
# Static dielectric constant tensor:
#      x y z
#    x 2.088640 0.000000 0.000000 
#    y 0.000000 1.897010 0.000000 
#    z 0.000000 0.000000 2.002720 
# 
# From -- ./inp_files/4958.got.cif
#   From: 2010.05.17/outbox.cif.g08.bks.cpg/sg62_3_cif.got.tgz:4958.got - 2010.06.03 15:25:27.
