data_PCOD9467647
_publ_section_title
;
Structure prediction by ZEFSAII (Michael W. Deem and Ramdas Pophale) SiO2 
 PCOD9467647
Probable space group: P N M A
;
_chemical_formula_sum "Si O2"
_cell_formula_units_Z 32
_cell_length_a 16.389335
_cell_length_b 18.672568
_cell_length_c 4.794574
_cell_angle_alpha 90.000000
_cell_angle_beta 90.000000
_cell_angle_gamma 90.000000
_cell_volume 1467.288143
_symmetry_space_group_name_H-M "P N M A"
_symmetry_group_IT_number 62
_symmetry_cell_setting 'orthorhombic'
loop_
_space_group_symop_operation_xyz
x,y,z
1/2-x,-y,1/2+z
1/2+x,1/2-y,1/2-z
-x,1/2+y,-z
-x,-y,-z
1/2+x,y,1/2-z
1/2-x,1/2+y,1/2+z
x,1/2-y,z
loop_
_atom_site_type_symbol
_atom_site_label
_atom_site_fract_x
_atom_site_fract_y
_atom_site_fract_z
Si Si1 0.545809 0.075990 0.546149
Si Si2 0.603549 0.666199 0.414322
Si Si3 0.687721 0.599128 0.922165
Si Si4 0.843717 0.935665 0.559245
O O1 0.482442 0.132018 0.674619
O O2 0.579941 0.090483 0.240119
O O3 0.500000 0.000000 0.500000
O O4 0.626589 0.074620 0.742020
O O5 0.598176 0.750000 0.469518
O O6 0.673568 0.651513 0.183587
O O7 0.620985 0.622600 0.696686
O O8 0.673589 0.521134 0.058866
O O9 0.767243 0.597992 0.723474
#
# Coordination Sequence:
#
# PCOD9467647 Si02
#       4
#     8   8   8   8
#     4  12  22  42  68 102 134 171 228 294 341 403
#     4  12  26  44  66  96 140 188 224 272 356 434
#     4  12  23  43  67 101 135 173 229 288 345 416
#     4  12  23  40  70 102 130 167 231 296 343 384
#
# _framework density 21.80894
#
# number of rings (size 3 to 8) (size 9 to 14) (size 15 to 20)
#    0.000    0.000    5.000    7.500    0.000    0.000 
#    0.000    7.500    0.000    0.000    0.000    0.000 
#    0.000    0.000    0.000    0.000    0.000    0.000 
#
# Total GULP energy -178454.789340 kJ/mol
# GULP energy per Si atom -5576.712167 kJ/mol
# Density = 2.175930 g / cm^3
# Si number density = 21.808940 Si / 1000 Ang^3
#
#
#
# Elastic Constant Matrix: (Units=GPa)
#
#
# Indices 1 2 3 4 5 6 
#
# 1 89.1784 44.4807 25.0115 0.0000 0.0000 0.0000
# 2 44.4807 44.4964 2.9023 0.0000 0.0000 0.0000
# 3 25.0115 2.9023 109.0300 0.0000 0.0000 0.0000
# 4 0.0000 0.0000 0.0000 11.2326 0.0000 0.0000
# 5 0.0000 0.0000 0.0000 0.0000 51.7421 0.0000
# 6 0.0000 0.0000 0.0000 0.0000 0.0000 16.8234
#
#
#
# Elastic Compliance Matrix: (Units=1/GPa)
#
#
# Indices 1 2 3 4 5 6 
#
# 1 0.024862 -0.024524 -0.005051 0.000000 0.000000 0.000000
# 2 -0.024524 0.046703 0.004383 0.000000 0.000000 0.000000
# 3 -0.005051 0.004383 0.010214 0.000000 0.000000 0.000000
# 4 0.000000 0.000000 0.000000 0.089027 0.000000 0.000000
# 5 0.000000 0.000000 0.000000 0.000000 0.019327 0.000000
# 6 0.000000 0.000000 0.000000 0.000000 0.000000 0.059441
#
#
# Mechanical properties :
#
#
# Convention : Reuss Voigt Hill
#
# Bulk Modulus (GPa) = 31.85196 43.05485 37.45341
# Shear Modulus (GPa) = 16.10706 27.31364 21.71035
#
# Velocity S-wave (km/s) = 2.72058 3.54277 3.15854
# Velocity P-wave (km/s) = 4.95030 6.04315 5.52382
#
# Compressibility (1/GPa) = 0.03139524
#
# Stress axis : x y z
#
# Youngs Moduli (GPa) = 40.22169 21.41175 97.90743
#
# Poissons Ratio (x) = 0.52510 0.49449
# Poissons Ratio (y) = 0.98640 -0.42909
# Poissons Ratio (z) = 0.20314 -0.09384
#
# Static dielectric constant tensor:
#      x y z
#    x 1.938200 0.000000 0.000000 
#    y 0.000000 1.736930 0.000000 
#    z 0.000000 0.000000 1.795490 
# 
# From -- ./inp_files/921.got.cif
#   From: 2010.05.17/outbox.cif.g08.bks.cpg/sg62_1_cif.got.tgz:921.got - 2010.06.03 15:25:27.
