data_PCOD9467479
_publ_section_title
;
Structure prediction by ZEFSAII (Michael W. Deem and Ramdas Pophale) SiO2 
 PCOD9467479
Probable space group: P N M A
;
_chemical_formula_sum "Si O2"
_cell_formula_units_Z 48
_cell_length_a 22.964439
_cell_length_b 8.803005
_cell_length_c 12.039207
_cell_angle_alpha 90.000000
_cell_angle_beta 90.000000
_cell_angle_gamma 90.000000
_cell_volume 2433.798789
_symmetry_space_group_name_H-M "P N M A"
_symmetry_group_IT_number 62
_symmetry_cell_setting 'orthorhombic'
loop_
_space_group_symop_operation_xyz
x,y,z
1/2-x,-y,1/2+z
1/2+x,1/2-y,1/2-z
-x,1/2+y,-z
-x,-y,-z
1/2+x,y,1/2-z
1/2-x,1/2+y,1/2+z
x,1/2-y,z
loop_
_atom_site_type_symbol
_atom_site_label
_atom_site_fract_x
_atom_site_fract_y
_atom_site_fract_z
Si Si1 0.143162 0.930697 0.298513
Si Si2 0.956794 0.580332 0.083859
Si Si3 0.616560 0.064389 0.781230
Si Si4 0.157601 0.422024 0.067269
Si Si5 0.064275 0.432225 0.485767
Si Si6 0.726798 0.064800 0.635933
O O1 0.138478 0.750000 0.311356
O O2 0.208107 0.980859 0.334881
O O3 0.139486 0.977056 0.170314
O O4 0.095108 0.009348 0.374629
O O5 0.979576 0.750000 0.105238
O O6 0.936791 0.511214 0.201562
O O7 0.896242 0.589601 0.017204
O O8 0.000000 0.500000 0.000000
O O9 0.615993 0.250000 0.775705
O O10 0.603525 0.020787 0.907349
O O11 0.677883 0.015364 0.725987
O O12 0.171528 0.250000 0.105477
O O13 0.208681 0.484362 0.988245
O O14 0.060772 0.250000 0.484798
O O15 0.000000 0.500000 0.500000
O O16 0.724740 0.250000 0.634705
#
# Coordination Sequence:
#
# PCOD9467479 Si02
#       6
#     8   8   8   8   8   8
#     4  11  23  37  59  88 118 153 193 240 293 353
#     4   9  18  33  56  82 107 140 183 230 283 335
#     4   8  17  36  59  81 109 150 189 231 287 347
#     4   9  19  37  57  81 113 148 188 235 288 343
#     4  11  24  41  61  85 119 159 202 244 294 354
#     4   8  17  36  60  85 114 147 188 239 295 347
#
# _framework density 19.722255000000001
#
# number of rings (size 3 to 8) (size 9 to 14) (size 15 to 20)
#    0.000    2.667    0.000    3.000    4.667    0.667 
#    0.000    1.667    0.000    4.000    0.000    0.000 
#    0.000    0.000    0.000    0.000    0.000    0.000 
#
# Total GULP energy -267631.694996 kJ/mol
# GULP energy per Si atom -5575.660312 kJ/mol
# Density = 1.967737 g / cm^3
# Si number density = 19.722255 Si / 1000 Ang^3
#
#
#
# Elastic Constant Matrix: (Units=GPa)
#
#
# Indices 1 2 3 4 5 6 
#
# 1 57.4527 15.0657 19.4385 0.0000 0.0000 0.0000
# 2 15.0657 33.2925 17.5399 0.0000 0.0000 0.0000
# 3 19.4385 17.5399 101.6967 0.0000 0.0000 0.0000
# 4 0.0000 0.0000 0.0000 15.7925 0.0000 0.0000
# 5 0.0000 0.0000 0.0000 0.0000 10.7284 0.0000
# 6 0.0000 0.0000 0.0000 0.0000 0.0000 22.0088
#
#
#
# Elastic Compliance Matrix: (Units=1/GPa)
#
#
# Indices 1 2 3 4 5 6 
#
# 1 0.020323 -0.007865 -0.002528 0.000000 0.000000 0.000000
# 2 -0.007865 0.036083 -0.004720 0.000000 0.000000 0.000000
# 3 -0.002528 -0.004720 0.011130 0.000000 0.000000 0.000000
# 4 0.000000 0.000000 0.000000 0.063321 0.000000 0.000000
# 5 0.000000 0.000000 0.000000 0.000000 0.093210 0.000000
# 6 0.000000 0.000000 0.000000 0.000000 0.000000 0.045436
#
#
# Mechanical properties :
#
#
# Convention : Reuss Voigt Hill
#
# Bulk Modulus (GPa) = 26.80220 32.94779 29.87499
# Shear Modulus (GPa) = 16.01706 19.06579 17.54142
#
# Velocity S-wave (km/s) = 2.85288 3.11258 2.98555
# Velocity P-wave (km/s) = 4.94684 5.44607 5.20245
#
# Compressibility (1/GPa) = 0.03731037
#
# Stress axis : x y z
#
# Youngs Moduli (GPa) = 49.20440 27.71426 89.84358
#
# Poissons Ratio (x) = 0.21797 0.22714
# Poissons Ratio (y) = 0.38699 0.42406
# Poissons Ratio (z) = 0.12440 0.13081
#
# Static dielectric constant tensor:
#      x y z
#    x 1.715500 0.000000 0.000000 
#    y 0.000000 1.693210 0.000000 
#    z 0.000000 0.000000 1.705390 
# 
# From -- ./inp_files/15096.got.cif
#   From: 2010.05.17/outbox.cif.g08.bks.cpg/sg62_8_cif.got.tgz:15096.got - 2010.06.03 15:25:27.
