data_PCOD9467586
_publ_section_title
;
Structure prediction by ZEFSAII (Michael W. Deem and Ramdas Pophale) SiO2 
 PCOD9467586
Probable space group: P N M A
;
_chemical_formula_sum "Si O2"
_cell_formula_units_Z 32
_cell_length_a 4.812448
_cell_length_b 20.738712
_cell_length_c 12.224884
_cell_angle_alpha 90.000000
_cell_angle_beta 90.000000
_cell_angle_gamma 90.000000
_cell_volume 1220.091994
_symmetry_space_group_name_H-M "P N M A"
_symmetry_group_IT_number 62
_symmetry_cell_setting 'orthorhombic'
loop_
_space_group_symop_operation_xyz
x,y,z
1/2-x,-y,1/2+z
1/2+x,1/2-y,1/2-z
-x,1/2+y,-z
-x,-y,-z
1/2+x,y,1/2-z
1/2-x,1/2+y,1/2+z
x,1/2-y,z
loop_
_atom_site_type_symbol
_atom_site_label
_atom_site_fract_x
_atom_site_fract_y
_atom_site_fract_z
Si Si1 0.605038 0.648681 0.324468
Si Si2 0.104043 0.082464 0.178029
Si Si3 0.215094 0.821244 0.525873
Si Si4 0.207264 0.058865 0.516494
O O1 0.404713 0.665409 0.223318
O O2 0.447115 0.676665 0.429889
O O3 0.656223 0.574513 0.364853
O O4 0.408076 0.066557 0.220470
O O5 0.136561 0.156863 0.138579
O O6 0.954201 0.054548 0.071411
O O7 0.094373 0.750000 0.531067
O O8 0.984407 0.876696 0.503542
O O9 0.000000 0.000000 0.500000
#
# Coordination Sequence:
#
# PCOD9467586 Si02
#       4
#     8   8   8   8
#     4  11  24  48  71 106 142 191 240 300 365 439
#     4  11  24  48  71 106 142 191 240 300 365 439
#     4  11  26  48  71 104 147 193 250 312 372 447
#     4  11  26  47  76 114 153 195 248 310 372 447
#
# _framework density 26.227532
#
# number of rings (size 3 to 8) (size 9 to 14) (size 15 to 20)
#    0.000    1.000    5.000    0.000    0.000   12.000 
#    0.000    0.000    0.000    0.000    0.000    0.000 
#    0.000    0.000    0.000    0.000    0.000    0.000 
#
# Total GULP energy -178720.113680 kJ/mol
# GULP energy per Si atom -5585.003552 kJ/mol
# Density = 2.616784 g / cm^3
# Si number density = 26.227532 Si / 1000 Ang^3
#
#
#
# Elastic Constant Matrix: (Units=GPa)
#
#
# Indices 1 2 3 4 5 6 
#
# 1 143.4596 36.1814 25.7838 0.0000 0.0000 0.0000
# 2 36.1814 156.9293 9.9517 0.0000 0.0000 0.0000
# 3 25.7838 9.9517 93.3377 0.0000 0.0000 0.0000
# 4 0.0000 0.0000 0.0000 14.6575 0.0000 0.0000
# 5 0.0000 0.0000 0.0000 0.0000 51.6379 0.0000
# 6 0.0000 0.0000 0.0000 0.0000 0.0000 30.2630
#
#
#
# Elastic Compliance Matrix: (Units=1/GPa)
#
#
# Indices 1 2 3 4 5 6 
#
# 1 0.007742 -0.001661 -0.001962 0.000000 0.000000 0.000000
# 2 -0.001661 0.006772 -0.000263 0.000000 0.000000 0.000000
# 3 -0.001962 -0.000263 0.011284 0.000000 0.000000 0.000000
# 4 0.000000 0.000000 0.000000 0.068224 0.000000 0.000000
# 5 0.000000 0.000000 0.000000 0.000000 0.019366 0.000000
# 6 0.000000 0.000000 0.000000 0.000000 0.000000 0.033044
#
#
# Mechanical properties :
#
#
# Convention : Reuss Voigt Hill
#
# Bulk Modulus (GPa) = 55.47359 59.72893 57.60126
# Shear Modulus (GPa) = 31.20881 40.76566 35.98724
#
# Velocity S-wave (km/s) = 3.45327 3.94675 3.70823
# Velocity P-wave (km/s) = 6.09073 6.60242 6.35173
#
# Compressibility (1/GPa) = 0.01802660
#
# Stress axis : x y z
#
# Youngs Moduli (GPa) = 129.16605 147.67007 88.62311
#
# Poissons Ratio (x) = 0.24522 0.17384
# Poissons Ratio (y) = 0.21449 0.02333
# Poissons Ratio (z) = 0.25337 0.03888
#
# Static dielectric constant tensor:
#      x y z
#    x 2.030620 0.000000 0.000000 
#    y 0.000000 2.181290 0.000000 
#    z 0.000000 0.000000 2.124610 
# 
# From -- ./inp_files/10637.got.cif
#   From: 2010.05.17/outbox.cif.g08.bks.cpg/sg62_6_cif.got.tgz:10637.got - 2010.06.03 15:25:27.
