data_PCOD9467499
_publ_section_title
;
Structure prediction by ZEFSAII (Michael W. Deem and Ramdas Pophale) SiO2 
 PCOD9467499
Probable space group: P N M A
;
_chemical_formula_sum "Si O2"
_cell_formula_units_Z 32
_cell_length_a 10.129233
_cell_length_b 17.465180
_cell_length_c 8.603932
_cell_angle_alpha 90.000000
_cell_angle_beta 90.000000
_cell_angle_gamma 90.000000
_cell_volume 1522.111953
_symmetry_space_group_name_H-M "P N M A"
_symmetry_group_IT_number 62
_symmetry_cell_setting 'orthorhombic'
loop_
_space_group_symop_operation_xyz
x,y,z
1/2-x,-y,1/2+z
1/2+x,1/2-y,1/2-z
-x,1/2+y,-z
-x,-y,-z
1/2+x,y,1/2-z
1/2-x,1/2+y,1/2+z
x,1/2-y,z
loop_
_atom_site_type_symbol
_atom_site_label
_atom_site_fract_x
_atom_site_fract_y
_atom_site_fract_z
Si Si1 0.323604 0.575090 0.914130
Si Si2 0.084317 0.899933 0.414489
Si Si3 0.044741 0.914642 0.057319
Si Si4 0.811214 0.835756 0.895150
O O1 0.352953 0.484942 0.925609
O O2 0.198656 0.593588 0.019742
O O3 0.287443 0.603079 0.741862
O O4 0.460613 0.611628 0.970994
O O5 0.202063 0.845742 0.470310
O O6 0.029498 0.898779 0.239779
O O7 0.953592 0.856002 0.964409
O O8 0.000000 0.000000 0.000000
O O9 0.806413 0.750000 0.831939
#
# Coordination Sequence:
#
# PCOD9467499 Si02
#       4
#     8   8   8   8
#     4  11  23  40  70 101 134 177 230 278 336 417
#     4  11  23  42  69 100 134 179 231 279 337 414
#     4  12  23  41  71 103 133 176 232 285 334 407
#     4  12  27  45  67 101 144 181 225 291 353 400
#
# _framework density 21.023420000000002
#
# number of rings (size 3 to 8) (size 9 to 14) (size 15 to 20)
#    0.000    0.500    5.000    3.000    3.500    5.000 
#    0.000    2.500    0.000    0.000    0.000    0.000 
#    0.000    0.000    0.000    0.000    0.000    0.000 
#
# Total GULP energy -178905.031837 kJ/mol
# GULP energy per Si atom -5590.782245 kJ/mol
# Density = 2.097557 g / cm^3
# Si number density = 21.023420 Si / 1000 Ang^3
#
#
#
# Elastic Constant Matrix: (Units=GPa)
#
#
# Indices 1 2 3 4 5 6 
#
# 1 80.1280 27.4609 -9.8760 0.0000 0.0000 0.0000
# 2 27.4609 47.9726 1.6324 0.0000 0.0000 0.0000
# 3 -9.8760 1.6324 78.1129 0.0000 0.0000 0.0000
# 4 0.0000 0.0000 0.0000 -8.2672 0.0000 0.0000
# 5 0.0000 0.0000 0.0000 0.0000 42.1969 0.0000
# 6 0.0000 0.0000 0.0000 0.0000 0.0000 12.8003
#
#
#
# Elastic Compliance Matrix: (Units=1/GPa)
#
#
# Indices 1 2 3 4 5 6 
#
# 1 0.015895 -0.009174 0.002201 0.000000 0.000000 0.000000
# 2 -0.009174 0.026155 -0.001706 0.000000 0.000000 0.000000
# 3 0.002201 -0.001706 0.013116 0.000000 0.000000 0.000000
# 4 0.000000 0.000000 0.000000 -0.120960 0.000000 0.000000
# 5 0.000000 0.000000 0.000000 0.000000 0.023698 0.000000
# 6 0.000000 0.000000 0.000000 0.000000 0.000000 0.078123
#
#
# Mechanical properties :
#
#
# Convention : Reuss Voigt Hill
#
# Bulk Modulus (GPa) = 26.44933 27.18314 26.81624
# Shear Modulus (GPa) = 75.77073 21.81241 48.79157
#
# Velocity S-wave (km/s) = 6.00994 3.22456 4.82272
# Velocity P-wave (km/s) = 7.79534 5.17897 6.61774
#
# Compressibility (1/GPa) = 0.03780814
#
# Stress axis : x y z
#
# Youngs Moduli (GPa) = 62.91141 38.23407 76.24296
#
# Poissons Ratio (x) = 0.35075 -0.16784
# Poissons Ratio (y) = 0.57714 0.13011
# Poissons Ratio (z) = -0.13849 0.06525
#
# Static dielectric constant tensor:
#      x y z
#    x 1.697410 0.000000 0.000000 
#    y 0.000000 4.235530 0.000000 
#    z 0.000000 0.000000 1.784720 
# 
# From -- ./inp_files/4133.got.cif
#   From: 2010.05.17/outbox.cif.g08.bks.cpg/sg62_3_cif.got.tgz:4133.got - 2010.06.03 15:25:27.
