data_PCOD9467101
_publ_section_title
;
Structure prediction by ZEFSAII (Michael W. Deem and Ramdas Pophale) SiO2 
 PCOD9467101
Probable space group: P N M A
;
_chemical_formula_sum "Si O2"
_cell_formula_units_Z 32
_cell_length_a 9.137921
_cell_length_b 25.121976
_cell_length_c 4.775481
_cell_angle_alpha 90.000000
_cell_angle_beta 90.000000
_cell_angle_gamma 90.000000
_cell_volume 1096.271988
_symmetry_space_group_name_H-M "P N M A"
_symmetry_group_IT_number 62
_symmetry_cell_setting 'orthorhombic'
loop_
_space_group_symop_operation_xyz
x,y,z
1/2-x,-y,1/2+z
1/2+x,1/2-y,1/2-z
-x,1/2+y,-z
-x,-y,-z
1/2+x,y,1/2-z
1/2-x,1/2+y,1/2+z
x,1/2-y,z
loop_
_atom_site_type_symbol
_atom_site_label
_atom_site_fract_x
_atom_site_fract_y
_atom_site_fract_z
Si Si1 0.086630 0.689735 0.249011
Si Si2 0.232111 0.464396 0.522971
Si Si3 0.540096 0.602057 0.838391
Si Si4 0.164673 0.308571 0.361948
O O1 0.130291 0.750000 0.343013
O O2 0.128126 0.638139 0.434979
O O3 0.167523 0.686092 0.951552
O O4 0.915666 0.690180 0.332286
O O5 0.261387 0.481416 0.839591
O O6 0.358332 0.427889 0.383935
O O7 0.927260 0.561423 0.512106
O O8 0.418167 0.643417 0.713382
O O9 0.133959 0.250000 0.244539
#
# Coordination Sequence:
#
# PCOD9467101 Si02
#       4
#     8   8   8   8
#     4   8  16  35  66 108 146 183 233 291 361 446
#     4  12  28  50  73 108 145 192 256 318 364 428
#     4  10  23  44  70 104 144 196 241 303 378 432
#     4   8  16  35  66 108 146 183 233 291 361 446
#
# _framework density 29.189834000000001
#
# number of rings (size 3 to 8) (size 9 to 14) (size 15 to 20)
#    1.500    1.000    0.000    1.500    3.500    0.000 
#    4.500    5.000    0.000    0.000    0.000    0.000 
#    0.000    0.000    0.000    0.000    0.000    0.000 
#
# Total GULP energy -178883.659242 kJ/mol
# GULP energy per Si atom -5590.114351 kJ/mol
# Density = 2.912340 g / cm^3
# Si number density = 29.189834 Si / 1000 Ang^3
#
#
#
# Elastic Constant Matrix: (Units=GPa)
#
#
# Indices 1 2 3 4 5 6 
#
# 1 168.2489 28.4990 19.4159 0.0000 0.0000 0.0000
# 2 28.4990 154.5925 15.2062 0.0000 0.0000 0.0000
# 3 19.4159 15.2062 88.6204 0.0000 0.0000 0.0000
# 4 0.0000 0.0000 0.0000 38.9548 0.0000 0.0000
# 5 0.0000 0.0000 0.0000 0.0000 43.8402 0.0000
# 6 0.0000 0.0000 0.0000 0.0000 0.0000 39.9130
#
#
#
# Elastic Compliance Matrix: (Units=1/GPa)
#
#
# Indices 1 2 3 4 5 6 
#
# 1 0.006257 -0.001036 -0.001193 0.000000 0.000000 0.000000
# 2 -0.001036 0.006751 -0.000931 0.000000 0.000000 0.000000
# 3 -0.001193 -0.000931 0.011705 0.000000 0.000000 0.000000
# 4 0.000000 0.000000 0.000000 0.025671 0.000000 0.000000
# 5 0.000000 0.000000 0.000000 0.000000 0.022810 0.000000
# 6 0.000000 0.000000 0.000000 0.000000 0.000000 0.025054
#
#
# Mechanical properties :
#
#
# Convention : Reuss Voigt Hill
#
# Bulk Modulus (GPa) = 54.37083 59.74487 57.05785
# Shear Modulus (GPa) = 45.16695 47.76433 46.46564
#
# Velocity S-wave (km/s) = 3.93791 4.04955 3.99412
# Velocity P-wave (km/s) = 6.27242 6.50978 6.39220
#
# Compressibility (1/GPa) = 0.01839222
#
# Stress axis : x y z
#
# Youngs Moduli (GPa) = 159.82753 148.12095 85.43151
#
# Poissons Ratio (x) = 0.15346 0.10192
# Poissons Ratio (y) = 0.16559 0.07957
# Poissons Ratio (z) = 0.19068 0.13796
#
# Static dielectric constant tensor:
#      x y z
#    x 2.230070 0.000000 0.000000 
#    y 0.000000 2.386870 0.000000 
#    z 0.000000 0.000000 2.242020 
# 
# From -- ./inp_files/491.got.cif
#   From: 2010.05.17/outbox.cif.g08.bks.cpg/sg62_1_cif.got.tgz:491.got - 2010.06.03 15:25:27.
