data_PCOD9467004
_publ_section_title
;
Structure prediction by ZEFSAII (Michael W. Deem and Ramdas Pophale) SiO2 
 PCOD9467004
Probable space group: P N M A
;
_chemical_formula_sum "Si O2"
_cell_formula_units_Z 40
_cell_length_a 13.914630
_cell_length_b 9.285151
_cell_length_c 14.046396
_cell_angle_alpha 90.000000
_cell_angle_beta 90.000000
_cell_angle_gamma 90.000000
_cell_volume 1814.786506
_symmetry_space_group_name_H-M "P N M A"
_symmetry_group_IT_number 62
_symmetry_cell_setting 'orthorhombic'
loop_
_space_group_symop_operation_xyz
x,y,z
1/2-x,-y,1/2+z
1/2+x,1/2-y,1/2-z
-x,1/2+y,-z
-x,-y,-z
1/2+x,y,1/2-z
1/2-x,1/2+y,1/2+z
x,1/2-y,z
loop_
_atom_site_type_symbol
_atom_site_label
_atom_site_fract_x
_atom_site_fract_y
_atom_site_fract_z
Si Si1 0.890568 0.080868 0.105748
Si Si2 0.088413 0.082523 0.546935
Si Si3 0.283995 0.917537 0.547569
Si Si4 0.306448 0.586400 0.775277
Si Si5 0.509949 0.915361 0.244431
O O1 0.906134 0.250000 0.088436
O O2 0.793038 0.064183 0.169271
O O3 0.974736 0.013947 0.169225
O O4 0.869559 0.994304 0.009393
O O5 0.091104 0.250000 0.518640
O O6 0.068226 0.077573 0.660129
O O7 0.187085 0.003653 0.523028
O O8 0.000000 0.000000 0.500000
O O9 0.277685 0.750000 0.519774
O O10 0.292430 0.924339 0.661539
O O11 0.339108 0.750000 0.796105
O O12 0.390353 0.474544 0.797758
O O13 0.520392 0.750000 0.274636
#
# Coordination Sequence:
#
# PCOD9467004 Si02
#       5
#     8   8   8   8   8
#     4  11  23  42  66  93 126 168 213 262 318 381
#     4  11  23  39  62  94 127 165 212 264 319 376
#     4  11  23  41  64  92 126 166 210 263 319 378
#     4  10  23  42  64  90 125 168 211 258 317 380
#     4  11  24  40  63  93 126 166 211 263 316 374
#
# _framework density 22.041160999999999
#
# number of rings (size 3 to 8) (size 9 to 14) (size 15 to 20)
#    0.000    1.200    2.000    3.600    0.000    9.600 
#    0.000    0.000    0.000    0.000    0.000    0.000 
#    0.000    0.000    0.000    0.000    0.000    0.000 
#
# Total GULP energy -223963.970213 kJ/mol
# GULP energy per Si atom -5599.099255 kJ/mol
# Density = 2.199099 g / cm^3
# Si number density = 22.041161 Si / 1000 Ang^3
#
#
#
# Elastic Constant Matrix: (Units=GPa)
#
#
# Indices 1 2 3 4 5 6 
#
# 1 52.5873 35.8763 -3.3002 0.0000 0.0000 0.0000
# 2 35.8763 149.2506 33.0231 0.0000 0.0000 0.0000
# 3 -3.3002 33.0231 82.1452 0.0000 0.0000 0.0000
# 4 0.0000 0.0000 0.0000 29.8684 0.0000 0.0000
# 5 0.0000 0.0000 0.0000 0.0000 39.3778 0.0000
# 6 0.0000 0.0000 0.0000 0.0000 0.0000 34.3477
#
#
#
# Elastic Compliance Matrix: (Units=1/GPa)
#
#
# Indices 1 2 3 4 5 6 
#
# 1 0.023654 -0.006472 0.003552 0.000000 0.000000 0.000000
# 2 -0.006472 0.009125 -0.003928 0.000000 0.000000 0.000000
# 3 0.003552 -0.003928 0.013895 0.000000 0.000000 0.000000
# 4 0.000000 0.000000 0.000000 0.033480 0.000000 0.000000
# 5 0.000000 0.000000 0.000000 0.000000 0.025395 0.000000
# 6 0.000000 0.000000 0.000000 0.000000 0.000000 0.029114
#
#
# Mechanical properties :
#
#
# Convention : Reuss Voigt Hill
#
# Bulk Modulus (GPa) = 30.32285 46.13126 38.22706
# Shear Modulus (GPa) = 31.37690 35.27771 33.32731
#
# Velocity S-wave (km/s) = 3.77710 4.00501 3.89273
# Velocity P-wave (km/s) = 5.72794 6.50860 6.13071
#
# Compressibility (1/GPa) = 0.03297843
#
# Stress axis : x y z
#
# Youngs Moduli (GPa) = 42.27587 109.58919 71.96579
#
# Poissons Ratio (x) = 0.70924 -0.25563
# Poissons Ratio (y) = 0.27360 0.28271
# Poissons Ratio (z) = -0.15017 0.43050
#
# Static dielectric constant tensor:
#      x y z
#    x 1.781840 0.000000 0.000000 
#    y 0.000000 1.875040 0.000000 
#    z 0.000000 0.000000 1.840380 
# 
# From -- ./inp_files/18602.got.cif
#   From: 2010.05.17/outbox.cif.g08.bks.cpg/sg62_10_cif.got.tgz:18602.got - 2010.06.03 15:25:27.
