data_PCOD9467270
_publ_section_title
;
Structure prediction by ZEFSAII (Michael W. Deem and Ramdas Pophale) SiO2 
 PCOD9467270
Probable space group: P N M A
;
_chemical_formula_sum "Si O2"
_cell_formula_units_Z 48
_cell_length_a 8.844379
_cell_length_b 20.098676
_cell_length_c 15.569941
_cell_angle_alpha 90.000000
_cell_angle_beta 90.000000
_cell_angle_gamma 90.000000
_cell_volume 2767.717507
_symmetry_space_group_name_H-M "P N M A"
_symmetry_group_IT_number 62
_symmetry_cell_setting 'orthorhombic'
loop_
_space_group_symop_operation_xyz
x,y,z
1/2-x,-y,1/2+z
1/2+x,1/2-y,1/2-z
-x,1/2+y,-z
-x,-y,-z
1/2+x,y,1/2-z
1/2-x,1/2+y,1/2+z
x,1/2-y,z
loop_
_atom_site_type_symbol
_atom_site_label
_atom_site_fract_x
_atom_site_fract_y
_atom_site_fract_z
Si Si1 0.117788 0.539588 0.283908
Si Si2 0.430824 0.328613 0.324517
Si Si3 0.877898 0.987285 0.426631
Si Si4 0.612465 0.582607 0.528728
Si Si5 0.925537 0.942208 0.123380
Si Si6 0.767958 0.907108 0.807350
O O1 0.262928 0.569783 0.332757
O O2 0.167450 0.464621 0.256682
O O3 0.974126 0.540260 0.346789
O O4 0.054685 0.568950 0.194893
O O5 0.423955 0.250000 0.316061
O O6 0.350508 0.355860 0.410570
O O7 0.356899 0.365785 0.243790
O O8 0.600007 0.356770 0.331857
O O9 0.750435 0.941472 0.469289
O O10 0.799102 0.053212 0.388401
O O11 0.000000 0.000000 0.500000
O O12 0.473434 0.594953 0.463586
O O13 0.575148 0.519776 0.591599
#
# Coordination Sequence:
#
# PCOD9467270 Si02
#       6
#     8   8   8   8   8   8
#     4  12  18  32  53  83 114 139 173 228 298 348
#     4  12  25  39  55  77 115 167 200 225 267 342
#     4  12  21  31  56  85 115 146 179 241 303 337
#     4  11  20  34  51  79 110 147 185 234 282 336
#     4  11  19  31  52  79 111 141 173 231 298 336
#     4  12  20  39  55  81 120 148 193 231 279 350
#
# _framework density 17.342811000000001
#
# number of rings (size 3 to 8) (size 9 to 14) (size 15 to 20)
#    0.000    0.333   10.000    1.500    0.000    0.000 
#    0.000    0.000    0.000    0.000    0.000    4.667 
#    0.000    0.000    0.000    0.000    0.000    0.000 
#
# Total GULP energy -267826.331107 kJ/mol
# GULP energy per Si atom -5579.715231 kJ/mol
# Density = 1.730334 g / cm^3
# Si number density = 17.342811 Si / 1000 Ang^3
#
#
#
# Elastic Constant Matrix: (Units=GPa)
#
#
# Indices 1 2 3 4 5 6 
#
# 1 101.1982 27.5347 47.8391 0.0000 0.0000 0.0000
# 2 27.5347 52.3939 17.2766 0.0000 0.0000 0.0000
# 3 47.8391 17.2766 101.1080 0.0000 0.0000 0.0000
# 4 0.0000 0.0000 0.0000 13.2762 0.0000 0.0000
# 5 0.0000 0.0000 0.0000 0.0000 52.7302 0.0000
# 6 0.0000 0.0000 0.0000 0.0000 0.0000 10.9559
#
#
#
# Elastic Compliance Matrix: (Units=1/GPa)
#
#
# Indices 1 2 3 4 5 6 
#
# 1 0.014088 -0.005517 -0.005723 0.000000 0.000000 0.000000
# 2 -0.005517 0.022386 -0.001215 0.000000 0.000000 0.000000
# 3 -0.005723 -0.001215 0.012806 0.000000 0.000000 0.000000
# 4 0.000000 0.000000 0.000000 0.075322 0.000000 0.000000
# 5 0.000000 0.000000 0.000000 0.000000 0.018964 0.000000
# 6 0.000000 0.000000 0.000000 0.000000 0.000000 0.091275
#
#
# Mechanical properties :
#
#
# Convention : Reuss Voigt Hill
#
# Bulk Modulus (GPa) = 41.03307 48.88898 44.96102
# Shear Modulus (GPa) = 18.66543 26.19578 22.43061
#
# Velocity S-wave (km/s) = 3.28420 3.89069 3.60024
# Velocity P-wave (km/s) = 6.17193 6.95947 6.57750
#
# Compressibility (1/GPa) = 0.02437059
#
# Stress axis : x y z
#
# Youngs Moduli (GPa) = 70.98219 44.67082 78.08894
#
# Poissons Ratio (x) = 0.24643 0.44691
# Poissons Ratio (y) = 0.39158 0.09488
# Poissons Ratio (z) = 0.40624 0.05428
#
# Static dielectric constant tensor:
#      x y z
#    x 1.664300 0.000000 0.000000 
#    y 0.000000 1.551910 0.000000 
#    z 0.000000 0.000000 1.645930 
# 
# From -- ./inp_files/16927.got.cif
#   From: 2010.05.17/outbox.cif.g08.bks.cpg/sg62_9_cif.got.tgz:16927.got - 2010.06.03 15:25:27.
