data_PCOD9467343
_publ_section_title
;
Structure prediction by ZEFSAII (Michael W. Deem and Ramdas Pophale) SiO2 
 PCOD9467343
Probable space group: P N M A
;
_chemical_formula_sum "Si O2"
_cell_formula_units_Z 64
_cell_length_a 11.548003
_cell_length_b 19.273375
_cell_length_c 14.370004
_cell_angle_alpha 90.000000
_cell_angle_beta 90.000000
_cell_angle_gamma 90.000000
_cell_volume 3198.317310
_symmetry_space_group_name_H-M "P N M A"
_symmetry_group_IT_number 62
_symmetry_cell_setting 'orthorhombic'
loop_
_space_group_symop_operation_xyz
x,y,z
1/2-x,-y,1/2+z
1/2+x,1/2-y,1/2-z
-x,1/2+y,-z
-x,-y,-z
1/2+x,y,1/2-z
1/2-x,1/2+y,1/2+z
x,1/2-y,z
loop_
_atom_site_type_symbol
_atom_site_label
_atom_site_fract_x
_atom_site_fract_y
_atom_site_fract_z
Si Si1 0.339413 0.968412 0.783989
Si Si2 0.924317 0.888639 0.280635
Si Si3 0.876676 0.673469 0.089839
Si Si4 0.977150 0.420404 0.022971
Si Si5 0.889783 0.170205 0.574688
Si Si6 0.213248 0.930844 0.119827
Si Si7 0.869492 0.026788 0.511177
Si Si8 0.917310 0.446118 0.233506
O O1 0.220148 0.928669 0.756503
O O2 0.462142 0.927445 0.786991
O O3 0.348987 0.026656 0.702535
O O4 0.325458 0.005631 0.884769
O O5 0.936888 0.848188 0.185142
O O6 0.802332 0.877778 0.333327
O O7 0.022805 0.863510 0.351019
O O8 0.916323 0.970298 0.252987
O O9 0.911086 0.750000 0.060536
O O10 0.740906 0.672666 0.111993
O O11 0.910341 0.621474 0.007994
O O12 0.944239 0.419998 0.129815
O O13 0.874538 0.397912 0.953620
O O14 0.000000 0.500000 0.000000
O O15 0.921940 0.250000 0.550273
O O16 0.878133 0.109617 0.497476
O O17 0.289046 0.986589 0.061259
O O18 0.000000 0.000000 0.500000
#
# Coordination Sequence:
#
# PCOD9467343 Si02
#       8
#     8   8   8   8   8   8   8   8
#     4  11  21  36  55  95 122 161 200 265 327 366
#     4  11  21  38  57  87 123 162 205 254 322 375
#     4  11  25  39  58  88 126 167 206 251 311 385
#     4  12  21  36  60  88 123 163 210 259 308 373
#     4  11  23  39  56  83 124 166 203 250 312 386
#     4  11  22  35  61  91 126 162 207 266 316 367
#     4  12  21  38  61  92 129 161 210 267 317 380
#     4  11  21  34  59  88 126 158 210 261 312 372
#
# _framework density 20.010522000000002
#
# number of rings (size 3 to 8) (size 9 to 14) (size 15 to 20)
#    0.000    0.750    6.250    3.375    1.750    0.000 
#    0.000    0.625    0.000    0.000    0.000    9.625 
#    0.000    0.000    0.000    0.000    0.000    0.000 
#
# Total GULP energy -356798.511431 kJ/mol
# GULP energy per Si atom -5574.976741 kJ/mol
# Density = 1.996498 g / cm^3
# Si number density = 20.010522 Si / 1000 Ang^3
#
#
#
# Elastic Constant Matrix: (Units=GPa)
#
#
# Indices 1 2 3 4 5 6 
#
# 1 108.8364 9.9224 9.6079 0.0000 0.0000 0.0000
# 2 9.9224 65.7074 5.5846 0.0000 0.0000 0.0000
# 3 9.6079 5.5846 78.7039 0.0000 0.0000 0.0000
# 4 0.0000 0.0000 0.0000 5.6768 0.0000 0.0000
# 5 0.0000 0.0000 0.0000 0.0000 43.5200 0.0000
# 6 0.0000 0.0000 0.0000 0.0000 0.0000 17.9219
#
#
#
# Elastic Compliance Matrix: (Units=1/GPa)
#
#
# Indices 1 2 3 4 5 6 
#
# 1 0.009402 -0.001330 -0.001053 0.000000 0.000000 0.000000
# 2 -0.001330 0.015500 -0.000937 0.000000 0.000000 0.000000
# 3 -0.001053 -0.000937 0.012901 0.000000 0.000000 0.000000
# 4 0.000000 0.000000 0.000000 0.176155 0.000000 0.000000
# 5 0.000000 0.000000 0.000000 0.000000 0.022978 0.000000
# 6 0.000000 0.000000 0.000000 0.000000 0.000000 0.055798
#
#
# Mechanical properties :
#
#
# Convention : Reuss Voigt Hill
#
# Bulk Modulus (GPa) = 32.09178 33.71973 32.90575
# Shear Modulus (GPa) = 16.14141 28.63261 22.38701
#
# Velocity S-wave (km/s) = 2.84323 3.78680 3.34842
# Velocity P-wave (km/s) = 5.18179 6.00061 5.60617
#
# Compressibility (1/GPa) = 0.03116063
#
# Stress axis : x y z
#
# Youngs Moduli (GPa) = 106.35609 64.51799 77.51359
#
# Poissons Ratio (x) = 0.08583 0.08165
# Poissons Ratio (y) = 0.14149 0.07266
# Poissons Ratio (z) = 0.11204 0.06048
#
# Static dielectric constant tensor:
#      x y z
#    x 1.843010 0.000000 0.000000 
#    y 0.000000 1.772890 0.000000 
#    z 0.000000 0.000000 1.733810 
# 
# From -- ./inp_files/18277.got.cif
#   From: 2010.05.17/outbox.cif.g08.bks.cpg/sg62_10_cif.got.tgz:18277.got - 2010.06.03 15:25:27.
