data_PCOD9467109
_publ_section_title
;
Structure prediction by ZEFSAII (Michael W. Deem and Ramdas Pophale) SiO2 
 PCOD9467109
Probable space group: P N M A
;
_chemical_formula_sum "Si O2"
_cell_formula_units_Z 32
_cell_length_a 18.238789
_cell_length_b 13.677679
_cell_length_c 4.860242
_cell_angle_alpha 90.000000
_cell_angle_beta 90.000000
_cell_angle_gamma 90.000000
_cell_volume 1212.456875
_symmetry_space_group_name_H-M "P N M A"
_symmetry_group_IT_number 62
_symmetry_cell_setting 'orthorhombic'
loop_
_space_group_symop_operation_xyz
x,y,z
1/2-x,-y,1/2+z
1/2+x,1/2-y,1/2-z
-x,1/2+y,-z
-x,-y,-z
1/2+x,y,1/2-z
1/2-x,1/2+y,1/2+z
x,1/2-y,z
loop_
_atom_site_type_symbol
_atom_site_label
_atom_site_fract_x
_atom_site_fract_y
_atom_site_fract_z
Si Si1 0.420158 0.935982 0.565686
Si Si2 0.286415 0.854039 0.310257
Si Si3 0.988970 0.366920 0.574179
Si Si4 0.336457 0.445934 0.164415
O O1 0.363134 0.852907 0.469452
O O2 0.450072 0.905176 0.860422
O O3 0.368268 0.029073 0.473086
O O4 0.488118 0.918971 0.356658
O O5 0.271453 0.750000 0.172753
O O6 0.224724 0.875608 0.538894
O O7 0.299504 0.946629 0.106646
O O8 0.988978 0.250000 0.594767
O O9 0.910533 0.405201 0.473854
#
# Coordination Sequence:
#
# PCOD9467109 Si02
#       4
#     8   8   8   8
#     4  10  26  44  72 107 143 191 244 303 360 438
#     4  10  23  45  69 103 147 193 242 301 367 434
#     4  12  23  45  73 107 147 190 244 304 366 435
#     4  10  25  42  71 105 144 192 244 303 360 441
#
# _framework density 26.392693000000001
#
# number of rings (size 3 to 8) (size 9 to 14) (size 15 to 20)
#    1.500    0.000    0.000    4.500    3.500    2.000 
#    0.000    5.000    0.000    0.000    0.000    0.000 
#    0.000    0.000    0.000    0.000    0.000    0.000 
#
# Total GULP energy -178487.035444 kJ/mol
# GULP energy per Si atom -5577.719858 kJ/mol
# Density = 2.633262 g / cm^3
# Si number density = 26.392693 Si / 1000 Ang^3
#
#
#
# Elastic Constant Matrix: (Units=GPa)
#
#
# Indices 1 2 3 4 5 6 
#
# 1 93.0474 -17.3275 7.9354 0.0000 0.0000 0.0000
# 2 -17.3275 149.8134 41.4097 0.0000 0.0000 0.0000
# 3 7.9354 41.4097 108.1453 0.0000 0.0000 0.0000
# 4 0.0000 0.0000 0.0000 14.0240 0.0000 0.0000
# 5 0.0000 0.0000 0.0000 0.0000 39.1939 0.0000
# 6 0.0000 0.0000 0.0000 0.0000 0.0000 16.5344
#
#
#
# Elastic Compliance Matrix: (Units=1/GPa)
#
#
# Indices 1 2 3 4 5 6 
#
# 1 0.011190 0.001701 -0.001472 0.000000 0.000000 0.000000
# 2 0.001701 0.007724 -0.003082 0.000000 0.000000 0.000000
# 3 -0.001472 -0.003082 0.010535 0.000000 0.000000 0.000000
# 4 0.000000 0.000000 0.000000 0.071306 0.000000 0.000000
# 5 0.000000 0.000000 0.000000 0.000000 0.025514 0.000000
# 6 0.000000 0.000000 0.000000 0.000000 0.000000 0.060480
#
#
# Mechanical properties :
#
#
# Convention : Reuss Voigt Hill
#
# Bulk Modulus (GPa) = 42.12077 46.11572 44.11825
# Shear Modulus (GPa) = 24.95387 35.21637 30.08512
#
# Velocity S-wave (km/s) = 3.07821 3.65680 3.37991
# Velocity P-wave (km/s) = 5.35049 5.94478 5.65545
#
# Compressibility (1/GPa) = 0.02374125
#
# Stress axis : x y z
#
# Youngs Moduli (GPa) = 89.36885 129.47158 94.92081
#
# Poissons Ratio (x) = -0.22026 0.13977
# Poissons Ratio (y) = -0.15203 0.29257
# Poissons Ratio (z) = 0.13159 0.39907
#
# Static dielectric constant tensor:
#      x y z
#    x 2.130100 0.000000 0.000000 
#    y 0.000000 2.178240 0.000000 
#    z 0.000000 0.000000 2.137150 
# 
# From -- ./inp_files/1448.got.cif
#   From: 2010.05.17/outbox.cif.g08.bks.cpg/sg62_1_cif.got.tgz:1448.got - 2010.06.03 15:25:27.
