data_PCOD9467867
_publ_section_title
;
Structure prediction by ZEFSAII (Michael W. Deem and Ramdas Pophale) SiO2 
 PCOD9467867
Probable space group: P N M A
;
_chemical_formula_sum "Si O2"
_cell_formula_units_Z 48
_cell_length_a 30.000000
_cell_length_b 9.000000
_cell_length_c 9.000000
_cell_angle_alpha 90.000000
_cell_angle_beta 90.000000
_cell_angle_gamma 90.000000
_cell_volume 2430.000000
_symmetry_space_group_name_H-M "P N M A"
_symmetry_group_IT_number 62
_symmetry_cell_setting 'orthorhombic'
loop_
_space_group_symop_operation_xyz
x,y,z
1/2-x,-y,1/2+z
1/2+x,1/2-y,1/2-z
-x,1/2+y,-z
-x,-y,-z
1/2+x,y,1/2-z
1/2-x,1/2+y,1/2+z
x,1/2-y,z
loop_
_atom_site_type_symbol
_atom_site_label
_atom_site_fract_x
_atom_site_fract_y
_atom_site_fract_z
Si Si1 0.778126 0.416794 0.169584
Si Si2 0.119825 0.413458 0.542528
Si Si3 0.638142 0.082459 0.600901
Si Si4 0.459722 0.572870 0.413716
Si Si5 0.037245 0.922490 0.594446
Si Si6 0.701661 0.583310 0.021560
O O1 0.764348 0.250000 0.128147
O O2 0.823673 0.461616 0.086064
O O3 0.785281 0.420772 0.346892
O O4 0.742892 0.538951 0.121700
O O5 0.102988 0.250000 0.501914
O O6 0.130057 0.410562 0.719820
O O7 0.084074 0.540982 0.518213
O O8 0.164115 0.459488 0.458812
O O9 0.651517 0.250000 0.555145
O O10 0.590594 0.043767 0.529054
O O11 0.500000 0.500000 0.500000
O O12 0.464494 0.750000 0.407063
O O13 0.461533 0.503225 0.251475
O O14 0.029712 0.750000 0.612878
O O15 0.000000 0.000000 0.500000
O O16 0.685803 0.750000 0.052502
#
# Coordination Sequence:
#
# PCOD9467867 Si02
#       6
#     8   8   8   8   8   8
#     4  10  20  33  52  77 102 132 171 212 254 302
#     4   9  17  32  53  76 102 134 172 211 254 308
#     4   8  16  31  51  73 100 134 169 206 251 306
#     4  10  20  35  55  80 107 138 176 217 263 312
#     4  11  21  35  55  79 107 139 175 216 261 310
#     4  10  20  34  53  77 104 135 171 210 255 306
#
# _framework density 19.753086
#
# number of rings (size 3 to 8) (size 9 to 14) (size 15 to 20)
#    0.000    2.333    0.000    4.500    0.000    6.667 
#    0.000    1.667    0.000    6.000    0.000    0.000 
#    0.000    0.000    0.000    0.000    0.000    0.000 
#
# Total GULP energy -267389.418639 kJ/mol
# GULP energy per Si atom -5570.612888 kJ/mol
# Density = 1.970813 g / cm^3
# Si number density = 19.753086 Si / 1000 Ang^3
#
#
#
# Elastic Constant Matrix: (Units=GPa)
#
#
# Indices 1 2 3 4 5 6 
#
# 1 13.1522 -10.7446 -0.8779 0.0000 0.0000 0.0000
# 2 -10.7446 19.9090 6.7070 0.0000 0.0000 0.0000
# 3 -0.8779 6.7070 -5.1213 0.0000 0.0000 0.0000
# 4 0.0000 0.0000 0.0000 19.7734 0.0000 0.0000
# 5 0.0000 0.0000 0.0000 0.0000 12.3507 0.0000
# 6 0.0000 0.0000 0.0000 0.0000 0.0000 32.5780
#
#
#
# Elastic Compliance Matrix: (Units=1/GPa)
#
#
# Indices 1 2 3 4 5 6 
#
# 1 0.119447 0.049516 0.044372 0.000000 0.000000 0.000000
# 2 0.049516 0.055378 0.064037 0.000000 0.000000 0.000000
# 3 0.044372 0.064037 -0.119003 0.000000 0.000000 0.000000
# 4 0.000000 0.000000 0.000000 0.050573 0.000000 0.000000
# 5 0.000000 0.000000 0.000000 0.000000 0.080967 0.000000
# 6 0.000000 0.000000 0.000000 0.000000 0.000000 0.030696
#
#
# Mechanical properties :
#
#
# Convention : Reuss Voigt Hill
#
# Bulk Modulus (GPa) = 2.69055 2.01210 2.35132
# Shear Modulus (GPa) = 191.57804 15.13077 103.35441
#
# Velocity S-wave (km/s) = 9.85885 2.77066 7.24132
# Velocity P-wave (km/s) = 11.44382 3.35504 8.43259
#
# Compressibility (1/GPa) = 0.37167093
#
# Stress axis : x y z
#
# Youngs Moduli (GPa) = 8.37195 18.05761 -8.40316
#
# Poissons Ratio (x) = -0.89413 0.37286
# Poissons Ratio (y) = -0.41454 0.53811
# Poissons Ratio (z) = -0.37148 -1.15636
#
# Static dielectric constant tensor:
#      x y z
#    x 1.631390 0.000000 0.000000 
#    y 0.000000 1.636280 0.000000 
#    z 0.000000 0.000000 1.665260 
# 
# From -- ./inp_files/10255.got.cif
#   From: 2010.05.17/outbox.ucp.g08.bks.cvg/sg62_6_cif.got.tgz:10255.got - 2010.06.11 16:29:25.
