data_PCOD9467386
_publ_section_title
;
Structure prediction by ZEFSAII (Michael W. Deem and Ramdas Pophale) SiO2 
 PCOD9467386
Probable space group: P N M A
;
_chemical_formula_sum "Si O2"
_cell_formula_units_Z 56
_cell_length_a 10.691728
_cell_length_b 14.847443
_cell_length_c 17.343276
_cell_angle_alpha 90.000000
_cell_angle_beta 90.000000
_cell_angle_gamma 90.000000
_cell_volume 2753.155262
_symmetry_space_group_name_H-M "P N M A"
_symmetry_group_IT_number 62
_symmetry_cell_setting 'orthorhombic'
loop_
_space_group_symop_operation_xyz
x,y,z
1/2-x,-y,1/2+z
1/2+x,1/2-y,1/2-z
-x,1/2+y,-z
-x,-y,-z
1/2+x,y,1/2-z
1/2-x,1/2+y,1/2+z
x,1/2-y,z
loop_
_atom_site_type_symbol
_atom_site_label
_atom_site_fract_x
_atom_site_fract_y
_atom_site_fract_z
Si Si1 0.906871 0.148909 0.687995
Si Si2 0.277444 0.143249 0.449712
Si Si3 0.925317 0.561170 0.439394
Si Si4 0.742789 0.532018 0.701051
Si Si5 0.287231 0.544208 0.632814
Si Si6 0.516620 0.076248 0.664064
Si Si7 0.560350 0.142717 0.497569
O O1 0.853678 0.250000 0.682325
O O2 0.810583 0.065638 0.696517
O O3 0.987723 0.124156 0.612752
O O4 0.992629 0.143338 0.765148
O O5 0.279592 0.250000 0.437486
O O6 0.180515 0.117831 0.516369
O O7 0.419805 0.114393 0.471056
O O8 0.232668 0.091045 0.373832
O O9 0.849586 0.492374 0.385479
O O10 0.000000 0.500000 0.500000
O O11 0.782462 0.580635 0.779930
O O12 0.596762 0.506214 0.697843
O O13 0.382327 0.460465 0.638005
O O14 0.340684 0.604116 0.563558
O O15 0.580229 0.111558 0.585723
O O16 0.564328 0.250000 0.496252
#
# Coordination Sequence:
#
# PCOD9467386 Si02
#       7
#     8   8   8   8   8   8   8
#     4  11  25  41  62  95 133 171 215 269 330 394
#     4  11  23  42  68  95 126 174 224 267 321 385
#     4  12  23  43  65  90 133 174 215 264 327 394
#     4  11  23  42  67  93 132 171 214 269 321 387
#     4  11  23  41  67  91 127 171 212 262 327 381
#     4  11  21  42  65  93 128 167 213 266 333 387
#     4  11  23  39  67  99 125 161 222 278 321 379
#
# _framework density 20.340298000000001
#
# number of rings (size 3 to 8) (size 9 to 14) (size 15 to 20)
#    0.000    0.857    5.714    2.143    0.000    1.714 
#    0.000    0.714    0.000    0.000    0.000    0.000 
#    0.000    0.000    0.000    0.000    0.000    0.000 
#
# Total GULP energy -312754.452048 kJ/mol
# GULP energy per Si atom -5584.900929 kJ/mol
# Density = 2.029400 g / cm^3
# Si number density = 20.340298 Si / 1000 Ang^3
#
#
#
# Elastic Constant Matrix: (Units=GPa)
#
#
# Indices 1 2 3 4 5 6 
#
# 1 38.1497 0.8049 9.2507 0.0000 0.0000 0.0000
# 2 0.8049 52.8904 34.9629 0.0000 0.0000 0.0000
# 3 9.2507 34.9629 142.0625 0.0000 0.0000 0.0000
# 4 0.0000 0.0000 0.0000 11.5805 0.0000 0.0000
# 5 0.0000 0.0000 0.0000 0.0000 36.6720 0.0000
# 6 0.0000 0.0000 0.0000 0.0000 0.0000 25.6807
#
#
#
# Elastic Compliance Matrix: (Units=1/GPa)
#
#
# Indices 1 2 3 4 5 6 
#
# 1 0.026668 0.000886 -0.001955 0.000000 0.000000 0.000000
# 2 0.000886 0.022610 -0.005622 0.000000 0.000000 0.000000
# 3 -0.001955 -0.005622 0.008550 0.000000 0.000000 0.000000
# 4 0.000000 0.000000 0.000000 0.086352 0.000000 0.000000
# 5 0.000000 0.000000 0.000000 0.000000 0.027269 0.000000
# 6 0.000000 0.000000 0.000000 0.000000 0.000000 0.038940
#
#
# Mechanical properties :
#
#
# Convention : Reuss Voigt Hill
#
# Bulk Modulus (GPa) = 22.49884 35.90441 29.20163
# Shear Modulus (GPa) = 20.95682 27.32556 24.14119
#
# Velocity S-wave (km/s) = 3.21333 3.66925 3.44883
# Velocity P-wave (km/s) = 4.98523 5.97004 5.49972
#
# Compressibility (1/GPa) = 0.04444674
#
# Stress axis : x y z
#
# Youngs Moduli (GPa) = 37.49838 44.22797 116.95725
#
# Poissons Ratio (x) = -0.03920 0.22861
# Poissons Ratio (y) = -0.03323 0.65757
# Poissons Ratio (z) = 0.07330 0.24866
#
# Static dielectric constant tensor:
#      x y z
#    x 1.744730 0.000000 0.000000 
#    y 0.000000 1.696320 0.000000 
#    z 0.000000 0.000000 1.751800 
# 
# From -- ./inp_files/18103.got.cif
#   From: 2010.05.17/outbox.cif.g08.bks.cpg/sg62_10_cif.got.tgz:18103.got - 2010.06.03 15:25:27.
