data_PCOD9467545
_publ_section_title
;
Structure prediction by ZEFSAII (Michael W. Deem and Ramdas Pophale) SiO2 
 PCOD9467545
Probable space group: P N M A
;
_chemical_formula_sum "Si O2"
_cell_formula_units_Z 44
_cell_length_a 24.492669
_cell_length_b 14.363147
_cell_length_c 6.499129
_cell_angle_alpha 90.000000
_cell_angle_beta 90.000000
_cell_angle_gamma 90.000000
_cell_volume 2286.340324
_symmetry_space_group_name_H-M "P N M A"
_symmetry_group_IT_number 62
_symmetry_cell_setting 'orthorhombic'
loop_
_space_group_symop_operation_xyz
x,y,z
1/2-x,-y,1/2+z
1/2+x,1/2-y,1/2-z
-x,1/2+y,-z
-x,-y,-z
1/2+x,y,1/2-z
1/2-x,1/2+y,1/2+z
x,1/2-y,z
loop_
_atom_site_type_symbol
_atom_site_label
_atom_site_fract_x
_atom_site_fract_y
_atom_site_fract_z
Si Si1 0.619542 0.610223 0.940284
Si Si2 0.117143 0.389196 0.607117
Si Si3 0.102366 0.750000 0.929288
Si Si4 0.501033 0.889441 0.020799
Si Si5 0.133526 0.250000 0.238654
Si Si6 0.015652 0.250000 0.150039
Si Si7 0.189868 0.250000 0.848026
Si Si8 0.814937 0.250000 0.693641
O O1 0.624162 0.499809 0.911297
O O2 0.611926 0.661499 0.721485
O O3 0.563843 0.632704 0.070081
O O4 0.668484 0.659806 0.058869
O O5 0.130019 0.338393 0.390183
O O6 0.157237 0.340106 0.766299
O O7 0.052883 0.366703 0.652743
O O8 0.037944 0.750000 0.991556
O O9 0.146489 0.750000 0.107611
O O10 0.491169 0.838257 0.803623
O O11 0.500000 0.000000 0.000000
O O12 0.079229 0.250000 0.094749
O O13 0.185766 0.250000 0.094109
O O14 0.250961 0.250000 0.764722
#
# Coordination Sequence:
#
# PCOD9467545 Si02
#       8
#     8   8   4   8   4   4   4   4
#     4   9  19  37  58  83 111 147 182 229 285 329
#     4   9  19  37  58  83 111 147 182 229 285 329
#     4   9  19  35  57  82 119 137 183 235 268 334
#     4   8  14  29  55  81 110 138 176 223 281 341
#     4   9  19  35  57  82 119 137 183 235 268 334
#     4   8  14  28  52  84 106 146 170 216 290 322
#     4  11  24  39  52  80 110 149 196 227 272 326
#     4  11  24  39  52  80 110 149 196 227 272 326
#
# _framework density 19.244730000000001
#
# number of rings (size 3 to 8) (size 9 to 14) (size 15 to 20)
#    0.000    2.909    0.000    1.091    0.000    5.818 
#    6.545    0.000    0.000   13.091    0.000    0.000 
#    0.000    0.000    0.000    0.000    0.000    0.000 
#
# Total GULP energy -245008.512917 kJ/mol
# GULP energy per Si atom -5568.375294 kJ/mol
# Density = 1.920093 g / cm^3
# Si number density = 19.244730 Si / 1000 Ang^3
#
#
#
# Elastic Constant Matrix: (Units=GPa)
#
#
# Indices 1 2 3 4 5 6 
#
# 1 78.3958 22.7796 6.2340 0.0000 0.0000 0.0000
# 2 22.7796 138.5502 24.8053 0.0000 0.0000 0.0000
# 3 6.2340 24.8053 38.1944 0.0000 0.0000 0.0000
# 4 0.0000 0.0000 0.0000 -2.8027 0.0000 0.0000
# 5 0.0000 0.0000 0.0000 0.0000 26.3219 0.0000
# 6 0.0000 0.0000 0.0000 0.0000 0.0000 22.1652
#
#
#
# Elastic Compliance Matrix: (Units=1/GPa)
#
#
# Indices 1 2 3 4 5 6 
#
# 1 0.013421 -0.002053 -0.000857 0.000000 0.000000 0.000000
# 2 -0.002053 0.008481 -0.005173 0.000000 0.000000 0.000000
# 3 -0.000857 -0.005173 0.029681 0.000000 0.000000 0.000000
# 4 0.000000 0.000000 0.000000 -0.356798 0.000000 0.000000
# 5 0.000000 0.000000 0.000000 0.000000 0.037991 0.000000
# 6 0.000000 0.000000 0.000000 0.000000 0.000000 0.045116
#
#
# Mechanical properties :
#
#
# Convention : Reuss Voigt Hill
#
# Bulk Modulus (GPa) = 28.23524 40.30867 34.27196
# Shear Modulus (GPa) = -25.75517 22.55830 -1.59844
#
# Velocity S-wave (km/s) = -3.66224 3.42743 -0.91235
# Velocity P-wave (km/s) = 1.78303 6.05424 4.09112
#
# Compressibility (1/GPa) = 0.03541674
#
# Stress axis : x y z
#
# Youngs Moduli (GPa) = 74.51279 117.90624 33.69111
#
# Poissons Ratio (x) = 0.24207 0.02888
# Poissons Ratio (y) = 0.15298 0.17429
# Poissons Ratio (z) = 0.06387 0.60994
#
# Static dielectric constant tensor:
#      x y z
#    x 1.716060 0.000000 0.000000 
#    y 0.000000 1.650010 0.000000 
#    z 0.000000 0.000000 1.671180 
# 
# From -- ./inp_files/1120.got.cif
#   From: 2010.05.17/outbox.cif.g08.bks.cpg/sg62_1_cif.got.tgz:1120.got - 2010.06.03 15:25:27.
