data_PCOD9467352
_publ_section_title
;
Structure prediction by ZEFSAII (Michael W. Deem and Ramdas Pophale) SiO2 
 PCOD9467352
Probable space group: P N M A
;
_chemical_formula_sum "Si O2"
_cell_formula_units_Z 48
_cell_length_a 10.250871
_cell_length_b 22.627260
_cell_length_c 11.066166
_cell_angle_alpha 90.000000
_cell_angle_beta 90.000000
_cell_angle_gamma 90.000000
_cell_volume 2566.787502
_symmetry_space_group_name_H-M "P N M A"
_symmetry_group_IT_number 62
_symmetry_cell_setting 'orthorhombic'
loop_
_space_group_symop_operation_xyz
x,y,z
1/2-x,-y,1/2+z
1/2+x,1/2-y,1/2-z
-x,1/2+y,-z
-x,-y,-z
1/2+x,y,1/2-z
1/2-x,1/2+y,1/2+z
x,1/2-y,z
loop_
_atom_site_type_symbol
_atom_site_label
_atom_site_fract_x
_atom_site_fract_y
_atom_site_fract_z
Si Si1 0.836935 0.601472 0.603414
Si Si2 0.601015 0.578959 0.786276
Si Si3 0.959062 0.529404 0.123691
Si Si4 0.827346 0.037579 0.546119
Si Si5 0.924233 0.128572 0.730646
Si Si6 0.317277 0.681590 0.135744
O O1 0.711551 0.603526 0.694266
O O2 0.852871 0.532361 0.561895
O O3 0.813625 0.641728 0.485897
O O4 0.974385 0.616583 0.670945
O O5 0.537865 0.521887 0.722336
O O6 0.672583 0.555778 0.906720
O O7 0.810799 0.548682 0.109097
O O8 0.044461 0.584911 0.158480
O O9 0.000000 0.500000 0.000000
O O10 0.918007 0.083129 0.617770
O O11 0.793855 0.161857 0.769243
O O12 0.043696 0.171047 0.700012
O O13 0.300054 0.750000 0.103921
#
# Coordination Sequence:
#
# PCOD9467352 Si02
#       6
#     8   8   8   8   8   8
#     4  11  23  38  64  93 133 166 202 259 318 384
#     4  11  21  36  59  93 130 164 201 250 323 383
#     4  11  22  34  59  98 136 158 194 253 329 388
#     4  11  21  35  64  99 128 160 205 259 331 377
#     4  12  22  42  67  93 125 164 211 268 319 376
#     4  12  27  46  64  89 125 174 221 260 307 379
#
# _framework density 18.700417999999999
#
# number of rings (size 3 to 8) (size 9 to 14) (size 15 to 20)
#    0.000    0.667    5.000    5.000    4.667    0.000 
#    0.000    0.833    0.000    0.000    0.000    0.000 
#    0.000    0.000    0.000    0.000    0.000    0.000 
#
# Total GULP energy -267995.339855 kJ/mol
# GULP energy per Si atom -5583.236247 kJ/mol
# Density = 1.865786 g / cm^3
# Si number density = 18.700418 Si / 1000 Ang^3
#
#
#
# Elastic Constant Matrix: (Units=GPa)
#
#
# Indices 1 2 3 4 5 6 
#
# 1 83.8318 34.9912 33.1576 0.0000 0.0000 0.0000
# 2 34.9912 94.3822 46.0212 0.0000 0.0000 0.0000
# 3 33.1576 46.0212 105.0672 0.0000 0.0000 0.0000
# 4 0.0000 0.0000 0.0000 21.5924 0.0000 0.0000
# 5 0.0000 0.0000 0.0000 0.0000 37.5969 0.0000
# 6 0.0000 0.0000 0.0000 0.0000 0.0000 14.2399
#
#
#
# Elastic Compliance Matrix: (Units=1/GPa)
#
#
# Indices 1 2 3 4 5 6 
#
# 1 0.014766 -0.004072 -0.002876 0.000000 0.000000 0.000000
# 2 -0.004072 0.014596 -0.005108 0.000000 0.000000 0.000000
# 3 -0.002876 -0.005108 0.012663 0.000000 0.000000 0.000000
# 4 0.000000 0.000000 0.000000 0.046313 0.000000 0.000000
# 5 0.000000 0.000000 0.000000 0.000000 0.026598 0.000000
# 6 0.000000 0.000000 0.000000 0.000000 0.000000 0.070225
#
#
# Mechanical properties :
#
#
# Convention : Reuss Voigt Hill
#
# Bulk Modulus (GPa) = 55.82913 56.84683 56.33798
# Shear Modulus (GPa) = 23.22956 25.95993 24.59475
#
# Velocity S-wave (km/s) = 3.52830 3.72990 3.63050
# Velocity P-wave (km/s) = 6.82040 7.00101 6.91130
#
# Compressibility (1/GPa) = 0.01791180
#
# Stress axis : x y z
#
# Youngs Moduli (GPa) = 67.72372 68.51416 78.97087
#
# Poissons Ratio (x) = 0.27897 0.22715
# Poissons Ratio (y) = 0.27575 0.40339
# Poissons Ratio (z) = 0.19480 0.34998
#
# Static dielectric constant tensor:
#      x y z
#    x 1.712360 0.000000 0.000000 
#    y 0.000000 1.627590 0.000000 
#    z 0.000000 0.000000 1.524810 
# 
# From -- ./inp_files/5286.got.cif
#   From: 2010.05.17/outbox.cif.g08.bks.cpg/sg62_3_cif.got.tgz:5286.got - 2010.06.03 15:25:27.
