data_PCOD9467832
_publ_section_title
;
Structure prediction by ZEFSAII (Michael W. Deem and Ramdas Pophale) SiO2 
 PCOD9467832
Probable space group: P N M A
;
_chemical_formula_sum "Si O2"
_cell_formula_units_Z 64
_cell_length_a 9.000000
_cell_length_b 18.000000
_cell_length_c 21.000000
_cell_angle_alpha 90.000000
_cell_angle_beta 90.000000
_cell_angle_gamma 90.000000
_cell_volume 3402.000000
_symmetry_space_group_name_H-M "P N M A"
_symmetry_group_IT_number 62
_symmetry_cell_setting 'orthorhombic'
loop_
_space_group_symop_operation_xyz
x,y,z
1/2-x,-y,1/2+z
1/2+x,1/2-y,1/2-z
-x,1/2+y,-z
-x,-y,-z
1/2+x,y,1/2-z
1/2-x,1/2+y,1/2+z
x,1/2-y,z
loop_
_atom_site_type_symbol
_atom_site_label
_atom_site_fract_x
_atom_site_fract_y
_atom_site_fract_z
Si Si1 0.520227 0.661218 0.334453
Si Si2 0.579729 0.663444 0.096048
Si Si3 0.843366 0.920104 0.053813
Si Si4 0.525734 0.551910 0.213227
Si Si5 0.082306 0.913723 0.947703
Si Si6 0.232405 0.938639 0.733313
Si Si7 0.495627 0.340195 0.317609
Si Si8 0.243520 0.833023 0.060144
O O1 0.500641 0.750000 0.319576
O O2 0.415654 0.632953 0.392029
O O3 0.501718 0.605003 0.275482
O O4 0.679561 0.650473 0.369205
O O5 0.626529 0.750000 0.108874
O O6 0.683730 0.616830 0.048741
O O7 0.566782 0.610910 0.158323
O O8 0.418087 0.667779 0.065752
O O9 0.862062 0.005515 0.075854
O O10 0.927930 0.919687 0.986538
O O11 0.660551 0.494031 0.226180
O O12 0.382597 0.498129 0.200848
O O13 0.059985 0.858393 0.889123
O O14 0.190128 0.885883 0.003949
O O15 0.349386 0.886324 0.694154
O O16 0.126556 0.881468 0.772434
O O17 0.507610 0.250000 0.307494
O O18 0.185710 0.750000 0.045081
#
# Coordination Sequence:
#
# PCOD9467832 Si02
#       8
#     8   8   8   8   8   8   8   8
#     4  10  19  34  56  82 115 156 198 230 266 327
#     4  11  22  35  53  82 120 153 185 233 286 324
#     4  10  21  36  56  83 115 145 188 241 278 321
#     4  11  20  35  57  82 117 156 192 225 275 339
#     4  10  21  39  62  81 103 149 195 225 276 345
#     4  10  23  38  58  87 116 141 179 236 284 331
#     4  11  22  41  65  86 110 142 183 230 287 344
#     4   9  20  36  53  79 114 148 188 238 280 323
#
# _framework density 18.812463000000001
#
# number of rings (size 3 to 8) (size 9 to 14) (size 15 to 20)
#    0.000    1.750    0.000    5.250    0.000    4.000 
#    0.000    6.250    0.000    1.500    0.000    0.000 
#    0.000    0.000    0.000    0.000    0.000    0.000 
#
# Total GULP energy -356713.316904 kJ/mol
# GULP energy per Si atom -5573.645577 kJ/mol
# Density = 1.876965 g / cm^3
# Si number density = 18.812463 Si / 1000 Ang^3
#
#
#
# Elastic Constant Matrix: (Units=GPa)
#
#
# Indices 1 2 3 4 5 6 
#
# 1 67.6453 36.2768 -3.4259 0.0000 0.0000 0.0000
# 2 36.2768 163.2397 35.7521 0.0000 0.0000 0.0000
# 3 -3.4259 35.7521 46.1857 0.0000 0.0000 0.0000
# 4 0.0000 0.0000 0.0000 32.1280 0.0000 0.0000
# 5 0.0000 0.0000 0.0000 0.0000 13.3082 0.0000
# 6 0.0000 0.0000 0.0000 0.0000 0.0000 36.0583
#
#
#
# Elastic Compliance Matrix: (Units=1/GPa)
#
#
# Indices 1 2 3 4 5 6 
#
# 1 0.017790 -0.005108 0.005274 0.000000 0.000000 0.000000
# 2 -0.005108 0.008844 -0.007225 0.000000 0.000000 0.000000
# 3 0.005274 -0.007225 0.027635 0.000000 0.000000 0.000000
# 4 0.000000 0.000000 0.000000 0.031126 0.000000 0.000000
# 5 0.000000 0.000000 0.000000 0.000000 0.075142 0.000000
# 6 0.000000 0.000000 0.000000 0.000000 0.000000 0.027733
#
#
# Mechanical properties :
#
#
# Convention : Reuss Voigt Hill
#
# Bulk Modulus (GPa) = 24.90634 46.03074 35.46854
# Shear Modulus (GPa) = 23.17278 30.19675 26.68476
#
# Velocity S-wave (km/s) = 3.51348 4.01077 3.77033
# Velocity P-wave (km/s) = 5.45228 6.78010 6.15212
#
# Compressibility (1/GPa) = 0.04015042
#
# Stress axis : x y z
#
# Youngs Moduli (GPa) = 56.21238 113.07697 36.18539
#
# Poissons Ratio (x) = 0.57765 -0.19084
# Poissons Ratio (y) = 0.28716 0.26143
# Poissons Ratio (z) = -0.29646 0.81694
#
# Static dielectric constant tensor:
#      x y z
#    x 1.745590 0.000000 0.000000 
#    y 0.000000 1.655160 0.000000 
#    z 0.000000 0.000000 1.638360 
# 
# From -- ./inp_files/26172.got.cif
#   From: 2010.05.17/outbox.ucp.g08.bks.cvg/sg62_14_cif.got.tgz:26172.got - 2010.06.11 16:29:25.
