data_PCOD9467093
_publ_section_title
;
Structure prediction by ZEFSAII (Michael W. Deem and Ramdas Pophale) SiO2 
 PCOD9467093
Probable space group: P N M A
;
_chemical_formula_sum "Si O2"
_cell_formula_units_Z 40
_cell_length_a 10.147124
_cell_length_b 21.193885
_cell_length_c 8.581631
_cell_angle_alpha 90.000000
_cell_angle_beta 90.000000
_cell_angle_gamma 90.000000
_cell_volume 1845.539639
_symmetry_space_group_name_H-M "P N M A"
_symmetry_group_IT_number 62
_symmetry_cell_setting 'orthorhombic'
loop_
_space_group_symop_operation_xyz
x,y,z
1/2-x,-y,1/2+z
1/2+x,1/2-y,1/2-z
-x,1/2+y,-z
-x,-y,-z
1/2+x,y,1/2-z
1/2-x,1/2+y,1/2+z
x,1/2-y,z
loop_
_atom_site_type_symbol
_atom_site_label
_atom_site_fract_x
_atom_site_fract_y
_atom_site_fract_z
Si Si1 0.781455 0.419240 0.851752
Si Si2 0.355674 0.540062 0.836967
Si Si3 0.233978 0.177826 0.894971
Si Si4 0.548505 0.819230 0.535452
Si Si5 0.124812 0.884954 0.663489
O O1 0.843109 0.470965 0.736810
O O2 0.703215 0.367955 0.749415
O O3 0.889147 0.376662 0.939715
O O4 0.698490 0.453693 0.986982
O O5 0.503433 0.566356 0.833468
O O6 0.256563 0.582286 0.731272
O O7 0.264731 0.250000 0.851139
O O8 0.348572 0.145494 0.996132
O O9 0.106482 0.179607 0.005134
O O10 0.597554 0.750000 0.486098
O O11 0.584964 0.830973 0.713967
#
# Coordination Sequence:
#
# PCOD9467093 Si02
#       5
#     8   8   8   8   8
#     4  11  26  44  68 102 136 182 229 284 341 411
#     4  11  26  42  74  99 141 177 231 278 347 400
#     4  11  24  43  68  98 136 179 229 285 341 407
#     4  10  23  44  68  98 137 179 227 281 338 404
#     4  11  23  46  69 104 132 183 223 286 336 413
#
# _framework density 21.673877999999998
#
# number of rings (size 3 to 8) (size 9 to 14) (size 15 to 20)
#    0.000    1.200    2.000    2.400    5.600    3.200 
#    0.000    2.000    0.000    0.000    0.000    0.000 
#    0.000    0.000    0.000    0.000    0.000    0.000 
#
# Total GULP energy -223652.577666 kJ/mol
# GULP energy per Si atom -5591.314442 kJ/mol
# Density = 2.162455 g / cm^3
# Si number density = 21.673878 Si / 1000 Ang^3
#
#
#
# Elastic Constant Matrix: (Units=GPa)
#
#
# Indices 1 2 3 4 5 6 
#
# 1 67.2643 32.6573 18.9806 0.0000 0.0000 0.0000
# 2 32.6573 146.4764 67.4857 0.0000 0.0000 0.0000
# 3 18.9806 67.4857 109.1176 0.0000 0.0000 0.0000
# 4 0.0000 0.0000 0.0000 -51.2509 0.0000 0.0000
# 5 0.0000 0.0000 0.0000 0.0000 9.6412 0.0000
# 6 0.0000 0.0000 0.0000 0.0000 0.0000 29.1228
#
#
#
# Elastic Compliance Matrix: (Units=1/GPa)
#
#
# Indices 1 2 3 4 5 6 
#
# 1 0.016727 -0.003341 -0.000843 0.000000 0.000000 0.000000
# 2 -0.003341 0.010215 -0.005736 0.000000 0.000000 0.000000
# 3 -0.000843 -0.005736 0.012859 0.000000 0.000000 0.000000
# 4 0.000000 0.000000 0.000000 -0.019512 0.000000 0.000000
# 5 0.000000 0.000000 0.000000 0.000000 0.103722 0.000000
# 6 0.000000 0.000000 0.000000 0.000000 0.000000 0.034337
#
#
# Mechanical properties :
#
#
# Convention : Reuss Voigt Hill
#
# Bulk Modulus (GPa) = 50.10191 62.34505 56.22348
# Shear Modulus (GPa) = 27.05017 11.08494 19.06756
#
# Velocity S-wave (km/s) = 3.53661 2.26396 2.96927
# Velocity P-wave (km/s) = 6.31215 5.97173 6.14430
#
# Compressibility (1/GPa) = 0.01995932
#
# Stress axis : x y z
#
# Youngs Moduli (GPa) = 59.78487 97.89746 77.76694
#
# Poissons Ratio (x) = 0.32704 0.06559
# Poissons Ratio (y) = 0.19972 0.44610
# Poissons Ratio (z) = 0.05043 0.56158
#
# Static dielectric constant tensor:
#      x y z
#    x 1.750980 0.000000 0.000000 
#    y 0.000000 1.787530 0.000000 
#    z 0.000000 0.000000 1.807490 
# 
# From -- ./inp_files/4304.got.cif
#   From: 2010.05.17/outbox.cif.g08.bks.cpg/sg62_3_cif.got.tgz:4304.got - 2010.06.03 15:25:27.
