data_PCOD9467174
_publ_section_title
;
Structure prediction by ZEFSAII (Michael W. Deem and Ramdas Pophale) SiO2 
 PCOD9467174
Probable space group: P N M A
;
_chemical_formula_sum "Si O2"
_cell_formula_units_Z 64
_cell_length_a 12.299875
_cell_length_b 8.625947
_cell_length_c 31.322510
_cell_angle_alpha 90.000000
_cell_angle_beta 90.000000
_cell_angle_gamma 90.000000
_cell_volume 3323.257854
_symmetry_space_group_name_H-M "P N M A"
_symmetry_group_IT_number 62
_symmetry_cell_setting 'orthorhombic'
loop_
_space_group_symop_operation_xyz
x,y,z
1/2-x,-y,1/2+z
1/2+x,1/2-y,1/2-z
-x,1/2+y,-z
-x,-y,-z
1/2+x,y,1/2-z
1/2-x,1/2+y,1/2+z
x,1/2-y,z
loop_
_atom_site_type_symbol
_atom_site_label
_atom_site_fract_x
_atom_site_fract_y
_atom_site_fract_z
Si Si1 0.383286 0.936298 0.626616
Si Si2 0.745488 0.070669 0.168325
Si Si3 0.372645 0.437909 0.128022
Si Si4 0.537368 0.068087 0.700393
Si Si5 0.479736 0.563858 0.452887
Si Si6 0.238635 0.569434 0.422785
Si Si7 0.484481 0.567345 0.953081
Si Si8 0.528050 0.931812 0.201057
O O1 0.392075 0.750000 0.628921
O O2 0.255213 0.977505 0.627079
O O3 0.447264 0.009453 0.666745
O O4 0.441381 0.993245 0.583169
O O5 0.745886 0.250000 0.154928
O O6 0.746096 0.960634 0.127331
O O7 0.635843 0.031353 0.193110
O O8 0.853669 0.030315 0.193917
O O9 0.381710 0.250000 0.130690
O O10 0.434319 0.489724 0.084503
O O11 0.435220 0.510156 0.168452
O O12 0.558865 0.250000 0.691544
O O13 0.502926 0.053553 0.749479
O O14 0.500000 0.500000 0.500000
O O15 0.490870 0.750000 0.451969
O O16 0.355165 0.524613 0.441490
O O17 0.218559 0.750000 0.432250
O O18 0.137815 0.471558 0.439371
O O19 0.501264 0.750000 0.955565
O O20 0.500000 0.500000 0.000000
O O21 0.549678 0.750000 0.192268
#
# Coordination Sequence:
#
# PCOD9467174 Si02
#       8
#     8   8   8   8   8   8   8   8
#     4  11  24  43  66  94 130 171 213 264 322 381
#     4  12  24  41  68  96 127 167 213 267 322 381
#     4  10  24  44  64  92 131 169 213 264 317 377
#     4  11  25  44  65  95 130 169 216 265 318 381
#     4  11  25  43  66  95 130 169 213 267 319 383
#     4  11  23  42  67  94 127 166 211 268 323 378
#     4  11  24  42  65  95 129 169 214 265 318 382
#     4  11  25  43  67  95 129 171 214 263 320 381
#
# _framework density 19.258209999999998
#
# number of rings (size 3 to 8) (size 9 to 14) (size 15 to 20)
#    0.000    1.000    2.500    3.375    3.500    5.000 
#    0.000    0.000    0.000    0.000    0.000    0.000 
#    0.000    0.000    0.000    0.000    0.000    0.000 
#
# Total GULP energy -357820.973592 kJ/mol
# GULP energy per Si atom -5590.952712 kJ/mol
# Density = 1.921438 g / cm^3
# Si number density = 19.258210 Si / 1000 Ang^3
#
#
#
# Elastic Constant Matrix: (Units=GPa)
#
#
# Indices 1 2 3 4 5 6 
#
# 1 133.7792 37.5776 61.2487 0.0000 0.0000 0.0000
# 2 37.5776 34.9343 32.6459 0.0000 0.0000 0.0000
# 3 61.2487 32.6459 130.2842 0.0000 0.0000 0.0000
# 4 0.0000 0.0000 0.0000 35.8366 0.0000 0.0000
# 5 0.0000 0.0000 0.0000 0.0000 27.3412 0.0000
# 6 0.0000 0.0000 0.0000 0.0000 0.0000 33.2015
#
#
#
# Elastic Compliance Matrix: (Units=1/GPa)
#
#
# Indices 1 2 3 4 5 6 
#
# 1 0.011559 -0.009604 -0.003027 0.000000 0.000000 0.000000
# 2 -0.009604 0.045358 -0.006850 0.000000 0.000000 0.000000
# 3 -0.003027 -0.006850 0.010815 0.000000 0.000000 0.000000
# 4 0.000000 0.000000 0.000000 0.027904 0.000000 0.000000
# 5 0.000000 0.000000 0.000000 0.000000 0.036575 0.000000
# 6 0.000000 0.000000 0.000000 0.000000 0.000000 0.030119
#
#
# Mechanical properties :
#
#
# Convention : Reuss Voigt Hill
#
# Bulk Modulus (GPa) = 34.76110 62.43801 48.59956
# Shear Modulus (GPa) = 23.70971 30.44422 27.07697
#
# Velocity S-wave (km/s) = 3.51258 3.98030 3.75373
# Velocity P-wave (km/s) = 5.87709 7.32226 6.63912
#
# Compressibility (1/GPa) = 0.02876779
#
# Stress axis : x y z
#
# Youngs Moduli (GPa) = 86.51380 22.04685 92.46182
#
# Poissons Ratio (x) = 0.21175 0.27992
# Poissons Ratio (y) = 0.83091 0.63340
# Poissons Ratio (z) = 0.26191 0.15103
#
# Static dielectric constant tensor:
#      x y z
#    x 1.635600 0.000000 0.000000 
#    y 0.000000 1.619000 0.000000 
#    z 0.000000 0.000000 1.707320 
# 
# From -- ./inp_files/32563.got.cif
#   From: 2010.05.17/outbox.cif.g08.bks.cpg/sg62_17_cif.got.tgz:32563.got - 2010.06.03 15:25:27.
