data_PCOD9467857
_publ_section_title
;
Structure prediction by ZEFSAII (Michael W. Deem and Ramdas Pophale) SiO2 
 PCOD9467857
Probable space group: P N M A
;
_chemical_formula_sum "Si O2"
_cell_formula_units_Z 64
_cell_length_a 18.000000
_cell_length_b 9.000000
_cell_length_c 21.000000
_cell_angle_alpha 90.000000
_cell_angle_beta 90.000000
_cell_angle_gamma 90.000000
_cell_volume 3402.000000
_symmetry_space_group_name_H-M "P N M A"
_symmetry_group_IT_number 62
_symmetry_cell_setting 'orthorhombic'
loop_
_space_group_symop_operation_xyz
x,y,z
1/2-x,-y,1/2+z
1/2+x,1/2-y,1/2-z
-x,1/2+y,-z
-x,-y,-z
1/2+x,y,1/2-z
1/2-x,1/2+y,1/2+z
x,1/2-y,z
loop_
_atom_site_type_symbol
_atom_site_label
_atom_site_fract_x
_atom_site_fract_y
_atom_site_fract_z
Si Si1 0.849464 0.070533 0.677123
Si Si2 0.819806 0.925594 0.538147
Si Si3 0.480042 0.928780 0.207587
Si Si4 0.142886 0.925565 0.964864
Si Si5 0.937677 0.424127 0.160118
Si Si6 0.281779 0.070355 0.688815
Si Si7 0.361740 0.569496 0.104062
Si Si8 0.598805 0.076037 0.404812
O O1 0.844720 0.250000 0.671508
O O2 0.795312 0.025023 0.736769
O O3 0.933183 0.031303 0.700213
O O4 0.837163 0.002937 0.606323
O O5 0.837941 0.750000 0.544774
O O6 0.731263 0.938671 0.527644
O O7 0.854987 0.980584 0.470171
O O8 0.475515 0.750000 0.212223
O O9 0.435077 0.973889 0.143806
O O10 0.444515 0.994543 0.272154
O O11 0.122932 0.750000 0.968166
O O12 0.119792 0.979174 0.894080
O O13 0.105343 0.008017 0.024411
O O14 0.922224 0.250000 0.172616
O O15 0.016574 0.436355 0.124014
O O16 0.284475 0.250000 0.688634
O O17 0.206712 0.025574 0.650909
O O18 0.347298 0.008261 0.644267
O O19 0.359443 0.750000 0.100556
O O20 0.618909 0.250000 0.407467
#
# Coordination Sequence:
#
# PCOD9467857 Si02
#       8
#     8   8   8   8   8   8   8   8
#     4  10  22  37  57  86 115 145 186 234 282 333
#     4  10  21  38  60  82 110 151 191 231 280 336
#     4  10  21  38  60  83 109 147 193 235 278 335
#     4  10  21  38  57  80 115 156 190 225 280 344
#     4  10  22  37  54  83 119 149 185 231 282 339
#     4  10  19  37  60  81 112 152 186 224 281 342
#     4   9  19  37  60  83 108 146 193 230 275 335
#     4  11  21  34  56  86 116 147 186 233 277 331
#
# _framework density 18.812463000000001
#
# number of rings (size 3 to 8) (size 9 to 14) (size 15 to 20)
#    0.000    2.000    2.500    0.750    1.750    3.000 
#    0.000    1.250    0.000    0.000    0.000    0.000 
#    0.000    0.000    0.000    0.000    0.000    0.000 
#
# Total GULP energy -356961.413318 kJ/mol
# GULP energy per Si atom -5577.522083 kJ/mol
# Density = 1.876965 g / cm^3
# Si number density = 18.812463 Si / 1000 Ang^3
#
#
#
# Elastic Constant Matrix: (Units=GPa)
#
#
# Indices 1 2 3 4 5 6 
#
# 1 23.8901 5.0038 15.6176 0.0000 0.0000 0.0000
# 2 5.0038 22.1754 29.5507 0.0000 0.0000 0.0000
# 3 15.6176 29.5507 179.1345 0.0000 0.0000 0.0000
# 4 0.0000 0.0000 0.0000 40.8991 0.0000 0.0000
# 5 0.0000 0.0000 0.0000 0.0000 41.8326 0.0000
# 6 0.0000 0.0000 0.0000 0.0000 0.0000 13.2638
#
#
#
# Elastic Compliance Matrix: (Units=1/GPa)
#
#
# Indices 1 2 3 4 5 6 
#
# 1 0.045070 -0.006324 -0.002886 0.000000 0.000000 0.000000
# 2 -0.006324 0.058689 -0.009130 0.000000 0.000000 0.000000
# 3 -0.002886 -0.009130 0.007340 0.000000 0.000000 0.000000
# 4 0.000000 0.000000 0.000000 0.024450 0.000000 0.000000
# 5 0.000000 0.000000 0.000000 0.000000 0.023905 0.000000
# 6 0.000000 0.000000 0.000000 0.000000 0.000000 0.075393
#
#
# Mechanical properties :
#
#
# Convention : Reuss Voigt Hill
#
# Bulk Modulus (GPa) = 13.43755 36.17159 24.80457
# Shear Modulus (GPa) = 16.87289 30.86763 23.87026
#
# Velocity S-wave (km/s) = 2.99808 4.05508 3.56596
# Velocity P-wave (km/s) = 4.37527 6.41827 5.49259
#
# Compressibility (1/GPa) = 0.07441834
#
# Stress axis : x y z
#
# Youngs Moduli (GPa) = 22.18786 17.03907 136.23663
#
# Poissons Ratio (x) = 0.10775 0.39320
# Poissons Ratio (y) = 0.14031 1.24386
# Poissons Ratio (z) = 0.06404 0.15557
#
# Static dielectric constant tensor:
#      x y z
#    x 1.682590 0.000000 0.000000 
#    y 0.000000 1.644810 0.000000 
#    z 0.000000 0.000000 1.643410 
# 
# From -- ./inp_files/24759.got.cif
#   From: 2010.05.17/outbox.ucp.g08.bks.cvg/sg62_13_cif.got.tgz:24759.got - 2010.06.11 16:29:25.
