data_PCOD9467484
_publ_section_title
;
Structure prediction by ZEFSAII (Michael W. Deem and Ramdas Pophale) SiO2 
 PCOD9467484
Probable space group: P N M A
;
_chemical_formula_sum "Si O2"
_cell_formula_units_Z 48
_cell_length_a 10.166792
_cell_length_b 19.488599
_cell_length_c 14.228535
_cell_angle_alpha 90.000000
_cell_angle_beta 90.000000
_cell_angle_gamma 90.000000
_cell_volume 2819.192586
_symmetry_space_group_name_H-M "P N M A"
_symmetry_group_IT_number 62
_symmetry_cell_setting 'orthorhombic'
loop_
_space_group_symop_operation_xyz
x,y,z
1/2-x,-y,1/2+z
1/2+x,1/2-y,1/2-z
-x,1/2+y,-z
-x,-y,-z
1/2+x,y,1/2-z
1/2-x,1/2+y,1/2+z
x,1/2-y,z
loop_
_atom_site_type_symbol
_atom_site_label
_atom_site_fract_x
_atom_site_fract_y
_atom_site_fract_z
Si Si1 0.879917 0.039443 0.450365
Si Si2 0.353800 0.388069 0.756032
Si Si3 0.103620 0.484027 0.759667
Si Si4 0.965816 0.170418 0.550976
Si Si5 0.281917 0.328332 0.560473
Si Si6 0.130103 0.963994 0.960728
O O1 0.880168 0.020905 0.340566
O O2 0.904498 0.118746 0.474923
O O3 0.750140 0.009449 0.499224
O O4 0.000000 0.000000 0.500000
O O5 0.214845 0.425681 0.769241
O O6 0.462672 0.446623 0.736293
O O7 0.401501 0.349217 0.849015
O O8 0.335762 0.339888 0.665799
O O9 0.123395 0.533113 0.848365
O O10 0.943108 0.250000 0.529634
O O11 0.123771 0.159543 0.558983
O O12 0.305807 0.250000 0.530554
O O13 0.348488 0.387212 0.498175
O O14 0.000000 0.000000 0.000000
#
# Coordination Sequence:
#
# PCOD9467484 Si02
#       6
#     8   8   8   8   8   8
#     4  12  20  40  61  84 120 158 200 244 285 354
#     4  12  19  38  58  89 119 153 189 253 300 348
#     4  12  22  34  64  90 116 148 209 244 287 353
#     4  11  23  38  60  89 121 158 201 247 300 359
#     4  11  23  39  58  88 125 158 194 247 311 360
#     4  12  22  38  59  89 122 153 195 246 298 354
#
# _framework density 17.026150000000001
#
# number of rings (size 3 to 8) (size 9 to 14) (size 15 to 20)
#    0.000    0.333   10.000    0.500    0.000    0.000 
#    0.000    3.333    0.000    0.000    0.000    0.000 
#    0.000    0.000    0.000    0.000    0.000    0.000 
#
# Total GULP energy -268181.570192 kJ/mol
# GULP energy per Si atom -5587.116046 kJ/mol
# Density = 1.698740 g / cm^3
# Si number density = 17.026150 Si / 1000 Ang^3
#
#
#
# Elastic Constant Matrix: (Units=GPa)
#
#
# Indices 1 2 3 4 5 6 
#
# 1 69.7977 18.0242 21.9922 0.0000 0.0000 0.0000
# 2 18.0242 120.2291 46.3759 0.0000 0.0000 0.0000
# 3 21.9922 46.3759 119.2896 0.0000 0.0000 0.0000
# 4 0.0000 0.0000 0.0000 27.5407 0.0000 0.0000
# 5 0.0000 0.0000 0.0000 0.0000 21.7658 0.0000
# 6 0.0000 0.0000 0.0000 0.0000 0.0000 22.7436
#
#
#
# Elastic Compliance Matrix: (Units=1/GPa)
#
#
# Indices 1 2 3 4 5 6 
#
# 1 0.015417 -0.001429 -0.002287 0.000000 0.000000 0.000000
# 2 -0.001429 0.009917 -0.003592 0.000000 0.000000 0.000000
# 3 -0.002287 -0.003592 0.010201 0.000000 0.000000 0.000000
# 4 0.000000 0.000000 0.000000 0.036310 0.000000 0.000000
# 5 0.000000 0.000000 0.000000 0.000000 0.045944 0.000000
# 6 0.000000 0.000000 0.000000 0.000000 0.000000 0.043968
#
#
# Mechanical properties :
#
#
# Convention : Reuss Voigt Hill
#
# Bulk Modulus (GPa) = 47.80278 53.56678 50.68478
# Shear Modulus (GPa) = 27.27091 29.27163 28.27127
#
# Velocity S-wave (km/s) = 4.00648 4.15084 4.07930
# Velocity P-wave (km/s) = 7.03843 7.38258 7.21256
#
# Compressibility (1/GPa) = 0.02091929
#
# Stress axis : x y z
#
# Youngs Moduli (GPa) = 64.86493 100.83429 98.02980
#
# Poissons Ratio (x) = 0.14411 0.22415
# Poissons Ratio (y) = 0.09270 0.35213
# Poissons Ratio (z) = 0.14832 0.36220
#
# Static dielectric constant tensor:
#      x y z
#    x 1.559570 0.000000 0.000000 
#    y 0.000000 1.569160 0.000000 
#    z 0.000000 0.000000 1.570520 
# 
# From -- ./inp_files/16936.got.cif
#   From: 2010.05.17/outbox.cif.g08.bks.cpg/sg62_9_cif.got.tgz:16936.got - 2010.06.03 15:25:27.
