data_PCOD9467285
_publ_section_title
;
Structure prediction by ZEFSAII (Michael W. Deem and Ramdas Pophale) SiO2 
 PCOD9467285
Probable space group: P N M A
;
_chemical_formula_sum "Si O2"
_cell_formula_units_Z 56
_cell_length_a 18.963735
_cell_length_b 8.723249
_cell_length_c 21.564344
_cell_angle_alpha 90.000000
_cell_angle_beta 90.000000
_cell_angle_gamma 90.000000
_cell_volume 3567.289852
_symmetry_space_group_name_H-M "P N M A"
_symmetry_group_IT_number 62
_symmetry_cell_setting 'orthorhombic'
loop_
_space_group_symop_operation_xyz
x,y,z
1/2-x,-y,1/2+z
1/2+x,1/2-y,1/2-z
-x,1/2+y,-z
-x,-y,-z
1/2+x,y,1/2-z
1/2-x,1/2+y,1/2+z
x,1/2-y,z
loop_
_atom_site_type_symbol
_atom_site_label
_atom_site_fract_x
_atom_site_fract_y
_atom_site_fract_z
Si Si1 0.416921 0.068429 0.247145
Si Si2 0.204741 0.926679 0.178522
Si Si3 0.078578 0.066135 0.496679
Si Si4 0.344997 0.936344 0.124100
Si Si5 0.212383 0.426779 0.810333
Si Si6 0.929260 0.063889 0.754564
Si Si7 0.351593 0.064465 0.873461
O O1 0.420801 0.250000 0.241531
O O2 0.390624 0.998417 0.181569
O O3 0.357684 0.021786 0.297459
O O4 0.493049 0.000241 0.262914
O O5 0.193290 0.750000 0.159499
O O6 0.264158 0.992929 0.132984
O O7 0.244706 0.924999 0.245092
O O8 0.128083 0.992689 0.194636
O O9 0.075189 0.250000 0.494838
O O10 0.120847 0.021098 0.558863
O O11 0.117081 0.004828 0.435558
O O12 0.000000 0.000000 0.500000
O O13 0.344354 0.750000 0.128995
O O14 0.193652 0.250000 0.823885
O O15 0.270730 0.482573 0.859251
O O16 0.930343 0.250000 0.756742
O O17 0.899149 0.021665 0.686359
O O18 0.352185 0.250000 0.876670
#
# Coordination Sequence:
#
# PCOD9467285 Si02
#       7
#     8   8   8   8   8   8   8
#     4  11  20  27  41  68  95 116 140 179 224 262
#     4   7  12  26  47  63  76 103 148 186 210 250
#     4  11  22  32  45  65  92 124 155 186 219 257
#     4   9  18  33  47  60  84 121 157 183 212 258
#     4   8  15  30  48  63  83 115 149 180 217 267
#     4   9  16  28  46  65  85 113 144 178 220 264
#     4   9  18  32  49  66  87 118 155 188 219 260
#
# _framework density 15.698191
#
# number of rings (size 3 to 8) (size 9 to 14) (size 15 to 20)
#    0.000    2.857    0.000    5.143    0.000    5.714 
#    0.000    5.714    0.000    0.000    0.000    1.000 
#    0.000    0.000    0.000    0.000    0.000    0.000 
#
# Total GULP energy -311835.708251 kJ/mol
# GULP energy per Si atom -5568.494790 kJ/mol
# Density = 1.566246 g / cm^3
# Si number density = 15.698191 Si / 1000 Ang^3
#
#
#
# Elastic Constant Matrix: (Units=GPa)
#
#
# Indices 1 2 3 4 5 6 
#
# 1 158.0621 35.6478 68.0994 0.0000 0.0000 0.0000
# 2 35.6478 25.7239 21.3328 0.0000 0.0000 0.0000
# 3 68.0994 21.3328 78.7234 0.0000 0.0000 0.0000
# 4 0.0000 0.0000 0.0000 19.5849 0.0000 0.0000
# 5 0.0000 0.0000 0.0000 0.0000 26.6232 0.0000
# 6 0.0000 0.0000 0.0000 0.0000 0.0000 10.7315
#
#
#
# Elastic Compliance Matrix: (Units=1/GPa)
#
#
# Indices 1 2 3 4 5 6 
#
# 1 0.011858 -0.010224 -0.007488 0.000000 0.000000 0.000000
# 2 -0.010224 0.058957 -0.007133 0.000000 0.000000 0.000000
# 3 -0.007488 -0.007133 0.021113 0.000000 0.000000 0.000000
# 4 0.000000 0.000000 0.000000 0.051060 0.000000 0.000000
# 5 0.000000 0.000000 0.000000 0.000000 0.037561 0.000000
# 6 0.000000 0.000000 0.000000 0.000000 0.000000 0.093184
#
#
# Mechanical properties :
#
#
# Convention : Reuss Voigt Hill
#
# Bulk Modulus (GPa) = 23.67392 56.96328 40.31860
# Shear Modulus (GPa) = 14.81479 20.54987 17.68233
#
# Velocity S-wave (km/s) = 3.07534 3.62202 3.35982
# Velocity P-wave (km/s) = 5.26533 7.33876 6.38675
#
# Compressibility (1/GPa) = 0.04224058
#
# Stress axis : x y z
#
# Youngs Moduli (GPa) = 84.32914 16.96146 47.36515
#
# Poissons Ratio (x) = 0.17341 0.35465
# Poissons Ratio (y) = 0.86215 0.33783
# Poissons Ratio (z) = 0.63142 0.12098
#
# Static dielectric constant tensor:
#      x y z
#    x 1.547330 0.000000 0.000000 
#    y 0.000000 1.530430 0.000000 
#    z 0.000000 0.000000 1.509740 
# 
# From -- ./inp_files/27568.got.cif
#   From: 2010.05.17/outbox.cif.g08.bks.cpg/sg62_14_cif.got.tgz:27568.got - 2010.06.03 15:25:27.
