data_PCOD9467701
_publ_section_title
;
Structure prediction by ZEFSAII (Michael W. Deem and Ramdas Pophale) SiO2 
 PCOD9467701
Probable space group: P N M A
;
_chemical_formula_sum "Si O2"
_cell_formula_units_Z 32
_cell_length_a 6.978906
_cell_length_b 12.293976
_cell_length_c 15.102224
_cell_angle_alpha 90.000000
_cell_angle_beta 90.000000
_cell_angle_gamma 90.000000
_cell_volume 1295.748209
_symmetry_space_group_name_H-M "P N M A"
_symmetry_group_IT_number 62
_symmetry_cell_setting 'orthorhombic'
loop_
_space_group_symop_operation_xyz
x,y,z
1/2-x,-y,1/2+z
1/2+x,1/2-y,1/2-z
-x,1/2+y,-z
-x,-y,-z
1/2+x,y,1/2-z
1/2-x,1/2+y,1/2+z
x,1/2-y,z
loop_
_atom_site_type_symbol
_atom_site_label
_atom_site_fract_x
_atom_site_fract_y
_atom_site_fract_z
Si Si1 0.669619 0.071889 0.963975
Si Si2 0.994129 0.990968 0.844087
Si Si3 0.637914 0.626506 0.174149
Si Si4 0.160357 0.250000 0.393205
Si Si5 0.034049 0.750000 0.757126
O O1 0.845055 0.006476 0.923306
O O2 0.555101 0.130928 0.884290
O O3 0.718743 0.151629 0.044708
O O4 0.500000 0.000000 0.000000
O O5 0.915945 0.065860 0.764119
O O6 0.195485 0.049957 0.866210
O O7 0.999083 0.868166 0.805986
O O8 0.708397 0.750000 0.186111
O O9 0.229944 0.250000 0.290002
O O10 0.946020 0.250000 0.352693
#
# Coordination Sequence:
#
# PCOD9467701 Si02
#       5
#     8   8   8   4   4
#     4  12  28  51  77 121 156 202 279 332 397 480
#     4  12  27  49  84 119 160 220 265 330 413 482
#     4  12  26  48  83 118 161 211 265 337 403 479
#     4  12  30  50  78 114 157 211 266 337 398 492
#     4  12  28  54  80 112 165 217 264 325 418 494
#
# _framework density 24.696155999999998
#
# number of rings (size 3 to 8) (size 9 to 14) (size 15 to 20)
#    0.000    0.000    3.750    5.250    7.000    4.000 
#    0.000    0.000    0.000    0.000    0.000    0.000 
#    0.000    0.000    0.000    0.000    0.000    0.000 
#
# Total GULP energy -178728.159866 kJ/mol
# GULP energy per Si atom -5585.254996 kJ/mol
# Density = 2.463995 g / cm^3
# Si number density = 24.696156 Si / 1000 Ang^3
#
#
#
# Elastic Constant Matrix: (Units=GPa)
#
#
# Indices 1 2 3 4 5 6 
#
# 1 102.1975 51.9218 36.3241 0.0000 0.0000 0.0000
# 2 51.9218 239.1167 56.1875 0.0000 0.0000 0.0000
# 3 36.3241 56.1875 129.2271 0.0000 0.0000 0.0000
# 4 0.0000 0.0000 0.0000 43.1048 0.0000 0.0000
# 5 0.0000 0.0000 0.0000 0.0000 77.4982 0.0000
# 6 0.0000 0.0000 0.0000 0.0000 0.0000 36.9097
#
#
#
# Elastic Compliance Matrix: (Units=1/GPa)
#
#
# Indices 1 2 3 4 5 6 
#
# 1 0.011640 -0.001959 -0.002420 0.000000 0.000000 0.000000
# 2 -0.001959 0.004988 -0.001618 0.000000 0.000000 0.000000
# 3 -0.002420 -0.001618 0.009122 0.000000 0.000000 0.000000
# 4 0.000000 0.000000 0.000000 0.023199 0.000000 0.000000
# 5 0.000000 0.000000 0.000000 0.000000 0.012904 0.000000
# 6 0.000000 0.000000 0.000000 0.000000 0.000000 0.027093
#
#
# Mechanical properties :
#
#
# Convention : Reuss Voigt Hill
#
# Bulk Modulus (GPa) = 72.69614 84.37869 78.53741
# Shear Modulus (GPa) = 47.38185 53.24307 50.31246
#
# Velocity S-wave (km/s) = 4.38493 4.64823 4.51850
# Velocity P-wave (km/s) = 7.42542 7.94034 7.68719
#
# Compressibility (1/GPa) = 0.01375589
#
# Stress axis : x y z
#
# Youngs Moduli (GPa) = 85.90749 200.49712 109.62382
#
# Poissons Ratio (x) = 0.39275 0.26532
# Poissons Ratio (y) = 0.16828 0.17737
# Poissons Ratio (z) = 0.20792 0.32440
#
# Static dielectric constant tensor:
#      x y z
#    x 2.273700 0.000000 0.000000 
#    y 0.000000 1.870090 0.000000 
#    z 0.000000 0.000000 2.039670 
# 
# From -- ./inp_files/16479.got.cif
#   From: 2010.05.17/outbox.cif.g08.bks.cpg/sg62_9_cif.got.tgz:16479.got - 2010.06.03 15:25:27.
