data_PCOD9467122
_publ_section_title
;
Structure prediction by ZEFSAII (Michael W. Deem and Ramdas Pophale) SiO2 
 PCOD9467122
Probable space group: P N M A
;
_chemical_formula_sum "Si O2"
_cell_formula_units_Z 32
_cell_length_a 8.652336
_cell_length_b 27.256566
_cell_length_c 4.848925
_cell_angle_alpha 90.000000
_cell_angle_beta 90.000000
_cell_angle_gamma 90.000000
_cell_volume 1143.536371
_symmetry_space_group_name_H-M "P N M A"
_symmetry_group_IT_number 62
_symmetry_cell_setting 'orthorhombic'
loop_
_space_group_symop_operation_xyz
x,y,z
1/2-x,-y,1/2+z
1/2+x,1/2-y,1/2-z
-x,1/2+y,-z
-x,-y,-z
1/2+x,y,1/2-z
1/2-x,1/2+y,1/2+z
x,1/2-y,z
loop_
_atom_site_type_symbol
_atom_site_label
_atom_site_fract_x
_atom_site_fract_y
_atom_site_fract_z
Si Si1 0.388901 0.750000 0.285972
Si Si2 0.033200 0.097164 0.630885
Si Si3 0.149517 0.750000 0.642458
Si Si4 0.752694 0.465782 0.479734
Si Si5 0.701192 0.662371 0.481060
O O1 0.338247 0.750000 0.604876
O O2 0.303592 0.799090 0.189945
O O3 0.551861 0.750000 0.138667
O O4 0.906003 0.067149 0.461226
O O5 0.928992 0.136055 0.801203
O O6 0.119835 0.064120 0.860134
O O7 0.168396 0.121980 0.447289
O O8 0.124721 0.802016 0.793306
O O9 0.709878 0.489424 0.189687
#
# Coordination Sequence:
#
# PCOD9467122 Si02
#       5
#     4   8   4   8   8
#     4  11  24  48  70 107 152 193 256 296 386 453
#     4  10  23  47  74 113 151 191 271 312 378 473
#     4  11  26  48  76 101 160 201 246 314 382 461
#     4  11  24  49  75 109 155 209 255 325 398 461
#     4  10  24  48  72 109 149 203 244 317 376 449
#
# _framework density 27.983369
#
# number of rings (size 3 to 8) (size 9 to 14) (size 15 to 20)
#    0.000    1.500    0.000    3.000    0.000   11.000 
#   45.000    5.000    0.000    0.000    0.000    0.000 
#    0.000    0.000    0.000    0.000    0.000    0.000 
#
# Total GULP energy -179490.206031 kJ/mol
# GULP energy per Si atom -5609.068938 kJ/mol
# Density = 2.791968 g / cm^3
# Si number density = 27.983369 Si / 1000 Ang^3
#
#
#
# Elastic Constant Matrix: (Units=GPa)
#
#
# Indices 1 2 3 4 5 6 
#
# 1 185.1854 76.3837 29.5222 0.0000 0.0000 0.0000
# 2 76.3837 148.9658 31.4099 0.0000 0.0000 0.0000
# 3 29.5222 31.4099 89.8143 0.0000 0.0000 0.0000
# 4 0.0000 0.0000 0.0000 19.3828 0.0000 0.0000
# 5 0.0000 0.0000 0.0000 0.0000 40.7856 0.0000
# 6 0.0000 0.0000 0.0000 0.0000 0.0000 88.3958
#
#
#
# Elastic Compliance Matrix: (Units=1/GPa)
#
#
# Indices 1 2 3 4 5 6 
#
# 1 0.006951 -0.003328 -0.001121 0.000000 0.000000 0.000000
# 2 -0.003328 0.008841 -0.001998 0.000000 0.000000 0.000000
# 3 -0.001121 -0.001998 0.012201 0.000000 0.000000 0.000000
# 4 0.000000 0.000000 0.000000 0.051592 0.000000 0.000000
# 5 0.000000 0.000000 0.000000 0.000000 0.024518 0.000000
# 6 0.000000 0.000000 0.000000 0.000000 0.000000 0.011313
#
#
# Mechanical properties :
#
#
# Convention : Reuss Voigt Hill
#
# Bulk Modulus (GPa) = 66.22738 77.62191 71.92464
# Shear Modulus (GPa) = 37.49705 48.82283 43.15994
#
# Velocity S-wave (km/s) = 3.66454 4.18150 3.93153
# Velocity P-wave (km/s) = 6.45161 7.14927 6.80938
#
# Compressibility (1/GPa) = 0.01509950
#
# Stress axis : x y z
#
# Youngs Moduli (GPa) = 143.85526 113.11346 81.95872
#
# Poissons Ratio (x) = 0.37645 0.09188
# Poissons Ratio (y) = 0.47875 0.16374
# Poissons Ratio (z) = 0.16127 0.22598
#
# Static dielectric constant tensor:
#      x y z
#    x 2.151480 0.000000 0.000000 
#    y 0.000000 2.213850 0.000000 
#    z 0.000000 0.000000 2.202510 
# 
# From -- ./inp_files/231.got.cif
#   From: 2010.05.17/outbox.cif.g08.bks.cpg/sg62_1_cif.got.tgz:231.got - 2010.06.03 15:25:27.
