data_PCOD9467661
_publ_section_title
;
Structure prediction by ZEFSAII (Michael W. Deem and Ramdas Pophale) SiO2 
 PCOD9467661
Probable space group: P N M A
;
_chemical_formula_sum "Si O2"
_cell_formula_units_Z 40
_cell_length_a 7.787404
_cell_length_b 14.629221
_cell_length_c 15.955084
_cell_angle_alpha 90.000000
_cell_angle_beta 90.000000
_cell_angle_gamma 90.000000
_cell_volume 1817.661471
_symmetry_space_group_name_H-M "P N M A"
_symmetry_group_IT_number 62
_symmetry_cell_setting 'orthorhombic'
loop_
_space_group_symop_operation_xyz
x,y,z
1/2-x,-y,1/2+z
1/2+x,1/2-y,1/2-z
-x,1/2+y,-z
-x,-y,-z
1/2+x,y,1/2-z
1/2-x,1/2+y,1/2+z
x,1/2-y,z
loop_
_atom_site_type_symbol
_atom_site_label
_atom_site_fract_x
_atom_site_fract_y
_atom_site_fract_z
Si Si1 0.260259 0.646587 0.837782
Si Si2 0.474669 0.351894 0.848406
Si Si3 0.562537 0.901534 0.966176
Si Si4 0.275760 0.031734 0.725874
Si Si5 0.446190 0.945718 0.582546
O O1 0.260126 0.750000 0.804926
O O2 0.427334 0.631428 0.896414
O O3 0.255767 0.568278 0.767025
O O4 0.091141 0.627242 0.893589
O O5 0.516002 0.250000 0.817544
O O6 0.622610 0.425317 0.827646
O O7 0.317127 0.396139 0.798443
O O8 0.442356 0.346927 0.947073
O O9 0.755687 0.905839 0.931298
O O10 0.500000 0.000000 0.000000
O O11 0.429667 0.016983 0.659651
O O12 0.500000 0.000000 0.500000
#
# Coordination Sequence:
#
# PCOD9467661 Si02
#       5
#     8   8   8   8   8
#     4  12  27  47  73 110 152 196 247 302 368 441
#     4  12  25  44  73 106 140 189 241 299 370 438
#     4  12  23  47  77 102 146 193 242 303 369 434
#     4  12  23  46  71 104 151 185 237 312 360 430
#     4  12  24  46  76 102 144 198 243 296 373 427
#
# _framework density 22.006297
#
# number of rings (size 3 to 8) (size 9 to 14) (size 15 to 20)
#    0.000    0.000    8.000    1.200    0.000    2.400 
#    0.000    1.000    0.000    0.000    0.000    0.000 
#    0.000    0.000    0.000    0.000    0.000    0.000 
#
# Total GULP energy -223730.291460 kJ/mol
# GULP energy per Si atom -5593.257287 kJ/mol
# Density = 2.195621 g / cm^3
# Si number density = 22.006297 Si / 1000 Ang^3
#
#
#
# Elastic Constant Matrix: (Units=GPa)
#
#
# Indices 1 2 3 4 5 6 
#
# 1 150.4329 28.9890 43.4630 0.0000 0.0000 0.0000
# 2 28.9890 154.3086 62.4277 0.0000 0.0000 0.0000
# 3 43.4630 62.4277 120.1595 0.0000 0.0000 0.0000
# 4 0.0000 0.0000 0.0000 19.4182 0.0000 0.0000
# 5 0.0000 0.0000 0.0000 0.0000 43.3377 0.0000
# 6 0.0000 0.0000 0.0000 0.0000 0.0000 11.6585
#
#
#
# Elastic Compliance Matrix: (Units=1/GPa)
#
#
# Indices 1 2 3 4 5 6 
#
# 1 0.007442 -0.000391 -0.002489 0.000000 0.000000 0.000000
# 2 -0.000391 0.008226 -0.004132 0.000000 0.000000 0.000000
# 3 -0.002489 -0.004132 0.011369 0.000000 0.000000 0.000000
# 4 0.000000 0.000000 0.000000 0.051498 0.000000 0.000000
# 5 0.000000 0.000000 0.000000 0.000000 0.023075 0.000000
# 6 0.000000 0.000000 0.000000 0.000000 0.000000 0.085774
#
#
# Mechanical properties :
#
#
# Convention : Reuss Voigt Hill
#
# Bulk Modulus (GPa) = 76.84611 77.18449 77.01530
# Shear Modulus (GPa) = 24.30193 34.21765 29.25979
#
# Velocity S-wave (km/s) = 3.32673 3.94750 3.65034
# Velocity P-wave (km/s) = 7.05351 7.47844 7.26908
#
# Compressibility (1/GPa) = 0.01301302
#
# Stress axis : x y z
#
# Youngs Moduli (GPa) = 134.37497 121.57008 87.95730
#
# Poissons Ratio (x) = 0.04757 0.21888
# Poissons Ratio (y) = 0.05258 0.36344
# Poissons Ratio (z) = 0.33439 0.50233
#
# Static dielectric constant tensor:
#      x y z
#    x 1.863200 0.000000 0.000000 
#    y 0.000000 1.755490 0.000000 
#    z 0.000000 0.000000 1.809380 
# 
# From -- ./inp_files/16649.got.cif
#   From: 2010.05.17/outbox.cif.g08.bks.cpg/sg62_9_cif.got.tgz:16649.got - 2010.06.03 15:25:27.
