data_PCOD9467739
_publ_section_title
;
Structure prediction by ZEFSAII (Michael W. Deem and Ramdas Pophale) SiO2 
 PCOD9467739
Probable space group: P N M A
;
_chemical_formula_sum "Si O2"
_cell_formula_units_Z 20
_cell_length_a 12.533857
_cell_length_b 7.392408
_cell_length_c 10.028009
_cell_angle_alpha 90.000000
_cell_angle_beta 90.000000
_cell_angle_gamma 90.000000
_cell_volume 929.149032
_symmetry_space_group_name_H-M "P N M A"
_symmetry_group_IT_number 62
_symmetry_cell_setting 'orthorhombic'
loop_
_space_group_symop_operation_xyz
x,y,z
1/2-x,-y,1/2+z
1/2+x,1/2-y,1/2-z
-x,1/2+y,-z
-x,-y,-z
1/2+x,y,1/2-z
1/2-x,1/2+y,1/2+z
x,1/2-y,z
loop_
_atom_site_type_symbol
_atom_site_label
_atom_site_fract_x
_atom_site_fract_y
_atom_site_fract_z
Si Si1 0.125934 0.250000 0.203378
Si Si2 0.367595 0.750000 0.402013
Si Si3 0.978940 0.955034 0.319047
Si Si4 0.338252 0.250000 0.056451
O O1 0.079298 0.424499 0.277470
O O2 0.083452 0.250000 0.050125
O O3 0.251864 0.250000 0.179434
O O4 0.408327 0.581722 0.314566
O O5 0.241306 0.750000 0.430712
O O6 0.004031 0.750000 0.362681
O O7 0.092989 0.930384 0.579804
#
# Coordination Sequence:
#
# PCOD9467739 Si02
#       4
#     4   4   8   4
#     4   9  17  32  52  73 103 116 162 212 245 269
#     4   8  18  32  50  76  98 122 160 204 252 272
#     4   9  18  32  49  76 100 122 163 200 240 296
#     4   9  19  32  46  77 103 124 152 210 241 285
#
# _framework density 21.525071000000001
#
# number of rings (size 3 to 8) (size 9 to 14) (size 15 to 20)
#    2.400    0.800    0.000    1.200    0.000    1.600 
#    7.200    0.000    0.000    9.600    0.000    0.000 
#    0.000    0.000    0.000    0.000    0.000    0.000 
#
# Total GULP energy -111430.198749 kJ/mol
# GULP energy per Si atom -5571.509937 kJ/mol
# Density = 2.147608 g / cm^3
# Si number density = 21.525071 Si / 1000 Ang^3
#
#
#
# Elastic Constant Matrix: (Units=GPa)
#
#
# Indices 1 2 3 4 5 6 
#
# 1 95.0442 63.4574 17.3691 0.0000 0.0000 0.0000
# 2 63.4574 184.1296 47.0793 0.0000 0.0000 0.0000
# 3 17.3691 47.0793 89.7469 0.0000 0.0000 0.0000
# 4 0.0000 0.0000 0.0000 46.3533 0.0000 0.0000
# 5 0.0000 0.0000 0.0000 0.0000 35.1742 0.0000
# 6 0.0000 0.0000 0.0000 0.0000 0.0000 29.9198
#
#
#
# Elastic Compliance Matrix: (Units=1/GPa)
#
#
# Indices 1 2 3 4 5 6 
#
# 1 0.013669 -0.004659 -0.000201 0.000000 0.000000 0.000000
# 2 -0.004659 0.007860 -0.003222 0.000000 0.000000 0.000000
# 3 -0.000201 -0.003222 0.012871 0.000000 0.000000 0.000000
# 4 0.000000 0.000000 0.000000 0.021573 0.000000 0.000000
# 5 0.000000 0.000000 0.000000 0.000000 0.028430 0.000000
# 6 0.000000 0.000000 0.000000 0.000000 0.000000 0.033423
#
#
# Mechanical properties :
#
#
# Convention : Reuss Voigt Hill
#
# Bulk Modulus (GPa) = 54.83543 69.41470 62.12506
# Shear Modulus (GPa) = 35.69632 38.35710 37.02671
#
# Velocity S-wave (km/s) = 4.07671 4.22592 4.15199
# Velocity P-wave (km/s) = 6.90579 7.49196 7.20484
#
# Compressibility (1/GPa) = 0.01823639
#
# Stress axis : x y z
#
# Youngs Moduli (GPa) = 73.15777 127.21862 77.69147
#
# Poissons Ratio (x) = 0.59276 0.01563
# Poissons Ratio (y) = 0.34087 0.25030
# Poissons Ratio (z) = 0.01472 0.40986
#
# Static dielectric constant tensor:
#      x y z
#    x 1.788970 0.000000 0.000000 
#    y 0.000000 1.726830 0.000000 
#    z 0.000000 0.000000 1.848490 
# 
# From -- ./inp_files/4616.got.cif
#   From: 2010.05.17/outbox.cif.g08.bks.cpg/sg62_3_cif.got.tgz:4616.got - 2010.06.03 15:25:27.
