data_PCOD9467560
_publ_section_title
;
Structure prediction by ZEFSAII (Michael W. Deem and Ramdas Pophale) SiO2 
 PCOD9467560
Probable space group: P N M A
;
_chemical_formula_sum "Si O2"
_cell_formula_units_Z 56
_cell_length_a 12.581811
_cell_length_b 20.410033
_cell_length_c 10.761740
_cell_angle_alpha 90.000000
_cell_angle_beta 90.000000
_cell_angle_gamma 90.000000
_cell_volume 2763.562936
_symmetry_space_group_name_H-M "P N M A"
_symmetry_group_IT_number 62
_symmetry_cell_setting 'orthorhombic'
loop_
_space_group_symop_operation_xyz
x,y,z
1/2-x,-y,1/2+z
1/2+x,1/2-y,1/2-z
-x,1/2+y,-z
-x,-y,-z
1/2+x,y,1/2-z
1/2-x,1/2+y,1/2+z
x,1/2-y,z
loop_
_atom_site_type_symbol
_atom_site_label
_atom_site_fract_x
_atom_site_fract_y
_atom_site_fract_z
Si Si1 0.118213 0.978217 0.044794
Si Si2 0.785360 0.889399 0.590262
Si Si3 0.742750 0.897325 0.864651
Si Si4 0.680724 0.676594 0.096569
Si Si5 0.026832 0.912377 0.261816
Si Si6 0.509318 0.544028 0.878851
Si Si7 0.333390 0.677159 0.169174
O O1 0.094724 0.916343 0.136063
O O2 0.180258 0.039799 0.109243
O O3 0.203156 0.948924 0.944166
O O4 0.000000 0.000000 0.000000
O O5 0.755889 0.865399 0.728549
O O6 0.906640 0.911313 0.612917
O O7 0.792665 0.844973 0.466621
O O8 0.621549 0.922115 0.866509
O O9 0.751197 0.848104 0.981112
O O10 0.639036 0.750000 0.069864
O O11 0.594452 0.620858 0.128037
O O12 0.744305 0.680386 0.225243
O O13 0.917991 0.873228 0.272795
O O14 0.002080 0.988935 0.274826
O O15 0.500000 0.500000 0.000000
O O16 0.380962 0.750000 0.157925
#
# Coordination Sequence:
#
# PCOD9467560 Si02
#       7
#     8   8   8   8   8   8   8
#     4  12  24  38  64 103 141 173 211 280 359 409
#     4  12  24  41  65  98 136 173 220 281 343 407
#     4  12  25  41  65  99 137 174 221 280 346 409
#     4  11  24  43  64  88 125 179 227 267 321 397
#     4  12  21  39  66  96 128 168 218 273 332 411
#     4  12  21  38  65  96 131 171 215 269 341 412
#     4  11  24  43  67  91 124 175 230 275 326 400
#
# _framework density 20.263697000000001
#
# number of rings (size 3 to 8) (size 9 to 14) (size 15 to 20)
#    0.000    0.286    7.143    2.143    0.000    0.571 
#    0.000    0.000    0.000    0.000    0.000    0.000 
#    0.000    0.000    0.000    0.000    0.000    0.000 
#
# Total GULP energy -312048.575487 kJ/mol
# GULP energy per Si atom -5572.295991 kJ/mol
# Density = 2.021758 g / cm^3
# Si number density = 20.263697 Si / 1000 Ang^3
#
#
#
# Elastic Constant Matrix: (Units=GPa)
#
#
# Indices 1 2 3 4 5 6 
#
# 1 102.9123 20.3276 31.9923 0.0000 0.0000 0.0000
# 2 20.3276 58.3686 56.2972 0.0000 0.0000 0.0000
# 3 31.9923 56.2972 110.2029 0.0000 0.0000 0.0000
# 4 0.0000 0.0000 0.0000 10.5872 0.0000 0.0000
# 5 0.0000 0.0000 0.0000 0.0000 28.0902 0.0000
# 6 0.0000 0.0000 0.0000 0.0000 0.0000 -6.1144
#
#
#
# Elastic Compliance Matrix: (Units=1/GPa)
#
#
# Indices 1 2 3 4 5 6 
#
# 1 0.010742 -0.001446 -0.002380 0.000000 0.000000 0.000000
# 2 -0.001446 0.033968 -0.016933 0.000000 0.000000 0.000000
# 3 -0.002380 -0.016933 0.018415 0.000000 0.000000 0.000000
# 4 0.000000 0.000000 0.000000 0.094453 0.000000 0.000000
# 5 0.000000 0.000000 0.000000 0.000000 0.035600 0.000000
# 6 0.000000 0.000000 0.000000 0.000000 0.000000 -0.163548
#
#
# Mechanical properties :
#
#
# Convention : Reuss Voigt Hill
#
# Bulk Modulus (GPa) = 46.27791 54.30200 50.28995
# Shear Modulus (GPa) = 63.81530 17.37038 40.59284
#
# Velocity S-wave (km/s) = 5.61790 2.93100 4.48060
# Velocity P-wave (km/s) = 8.06030 6.18952 7.18605
#
# Compressibility (1/GPa) = 0.02160858
#
# Stress axis : x y z
#
# Youngs Moduli (GPa) = 93.08869 29.43952 54.30262
#
# Poissons Ratio (x) = 0.04256 0.12925
# Poissons Ratio (y) = 0.13456 0.91950
# Poissons Ratio (z) = 0.22156 0.49850
#
# Static dielectric constant tensor:
#      x y z
#    x 1.799620 0.000000 0.000000 
#    y 0.000000 1.746290 0.000000 
#    z 0.000000 0.000000 1.817450 
# 
# From -- ./inp_files/12407.got.cif
#   From: 2010.05.17/outbox.cif.g08.bks.cpg/sg62_7_cif.got.tgz:12407.got - 2010.06.03 15:25:27.
