data_PCOD9467271
_publ_section_title
;
Structure prediction by ZEFSAII (Michael W. Deem and Ramdas Pophale) SiO2 
 PCOD9467271
Probable space group: P N M A
;
_chemical_formula_sum "Si O2"
_cell_formula_units_Z 52
_cell_length_a 13.164940
_cell_length_b 11.239382
_cell_length_c 20.308847
_cell_angle_alpha 90.000000
_cell_angle_beta 90.000000
_cell_angle_gamma 90.000000
_cell_volume 3005.014584
_symmetry_space_group_name_H-M "P N M A"
_symmetry_group_IT_number 62
_symmetry_cell_setting 'orthorhombic'
loop_
_space_group_symop_operation_xyz
x,y,z
1/2-x,-y,1/2+z
1/2+x,1/2-y,1/2-z
-x,1/2+y,-z
-x,-y,-z
1/2+x,y,1/2-z
1/2-x,1/2+y,1/2+z
x,1/2-y,z
loop_
_atom_site_type_symbol
_atom_site_label
_atom_site_fract_x
_atom_site_fract_y
_atom_site_fract_z
Si Si1 0.170054 0.107761 0.338078
Si Si2 0.320959 0.110096 0.161475
Si Si3 0.509328 0.497776 0.922011
Si Si4 0.115498 0.985841 0.804630
Si Si5 0.054843 0.250000 0.648403
Si Si6 0.115416 0.750000 0.239806
Si Si7 0.834205 0.750000 0.226692
Si Si8 0.111604 0.485736 0.192263
O O1 0.162339 0.250000 0.343554
O O2 0.133040 0.066972 0.265391
O O3 0.094806 0.043774 0.388832
O O4 0.287794 0.067534 0.342719
O O5 0.312386 0.250000 0.172571
O O6 0.399375 0.080823 0.103938
O O7 0.208134 0.058141 0.150908
O O8 0.367273 0.053468 0.228463
O O9 0.537395 0.367268 0.894165
O O10 0.500000 0.500000 0.000000
O O11 0.122118 0.128891 0.802706
O O12 0.002749 0.949279 0.826997
O O13 0.156621 0.250000 0.692940
O O14 0.976780 0.250000 0.709347
O O15 0.214736 0.750000 0.285221
O O16 0.114592 0.628310 0.199200
#
# Coordination Sequence:
#
# PCOD9467271 Si02
#       8
#     8   8   8   8   4   4   4   8
#     4  11  22  35  52  81 115 150 187 231 284 342
#     4  11  22  35  52  81 115 150 187 231 284 342
#     4  12  25  40  59  80 112 153 200 243 280 332
#     4  11  19  32  54  85 116 149 182 230 294 348
#     4  12  20  38  52  84 108 150 190 220 296 326
#     4  12  16  30  54  80 120 142 180 236 279 348
#     4  12  16  30  54  80 120 142 180 236 279 348
#     4  11  19  32  54  85 116 149 182 230 294 348
#
# _framework density 17.304407999999999
#
# number of rings (size 3 to 8) (size 9 to 14) (size 15 to 20)
#    0.000    0.615    9.231    2.308    2.154    1.846 
#    0.000    0.000    0.000    0.923    0.000    0.000 
#    0.000    0.000    0.000    0.000    0.000    0.000 
#
# Total GULP energy -290253.364306 kJ/mol
# GULP energy per Si atom -5581.795467 kJ/mol
# Density = 1.726502 g / cm^3
# Si number density = 17.304408 Si / 1000 Ang^3
#
#
#
# Elastic Constant Matrix: (Units=GPa)
#
#
# Indices 1 2 3 4 5 6 
#
# 1 131.0073 -0.5813 12.5552 0.0000 0.0000 0.0000
# 2 -0.5813 93.5454 -3.1585 0.0000 0.0000 0.0000
# 3 12.5552 -3.1585 47.2387 0.0000 0.0000 0.0000
# 4 0.0000 0.0000 0.0000 5.0466 0.0000 0.0000
# 5 0.0000 0.0000 0.0000 0.0000 14.1163 0.0000
# 6 0.0000 0.0000 0.0000 0.0000 0.0000 13.8931
#
#
#
# Elastic Compliance Matrix: (Units=1/GPa)
#
#
# Indices 1 2 3 4 5 6 
#
# 1 0.007833 -0.000022 -0.002083 0.000000 0.000000 0.000000
# 2 -0.000022 0.010714 0.000722 0.000000 0.000000 0.000000
# 3 -0.002083 0.000722 0.021771 0.000000 0.000000 0.000000
# 4 0.000000 0.000000 0.000000 0.198152 0.000000 0.000000
# 5 0.000000 0.000000 0.000000 0.000000 0.070840 0.000000
# 6 0.000000 0.000000 0.000000 0.000000 0.000000 0.071978
#
#
# Mechanical properties :
#
#
# Convention : Reuss Voigt Hill
#
# Bulk Modulus (GPa) = 26.62942 32.15804 29.39373
# Shear Modulus (GPa) = 12.60806 24.14294 18.37550
#
# Velocity S-wave (km/s) = 2.70220 3.73928 3.26221
# Velocity P-wave (km/s) = 5.01578 6.10467 5.58682
#
# Compressibility (1/GPa) = 0.03755245
#
# Stress axis : x y z
#
# Youngs Moduli (GPa) = 127.66959 93.33372 45.93253
#
# Poissons Ratio (x) = 0.00202 0.09569
# Poissons Ratio (y) = 0.00277 -0.03317
# Poissons Ratio (z) = 0.26597 -0.06740
#
# Static dielectric constant tensor:
#      x y z
#    x 1.672620 0.000000 0.000000 
#    y 0.000000 1.605770 0.000000 
#    z 0.000000 0.000000 1.543420 
# 
# From -- ./inp_files/27412.got.cif
#   From: 2010.05.17/outbox.cif.g08.bks.cpg/sg62_14_cif.got.tgz:27412.got - 2010.06.03 15:25:27.
