data_PCOD9467960
_publ_section_title
;
Structure prediction by ZEFSAII (Michael W. Deem and Ramdas Pophale) SiO2 
 PCOD9467960
Probable space group: P N M A
;
_chemical_formula_sum "Si O2"
_cell_formula_units_Z 64
_cell_length_a 18.000000
_cell_length_b 9.000000
_cell_length_c 21.000000
_cell_angle_alpha 90.000000
_cell_angle_beta 90.000000
_cell_angle_gamma 90.000000
_cell_volume 3402.000000
_symmetry_space_group_name_H-M "P N M A"
_symmetry_group_IT_number 62
_symmetry_cell_setting 'orthorhombic'
loop_
_space_group_symop_operation_xyz
x,y,z
1/2-x,-y,1/2+z
1/2+x,1/2-y,1/2-z
-x,1/2+y,-z
-x,-y,-z
1/2+x,y,1/2-z
1/2-x,1/2+y,1/2+z
x,1/2-y,z
loop_
_atom_site_type_symbol
_atom_site_label
_atom_site_fract_x
_atom_site_fract_y
_atom_site_fract_z
Si Si1 0.958359 0.071486 0.559690
Si Si2 0.938584 0.427500 0.337391
Si Si3 0.274733 0.072253 0.107493
Si Si4 0.348329 0.917543 0.392105
Si Si5 0.631799 0.573041 0.350674
Si Si6 0.928178 0.581629 0.974334
Si Si7 0.525250 0.430541 0.704488
Si Si8 0.287183 0.431589 0.960458
O O1 0.964812 0.250000 0.557920
O O2 0.871820 0.031901 0.555285
O O3 0.000000 0.000000 0.500000
O O4 0.998247 0.005277 0.620985
O O5 0.948742 0.250000 0.336396
O O6 0.857896 0.456898 0.368283
O O7 0.944193 0.497173 0.267990
O O8 0.262198 0.250000 0.107264
O O9 0.213053 0.999676 0.153319
O O10 0.270063 0.021227 0.033423
O O11 0.335867 0.750000 0.366538
O O12 0.376261 0.906357 0.464468
O O13 0.416956 0.978685 0.351170
O O14 0.268391 0.990160 0.405419
O O15 0.638485 0.750000 0.346507
O O16 0.605997 0.519563 0.420170
O O17 0.560914 0.526299 0.307818
O O18 0.942144 0.750000 0.951005
O O19 0.000000 0.500000 0.000000
O O20 0.525453 0.250000 0.706687
O O21 0.281631 0.250000 0.960318
#
# Coordination Sequence:
#
# PCOD9467960 Si02
#       8
#     8   8   8   8   8   8   8   8
#     4  11  21  37  64  93 121 153 196 247 304 360
#     4  11  24  43  63  85 117 159 208 252 301 363
#     4  10  20  38  62  87 118 154 191 240 303 362
#     4   9  17  33  57  82 114 154 193 235 289 354
#     4  11  22  36  57  90 121 151 200 250 296 364
#     4  11  19  31  54  83 117 156 195 242 296 349
#     4  10  22  41  60  82 117 161 207 247 294 361
#     4   9  17  33  59  90 119 149 186 236 301 361
#
# _framework density 18.812463000000001
#
# number of rings (size 3 to 8) (size 9 to 14) (size 15 to 20)
#    0.000    1.750    3.750    1.500    0.000    2.000 
#    2.250    0.000    0.000    0.000    0.000    0.000 
#    0.000    0.000    0.000    0.000    0.000    0.000 
#
# Total GULP energy -356621.577276 kJ/mol
# GULP energy per Si atom -5572.212145 kJ/mol
# Density = 1.876965 g / cm^3
# Si number density = 18.812463 Si / 1000 Ang^3
#
#
#
# Elastic Constant Matrix: (Units=GPa)
#
#
# Indices 1 2 3 4 5 6 
#
# 1 138.8949 37.5256 22.3495 0.0000 0.0000 0.0000
# 2 37.5256 16.0613 9.8167 0.0000 0.0000 0.0000
# 3 22.3495 9.8167 57.5306 0.0000 0.0000 0.0000
# 4 0.0000 0.0000 0.0000 25.9556 0.0000 0.0000
# 5 0.0000 0.0000 0.0000 0.0000 16.1679 0.0000
# 6 0.0000 0.0000 0.0000 0.0000 0.0000 27.6178
#
#
#
# Elastic Compliance Matrix: (Units=1/GPa)
#
#
# Indices 1 2 3 4 5 6 
#
# 1 0.019526 -0.045756 0.000222 0.000000 0.000000 0.000000
# 2 -0.045756 0.176734 -0.012381 0.000000 0.000000 0.000000
# 3 0.000222 -0.012381 0.019408 0.000000 0.000000 0.000000
# 4 0.000000 0.000000 0.000000 0.038527 0.000000 0.000000
# 5 0.000000 0.000000 0.000000 0.000000 0.061851 0.000000
# 6 0.000000 0.000000 0.000000 0.000000 0.000000 0.036208
#
#
# Mechanical properties :
#
#
# Convention : Reuss Voigt Hill
#
# Bulk Modulus (GPa) = 10.01631 39.09671 24.55651
# Shear Modulus (GPa) = 9.97276 23.46794 16.72035
#
# Velocity S-wave (km/s) = 2.30492 3.53578 2.98449
# Velocity P-wave (km/s) = 3.52412 6.12344 4.99579
#
# Compressibility (1/GPa) = 0.09983717
#
# Stress axis : x y z
#
# Youngs Moduli (GPa) = 51.21364 5.65822 51.52394
#
# Poissons Ratio (x) = 0.25890 -0.01144
# Poissons Ratio (y) = 2.34335 0.63794
# Poissons Ratio (z) = -0.01138 0.07006
#
# Static dielectric constant tensor:
#      x y z
#    x 1.735650 0.000000 0.000000 
#    y 0.000000 1.621770 0.000000 
#    z 0.000000 0.000000 1.755820 
# 
# From -- ./inp_files/27721.got.cif
#   From: 2010.05.17/outbox.ucp.g08.bks.cvg/sg62_14_cif.got.tgz:27721.got - 2010.06.11 16:29:25.
