data_PCOD9467013
_publ_section_title
;
Structure prediction by ZEFSAII (Michael W. Deem and Ramdas Pophale) SiO2 
 PCOD9467013
Probable space group: P N M A
;
_chemical_formula_sum "Si O2"
_cell_formula_units_Z 64
_cell_length_a 30.882237
_cell_length_b 8.567667
_cell_length_c 11.904904
_cell_angle_alpha 90.000000
_cell_angle_beta 90.000000
_cell_angle_gamma 90.000000
_cell_volume 3149.903345
_symmetry_space_group_name_H-M "P N M A"
_symmetry_group_IT_number 62
_symmetry_cell_setting 'orthorhombic'
loop_
_space_group_symop_operation_xyz
x,y,z
1/2-x,-y,1/2+z
1/2+x,1/2-y,1/2-z
-x,1/2+y,-z
-x,-y,-z
1/2+x,y,1/2-z
1/2-x,1/2+y,1/2+z
x,1/2-y,z
loop_
_atom_site_type_symbol
_atom_site_label
_atom_site_fract_x
_atom_site_fract_y
_atom_site_fract_z
Si Si1 0.658126 0.568314 0.980787
Si Si2 0.065214 0.067233 0.539596
Si Si3 0.309348 0.065688 0.271119
Si Si4 0.552353 0.061378 0.208173
Si Si5 0.460174 0.065122 0.278806
Si Si6 0.616118 0.067681 0.573717
Si Si7 0.363957 0.433308 0.667843
Si Si8 0.289902 0.564038 0.812423
O O1 0.644703 0.750000 0.992052
O O2 0.616121 0.459329 0.982800
O O3 0.680649 0.549029 0.860447
O O4 0.689861 0.522501 0.080824
O O5 0.055971 0.250000 0.559205
O O6 0.043880 0.015972 0.421760
O O7 0.054084 0.972043 0.651023
O O8 0.314456 0.250000 0.299099
O O9 0.260004 0.019470 0.294893
O O10 0.344532 0.971926 0.342254
O O11 0.556804 0.250000 0.209193
O O12 0.510682 0.019018 0.282787
O O13 0.596156 0.987435 0.254073
O O14 0.456537 0.250000 0.297742
O O15 0.428115 0.979456 0.363469
O O16 0.615380 0.250000 0.547011
O O17 0.623582 0.974445 0.459150
O O18 0.357188 0.250000 0.681136
O O19 0.320564 0.520285 0.707871
O O20 0.291836 0.750000 0.829740
#
# Coordination Sequence:
#
# PCOD9467013 Si02
#       8
#     8   8   8   8   8   8   8   8
#     4  11  22  39  65  96 130 170 211 259 316 372
#     4  11  21  37  63  96 131 168 209 258 316 373
#     4  10  24  44  66  94 130 168 211 261 313 372
#     4  10  23  42  65  93 128 169 212 261 315 373
#     4  11  23  41  65  94 129 167 211 262 315 378
#     4  12  26  44  67  92 126 167 211 264 319 377
#     4  12  26  44  67  93 126 168 213 261 316 379
#     4  11  24  43  66  96 131 167 211 263 316 374
#
# _framework density 20.318083999999999
#
# number of rings (size 3 to 8) (size 9 to 14) (size 15 to 20)
#    0.000    1.000    2.500    4.125    1.750    3.500 
#    0.000    0.000    0.000    0.000    0.000    0.000 
#    0.000    0.000    0.000    0.000    0.000    0.000 
#
# Total GULP energy -358061.377740 kJ/mol
# GULP energy per Si atom -5594.709027 kJ/mol
# Density = 2.027184 g / cm^3
# Si number density = 20.318084 Si / 1000 Ang^3
#
#
#
# Elastic Constant Matrix: (Units=GPa)
#
#
# Indices 1 2 3 4 5 6 
#
# 1 46.3345 5.2188 -26.7497 0.0000 0.0000 0.0000
# 2 5.2188 29.4861 -0.7007 0.0000 0.0000 0.0000
# 3 -26.7497 -0.7007 41.0448 0.0000 0.0000 0.0000
# 4 0.0000 0.0000 0.0000 35.1584 0.0000 0.0000
# 5 0.0000 0.0000 0.0000 0.0000 11.3943 0.0000
# 6 0.0000 0.0000 0.0000 0.0000 0.0000 -11.2320
#
#
#
# Elastic Compliance Matrix: (Units=1/GPa)
#
#
# Indices 1 2 3 4 5 6 
#
# 1 0.035547 -0.005743 0.023069 0.000000 0.000000 0.000000
# 2 -0.005743 0.034856 -0.003148 0.000000 0.000000 0.000000
# 3 0.023069 -0.003148 0.039344 0.000000 0.000000 0.000000
# 4 0.000000 0.000000 0.000000 0.028443 0.000000 0.000000
# 5 0.000000 0.000000 0.000000 0.000000 0.087763 0.000000
# 6 0.000000 0.000000 0.000000 0.000000 0.000000 -0.089032
#
#
# Mechanical properties :
#
#
# Convention : Reuss Voigt Hill
#
# Bulk Modulus (GPa) = 7.24103 8.04469 7.64286
# Shear Modulus (GPa) = 32.34124 16.33727 24.33925
#
# Velocity S-wave (km/s) = 3.99400 2.83870 3.46484
# Velocity P-wave (km/s) = 4.98407 3.83565 4.44709
#
# Compressibility (1/GPa) = 0.13810194
#
# Stress axis : x y z
#
# Youngs Moduli (GPa) = 28.13164 28.68943 25.41664
#
# Poissons Ratio (x) = 0.16478 -0.58633
# Poissons Ratio (y) = 0.16157 0.08001
# Poissons Ratio (z) = -0.64896 0.09032
#
# Static dielectric constant tensor:
#      x y z
#    x 1.708990 0.000000 0.000000 
#    y 0.000000 1.680030 0.000000 
#    z 0.000000 0.000000 1.701490 
# 
# From -- ./inp_files/15857.got.cif
#   From: 2010.05.17/outbox.cif.g08.bks.cpg/sg62_8_cif.got.tgz:15857.got - 2010.06.03 15:25:27.
