data_PCOD9467388
_publ_section_title
;
Structure prediction by ZEFSAII (Michael W. Deem and Ramdas Pophale) SiO2 
 PCOD9467388
Probable space group: P N M A
;
_chemical_formula_sum "Si O2"
_cell_formula_units_Z 48
_cell_length_a 15.424623
_cell_length_b 16.244550
_cell_length_c 9.863464
_cell_angle_alpha 90.000000
_cell_angle_beta 90.000000
_cell_angle_gamma 90.000000
_cell_volume 2471.449308
_symmetry_space_group_name_H-M "P N M A"
_symmetry_group_IT_number 62
_symmetry_cell_setting 'orthorhombic'
loop_
_space_group_symop_operation_xyz
x,y,z
1/2-x,-y,1/2+z
1/2+x,1/2-y,1/2-z
-x,1/2+y,-z
-x,-y,-z
1/2+x,y,1/2-z
1/2-x,1/2+y,1/2+z
x,1/2-y,z
loop_
_atom_site_type_symbol
_atom_site_label
_atom_site_fract_x
_atom_site_fract_y
_atom_site_fract_z
Si Si1 0.798110 0.154610 0.547023
Si Si2 0.178429 0.090173 0.171530
Si Si3 0.309819 0.341070 0.390805
Si Si4 0.250999 0.410313 0.654014
Si Si5 0.485495 0.061757 0.373012
Si Si6 0.084894 0.511461 0.589094
O O1 0.826684 0.250000 0.555354
O O2 0.716114 0.145684 0.448166
O O3 0.768098 0.120897 0.693919
O O4 0.866728 0.092282 0.474052
O O5 0.240842 0.106723 0.301101
O O6 0.075820 0.102202 0.175324
O O7 0.192726 0.993860 0.137468
O O8 0.308906 0.250000 0.331751
O O9 0.279539 0.343892 0.545186
O O10 0.407310 0.374903 0.397099
O O11 0.156405 0.440039 0.603799
O O12 0.449296 0.016323 0.241579
O O13 0.500000 0.000000 0.500000
O O14 0.000000 0.500000 0.500000
#
# Coordination Sequence:
#
# PCOD9467388 Si02
#       6
#     8   8   8   8   8   8
#     4  11  23  42  65  93 134 177 220 279 338 390
#     4  11  22  42  70  91 125 176 225 265 329 405
#     4  12  25  41  64 101 138 169 217 282 334 382
#     4  11  21  42  66  92 131 177 220 271 326 405
#     4  12  23  41  69  99 127 173 228 274 324 405
#     4  11  24  41  69  99 129 176 229 272 331 405
#
# _framework density 19.421803000000001
#
# number of rings (size 3 to 8) (size 9 to 14) (size 15 to 20)
#    0.000    0.667    5.000    6.000    0.000    1.333 
#    0.000    3.333    0.000    0.000    0.000    0.000 
#    0.000    0.000    0.000    0.000    0.000    0.000 
#
# Total GULP energy -267597.334042 kJ/mol
# GULP energy per Si atom -5574.944459 kJ/mol
# Density = 1.937760 g / cm^3
# Si number density = 19.421803 Si / 1000 Ang^3
#
#
#
# Elastic Constant Matrix: (Units=GPa)
#
#
# Indices 1 2 3 4 5 6 
#
# 1 157.0328 38.0012 17.0433 0.0000 0.0000 0.0000
# 2 38.0012 88.4007 16.7835 0.0000 0.0000 0.0000
# 3 17.0433 16.7835 60.6080 0.0000 0.0000 0.0000
# 4 0.0000 0.0000 0.0000 20.4970 0.0000 0.0000
# 5 0.0000 0.0000 0.0000 0.0000 36.6433 0.0000
# 6 0.0000 0.0000 0.0000 0.0000 0.0000 14.2908
#
#
#
# Elastic Compliance Matrix: (Units=1/GPa)
#
#
# Indices 1 2 3 4 5 6 
#
# 1 0.007193 -0.002859 -0.001231 0.000000 0.000000 0.000000
# 2 -0.002859 0.013076 -0.002817 0.000000 0.000000 0.000000
# 3 -0.001231 -0.002817 0.017626 0.000000 0.000000 0.000000
# 4 0.000000 0.000000 0.000000 0.048788 0.000000 0.000000
# 5 0.000000 0.000000 0.000000 0.000000 0.027290 0.000000
# 6 0.000000 0.000000 0.000000 0.000000 0.000000 0.069975
#
#
# Mechanical properties :
#
#
# Convention : Reuss Voigt Hill
#
# Bulk Modulus (GPa) = 41.52602 49.96640 45.74621
# Shear Modulus (GPa) = 24.29677 29.90046 27.09862
#
# Velocity S-wave (km/s) = 3.54079 3.92794 3.73938
# Velocity P-wave (km/s) = 6.17607 6.80841 6.49993
#
# Compressibility (1/GPa) = 0.02408129
#
# Stress axis : x y z
#
# Youngs Moduli (GPa) = 139.01485 76.47728 56.73498
#
# Poissons Ratio (x) = 0.21861 0.06986
# Poissons Ratio (y) = 0.39738 0.15983
# Poissons Ratio (z) = 0.17116 0.21544
#
# Static dielectric constant tensor:
#      x y z
#    x 1.616980 0.000000 0.000000 
#    y 0.000000 1.718080 0.000000 
#    z 0.000000 0.000000 1.707680 
# 
# From -- ./inp_files/6422.got.cif
#   From: 2010.05.17/outbox.cif.g08.bks.cpg/sg62_4_cif.got.tgz:6422.got - 2010.06.03 15:25:27.
