data_PCOD9467298
_publ_section_title
;
Structure prediction by ZEFSAII (Michael W. Deem and Ramdas Pophale) SiO2 
 PCOD9467298
Probable space group: P N M A
;
_chemical_formula_sum "Si O2"
_cell_formula_units_Z 40
_cell_length_a 18.919592
_cell_length_b 11.991363
_cell_length_c 6.988191
_cell_angle_alpha 90.000000
_cell_angle_beta 90.000000
_cell_angle_gamma 90.000000
_cell_volume 1585.422741
_symmetry_space_group_name_H-M "P N M A"
_symmetry_group_IT_number 62
_symmetry_cell_setting 'orthorhombic'
loop_
_space_group_symop_operation_xyz
x,y,z
1/2-x,-y,1/2+z
1/2+x,1/2-y,1/2-z
-x,1/2+y,-z
-x,-y,-z
1/2+x,y,1/2-z
1/2-x,1/2+y,1/2+z
x,1/2-y,z
loop_
_atom_site_type_symbol
_atom_site_label
_atom_site_fract_x
_atom_site_fract_y
_atom_site_fract_z
Si Si1 0.996768 0.377835 0.200345
Si Si2 0.307957 0.629700 0.593131
Si Si3 0.003400 0.628785 0.250125
Si Si4 0.832303 0.448073 0.235114
Si Si5 0.635022 0.132893 0.009873
O O1 0.007696 0.250000 0.274551
O O2 0.024868 0.498926 0.280694
O O3 0.910011 0.394235 0.215319
O O4 0.015228 0.373203 0.974648
O O5 0.311889 0.750000 0.493057
O O6 0.235763 0.625655 0.717745
O O7 0.319719 0.529418 0.446125
O O8 0.366115 0.628264 0.761078
O O9 0.043414 0.750000 0.276597
O O10 0.937135 0.637127 0.390171
O O11 0.830265 0.524882 0.423921
O O12 0.672657 0.250000 0.964926
#
# Coordination Sequence:
#
# PCOD9467298 Si02
#       5
#     8   8   8   8   8
#     4   9  17  30  52  81 110 140 180 229 278 323
#     4  11  22  35  53  78 106 144 187 227 274 329
#     4   8  15  30  54  80 108 145 181 220 274 332
#     4  11  20  35  53  77 108 143 180 228 277 327
#     4   9  18  34  55  77 106 140 180 223 266 324
#
# _framework density 25.229863999999999
#
# number of rings (size 3 to 8) (size 9 to 14) (size 15 to 20)
#    0.000    2.400    2.000    1.200    0.000    0.800 
#    0.000    1.000    0.000    0.000    0.000    0.000 
#    0.000    0.000    0.000    0.000    0.000    0.000 
#
# Total GULP energy -222887.792707 kJ/mol
# GULP energy per Si atom -5572.194818 kJ/mol
# Density = 2.517244 g / cm^3
# Si number density = 25.229864 Si / 1000 Ang^3
#
#
#
# Elastic Constant Matrix: (Units=GPa)
#
#
# Indices 1 2 3 4 5 6 
#
# 1 60.8929 68.8988 0.2383 0.0000 0.0000 0.0000
# 2 68.8988 237.0108 25.5496 0.0000 0.0000 0.0000
# 3 0.2383 25.5496 108.7795 0.0000 0.0000 0.0000
# 4 0.0000 0.0000 0.0000 42.6943 0.0000 0.0000
# 5 0.0000 0.0000 0.0000 0.0000 30.7955 0.0000
# 6 0.0000 0.0000 0.0000 0.0000 0.0000 82.2937
#
#
#
# Elastic Compliance Matrix: (Units=1/GPa)
#
#
# Indices 1 2 3 4 5 6 
#
# 1 0.024767 -0.007381 0.001679 0.000000 0.000000 0.000000
# 2 -0.007381 0.006528 -0.001517 0.000000 0.000000 0.000000
# 3 0.001679 -0.001517 0.009546 0.000000 0.000000 0.000000
# 4 0.000000 0.000000 0.000000 0.023422 0.000000 0.000000
# 5 0.000000 0.000000 0.000000 0.000000 0.032472 0.000000
# 6 0.000000 0.000000 0.000000 0.000000 0.000000 0.012152
#
#
# Mechanical properties :
#
#
# Convention : Reuss Voigt Hill
#
# Bulk Modulus (GPa) = 37.87375 66.22849 52.05112
# Shear Modulus (GPa) = 37.84288 51.95646 44.89967
#
# Velocity S-wave (km/s) = 3.87709 4.54290 4.22314
# Velocity P-wave (km/s) = 5.92338 7.33650 6.66749
#
# Compressibility (1/GPa) = 0.02640351
#
# Stress axis : x y z
#
# Youngs Moduli (GPa) = 40.37668 153.17860 104.76054
#
# Poissons Ratio (x) = 1.13056 -0.17592
# Poissons Ratio (y) = 0.29801 0.15894
# Poissons Ratio (z) = -0.06780 0.23240
#
# Static dielectric constant tensor:
#      x y z
#    x 2.129400 0.000000 0.000000 
#    y 0.000000 2.041250 0.000000 
#    z 0.000000 0.000000 1.943100 
# 
# From -- ./inp_files/3023.got.cif
#   From: 2010.05.17/outbox.cif.g08.bks.cpg/sg62_2_cif.got.tgz:3023.got - 2010.06.03 15:25:27.
