data_PCOD9467592
_publ_section_title
;
Structure prediction by ZEFSAII (Michael W. Deem and Ramdas Pophale) SiO2 
 PCOD9467592
Probable space group: P N M A
;
_chemical_formula_sum "Si O2"
_cell_formula_units_Z 24
_cell_length_a 6.910905
_cell_length_b 10.896845
_cell_length_c 13.587633
_cell_angle_alpha 90.000000
_cell_angle_beta 90.000000
_cell_angle_gamma 90.000000
_cell_volume 1023.244702
_symmetry_space_group_name_H-M "P N M A"
_symmetry_group_IT_number 62
_symmetry_cell_setting 'orthorhombic'
loop_
_space_group_symop_operation_xyz
x,y,z
1/2-x,-y,1/2+z
1/2+x,1/2-y,1/2-z
-x,1/2+y,-z
-x,-y,-z
1/2+x,y,1/2-z
1/2-x,1/2+y,1/2+z
x,1/2-y,z
loop_
_atom_site_type_symbol
_atom_site_label
_atom_site_fract_x
_atom_site_fract_y
_atom_site_fract_z
Si Si1 0.723957 0.438779 0.382301
Si Si2 0.163472 0.112270 0.340084
Si Si3 0.076496 0.116944 0.905783
O O1 0.652469 0.385966 0.278487
O O2 0.627367 0.381403 0.478747
O O3 0.646110 0.578532 0.387913
O O4 0.952606 0.418371 0.383452
O O5 0.221622 0.250000 0.372466
O O6 0.300501 0.997708 0.365067
O O7 0.121358 0.250000 0.862841
#
# Coordination Sequence:
#
# PCOD9467592 Si02
#       3
#     8   8   8
#     4  11  25  44  69 101 137 181 224 272 337 408
#     4  12  24  44  73 100 134 180 230 275 331 408
#     4  11  26  46  70 102 139 176 225 285 341 395
#
# _framework density 23.454801
#
# number of rings (size 3 to 8) (size 9 to 14) (size 15 to 20)
#    0.000    0.667    3.333    4.000    0.000    9.333 
#    0.000    0.000    0.000    0.000    0.000    0.000 
#    0.000    0.000    0.000    0.000    0.000    0.000 
#
# Total GULP energy -134157.691811 kJ/mol
# GULP energy per Si atom -5589.903825 kJ/mol
# Density = 2.340142 g / cm^3
# Si number density = 23.454801 Si / 1000 Ang^3
#
#
#
# Elastic Constant Matrix: (Units=GPa)
#
#
# Indices 1 2 3 4 5 6 
#
# 1 72.7994 80.7574 -1.2297 0.0000 0.0000 0.0000
# 2 80.7574 246.9842 45.0327 0.0000 0.0000 0.0000
# 3 -1.2297 45.0327 84.9895 0.0000 0.0000 0.0000
# 4 0.0000 0.0000 0.0000 7.1924 0.0000 0.0000
# 5 0.0000 0.0000 0.0000 0.0000 22.8166 0.0000
# 6 0.0000 0.0000 0.0000 0.0000 0.0000 16.4496
#
#
#
# Elastic Compliance Matrix: (Units=1/GPa)
#
#
# Indices 1 2 3 4 5 6 
#
# 1 0.023213 -0.008470 0.004824 0.000000 0.000000 0.000000
# 2 -0.008470 0.007572 -0.004135 0.000000 0.000000 0.000000
# 3 0.004824 -0.004135 0.014027 0.000000 0.000000 0.000000
# 4 0.000000 0.000000 0.000000 0.139036 0.000000 0.000000
# 5 0.000000 0.000000 0.000000 0.000000 0.043828 0.000000
# 6 0.000000 0.000000 0.000000 0.000000 0.000000 0.060792
#
#
# Mechanical properties :
#
#
# Convention : Reuss Voigt Hill
#
# Bulk Modulus (GPa) = 34.18717 72.65487 53.42102
# Shear Modulus (GPa) = 15.93474 27.97257 21.95366
#
# Velocity S-wave (km/s) = 2.60932 3.45717 3.06273
# Velocity P-wave (km/s) = 4.86677 6.85419 5.94413
#
# Compressibility (1/GPa) = 0.02925074
#
# Stress axis : x y z
#
# Youngs Moduli (GPa) = 43.07865 132.06419 71.29220
#
# Poissons Ratio (x) = 1.11854 -0.34389
# Poissons Ratio (y) = 0.36486 0.29477
# Poissons Ratio (z) = -0.20779 0.54605
#
# Static dielectric constant tensor:
#      x y z
#    x 1.940950 0.000000 0.000000 
#    y 0.000000 1.926700 0.000000 
#    z 0.000000 0.000000 1.886440 
# 
# From -- ./inp_files/10811.got.cif
#   From: 2010.05.17/outbox.cif.g08.bks.cpg/sg62_6_cif.got.tgz:10811.got - 2010.06.03 15:25:27.
