data_PCOD9467811
_publ_section_title
;
Structure prediction by ZEFSAII (Michael W. Deem and Ramdas Pophale) SiO2 
 PCOD9467811
Probable space group: P N M A
;
_chemical_formula_sum "Si O2"
_cell_formula_units_Z 64
_cell_length_a 30.000000
_cell_length_b 9.000000
_cell_length_c 15.000000
_cell_angle_alpha 90.000000
_cell_angle_beta 90.000000
_cell_angle_gamma 90.000000
_cell_volume 4050.000000
_symmetry_space_group_name_H-M "P N M A"
_symmetry_group_IT_number 62
_symmetry_cell_setting 'orthorhombic'
loop_
_space_group_symop_operation_xyz
x,y,z
1/2-x,-y,1/2+z
1/2+x,1/2-y,1/2-z
-x,1/2+y,-z
-x,-y,-z
1/2+x,y,1/2-z
1/2-x,1/2+y,1/2+z
x,1/2-y,z
loop_
_atom_site_type_symbol
_atom_site_label
_atom_site_fract_x
_atom_site_fract_y
_atom_site_fract_z
Si Si1 0.951490 0.074267 0.392374
Si Si2 0.224928 0.571553 0.001308
Si Si3 0.454578 0.072572 0.899264
Si Si4 0.204676 0.072781 0.184396
Si Si5 0.368297 0.573799 0.175307
Si Si6 0.205316 0.571702 0.795831
Si Si7 0.821066 0.076616 0.490062
Si Si8 0.136898 0.922776 0.313572
O O1 0.946445 0.250000 0.380641
O O2 0.941615 0.041443 0.497386
O O3 0.918168 0.988760 0.327667
O O4 0.001661 0.020151 0.378444
O O5 0.228571 0.750000 0.007851
O O6 0.207979 0.536543 0.901229
O O7 0.200678 0.508364 0.089063
O O8 0.272534 0.492829 0.007450
O O9 0.463610 0.250000 0.895578
O O10 0.414352 0.038803 0.832672
O O11 0.206477 0.250000 0.171467
O O12 0.249899 0.029012 0.239649
O O13 0.163522 0.025568 0.246251
O O14 0.367689 0.750000 0.179366
O O15 0.336822 0.505741 0.250936
O O16 0.348150 0.515206 0.082267
O O17 0.201577 0.750000 0.787686
O O18 0.820367 0.250000 0.462972
O O19 0.840904 0.067822 0.588742
O O20 0.140011 0.750000 0.284868
#
# Coordination Sequence:
#
# PCOD9467811 Si02
#       8
#     8   8   8   8   8   8   8   8
#     4  10  19  33  51  74 105 138 170 212 261 306
#     4  11  22  37  53  73 101 137 178 217 258 303
#     4   9  18  33  50  74 104 137 174 212 256 306
#     4  11  22  35  52  76 105 136 174 216 258 304
#     4  12  23  33  51  76 103 140 179 213 255 311
#     4  10  22  37  52  73 103 137 175 218 258 302
#     4  11  20  32  50  73 104 139 174 214 257 299
#     4  10  20  34  52  74 104 141 177 213 255 304
#
# _framework density 15.802469
#
# number of rings (size 3 to 8) (size 9 to 14) (size 15 to 20)
#    0.000    1.500    3.750    2.625    0.000    3.000 
#    0.000    0.000    0.000    0.000    0.000    0.875 
#    0.000    0.000    0.000    0.000    0.000    0.000 
#
# Total GULP energy -357113.846878 kJ/mol
# GULP energy per Si atom -5579.903857 kJ/mol
# Density = 1.576650 g / cm^3
# Si number density = 15.802469 Si / 1000 Ang^3
#
#
#
# Elastic Constant Matrix: (Units=GPa)
#
#
# Indices 1 2 3 4 5 6 
#
# 1 151.0457 143.8079 215.2664 0.0000 0.0000 0.0000
# 2 143.8079 189.9906 272.4631 0.0000 0.0000 0.0000
# 3 215.2664 272.4631 470.1450 0.0000 0.0000 0.0000
# 4 0.0000 0.0000 0.0000 24.2682 0.0000 0.0000
# 5 0.0000 0.0000 0.0000 0.0000 23.6101 0.0000
# 6 0.0000 0.0000 0.0000 0.0000 0.0000 22.2097
#
#
#
# Elastic Compliance Matrix: (Units=1/GPa)
#
#
# Indices 1 2 3 4 5 6 
#
# 1 0.024291 -0.014424 -0.002763 0.000000 0.000000 0.000000
# 2 -0.014424 0.039727 -0.016419 0.000000 0.000000 0.000000
# 3 -0.002763 -0.016419 0.012907 0.000000 0.000000 0.000000
# 4 0.000000 0.000000 0.000000 0.041206 0.000000 0.000000
# 5 0.000000 0.000000 0.000000 0.000000 0.042355 0.000000
# 6 0.000000 0.000000 0.000000 0.000000 0.000000 0.045025
#
#
# Mechanical properties :
#
#
# Convention : Reuss Voigt Hill
#
# Bulk Modulus (GPa) = 102.94376 230.47291 166.70833
# Shear Modulus (GPa) = 18.11847 25.99386 22.05616
#
# Velocity S-wave (km/s) = 3.38976 4.06017 3.74002
# Velocity P-wave (km/s) = 8.97809 12.96698 11.15233
#
# Compressibility (1/GPa) = 0.00971404
#
# Stress axis : x y z
#
# Youngs Moduli (GPa) = 41.16685 25.17187 77.47527
#
# Poissons Ratio (x) = 0.36307 0.21409
# Poissons Ratio (y) = 0.59378 1.27204
# Poissons Ratio (z) = 0.11376 0.41329
#
# Static dielectric constant tensor:
#      x y z
#    x 1.450240 0.000000 0.000000 
#    y 0.000000 1.793390 0.000000 
#    z 0.000000 0.000000 1.494430 
# 
# From -- ./inp_files/21258.got.cif
#   From: 2010.05.17/outbox.ucp.g08.bks.cvg/sg62_11_cif.got.tgz:21258.got - 2010.06.11 16:29:25.
