data_PCOD9467686
_publ_section_title
;
Structure prediction by ZEFSAII (Michael W. Deem and Ramdas Pophale) SiO2 
 PCOD9467686
Probable space group: P N M A
;
_chemical_formula_sum "Si O2"
_cell_formula_units_Z 32
_cell_length_a 18.968230
_cell_length_b 14.521749
_cell_length_c 4.871825
_cell_angle_alpha 90.000000
_cell_angle_beta 90.000000
_cell_angle_gamma 90.000000
_cell_volume 1341.953331
_symmetry_space_group_name_H-M "P N M A"
_symmetry_group_IT_number 62
_symmetry_cell_setting 'orthorhombic'
loop_
_space_group_symop_operation_xyz
x,y,z
1/2-x,-y,1/2+z
1/2+x,1/2-y,1/2-z
-x,1/2+y,-z
-x,-y,-z
1/2+x,y,1/2-z
1/2-x,1/2+y,1/2+z
x,1/2-y,z
loop_
_atom_site_type_symbol
_atom_site_label
_atom_site_fract_x
_atom_site_fract_y
_atom_site_fract_z
Si Si1 0.772102 0.443827 0.783343
Si Si2 0.604872 0.250000 0.313887
Si Si3 0.989770 0.108296 0.995224
Si Si4 0.100556 0.852829 0.497283
Si Si5 0.799691 0.750000 0.314323
O O1 0.723881 0.492754 0.551865
O O2 0.845294 0.425750 0.626318
O O3 0.741879 0.344392 0.868928
O O4 0.557038 0.337386 0.392188
O O5 0.674656 0.250000 0.500423
O O6 0.630890 0.250000 0.003500
O O7 0.968734 0.140385 0.692116
O O8 0.924091 0.131866 0.193647
O O9 0.000000 0.000000 0.000000
O O10 0.130929 0.750000 0.473231
#
# Coordination Sequence:
#
# PCOD9467686 Si02
#       5
#     8   4   8   8   4
#     4  12  28  48  75 107 143 192 244 298 362 426
#     4  12  26  46  72 104 152 184 230 295 361 428
#     4  12  27  45  74 106 141 188 236 292 358 424
#     4  12  24  50  73 100 143 188 242 296 347 426
#     4  12  28  48  72 106 150 188 236 297 365 428
#
# _framework density 23.845835999999998
#
# number of rings (size 3 to 8) (size 9 to 14) (size 15 to 20)
#    0.000    0.000    3.750    5.250   10.500    0.000 
#    0.000    0.000    0.000    0.000    0.000    0.000 
#    0.000    0.000    0.000    0.000    0.000    0.000 
#
# Total GULP energy -179448.369834 kJ/mol
# GULP energy per Si atom -5607.761557 kJ/mol
# Density = 2.379156 g / cm^3
# Si number density = 23.845836 Si / 1000 Ang^3
#
#
#
# Elastic Constant Matrix: (Units=GPa)
#
#
# Indices 1 2 3 4 5 6 
#
# 1 41.7178 6.6234 -18.4226 0.0000 0.0000 0.0000
# 2 6.6234 151.9188 5.5850 0.0000 0.0000 0.0000
# 3 -18.4226 5.5850 74.7947 0.0000 0.0000 0.0000
# 4 0.0000 0.0000 0.0000 -550.6038 0.0000 0.0000
# 5 0.0000 0.0000 0.0000 0.0000 42.8185 0.0000
# 6 0.0000 0.0000 0.0000 0.0000 0.0000 -60.7821
#
#
#
# Elastic Compliance Matrix: (Units=1/GPa)
#
#
# Indices 1 2 3 4 5 6 
#
# 1 0.027205 -0.001436 0.006808 0.000000 0.000000 0.000000
# 2 -0.001436 0.006676 -0.000852 0.000000 0.000000 0.000000
# 3 0.006808 -0.000852 0.015110 0.000000 0.000000 0.000000
# 4 0.000000 0.000000 0.000000 -0.001816 0.000000 0.000000
# 5 0.000000 0.000000 0.000000 0.000000 0.023354 0.000000
# 6 0.000000 0.000000 0.000000 0.000000 0.000000 -0.016452
#
#
# Mechanical properties :
#
#
# Convention : Reuss Voigt Hill
#
# Bulk Modulus (GPa) = 17.23222 28.44477 22.83849
# Shear Modulus (GPa) = 77.66044 -95.40379 -8.87167
#
# Velocity S-wave (km/s) = 5.71300 -6.33210 -1.93093
# Velocity P-wave (km/s) = 7.12461 6.44252 2.15105
#
# Compressibility (1/GPa) = 0.05803084
#
# Stress axis : x y z
#
# Youngs Moduli (GPa) = 36.75778 149.78081 66.17921
#
# Poissons Ratio (x) = 0.21514 -0.45056
# Poissons Ratio (y) = 0.05280 0.05641
# Poissons Ratio (z) = -0.25025 0.12766
#
# Static dielectric constant tensor:
#      x y z
#    x 1.918590 0.000000 0.000000 
#    y 0.000000 1.854820 0.000000 
#    z 0.000000 0.000000 1.825290 
# 
# From -- ./inp_files/1512.got.cif
#   From: 2010.05.17/outbox.cif.g08.bks.cpg/sg62_1_cif.got.tgz:1512.got - 2010.06.03 15:25:27.
