data_PCOD9467247
_publ_section_title
;
Structure prediction by ZEFSAII (Michael W. Deem and Ramdas Pophale) SiO2 
 PCOD9467247
Probable space group: P N M A
;
_chemical_formula_sum "Si O2"
_cell_formula_units_Z 40
_cell_length_a 17.214418
_cell_length_b 10.400650
_cell_length_c 9.792213
_cell_angle_alpha 90.000000
_cell_angle_beta 90.000000
_cell_angle_gamma 90.000000
_cell_volume 1753.208945
_symmetry_space_group_name_H-M "P N M A"
_symmetry_group_IT_number 62
_symmetry_cell_setting 'orthorhombic'
loop_
_space_group_symop_operation_xyz
x,y,z
1/2-x,-y,1/2+z
1/2+x,1/2-y,1/2-z
-x,1/2+y,-z
-x,-y,-z
1/2+x,y,1/2-z
1/2-x,1/2+y,1/2+z
x,1/2-y,z
loop_
_atom_site_type_symbol
_atom_site_label
_atom_site_fract_x
_atom_site_fract_y
_atom_site_fract_z
Si Si1 0.664996 0.392846 0.281796
Si Si2 0.401005 0.750000 0.184786
Si Si3 0.825578 0.024529 0.257025
Si Si4 0.082210 0.750000 0.235466
Si Si5 0.051441 0.250000 0.377155
Si Si6 0.909688 0.465168 0.989161
Si Si7 0.128196 0.750000 0.548141
O O1 0.698403 0.250000 0.261453
O O2 0.733506 0.482112 0.229906
O O3 0.583356 0.376245 0.201797
O O4 0.641544 0.415037 0.438013
O O5 0.359193 0.617763 0.223669
O O6 0.489061 0.750000 0.241206
O O7 0.407624 0.750000 0.022038
O O8 0.836353 0.119302 0.387069
O O9 0.873573 0.083041 0.129854
O O10 0.101246 0.870224 0.138621
O O11 0.122726 0.750000 0.383379
O O12 0.960814 0.250000 0.398923
O O13 0.000000 0.500000 0.000000
#
# Coordination Sequence:
#
# PCOD9467247 Si02
#       7
#     8   4   8   4   4   8   4
#     4  10  26  44  71 104 144 196 247 302 375 442
#     4  11  26  40  73 103 148 183 253 293 384 432
#     4  12  26  48  74 108 150 198 239 317 377 453
#     4  11  27  44  74 115 132 196 254 308 364 459
#     4   9  23  42  67  99 144 184 244 304 356 441
#     4  12  26  46  77 107 152 190 254 309 379 440
#     4  11  24  46  80 101 146 197 253 301 376 442
#
# _framework density 22.815306
#
# number of rings (size 3 to 8) (size 9 to 14) (size 15 to 20)
#    0.600    0.400    3.000    1.800    8.400    2.400 
#    0.000    0.000    0.000    0.000    0.000    0.000 
#    0.000    0.000    0.000    0.000    0.000    0.000 
#
# Total GULP energy -223362.721334 kJ/mol
# GULP energy per Si atom -5584.068033 kJ/mol
# Density = 2.276338 g / cm^3
# Si number density = 22.815306 Si / 1000 Ang^3
#
#
#
# Elastic Constant Matrix: (Units=GPa)
#
#
# Indices 1 2 3 4 5 6 
#
# 1 86.5671 9.5944 21.6606 0.0000 0.0000 0.0000
# 2 9.5944 90.1156 32.7624 0.0000 0.0000 0.0000
# 3 21.6606 32.7624 110.8398 0.0000 0.0000 0.0000
# 4 0.0000 0.0000 0.0000 40.8679 0.0000 0.0000
# 5 0.0000 0.0000 0.0000 0.0000 23.1633 0.0000
# 6 0.0000 0.0000 0.0000 0.0000 0.0000 28.8364
#
#
#
# Elastic Compliance Matrix: (Units=1/GPa)
#
#
# Indices 1 2 3 4 5 6 
#
# 1 0.012164 -0.000483 -0.002235 0.000000 0.000000 0.000000
# 2 -0.000483 0.012452 -0.003586 0.000000 0.000000 0.000000
# 3 -0.002235 -0.003586 0.010519 0.000000 0.000000 0.000000
# 4 0.000000 0.000000 0.000000 0.024469 0.000000 0.000000
# 5 0.000000 0.000000 0.000000 0.000000 0.043172 0.000000
# 6 0.000000 0.000000 0.000000 0.000000 0.000000 0.034678
#
#
# Mechanical properties :
#
#
# Convention : Reuss Voigt Hill
#
# Bulk Modulus (GPa) = 44.38896 46.17303 45.28099
# Shear Modulus (GPa) = 31.73178 33.47387 32.60283
#
# Velocity S-wave (km/s) = 3.73340 3.83452 3.78430
# Velocity P-wave (km/s) = 6.17110 6.31557 6.24375
#
# Compressibility (1/GPa) = 0.02252813
#
# Stress axis : x y z
#
# Youngs Moduli (GPa) = 82.20749 80.30785 95.06834
#
# Poissons Ratio (x) = 0.03877 0.21243
# Poissons Ratio (y) = 0.03968 0.34094
# Poissons Ratio (z) = 0.18369 0.28801
#
# Static dielectric constant tensor:
#      x y z
#    x 1.849320 0.000000 0.000000 
#    y 0.000000 1.969570 0.000000 
#    z 0.000000 0.000000 1.840990 
# 
# From -- ./inp_files/7338.got.cif
#   From: 2010.05.17/outbox.cif.g08.bks.cpg/sg62_4_cif.got.tgz:7338.got - 2010.06.03 15:25:27.
