data_PCOD9467691
_publ_section_title
;
Structure prediction by ZEFSAII (Michael W. Deem and Ramdas Pophale) SiO2 
 PCOD9467691
Probable space group: P N M A
;
_chemical_formula_sum "Si O2"
_cell_formula_units_Z 40
_cell_length_a 9.221901
_cell_length_b 24.099058
_cell_length_c 8.692246
_cell_angle_alpha 90.000000
_cell_angle_beta 90.000000
_cell_angle_gamma 90.000000
_cell_volume 1931.757163
_symmetry_space_group_name_H-M "P N M A"
_symmetry_group_IT_number 62
_symmetry_cell_setting 'orthorhombic'
loop_
_space_group_symop_operation_xyz
x,y,z
1/2-x,-y,1/2+z
1/2+x,1/2-y,1/2-z
-x,1/2+y,-z
-x,-y,-z
1/2+x,y,1/2-z
1/2-x,1/2+y,1/2+z
x,1/2-y,z
loop_
_atom_site_type_symbol
_atom_site_label
_atom_site_fract_x
_atom_site_fract_y
_atom_site_fract_z
Si Si1 0.888495 0.956990 0.932009
Si Si2 0.031895 0.151443 0.908174
Si Si3 0.449744 0.750000 0.911584
Si Si4 0.697260 0.250000 0.425593
Si Si5 0.854830 0.976217 0.571919
Si Si6 0.809887 0.643829 0.414203
O O1 0.862298 0.966985 0.753463
O O2 0.949437 0.897280 0.968713
O O3 0.749977 0.972990 0.030989
O O4 0.000000 0.000000 0.000000
O O5 0.102805 0.136297 0.744793
O O6 0.859093 0.161474 0.891043
O O7 0.131896 0.199234 0.978112
O O8 0.626878 0.750000 0.911208
O O9 0.379293 0.750000 0.741604
O O10 0.390143 0.805920 0.995070
O O11 0.813562 0.916423 0.498023
O O12 0.000000 0.000000 0.500000
#
# Coordination Sequence:
#
# PCOD9467691 Si02
#       6
#     8   8   4   4   8   8
#     4  12  25  47  68 106 142 189 240 296 360 436
#     4  12  26  46  74 102 147 184 245 296 365 429
#     4  12  27  48  75 104 144 184 244 292 369 422
#     4  12  27  48  75 106 140 190 236 304 355 434
#     4  12  27  43  74 102 146 189 241 297 364 432
#     4  12  26  47  72 106 141 191 238 302 360 434
#
# _framework density 20.706536
#
# number of rings (size 3 to 8) (size 9 to 14) (size 15 to 20)
#    0.000    0.000    2.000    8.400    5.600    0.000 
#    0.000    0.000    0.000    0.000    0.000    0.000 
#    0.000    0.000    0.000    0.000    0.000    0.000 
#
# Total GULP energy -223565.662105 kJ/mol
# GULP energy per Si atom -5589.141553 kJ/mol
# Density = 2.065941 g / cm^3
# Si number density = 20.706536 Si / 1000 Ang^3
#
#
#
# Elastic Constant Matrix: (Units=GPa)
#
#
# Indices 1 2 3 4 5 6 
#
# 1 183.9912 16.3199 24.4490 0.0000 0.0000 0.0000
# 2 16.3199 75.0749 7.1386 0.0000 0.0000 0.0000
# 3 24.4490 7.1386 149.0604 0.0000 0.0000 0.0000
# 4 0.0000 0.0000 0.0000 42.0032 0.0000 0.0000
# 5 0.0000 0.0000 0.0000 0.0000 33.1120 0.0000
# 6 0.0000 0.0000 0.0000 0.0000 0.0000 35.1539
#
#
#
# Elastic Compliance Matrix: (Units=1/GPa)
#
#
# Indices 1 2 3 4 5 6 
#
# 1 0.005653 -0.001146 -0.000872 0.000000 0.000000 0.000000
# 2 -0.001146 0.013613 -0.000464 0.000000 0.000000 0.000000
# 3 -0.000872 -0.000464 0.006874 0.000000 0.000000 0.000000
# 4 0.000000 0.000000 0.000000 0.023808 0.000000 0.000000
# 5 0.000000 0.000000 0.000000 0.000000 0.030201 0.000000
# 6 0.000000 0.000000 0.000000 0.000000 0.000000 0.028446
#
#
# Mechanical properties :
#
#
# Convention : Reuss Voigt Hill
#
# Bulk Modulus (GPa) = 47.22418 55.99350 51.60884
# Shear Modulus (GPa) = 41.45349 46.06843 43.76096
#
# Velocity S-wave (km/s) = 4.47917 4.72192 4.60215
# Velocity P-wave (km/s) = 7.04319 7.53850 7.29505
#
# Compressibility (1/GPa) = 0.02117559
#
# Stress axis : x y z
#
# Youngs Moduli (GPa) = 176.91028 73.45795 145.47616
#
# Poissons Ratio (x) = 0.08417 0.12689
# Poissons Ratio (y) = 0.20271 0.06750
# Poissons Ratio (z) = 0.15431 0.03409
#
# Static dielectric constant tensor:
#      x y z
#    x 1.669990 0.000000 0.000000 
#    y 0.000000 1.714330 0.000000 
#    z 0.000000 0.000000 1.709490 
# 
# From -- ./inp_files/4325.got.cif
#   From: 2010.05.17/outbox.cif.g08.bks.cpg/sg62_3_cif.got.tgz:4325.got - 2010.06.03 15:25:27.
