data_PCOD9467846
_publ_section_title
;
Structure prediction by ZEFSAII (Michael W. Deem and Ramdas Pophale) SiO2 
 PCOD9467846
Probable space group: P N M A
;
_chemical_formula_sum "Si O2"
_cell_formula_units_Z 48
_cell_length_a 18.000000
_cell_length_b 9.000000
_cell_length_c 15.000000
_cell_angle_alpha 90.000000
_cell_angle_beta 90.000000
_cell_angle_gamma 90.000000
_cell_volume 2430.000000
_symmetry_space_group_name_H-M "P N M A"
_symmetry_group_IT_number 62
_symmetry_cell_setting 'orthorhombic'
loop_
_space_group_symop_operation_xyz
x,y,z
1/2-x,-y,1/2+z
1/2+x,1/2-y,1/2-z
-x,1/2+y,-z
-x,-y,-z
1/2+x,y,1/2-z
1/2-x,1/2+y,1/2+z
x,1/2-y,z
loop_
_atom_site_type_symbol
_atom_site_label
_atom_site_fract_x
_atom_site_fract_y
_atom_site_fract_z
Si Si1 0.357131 0.071111 0.871009
Si Si2 0.718071 0.426244 0.751113
Si Si3 0.061411 0.079985 0.228423
Si Si4 0.403429 0.418962 0.364473
Si Si5 0.620632 0.423406 0.459157
Si Si6 0.205193 0.577164 0.556919
O O1 0.356741 0.250000 0.874255
O O2 0.291509 0.022761 0.802830
O O3 0.428323 0.010922 0.818776
O O4 0.342178 0.019359 0.972303
O O5 0.722995 0.250000 0.761251
O O6 0.652441 0.472671 0.685355
O O7 0.703733 0.496300 0.848112
O O8 0.086053 0.250000 0.244476
O O9 0.105697 0.021557 0.141283
O O10 0.977976 0.081913 0.192856
O O11 0.374339 0.250000 0.368662
O O12 0.416197 0.479667 0.463919
O O13 0.596053 0.250000 0.463115
O O14 0.708992 0.427076 0.474624
O O15 0.185373 0.750000 0.572319
#
# Coordination Sequence:
#
# PCOD9467846 Si02
#       6
#     8   8   8   8   8   8
#     4  10  21  37  58  84 114 148 190 234 281 338
#     4  11  22  38  59  86 115 149 193 235 280 339
#     4  10  22  38  57  84 117 153 192 233 285 340
#     4  11  23  37  56  85 118 154 193 232 281 343
#     4  10  19  35  58  85 120 152 182 234 289 336
#     4  10  20  37  59  86 117 148 185 236 287 332
#
# _framework density 19.753086
#
# number of rings (size 3 to 8) (size 9 to 14) (size 15 to 20)
#    0.000    1.667    3.333    1.500    0.000    4.000 
#    0.000    0.833    0.000    0.000    0.000    0.000 
#    0.000    0.000    0.000    0.000    0.000    0.000 
#
# Total GULP energy -267797.523694 kJ/mol
# GULP energy per Si atom -5579.115077 kJ/mol
# Density = 1.970813 g / cm^3
# Si number density = 19.753086 Si / 1000 Ang^3
#
#
#
# Elastic Constant Matrix: (Units=GPa)
#
#
# Indices 1 2 3 4 5 6 
#
# 1 9.1214 -8.2619 -12.4410 0.0000 0.0000 0.0000
# 2 -8.2619 17.8350 21.6647 0.0000 0.0000 0.0000
# 3 -12.4410 21.6647 94.6829 0.0000 0.0000 0.0000
# 4 0.0000 0.0000 0.0000 34.5170 0.0000 0.0000
# 5 0.0000 0.0000 0.0000 0.0000 31.4883 0.0000
# 6 0.0000 0.0000 0.0000 0.0000 0.0000 10.9387
#
#
#
# Elastic Compliance Matrix: (Units=1/GPa)
#
#
# Indices 1 2 3 4 5 6 
#
# 1 0.191958 0.080720 0.006753 0.000000 0.000000 0.000000
# 2 0.080720 0.111596 -0.014928 0.000000 0.000000 0.000000
# 3 0.006753 -0.014928 0.014865 0.000000 0.000000 0.000000
# 4 0.000000 0.000000 0.000000 0.028971 0.000000 0.000000
# 5 0.000000 0.000000 0.000000 0.000000 0.031758 0.000000
# 6 0.000000 0.000000 0.000000 0.000000 0.000000 0.091418
#
#
# Mechanical properties :
#
#
# Convention : Reuss Voigt Hill
#
# Bulk Modulus (GPa) = 2.15746 13.72918 7.94332
# Shear Modulus (GPa) = 10.41710 23.43397 16.92553
#
# Velocity S-wave (km/s) = 2.29894 3.44807 2.93038
# Velocity P-wave (km/s) = 2.85331 4.77679 3.93441
#
# Compressibility (1/GPa) = 0.46350882
#
# Stress axis : x y z
#
# Youngs Moduli (GPa) = 5.20947 8.96087 67.27365
#
# Poissons Ratio (x) = -0.72332 -0.45429
# Poissons Ratio (y) = -0.42051 1.00428
# Poissons Ratio (z) = -0.03518 0.13377
#
# Static dielectric constant tensor:
#      x y z
#    x 1.754690 0.000000 0.000000 
#    y 0.000000 1.677190 0.000000 
#    z 0.000000 0.000000 1.688270 
# 
# From -- ./inp_files/19520.got.cif
#   From: 2010.05.17/outbox.ucp.g08.bks.cvg/sg62_10_cif.got.tgz:19520.got - 2010.06.11 16:29:25.
