data_PCOD9467637
_publ_section_title
;
Structure prediction by ZEFSAII (Michael W. Deem and Ramdas Pophale) SiO2 
 PCOD9467637
Probable space group: P N M A
;
_chemical_formula_sum "Si O2"
_cell_formula_units_Z 32
_cell_length_a 28.469990
_cell_length_b 5.235885
_cell_length_c 10.695868
_cell_angle_alpha 90.000000
_cell_angle_beta 90.000000
_cell_angle_gamma 90.000000
_cell_volume 1594.385912
_symmetry_space_group_name_H-M "P N M A"
_symmetry_group_IT_number 62
_symmetry_cell_setting 'orthorhombic'
loop_
_space_group_symop_operation_xyz
x,y,z
1/2-x,-y,1/2+z
1/2+x,1/2-y,1/2-z
-x,1/2+y,-z
-x,-y,-z
1/2+x,y,1/2-z
1/2-x,1/2+y,1/2+z
x,1/2-y,z
loop_
_atom_site_type_symbol
_atom_site_label
_atom_site_fract_x
_atom_site_fract_y
_atom_site_fract_z
Si Si1 0.189938 0.750000 0.339723
Si Si2 0.552688 0.250000 0.264609
Si Si3 0.826197 0.250000 0.953953
Si Si4 0.449686 0.250000 0.290368
Si Si5 0.889080 0.750000 0.274663
Si Si6 0.362790 0.750000 0.934544
Si Si7 0.065949 0.750000 0.065277
Si Si8 0.297824 0.750000 0.402672
O O1 0.176167 0.750000 0.194765
O O2 0.167880 0.500080 0.403588
O O3 0.246139 0.750000 0.345414
O O4 0.499048 0.250000 0.217270
O O5 0.591755 0.250000 0.156323
O O6 0.559365 0.501080 0.349919
O O7 0.881050 0.250000 0.986281
O O8 0.803444 0.500805 0.011919
O O9 0.419474 0.500896 0.260504
O O10 0.463590 0.250000 0.437781
O O11 0.877987 0.750000 0.421560
O O12 0.840179 0.750000 0.197639
#
# Coordination Sequence:
#
# PCOD9467637 Si02
#       8
#     4   4   4   4   4   4   4   4
#     4  12  27  44  70  99 130 173 222 274 329 391
#     4  12  24  42  70 100 132 176 222 276 334 395
#     4  12  23  46  72  97 133 173 215 281 328 385
#     4  12  25  42  69  99 134 176 222 273 336 395
#     4  12  26  45  64  96 137 177 219 273 327 397
#     4  12  26  47  66  97 137 176 223 275 327 395
#     4  12  21  43  67 101 135 165 220 280 338 381
#     4  12  26  43  68  97 130 172 219 270 331 393
#
# _framework density 20.070425
#
# number of rings (size 3 to 8) (size 9 to 14) (size 15 to 20)
#    0.000    0.000    5.000    5.250    3.500    1.000 
#    0.000    0.000    0.000    0.000    0.000    0.000 
#    0.000    0.000    0.000    0.000    0.000    0.000 
#
# Total GULP energy -179171.724409 kJ/mol
# GULP energy per Si atom -5599.116388 kJ/mol
# Density = 2.002474 g / cm^3
# Si number density = 20.070425 Si / 1000 Ang^3
#
#
#
# Elastic Constant Matrix: (Units=GPa)
#
#
# Indices 1 2 3 4 5 6 
#
# 1 117.4255 51.2135 9.0332 0.0000 0.0000 0.0000
# 2 51.2135 197.6605 44.3735 0.0000 0.0000 0.0000
# 3 9.0332 44.3735 78.9309 0.0000 0.0000 0.0000
# 4 0.0000 0.0000 0.0000 15.1514 0.0000 0.0000
# 5 0.0000 0.0000 0.0000 0.0000 14.0630 0.0000
# 6 0.0000 0.0000 0.0000 0.0000 0.0000 16.7912
#
#
#
# Elastic Compliance Matrix: (Units=1/GPa)
#
#
# Indices 1 2 3 4 5 6 
#
# 1 0.009609 -0.002567 0.000343 0.000000 0.000000 0.000000
# 2 -0.002567 0.006476 -0.003347 0.000000 0.000000 0.000000
# 3 0.000343 -0.003347 0.014511 0.000000 0.000000 0.000000
# 4 0.000000 0.000000 0.000000 0.066000 0.000000 0.000000
# 5 0.000000 0.000000 0.000000 0.000000 0.071108 0.000000
# 6 0.000000 0.000000 0.000000 0.000000 0.000000 0.059555
#
#
# Mechanical properties :
#
#
# Convention : Reuss Voigt Hill
#
# Bulk Modulus (GPa) = 51.39865 67.02861 59.21363
# Shear Modulus (GPa) = 20.41772 28.49424 24.45598
#
# Velocity S-wave (km/s) = 3.19298 3.77200 3.49450
# Velocity P-wave (km/s) = 6.26564 7.24153 6.77119
#
# Compressibility (1/GPa) = 0.01945576
#
# Stress axis : x y z
#
# Youngs Moduli (GPa) = 104.06810 154.42744 68.91105
#
# Poissons Ratio (x) = 0.39638 -0.02366
# Poissons Ratio (y) = 0.26712 0.23062
# Poissons Ratio (z) = -0.03572 0.51682
#
# Static dielectric constant tensor:
#      x y z
#    x 1.757420 0.000000 0.000000 
#    y 0.000000 1.622550 0.000000 
#    z 0.000000 0.000000 1.669550 
# 
# From -- ./inp_files/9636.got.cif
#   From: 2010.05.17/outbox.cif.g08.bks.cpg/sg62_5_cif.got.tgz:9636.got - 2010.06.03 15:25:27.
