data_PCOD9467119
_publ_section_title
;
Structure prediction by ZEFSAII (Michael W. Deem and Ramdas Pophale) SiO2 
 PCOD9467119
Probable space group: P N M A
;
_chemical_formula_sum "Si O2"
_cell_formula_units_Z 40
_cell_length_a 20.369140
_cell_length_b 15.663323
_cell_length_c 4.863519
_cell_angle_alpha 90.000000
_cell_angle_beta 90.000000
_cell_angle_gamma 90.000000
_cell_volume 1551.698048
_symmetry_space_group_name_H-M "P N M A"
_symmetry_group_IT_number 62
_symmetry_cell_setting 'orthorhombic'
loop_
_space_group_symop_operation_xyz
x,y,z
1/2-x,-y,1/2+z
1/2+x,1/2-y,1/2-z
-x,1/2+y,-z
-x,-y,-z
1/2+x,y,1/2-z
1/2-x,1/2+y,1/2+z
x,1/2-y,z
loop_
_atom_site_type_symbol
_atom_site_label
_atom_site_fract_x
_atom_site_fract_y
_atom_site_fract_z
Si Si1 0.142268 0.250000 0.160348
Si Si2 0.410114 0.900571 0.015298
Si Si3 0.794389 0.496514 0.251958
Si Si4 0.654377 0.844255 0.102805
Si Si5 0.770176 0.750000 0.344670
Si Si6 0.466917 0.435679 0.716792
O O1 0.105773 0.165939 0.274513
O O2 0.209755 0.250000 0.339235
O O3 0.164208 0.250000 0.844600
O O4 0.344563 0.927113 0.177125
O O5 0.436423 0.992153 0.915400
O O6 0.473842 0.873964 0.188657
O O7 0.771616 0.500161 0.938371
O O8 0.829414 0.410482 0.360527
O O9 0.635181 0.750000 0.995375
O O10 0.722630 0.827251 0.261356
O O11 0.597508 0.877208 0.307457
O O12 0.500000 0.500000 0.500000
#
# Coordination Sequence:
#
# PCOD9467119 Si02
#       6
#     4   8   8   8   4   8
#     4  12  24  43  71 104 146 174 234 288 363 421
#     4  10  25  41  67 101 137 182 232 288 347 424
#     4  11  23  41  71 100 139 181 221 284 356 417
#     4   9  22  44  68  99 138 181 237 285 350 420
#     4  10  24  43  65 108 136 178 226 290 345 429
#     4  10  23  46  69  98 138 187 243 291 351 424
#
# _framework density 25.778209
#
# number of rings (size 3 to 8) (size 9 to 14) (size 15 to 20)
#    0.600    1.200    0.000    2.400    9.800    0.000 
#    9.000    0.000    0.000    0.000    0.000    0.000 
#    0.000    0.000    0.000    0.000    0.000    0.000 
#
# Total GULP energy -223491.997111 kJ/mol
# GULP energy per Si atom -5587.299928 kJ/mol
# Density = 2.571954 g / cm^3
# Si number density = 25.778209 Si / 1000 Ang^3
#
#
#
# Elastic Constant Matrix: (Units=GPa)
#
#
# Indices 1 2 3 4 5 6 
#
# 1 165.0041 40.0778 13.9057 0.0000 0.0000 0.0000
# 2 40.0778 132.5702 8.8544 0.0000 0.0000 0.0000
# 3 13.9057 8.8544 49.5864 0.0000 0.0000 0.0000
# 4 0.0000 0.0000 0.0000 36.3103 0.0000 0.0000
# 5 0.0000 0.0000 0.0000 0.0000 30.9111 0.0000
# 6 0.0000 0.0000 0.0000 0.0000 0.0000 49.7763
#
#
#
# Elastic Compliance Matrix: (Units=1/GPa)
#
#
# Indices 1 2 3 4 5 6 
#
# 1 0.006653 -0.001909 -0.001525 0.000000 0.000000 0.000000
# 2 -0.001909 0.008182 -0.000926 0.000000 0.000000 0.000000
# 3 -0.001525 -0.000926 0.020760 0.000000 0.000000 0.000000
# 4 0.000000 0.000000 0.000000 0.027540 0.000000 0.000000
# 5 0.000000 0.000000 0.000000 0.000000 0.032351 0.000000
# 6 0.000000 0.000000 0.000000 0.000000 0.000000 0.020090
#
#
# Mechanical properties :
#
#
# Convention : Reuss Voigt Hill
#
# Bulk Modulus (GPa) = 37.20893 52.53738 44.87316
# Shear Modulus (GPa) = 37.52246 42.35440 39.93843
#
# Velocity S-wave (km/s) = 3.81936 4.05783 3.94040
# Velocity P-wave (km/s) = 5.82371 6.50995 6.17637
#
# Compressibility (1/GPa) = 0.02687527
#
# Stress axis : x y z
#
# Youngs Moduli (GPa) = 150.31454 122.21618 48.17026
#
# Poissons Ratio (x) = 0.23336 0.07345
# Poissons Ratio (y) = 0.28701 0.04459
# Poissons Ratio (z) = 0.22918 0.11313
#
# Static dielectric constant tensor:
#      x y z
#    x 2.120000 0.000000 0.000000 
#    y 0.000000 2.095070 0.000000 
#    z 0.000000 0.000000 2.075050 
# 
# From -- ./inp_files/1576.got.cif
#   From: 2010.05.17/outbox.cif.g08.bks.cpg/sg62_1_cif.got.tgz:1576.got - 2010.06.03 15:25:27.
