data_PCOD9467988
_publ_section_title
;
Structure prediction by ZEFSAII (Michael W. Deem and Ramdas Pophale) SiO2 
 PCOD9467988
Probable space group: P N M A
;
_chemical_formula_sum "Si O2"
_cell_formula_units_Z 64
_cell_length_a 24.000000
_cell_length_b 9.000000
_cell_length_c 15.000000
_cell_angle_alpha 90.000000
_cell_angle_beta 90.000000
_cell_angle_gamma 90.000000
_cell_volume 3240.000000
_symmetry_space_group_name_H-M "P N M A"
_symmetry_group_IT_number 62
_symmetry_cell_setting 'orthorhombic'
loop_
_space_group_symop_operation_xyz
x,y,z
1/2-x,-y,1/2+z
1/2+x,1/2-y,1/2-z
-x,1/2+y,-z
-x,-y,-z
1/2+x,y,1/2-z
1/2-x,1/2+y,1/2+z
x,1/2-y,z
loop_
_atom_site_type_symbol
_atom_site_label
_atom_site_fract_x
_atom_site_fract_y
_atom_site_fract_z
Si Si1 0.003133 0.427524 0.672788
Si Si2 0.016840 0.927328 0.128509
Si Si3 0.791439 0.928634 0.055138
Si Si4 0.298715 0.929306 0.815547
Si Si5 0.374323 0.572363 0.128042
Si Si6 0.589298 0.927071 0.536011
Si Si7 0.742995 0.572077 0.862861
Si Si8 0.094109 0.072556 0.424494
O O1 0.003828 0.250000 0.659256
O O2 0.067765 0.475968 0.673651
O O3 0.975787 0.461810 0.768076
O O4 0.964672 0.499463 0.598067
O O5 0.005750 0.750000 0.120144
O O6 0.069305 0.960947 0.065403
O O7 0.962895 0.014641 0.093403
O O8 0.792404 0.750000 0.061346
O O9 0.750986 0.997345 0.128734
O O10 0.853808 0.991553 0.060647
O O11 0.765203 0.973379 0.959596
O O12 0.295659 0.750000 0.825576
O O13 0.287521 0.967418 0.713033
O O14 0.357923 0.977187 0.855683
O O15 0.368608 0.750000 0.139287
O O16 0.317260 0.497003 0.157704
O O17 0.384049 0.539481 0.023442
O O18 0.595664 0.750000 0.545654
O O19 0.736889 0.750000 0.863225
O O20 0.087755 0.250000 0.417938
#
# Coordination Sequence:
#
# PCOD9467988 Si02
#       8
#     8   8   8   8   8   8   8   8
#     4  10  22  37  58  86 116 147 190 242 290 343
#     4   9  20  39  57  83 118 152 193 242 289 342
#     4  11  23  39  61  89 118 153 195 243 295 350
#     4  10  22  41  61  86 121 155 196 244 292 350
#     4  10  21  39  60  84 115 152 190 238 293 344
#     4  10  21  37  59  83 115 156 193 235 291 346
#     4  10  23  40  60  87 118 154 196 242 290 347
#     4  10  21  38  60  84 114 152 192 236 290 349
#
# _framework density 19.753086
#
# number of rings (size 3 to 8) (size 9 to 14) (size 15 to 20)
#    0.000    2.000    1.250    1.125    3.500    3.500 
#    0.000    0.000    0.000    0.000    0.000    0.000 
#    0.000    0.000    0.000    0.000    0.000    0.000 
#
# Total GULP energy -357447.936888 kJ/mol
# GULP energy per Si atom -5585.124014 kJ/mol
# Density = 1.970813 g / cm^3
# Si number density = 19.753086 Si / 1000 Ang^3
#
#
#
# Elastic Constant Matrix: (Units=GPa)
#
#
# Indices 1 2 3 4 5 6 
#
# 1 45.8243 0.0103 -14.9359 0.0000 0.0000 0.0000
# 2 0.0103 1.9170 8.5883 0.0000 0.0000 0.0000
# 3 -14.9359 8.5883 40.5310 0.0000 0.0000 0.0000
# 4 0.0000 0.0000 0.0000 11.2457 0.0000 0.0000
# 5 0.0000 0.0000 0.0000 0.0000 416.7514 0.0000
# 6 0.0000 0.0000 0.0000 0.0000 0.0000 28.9334
#
#
#
# Elastic Compliance Matrix: (Units=1/GPa)
#
#
# Indices 1 2 3 4 5 6 
#
# 1 -0.015774 0.515257 -0.114993 0.000000 0.000000 0.000000
# 2 0.515257 -6.543065 1.576319 0.000000 0.000000 0.000000
# 3 -0.114993 1.576319 -0.351718 0.000000 0.000000 0.000000
# 4 0.000000 0.000000 0.000000 0.088923 0.000000 0.000000
# 5 0.000000 0.000000 0.000000 0.000000 0.002400 0.000000
# 6 0.000000 0.000000 0.000000 0.000000 0.000000 0.034562
#
#
# Mechanical properties :
#
#
# Convention : Reuss Voigt Hill
#
# Bulk Modulus (GPa) = -0.33814 8.39975 4.03081
# Shear Modulus (GPa) = -0.42649 97.69339 48.63345
#
# Velocity S-wave (km/s) = -0.46517 7.04022 4.96731
# Velocity P-wave (km/s) = 0.67828 8.38736 5.91133
#
# Compressibility (1/GPa) = -2.95739093
#
# Stress axis : x y z
#
# Youngs Moduli (GPa) = -63.39394 -0.15283 -2.84319
#
# Poissons Ratio (x) = 0.07875 -0.32695
# Poissons Ratio (y) = 32.66419 4.48177
# Poissons Ratio (z) = -7.28989 0.24091
#
# Static dielectric constant tensor:
#      x y z
#    x 1.652230 0.000000 0.000000 
#    y 0.000000 1.659070 0.000000 
#    z 0.000000 0.000000 1.720420 
# 
# From -- ./inp_files/20838.got.cif
#   From: 2010.05.17/outbox.ucp.g08.bks.cvg/sg62_11_cif.got.tgz:20838.got - 2010.06.11 16:29:25.
