data_PCOD9467911
_publ_section_title
;
Structure prediction by ZEFSAII (Michael W. Deem and Ramdas Pophale) SiO2 
 PCOD9467911
Probable space group: P N M A
;
_chemical_formula_sum "Si O2"
_cell_formula_units_Z 48
_cell_length_a 15.000000
_cell_length_b 9.000000
_cell_length_c 18.000000
_cell_angle_alpha 90.000000
_cell_angle_beta 90.000000
_cell_angle_gamma 90.000000
_cell_volume 2430.000000
_symmetry_space_group_name_H-M "P N M A"
_symmetry_group_IT_number 62
_symmetry_cell_setting 'orthorhombic'
loop_
_space_group_symop_operation_xyz
x,y,z
1/2-x,-y,1/2+z
1/2+x,1/2-y,1/2-z
-x,1/2+y,-z
-x,-y,-z
1/2+x,y,1/2-z
1/2-x,1/2+y,1/2+z
x,1/2-y,z
loop_
_atom_site_type_symbol
_atom_site_label
_atom_site_fract_x
_atom_site_fract_y
_atom_site_fract_z
Si Si1 0.685948 0.425178 0.663850
Si Si2 0.342324 0.418737 0.183956
Si Si3 0.749490 0.416475 0.036029
Si Si4 0.659808 0.415773 0.407551
Si Si5 0.433947 0.918134 0.054791
Si Si6 0.005095 0.075008 0.919665
O O1 0.701003 0.250000 0.656843
O O2 0.675577 0.475648 0.747353
O O3 0.759033 0.517011 0.617875
O O4 0.592457 0.467410 0.625313
O O5 0.365329 0.250000 0.205886
O O6 0.248986 0.414252 0.140048
O O7 0.414697 0.488069 0.128538
O O8 0.787563 0.250000 0.038252
O O9 0.810046 0.526725 0.988030
O O10 0.658071 0.410050 0.991131
O O11 0.623439 0.250000 0.412621
O O12 0.583889 0.522991 0.377690
O O13 0.462482 0.750000 0.072261
O O14 0.500000 0.000000 0.000000
O O15 0.004751 0.250000 0.928647
O O16 0.000000 0.000000 0.000000
#
# Coordination Sequence:
#
# PCOD9467911 Si02
#       6
#     8   8   8   8   8   8
#     4  11  23  38  57  85 119 153 192 238 290 344
#     4  10  22  40  61  84 115 154 193 240 293 342
#     4  10  20  35  59  85 112 149 190 232 282 342
#     4  10  20  36  58  84 112 148 191 231 281 342
#     4  10  21  39  63  89 115 150 197 243 289 344
#     4  11  22  35  57  87 118 152 192 236 284 342
#
# _framework density 19.753086
#
# number of rings (size 3 to 8) (size 9 to 14) (size 15 to 20)
#    0.000    1.667    1.667    3.000    0.000    6.000 
#    3.000    0.000    0.000    0.000    0.000    0.000 
#    0.000    0.000    0.000    0.000    0.000    0.000 
#
# Total GULP energy -267674.640333 kJ/mol
# GULP energy per Si atom -5576.555007 kJ/mol
# Density = 1.970813 g / cm^3
# Si number density = 19.753086 Si / 1000 Ang^3
#
#
#
# Elastic Constant Matrix: (Units=GPa)
#
#
# Indices 1 2 3 4 5 6 
#
# 1 13.0632 4.9728 -4.1611 0.0000 0.0000 0.0000
# 2 4.9728 16.3994 10.1541 0.0000 0.0000 0.0000
# 3 -4.1611 10.1541 67.7156 0.0000 0.0000 0.0000
# 4 0.0000 0.0000 0.0000 27.0951 0.0000 0.0000
# 5 0.0000 0.0000 0.0000 0.0000 17.8783 0.0000
# 6 0.0000 0.0000 0.0000 0.0000 0.0000 25.2736
#
#
#
# Elastic Compliance Matrix: (Units=1/GPa)
#
#
# Indices 1 2 3 4 5 6 
#
# 1 0.093441 -0.035153 0.011013 0.000000 0.000000 0.000000
# 2 -0.035153 0.080443 -0.014223 0.000000 0.000000 0.000000
# 3 0.011013 -0.014223 0.017577 0.000000 0.000000 0.000000
# 4 0.000000 0.000000 0.000000 0.036907 0.000000 0.000000
# 5 0.000000 0.000000 0.000000 0.000000 0.055934 0.000000
# 6 0.000000 0.000000 0.000000 0.000000 0.000000 0.039567
#
#
# Mechanical properties :
#
#
# Convention : Reuss Voigt Hill
#
# Bulk Modulus (GPa) = 8.71564 13.23442 10.97503
# Shear Modulus (GPa) = 11.39368 19.79690 15.59529
#
# Velocity S-wave (km/s) = 2.40428 3.16922 2.81287
# Velocity P-wave (km/s) = 3.48271 4.48402 4.01470
#
# Compressibility (1/GPa) = 0.11473626
#
# Stress axis : x y z
#
# Youngs Moduli (GPa) = 10.70195 12.43109 56.89212
#
# Poissons Ratio (x) = 0.43699 -0.62656
# Poissons Ratio (y) = 0.37621 0.80916
# Poissons Ratio (z) = -0.11786 0.17680
#
# Static dielectric constant tensor:
#      x y z
#    x 1.797200 0.000000 0.000000 
#    y 0.000000 1.689550 0.000000 
#    z 0.000000 0.000000 1.883950 
# 
# From -- ./inp_files/23678.got.cif
#   From: 2010.05.17/outbox.ucp.g08.bks.cvg/sg62_12_cif.got.tgz:23678.got - 2010.06.11 16:29:25.
