data_PCOD9467199
_publ_section_title
;
Structure prediction by ZEFSAII (Michael W. Deem and Ramdas Pophale) SiO2 
 PCOD9467199
Probable space group: P N M A
;
_chemical_formula_sum "Si O2"
_cell_formula_units_Z 32
_cell_length_a 9.693438
_cell_length_b 27.166281
_cell_length_c 4.918811
_cell_angle_alpha 90.000000
_cell_angle_beta 90.000000
_cell_angle_gamma 90.000000
_cell_volume 1295.293425
_symmetry_space_group_name_H-M "P N M A"
_symmetry_group_IT_number 62
_symmetry_cell_setting 'orthorhombic'
loop_
_space_group_symop_operation_xyz
x,y,z
1/2-x,-y,1/2+z
1/2+x,1/2-y,1/2-z
-x,1/2+y,-z
-x,-y,-z
1/2+x,y,1/2-z
1/2-x,1/2+y,1/2+z
x,1/2-y,z
loop_
_atom_site_type_symbol
_atom_site_label
_atom_site_fract_x
_atom_site_fract_y
_atom_site_fract_z
Si Si1 0.658222 0.482181 0.448166
Si Si2 0.467975 0.308076 0.261297
Si Si3 0.392559 0.134129 0.786496
Si Si4 0.141934 0.391109 0.427979
O O1 0.500000 0.500000 0.500000
O O2 0.505562 0.404436 0.896353
O O3 0.746886 0.509291 0.211394
O O4 0.651854 0.426590 0.328060
O O5 0.465913 0.250000 0.243882
O O6 0.453925 0.327593 0.566713
O O7 0.604190 0.334626 0.144152
O O8 0.358475 0.334117 0.055395
O O9 0.273177 0.109249 0.617445
#
# Coordination Sequence:
#
# PCOD9467199 Si02
#       4
#     8   8   8   8
#     4  12  31  56  89 123 165 214 286 351 426 504
#     4  10  24  44  75 114 160 211 270 327 406 495
#     4  10  25  46  75 109 160 207 266 328 409 483
#     4  10  28  50  79 116 163 214 268 343 415 484
#
# _framework density 24.704825
#
# number of rings (size 3 to 8) (size 9 to 14) (size 15 to 20)
#    1.500    0.000    0.000    1.500   10.500    4.000 
#    0.000    0.000    0.000    0.000    0.000    0.000 
#    0.000    0.000    0.000    0.000    0.000    0.000 
#
# Total GULP energy -178848.273339 kJ/mol
# GULP energy per Si atom -5589.008542 kJ/mol
# Density = 2.464860 g / cm^3
# Si number density = 24.704825 Si / 1000 Ang^3
#
#
#
# Elastic Constant Matrix: (Units=GPa)
#
#
# Indices 1 2 3 4 5 6 
#
# 1 145.3680 16.7481 61.5391 0.0000 0.0000 0.0000
# 2 16.7481 124.1602 38.4624 0.0000 0.0000 0.0000
# 3 61.5391 38.4624 161.8481 0.0000 0.0000 0.0000
# 4 0.0000 0.0000 0.0000 46.2412 0.0000 0.0000
# 5 0.0000 0.0000 0.0000 0.0000 59.6231 0.0000
# 6 0.0000 0.0000 0.0000 0.0000 0.0000 20.4720
#
#
#
# Elastic Compliance Matrix: (Units=1/GPa)
#
#
# Indices 1 2 3 4 5 6 
#
# 1 0.008201 -0.000151 -0.003082 0.000000 0.000000 0.000000
# 2 -0.000151 0.008697 -0.002009 0.000000 0.000000 0.000000
# 3 -0.003082 -0.002009 0.007828 0.000000 0.000000 0.000000
# 4 0.000000 0.000000 0.000000 0.021626 0.000000 0.000000
# 5 0.000000 0.000000 0.000000 0.000000 0.016772 0.000000
# 6 0.000000 0.000000 0.000000 0.000000 0.000000 0.048847
#
#
# Mechanical properties :
#
#
# Convention : Reuss Voigt Hill
#
# Bulk Modulus (GPa) = 70.22279 73.87507 72.04893
# Shear Modulus (GPa) = 39.30683 46.24237 42.77460
#
# Velocity S-wave (km/s) = 3.99314 4.33112 4.16556
# Velocity P-wave (km/s) = 7.05313 7.41481 7.23623
#
# Compressibility (1/GPa) = 0.01424039
#
# Stress axis : x y z
#
# Youngs Moduli (GPa) = 121.92994 114.98283 127.74436
#
# Poissons Ratio (x) = 0.01741 0.39376
# Poissons Ratio (y) = 0.01846 0.25667
# Poissons Ratio (z) = 0.37584 0.23102
#
# Static dielectric constant tensor:
#      x y z
#    x 2.047310 0.000000 0.000000 
#    y 0.000000 1.961010 0.000000 
#    z 0.000000 0.000000 1.969610 
# 
# From -- ./inp_files/487.got.cif
#   From: 2010.05.17/outbox.cif.g08.bks.cpg/sg62_1_cif.got.tgz:487.got - 2010.06.03 15:25:27.
