data_PCOD9467987
_publ_section_title
;
Structure prediction by ZEFSAII (Michael W. Deem and Ramdas Pophale) SiO2 
 PCOD9467987
Probable space group: P N M A
;
_chemical_formula_sum "Si O2"
_cell_formula_units_Z 56
_cell_length_a 15.000000
_cell_length_b 9.000000
_cell_length_c 21.000000
_cell_angle_alpha 90.000000
_cell_angle_beta 90.000000
_cell_angle_gamma 90.000000
_cell_volume 2835.000000
_symmetry_space_group_name_H-M "P N M A"
_symmetry_group_IT_number 62
_symmetry_cell_setting 'orthorhombic'
loop_
_space_group_symop_operation_xyz
x,y,z
1/2-x,-y,1/2+z
1/2+x,1/2-y,1/2-z
-x,1/2+y,-z
-x,-y,-z
1/2+x,y,1/2-z
1/2-x,1/2+y,1/2+z
x,1/2-y,z
loop_
_atom_site_type_symbol
_atom_site_label
_atom_site_fract_x
_atom_site_fract_y
_atom_site_fract_z
Si Si1 0.505069 0.574280 0.807550
Si Si2 0.746017 0.421129 0.987852
Si Si3 0.966160 0.073799 0.168226
Si Si4 0.545055 0.081547 0.940504
Si Si5 0.694875 0.421085 0.609956
Si Si6 0.323248 0.077343 0.770818
Si Si7 0.652554 0.927840 0.366198
O O1 0.512795 0.750000 0.816873
O O2 0.555831 0.532435 0.741934
O O3 0.531287 0.494190 0.872405
O O4 0.403735 0.528515 0.791238
O O5 0.770668 0.250000 0.003857
O O6 0.749028 0.518590 0.050897
O O7 0.649031 0.416391 0.956963
O O8 0.809219 0.484917 0.932508
O O9 0.979879 0.250000 0.166987
O O10 0.890340 0.023246 0.120359
O O11 0.055818 0.990952 0.148427
O O12 0.510595 0.250000 0.936897
O O13 0.500000 0.000000 0.000000
O O14 0.669386 0.250000 0.599810
O O15 0.749893 0.431102 0.675139
O O16 0.355513 0.250000 0.769036
O O17 0.293024 0.039514 0.698908
O O18 0.650713 0.750000 0.372777
#
# Coordination Sequence:
#
# PCOD9467987 Si02
#       7
#     8   8   8   8   8   8   8
#     4  10  21  37  58  86 118 152 192 237 291 350
#     4  10  23  40  59  84 116 155 194 240 295 348
#     4  10  22  39  59  86 117 151 192 240 293 347
#     4  11  23  38  60  87 121 159 196 240 291 350
#     4  11  23  37  59  87 116 152 195 241 290 349
#     4   9  19  36  60  86 113 148 194 244 290 341
#     4   9  19  39  62  84 111 147 195 245 292 343
#
# _framework density 19.753086
#
# number of rings (size 3 to 8) (size 9 to 14) (size 15 to 20)
#    0.000    2.000    0.000    2.571    2.000    7.429 
#    0.000    0.000    0.000    0.000    0.000    0.000 
#    0.000    0.000    0.000    0.000    0.000    0.000 
#
# Total GULP energy -312396.817677 kJ/mol
# GULP energy per Si atom -5578.514601 kJ/mol
# Density = 1.970813 g / cm^3
# Si number density = 19.753086 Si / 1000 Ang^3
#
#
#
# Elastic Constant Matrix: (Units=GPa)
#
#
# Indices 1 2 3 4 5 6 
#
# 1 5.5517 -5.6855 -39.9924 0.0000 0.0000 0.0000
# 2 -5.6855 22.6678 -4.2513 0.0000 0.0000 0.0000
# 3 -39.9924 -4.2513 -174.9935 0.0000 0.0000 0.0000
# 4 0.0000 0.0000 0.0000 31.6447 0.0000 0.0000
# 5 0.0000 0.0000 0.0000 0.0000 29.8100 0.0000
# 6 0.0000 0.0000 0.0000 0.0000 0.0000 14.6489
#
#
#
# Elastic Compliance Matrix: (Units=1/GPa)
#
#
# Indices 1 2 3 4 5 6 
#
# 1 0.072910 0.015093 -0.017029 0.000000 0.000000 0.000000
# 2 0.015093 0.047040 -0.004592 0.000000 0.000000 0.000000
# 3 -0.017029 -0.004592 -0.001711 0.000000 0.000000 0.000000
# 4 0.000000 0.000000 0.000000 0.031601 0.000000 0.000000
# 5 0.000000 0.000000 0.000000 0.000000 0.033546 0.000000
# 6 0.000000 0.000000 0.000000 0.000000 0.000000 0.068265
#
#
# Mechanical properties :
#
#
# Convention : Reuss Voigt Hill
#
# Bulk Modulus (GPa) = 9.50729 -27.40363 -8.94817
# Shear Modulus (GPa) = 16.67963 8.76440 12.72202
#
# Velocity S-wave (km/s) = 2.90902 2.10870 2.54057
# Velocity P-wave (km/s) = 4.01332 2.82390 2.01647
#
# Compressibility (1/GPa) = 0.10518245
#
# Stress axis : x y z
#
# Youngs Moduli (GPa) = 13.71557 21.25859 -584.41091
#
# Poissons Ratio (x) = -0.32086 -9.95208
# Poissons Ratio (y) = -0.20701 -2.68373
# Poissons Ratio (z) = 0.23357 0.09762
#
# Static dielectric constant tensor:
#      x y z
#    x 1.702930 0.000000 0.000000 
#    y 0.000000 1.813860 0.000000 
#    z 0.000000 0.000000 1.720100 
# 
# From -- ./inp_files/27120.got.cif
#   From: 2010.05.17/outbox.ucp.g08.bks.cvg/sg62_14_cif.got.tgz:27120.got - 2010.06.11 16:29:25.
