data_PCOD9467381
_publ_section_title
;
Structure prediction by ZEFSAII (Michael W. Deem and Ramdas Pophale) SiO2 
 PCOD9467381
Probable space group: P N M A
;
_chemical_formula_sum "Si O2"
_cell_formula_units_Z 64
_cell_length_a 14.206479
_cell_length_b 23.852912
_cell_length_c 9.619902
_cell_angle_alpha 90.000000
_cell_angle_beta 90.000000
_cell_angle_gamma 90.000000
_cell_volume 3259.856686
_symmetry_space_group_name_H-M "P N M A"
_symmetry_group_IT_number 62
_symmetry_cell_setting 'orthorhombic'
loop_
_space_group_symop_operation_xyz
x,y,z
1/2-x,-y,1/2+z
1/2+x,1/2-y,1/2-z
-x,1/2+y,-z
-x,-y,-z
1/2+x,y,1/2-z
1/2-x,1/2+y,1/2+z
x,1/2-y,z
loop_
_atom_site_type_symbol
_atom_site_label
_atom_site_fract_x
_atom_site_fract_y
_atom_site_fract_z
Si Si1 0.437958 0.388662 0.332150
Si Si2 0.260624 0.379480 0.962214
Si Si3 0.654254 0.999035 0.082403
Si Si4 0.945532 0.511571 0.302153
Si Si5 0.445751 0.617544 0.387970
Si Si6 0.445899 0.683904 0.876087
Si Si7 0.443361 0.316580 0.844643
Si Si8 0.233005 0.111878 0.293283
O O1 0.437807 0.448621 0.255019
O O2 0.506851 0.389913 0.462483
O O3 0.476421 0.342688 0.225518
O O4 0.330480 0.377445 0.372826
O O5 0.281232 0.444263 0.922800
O O6 0.159745 0.359312 0.906154
O O7 0.346366 0.343959 0.898766
O O8 0.254807 0.378828 0.130225
O O9 0.697918 0.048895 0.173128
O O10 0.551574 0.981932 0.139899
O O11 0.629503 0.019531 0.926130
O O12 0.934348 0.557249 0.183819
O O13 0.513588 0.654730 0.291736
O O14 0.437625 0.750000 0.853850
O O15 0.349400 0.652556 0.842577
O O16 0.480972 0.673396 0.032322
O O17 0.431640 0.250000 0.826504
#
# Coordination Sequence:
#
# PCOD9467381 Si02
#       8
#     8   8   8   8   8   8   8   8
#     4  12  24  44  67 103 139 178 226 288 339 414
#     4  12  24  44  69 103 136 183 227 278 351 409
#     4  11  22  38  68 100 135 182 229 270 335 422
#     4  11  21  41  68  94 143 182 218 277 347 406
#     4  12  26  42  68 107 140 175 226 291 346 408
#     4  11  24  46  72  96 129 181 236 281 336 406
#     4  11  26  49  73  97 135 185 235 285 347 412
#     4  12  24  42  70 103 140 179 233 280 341 405
#
# _framework density 19.632766
#
# number of rings (size 3 to 8) (size 9 to 14) (size 15 to 20)
#    0.000    0.500    6.250    1.875    0.000    5.000 
#    0.000    1.250    0.000    0.000    0.000    0.000 
#    0.000    0.000    0.000    0.000    0.000    0.000 
#
# Total GULP energy -357990.271241 kJ/mol
# GULP energy per Si atom -5593.597988 kJ/mol
# Density = 1.958808 g / cm^3
# Si number density = 19.632766 Si / 1000 Ang^3
#
#
#
# Elastic Constant Matrix: (Units=GPa)
#
#
# Indices 1 2 3 4 5 6 
#
# 1 113.3486 11.1345 9.3339 0.0000 0.0000 0.0000
# 2 11.1345 43.6389 12.6203 0.0000 0.0000 0.0000
# 3 9.3339 12.6203 60.7579 0.0000 0.0000 0.0000
# 4 0.0000 0.0000 0.0000 -1.5275 0.0000 0.0000
# 5 0.0000 0.0000 0.0000 0.0000 32.1131 0.0000
# 6 0.0000 0.0000 0.0000 0.0000 0.0000 10.7822
#
#
#
# Elastic Compliance Matrix: (Units=1/GPa)
#
#
# Indices 1 2 3 4 5 6 
#
# 1 0.009103 -0.002041 -0.000975 0.000000 0.000000 0.000000
# 2 -0.002041 0.024837 -0.004846 0.000000 0.000000 0.000000
# 3 -0.000975 -0.004846 0.017615 0.000000 0.000000 0.000000
# 4 0.000000 0.000000 0.000000 -0.654678 0.000000 0.000000
# 5 0.000000 0.000000 0.000000 0.000000 0.031140 0.000000
# 6 0.000000 0.000000 0.000000 0.000000 0.000000 0.092745
#
#
# Mechanical properties :
#
#
# Convention : Reuss Voigt Hill
#
# Bulk Modulus (GPa) = 27.90678 31.54696 29.72687
# Shear Modulus (GPa) = -11.07245 20.58402 4.75579
#
# Velocity S-wave (km/s) = -2.37740 3.24149 1.55809
# Velocity P-wave (km/s) = 2.59022 5.48754 4.29082
#
# Compressibility (1/GPa) = 0.03583358
#
# Stress axis : x y z
#
# Youngs Moduli (GPa) = 109.85311 40.26195 56.76987
#
# Poissons Ratio (x) = 0.08217 0.05533
# Poissons Ratio (y) = 0.22419 0.27508
# Poissons Ratio (z) = 0.10706 0.19509
#
# Static dielectric constant tensor:
#      x y z
#    x 1.693430 0.000000 0.000000 
#    y 0.000000 1.656190 0.000000 
#    z 0.000000 0.000000 1.681380 
# 
# From -- ./inp_files/6970.got.cif
#   From: 2010.05.17/outbox.cif.g08.bks.cpg/sg62_4_cif.got.tgz:6970.got - 2010.06.03 15:25:27.
