data_PCOD9467383
_publ_section_title
;
Structure prediction by ZEFSAII (Michael W. Deem and Ramdas Pophale) SiO2 
 PCOD9467383
Probable space group: P N M A
;
_chemical_formula_sum "Si O2"
_cell_formula_units_Z 56
_cell_length_a 14.030632
_cell_length_b 22.117298
_cell_length_c 7.441960
_cell_angle_alpha 90.000000
_cell_angle_beta 90.000000
_cell_angle_gamma 90.000000
_cell_volume 2309.386564
_symmetry_space_group_name_H-M "P N M A"
_symmetry_group_IT_number 62
_symmetry_cell_setting 'orthorhombic'
loop_
_space_group_symop_operation_xyz
x,y,z
1/2-x,-y,1/2+z
1/2+x,1/2-y,1/2-z
-x,1/2+y,-z
-x,-y,-z
1/2+x,y,1/2-z
1/2-x,1/2+y,1/2+z
x,1/2-y,z
loop_
_atom_site_type_symbol
_atom_site_label
_atom_site_fract_x
_atom_site_fract_y
_atom_site_fract_z
Si Si1 0.150121 0.485656 0.436677
Si Si2 0.396160 0.318694 0.657073
Si Si3 0.993871 0.588813 0.388139
Si Si4 0.216958 0.418819 0.085445
Si Si5 0.192721 0.817827 0.767672
Si Si6 0.594966 0.185186 0.069931
Si Si7 0.814091 0.816923 0.174102
O O1 0.108728 0.445310 0.600458
O O2 0.166562 0.444180 0.263057
O O3 0.245115 0.522064 0.483869
O O4 0.070626 0.535800 0.398737
O O5 0.432669 0.250000 0.682196
O O6 0.467611 0.368701 0.729553
O O7 0.367327 0.325818 0.449138
O O8 0.296932 0.323254 0.767718
O O9 0.982384 0.632484 0.563789
O O10 0.307120 0.376879 0.144774
O O11 0.161490 0.371935 0.957476
O O12 0.173068 0.750000 0.696025
O O13 0.305857 0.818241 0.823570
O O14 0.550957 0.250000 0.112852
O O15 0.631175 0.183888 0.862866
O O16 0.828031 0.750000 0.091561
#
# Coordination Sequence:
#
# PCOD9467383 Si02
#       7
#     8   8   8   8   8   8   8
#     4  11  28  38  62  83 120 168 218 241 298 364
#     4   9  18  36  65  92 117 151 196 248 310 364
#     4  11  21  42  57  89 123 158 199 249 308 363
#     4  12  23  42  60  86 119 166 210 254 290 356
#     4   9  19  37  65  94 115 152 203 252 298 360
#     4   9  18  36  65  92 117 151 196 248 310 364
#     4   9  19  37  65  94 115 152 203 252 298 360
#
# _framework density 24.248866
#
# number of rings (size 3 to 8) (size 9 to 14) (size 15 to 20)
#    0.000    2.000    2.857    2.571    4.000    0.000 
#    0.000    4.286    0.000    0.000    0.000    0.000 
#    0.000    0.000    0.000    0.000    0.000    0.000 
#
# Total GULP energy -312671.886672 kJ/mol
# GULP energy per Si atom -5583.426548 kJ/mol
# Density = 2.419367 g / cm^3
# Si number density = 24.248866 Si / 1000 Ang^3
#
#
#
# Elastic Constant Matrix: (Units=GPa)
#
#
# Indices 1 2 3 4 5 6 
#
# 1 79.9669 22.4197 14.8963 0.0000 0.0000 0.0000
# 2 22.4197 147.4860 27.0871 0.0000 0.0000 0.0000
# 3 14.8963 27.0871 69.9883 0.0000 0.0000 0.0000
# 4 0.0000 0.0000 0.0000 36.8814 0.0000 0.0000
# 5 0.0000 0.0000 0.0000 0.0000 24.4145 0.0000
# 6 0.0000 0.0000 0.0000 0.0000 0.0000 26.0163
#
#
#
# Elastic Compliance Matrix: (Units=1/GPa)
#
#
# Indices 1 2 3 4 5 6 
#
# 1 0.013374 -0.001626 -0.002217 0.000000 0.000000 0.000000
# 2 -0.001626 0.007497 -0.002555 0.000000 0.000000 0.000000
# 3 -0.002217 -0.002555 0.015749 0.000000 0.000000 0.000000
# 4 0.000000 0.000000 0.000000 0.027114 0.000000 0.000000
# 5 0.000000 0.000000 0.000000 0.000000 0.040959 0.000000
# 6 0.000000 0.000000 0.000000 0.000000 0.000000 0.038437
#
#
# Mechanical properties :
#
#
# Convention : Reuss Voigt Hill
#
# Bulk Modulus (GPa) = 41.97648 47.36080 44.66864
# Shear Modulus (GPa) = 30.51230 32.99832 31.75531
#
# Velocity S-wave (km/s) = 3.55110 3.69293 3.62271
# Velocity P-wave (km/s) = 5.84483 6.14469 5.99663
#
# Compressibility (1/GPa) = 0.02382286
#
# Stress axis : x y z
#
# Youngs Moduli (GPa) = 74.77178 133.39090 63.49598
#
# Poissons Ratio (x) = 0.21687 0.14079
# Poissons Ratio (y) = 0.12156 0.16226
# Poissons Ratio (z) = 0.16579 0.34087
#
# Static dielectric constant tensor:
#      x y z
#    x 1.947500 0.000000 0.000000 
#    y 0.000000 2.015730 0.000000 
#    z 0.000000 0.000000 1.945840 
# 
# From -- ./inp_files/6789.got.cif
#   From: 2010.05.17/outbox.cif.g08.bks.cpg/sg62_4_cif.got.tgz:6789.got - 2010.06.03 15:25:27.
