data_PCOD9467971
_publ_section_title
;
Structure prediction by ZEFSAII (Michael W. Deem and Ramdas Pophale) SiO2 
 PCOD9467971
Probable space group: P N M A
;
_chemical_formula_sum "Si O2"
_cell_formula_units_Z 56
_cell_length_a 12.000000
_cell_length_b 12.000000
_cell_length_c 21.000000
_cell_angle_alpha 90.000000
_cell_angle_beta 90.000000
_cell_angle_gamma 90.000000
_cell_volume 3024.000000
_symmetry_space_group_name_H-M "P N M A"
_symmetry_group_IT_number 62
_symmetry_cell_setting 'orthorhombic'
loop_
_space_group_symop_operation_xyz
x,y,z
1/2-x,-y,1/2+z
1/2+x,1/2-y,1/2-z
-x,1/2+y,-z
-x,-y,-z
1/2+x,y,1/2-z
1/2-x,1/2+y,1/2+z
x,1/2-y,z
loop_
_atom_site_type_symbol
_atom_site_label
_atom_site_fract_x
_atom_site_fract_y
_atom_site_fract_z
Si Si1 0.750242 0.250000 0.699686
Si Si2 0.888531 0.380909 0.122849
Si Si3 0.137942 0.119419 0.140867
Si Si4 0.024329 0.250000 0.704420
Si Si5 0.718080 0.553312 0.099058
Si Si6 0.020329 0.488686 0.639268
Si Si7 0.663592 0.623159 0.957527
Si Si8 0.675126 0.619164 0.768650
O O1 0.636585 0.250000 0.746628
O O2 0.743675 0.356921 0.652279
O O3 0.885894 0.250000 0.724472
O O4 0.886619 0.250000 0.103495
O O5 0.813094 0.463961 0.082682
O O6 0.836613 0.389264 0.193664
O O7 0.015209 0.424674 0.127722
O O8 0.117452 0.250000 0.155614
O O9 0.218756 0.112569 0.079953
O O10 0.210780 0.073109 0.199822
O O11 0.035410 0.360324 0.660733
O O12 0.609752 0.493131 0.127935
O O13 0.679507 0.608529 0.032697
O O14 0.084734 0.532016 0.576248
O O15 0.073221 0.559572 0.696497
O O16 0.622740 0.750000 0.944947
O O17 0.670215 0.750000 0.785312
#
# Coordination Sequence:
#
# PCOD9467971 Si02
#       8
#     4   8   8   4   8   8   8   8
#     4  10  22  44  64  90 124 164 209 249 306 368
#     4  10  21  34  53  85 120 147 186 243 300 347
#     4   8  17  34  55  78 108 150 185 232 290 350
#     4  10  22  42  64  88 132 156 203 259 300 374
#     4  11  22  37  59  87 115 158 201 242 298 355
#     4  10  21  37  59  89 113 151 198 245 300 345
#     4  10  20  40  63  81 113 156 203 246 293 363
#     4   9  18  34  57  83 114 150 191 233 292 362
#
# _framework density 18.518519000000001
#
# number of rings (size 3 to 8) (size 9 to 14) (size 15 to 20)
#    0.000    2.286    0.714    2.571    2.000    1.714 
#    9.000    0.000    0.000    0.000    0.000    0.000 
#    0.000    0.000    0.000    0.000    0.000    0.000 
#
# Total GULP energy -311855.840715 kJ/mol
# GULP energy per Si atom -5568.854298 kJ/mol
# Density = 1.847637 g / cm^3
# Si number density = 18.518519 Si / 1000 Ang^3
#
#
#
# Elastic Constant Matrix: (Units=GPa)
#
#
# Indices 1 2 3 4 5 6 
#
# 1 111.3462 29.8119 -1.3456 0.0000 0.0000 0.0000
# 2 29.8119 58.0591 -2.3390 0.0000 0.0000 0.0000
# 3 -1.3456 -2.3390 30.3423 0.0000 0.0000 0.0000
# 4 0.0000 0.0000 0.0000 21.5225 0.0000 0.0000
# 5 0.0000 0.0000 0.0000 0.0000 10.4539 0.0000
# 6 0.0000 0.0000 0.0000 0.0000 0.0000 30.9633
#
#
#
# Elastic Compliance Matrix: (Units=1/GPa)
#
#
# Indices 1 2 3 4 5 6 
#
# 1 0.010413 -0.005345 0.000050 0.000000 0.000000 0.000000
# 2 -0.005345 0.020021 0.001306 0.000000 0.000000 0.000000
# 3 0.000050 0.001306 0.033060 0.000000 0.000000 0.000000
# 4 0.000000 0.000000 0.000000 0.046463 0.000000 0.000000
# 5 0.000000 0.000000 0.000000 0.000000 0.095658 0.000000
# 6 0.000000 0.000000 0.000000 0.000000 0.000000 0.032296
#
#
# Mechanical properties :
#
#
# Convention : Reuss Voigt Hill
#
# Bulk Modulus (GPa) = 18.01263 28.00023 23.00643
# Shear Modulus (GPa) = 18.91124 24.16263 21.53694
#
# Velocity S-wave (km/s) = 3.19910 3.61610 3.41397
# Velocity P-wave (km/s) = 4.83669 5.70857 5.29062
#
# Compressibility (1/GPa) = 0.05551661
#
# Stress axis : x y z
#
# Youngs Moduli (GPa) = 96.03779 49.94816 30.24781
#
# Poissons Ratio (x) = 0.26695 -0.00151
# Poissons Ratio (y) = 0.51328 -0.03951
# Poissons Ratio (z) = -0.00478 -0.06525
#
# Static dielectric constant tensor:
#      x y z
#    x 1.682730 0.000000 0.000000 
#    y 0.000000 1.654070 0.000000 
#    z 0.000000 0.000000 1.643590 
# 
# From -- ./inp_files/26659.got.cif
#   From: 2010.05.17/outbox.ucp.g08.bks.cvg/sg62_14_cif.got.tgz:26659.got - 2010.06.11 16:29:25.
