data_PCOD9467935
_publ_section_title
;
Structure prediction by ZEFSAII (Michael W. Deem and Ramdas Pophale) SiO2 
 PCOD9467935
Probable space group: P N M A
;
_chemical_formula_sum "Si O2"
_cell_formula_units_Z 48
_cell_length_a 24.000000
_cell_length_b 9.000000
_cell_length_c 12.000000
_cell_angle_alpha 90.000000
_cell_angle_beta 90.000000
_cell_angle_gamma 90.000000
_cell_volume 2592.000000
_symmetry_space_group_name_H-M "P N M A"
_symmetry_group_IT_number 62
_symmetry_cell_setting 'orthorhombic'
loop_
_space_group_symop_operation_xyz
x,y,z
1/2-x,-y,1/2+z
1/2+x,1/2-y,1/2-z
-x,1/2+y,-z
-x,-y,-z
1/2+x,y,1/2-z
1/2-x,1/2+y,1/2+z
x,1/2-y,z
loop_
_atom_site_type_symbol
_atom_site_label
_atom_site_fract_x
_atom_site_fract_y
_atom_site_fract_z
Si Si1 0.601898 0.426654 0.469044
Si Si2 0.086455 0.572443 0.792351
Si Si3 0.671092 0.427250 0.878320
Si Si4 0.300625 0.073338 0.662434
Si Si5 0.038401 0.426934 0.258368
Si Si6 0.135968 0.573147 0.389596
O O1 0.602013 0.250000 0.487029
O O2 0.587321 0.508760 0.582838
O O3 0.661296 0.482091 0.422805
O O4 0.559769 0.460781 0.367180
O O5 0.092788 0.750000 0.796336
O O6 0.134304 0.499766 0.718382
O O7 0.026673 0.538778 0.736833
O O8 0.663302 0.250000 0.878315
O O9 0.736002 0.458437 0.855193
O O10 0.653431 0.493401 0.997264
O O11 0.310232 0.250000 0.644626
O O12 0.321372 0.039521 0.787889
O O13 0.046680 0.250000 0.275491
O O14 0.076624 0.515652 0.344276
O O15 0.134754 0.750000 0.406484
#
# Coordination Sequence:
#
# PCOD9467935 Si02
#       6
#     8   8   8   8   8   8
#     4  10  20  36  61  90 118 152 193 240 293 343
#     4  11  23  38  58  87 121 155 196 240 289 345
#     4  11  24  40  58  85 118 155 196 239 292 348
#     4   9  21  40  60  84 115 151 192 239 289 344
#     4   9  20  39  61  86 117 155 196 240 289 346
#     4  10  21  39  62  86 114 151 195 241 293 349
#
# _framework density 18.518519000000001
#
# number of rings (size 3 to 8) (size 9 to 14) (size 15 to 20)
#    0.000    2.000    0.000    2.500    2.333    4.667 
#    0.000    0.000    0.000    0.000    0.000    0.000 
#    0.000    0.000    0.000    0.000    0.000    0.000 
#
# Total GULP energy -268192.007467 kJ/mol
# GULP energy per Si atom -5587.333489 kJ/mol
# Density = 1.847637 g / cm^3
# Si number density = 18.518519 Si / 1000 Ang^3
#
#
#
# Elastic Constant Matrix: (Units=GPa)
#
#
# Indices 1 2 3 4 5 6 
#
# 1 68.3943 28.5726 -21.7793 0.0000 0.0000 0.0000
# 2 28.5726 33.8028 -10.2391 0.0000 0.0000 0.0000
# 3 -21.7793 -10.2391 -24.5858 0.0000 0.0000 0.0000
# 4 0.0000 0.0000 0.0000 38.6992 0.0000 0.0000
# 5 0.0000 0.0000 0.0000 0.0000 5.1330 0.0000
# 6 0.0000 0.0000 0.0000 0.0000 0.0000 29.4461
#
#
#
# Elastic Compliance Matrix: (Units=1/GPa)
#
#
# Indices 1 2 3 4 5 6 
#
# 1 0.019816 -0.019595 -0.009393 0.000000 0.000000 0.000000
# 2 -0.019595 0.045647 -0.001652 0.000000 0.000000 0.000000
# 3 -0.009393 -0.001652 -0.031665 0.000000 0.000000 0.000000
# 4 0.000000 0.000000 0.000000 0.025840 0.000000 0.000000
# 5 0.000000 0.000000 0.000000 0.000000 0.194818 0.000000
# 6 0.000000 0.000000 0.000000 0.000000 0.000000 0.033960
#
#
# Mechanical properties :
#
#
# Convention : Reuss Voigt Hill
#
# Bulk Modulus (GPa) = -36.38624 7.85773 -14.26426
# Shear Modulus (GPa) = 14.68275 20.05948 17.37111
#
# Velocity S-wave (km/s) = 2.81885 3.29479 3.06607
# Velocity P-wave (km/s) = 3.01607 4.32742 2.19430
#
# Compressibility (1/GPa) = -0.02748291
#
# Stress axis : x y z
#
# Youngs Moduli (GPa) = 50.46387 21.90748 -31.58070
#
# Poissons Ratio (x) = 0.42929 -0.29665
# Poissons Ratio (y) = 0.98886 -0.05216
# Poissons Ratio (z) = 0.47402 0.03618
#
# Static dielectric constant tensor:
#      x y z
#    x 1.626720 0.000000 0.000000 
#    y 0.000000 1.615280 0.000000 
#    z 0.000000 0.000000 1.600970 
# 
# From -- ./inp_files/15087.got.cif
#   From: 2010.05.17/outbox.ucp.g08.bks.cvg/sg62_8_cif.got.tgz:15087.got - 2010.06.11 16:29:25.
