data_PCOD9467313
_publ_section_title
;
Structure prediction by ZEFSAII (Michael W. Deem and Ramdas Pophale) SiO2 
 PCOD9467313
Probable space group: P N M A
;
_chemical_formula_sum "Si O2"
_cell_formula_units_Z 32
_cell_length_a 10.113264
_cell_length_b 20.155792
_cell_length_c 7.706119
_cell_angle_alpha 90.000000
_cell_angle_beta 90.000000
_cell_angle_gamma 90.000000
_cell_volume 1570.821813
_symmetry_space_group_name_H-M "P N M A"
_symmetry_group_IT_number 62
_symmetry_cell_setting 'orthorhombic'
loop_
_space_group_symop_operation_xyz
x,y,z
1/2-x,-y,1/2+z
1/2+x,1/2-y,1/2-z
-x,1/2+y,-z
-x,-y,-z
1/2+x,y,1/2-z
1/2-x,1/2+y,1/2+z
x,1/2-y,z
loop_
_atom_site_type_symbol
_atom_site_label
_atom_site_fract_x
_atom_site_fract_y
_atom_site_fract_z
Si Si1 0.181239 0.476724 0.932080
Si Si2 0.254238 0.107315 0.267136
Si Si3 0.966224 0.445979 0.654275
Si Si4 0.004776 0.327191 0.419043
O O1 0.048581 0.464277 0.823826
O O2 0.308641 0.446695 0.831356
O O3 0.191909 0.438844 0.114262
O O4 0.207782 0.555593 0.919158
O O5 0.384308 0.142989 0.194684
O O6 0.142954 0.158525 0.324049
O O7 0.000000 0.500000 0.500000
O O8 0.007320 0.373748 0.588000
O O9 0.985359 0.250000 0.452855
#
# Coordination Sequence:
#
# PCOD9467313 Si02
#       4
#     8   8   8   8
#     4  11  20  37  63  91 116 151 204 252 293 341
#     4  11  21  37  61  90 119 155 203 248 296 353
#     4  11  21  40  58  89 122 153 199 249 293 349
#     4  11  23  40  58  85 125 162 195 242 303 360
#
# _framework density 20.371500999999999
#
# number of rings (size 3 to 8) (size 9 to 14) (size 15 to 20)
#    0.000    1.000    7.500    0.750    0.000    6.000 
#    0.000    6.250    0.000    0.000    0.000    0.000 
#    0.000    0.000    0.000    0.000    0.000    0.000 
#
# Total GULP energy -178839.059940 kJ/mol
# GULP energy per Si atom -5588.720623 kJ/mol
# Density = 2.032513 g / cm^3
# Si number density = 20.371501 Si / 1000 Ang^3
#
#
#
# Elastic Constant Matrix: (Units=GPa)
#
#
# Indices 1 2 3 4 5 6 
#
# 1 71.2009 -0.5252 -12.2868 0.0000 0.0000 0.0000
# 2 -0.5252 149.5556 18.9225 0.0000 0.0000 0.0000
# 3 -12.2868 18.9225 51.1269 0.0000 0.0000 0.0000
# 4 0.0000 0.0000 0.0000 26.7191 0.0000 0.0000
# 5 0.0000 0.0000 0.0000 0.0000 22.3645 0.0000
# 6 0.0000 0.0000 0.0000 0.0000 0.0000 27.7110
#
#
#
# Elastic Compliance Matrix: (Units=1/GPa)
#
#
# Indices 1 2 3 4 5 6 
#
# 1 0.014677 -0.000414 0.003680 0.000000 0.000000 0.000000
# 2 -0.000414 0.007027 -0.002700 0.000000 0.000000 0.000000
# 3 0.003680 -0.002700 0.021443 0.000000 0.000000 0.000000
# 4 0.000000 0.000000 0.000000 0.037426 0.000000 0.000000
# 5 0.000000 0.000000 0.000000 0.000000 0.044714 0.000000
# 6 0.000000 0.000000 0.000000 0.000000 0.000000 0.036087
#
#
# Mechanical properties :
#
#
# Convention : Reuss Voigt Hill
#
# Bulk Modulus (GPa) = 22.58422 31.56717 27.07569
# Shear Modulus (GPa) = 28.57131 33.07711 30.82421
#
# Velocity S-wave (km/s) = 3.74908 4.03388 3.89408
# Velocity P-wave (km/s) = 5.46361 6.10128 5.79123
#
# Compressibility (1/GPa) = 0.04427870
#
# Stress axis : x y z
#
# Youngs Moduli (GPa) = 68.13471 142.31517 46.63528
#
# Poissons Ratio (x) = 0.05894 -0.17164
# Poissons Ratio (y) = 0.02822 0.12592
# Poissons Ratio (z) = -0.25076 0.38427
#
# Static dielectric constant tensor:
#      x y z
#    x 1.762890 0.000000 0.000000 
#    y 0.000000 1.685550 0.000000 
#    z 0.000000 0.000000 1.790730 
# 
# From -- ./inp_files/11952.got.cif
#   From: 2010.05.17/outbox.cif.g08.bks.cpg/sg62_6_cif.got.tgz:11952.got - 2010.06.03 15:25:27.
