data_PCOD9467118
_publ_section_title
;
Structure prediction by ZEFSAII (Michael W. Deem and Ramdas Pophale) SiO2 
 PCOD9467118
Probable space group: P N M A
;
_chemical_formula_sum "Si O2"
_cell_formula_units_Z 44
_cell_length_a 24.621291
_cell_length_b 7.427395
_cell_length_c 10.346009
_cell_angle_alpha 90.000000
_cell_angle_beta 90.000000
_cell_angle_gamma 90.000000
_cell_volume 1891.995913
_symmetry_space_group_name_H-M "P N M A"
_symmetry_group_IT_number 62
_symmetry_cell_setting 'orthorhombic'
loop_
_space_group_symop_operation_xyz
x,y,z
1/2-x,-y,1/2+z
1/2+x,1/2-y,1/2-z
-x,1/2+y,-z
-x,-y,-z
1/2+x,y,1/2-z
1/2-x,1/2+y,1/2+z
x,1/2-y,z
loop_
_atom_site_type_symbol
_atom_site_label
_atom_site_fract_x
_atom_site_fract_y
_atom_site_fract_z
Si Si1 0.087490 0.467853 0.739692
Si Si2 0.976468 0.038172 0.858493
Si Si3 0.171052 0.750000 0.849212
Si Si4 0.276318 0.543629 0.488913
Si Si5 0.343449 0.533360 0.995540
Si Si6 0.855749 0.955548 0.793436
O O1 0.093420 0.250000 0.762081
O O2 0.124317 0.589980 0.832604
O O3 0.110273 0.514520 0.597792
O O4 0.024483 0.513643 0.760519
O O5 0.967343 0.250000 0.845673
O O6 0.918101 0.953229 0.836570
O O7 0.000000 0.000000 0.000000
O O8 0.217412 0.591021 0.870030
O O9 0.289919 0.750000 0.456659
O O10 0.214980 0.536787 0.540634
O O11 0.317685 0.463118 0.595855
O O12 0.341968 0.750000 0.994043
O O13 0.352440 0.465834 0.850018
O O14 0.836267 0.750000 0.784998
#
# Coordination Sequence:
#
# PCOD9467118 Si02
#       6
#     8   8   4   8   8   8
#     4  10  25  44  68 101 139 177 233 286 336 411
#     4  11  24  42  67 100 135 176 226 285 343 405
#     4  12  24  42  70  96 132 188 220 274 350 394
#     4  11  25  42  67 102 136 177 229 286 333 407
#     4  10  23  46  69  98 137 183 229 281 346 407
#     4  10  24  43  68 101 137 176 229 283 342 411
#
# _framework density 23.255863999999999
#
# number of rings (size 3 to 8) (size 9 to 14) (size 15 to 20)
#    0.000    1.455    0.909    2.182   10.182    4.364 
#    0.000    0.000    0.000    0.000    0.000    0.000 
#    0.000    0.000    0.000    0.000    0.000    0.000 
#
# Total GULP energy -245082.853730 kJ/mol
# GULP energy per Si atom -5570.064858 kJ/mol
# Density = 2.320293 g / cm^3
# Si number density = 23.255864 Si / 1000 Ang^3
#
#
#
# Elastic Constant Matrix: (Units=GPa)
#
#
# Indices 1 2 3 4 5 6 
#
# 1 107.9385 -6.1599 68.0906 0.0000 0.0000 0.0000
# 2 -6.1599 118.8115 13.2619 0.0000 0.0000 0.0000
# 3 68.0906 13.2619 88.5056 0.0000 0.0000 0.0000
# 4 0.0000 0.0000 0.0000 -25.8947 0.0000 0.0000
# 5 0.0000 0.0000 0.0000 0.0000 29.3439 0.0000
# 6 0.0000 0.0000 0.0000 0.0000 0.0000 28.7293
#
#
#
# Elastic Compliance Matrix: (Units=1/GPa)
#
#
# Indices 1 2 3 4 5 6 
#
# 1 0.018775 0.002630 -0.014838 0.000000 0.000000 0.000000
# 2 0.002630 0.008928 -0.003361 0.000000 0.000000 0.000000
# 3 -0.014838 -0.003361 0.023218 0.000000 0.000000 0.000000
# 4 0.000000 0.000000 0.000000 -0.038618 0.000000 0.000000
# 5 0.000000 0.000000 0.000000 0.000000 0.034079 0.000000
# 6 0.000000 0.000000 0.000000 0.000000 0.000000 0.034808
#
#
# Mechanical properties :
#
#
# Convention : Reuss Voigt Hill
#
# Bulk Modulus (GPa) = 50.55092 51.73787 51.14439
# Shear Modulus (GPa) = 42.04402 22.43991 32.24196
#
# Velocity S-wave (km/s) = 4.25654 3.10968 3.72748
# Velocity P-wave (km/s) = 6.77802 5.93203 6.36909
#
# Compressibility (1/GPa) = 0.01978203
#
# Stress axis : x y z
#
# Youngs Moduli (GPa) = 53.26205 112.00476 43.06993
#
# Poissons Ratio (x) = -0.29454 0.63909
# Poissons Ratio (y) = -0.14006 0.14476
# Poissons Ratio (z) = 0.79032 0.37644
#
# Static dielectric constant tensor:
#      x y z
#    x 1.828740 0.000000 0.000000 
#    y 0.000000 1.903560 0.000000 
#    z 0.000000 0.000000 1.986070 
# 
# From -- ./inp_files/15051.got.cif
#   From: 2010.05.17/outbox.cif.g08.bks.cpg/sg62_8_cif.got.tgz:15051.got - 2010.06.03 15:25:27.
