data_PCOD9467669
_publ_section_title
;
Structure prediction by ZEFSAII (Michael W. Deem and Ramdas Pophale) SiO2 
 PCOD9467669
Probable space group: P N M A
;
_chemical_formula_sum "Si O2"
_cell_formula_units_Z 40
_cell_length_a 7.740136
_cell_length_b 13.270741
_cell_length_c 18.787437
_cell_angle_alpha 90.000000
_cell_angle_beta 90.000000
_cell_angle_gamma 90.000000
_cell_volume 1929.795557
_symmetry_space_group_name_H-M "P N M A"
_symmetry_group_IT_number 62
_symmetry_cell_setting 'orthorhombic'
loop_
_space_group_symop_operation_xyz
x,y,z
1/2-x,-y,1/2+z
1/2+x,1/2-y,1/2-z
-x,1/2+y,-z
-x,-y,-z
1/2+x,y,1/2-z
1/2-x,1/2+y,1/2+z
x,1/2-y,z
loop_
_atom_site_type_symbol
_atom_site_label
_atom_site_fract_x
_atom_site_fract_y
_atom_site_fract_z
Si Si1 0.689290 0.750000 0.722681
Si Si2 0.196011 0.574640 0.551546
Si Si3 0.040882 0.750000 0.634502
Si Si4 0.064690 0.575476 0.870018
Si Si5 0.252338 0.139246 0.515840
Si Si6 0.876338 0.638809 0.093808
O O1 0.694169 0.750000 0.807266
O O2 0.592682 0.850207 0.695176
O O3 0.870991 0.750000 0.682171
O O4 0.062036 0.650054 0.587349
O O5 0.369086 0.575700 0.600608
O O6 0.146583 0.457561 0.542040
O O7 0.257716 0.617012 0.475194
O O8 0.127026 0.460707 0.857553
O O9 0.176561 0.618233 0.936487
O O10 0.173070 0.250000 0.521572
O O11 0.428667 0.140568 0.562394
O O12 0.837753 0.750000 0.123476
#
# Coordination Sequence:
#
# PCOD9467669 Si02
#       6
#     4   8   4   8   8   8
#     4  12  24  36  50  68  96 132 169 210 247 288
#     4   9  16  29  50  74 100 129 164 199 235 288
#     4  12  24  36  50  68  96 132 169 210 247 288
#     4   9  16  29  50  74 100 129 164 199 235 288
#     4   8  13  24  49  79 103 128 157 193 237 290
#     4   8  13  24  49  79 103 128 157 193 237 290
#
# _framework density 20.727584
#
# number of rings (size 3 to 8) (size 9 to 14) (size 15 to 20)
#    0.000    2.800    2.000    4.200    0.000    0.000 
#    0.000    4.000    0.000    1.200    0.000    0.000 
#    0.000    0.000    0.000    0.000    0.000    0.000 
#
# Total GULP energy -223338.607189 kJ/mol
# GULP energy per Si atom -5583.465180 kJ/mol
# Density = 2.068041 g / cm^3
# Si number density = 20.727584 Si / 1000 Ang^3
#
#
#
# Elastic Constant Matrix: (Units=GPa)
#
#
# Indices 1 2 3 4 5 6 
#
# 1 74.0215 27.3742 3.0138 0.0000 0.0000 0.0000
# 2 27.3742 221.7448 43.8501 0.0000 0.0000 0.0000
# 3 3.0138 43.8501 37.4633 0.0000 0.0000 0.0000
# 4 0.0000 0.0000 0.0000 20.9309 0.0000 0.0000
# 5 0.0000 0.0000 0.0000 0.0000 21.7804 0.0000
# 6 0.0000 0.0000 0.0000 0.0000 0.0000 24.1080
#
#
#
# Elastic Compliance Matrix: (Units=1/GPa)
#
#
# Indices 1 2 3 4 5 6 
#
# 1 0.014196 -0.001986 0.001183 0.000000 0.000000 0.000000
# 2 -0.001986 0.006146 -0.007034 0.000000 0.000000 0.000000
# 3 0.001183 -0.007034 0.034831 0.000000 0.000000 0.000000
# 4 0.000000 0.000000 0.000000 0.047776 0.000000 0.000000
# 5 0.000000 0.000000 0.000000 0.000000 0.045913 0.000000
# 6 0.000000 0.000000 0.000000 0.000000 0.000000 0.041480
#
#
# Mechanical properties :
#
#
# Convention : Reuss Voigt Hill
#
# Bulk Modulus (GPa) = 25.31769 53.52288 39.42028
# Shear Modulus (GPa) = 22.81211 30.62997 26.72104
#
# Velocity S-wave (km/s) = 3.32108 3.84831 3.59437
# Velocity P-wave (km/s) = 5.19106 6.75456 6.02375
#
# Compressibility (1/GPa) = 0.03949808
#
# Stress axis : x y z
#
# Youngs Moduli (GPa) = 70.44224 162.71140 28.71043
#
# Poissons Ratio (x) = 0.32322 -0.03397
# Poissons Ratio (y) = 0.13993 0.20194
# Poissons Ratio (z) = -0.08334 1.14448
#
# Static dielectric constant tensor:
#      x y z
#    x 1.810480 0.000000 0.000000 
#    y 0.000000 1.785310 0.000000 
#    z 0.000000 0.000000 1.681500 
# 
# From -- ./inp_files/18620.got.cif
#   From: 2010.05.17/outbox.cif.g08.bks.cpg/sg62_10_cif.got.tgz:18620.got - 2010.06.03 15:25:27.
