data_PCOD9467497
_publ_section_title
;
Structure prediction by ZEFSAII (Michael W. Deem and Ramdas Pophale) SiO2 
 PCOD9467497
Probable space group: P N M A
;
_chemical_formula_sum "Si O2"
_cell_formula_units_Z 56
_cell_length_a 10.552531
_cell_length_b 16.854119
_cell_length_c 14.183383
_cell_angle_alpha 90.000000
_cell_angle_beta 90.000000
_cell_angle_gamma 90.000000
_cell_volume 2522.565914
_symmetry_space_group_name_H-M "P N M A"
_symmetry_group_IT_number 62
_symmetry_cell_setting 'orthorhombic'
loop_
_space_group_symop_operation_xyz
x,y,z
1/2-x,-y,1/2+z
1/2+x,1/2-y,1/2-z
-x,1/2+y,-z
-x,-y,-z
1/2+x,y,1/2-z
1/2-x,1/2+y,1/2+z
x,1/2-y,z
loop_
_atom_site_type_symbol
_atom_site_label
_atom_site_fract_x
_atom_site_fract_y
_atom_site_fract_z
Si Si1 0.312498 0.568976 0.793596
Si Si2 0.155558 0.553898 0.465552
Si Si3 0.476114 0.158829 0.821346
Si Si4 0.637940 0.838332 0.375029
Si Si5 0.324762 0.963603 0.141790
Si Si6 0.055926 0.089062 0.001844
Si Si7 0.543522 0.843880 0.698290
O O1 0.326124 0.513013 0.884847
O O2 0.270255 0.512942 0.706386
O O3 0.445337 0.611733 0.769094
O O4 0.189252 0.626103 0.799544
O O5 0.079682 0.626545 0.419321
O O6 0.106594 0.516828 0.563736
O O7 0.294678 0.584286 0.493265
O O8 0.522757 0.250000 0.826285
O O9 0.372615 0.157260 0.738147
O O10 0.580377 0.091408 0.798922
O O11 0.670528 0.750000 0.403801
O O12 0.738935 0.900114 0.413460
O O13 0.502771 0.862728 0.415229
O O14 0.010116 0.132480 0.095913
O O15 0.000000 0.000000 0.000000
O O16 0.538838 0.750000 0.713817
#
# Coordination Sequence:
#
# PCOD9467497 Si02
#       7
#     8   8   8   8   8   8   8
#     4  12  24  45  73  99 141 180 237 283 335 417
#     4  12  24  42  72  97 130 177 231 274 340 408
#     4  11  26  43  64 101 140 174 216 285 355 407
#     4  11  23  40  67  99 133 172 221 285 344 394
#     4  12  23  44  68  95 132 179 230 270 337 412
#     4  12  22  43  69 101 127 175 234 284 328 403
#     4  12  26  45  69 103 142 184 230 287 345 401
#
# _framework density 22.199618000000001
#
# number of rings (size 3 to 8) (size 9 to 14) (size 15 to 20)
#    0.000    0.286    5.714    3.429    0.000    1.143 
#    0.000    3.571    0.000    0.000    0.000    0.000 
#    0.000    0.000    0.000    0.000    0.000    0.000 
#
# Total GULP energy -313235.236105 kJ/mol
# GULP energy per Si atom -5593.486359 kJ/mol
# Density = 2.214909 g / cm^3
# Si number density = 22.199618 Si / 1000 Ang^3
#
#
#
# Elastic Constant Matrix: (Units=GPa)
#
#
# Indices 1 2 3 4 5 6 
#
# 1 75.7878 9.1481 1.2927 0.0000 0.0000 0.0000
# 2 9.1481 104.2817 25.6749 0.0000 0.0000 0.0000
# 3 1.2927 25.6749 80.8279 0.0000 0.0000 0.0000
# 4 0.0000 0.0000 0.0000 25.0820 0.0000 0.0000
# 5 0.0000 0.0000 0.0000 0.0000 37.8984 0.0000
# 6 0.0000 0.0000 0.0000 0.0000 0.0000 30.5227
#
#
#
# Elastic Compliance Matrix: (Units=1/GPa)
#
#
# Indices 1 2 3 4 5 6 
#
# 1 0.013338 -0.001212 0.000172 0.000000 0.000000 0.000000
# 2 -0.001212 0.010513 -0.003320 0.000000 0.000000 0.000000
# 3 0.000172 -0.003320 0.013424 0.000000 0.000000 0.000000
# 4 0.000000 0.000000 0.000000 0.039869 0.000000 0.000000
# 5 0.000000 0.000000 0.000000 0.000000 0.026386 0.000000
# 6 0.000000 0.000000 0.000000 0.000000 0.000000 0.032762
#
#
# Mechanical properties :
#
#
# Convention : Reuss Voigt Hill
#
# Bulk Modulus (GPa) = 35.02164 37.01431 36.01797
# Shear Modulus (GPa) = 32.35562 33.68606 33.02084
#
# Velocity S-wave (km/s) = 3.82184 3.89963 3.86093
# Velocity P-wave (km/s) = 5.94015 6.08159 6.01128
#
# Compressibility (1/GPa) = 0.02855378
#
# Stress axis : x y z
#
# Youngs Moduli (GPa) = 74.97297 95.11848 74.49426
#
# Poissons Ratio (x) = 0.11532 -0.01280
# Poissons Ratio (y) = 0.09090 0.24733
# Poissons Ratio (z) = -0.01288 0.31580
#
# Static dielectric constant tensor:
#      x y z
#    x 1.886450 0.000000 0.000000 
#    y 0.000000 1.812280 0.000000 
#    z 0.000000 0.000000 1.799900 
# 
# From -- ./inp_files/18070.got.cif
#   From: 2010.05.17/outbox.cif.g08.bks.cpg/sg62_10_cif.got.tgz:18070.got - 2010.06.03 15:25:27.
