data_PCOD9467069
_publ_section_title
;
Structure prediction by ZEFSAII (Michael W. Deem and Ramdas Pophale) SiO2 
 PCOD9467069
Probable space group: P N M A
;
_chemical_formula_sum "Si O2"
_cell_formula_units_Z 60
_cell_length_a 19.405246
_cell_length_b 9.161898
_cell_length_c 15.213844
_cell_angle_alpha 90.000000
_cell_angle_beta 90.000000
_cell_angle_gamma 90.000000
_cell_volume 2704.852354
_symmetry_space_group_name_H-M "P N M A"
_symmetry_group_IT_number 62
_symmetry_cell_setting 'orthorhombic'
loop_
_space_group_symop_operation_xyz
x,y,z
1/2-x,-y,1/2+z
1/2+x,1/2-y,1/2-z
-x,1/2+y,-z
-x,-y,-z
1/2+x,y,1/2-z
1/2-x,1/2+y,1/2+z
x,1/2-y,z
loop_
_atom_site_type_symbol
_atom_site_label
_atom_site_fract_x
_atom_site_fract_y
_atom_site_fract_z
Si Si1 0.502739 0.750000 0.448549
Si Si2 0.409161 0.499168 0.538196
Si Si3 0.587311 0.077029 0.155474
Si Si4 0.644979 0.914749 0.645698
Si Si5 0.227970 0.923572 0.290243
Si Si6 0.260747 0.919426 0.610672
Si Si7 0.051055 0.421096 0.713972
Si Si8 0.859684 0.916862 0.464231
O O1 0.457200 0.626000 0.501633
O O2 0.549752 0.881603 0.404556
O O3 0.386584 0.410323 0.451070
O O4 0.339251 0.558127 0.580611
O O5 0.584925 0.250000 0.175863
O O6 0.656595 0.004381 0.191758
O O7 0.521529 0.994999 0.193472
O O8 0.593436 0.059985 0.049893
O O9 0.660648 0.750000 0.674787
O O10 0.713047 0.013319 0.646351
O O11 0.591173 0.991633 0.710657
O O12 0.222784 0.750000 0.296561
O O13 0.251338 0.975334 0.193683
O O14 0.249957 0.750000 0.632641
O O15 0.203947 0.972068 0.540549
O O16 0.046277 0.250000 0.739461
O O17 0.095410 0.429994 0.624022
O O18 0.832714 0.750000 0.469925
#
# Coordination Sequence:
#
# PCOD9467069 Si02
#       8
#     4   8   8   8   8   8   8   8
#     4  10  24  46  64  98 134 172 230 284 338 404
#     4  11  25  45  72  99 135 183 230 283 343 410
#     4  11  24  44  69 101 136 178 224 279 340 404
#     4  12  25  45  71 100 138 182 228 277 343 412
#     4  12  27  45  68 100 138 177 230 286 338 407
#     4  12  25  43  70 100 135 178 227 284 341 405
#     4  11  24  43  68 101 139 181 228 277 339 401
#     4  10  23  43  70  99 135 177 226 277 335 403
#
# _framework density 22.182359000000002
#
# number of rings (size 3 to 8) (size 9 to 14) (size 15 to 20)
#    0.000    0.800    2.667    4.000    3.733    5.867 
#    2.400    0.000    0.000    0.000    0.000    0.000 
#    0.000    0.000    0.000    0.000    0.000    0.000 
#
# Total GULP energy -334946.483629 kJ/mol
# GULP energy per Si atom -5582.441394 kJ/mol
# Density = 2.213187 g / cm^3
# Si number density = 22.182359 Si / 1000 Ang^3
#
#
#
# Elastic Constant Matrix: (Units=GPa)
#
#
# Indices 1 2 3 4 5 6 
#
# 1 88.5233 19.5304 -2.3142 0.0000 0.0000 0.0000
# 2 19.5304 131.9682 10.3771 0.0000 0.0000 0.0000
# 3 -2.3142 10.3771 58.2296 0.0000 0.0000 0.0000
# 4 0.0000 0.0000 0.0000 32.1731 0.0000 0.0000
# 5 0.0000 0.0000 0.0000 0.0000 25.4325 0.0000
# 6 0.0000 0.0000 0.0000 0.0000 0.0000 21.2637
#
#
#
# Elastic Compliance Matrix: (Units=1/GPa)
#
#
# Indices 1 2 3 4 5 6 
#
# 1 0.011713 -0.001795 0.000785 0.000000 0.000000 0.000000
# 2 -0.001795 0.007960 -0.001490 0.000000 0.000000 0.000000
# 3 0.000785 -0.001490 0.017470 0.000000 0.000000 0.000000
# 4 0.000000 0.000000 0.000000 0.031082 0.000000 0.000000
# 5 0.000000 0.000000 0.000000 0.000000 0.039320 0.000000
# 6 0.000000 0.000000 0.000000 0.000000 0.000000 0.047028
#
#
# Mechanical properties :
#
#
# Convention : Reuss Voigt Hill
#
# Bulk Modulus (GPa) = 31.10989 37.10085 34.10537
# Shear Modulus (GPa) = 29.36202 32.51571 30.93887
#
# Velocity S-wave (km/s) = 3.64217 3.83278 3.73869
# Velocity P-wave (km/s) = 5.63403 6.02898 5.83485
#
# Compressibility (1/GPa) = 0.03214412
#
# Stress axis : x y z
#
# Youngs Moduli (GPa) = 85.37476 125.62143 57.24056
#
# Poissons Ratio (x) = 0.22552 -0.04496
# Poissons Ratio (y) = 0.15327 0.08529
# Poissons Ratio (z) = -0.06706 0.18717
#
# Static dielectric constant tensor:
#      x y z
#    x 1.828830 0.000000 0.000000 
#    y 0.000000 1.753620 0.000000 
#    z 0.000000 0.000000 1.883290 
# 
# From -- ./inp_files/24358.got.cif
#   From: 2010.05.17/outbox.cif.g08.bks.cpg/sg62_13_cif.got.tgz:24358.got - 2010.06.03 15:25:27.
