data_PCOD9467924
_publ_section_title
;
Structure prediction by ZEFSAII (Michael W. Deem and Ramdas Pophale) SiO2 
 PCOD9467924
Probable space group: P N M A
;
_chemical_formula_sum "Si O2"
_cell_formula_units_Z 48
_cell_length_a 30.000000
_cell_length_b 9.000000
_cell_length_c 9.000000
_cell_angle_alpha 90.000000
_cell_angle_beta 90.000000
_cell_angle_gamma 90.000000
_cell_volume 2430.000000
_symmetry_space_group_name_H-M "P N M A"
_symmetry_group_IT_number 62
_symmetry_cell_setting 'orthorhombic'
loop_
_space_group_symop_operation_xyz
x,y,z
1/2-x,-y,1/2+z
1/2+x,1/2-y,1/2-z
-x,1/2+y,-z
-x,-y,-z
1/2+x,y,1/2-z
1/2-x,1/2+y,1/2+z
x,1/2-y,z
loop_
_atom_site_type_symbol
_atom_site_label
_atom_site_fract_x
_atom_site_fract_y
_atom_site_fract_z
Si Si1 0.871867 0.573542 0.165244
Si Si2 0.449853 0.078591 0.173264
Si Si3 0.792888 0.083603 0.649081
Si Si4 0.870211 0.426341 0.850702
Si Si5 0.208100 0.083137 0.641761
Si Si6 0.958400 0.078140 0.669295
O O1 0.867725 0.750000 0.156902
O O2 0.918993 0.525418 0.229762
O O3 0.833768 0.513373 0.274700
O O4 0.864988 0.505822 0.005097
O O5 0.442417 0.250000 0.212941
O O6 0.501001 0.032465 0.192808
O O7 0.440161 0.058463 0.998022
O O8 0.806746 0.250000 0.607696
O O9 0.834496 0.013435 0.733568
O O10 0.750573 0.088467 0.754050
O O11 0.779254 0.001255 0.503588
O O12 0.861731 0.250000 0.869668
O O13 0.919321 0.444379 0.785534
O O14 0.195078 0.250000 0.600156
O O15 0.974199 0.250000 0.677774
#
# Coordination Sequence:
#
# PCOD9467924 Si02
#       6
#     8   8   8   8   8   8
#     4  11  23  37  54  80 114 148 184 227 273 324
#     4  10  20  36  59  83 108 143 184 226 276 330
#     4  10  21  38  60  85 113 146 185 227 271 324
#     4  10  21  37  57  81 110 145 185 227 272 324
#     4  10  22  38  57  84 115 146 182 225 273 323
#     4   9  19  36  57  82 110 140 180 229 277 327
#
# _framework density 19.753086
#
# number of rings (size 3 to 8) (size 9 to 14) (size 15 to 20)
#    0.000    2.000    0.000    3.000    0.000    6.000 
#    0.000    0.000    0.000    0.000    0.000    0.000 
#    0.000    0.000    0.000    0.000    0.000    0.000 
#
# Total GULP energy -267756.765681 kJ/mol
# GULP energy per Si atom -5578.265952 kJ/mol
# Density = 1.970813 g / cm^3
# Si number density = 19.753086 Si / 1000 Ang^3
#
#
#
# Elastic Constant Matrix: (Units=GPa)
#
#
# Indices 1 2 3 4 5 6 
#
# 1 1.0146 11.7910 15.1426 0.0000 0.0000 0.0000
# 2 11.7910 14.8873 45.1165 0.0000 0.0000 0.0000
# 3 15.1426 45.1165 60.5605 0.0000 0.0000 0.0000
# 4 0.0000 0.0000 0.0000 -9.1223 0.0000 0.0000
# 5 0.0000 0.0000 0.0000 0.0000 3.2853 0.0000
# 6 0.0000 0.0000 0.0000 0.0000 0.0000 35.2849
#
#
#
# Elastic Compliance Matrix: (Units=1/GPa)
#
#
# Indices 1 2 3 4 5 6 
#
# 1 -0.362615 -0.009877 0.098027 0.000000 0.000000 0.000000
# 2 -0.009877 -0.053677 0.042458 0.000000 0.000000 0.000000
# 3 0.098027 0.042458 -0.039629 0.000000 0.000000 0.000000
# 4 0.000000 0.000000 0.000000 -0.109622 0.000000 0.000000
# 5 0.000000 0.000000 0.000000 0.000000 0.304390 0.000000
# 6 0.000000 0.000000 0.000000 0.000000 0.000000 0.028341
#
#
# Mechanical properties :
#
#
# Convention : Reuss Voigt Hill
#
# Bulk Modulus (GPa) = -5.13597 24.50697 9.68550
# Shear Modulus (GPa) = -8.94567 6.18372 -1.38097
#
# Velocity S-wave (km/s) = -2.13039 1.77124 -0.83704
# Velocity P-wave (km/s) = 2.94231 4.07635 1.99493
#
# Compressibility (1/GPa) = -0.19470502
#
# Stress axis : x y z
#
# Youngs Moduli (GPa) = -2.75775 -18.62987 -25.23404
#
# Poissons Ratio (x) = -0.18401 2.47361
# Poissons Ratio (y) = -0.02724 1.07139
# Poissons Ratio (z) = 0.27033 0.79099
#
# Static dielectric constant tensor:
#      x y z
#    x 1.652910 0.000000 0.000000 
#    y 0.000000 1.722810 0.000000 
#    z 0.000000 0.000000 1.674470 
# 
# From -- ./inp_files/10196.got.cif
#   From: 2010.05.17/outbox.ucp.g08.bks.cvg/sg62_6_cif.got.tgz:10196.got - 2010.06.11 16:29:25.
