data_PCOD9467487
_publ_section_title
;
Structure prediction by ZEFSAII (Michael W. Deem and Ramdas Pophale) SiO2 
 PCOD9467487
Probable space group: P N M A
;
_chemical_formula_sum "Si O2"
_cell_formula_units_Z 40
_cell_length_a 7.633162
_cell_length_b 8.626913
_cell_length_c 30.847047
_cell_angle_alpha 90.000000
_cell_angle_beta 90.000000
_cell_angle_gamma 90.000000
_cell_volume 2031.297309
_symmetry_space_group_name_H-M "P N M A"
_symmetry_group_IT_number 62
_symmetry_cell_setting 'orthorhombic'
loop_
_space_group_symop_operation_xyz
x,y,z
1/2-x,-y,1/2+z
1/2+x,1/2-y,1/2-z
-x,1/2+y,-z
-x,-y,-z
1/2+x,y,1/2-z
1/2-x,1/2+y,1/2+z
x,1/2-y,z
loop_
_atom_site_type_symbol
_atom_site_label
_atom_site_fract_x
_atom_site_fract_y
_atom_site_fract_z
Si Si1 0.481197 0.435729 0.451815
Si Si2 0.271911 0.565889 0.112988
Si Si3 0.664901 0.438513 0.108664
Si Si4 0.202441 0.426285 0.297963
Si Si5 0.783232 0.072804 0.295432
O O1 0.500000 0.500000 0.500000
O O2 0.487181 0.250000 0.452752
O O3 0.636921 0.495899 0.421282
O O4 0.296463 0.481483 0.429660
O O5 0.272558 0.750000 0.110172
O O6 0.469165 0.503664 0.104323
O O7 0.220135 0.514007 0.161808
O O8 0.653155 0.250000 0.111092
O O9 0.747155 0.492992 0.154936
O O10 0.274931 0.250000 0.295990
O O11 0.247538 0.499947 0.251745
O O12 0.992453 0.418091 0.299291
O O13 0.713097 0.250000 0.295862
#
# Coordination Sequence:
#
# PCOD9467487 Si02
#       5
#     8   8   8   8   8
#     4  11  24  42  67  93 119 152 201 254 306 361
#     4  11  23  39  59  86 125 163 196 242 301 362
#     4   9  20  40  64  88 115 155 204 251 294 347
#     4   8  15  28  52  82 109 144 197 247 286 335
#     4   9  17  31  53  81 113 152 201 247 288 344
#
# _framework density 19.691849000000001
#
# number of rings (size 3 to 8) (size 9 to 14) (size 15 to 20)
#    0.000    2.400    0.000    3.600    2.800    2.400 
#    0.000    4.000    0.000    0.000    0.000    0.000 
#    0.000    0.000    0.000    0.000    0.000    0.000 
#
# Total GULP energy -223123.728288 kJ/mol
# GULP energy per Si atom -5578.093207 kJ/mol
# Density = 1.964703 g / cm^3
# Si number density = 19.691849 Si / 1000 Ang^3
#
#
#
# Elastic Constant Matrix: (Units=GPa)
#
#
# Indices 1 2 3 4 5 6 
#
# 1 1280.9175 576.0865 1945.0522 0.0000 0.0000 0.0000
# 2 576.0865 304.8116 904.9684 0.0000 0.0000 0.0000
# 3 1945.0522 904.9684 3136.7879 0.0000 0.0000 0.0000
# 4 0.0000 0.0000 0.0000 28.8559 0.0000 0.0000
# 5 0.0000 0.0000 0.0000 0.0000 35.9509 0.0000
# 6 0.0000 0.0000 0.0000 0.0000 0.0000 6.7219
#
#
#
# Elastic Compliance Matrix: (Units=1/GPa)
#
#
# Indices 1 2 3 4 5 6 
#
# 1 0.014341 -0.004898 -0.007479 0.000000 0.000000 0.000000
# 2 -0.004898 0.024542 -0.004043 0.000000 0.000000 0.000000
# 3 -0.007479 -0.004043 0.006123 0.000000 0.000000 0.000000
# 4 0.000000 0.000000 0.000000 0.034655 0.000000 0.000000
# 5 0.000000 0.000000 0.000000 0.000000 0.027816 0.000000
# 6 0.000000 0.000000 0.000000 0.000000 0.000000 0.148768
#
#
# Mechanical properties :
#
#
# Convention : Reuss Voigt Hill
#
# Bulk Modulus (GPa) = 82.20534 1286.08125 684.14330
# Shear Modulus (GPa) = 17.05665 100.73305 58.89485
#
# Velocity S-wave (km/s) = 2.94628 7.16001 5.47478
# Velocity P-wave (km/s) = 7.30826 26.88634 19.70135
#
# Compressibility (1/GPa) = 0.01216466
#
# Stress axis : x y z
#
# Youngs Moduli (GPa) = 69.73236 40.74582 163.32189
#
# Poissons Ratio (x) = 0.19959 1.22150
# Poissons Ratio (y) = 0.34157 0.66034
# Poissons Ratio (z) = 0.52153 0.16474
#
# Static dielectric constant tensor:
#      x y z
#    x 1.678970 0.000000 0.000000 
#    y 0.000000 1.687630 0.000000 
#    z 0.000000 0.000000 1.726410 
# 
# From -- ./inp_files/30675.got.cif
#   From: 2010.05.17/outbox.cif.g08.bks.cpg/sg62_16_cif.got.tgz:30675.got - 2010.06.03 15:25:27.
