data_PCOD9467144
_publ_section_title
;
Structure prediction by ZEFSAII (Michael W. Deem and Ramdas Pophale) SiO2 
 PCOD9467144
Probable space group: P N M A
;
_chemical_formula_sum "Si O2"
_cell_formula_units_Z 64
_cell_length_a 18.910089
_cell_length_b 28.762650
_cell_length_c 5.168332
_cell_angle_alpha 90.000000
_cell_angle_beta 90.000000
_cell_angle_gamma 90.000000
_cell_volume 2811.077851
_symmetry_space_group_name_H-M "P N M A"
_symmetry_group_IT_number 62
_symmetry_cell_setting 'orthorhombic'
loop_
_space_group_symop_operation_xyz
x,y,z
1/2-x,-y,1/2+z
1/2+x,1/2-y,1/2-z
-x,1/2+y,-z
-x,-y,-z
1/2+x,y,1/2-z
1/2-x,1/2+y,1/2+z
x,1/2-y,z
loop_
_atom_site_type_symbol
_atom_site_label
_atom_site_fract_x
_atom_site_fract_y
_atom_site_fract_z
Si Si1 0.644907 0.356081 0.449034
Si Si2 0.378025 0.198576 0.627421
Si Si3 0.988847 0.050006 0.638377
Si Si4 0.986561 0.374807 0.040965
Si Si5 0.211281 0.676120 0.616112
Si Si6 0.205352 0.500836 0.802218
Si Si7 0.134067 0.913222 0.621335
Si Si8 0.366344 0.912029 0.040024
O O1 0.560667 0.348997 0.409002
O O2 0.704581 0.317408 0.399670
O O3 0.649475 0.373222 0.744465
O O4 0.662393 0.395606 0.234154
O O5 0.408328 0.250000 0.577722
O O6 0.438999 0.159199 0.641903
O O7 0.323280 0.187076 0.393483
O O8 0.333258 0.199681 0.890157
O O9 0.050179 0.080090 0.500439
O O10 0.001511 0.072987 0.923738
O O11 0.905656 0.059461 0.603845
O O12 0.000000 0.000000 0.500000
O O13 0.930093 0.382982 0.266155
O O14 0.196165 0.621461 0.553855
O O15 0.264491 0.510466 0.582810
O O16 0.160040 0.547687 0.817568
O O17 0.162096 0.458977 0.671315
#
# Coordination Sequence:
#
# PCOD9467144 Si02
#       8
#     8   8   8   8   8   8   8   8
#     4  11  23  41  65  94 130 167 211 265 329 390
#     4  11  24  45  71  99 128 166 215 268 328 407
#     4  11  21  37  59  90 130 174 228 270 315 380
#     4  10  24  41  68  96 130 174 223 273 339 396
#     4  11  23  42  69  96 130 168 210 267 330 398
#     4  12  26  38  55  84 124 173 227 274 319 371
#     4  11  22  39  61  87 127 175 224 268 323 386
#     4  11  22  38  57  88 126 172 216 267 313 368
#
# _framework density 22.767068999999999
#
# number of rings (size 3 to 8) (size 9 to 14) (size 15 to 20)
#    0.000    1.000    3.750    3.375    1.750    2.500 
#    0.000    1.250    0.000    0.000    0.000    0.000 
#    0.000    0.000    0.000    0.000    0.000    0.000 
#
# Total GULP energy -356654.378038 kJ/mol
# GULP energy per Si atom -5572.724657 kJ/mol
# Density = 2.271525 g / cm^3
# Si number density = 22.767069 Si / 1000 Ang^3
#
#
#
# Elastic Constant Matrix: (Units=GPa)
#
#
# Indices 1 2 3 4 5 6 
#
# 1 115.6064 17.1148 24.0941 0.0000 0.0000 0.0000
# 2 17.1148 59.5716 8.0549 0.0000 0.0000 0.0000
# 3 24.0941 8.0549 84.4367 0.0000 0.0000 0.0000
# 4 0.0000 0.0000 0.0000 -14.5774 0.0000 0.0000
# 5 0.0000 0.0000 0.0000 0.0000 30.9832 0.0000
# 6 0.0000 0.0000 0.0000 0.0000 0.0000 -18.0046
#
#
#
# Elastic Compliance Matrix: (Units=1/GPa)
#
#
# Indices 1 2 3 4 5 6 
#
# 1 0.009524 -0.002400 -0.002489 0.000000 0.000000 0.000000
# 2 -0.002400 0.017611 -0.000995 0.000000 0.000000 0.000000
# 3 -0.002489 -0.000995 0.012648 0.000000 0.000000 0.000000
# 4 0.000000 0.000000 0.000000 -0.068600 0.000000 0.000000
# 5 0.000000 0.000000 0.000000 0.000000 0.032276 0.000000
# 6 0.000000 0.000000 0.000000 0.000000 0.000000 -0.055541
#
#
# Mechanical properties :
#
#
# Convention : Reuss Voigt Hill
#
# Bulk Modulus (GPa) = 35.69460 39.79361 37.74410
# Shear Modulus (GPa) = -161.41152 13.70364 -73.85394
#
# Velocity S-wave (km/s) = -8.42917 2.45604 -5.70170
# Velocity P-wave (km/s) = 8.88945 5.05563 5.17025
#
# Compressibility (1/GPa) = 0.02801544
#
# Stress axis : x y z
#
# Youngs Moduli (GPa) = 104.99794 56.78422 79.06204
#
# Poissons Ratio (x) = 0.13627 0.19677
# Poissons Ratio (y) = 0.25197 0.07868
# Poissons Ratio (z) = 0.26131 0.05651
#
# Static dielectric constant tensor:
#      x y z
#    x 1.903720 0.000000 0.000000 
#    y 0.000000 1.897720 0.000000 
#    z 0.000000 0.000000 1.891720 
# 
# From -- ./inp_files/1891.got.cif
#   From: 2010.05.17/outbox.cif.g08.bks.cpg/sg62_1_cif.got.tgz:1891.got - 2010.06.03 15:25:27.
