data_PCOD9467510
_publ_section_title
;
Structure prediction by ZEFSAII (Michael W. Deem and Ramdas Pophale) SiO2 
 PCOD9467510
Probable space group: P N M A
;
_chemical_formula_sum "Si O2"
_cell_formula_units_Z 40
_cell_length_a 18.185750
_cell_length_b 8.580427
_cell_length_c 12.498441
_cell_angle_alpha 90.000000
_cell_angle_beta 90.000000
_cell_angle_gamma 90.000000
_cell_volume 1950.275485
_symmetry_space_group_name_H-M "P N M A"
_symmetry_group_IT_number 62
_symmetry_cell_setting 'orthorhombic'
loop_
_space_group_symop_operation_xyz
x,y,z
1/2-x,-y,1/2+z
1/2+x,1/2-y,1/2-z
-x,1/2+y,-z
-x,-y,-z
1/2+x,y,1/2-z
1/2-x,1/2+y,1/2+z
x,1/2-y,z
loop_
_atom_site_type_symbol
_atom_site_label
_atom_site_fract_x
_atom_site_fract_y
_atom_site_fract_z
Si Si1 0.614162 0.434576 0.700458
Si Si2 0.075989 0.563748 0.450852
Si Si3 0.137949 0.566402 0.033218
Si Si4 0.208531 0.563614 0.614802
Si Si5 0.954065 0.565366 0.773667
O O1 0.608506 0.250000 0.716924
O O2 0.625005 0.473957 0.576311
O O3 0.680030 0.503209 0.771210
O O4 0.538980 0.516572 0.737699
O O5 0.070155 0.750000 0.440073
O O6 0.143565 0.529209 0.529806
O O7 0.086217 0.489261 0.334227
O O8 0.000000 0.500000 0.500000
O O9 0.133047 0.750000 0.011490
O O10 0.217329 0.520363 0.079354
O O11 0.078945 0.518319 0.122702
O O12 0.219933 0.750000 0.617541
O O13 0.947831 0.750000 0.786364
#
# Coordination Sequence:
#
# PCOD9467510 Si02
#       5
#     8   8   8   8   8
#     4  12  25  45  71  99 135 176 224 276 334 399
#     4  11  23  41  68  99 135 174 222 273 330 394
#     4  12  27  46  69  98 136 179 224 276 339 401
#     4  11  25  45  68  99 136 176 223 275 335 398
#     4  12  25  44  70 100 136 176 226 278 334 398
#
# _framework density 20.509924999999999
#
# number of rings (size 3 to 8) (size 9 to 14) (size 15 to 20)
#    0.000    0.400    2.000    7.200    2.800    2.400 
#    0.000    0.000    0.000    0.000    0.000    0.000 
#    0.000    0.000    0.000    0.000    0.000    0.000 
#
# Total GULP energy -224113.139463 kJ/mol
# GULP energy per Si atom -5602.828487 kJ/mol
# Density = 2.046324 g / cm^3
# Si number density = 20.509925 Si / 1000 Ang^3
#
#
#
# Elastic Constant Matrix: (Units=GPa)
#
#
# Indices 1 2 3 4 5 6 
#
# 1 37.0397 -1.2364 -16.9857 0.0000 0.0000 0.0000
# 2 -1.2364 56.0474 -19.2258 0.0000 0.0000 0.0000
# 3 -16.9857 -19.2258 83.2954 0.0000 0.0000 0.0000
# 4 0.0000 0.0000 0.0000 35.5299 0.0000 0.0000
# 5 0.0000 0.0000 0.0000 0.0000 87.0662 0.0000
# 6 0.0000 0.0000 0.0000 0.0000 0.0000 37.7442
#
#
#
# Elastic Compliance Matrix: (Units=1/GPa)
#
#
# Indices 1 2 3 4 5 6 
#
# 1 0.030247 0.003022 0.006866 0.000000 0.000000 0.000000
# 2 0.003022 0.019678 0.005158 0.000000 0.000000 0.000000
# 3 0.006866 0.005158 0.014596 0.000000 0.000000 0.000000
# 4 0.000000 0.000000 0.000000 0.028145 0.000000 0.000000
# 5 0.000000 0.000000 0.000000 0.000000 0.011486 0.000000
# 6 0.000000 0.000000 0.000000 0.000000 0.000000 0.026494
#
#
# Mechanical properties :
#
#
# Convention : Reuss Voigt Hill
#
# Bulk Modulus (GPa) = 10.56921 11.27632 10.92276
# Shear Modulus (GPa) = 37.85238 46.32340 42.08789
#
# Velocity S-wave (km/s) = 4.30066 4.75761 4.53490
# Velocity P-wave (km/s) = 5.46126 5.97409 5.72342
#
# Compressibility (1/GPa) = 0.09461443
#
# Stress axis : x y z
#
# Youngs Moduli (GPa) = 33.06067 50.81778 68.51127
#
# Poissons Ratio (x) = -0.15359 -0.47038
# Poissons Ratio (y) = -0.09992 -0.35340
# Poissons Ratio (z) = -0.22698 -0.26213
#
# Static dielectric constant tensor:
#      x y z
#    x 1.707090 0.000000 0.000000 
#    y 0.000000 1.677500 0.000000 
#    z 0.000000 0.000000 1.711140 
# 
# From -- ./inp_files/13844.got.cif
#   From: 2010.05.17/outbox.cif.g08.bks.cpg/sg62_7_cif.got.tgz:13844.got - 2010.06.03 15:25:27.
