data_PCOD9467922
_publ_section_title
;
Structure prediction by ZEFSAII (Michael W. Deem and Ramdas Pophale) SiO2 
 PCOD9467922
Probable space group: P N M A
;
_chemical_formula_sum "Si O2"
_cell_formula_units_Z 64
_cell_length_a 18.000000
_cell_length_b 9.000000
_cell_length_c 21.000000
_cell_angle_alpha 90.000000
_cell_angle_beta 90.000000
_cell_angle_gamma 90.000000
_cell_volume 3402.000000
_symmetry_space_group_name_H-M "P N M A"
_symmetry_group_IT_number 62
_symmetry_cell_setting 'orthorhombic'
loop_
_space_group_symop_operation_xyz
x,y,z
1/2-x,-y,1/2+z
1/2+x,1/2-y,1/2-z
-x,1/2+y,-z
-x,-y,-z
1/2+x,y,1/2-z
1/2-x,1/2+y,1/2+z
x,1/2-y,z
loop_
_atom_site_type_symbol
_atom_site_label
_atom_site_fract_x
_atom_site_fract_y
_atom_site_fract_z
Si Si1 0.757032 0.428933 0.663667
Si Si2 0.422437 0.079563 0.687213
Si Si3 0.243184 0.081177 0.694962
Si Si4 0.309440 0.081610 0.070318
Si Si5 0.514900 0.919123 0.934681
Si Si6 0.436393 0.070975 0.542476
Si Si7 0.918908 0.928578 0.683372
Si Si8 0.785112 0.427184 0.032837
O O1 0.763183 0.250000 0.659585
O O2 0.721170 0.462899 0.733024
O O3 0.838721 0.501528 0.667545
O O4 0.717133 0.493138 0.601285
O O5 0.449192 0.250000 0.693001
O O6 0.332807 0.084156 0.692539
O O7 0.440305 0.022369 0.616368
O O8 0.446657 0.984679 0.747860
O O9 0.217039 0.250000 0.682921
O O10 0.219272 0.977401 0.637700
O O11 0.511432 0.250000 0.058105
O O12 0.397571 0.080586 0.075208
O O13 0.282289 0.981903 0.011527
O O14 0.716687 0.750000 0.941338
O O15 0.473298 0.979688 0.872854
O O16 0.500000 0.000000 0.000000
O O17 0.442575 0.250000 0.543106
O O18 0.357941 0.035715 0.509023
O O19 0.500000 0.000000 0.500000
O O20 0.913330 0.750000 0.684770
O O21 0.782006 0.250000 0.041965
#
# Coordination Sequence:
#
# PCOD9467922 Si02
#       8
#     8   8   8   8   8   8   8   8
#     4  10  21  37  58  86 118 149 189 237 281 335
#     4   9  18  37  60  82 112 148 188 234 281 336
#     4   9  18  36  58  80 111 145 183 229 280 331
#     4  11  22  36  58  85 114 148 190 236 281 336
#     4  10  23  39  54  80 116 150 188 234 281 334
#     4  10  22  40  60  83 114 148 188 237 289 344
#     4  10  20  36  58  85 116 153 195 235 283 340
#     4  11  22  39  60  85 116 149 187 234 288 339
#
# _framework density 18.812463000000001
#
# number of rings (size 3 to 8) (size 9 to 14) (size 15 to 20)
#    0.000    2.000    1.250    3.000    0.000    8.000 
#    2.250    0.000    0.000    0.000    0.000    0.000 
#    0.000    0.000    0.000    0.000    0.000    0.000 
#
# Total GULP energy -357035.068728 kJ/mol
# GULP energy per Si atom -5578.672949 kJ/mol
# Density = 1.876965 g / cm^3
# Si number density = 18.812463 Si / 1000 Ang^3
#
#
#
# Elastic Constant Matrix: (Units=GPa)
#
#
# Indices 1 2 3 4 5 6 
#
# 1 12.2695 9.5145 14.0280 0.0000 0.0000 0.0000
# 2 9.5145 39.0466 36.0412 0.0000 0.0000 0.0000
# 3 14.0280 36.0412 148.8308 0.0000 0.0000 0.0000
# 4 0.0000 0.0000 0.0000 40.5024 0.0000 0.0000
# 5 0.0000 0.0000 0.0000 0.0000 29.3991 0.0000
# 6 0.0000 0.0000 0.0000 0.0000 0.0000 22.1611
#
#
#
# Elastic Compliance Matrix: (Units=1/GPa)
#
#
# Indices 1 2 3 4 5 6 
#
# 1 0.102955 -0.020773 -0.004673 0.000000 0.000000 0.000000
# 2 -0.020773 0.037174 -0.007044 0.000000 0.000000 0.000000
# 3 -0.004673 -0.007044 0.008865 0.000000 0.000000 0.000000
# 4 0.000000 0.000000 0.000000 0.024690 0.000000 0.000000
# 5 0.000000 0.000000 0.000000 0.000000 0.034015 0.000000
# 6 0.000000 0.000000 0.000000 0.000000 0.000000 0.045124
#
#
# Mechanical properties :
#
#
# Convention : Reuss Voigt Hill
#
# Bulk Modulus (GPa) = 11.90298 35.47936 23.69117
# Shear Modulus (GPa) = 14.45886 27.78343 21.12115
#
# Velocity S-wave (km/s) = 2.77533 3.84717 3.35434
# Velocity P-wave (km/s) = 4.07564 6.21568 5.25574
#
# Compressibility (1/GPa) = 0.08401257
#
# Stress axis : x y z
#
# Youngs Moduli (GPa) = 9.71301 26.90035 112.79832
#
# Poissons Ratio (x) = 0.55880 0.52716
# Poissons Ratio (y) = 0.20177 0.79458
# Poissons Ratio (z) = 0.04539 0.18949
#
# Static dielectric constant tensor:
#      x y z
#    x 1.661180 0.000000 0.000000 
#    y 0.000000 1.652640 0.000000 
#    z 0.000000 0.000000 1.657480 
# 
# From -- ./inp_files/27636.got.cif
#   From: 2010.05.17/outbox.ucp.g08.bks.cvg/sg62_14_cif.got.tgz:27636.got - 2010.06.11 16:29:25.
