data_PCOD9467968
_publ_section_title
;
Structure prediction by ZEFSAII (Michael W. Deem and Ramdas Pophale) SiO2 
 PCOD9467968
Probable space group: P N M A
;
_chemical_formula_sum "Si O2"
_cell_formula_units_Z 64
_cell_length_a 24.000000
_cell_length_b 9.000000
_cell_length_c 15.000000
_cell_angle_alpha 90.000000
_cell_angle_beta 90.000000
_cell_angle_gamma 90.000000
_cell_volume 3240.000000
_symmetry_space_group_name_H-M "P N M A"
_symmetry_group_IT_number 62
_symmetry_cell_setting 'orthorhombic'
loop_
_space_group_symop_operation_xyz
x,y,z
1/2-x,-y,1/2+z
1/2+x,1/2-y,1/2-z
-x,1/2+y,-z
-x,-y,-z
1/2+x,y,1/2-z
1/2-x,1/2+y,1/2+z
x,1/2-y,z
loop_
_atom_site_type_symbol
_atom_site_label
_atom_site_fract_x
_atom_site_fract_y
_atom_site_fract_z
Si Si1 0.448037 0.069693 0.225994
Si Si2 0.273848 0.577087 0.555937
Si Si3 0.851634 0.422728 0.638524
Si Si4 0.501471 0.076374 0.405254
Si Si5 0.528596 0.927759 0.084348
Si Si6 0.266169 0.426612 0.375061
Si Si7 0.879025 0.580855 0.813100
Si Si8 0.177952 0.931057 0.688735
O O1 0.452217 0.250000 0.221381
O O2 0.458247 0.024655 0.328905
O O3 0.387074 0.026174 0.189119
O O4 0.497632 0.999200 0.168860
O O5 0.263999 0.750000 0.533143
O O6 0.289755 0.491679 0.466507
O O7 0.325326 0.571371 0.623841
O O8 0.218335 0.520525 0.607777
O O9 0.837613 0.250000 0.626975
O O10 0.905513 0.459523 0.579997
O O11 0.797709 0.521237 0.623991
O O12 0.872409 0.458246 0.737836
O O13 0.490281 0.250000 0.418743
O O14 0.563470 0.061377 0.365071
O O15 0.500000 0.000000 0.500000
O O16 0.522349 0.750000 0.086808
O O17 0.500000 0.000000 0.000000
O O18 0.270011 0.250000 0.375734
O O19 0.295085 0.478662 0.283292
O O20 0.879534 0.750000 0.774438
O O21 0.179526 0.750000 0.687004
#
# Coordination Sequence:
#
# PCOD9467968 Si02
#       8
#     8   8   8   8   8   8   8   8
#     4  10  21  40  63  87 119 160 201 244 294 353
#     4  10  21  39  60  85 120 156 195 246 298 348
#     4  11  23  40  63  89 118 153 199 252 302 351
#     4  10  22  37  59  88 120 158 201 245 297 353
#     4  11  25  42  62  90 120 156 198 247 301 356
#     4  11  23  40  62  89 121 159 201 243 293 357
#     4  10  20  39  63  86 116 158 202 246 298 352
#     4   9  20  39  61  84 118 159 194 237 296 350
#
# _framework density 19.753086
#
# number of rings (size 3 to 8) (size 9 to 14) (size 15 to 20)
#    0.000    1.750    2.500    1.125    3.500    3.000 
#    0.000    1.250    0.000    0.000    0.000    0.000 
#    0.000    0.000    0.000    0.000    0.000    0.000 
#
# Total GULP energy -357323.342252 kJ/mol
# GULP energy per Si atom -5583.177223 kJ/mol
# Density = 1.970813 g / cm^3
# Si number density = 19.753086 Si / 1000 Ang^3
#
#
#
# Elastic Constant Matrix: (Units=GPa)
#
#
# Indices 1 2 3 4 5 6 
#
# 1 43.4800 6.5113 -22.5868 0.0000 0.0000 0.0000
# 2 6.5113 7.7216 0.6000 0.0000 0.0000 0.0000
# 3 -22.5868 0.6000 41.6983 0.0000 0.0000 0.0000
# 4 0.0000 0.0000 0.0000 33.7698 0.0000 0.0000
# 5 0.0000 0.0000 0.0000 0.0000 19.4969 0.0000
# 6 0.0000 0.0000 0.0000 0.0000 0.0000 20.6059
#
#
#
# Elastic Compliance Matrix: (Units=1/GPa)
#
#
# Indices 1 2 3 4 5 6 
#
# 1 0.039704 -0.035191 0.022013 0.000000 0.000000 0.000000
# 2 -0.035191 0.160843 -0.021377 0.000000 0.000000 0.000000
# 3 0.022013 -0.021377 0.036213 0.000000 0.000000 0.000000
# 4 0.000000 0.000000 0.000000 0.029612 0.000000 0.000000
# 5 0.000000 0.000000 0.000000 0.000000 0.051290 0.000000
# 6 0.000000 0.000000 0.000000 0.000000 0.000000 0.048530
#
#
# Mechanical properties :
#
#
# Convention : Reuss Voigt Hill
#
# Bulk Modulus (GPa) = 5.96477 6.88320 6.42399
# Shear Modulus (GPa) = 10.17943 21.99955 16.08949
#
# Velocity S-wave (km/s) = 2.27256 3.34088 2.85709
# Velocity P-wave (km/s) = 3.14837 4.28650 3.76074
#
# Compressibility (1/GPa) = 0.16765117
#
# Stress axis : x y z
#
# Youngs Moduli (GPa) = 25.18614 6.21723 27.61418
#
# Poissons Ratio (x) = 0.21879 -0.60787
# Poissons Ratio (y) = 0.88633 0.59030
# Poissons Ratio (z) = -0.55443 0.13290
#
# Static dielectric constant tensor:
#      x y z
#    x 1.957510 0.000000 0.000000 
#    y 0.000000 1.676360 0.000000 
#    z 0.000000 0.000000 1.739930 
# 
# From -- ./inp_files/20786.got.cif
#   From: 2010.05.17/outbox.ucp.g08.bks.cvg/sg62_11_cif.got.tgz:20786.got - 2010.06.11 16:29:25.
