data_PCOD9467432
_publ_section_title
;
Structure prediction by ZEFSAII (Michael W. Deem and Ramdas Pophale) SiO2 
 PCOD9467432
Probable space group: P N M A
;
_chemical_formula_sum "Si O2"
_cell_formula_units_Z 56
_cell_length_a 9.171264
_cell_length_b 20.136937
_cell_length_c 13.835545
_cell_angle_alpha 90.000000
_cell_angle_beta 90.000000
_cell_angle_gamma 90.000000
_cell_volume 2555.164574
_symmetry_space_group_name_H-M "P N M A"
_symmetry_group_IT_number 62
_symmetry_cell_setting 'orthorhombic'
loop_
_space_group_symop_operation_xyz
x,y,z
1/2-x,-y,1/2+z
1/2+x,1/2-y,1/2-z
-x,1/2+y,-z
-x,-y,-z
1/2+x,y,1/2-z
1/2-x,1/2+y,1/2+z
x,1/2-y,z
loop_
_atom_site_type_symbol
_atom_site_label
_atom_site_fract_x
_atom_site_fract_y
_atom_site_fract_z
Si Si1 0.121828 0.421209 0.194409
Si Si2 0.478862 0.127849 0.495354
Si Si3 0.693801 0.444367 0.607337
Si Si4 0.689977 0.405054 0.100400
Si Si5 0.957645 0.250000 0.865323
Si Si6 0.382787 0.986285 0.196185
Si Si7 0.604929 0.250000 0.844729
Si Si8 0.523539 0.618738 0.054645
O O1 0.188769 0.384205 0.287805
O O2 0.249136 0.470052 0.158063
O O3 0.995379 0.466847 0.244077
O O4 0.060154 0.377305 0.108015
O O5 0.539610 0.064795 0.555124
O O6 0.309960 0.128979 0.466436
O O7 0.501249 0.187459 0.569001
O O8 0.761255 0.517767 0.596181
O O9 0.678172 0.436280 0.722191
O O10 0.804226 0.390480 0.564456
O O11 0.534314 0.391145 0.053449
O O12 0.042967 0.250000 0.764281
O O13 0.781826 0.250000 0.847371
O O14 0.457627 0.943308 0.114570
O O15 0.539335 0.185483 0.898989
#
# Coordination Sequence:
#
# PCOD9467432 Si02
#       8
#     8   8   8   8   4   8   4   8
#     4  11  23  41  68 103 139 176 229 289 351 416
#     4  12  25  46  70  99 142 186 238 282 348 415
#     4  11  24  38  68 105 140 181 230 285 359 412
#     4  11  23  42  68 106 140 184 226 292 354 409
#     4  12  30  54  73  99 136 192 231 289 339 422
#     4  11  22  39  64 104 142 179 226 289 355 409
#     4  12  30  50  73  97 142 184 237 281 335 428
#     4  12  25  42  67 100 143 187 234 286 343 417
#
# _framework density 21.916398000000001
#
# number of rings (size 3 to 8) (size 9 to 14) (size 15 to 20)
#    0.000    0.571    7.143    2.571    8.000    0.000 
#    0.000    1.429    0.000    0.000    0.000    0.000 
#    0.000    0.000    0.000    0.000    0.000    0.000 
#
# Total GULP energy -313181.715280 kJ/mol
# GULP energy per Si atom -5592.530630 kJ/mol
# Density = 2.186652 g / cm^3
# Si number density = 21.916398 Si / 1000 Ang^3
#
#
#
# Elastic Constant Matrix: (Units=GPa)
#
#
# Indices 1 2 3 4 5 6 
#
# 1 75.2764 9.9685 1.1036 0.0000 0.0000 0.0000
# 2 9.9685 58.3066 29.3720 0.0000 0.0000 0.0000
# 3 1.1036 29.3720 100.9157 0.0000 0.0000 0.0000
# 4 0.0000 0.0000 0.0000 28.3803 0.0000 0.0000
# 5 0.0000 0.0000 0.0000 0.0000 46.7528 0.0000
# 6 0.0000 0.0000 0.0000 0.0000 0.0000 23.2692
#
#
#
# Elastic Compliance Matrix: (Units=1/GPa)
#
#
# Indices 1 2 3 4 5 6 
#
# 1 0.013625 -0.002642 0.000620 0.000000 0.000000 0.000000
# 2 -0.002642 0.020610 -0.005970 0.000000 0.000000 0.000000
# 3 0.000620 -0.005970 0.011640 0.000000 0.000000 0.000000
# 4 0.000000 0.000000 0.000000 0.035236 0.000000 0.000000
# 5 0.000000 0.000000 0.000000 0.000000 0.021389 0.000000
# 6 0.000000 0.000000 0.000000 0.000000 0.000000 0.042975
#
#
# Mechanical properties :
#
#
# Convention : Reuss Voigt Hill
#
# Bulk Modulus (GPa) = 33.45407 35.04301 34.24854
# Shear Modulus (GPa) = 29.16787 32.61745 30.89266
#
# Velocity S-wave (km/s) = 3.65207 3.86199 3.75849
# Velocity P-wave (km/s) = 5.75161 5.99256 5.87332
#
# Compressibility (1/GPa) = 0.02989173
#
# Stress axis : x y z
#
# Youngs Moduli (GPa) = 73.39389 48.52109 85.91084
#
# Poissons Ratio (x) = 0.12818 -0.05325
# Poissons Ratio (y) = 0.19389 0.51286
# Poissons Ratio (z) = -0.04550 0.28965
#
# Static dielectric constant tensor:
#      x y z
#    x 1.891080 0.000000 0.000000 
#    y 0.000000 1.795630 0.000000 
#    z 0.000000 0.000000 1.809060 
# 
# From -- ./inp_files/17240.got.cif
#   From: 2010.05.17/outbox.cif.g08.bks.cpg/sg62_9_cif.got.tgz:17240.got - 2010.06.03 15:25:27.
