data_PCOD9467351
_publ_section_title
;
Structure prediction by ZEFSAII (Michael W. Deem and Ramdas Pophale) SiO2 
 PCOD9467351
Probable space group: P N M A
;
_chemical_formula_sum "Si O2"
_cell_formula_units_Z 40
_cell_length_a 7.710487
_cell_length_b 21.156456
_cell_length_c 10.824966
_cell_angle_alpha 90.000000
_cell_angle_beta 90.000000
_cell_angle_gamma 90.000000
_cell_volume 1765.839671
_symmetry_space_group_name_H-M "P N M A"
_symmetry_group_IT_number 62
_symmetry_cell_setting 'orthorhombic'
loop_
_space_group_symop_operation_xyz
x,y,z
1/2-x,-y,1/2+z
1/2+x,1/2-y,1/2-z
-x,1/2+y,-z
-x,-y,-z
1/2+x,y,1/2-z
1/2-x,1/2+y,1/2+z
x,1/2-y,z
loop_
_atom_site_type_symbol
_atom_site_label
_atom_site_fract_x
_atom_site_fract_y
_atom_site_fract_z
Si Si1 0.611592 0.499943 0.123623
Si Si2 0.263117 0.679058 0.113244
Si Si3 0.535197 0.543345 0.622201
Si Si4 0.429873 0.679260 0.564930
Si Si5 0.857487 0.139978 0.618584
O O1 0.758806 0.447030 0.119203
O O2 0.509334 0.492869 0.251172
O O3 0.704844 0.567789 0.124140
O O4 0.500000 0.500000 0.000000
O O5 0.332988 0.750000 0.104263
O O6 0.183431 0.668712 0.248376
O O7 0.436151 0.638169 0.095500
O O8 0.100895 0.674107 0.021615
O O9 0.500000 0.500000 0.500000
O O10 0.439220 0.611119 0.631683
O O11 0.435925 0.750000 0.624642
O O12 0.255691 0.675509 0.483215
#
# Coordination Sequence:
#
# PCOD9467351 Si02
#       5
#     8   8   8   8   8
#     4  12  26  45  74 102 139 187 242 300 362 425
#     4  11  21  35  59  96 139 182 232 293 357 428
#     4  12  24  47  71 106 142 183 241 304 360 425
#     4  11  24  42  65  98 142 190 237 294 363 437
#     4  12  21  38  64  98 136 182 235 297 362 421
#
# _framework density 22.652114000000001
#
# number of rings (size 3 to 8) (size 9 to 14) (size 15 to 20)
#    0.000    0.400    4.000    6.600    0.000    0.000 
#    0.000    1.000    0.000    0.000    0.000    0.000 
#    0.000    0.000    0.000    0.000    0.000    0.000 
#
# Total GULP energy -223400.978370 kJ/mol
# GULP energy per Si atom -5585.024459 kJ/mol
# Density = 2.260056 g / cm^3
# Si number density = 22.652114 Si / 1000 Ang^3
#
#
#
# Elastic Constant Matrix: (Units=GPa)
#
#
# Indices 1 2 3 4 5 6 
#
# 1 102.5410 -9.0910 31.6826 0.0000 0.0000 0.0000
# 2 -9.0910 102.2064 35.1053 0.0000 0.0000 0.0000
# 3 31.6826 35.1053 99.4545 0.0000 0.0000 0.0000
# 4 0.0000 0.0000 0.0000 25.1572 0.0000 0.0000
# 5 0.0000 0.0000 0.0000 0.0000 30.4030 0.0000
# 6 0.0000 0.0000 0.0000 0.0000 0.0000 38.9503
#
#
#
# Elastic Compliance Matrix: (Units=1/GPa)
#
#
# Indices 1 2 3 4 5 6 
#
# 1 0.011380 0.002569 -0.004532 0.000000 0.000000 0.000000
# 2 0.002569 0.011714 -0.004953 0.000000 0.000000 0.000000
# 3 -0.004532 -0.004953 0.013247 0.000000 0.000000 0.000000
# 4 0.000000 0.000000 0.000000 0.039750 0.000000 0.000000
# 5 0.000000 0.000000 0.000000 0.000000 0.032892 0.000000
# 6 0.000000 0.000000 0.000000 0.000000 0.000000 0.025674
#
#
# Mechanical properties :
#
#
# Convention : Reuss Voigt Hill
#
# Bulk Modulus (GPa) = 44.42770 46.62175 45.52472
# Shear Modulus (GPa) = 32.05296 35.33576 33.69436
#
# Velocity S-wave (km/s) = 3.76574 3.95388 3.86096
# Velocity P-wave (km/s) = 6.20994 6.43976 6.32590
#
# Compressibility (1/GPa) = 0.02250848
#
# Stress axis : x y z
#
# Youngs Moduli (GPa) = 87.87148 85.36878 75.48908
#
# Poissons Ratio (x) = -0.21930 0.34212
# Poissons Ratio (y) = -0.22573 0.37391
# Poissons Ratio (z) = 0.39824 0.42284
#
# Static dielectric constant tensor:
#      x y z
#    x 1.817760 0.000000 0.000000 
#    y 0.000000 1.956250 0.000000 
#    z 0.000000 0.000000 2.364420 
# 
# From -- ./inp_files/4296.got.cif
#   From: 2010.05.17/outbox.cif.g08.bks.cpg/sg62_3_cif.got.tgz:4296.got - 2010.06.03 15:25:27.
