data_PCOD9467189
_publ_section_title
;
Structure prediction by ZEFSAII (Michael W. Deem and Ramdas Pophale) SiO2 
 PCOD9467189
Probable space group: P N M A
;
_chemical_formula_sum "Si O2"
_cell_formula_units_Z 60
_cell_length_a 23.187343
_cell_length_b 20.411951
_cell_length_c 5.011443
_cell_angle_alpha 90.000000
_cell_angle_beta 90.000000
_cell_angle_gamma 90.000000
_cell_volume 2371.910505
_symmetry_space_group_name_H-M "P N M A"
_symmetry_group_IT_number 62
_symmetry_cell_setting 'orthorhombic'
loop_
_space_group_symop_operation_xyz
x,y,z
1/2-x,-y,1/2+z
1/2+x,1/2-y,1/2-z
-x,1/2+y,-z
-x,-y,-z
1/2+x,y,1/2-z
1/2-x,1/2+y,1/2+z
x,1/2-y,z
loop_
_atom_site_type_symbol
_atom_site_label
_atom_site_fract_x
_atom_site_fract_y
_atom_site_fract_z
Si Si1 0.993551 0.823063 0.476071
Si Si2 0.960668 0.066860 0.203386
Si Si3 0.641411 0.608874 0.344285
Si Si4 0.401740 0.750000 0.708924
Si Si5 0.695053 0.673429 0.873186
Si Si6 0.211661 0.491524 0.423178
Si Si7 0.679255 0.126100 0.371451
Si Si8 0.928933 0.571034 0.135454
O O1 0.010783 0.750000 0.370920
O O2 0.951418 0.804960 0.720247
O O3 0.953173 0.864175 0.278177
O O4 0.039456 0.874144 0.586778
O O5 0.921391 0.090578 0.956771
O O6 0.936195 0.996929 0.297610
O O7 0.026701 0.058322 0.108824
O O8 0.651520 0.663676 0.119518
O O9 0.668516 0.545140 0.199794
O O10 0.674406 0.634415 0.610229
O O11 0.353673 0.692985 0.675675
O O12 0.700996 0.750000 0.808156
O O13 0.756774 0.644294 0.968462
O O14 0.265761 0.494700 0.217418
O O15 0.187095 0.418710 0.389455
O O16 0.636153 0.083531 0.551739
#
# Coordination Sequence:
#
# PCOD9467189 Si02
#       8
#     8   8   8   4   8   8   8   8
#     4  10  24  44  68 103 143 189 243 301 378 457
#     4  11  25  46  71 101 151 188 250 313 373 453
#     4  12  26  50  73 111 147 201 251 304 374 452
#     4  10  24  44  68 108 144 184 236 312 372 450
#     4  12  28  49  74 108 151 199 253 310 379 451
#     4  12  24  46  72 110 150 196 249 306 375 452
#     4  12  23  45  74 103 152 180 250 310 384 440
#     4  11  24  44  71 111 136 190 250 311 386 439
#
# _framework density 25.296064999999999
#
# number of rings (size 3 to 8) (size 9 to 14) (size 15 to 20)
#    0.400    0.267    6.000    0.800    2.800    3.733 
#    4.800    0.000    0.000    0.000    0.000    0.000 
#    0.000    0.000    0.000    0.000    0.000    0.000 
#
# Total GULP energy -334782.018095 kJ/mol
# GULP energy per Si atom -5579.700302 kJ/mol
# Density = 2.523849 g / cm^3
# Si number density = 25.296065 Si / 1000 Ang^3
#
#
#
# Elastic Constant Matrix: (Units=GPa)
#
#
# Indices 1 2 3 4 5 6 
#
# 1 123.5478 30.2623 50.6332 0.0000 0.0000 0.0000
# 2 30.2623 171.6797 35.4435 0.0000 0.0000 0.0000
# 3 50.6332 35.4435 87.5852 0.0000 0.0000 0.0000
# 4 0.0000 0.0000 0.0000 -6.8873 0.0000 0.0000
# 5 0.0000 0.0000 0.0000 0.0000 31.8909 0.0000
# 6 0.0000 0.0000 0.0000 0.0000 0.0000 38.9797
#
#
#
# Elastic Compliance Matrix: (Units=1/GPa)
#
#
# Indices 1 2 3 4 5 6 
#
# 1 0.010676 -0.000663 -0.005903 0.000000 0.000000 0.000000
# 2 -0.000663 0.006397 -0.002205 0.000000 0.000000 0.000000
# 3 -0.005903 -0.002205 0.015723 0.000000 0.000000 0.000000
# 4 0.000000 0.000000 0.000000 -0.145195 0.000000 0.000000
# 5 0.000000 0.000000 0.000000 0.000000 0.031357 0.000000
# 6 0.000000 0.000000 0.000000 0.000000 0.000000 0.025654
#
#
# Mechanical properties :
#
#
# Convention : Reuss Voigt Hill
#
# Bulk Modulus (GPa) = 65.56603 68.38787 66.97695
# Shear Modulus (GPa) = -152.61986 30.56158 -61.02914
#
# Velocity S-wave (km/s) = -7.77589 3.47962 -4.91715
# Velocity P-wave (km/s) = 7.39212 6.57551 2.38811
#
# Compressibility (1/GPa) = 0.01525180
#
# Stress axis : x y z
#
# Youngs Moduli (GPa) = 93.66960 156.32372 63.60246
#
# Poissons Ratio (x) = 0.10366 0.37547
# Poissons Ratio (y) = 0.06211 0.14027
# Poissons Ratio (z) = 0.55297 0.34475
#
# Static dielectric constant tensor:
#      x y z
#    x 2.001810 0.000000 0.000000 
#    y 0.000000 2.010050 0.000000 
#    z 0.000000 0.000000 2.011410 
# 
# From -- ./inp_files/2859.got.cif
#   From: 2010.05.17/outbox.cif.g08.bks.cpg/sg62_2_cif.got.tgz:2859.got - 2010.06.03 15:25:27.
