data_PCOD9467979
_publ_section_title
;
Structure prediction by ZEFSAII (Michael W. Deem and Ramdas Pophale) SiO2 
 PCOD9467979
Probable space group: P N M A
;
_chemical_formula_sum "Si O2"
_cell_formula_units_Z 40
_cell_length_a 6.000000
_cell_length_b 18.000000
_cell_length_c 18.000000
_cell_angle_alpha 90.000000
_cell_angle_beta 90.000000
_cell_angle_gamma 90.000000
_cell_volume 1944.000000
_symmetry_space_group_name_H-M "P N M A"
_symmetry_group_IT_number 62
_symmetry_cell_setting 'orthorhombic'
loop_
_space_group_symop_operation_xyz
x,y,z
1/2-x,-y,1/2+z
1/2+x,1/2-y,1/2-z
-x,1/2+y,-z
-x,-y,-z
1/2+x,y,1/2-z
1/2-x,1/2+y,1/2+z
x,1/2-y,z
loop_
_atom_site_type_symbol
_atom_site_label
_atom_site_fract_x
_atom_site_fract_y
_atom_site_fract_z
Si Si1 0.114757 0.338666 0.223255
Si Si2 0.312655 0.545379 0.954837
Si Si3 0.928285 0.599721 0.063185
Si Si4 0.156122 0.836473 0.571927
Si Si5 0.498933 0.662130 0.277356
O O1 0.361104 0.365643 0.255611
O O2 0.109312 0.250000 0.240643
O O3 0.156815 0.348582 0.135016
O O4 0.176155 0.480393 0.913446
O O5 0.446320 0.609750 0.912412
O O6 0.500000 0.500000 0.000000
O O7 0.144310 0.581820 0.013668
O O8 0.986291 0.646781 0.134978
O O9 0.757460 0.641686 0.008005
O O10 0.091532 0.750000 0.573935
O O11 0.750373 0.634233 0.251962
O O12 0.500755 0.750000 0.259690
#
# Coordination Sequence:
#
# PCOD9467979 Si02
#       5
#     8   8   8   8   8
#     4   9  19  35  53  79 120 157 188 240 304 360
#     4   9  21  39  61  85 121 157 208 260 314 375
#     4  10  21  40  63  86 124 169 213 263 322 388
#     4  10  21  35  61  92 116 157 211 260 317 379
#     4  10  23  41  64  98 135 171 217 276 336 391
#
# _framework density 20.576132000000001
#
# number of rings (size 3 to 8) (size 9 to 14) (size 15 to 20)
#    0.000    2.400    0.000    0.600    8.400    1.600 
#    0.000    2.000    0.000    0.000    0.000    0.000 
#    0.000    0.000    0.000    0.000    0.000    0.000 
#
# Total GULP energy -222851.579554 kJ/mol
# GULP energy per Si atom -5571.289489 kJ/mol
# Density = 2.052930 g / cm^3
# Si number density = 20.576132 Si / 1000 Ang^3
#
#
#
# Elastic Constant Matrix: (Units=GPa)
#
#
# Indices 1 2 3 4 5 6 
#
# 1 116.6256 10.1559 4.9819 0.0000 0.0000 0.0000
# 2 10.1559 38.2489 9.4003 0.0000 0.0000 0.0000
# 3 4.9819 9.4003 43.9918 0.0000 0.0000 0.0000
# 4 0.0000 0.0000 0.0000 17.4779 0.0000 0.0000
# 5 0.0000 0.0000 0.0000 0.0000 29.5593 0.0000
# 6 0.0000 0.0000 0.0000 0.0000 0.0000 23.1863
#
#
#
# Elastic Compliance Matrix: (Units=1/GPa)
#
#
# Indices 1 2 3 4 5 6 
#
# 1 0.008789 -0.002205 -0.000524 0.000000 0.000000 0.000000
# 2 -0.002205 0.028147 -0.005765 0.000000 0.000000 0.000000
# 3 -0.000524 -0.005765 0.024023 0.000000 0.000000 0.000000
# 4 0.000000 0.000000 0.000000 0.057215 0.000000 0.000000
# 5 0.000000 0.000000 0.000000 0.000000 0.033830 0.000000
# 6 0.000000 0.000000 0.000000 0.000000 0.000000 0.043129
#
#
# Mechanical properties :
#
#
# Convention : Reuss Voigt Hill
#
# Bulk Modulus (GPa) = 22.74236 27.54914 25.14575
# Shear Modulus (GPa) = 22.04811 25.66660 23.85735
#
# Velocity S-wave (km/s) = 3.27699 3.53568 3.40879
# Velocity P-wave (km/s) = 5.03934 5.48507 5.26692
#
# Compressibility (1/GPa) = 0.04397082
#
# Stress axis : x y z
#
# Youngs Moduli (GPa) = 113.78073 35.52808 41.62729
#
# Poissons Ratio (x) = 0.07833 0.02182
# Poissons Ratio (y) = 0.25086 0.23997
# Poissons Ratio (z) = 0.05964 0.20481
#
# Static dielectric constant tensor:
#      x y z
#    x 1.777040 0.000000 0.000000 
#    y 0.000000 1.744700 0.000000 
#    z 0.000000 0.000000 1.733560 
# 
# From -- ./inp_files/21465.got.cif
#   From: 2010.05.17/outbox.ucp.g08.bks.cvg/sg62_11_cif.got.tgz:21465.got - 2010.06.11 16:29:25.
