data_PCOD9467616
_publ_section_title
;
Structure prediction by ZEFSAII (Michael W. Deem and Ramdas Pophale) SiO2 
 PCOD9467616
Probable space group: P N M A
;
_chemical_formula_sum "Si O2"
_cell_formula_units_Z 56
_cell_length_a 8.858829
_cell_length_b 17.489878
_cell_length_c 15.548976
_cell_angle_alpha 90.000000
_cell_angle_beta 90.000000
_cell_angle_gamma 90.000000
_cell_volume 2409.155829
_symmetry_space_group_name_H-M "P N M A"
_symmetry_group_IT_number 62
_symmetry_cell_setting 'orthorhombic'
loop_
_space_group_symop_operation_xyz
x,y,z
1/2-x,-y,1/2+z
1/2+x,1/2-y,1/2-z
-x,1/2+y,-z
-x,-y,-z
1/2+x,y,1/2-z
1/2-x,1/2+y,1/2+z
x,1/2-y,z
loop_
_atom_site_type_symbol
_atom_site_label
_atom_site_fract_x
_atom_site_fract_y
_atom_site_fract_z
Si Si1 0.959308 0.750000 0.322350
Si Si2 0.310049 0.901928 0.102185
Si Si3 0.032767 0.162440 0.446455
Si Si4 0.549030 0.093517 0.577843
Si Si5 0.827212 0.007218 0.234074
Si Si6 0.326071 0.661063 0.573814
Si Si7 0.422804 0.611450 0.758687
Si Si8 0.683681 0.250000 0.640557
O O1 0.138102 0.750000 0.339813
O O2 0.876945 0.675168 0.357017
O O3 0.925611 0.750000 0.222114
O O4 0.346592 0.965405 0.174057
O O5 0.129755 0.899110 0.090432
O O6 0.389311 0.899775 0.008667
O O7 0.065776 0.250000 0.475132
O O8 0.086667 0.154194 0.348595
O O9 0.851913 0.153447 0.446295
O O10 0.614934 0.037200 0.650087
O O11 0.587562 0.091203 0.475972
O O12 0.639356 0.172151 0.594703
O O13 0.651614 0.027641 0.227799
O O14 0.905818 0.089691 0.236991
O O15 0.372649 0.750000 0.557250
O O16 0.355418 0.649862 0.674764
#
# Coordination Sequence:
#
# PCOD9467616 Si02
#       8
#     4   8   8   8   8   8   8   4
#     4  12  24  40  68 103 142 185 236 292 356 416
#     4  12  26  44  72 108 142 185 238 292 358 425
#     4  11  26  48  76 105 139 186 241 299 355 417
#     4  12  26  44  72 107 144 183 237 294 357 422
#     4  12  28  47  71 103 147 190 233 288 355 439
#     4  11  26  48  76 106 139 185 242 302 354 412
#     4  12  27  52  70 100 143 193 241 286 359 424
#     4  12  24  40  68 103 142 187 232 298 350 418
#
# _framework density 23.244657
#
# number of rings (size 3 to 8) (size 9 to 14) (size 15 to 20)
#    0.000    0.286    5.714    2.571    6.000    2.286 
#    0.000    0.000    0.000    0.000    0.000    0.000 
#    0.000    0.000    0.000    0.000    0.000    0.000 
#
# Total GULP energy -312973.660708 kJ/mol
# GULP energy per Si atom -5588.815370 kJ/mol
# Density = 2.319175 g / cm^3
# Si number density = 23.244657 Si / 1000 Ang^3
#
#
#
# Elastic Constant Matrix: (Units=GPa)
#
#
# Indices 1 2 3 4 5 6 
#
# 1 101.6447 19.6042 36.0240 0.0000 0.0000 0.0000
# 2 19.6042 49.2150 28.6132 0.0000 0.0000 0.0000
# 3 36.0240 28.6132 135.0165 0.0000 0.0000 0.0000
# 4 0.0000 0.0000 0.0000 49.1107 0.0000 0.0000
# 5 0.0000 0.0000 0.0000 0.0000 40.6641 0.0000
# 6 0.0000 0.0000 0.0000 0.0000 0.0000 27.7216
#
#
#
# Elastic Compliance Matrix: (Units=1/GPa)
#
#
# Indices 1 2 3 4 5 6 
#
# 1 0.011272 -0.003127 -0.002345 0.000000 0.000000 0.000000
# 2 -0.003127 0.024042 -0.004261 0.000000 0.000000 0.000000
# 3 -0.002345 -0.004261 0.008935 0.000000 0.000000 0.000000
# 4 0.000000 0.000000 0.000000 0.020362 0.000000 0.000000
# 5 0.000000 0.000000 0.000000 0.000000 0.024592 0.000000
# 6 0.000000 0.000000 0.000000 0.000000 0.000000 0.036073
#
#
# Mechanical properties :
#
#
# Convention : Reuss Voigt Hill
#
# Bulk Modulus (GPa) = 40.34846 50.48435 45.41640
# Shear Modulus (GPa) = 32.67922 36.94160 34.81041
#
# Velocity S-wave (km/s) = 3.75358 3.99087 3.87404
# Velocity P-wave (km/s) = 6.01512 6.55758 6.29220
#
# Compressibility (1/GPa) = 0.02478409
#
# Stress axis : x y z
#
# Youngs Moduli (GPa) = 88.71268 41.59436 111.91807
#
# Poissons Ratio (x) = 0.13006 0.26244
# Poissons Ratio (y) = 0.27739 0.47685
# Poissons Ratio (z) = 0.20803 0.17722
#
# Static dielectric constant tensor:
#      x y z
#    x 1.805670 0.000000 0.000000 
#    y 0.000000 1.950050 0.000000 
#    z 0.000000 0.000000 2.452120 
# 
# From -- ./inp_files/17248.got.cif
#   From: 2010.05.17/outbox.cif.g08.bks.cpg/sg62_9_cif.got.tgz:17248.got - 2010.06.03 15:25:27.
