data_PCOD9467908
_publ_section_title
;
Structure prediction by ZEFSAII (Michael W. Deem and Ramdas Pophale) SiO2 
 PCOD9467908
Probable space group: P N M A
;
_chemical_formula_sum "Si O2"
_cell_formula_units_Z 56
_cell_length_a 21.000000
_cell_length_b 9.000000
_cell_length_c 15.000000
_cell_angle_alpha 90.000000
_cell_angle_beta 90.000000
_cell_angle_gamma 90.000000
_cell_volume 2835.000000
_symmetry_space_group_name_H-M "P N M A"
_symmetry_group_IT_number 62
_symmetry_cell_setting 'orthorhombic'
loop_
_space_group_symop_operation_xyz
x,y,z
1/2-x,-y,1/2+z
1/2+x,1/2-y,1/2-z
-x,1/2+y,-z
-x,-y,-z
1/2+x,y,1/2-z
1/2-x,1/2+y,1/2+z
x,1/2-y,z
loop_
_atom_site_type_symbol
_atom_site_label
_atom_site_fract_x
_atom_site_fract_y
_atom_site_fract_z
Si Si1 0.700463 0.428879 0.426853
Si Si2 0.105320 0.428814 0.374507
Si Si3 0.002483 0.574523 0.761839
Si Si4 0.136112 0.428360 0.738019
Si Si5 0.778345 0.428152 0.733501
Si Si6 0.656973 0.927014 0.955535
Si Si7 0.940640 0.575984 0.951889
O O1 0.696111 0.250000 0.409142
O O2 0.709178 0.516722 0.334469
O O3 0.767529 0.452000 0.477637
O O4 0.632390 0.473975 0.469209
O O5 0.107449 0.250000 0.375548
O O6 0.167740 0.491122 0.323908
O O7 0.111937 0.496624 0.472393
O O8 0.040523 0.473013 0.322602
O O9 0.017325 0.750000 0.752611
O O10 0.069101 0.489245 0.775274
O O11 0.956142 0.558412 0.846989
O O12 0.132939 0.250000 0.731216
O O13 0.203625 0.463334 0.787088
O O14 0.143648 0.502476 0.640735
O O15 0.785891 0.250000 0.726205
O O16 0.647049 0.750000 0.952958
O O17 0.942968 0.750000 0.974574
O O18 0.000000 0.500000 0.000000
#
# Coordination Sequence:
#
# PCOD9467908 Si02
#       7
#     8   8   8   8   8   8   8
#     4   9  18  37  59  79 111 149 186 235 290 342
#     4  11  22  38  60  85 118 156 198 243 294 349
#     4  10  22  40  60  83 115 157 199 239 291 354
#     4  10  22  39  59  86 120 155 195 244 296 350
#     4  10  20  35  58  85 112 146 194 242 289 348
#     4  10  21  37  60  88 116 151 197 245 296 346
#     4  10  21  38  58  84 116 151 192 236 290 348
#
# _framework density 19.753086
#
# number of rings (size 3 to 8) (size 9 to 14) (size 15 to 20)
#    0.000    2.000    1.429    1.714    0.000    6.286 
#    0.000    4.286    0.000    0.000    0.000    0.000 
#    0.000    0.000    0.000    0.000    0.000    0.000 
#
# Total GULP energy -312591.585543 kJ/mol
# GULP energy per Si atom -5581.992599 kJ/mol
# Density = 1.970813 g / cm^3
# Si number density = 19.753086 Si / 1000 Ang^3
#
#
#
# Elastic Constant Matrix: (Units=GPa)
#
#
# Indices 1 2 3 4 5 6 
#
# 1 91.6011 23.2244 -20.6536 0.0000 0.0000 0.0000
# 2 23.2244 48.2213 -4.3669 0.0000 0.0000 0.0000
# 3 -20.6536 -4.3669 4.2839 0.0000 0.0000 0.0000
# 4 0.0000 0.0000 0.0000 29.5244 0.0000 0.0000
# 5 0.0000 0.0000 0.0000 0.0000 34.4159 0.0000
# 6 0.0000 0.0000 0.0000 0.0000 0.0000 38.1677
#
#
#
# Elastic Compliance Matrix: (Units=1/GPa)
#
#
# Indices 1 2 3 4 5 6 
#
# 1 -0.123722 0.006136 -0.590240 0.000000 0.000000 0.000000
# 2 0.006136 0.022542 0.052562 0.000000 0.000000 0.000000
# 3 -0.590240 0.052562 -2.558680 0.000000 0.000000 0.000000
# 4 0.000000 0.000000 0.000000 0.033870 0.000000 0.000000
# 5 0.000000 0.000000 0.000000 0.000000 0.029056 0.000000
# 6 0.000000 0.000000 0.000000 0.000000 0.000000 0.026200
#
#
# Mechanical properties :
#
#
# Convention : Reuss Voigt Hill
#
# Bulk Modulus (GPa) = -0.26860 15.61269 7.67204
# Shear Modulus (GPa) = -1.81909 30.14842 14.16466
#
# Velocity S-wave (km/s) = -0.96068 3.91098 2.68075
# Velocity P-wave (km/s) = 1.16911 5.32123 3.67074
#
# Compressibility (1/GPa) = -3.72294399
#
# Stress axis : x y z
#
# Youngs Moduli (GPa) = -8.08263 44.36075 -0.39083
#
# Poissons Ratio (x) = -0.27219 -0.23068
# Poissons Ratio (y) = 0.04959 0.02054
# Poissons Ratio (z) = -4.77069 -2.33169
#
# Static dielectric constant tensor:
#      x y z
#    x 1.708810 0.000000 0.000000 
#    y 0.000000 1.657860 0.000000 
#    z 0.000000 0.000000 1.721940 
# 
# From -- ./inp_files/20213.got.cif
#   From: 2010.05.17/outbox.ucp.g08.bks.cvg/sg62_11_cif.got.tgz:20213.got - 2010.06.11 16:29:25.
