data_PCOD9467819
_publ_section_title
;
Structure prediction by ZEFSAII (Michael W. Deem and Ramdas Pophale) SiO2 
 PCOD9467819
Probable space group: P N M A
;
_chemical_formula_sum "Si O2"
_cell_formula_units_Z 56
_cell_length_a 18.000000
_cell_length_b 9.000000
_cell_length_c 21.000000
_cell_angle_alpha 90.000000
_cell_angle_beta 90.000000
_cell_angle_gamma 90.000000
_cell_volume 3402.000000
_symmetry_space_group_name_H-M "P N M A"
_symmetry_group_IT_number 62
_symmetry_cell_setting 'orthorhombic'
loop_
_space_group_symop_operation_xyz
x,y,z
1/2-x,-y,1/2+z
1/2+x,1/2-y,1/2-z
-x,1/2+y,-z
-x,-y,-z
1/2+x,y,1/2-z
1/2-x,1/2+y,1/2+z
x,1/2-y,z
loop_
_atom_site_type_symbol
_atom_site_label
_atom_site_fract_x
_atom_site_fract_y
_atom_site_fract_z
Si Si1 0.465902 0.070119 0.837272
Si Si2 0.876074 0.929135 0.404714
Si Si3 0.198500 0.072256 0.966850
Si Si4 0.925870 0.429976 0.812429
Si Si5 0.968308 0.929412 0.065845
Si Si6 0.142214 0.429093 0.445713
Si Si7 0.284706 0.928486 0.616907
O O1 0.459284 0.250000 0.840782
O O2 0.549649 0.032434 0.863630
O O3 0.449369 0.030078 0.761709
O O4 0.408339 0.999178 0.889084
O O5 0.866902 0.750000 0.401398
O O6 0.884059 0.966870 0.480933
O O7 0.799385 0.004635 0.379591
O O8 0.210100 0.250000 0.959564
O O9 0.120094 0.032780 0.933342
O O10 0.272557 0.988677 0.942775
O O11 0.191254 0.042564 0.043042
O O12 0.919395 0.250000 0.813287
O O13 0.847067 0.500477 0.836199
O O14 0.986054 0.470010 0.869099
O O15 0.973548 0.750000 0.059882
O O16 0.000000 0.000000 0.000000
O O17 0.140685 0.250000 0.440163
O O18 0.282428 0.750000 0.626100
#
# Coordination Sequence:
#
# PCOD9467819 Si02
#       7
#     8   8   8   8   8   8   8
#     4  10  21  38  56  78 109 145 183 224 273 328
#     4   9  19  36  58  82 108 140 184 228 269 322
#     4   9  18  33  53  80 110 140 177 220 269 322
#     4  10  21  36  55  78 107 145 184 223 270 325
#     4  10  19  33  55  80 107 141 183 227 269 317
#     4  10  20  34  56  83 109 140 179 230 277 320
#     4  10  19  33  55  81 109 141 177 220 273 323
#
# _framework density 16.460905
#
# number of rings (size 3 to 8) (size 9 to 14) (size 15 to 20)
#    0.000    2.286    1.429    1.286    0.000    2.857 
#    2.571    0.000    0.000    0.000    0.000    0.000 
#    0.000    0.000    0.000    0.000    0.000    0.000 
#
# Total GULP energy -312037.527500 kJ/mol
# GULP energy per Si atom -5572.098705 kJ/mol
# Density = 1.642344 g / cm^3
# Si number density = 16.460905 Si / 1000 Ang^3
#
#
#
# Elastic Constant Matrix: (Units=GPa)
#
#
# Indices 1 2 3 4 5 6 
#
# 1 168.9061 46.5385 92.8267 0.0000 0.0000 0.0000
# 2 46.5385 46.9227 40.9368 0.0000 0.0000 0.0000
# 3 92.8267 40.9368 148.9186 0.0000 0.0000 0.0000
# 4 0.0000 0.0000 0.0000 31.1350 0.0000 0.0000
# 5 0.0000 0.0000 0.0000 0.0000 36.3381 0.0000
# 6 0.0000 0.0000 0.0000 0.0000 0.0000 33.2667
#
#
#
# Elastic Compliance Matrix: (Units=1/GPa)
#
#
# Indices 1 2 3 4 5 6 
#
# 1 0.010136 -0.005974 -0.004676 0.000000 0.000000 0.000000
# 2 -0.005974 0.031556 -0.004951 0.000000 0.000000 0.000000
# 3 -0.004676 -0.004951 0.010991 0.000000 0.000000 0.000000
# 4 0.000000 0.000000 0.000000 0.032118 0.000000 0.000000
# 5 0.000000 0.000000 0.000000 0.000000 0.027519 0.000000
# 6 0.000000 0.000000 0.000000 0.000000 0.000000 0.030060
#
#
# Mechanical properties :
#
#
# Convention : Reuss Voigt Hill
#
# Bulk Modulus (GPa) = 46.55185 80.59459 63.57322
# Shear Modulus (GPa) = 27.66369 32.44432 30.05400
#
# Velocity S-wave (km/s) = 4.10392 4.44440 4.27755
# Velocity P-wave (km/s) = 7.12726 8.68357 7.94362
#
# Compressibility (1/GPa) = 0.02148142
#
# Stress axis : x y z
#
# Youngs Moduli (GPa) = 98.65541 31.69007 90.98428
#
# Poissons Ratio (x) = 0.18930 0.42546
# Poissons Ratio (y) = 0.58933 0.45045
# Poissons Ratio (z) = 0.46134 0.15689
#
# Static dielectric constant tensor:
#      x y z
#    x 1.563240 0.000000 0.000000 
#    y 0.000000 1.555030 0.000000 
#    z 0.000000 0.000000 1.553370 
# 
# From -- ./inp_files/27575.got.cif
#   From: 2010.05.17/outbox.ucp.g08.bks.cvg/sg62_14_cif.got.tgz:27575.got - 2010.06.11 16:29:25.
