data_PCOD9467845
_publ_section_title
;
Structure prediction by ZEFSAII (Michael W. Deem and Ramdas Pophale) SiO2 
 PCOD9467845
Probable space group: P N M A
;
_chemical_formula_sum "Si O2"
_cell_formula_units_Z 48
_cell_length_a 15.000000
_cell_length_b 9.000000
_cell_length_c 18.000000
_cell_angle_alpha 90.000000
_cell_angle_beta 90.000000
_cell_angle_gamma 90.000000
_cell_volume 2430.000000
_symmetry_space_group_name_H-M "P N M A"
_symmetry_group_IT_number 62
_symmetry_cell_setting 'orthorhombic'
loop_
_space_group_symop_operation_xyz
x,y,z
1/2-x,-y,1/2+z
1/2+x,1/2-y,1/2-z
-x,1/2+y,-z
-x,-y,-z
1/2+x,y,1/2-z
1/2-x,1/2+y,1/2+z
x,1/2-y,z
loop_
_atom_site_type_symbol
_atom_site_label
_atom_site_fract_x
_atom_site_fract_y
_atom_site_fract_z
Si Si1 0.721247 0.927189 0.670044
Si Si2 0.558204 0.427576 0.434691
Si Si3 0.467698 0.071969 0.278589
Si Si4 0.907778 0.416744 0.506502
Si Si5 0.103008 0.914734 0.316545
Si Si6 0.729840 0.573772 0.493179
O O1 0.728539 0.750000 0.676235
O O2 0.632760 0.980054 0.710440
O O3 0.713100 0.957372 0.581395
O O4 0.807942 0.999609 0.704956
O O5 0.500000 0.500000 0.500000
O O6 0.553987 0.250000 0.441969
O O7 0.519975 0.467639 0.354146
O O8 0.657027 0.487462 0.446161
O O9 0.467763 0.250000 0.272837
O O10 0.517127 0.002491 0.209461
O O11 0.909930 0.250000 0.475326
O O12 0.892514 0.406019 0.594810
O O13 0.827386 0.513222 0.474680
O O14 0.000000 0.500000 0.500000
O O15 0.101000 0.750000 0.284883
O O16 0.722871 0.750000 0.483067
#
# Coordination Sequence:
#
# PCOD9467845 Si02
#       6
#     8   8   8   8   8   8
#     4   9  18  36  59  80 107 148 189 224 273 338
#     4  11  21  35  56  86 118 149 188 230 278 337
#     4  10  21  38  58  82 113 151 191 229 277 341
#     4  10  21  39  61  86 113 148 191 235 284 338
#     4  10  22  38  57  85 114 144 187 236 283 332
#     4  10  19  35  58  85 114 146 185 232 281 334
#
# _framework density 19.753086
#
# number of rings (size 3 to 8) (size 9 to 14) (size 15 to 20)
#    0.000    2.000    1.667    2.000    0.000    4.667 
#    3.000    0.000    0.000    0.000    0.000    0.000 
#    0.000    0.000    0.000    0.000    0.000    0.000 
#
# Total GULP energy -267849.540273 kJ/mol
# GULP energy per Si atom -5580.198756 kJ/mol
# Density = 1.970813 g / cm^3
# Si number density = 19.753086 Si / 1000 Ang^3
#
#
#
# Elastic Constant Matrix: (Units=GPa)
#
#
# Indices 1 2 3 4 5 6 
#
# 1 127.3848 26.8221 -5.2533 0.0000 0.0000 0.0000
# 2 26.8221 31.4651 11.8987 0.0000 0.0000 0.0000
# 3 -5.2533 11.8987 -13.1738 0.0000 0.0000 0.0000
# 4 0.0000 0.0000 0.0000 22.9706 0.0000 0.0000
# 5 0.0000 0.0000 0.0000 0.0000 26.0097 0.0000
# 6 0.0000 0.0000 0.0000 0.0000 0.0000 28.4524
#
#
#
# Elastic Compliance Matrix: (Units=1/GPa)
#
#
# Indices 1 2 3 4 5 6 
#
# 1 0.008479 -0.004435 -0.007387 0.000000 0.000000 0.000000
# 2 -0.004435 0.026009 0.025260 0.000000 0.000000 0.000000
# 3 -0.007387 0.025260 -0.050147 0.000000 0.000000 0.000000
# 4 0.000000 0.000000 0.000000 0.043534 0.000000 0.000000
# 5 0.000000 0.000000 0.000000 0.000000 0.038447 0.000000
# 6 0.000000 0.000000 0.000000 0.000000 0.000000 0.035146
#
#
# Mechanical properties :
#
#
# Convention : Reuss Voigt Hill
#
# Bulk Modulus (GPa) = 89.13676 23.62346 56.38011
# Shear Modulus (GPa) = 63.83161 22.96711 43.39936
#
# Velocity S-wave (km/s) = 5.69077 3.41355 4.69240
# Velocity P-wave (km/s) = 9.40230 5.24612 7.61331
#
# Compressibility (1/GPa) = 0.01121872
#
# Stress axis : x y z
#
# Youngs Moduli (GPa) = 117.93304 38.44773 -19.94122
#
# Poissons Ratio (x) = 0.17051 -0.14730
# Poissons Ratio (y) = 0.52301 0.50372
# Poissons Ratio (z) = 0.87115 -0.97120
#
# Static dielectric constant tensor:
#      x y z
#    x 1.749600 0.000000 0.000000 
#    y 0.000000 1.692770 0.000000 
#    z 0.000000 0.000000 1.689780 
# 
# From -- ./inp_files/23731.got.cif
#   From: 2010.05.17/outbox.ucp.g08.bks.cvg/sg62_12_cif.got.tgz:23731.got - 2010.06.11 16:29:25.
