data_PCOD9467146
_publ_section_title
;
Structure prediction by ZEFSAII (Michael W. Deem and Ramdas Pophale) SiO2 
 PCOD9467146
Probable space group: P N M A
;
_chemical_formula_sum "Si O2"
_cell_formula_units_Z 32
_cell_length_a 4.838667
_cell_length_b 13.127518
_cell_length_c 20.232355
_cell_angle_alpha 90.000000
_cell_angle_beta 90.000000
_cell_angle_gamma 90.000000
_cell_volume 1285.152880
_symmetry_space_group_name_H-M "P N M A"
_symmetry_group_IT_number 62
_symmetry_cell_setting 'orthorhombic'
loop_
_space_group_symop_operation_xyz
x,y,z
1/2-x,-y,1/2+z
1/2+x,1/2-y,1/2-z
-x,1/2+y,-z
-x,-y,-z
1/2+x,y,1/2-z
1/2-x,1/2+y,1/2+z
x,1/2-y,z
loop_
_atom_site_type_symbol
_atom_site_label
_atom_site_fract_x
_atom_site_fract_y
_atom_site_fract_z
Si Si1 0.101500 0.750000 0.205314
Si Si2 0.595938 0.250000 0.206006
Si Si3 0.448547 0.935114 0.390995
Si Si4 0.766839 0.363724 0.395926
Si Si5 0.442545 0.630130 0.034905
O O1 0.916812 0.750000 0.271429
O O2 0.029632 0.648839 0.163560
O O3 0.910482 0.250000 0.227715
O O4 0.488719 0.155716 0.162261
O O5 0.130641 0.923080 0.409676
O O6 0.626948 0.901785 0.455743
O O7 0.554907 0.048277 0.377071
O O8 0.638245 0.250000 0.407263
O O9 0.930464 0.388799 0.463204
O O10 0.461367 0.750000 0.047144
#
# Coordination Sequence:
#
# PCOD9467146 Si02
#       5
#     4   4   8   8   8
#     4  12  26  42  64  92 126 172 222 254 310 370
#     4  10  24  42  62  86 128 168 216 250 304 372
#     4  12  23  43  68  95 131 166 208 268 321 378
#     4   9  24  43  66 100 127 168 210 264 320 384
#     4  11  21  41  67 100 129 161 208 266 328 383
#
# _framework density 24.899760000000001
#
# number of rings (size 3 to 8) (size 9 to 14) (size 15 to 20)
#    0.750    0.500    2.500    3.000    0.000    6.000 
#    0.000    0.000    0.000    0.000    0.000    0.000 
#    0.000    0.000    0.000    0.000    0.000    0.000 
#
# Total GULP energy -179341.068892 kJ/mol
# GULP energy per Si atom -5604.408403 kJ/mol
# Density = 2.484309 g / cm^3
# Si number density = 24.899760 Si / 1000 Ang^3
#
#
#
# Elastic Constant Matrix: (Units=GPa)
#
#
# Indices 1 2 3 4 5 6 
#
# 1 83.1588 13.7097 7.3705 0.0000 0.0000 0.0000
# 2 13.7097 165.5339 19.6711 0.0000 0.0000 0.0000
# 3 7.3705 19.6711 83.6826 0.0000 0.0000 0.0000
# 4 0.0000 0.0000 0.0000 28.0045 0.0000 0.0000
# 5 0.0000 0.0000 0.0000 0.0000 41.6368 0.0000
# 6 0.0000 0.0000 0.0000 0.0000 0.0000 31.1550
#
#
#
# Elastic Compliance Matrix: (Units=1/GPa)
#
#
# Indices 1 2 3 4 5 6 
#
# 1 0.012252 -0.000912 -0.000865 0.000000 0.000000 0.000000
# 2 -0.000912 0.006283 -0.001397 0.000000 0.000000 0.000000
# 3 -0.000865 -0.001397 0.012354 0.000000 0.000000 0.000000
# 4 0.000000 0.000000 0.000000 0.035709 0.000000 0.000000
# 5 0.000000 0.000000 0.000000 0.000000 0.024017 0.000000
# 6 0.000000 0.000000 0.000000 0.000000 0.000000 0.032098
#
#
# Mechanical properties :
#
#
# Convention : Reuss Voigt Hill
#
# Bulk Modulus (GPa) = 40.74546 45.98643 43.36595
# Shear Modulus (GPa) = 36.43257 39.60085 38.01671
#
# Velocity S-wave (km/s) = 3.82929 3.99232 3.91166
# Velocity P-wave (km/s) = 5.99588 6.30557 6.15268
#
# Compressibility (1/GPa) = 0.02454261
#
# Stress axis : x y z
#
# Youngs Moduli (GPa) = 81.61814 159.17120 80.94315
#
# Poissons Ratio (x) = 0.14516 0.07000
# Poissons Ratio (y) = 0.07443 0.11304
# Poissons Ratio (z) = 0.07058 0.22228
#
# Static dielectric constant tensor:
#      x y z
#    x 1.888540 0.000000 0.000000 
#    y 0.000000 2.006270 0.000000 
#    z 0.000000 0.000000 1.964020 
# 
# From -- ./inp_files/25181.got.cif
#   From: 2010.05.17/outbox.cif.g08.bks.cpg/sg62_13_cif.got.tgz:25181.got - 2010.06.03 15:25:27.
