data_PCOD9467732
_publ_section_title
;
Structure prediction by ZEFSAII (Michael W. Deem and Ramdas Pophale) SiO2 
 PCOD9467732
Probable space group: P N M A
;
_chemical_formula_sum "Si O2"
_cell_formula_units_Z 40
_cell_length_a 16.122011
_cell_length_b 7.482746
_cell_length_c 16.398556
_cell_angle_alpha 90.000000
_cell_angle_beta 90.000000
_cell_angle_gamma 90.000000
_cell_volume 1978.271179
_symmetry_space_group_name_H-M "P N M A"
_symmetry_group_IT_number 62
_symmetry_cell_setting 'orthorhombic'
loop_
_space_group_symop_operation_xyz
x,y,z
1/2-x,-y,1/2+z
1/2+x,1/2-y,1/2-z
-x,1/2+y,-z
-x,-y,-z
1/2+x,y,1/2-z
1/2-x,1/2+y,1/2+z
x,1/2-y,z
loop_
_atom_site_type_symbol
_atom_site_label
_atom_site_fract_x
_atom_site_fract_y
_atom_site_fract_z
Si Si1 0.805136 0.465257 0.939081
Si Si2 0.555788 0.036302 0.304242
Si Si3 0.380904 0.967476 0.048066
Si Si4 0.570145 0.536516 0.568088
Si Si5 0.052921 0.457571 0.375364
O O1 0.802887 0.250000 0.944145
O O2 0.866845 0.508836 0.864872
O O3 0.711134 0.526548 0.928235
O O4 0.846686 0.530991 0.024088
O O5 0.544769 0.250000 0.296633
O O6 0.472364 0.966587 0.349372
O O7 0.569780 0.963667 0.213653
O O8 0.384010 0.750000 0.048785
O O9 0.454865 0.030984 0.105994
O O10 0.402867 0.031252 0.956270
O O11 0.500000 0.500000 0.500000
O O12 0.579449 0.750000 0.577598
O O13 0.078291 0.250000 0.372415
#
# Coordination Sequence:
#
# PCOD9467732 Si02
#       5
#     8   8   8   8   8
#     4   9  17  30  48  69  94 126 158 190 233 282
#     4   9  17  30  48  73  98 120 154 197 236 276
#     4   9  18  33  50  67  93 128 162 192 231 282
#     4   8  14  26  44  65  91 121 149 182 227 275
#     4   9  18  33  50  70  94 125 161 195 235 278
#
# _framework density 20.219674000000001
#
# number of rings (size 3 to 8) (size 9 to 14) (size 15 to 20)
#    0.000    3.200    0.000    0.000    0.000    1.600 
#    3.600    0.000    0.000    0.000    0.000    0.000 
#    0.000    0.000    0.000    0.000    0.000    0.000 
#
# Total GULP energy -222751.340841 kJ/mol
# GULP energy per Si atom -5568.783521 kJ/mol
# Density = 2.017365 g / cm^3
# Si number density = 20.219674 Si / 1000 Ang^3
#
#
#
# Elastic Constant Matrix: (Units=GPa)
#
#
# Indices 1 2 3 4 5 6 
#
# 1 77.7969 -16.7243 38.8152 0.0000 0.0000 0.0000
# 2 -16.7243 57.5656 -3.2687 0.0000 0.0000 0.0000
# 3 38.8152 -3.2687 113.8922 0.0000 0.0000 0.0000
# 4 0.0000 0.0000 0.0000 -12.4980 0.0000 0.0000
# 5 0.0000 0.0000 0.0000 0.0000 10.0832 0.0000
# 6 0.0000 0.0000 0.0000 0.0000 0.0000 16.8556
#
#
#
# Elastic Compliance Matrix: (Units=1/GPa)
#
#
# Indices 1 2 3 4 5 6 
#
# 1 0.016576 0.004502 -0.005520 0.000000 0.000000 0.000000
# 2 0.004502 0.018623 -0.001000 0.000000 0.000000 0.000000
# 3 -0.005520 -0.001000 0.010633 0.000000 0.000000 0.000000
# 4 0.000000 0.000000 0.000000 -0.080013 0.000000 0.000000
# 5 0.000000 0.000000 0.000000 0.000000 0.099175 0.000000
# 6 0.000000 0.000000 0.000000 0.000000 0.000000 0.059327
#
#
# Mechanical properties :
#
#
# Convention : Reuss Voigt Hill
#
# Bulk Modulus (GPa) = 23.92561 31.87769 27.90165
# Shear Modulus (GPa) = 35.13986 18.25032 26.69509
#
# Velocity S-wave (km/s) = 4.17334 3.00759 3.63747
# Velocity P-wave (km/s) = 5.92291 5.27833 5.60988
#
# Compressibility (1/GPa) = 0.04179622
#
# Stress axis : x y z
#
# Youngs Moduli (GPa) = 60.32839 53.69780 94.04876
#
# Poissons Ratio (x) = -0.24176 0.51915
# Poissons Ratio (y) = -0.27162 0.09404
# Poissons Ratio (z) = 0.33301 0.05370
#
# Static dielectric constant tensor:
#      x y z
#    x 1.706160 0.000000 0.000000 
#    y 0.000000 1.761600 0.000000 
#    z 0.000000 0.000000 1.735830 
# 
# From -- ./inp_files/17779.got.cif
#   From: 2010.05.17/outbox.cif.g08.bks.cpg/sg62_9_cif.got.tgz:17779.got - 2010.06.03 15:25:27.
