data_PCOD9467396
_publ_section_title
;
Structure prediction by ZEFSAII (Michael W. Deem and Ramdas Pophale) SiO2 
 PCOD9467396
Probable space group: P N M A
;
_chemical_formula_sum "Si O2"
_cell_formula_units_Z 48
_cell_length_a 16.225564
_cell_length_b 16.113013
_cell_length_c 7.921816
_cell_angle_alpha 90.000000
_cell_angle_beta 90.000000
_cell_angle_gamma 90.000000
_cell_volume 2071.101151
_symmetry_space_group_name_H-M "P N M A"
_symmetry_group_IT_number 62
_symmetry_cell_setting 'orthorhombic'
loop_
_space_group_symop_operation_xyz
x,y,z
1/2-x,-y,1/2+z
1/2+x,1/2-y,1/2-z
-x,1/2+y,-z
-x,-y,-z
1/2+x,y,1/2-z
1/2-x,1/2+y,1/2+z
x,1/2-y,z
loop_
_atom_site_type_symbol
_atom_site_label
_atom_site_fract_x
_atom_site_fract_y
_atom_site_fract_z
Si Si1 0.865051 0.155593 0.616335
Si Si2 0.632545 0.157069 0.038118
Si Si3 0.747036 0.547911 0.337110
Si Si4 0.117166 0.508927 0.904347
Si Si5 0.031410 0.650283 0.720417
Si Si6 0.530952 0.159156 0.686141
O O1 0.836862 0.250000 0.594708
O O2 0.789422 0.102825 0.684278
O O3 0.912802 0.131613 0.445618
O O4 0.935947 0.153828 0.759324
O O5 0.660313 0.250000 0.084242
O O6 0.563351 0.129066 0.171984
O O7 0.708962 0.100304 0.986892
O O8 0.580996 0.162754 0.863450
O O9 0.817473 0.494725 0.250202
O O10 0.669150 0.506582 0.424782
O O11 0.066196 0.592704 0.867949
O O12 0.063630 0.425490 0.893046
O O13 0.036453 0.750000 0.747165
O O14 0.545314 0.250000 0.602083
#
# Coordination Sequence:
#
# PCOD9467396 Si02
#       6
#     8   8   8   8   8   8
#     4   9  18  35  59  83 109 143 183 228 279 336
#     4   8  16  33  56  78 103 142 186 222 267 334
#     4  11  22  34  53  82 114 145 185 234 284 326
#     4  11  23  36  55  82 113 149 188 233 280 329
#     4   9  19  37  59  82 109 145 187 228 273 331
#     4   8  17  35  57  79 104 142 189 228 273 338
#
# _framework density 23.176078
#
# number of rings (size 3 to 8) (size 9 to 14) (size 15 to 20)
#    0.000    2.667    0.000    3.500    0.000   10.000 
#    0.000    0.833    0.000    2.000    0.000    1.167 
#    0.000    0.000    0.000    0.000    0.000    0.000 
#
# Total GULP energy -268129.250732 kJ/mol
# GULP energy per Si atom -5586.026057 kJ/mol
# Density = 2.312333 g / cm^3
# Si number density = 23.176078 Si / 1000 Ang^3
#
#
#
# Elastic Constant Matrix: (Units=GPa)
#
#
# Indices 1 2 3 4 5 6 
#
# 1 75.2025 51.1760 28.1268 0.0000 0.0000 0.0000
# 2 51.1760 76.9085 36.3181 0.0000 0.0000 0.0000
# 3 28.1268 36.3181 82.5864 0.0000 0.0000 0.0000
# 4 0.0000 0.0000 0.0000 -96.6142 0.0000 0.0000
# 5 0.0000 0.0000 0.0000 0.0000 50.9627 0.0000
# 6 0.0000 0.0000 0.0000 0.0000 0.0000 24.0328
#
#
#
# Elastic Compliance Matrix: (Units=1/GPa)
#
#
# Indices 1 2 3 4 5 6 
#
# 1 0.024444 -0.015567 -0.001479 0.000000 0.000000 0.000000
# 2 -0.015567 0.026324 -0.006274 0.000000 0.000000 0.000000
# 3 -0.001479 -0.006274 0.015372 0.000000 0.000000 0.000000
# 4 0.000000 0.000000 0.000000 -0.010350 0.000000 0.000000
# 5 0.000000 0.000000 0.000000 0.000000 0.019622 0.000000
# 6 0.000000 0.000000 0.000000 0.000000 0.000000 0.041610
#
#
# Mechanical properties :
#
#
# Convention : Reuss Voigt Hill
#
# Bulk Modulus (GPa) = 51.28687 51.77103 51.52895
# Shear Modulus (GPa) = 29.38375 3.61468 16.49922
#
# Velocity S-wave (km/s) = 3.56455 1.25022 2.67105
# Velocity P-wave (km/s) = 6.25449 4.94679 5.63867
#
# Compressibility (1/GPa) = 0.01949817
#
# Stress axis : x y z
#
# Youngs Moduli (GPa) = 40.90953 37.98836 65.05503
#
# Poissons Ratio (x) = 0.59136 0.09624
# Poissons Ratio (y) = 0.63683 0.40818
# Poissons Ratio (z) = 0.06052 0.23836
#
# Static dielectric constant tensor:
#      x y z
#    x 1.837250 0.000000 0.000000 
#    y 0.000000 1.857490 0.000000 
#    z 0.000000 0.000000 1.874590 
# 
# From -- ./inp_files/6418.got.cif
#   From: 2010.05.17/outbox.cif.g08.bks.cpg/sg62_4_cif.got.tgz:6418.got - 2010.06.03 15:25:27.
