data_PCOD9467779
_publ_section_title
;
Structure prediction by ZEFSAII (Michael W. Deem and Ramdas Pophale) SiO2 
 PCOD9467779
Probable space group: P N M A
;
_chemical_formula_sum "Si O2"
_cell_formula_units_Z 64
_cell_length_a 15.000000
_cell_length_b 9.000000
_cell_length_c 24.000000
_cell_angle_alpha 90.000000
_cell_angle_beta 90.000000
_cell_angle_gamma 90.000000
_cell_volume 3240.000000
_symmetry_space_group_name_H-M "P N M A"
_symmetry_group_IT_number 62
_symmetry_cell_setting 'orthorhombic'
loop_
_space_group_symop_operation_xyz
x,y,z
1/2-x,-y,1/2+z
1/2+x,1/2-y,1/2-z
-x,1/2+y,-z
-x,-y,-z
1/2+x,y,1/2-z
1/2-x,1/2+y,1/2+z
x,1/2-y,z
loop_
_atom_site_type_symbol
_atom_site_label
_atom_site_fract_x
_atom_site_fract_y
_atom_site_fract_z
Si Si1 0.603533 0.080829 0.131191
Si Si2 0.653109 0.425013 0.732219
Si Si3 0.909994 0.425015 0.335432
Si Si4 0.230559 0.573769 0.452391
Si Si5 0.834824 0.925070 0.757894
Si Si6 0.081856 0.070289 0.126322
Si Si7 0.765103 0.069155 0.423542
Si Si8 0.615189 0.928389 0.613722
O O1 0.629847 0.250000 0.116242
O O2 0.498173 0.063957 0.127658
O O3 0.624521 0.062398 0.196555
O O4 0.656465 0.970155 0.092385
O O5 0.646633 0.250000 0.723303
O O6 0.584474 0.483758 0.778521
O O7 0.748091 0.473276 0.757522
O O8 0.644347 0.511468 0.674204
O O9 0.898837 0.250000 0.320864
O O10 0.829464 0.478451 0.373999
O O11 0.244386 0.750000 0.452332
O O12 0.206102 0.525084 0.514790
O O13 0.319964 0.494002 0.432249
O O14 0.810030 0.750000 0.765984
O O15 0.898968 0.965707 0.808970
O O16 0.080244 0.250000 0.123405
O O17 0.165264 0.018681 0.090135
O O18 0.986149 0.019022 0.106197
O O19 0.766473 0.250000 0.421710
O O20 0.619836 0.750000 0.614218
#
# Coordination Sequence:
#
# PCOD9467779 Si02
#       8
#     8   8   8   8   8   8   8   8
#     4  10  21  36  60  90 114 150 199 238 281 340
#     4  12  23  35  56  89 123 153 182 232 299 350
#     4  10  20  39  65  87 112 153 199 237 279 346
#     4  11  23  38  57  84 119 156 192 240 298 343
#     4  10  18  34  60  85 113 149 189 235 282 346
#     4   9  18  35  62  89 110 145 196 239 281 338
#     4   9  19  37  61  86 114 151 195 241 290 341
#     4  11  22  38  61  86 113 153 200 242 282 342
#
# _framework density 19.753086
#
# number of rings (size 3 to 8) (size 9 to 14) (size 15 to 20)
#    0.000    1.750    2.500    2.625    0.000    3.500 
#    0.000    3.750    0.000    0.000    0.000    0.000 
#    0.000    0.000    0.000    0.000    0.000    0.000 
#
# Total GULP energy -357211.638893 kJ/mol
# GULP energy per Si atom -5581.431858 kJ/mol
# Density = 1.970813 g / cm^3
# Si number density = 19.753086 Si / 1000 Ang^3
#
#
#
# Elastic Constant Matrix: (Units=GPa)
#
#
# Indices 1 2 3 4 5 6 
#
# 1 56.8388 10.1846 -4.0833 0.0000 0.0000 0.0000
# 2 10.1846 49.9867 14.8900 0.0000 0.0000 0.0000
# 3 -4.0833 14.8900 44.2307 0.0000 0.0000 0.0000
# 4 0.0000 0.0000 0.0000 13.0299 0.0000 0.0000
# 5 0.0000 0.0000 0.0000 0.0000 -15.6775 0.0000
# 6 0.0000 0.0000 0.0000 0.0000 0.0000 0.3537
#
#
#
# Elastic Compliance Matrix: (Units=1/GPa)
#
#
# Indices 1 2 3 4 5 6 
#
# 1 0.018695 -0.004805 0.003343 0.000000 0.000000 0.000000
# 2 -0.004805 0.023470 -0.008345 0.000000 0.000000 0.000000
# 3 0.003343 -0.008345 0.025727 0.000000 0.000000 0.000000
# 4 0.000000 0.000000 0.000000 0.076747 0.000000 0.000000
# 5 0.000000 0.000000 0.000000 0.000000 -0.063786 0.000000
# 6 0.000000 0.000000 0.000000 0.000000 0.000000 2.827354
#
#
# Mechanical properties :
#
#
# Convention : Reuss Voigt Hill
#
# Bulk Modulus (GPa) = 20.71292 21.44876 21.08084
# Shear Modulus (GPa) = 1.69842 8.21221 4.95531
#
# Velocity S-wave (km/s) = 0.92827 2.04119 1.58558
# Velocity P-wave (km/s) = 3.41432 4.05429 3.74799
#
# Compressibility (1/GPa) = 0.04827906
#
# Stress axis : x y z
#
# Youngs Moduli (GPa) = 53.49093 42.60762 38.87036
#
# Poissons Ratio (x) = 0.20473 -0.12996
# Poissons Ratio (y) = 0.25702 0.32436
# Poissons Ratio (z) = -0.17884 0.35554
#
# Static dielectric constant tensor:
#      x y z
#    x 1.759510 0.000000 0.000000 
#    y 0.000000 1.668780 0.000000 
#    z 0.000000 0.000000 1.667330 
# 
# From -- ./inp_files/29868.got.cif
#   From: 2010.05.17/outbox.ucp.g08.bks.cvg/sg62_15_cif.got.tgz:29868.got - 2010.06.11 16:29:25.
