data_PCOD9467571
_publ_section_title
;
Structure prediction by ZEFSAII (Michael W. Deem and Ramdas Pophale) SiO2 
 PCOD9467571
Probable space group: P N M A
;
_chemical_formula_sum "Si O2"
_cell_formula_units_Z 64
_cell_length_a 10.814605
_cell_length_b 30.297527
_cell_length_c 8.971603
_cell_angle_alpha 90.000000
_cell_angle_beta 90.000000
_cell_angle_gamma 90.000000
_cell_volume 2939.597641
_symmetry_space_group_name_H-M "P N M A"
_symmetry_group_IT_number 62
_symmetry_cell_setting 'orthorhombic'
loop_
_space_group_symop_operation_xyz
x,y,z
1/2-x,-y,1/2+z
1/2+x,1/2-y,1/2-z
-x,1/2+y,-z
-x,-y,-z
1/2+x,y,1/2-z
1/2-x,1/2+y,1/2+z
x,1/2-y,z
loop_
_atom_site_type_symbol
_atom_site_label
_atom_site_fract_x
_atom_site_fract_y
_atom_site_fract_z
Si Si1 0.254939 0.801206 0.085671
Si Si2 0.691418 0.360951 0.660759
Si Si3 0.458196 0.479714 0.791379
Si Si4 0.193537 0.436209 0.304254
Si Si5 0.428733 0.847180 0.852638
Si Si6 0.368855 0.081906 0.048352
Si Si7 0.790132 0.557059 0.345235
Si Si8 0.515206 0.301745 0.456222
O O1 0.279026 0.750000 0.109923
O O2 0.235697 0.824141 0.245670
O O3 0.366943 0.821059 0.988545
O O4 0.129506 0.806631 0.992125
O O5 0.767393 0.392999 0.552393
O O6 0.659975 0.394785 0.795124
O O7 0.588595 0.334955 0.566506
O O8 0.416907 0.530077 0.765336
O O9 0.603108 0.471756 0.764324
O O10 0.350586 0.453156 0.702284
O O11 0.435623 0.456541 0.953064
O O12 0.165352 0.384414 0.294680
O O13 0.301800 0.441073 0.186152
O O14 0.215680 0.446613 0.477126
O O15 0.540846 0.878681 0.903136
O O16 0.460678 0.815789 0.714278
O O17 0.549089 0.250000 0.479806
#
# Coordination Sequence:
#
# PCOD9467571 Si02
#       8
#     8   8   8   8   8   8   8   8
#     4  11  25  45  70 101 134 179 227 279 351 413
#     4  11  24  44  68 100 135 178 230 279 339 416
#     4  11  25  44  67 103 140 183 234 288 345 409
#     4  12  23  43  68  97 139 181 230 281 339 416
#     4  12  24  44  71  98 138 177 227 281 347 408
#     4  11  25  44  67 103 134 185 232 279 347 411
#     4  11  25  44  70  99 140 182 229 290 343 416
#     4  11  26  46  69  99 137 174 227 286 344 418
#
# _framework density 21.771687
#
# number of rings (size 3 to 8) (size 9 to 14) (size 15 to 20)
#    0.000    0.750    3.750    2.625    7.000    0.000 
#    0.000    4.375    0.000    0.000    0.000    0.000 
#    0.000    0.000    0.000    0.000    0.000    0.000 
#
# Total GULP energy -357290.135475 kJ/mol
# GULP energy per Si atom -5582.658367 kJ/mol
# Density = 2.172213 g / cm^3
# Si number density = 21.771687 Si / 1000 Ang^3
#
#
#
# Elastic Constant Matrix: (Units=GPa)
#
#
# Indices 1 2 3 4 5 6 
#
# 1 27.0351 16.1167 14.8149 0.0000 0.0000 0.0000
# 2 16.1167 116.7687 14.3000 0.0000 0.0000 0.0000
# 3 14.8149 14.3000 72.8425 0.0000 0.0000 0.0000
# 4 0.0000 0.0000 0.0000 8.3863 0.0000 0.0000
# 5 0.0000 0.0000 0.0000 0.0000 -47.1616 0.0000
# 6 0.0000 0.0000 0.0000 0.0000 0.0000 37.6085
#
#
#
# Elastic Compliance Matrix: (Units=1/GPa)
#
#
# Indices 1 2 3 4 5 6 
#
# 1 0.044462 -0.005153 -0.008031 0.000000 0.000000 0.000000
# 2 -0.005153 0.009372 -0.000792 0.000000 0.000000 0.000000
# 3 -0.008031 -0.000792 0.015517 0.000000 0.000000 0.000000
# 4 0.000000 0.000000 0.000000 0.119242 0.000000 0.000000
# 5 0.000000 0.000000 0.000000 0.000000 -0.021204 0.000000
# 6 0.000000 0.000000 0.000000 0.000000 0.000000 0.026590
#
#
# Mechanical properties :
#
#
# Convention : Reuss Voigt Hill
#
# Bulk Modulus (GPa) = 24.15524 34.12328 29.13926
# Shear Modulus (GPa) = 21.21057 11.19428 16.20243
#
# Velocity S-wave (km/s) = 3.12465 2.26998 2.73096
# Velocity P-wave (km/s) = 4.91292 4.75160 4.83293
#
# Compressibility (1/GPa) = 0.04139888
#
# Stress axis : x y z
#
# Youngs Moduli (GPa) = 22.49114 106.69890 64.44506
#
# Poissons Ratio (x) = 0.54984 0.51757
# Poissons Ratio (y) = 0.11590 0.05103
# Poissons Ratio (z) = 0.18063 0.08449
#
# Static dielectric constant tensor:
#      x y z
#    x 1.829120 0.000000 0.000000 
#    y 0.000000 1.826270 0.000000 
#    z 0.000000 0.000000 1.825570 
# 
# From -- ./inp_files/5522.got.cif
#   From: 2010.05.17/outbox.cif.g08.bks.cpg/sg62_3_cif.got.tgz:5522.got - 2010.06.03 15:25:27.
