data_PCOD9467428
_publ_section_title
;
Structure prediction by ZEFSAII (Michael W. Deem and Ramdas Pophale) SiO2 
 PCOD9467428
Probable space group: P N M A
;
_chemical_formula_sum "Si O2"
_cell_formula_units_Z 48
_cell_length_a 18.990272
_cell_length_b 25.499210
_cell_length_c 5.084790
_cell_angle_alpha 90.000000
_cell_angle_beta 90.000000
_cell_angle_gamma 90.000000
_cell_volume 2462.243118
_symmetry_space_group_name_H-M "P N M A"
_symmetry_group_IT_number 62
_symmetry_cell_setting 'orthorhombic'
loop_
_space_group_symop_operation_xyz
x,y,z
1/2-x,-y,1/2+z
1/2+x,1/2-y,1/2-z
-x,1/2+y,-z
-x,-y,-z
1/2+x,y,1/2-z
1/2-x,1/2+y,1/2+z
x,1/2-y,z
loop_
_atom_site_type_symbol
_atom_site_label
_atom_site_fract_x
_atom_site_fract_y
_atom_site_fract_z
Si Si1 0.185221 0.547392 0.652756
Si Si2 0.346958 0.312112 0.016296
Si Si3 0.547104 0.601733 0.032863
Si Si4 0.974395 0.939273 0.967674
Si Si5 0.720568 0.865733 0.491633
Si Si6 0.819146 0.570333 0.194599
O O1 0.115267 0.565023 0.505551
O O2 0.185831 0.485416 0.660996
O O3 0.255486 0.568048 0.513874
O O4 0.184942 0.578025 0.931633
O O5 0.352699 0.250000 0.012149
O O6 0.422228 0.341395 0.044094
O O7 0.295321 0.331128 0.250968
O O8 0.316174 0.335202 0.745601
O O9 0.490202 0.580111 0.826080
O O10 0.518997 0.595307 0.325768
O O11 0.893725 0.930569 0.050615
O O12 0.000000 0.000000 0.000000
O O13 0.798322 0.882571 0.392346
#
# Coordination Sequence:
#
# PCOD9467428 Si02
#       6
#     8   8   8   8   8   8
#     4  11  23  36  66  92 136 176 221 251 312 391
#     4  11  24  44  73  95 118 162 231 290 327 366
#     4  11  24  44  60  94 132 168 224 265 312 389
#     4  12  27  38  60  94 142 180 209 250 326 401
#     4  11  22  39  63 100 126 157 215 278 325 372
#     4  12  24  36  64  94 144 178 209 256 327 390
#
# _framework density 19.494418
#
# number of rings (size 3 to 8) (size 9 to 14) (size 15 to 20)
#    0.000    0.667    6.667    3.000    4.667    0.000 
#    0.000    0.000    0.000    6.000    0.000    0.000 
#    0.000    0.000    0.000    0.000    0.000    0.000 
#
# Total GULP energy -268086.978931 kJ/mol
# GULP energy per Si atom -5585.145394 kJ/mol
# Density = 1.945005 g / cm^3
# Si number density = 19.494418 Si / 1000 Ang^3
#
#
#
# Elastic Constant Matrix: (Units=GPa)
#
#
# Indices 1 2 3 4 5 6 
#
# 1 96.7846 6.2800 7.0805 0.0000 0.0000 0.0000
# 2 6.2800 111.8911 4.7879 0.0000 0.0000 0.0000
# 3 7.0805 4.7879 77.4074 0.0000 0.0000 0.0000
# 4 0.0000 0.0000 0.0000 22.8323 0.0000 0.0000
# 5 0.0000 0.0000 0.0000 0.0000 35.0186 0.0000
# 6 0.0000 0.0000 0.0000 0.0000 0.0000 17.6065
#
#
#
# Elastic Compliance Matrix: (Units=1/GPa)
#
#
# Indices 1 2 3 4 5 6 
#
# 1 0.010435 -0.000546 -0.000921 0.000000 0.000000 0.000000
# 2 -0.000546 0.008990 -0.000506 0.000000 0.000000 0.000000
# 3 -0.000921 -0.000506 0.013034 0.000000 0.000000 0.000000
# 4 0.000000 0.000000 0.000000 0.043798 0.000000 0.000000
# 5 0.000000 0.000000 0.000000 0.000000 0.028556 0.000000
# 6 0.000000 0.000000 0.000000 0.000000 0.000000 0.056797
#
#
# Mechanical properties :
#
#
# Convention : Reuss Voigt Hill
#
# Bulk Modulus (GPa) = 35.07210 35.81998 35.44604
# Shear Modulus (GPa) = 28.56162 32.95380 30.75771
#
# Velocity S-wave (km/s) = 3.83184 4.11593 3.97642
# Velocity P-wave (km/s) = 6.13247 6.40330 6.26935
#
# Compressibility (1/GPa) = 0.02851269
#
# Stress axis : x y z
#
# Youngs Moduli (GPa) = 95.83110 111.23998 76.72132
#
# Poissons Ratio (x) = 0.06077 0.07064
# Poissons Ratio (y) = 0.05235 0.03883
# Poissons Ratio (z) = 0.08823 0.05629
#
# Static dielectric constant tensor:
#      x y z
#    x 1.706250 0.000000 0.000000 
#    y 0.000000 1.680160 0.000000 
#    z 0.000000 0.000000 1.764090 
# 
# From -- ./inp_files/1763.got.cif
#   From: 2010.05.17/outbox.cif.g08.bks.cpg/sg62_1_cif.got.tgz:1763.got - 2010.06.03 15:25:27.
