data_PCOD9467567
_publ_section_title
;
Structure prediction by ZEFSAII (Michael W. Deem and Ramdas Pophale) SiO2 
 PCOD9467567
Probable space group: P N M A
;
_chemical_formula_sum "Si O2"
_cell_formula_units_Z 40
_cell_length_a 22.411586
_cell_length_b 14.482841
_cell_length_c 6.071961
_cell_angle_alpha 90.000000
_cell_angle_beta 90.000000
_cell_angle_gamma 90.000000
_cell_volume 1970.857968
_symmetry_space_group_name_H-M "P N M A"
_symmetry_group_IT_number 62
_symmetry_cell_setting 'orthorhombic'
loop_
_space_group_symop_operation_xyz
x,y,z
1/2-x,-y,1/2+z
1/2+x,1/2-y,1/2-z
-x,1/2+y,-z
-x,-y,-z
1/2+x,y,1/2-z
1/2-x,1/2+y,1/2+z
x,1/2-y,z
loop_
_atom_site_type_symbol
_atom_site_label
_atom_site_fract_x
_atom_site_fract_y
_atom_site_fract_z
Si Si1 0.064654 0.454671 0.957711
Si Si2 0.459844 0.250000 0.009011
Si Si3 0.122976 0.915607 0.625782
Si Si4 0.316369 0.992560 0.732034
Si Si5 0.978548 0.750000 0.015195
Si Si6 0.271045 0.144738 0.414624
O O1 0.085624 0.501228 0.731292
O O2 0.057158 0.345364 0.970849
O O3 0.119163 0.480255 0.118918
O O4 0.000000 0.500000 0.000000
O O5 0.420316 0.157739 0.014562
O O6 0.491386 0.250000 0.261553
O O7 0.488281 0.250000 0.759574
O O8 0.163992 0.861231 0.800256
O O9 0.168827 0.962611 0.463443
O O10 0.280445 0.897357 0.758663
O O11 0.277532 0.069270 0.606252
O O12 0.258879 0.250000 0.480317
#
# Coordination Sequence:
#
# PCOD9467567 Si02
#       6
#     8   4   8   8   4   8
#     4  11  25  46  69 102 146 185 239 299 371 435
#     4  12  26  44  75 104 141 194 250 298 364 438
#     4  11  24  43  72  99 140 187 235 303 361 436
#     4  11  25  45  69 101 145 185 245 306 373 444
#     4  12  28  46  71 108 147 190 252 298 370 450
#     4  11  24  44  68 101 138 188 246 303 372 443
#
# _framework density 20.295729000000001
#
# number of rings (size 3 to 8) (size 9 to 14) (size 15 to 20)
#    0.000    0.800    5.000    1.200    8.400    1.600 
#    1.800    0.000    0.000    0.000    0.000    0.000 
#    0.000    0.000    0.000    0.000    0.000    0.000 
#
# Total GULP energy -222846.292478 kJ/mol
# GULP energy per Si atom -5571.157312 kJ/mol
# Density = 2.024954 g / cm^3
# Si number density = 20.295729 Si / 1000 Ang^3
#
#
#
# Elastic Constant Matrix: (Units=GPa)
#
#
# Indices 1 2 3 4 5 6 
#
# 1 91.5950 58.0730 40.6741 0.0000 0.0000 0.0000
# 2 58.0730 168.4871 20.6901 0.0000 0.0000 0.0000
# 3 40.6741 20.6901 66.8279 0.0000 0.0000 0.0000
# 4 0.0000 0.0000 0.0000 18.3592 0.0000 0.0000
# 5 0.0000 0.0000 0.0000 0.0000 23.1862 0.0000
# 6 0.0000 0.0000 0.0000 0.0000 0.0000 38.4837
#
#
#
# Elastic Compliance Matrix: (Units=1/GPa)
#
#
# Indices 1 2 3 4 5 6 
#
# 1 0.018492 -0.005189 -0.009648 0.000000 0.000000 0.000000
# 2 -0.005189 0.007626 0.000797 0.000000 0.000000 0.000000
# 3 -0.009648 0.000797 0.020589 0.000000 0.000000 0.000000
# 4 0.000000 0.000000 0.000000 0.054469 0.000000 0.000000
# 5 0.000000 0.000000 0.000000 0.000000 0.043129 0.000000
# 6 0.000000 0.000000 0.000000 0.000000 0.000000 0.025985
#
#
# Mechanical properties :
#
#
# Convention : Reuss Voigt Hill
#
# Bulk Modulus (GPa) = 53.68585 62.86496 58.27541
# Shear Modulus (GPa) = 24.44041 29.83735 27.13888
#
# Velocity S-wave (km/s) = 3.47394 3.83839 3.66070
# Velocity P-wave (km/s) = 6.52689 7.11941 6.82958
#
# Compressibility (1/GPa) = 0.01862688
#
# Stress axis : x y z
#
# Youngs Moduli (GPa) = 54.07734 131.13477 48.56858
#
# Poissons Ratio (x) = 0.68044 0.46861
# Poissons Ratio (y) = 0.28060 -0.03872
# Poissons Ratio (z) = 0.52176 -0.10454
#
# Static dielectric constant tensor:
#      x y z
#    x 1.747520 0.000000 0.000000 
#    y 0.000000 1.660470 0.000000 
#    z 0.000000 0.000000 1.742910 
# 
# From -- ./inp_files/2680.got.cif
#   From: 2010.05.17/outbox.cif.g08.bks.cpg/sg62_2_cif.got.tgz:2680.got - 2010.06.03 15:25:27.
