data_PCOD9467062
_publ_section_title
;
Structure prediction by ZEFSAII (Michael W. Deem and Ramdas Pophale) SiO2 
 PCOD9467062
Probable space group: P N M A
;
_chemical_formula_sum "Si O2"
_cell_formula_units_Z 52
_cell_length_a 20.721742
_cell_length_b 15.602574
_cell_length_c 7.446522
_cell_angle_alpha 90.000000
_cell_angle_beta 90.000000
_cell_angle_gamma 90.000000
_cell_volume 2407.553741
_symmetry_space_group_name_H-M "P N M A"
_symmetry_group_IT_number 62
_symmetry_cell_setting 'orthorhombic'
loop_
_space_group_symop_operation_xyz
x,y,z
1/2-x,-y,1/2+z
1/2+x,1/2-y,1/2-z
-x,1/2+y,-z
-x,-y,-z
1/2+x,y,1/2-z
1/2-x,1/2+y,1/2+z
x,1/2-y,z
loop_
_atom_site_type_symbol
_atom_site_label
_atom_site_fract_x
_atom_site_fract_y
_atom_site_fract_z
Si Si1 0.349641 0.250000 0.446206
Si Si2 0.929983 0.539111 0.978643
Si Si3 0.844986 0.250000 0.612382
Si Si4 0.623139 0.151117 0.761549
Si Si5 0.189423 0.932714 0.965321
Si Si6 0.265672 0.091490 0.848109
Si Si7 0.455784 0.923430 0.918007
Si Si8 0.961852 0.250000 0.344760
O O1 0.354189 0.250000 0.667458
O O2 0.311012 0.163692 0.394481
O O3 0.417575 0.250000 0.337378
O O4 0.921337 0.549412 0.766603
O O5 0.919135 0.626694 0.086712
O O6 0.878509 0.477216 0.076337
O O7 0.000000 0.500000 0.000000
O O8 0.804368 0.333969 0.551793
O O9 0.912294 0.250000 0.511550
O O10 0.616483 0.250000 0.804968
O O11 0.697467 0.131129 0.716413
O O12 0.595853 0.098880 0.929197
O O13 0.246438 0.999333 0.925547
O O14 0.190727 0.925221 0.177702
O O15 0.496564 0.837443 0.866642
O O16 0.500000 0.000000 0.000000
#
# Coordination Sequence:
#
# PCOD9467062 Si02
#       8
#     4   8   4   8   8   8   8   4
#     4  10  24  44  64  99 136 175 230 277 337 399
#     4  11  24  45  67  99 137 178 227 280 346 409
#     4  10  24  45  70  97 138 178 225 279 340 407
#     4  11  24  45  68  95 137 179 221 283 342 406
#     4  10  24  42  70 100 133 184 219 289 337 401
#     4  10  23  43  68  98 134 175 227 275 342 402
#     4  12  27  43  68 102 135 178 228 285 345 405
#     4  12  28  43  70 104 130 181 235 280 341 416
#
# _framework density 21.598687000000002
#
# number of rings (size 3 to 8) (size 9 to 14) (size 15 to 20)
#    0.000    1.231    3.077    0.923   11.846    1.231 
#    1.385    0.000    0.000    0.000    0.000    0.000 
#    0.000    0.000    0.000    0.000    0.000    0.000 
#
# Total GULP energy -290232.453253 kJ/mol
# GULP energy per Si atom -5581.393332 kJ/mol
# Density = 2.154953 g / cm^3
# Si number density = 21.598687 Si / 1000 Ang^3
#
#
#
# Elastic Constant Matrix: (Units=GPa)
#
#
# Indices 1 2 3 4 5 6 
#
# 1 43.0120 5.3696 -1.0623 0.0000 0.0000 0.0000
# 2 5.3696 124.3692 13.2148 0.0000 0.0000 0.0000
# 3 -1.0623 13.2148 95.5684 0.0000 0.0000 0.0000
# 4 0.0000 0.0000 0.0000 25.8465 0.0000 0.0000
# 5 0.0000 0.0000 0.0000 0.0000 37.6500 0.0000
# 6 0.0000 0.0000 0.0000 0.0000 0.0000-2864.3608
#
#
#
# Elastic Compliance Matrix: (Units=1/GPa)
#
#
# Indices 1 2 3 4 5 6 
#
# 1 0.023391 -0.001053 0.000406 0.000000 0.000000 0.000000
# 2 -0.001053 0.008208 -0.001147 0.000000 0.000000 0.000000
# 3 0.000406 -0.001147 0.010627 0.000000 0.000000 0.000000
# 4 0.000000 0.000000 0.000000 0.038690 0.000000 0.000000
# 5 0.000000 0.000000 0.000000 0.000000 0.026560 0.000000
# 6 0.000000 0.000000 0.000000 0.000000 0.000000 -0.000349
#
#
# Mechanical properties :
#
#
# Convention : Reuss Voigt Hill
#
# Bulk Modulus (GPa) = 25.88166 33.11041 29.49604
# Shear Modulus (GPa) = 40.45504 -543.81103 -251.67800
#
# Velocity S-wave (km/s) = 4.33255 -15.88478 -10.80637
# Velocity P-wave (km/s) = 6.08580 17.91848 11.91711
#
# Compressibility (1/GPa) = 0.03863739
#
# Stress axis : x y z
#
# Youngs Moduli (GPa) = 42.75182 121.83423 94.10196
#
# Poissons Ratio (x) = 0.12829 -0.03817
# Poissons Ratio (y) = 0.04502 0.10790
# Poissons Ratio (z) = -0.01734 0.13970
#
# Static dielectric constant tensor:
#      x y z
#    x 1.709580 0.000000 0.000000 
#    y 0.000000 1.954290 0.000000 
#    z 0.000000 0.000000 1.770450 
# 
# From -- ./inp_files/8694.got.cif
#   From: 2010.05.17/outbox.cif.g08.bks.cpg/sg62_5_cif.got.tgz:8694.got - 2010.06.03 15:25:27.
