data_PCOD9467219
_publ_section_title
;
Structure prediction by ZEFSAII (Michael W. Deem and Ramdas Pophale) SiO2 
 PCOD9467219
Probable space group: P N M A
;
_chemical_formula_sum "Si O2"
_cell_formula_units_Z 48
_cell_length_a 9.449560
_cell_length_b 26.088263
_cell_length_c 8.375916
_cell_angle_alpha 90.000000
_cell_angle_beta 90.000000
_cell_angle_gamma 90.000000
_cell_volume 2064.852644
_symmetry_space_group_name_H-M "P N M A"
_symmetry_group_IT_number 62
_symmetry_cell_setting 'orthorhombic'
loop_
_space_group_symop_operation_xyz
x,y,z
1/2-x,-y,1/2+z
1/2+x,1/2-y,1/2-z
-x,1/2+y,-z
-x,-y,-z
1/2+x,y,1/2-z
1/2-x,1/2+y,1/2+z
x,1/2-y,z
loop_
_atom_site_type_symbol
_atom_site_label
_atom_site_fract_x
_atom_site_fract_y
_atom_site_fract_z
Si Si1 0.382674 0.250000 0.268562
Si Si2 0.783356 0.384435 0.573977
Si Si3 0.073231 0.341961 0.685086
Si Si4 0.480756 0.840731 0.532055
Si Si5 0.611609 0.250000 0.037614
Si Si6 0.894351 0.455667 0.060431
Si Si7 0.848391 0.010826 0.423884
O O1 0.449968 0.300769 0.349732
O O2 0.447342 0.250000 0.091647
O O3 0.217739 0.250000 0.312657
O O4 0.696253 0.376008 0.737029
O O5 0.689618 0.349835 0.452164
O O6 0.778543 0.442405 0.519640
O O7 0.946126 0.369720 0.593842
O O8 0.136480 0.299415 0.570781
O O9 0.003740 0.320552 0.849792
O O10 0.545482 0.898086 0.545601
O O11 0.861944 0.469832 0.243598
O O12 0.753858 0.463249 0.955689
O O13 0.000000 0.500000 0.000000
O O14 0.000000 0.000000 0.500000
#
# Coordination Sequence:
#
# PCOD9467219 Si02
#       7
#     4   8   8   8   4   8   8
#     4  12  29  50  74 117 161 210 255 348 384 480
#     4  10  25  46  76 114 144 206 256 327 391 473
#     4  10  24  46  81 104 151 198 274 311 395 470
#     4  10  26  47  82 102 165 193 269 324 401 461
#     4  12  29  48  78 117 155 212 273 320 410 464
#     4  12  26  52  75 112 158 204 260 329 401 477
#     4  12  29  43  78 114 159 202 268 321 412 477
#
# _framework density 23.246210999999999
#
# number of rings (size 3 to 8) (size 9 to 14) (size 15 to 20)
#    1.000    0.000    1.667    2.500   11.667    2.000 
#    0.000    0.000    0.000    0.000    0.000    0.000 
#    0.000    0.000    0.000    0.000    0.000    0.000 
#
# Total GULP energy -268359.067672 kJ/mol
# GULP energy per Si atom -5590.813910 kJ/mol
# Density = 2.319330 g / cm^3
# Si number density = 23.246211 Si / 1000 Ang^3
#
#
#
# Elastic Constant Matrix: (Units=GPa)
#
#
# Indices 1 2 3 4 5 6 
#
# 1 122.4929 46.6448 18.7681 0.0000 0.0000 0.0000
# 2 46.6448 116.5762 38.7052 0.0000 0.0000 0.0000
# 3 18.7681 38.7052 91.3839 0.0000 0.0000 0.0000
# 4 0.0000 0.0000 0.0000 43.7643 0.0000 0.0000
# 5 0.0000 0.0000 0.0000 0.0000 39.8348 0.0000
# 6 0.0000 0.0000 0.0000 0.0000 0.0000 35.0043
#
#
#
# Elastic Compliance Matrix: (Units=1/GPa)
#
#
# Indices 1 2 3 4 5 6 
#
# 1 0.009644 -0.003725 -0.000403 0.000000 0.000000 0.000000
# 2 -0.003725 0.011421 -0.004072 0.000000 0.000000 0.000000
# 3 -0.000403 -0.004072 0.012750 0.000000 0.000000 0.000000
# 4 0.000000 0.000000 0.000000 0.022850 0.000000 0.000000
# 5 0.000000 0.000000 0.000000 0.000000 0.025104 0.000000
# 6 0.000000 0.000000 0.000000 0.000000 0.000000 0.028568
#
#
# Mechanical properties :
#
#
# Convention : Reuss Voigt Hill
#
# Bulk Modulus (GPa) = 57.42253 59.85436 58.63845
# Shear Modulus (GPa) = 37.72420 38.80969 38.26695
#
# Velocity S-wave (km/s) = 4.03278 4.09039 4.06169
# Velocity P-wave (km/s) = 6.81469 6.93630 6.87576
#
# Compressibility (1/GPa) = 0.01741477
#
# Stress axis : x y z
#
# Youngs Moduli (GPa) = 103.69214 87.56158 78.42949
#
# Poissons Ratio (x) = 0.32617 0.03160
# Poissons Ratio (y) = 0.38625 0.31937
# Poissons Ratio (z) = 0.04178 0.35656
#
# Static dielectric constant tensor:
#      x y z
#    x 1.901170 0.000000 0.000000 
#    y 0.000000 1.876720 0.000000 
#    z 0.000000 0.000000 1.867550 
# 
# From -- ./inp_files/4576.got.cif
#   From: 2010.05.17/outbox.cif.g08.bks.cpg/sg62_3_cif.got.tgz:4576.got - 2010.06.03 15:25:27.
