data_PCOD9467293
_publ_section_title
;
Structure prediction by ZEFSAII (Michael W. Deem and Ramdas Pophale) SiO2 
 PCOD9467293
Probable space group: P N M A
;
_chemical_formula_sum "Si O2"
_cell_formula_units_Z 48
_cell_length_a 17.217848
_cell_length_b 8.138647
_cell_length_c 18.587783
_cell_angle_alpha 90.000000
_cell_angle_beta 90.000000
_cell_angle_gamma 90.000000
_cell_volume 2604.705790
_symmetry_space_group_name_H-M "P N M A"
_symmetry_group_IT_number 62
_symmetry_cell_setting 'orthorhombic'
loop_
_space_group_symop_operation_xyz
x,y,z
1/2-x,-y,1/2+z
1/2+x,1/2-y,1/2-z
-x,1/2+y,-z
-x,-y,-z
1/2+x,y,1/2-z
1/2-x,1/2+y,1/2+z
x,1/2-y,z
loop_
_atom_site_type_symbol
_atom_site_label
_atom_site_fract_x
_atom_site_fract_y
_atom_site_fract_z
Si Si1 0.005402 0.447207 0.416984
Si Si2 0.085890 0.551779 0.978500
Si Si3 0.143934 0.445007 0.672342
Si Si4 0.741458 0.950284 0.447152
Si Si5 0.833075 0.447333 0.166987
Si Si6 0.822798 0.550020 0.596114
O O1 0.003180 0.250000 0.413763
O O2 0.089896 0.505605 0.389316
O O3 0.000000 0.500000 0.500000
O O4 0.933951 0.513927 0.371269
O O5 0.088006 0.750000 0.978184
O O6 0.112105 0.494702 0.898676
O O7 0.154094 0.495978 0.033378
O O8 0.000000 0.500000 0.000000
O O9 0.151740 0.250000 0.675593
O O10 0.217002 0.509975 0.625241
O O11 0.141729 0.507939 0.753395
O O12 0.740473 0.750000 0.445198
O O13 0.795096 0.995940 0.515623
O O14 0.831839 0.250000 0.162008
O O15 0.745461 0.506083 0.149199
O O16 0.823864 0.750000 0.597632
#
# Coordination Sequence:
#
# PCOD9467293 Si02
#       6
#     8   8   8   8   8   8
#     4  11  20  33  56  84 112 143 180 222 268 323
#     4   9  18  35  59  79 102 138 182 225 267 318
#     4  11  21  35  54  79 112 144 177 221 272 323
#     4   8  15  31  54  75  99 137 175 210 262 317
#     4   9  19  37  57  76 103 142 181 220 271 322
#     4   8  15  32  56  75  98 137 177 212 255 314
#
# _framework density 18.428184000000002
#
# number of rings (size 3 to 8) (size 9 to 14) (size 15 to 20)
#    0.000    2.667    1.667    3.000    0.000    0.667 
#    3.000    3.333    0.000    0.000    0.000    0.000 
#    0.000    0.000    0.000    0.000    0.000    0.000 
#
# Total GULP energy -267562.493654 kJ/mol
# GULP energy per Si atom -5574.218618 kJ/mol
# Density = 1.838624 g / cm^3
# Si number density = 18.428184 Si / 1000 Ang^3
#
#
#
# Elastic Constant Matrix: (Units=GPa)
#
#
# Indices 1 2 3 4 5 6 
#
# 1 165.4162 4.2816 88.1209 0.0000 0.0000 0.0000
# 2 4.2816 8.3886 6.4177 0.0000 0.0000 0.0000
# 3 88.1209 6.4177 131.5953 0.0000 0.0000 0.0000
# 4 0.0000 0.0000 0.0000 24.3561 0.0000 0.0000
# 5 0.0000 0.0000 0.0000 0.0000 23.6605 0.0000
# 6 0.0000 0.0000 0.0000 0.0000 0.0000 21.7737
#
#
#
# Elastic Compliance Matrix: (Units=1/GPa)
#
#
# Indices 1 2 3 4 5 6 
#
# 1 0.009398 0.000018 -0.006294 0.000000 0.000000 0.000000
# 2 0.000018 0.123829 -0.006051 0.000000 0.000000 0.000000
# 3 -0.006294 -0.006051 0.012109 0.000000 0.000000 0.000000
# 4 0.000000 0.000000 0.000000 0.041058 0.000000 0.000000
# 5 0.000000 0.000000 0.000000 0.000000 0.042264 0.000000
# 6 0.000000 0.000000 0.000000 0.000000 0.000000 0.045927
#
#
# Mechanical properties :
#
#
# Convention : Reuss Voigt Hill
#
# Bulk Modulus (GPa) = 8.28621 55.89338 32.08980
# Shear Modulus (GPa) = 14.72900 27.73006 21.22953
#
# Velocity S-wave (km/s) = 2.83019 3.88334 3.39782
# Velocity P-wave (km/s) = 3.89695 7.10657 5.73104
#
# Compressibility (1/GPa) = 0.12068240
#
# Stress axis : x y z
#
# Youngs Moduli (GPa) = 106.40729 8.07562 82.58405
#
# Poissons Ratio (x) = -0.00015 0.51979
# Poissons Ratio (y) = -0.00197 0.49974
# Poissons Ratio (z) = 0.66973 0.04887
#
# Static dielectric constant tensor:
#      x y z
#    x 1.645680 0.000000 0.000000 
#    y 0.000000 1.662530 0.000000 
#    z 0.000000 0.000000 1.609900 
# 
# From -- ./inp_files/24228.got.cif
#   From: 2010.05.17/outbox.cif.g08.bks.cpg/sg62_13_cif.got.tgz:24228.got - 2010.06.03 15:25:27.
