data_PCOD9467200
_publ_section_title
;
Structure prediction by ZEFSAII (Michael W. Deem and Ramdas Pophale) SiO2 
 PCOD9467200
Probable space group: P N M A
;
_chemical_formula_sum "Si O2"
_cell_formula_units_Z 36
_cell_length_a 10.336820
_cell_length_b 18.054689
_cell_length_c 8.568439
_cell_angle_alpha 90.000000
_cell_angle_beta 90.000000
_cell_angle_gamma 90.000000
_cell_volume 1599.111236
_symmetry_space_group_name_H-M "P N M A"
_symmetry_group_IT_number 62
_symmetry_cell_setting 'orthorhombic'
loop_
_space_group_symop_operation_xyz
x,y,z
1/2-x,-y,1/2+z
1/2+x,1/2-y,1/2-z
-x,1/2+y,-z
-x,-y,-z
1/2+x,y,1/2-z
1/2-x,1/2+y,1/2+z
x,1/2-y,z
loop_
_atom_site_type_symbol
_atom_site_label
_atom_site_fract_x
_atom_site_fract_y
_atom_site_fract_z
Si Si1 0.683965 0.750000 0.368941
Si Si2 0.999354 0.985318 0.814736
Si Si3 0.742013 0.900379 0.812866
Si Si4 0.952424 0.750000 0.530151
Si Si5 0.882886 0.250000 0.185114
Si Si6 0.118372 0.875685 0.365578
O O1 0.806947 0.750000 0.478776
O O2 0.575668 0.750000 0.503629
O O3 0.681436 0.677532 0.263489
O O4 0.889055 0.923481 0.780773
O O5 0.139793 0.959236 0.757586
O O6 0.952006 0.056791 0.718759
O O7 0.000000 0.000000 0.000000
O O8 0.696189 0.822848 0.739021
O O9 0.717688 0.899174 0.999352
O O10 0.988666 0.750000 0.709826
O O11 0.017472 0.822156 0.453145
#
# Coordination Sequence:
#
# PCOD9467200 Si02
#       6
#     4   8   8   4   4   8
#     4  11  23  43  74  94 139 185 228 292 354 425
#     4  12  26  44  72 105 142 191 239 292 363 420
#     4  11  26  45  72 102 143 189 233 303 350 429
#     4   9  23  41  70  96 135 187 219 301 343 417
#     4  10  24  46  66 104 132 178 243 283 361 418
#     4  10  24  45  64 103 138 179 238 284 353 423
#
# _framework density 22.512506999999999
#
# number of rings (size 3 to 8) (size 9 to 14) (size 15 to 20)
#    0.000    1.333    0.000    4.000   12.444    0.000 
#    0.000    0.000    0.000    0.000    0.000    0.000 
#    0.000    0.000    0.000    0.000    0.000    0.000 
#
# Total GULP energy -201557.161174 kJ/mol
# GULP energy per Si atom -5598.810033 kJ/mol
# Density = 2.246127 g / cm^3
# Si number density = 22.512507 Si / 1000 Ang^3
#
#
#
# Elastic Constant Matrix: (Units=GPa)
#
#
# Indices 1 2 3 4 5 6 
#
# 1 64.0014 -1.0215 11.6010 0.0000 0.0000 0.0000
# 2 -1.0215 91.9861 18.1753 0.0000 0.0000 0.0000
# 3 11.6010 18.1753 150.5390 0.0000 0.0000 0.0000
# 4 0.0000 0.0000 0.0000 70.1790 0.0000 0.0000
# 5 0.0000 0.0000 0.0000 0.0000 24.3643 0.0000
# 6 0.0000 0.0000 0.0000 0.0000 0.0000 5.2096
#
#
#
# Elastic Compliance Matrix: (Units=1/GPa)
#
#
# Indices 1 2 3 4 5 6 
#
# 1 0.015862 0.000428 -0.001274 0.000000 0.000000 0.000000
# 2 0.000428 0.011148 -0.001379 0.000000 0.000000 0.000000
# 3 -0.001274 -0.001379 0.006907 0.000000 0.000000 0.000000
# 4 0.000000 0.000000 0.000000 0.014249 0.000000 0.000000
# 5 0.000000 0.000000 0.000000 0.000000 0.041044 0.000000
# 6 0.000000 0.000000 0.000000 0.000000 0.000000 0.191952
#
#
# Mechanical properties :
#
#
# Convention : Reuss Voigt Hill
#
# Bulk Modulus (GPa) = 33.93512 40.44848 37.19180
# Shear Modulus (GPa) = 16.92412 38.46871 27.69641
#
# Velocity S-wave (km/s) = 2.74481 4.13821 3.51132
# Velocity P-wave (km/s) = 5.01517 6.39055 5.74418
#
# Compressibility (1/GPa) = 0.02946799
#
# Stress axis : x y z
#
# Youngs Moduli (GPa) = 63.04209 89.69875 144.77076
#
# Poissons Ratio (x) = -0.03838 0.18445
# Poissons Ratio (y) = -0.02698 0.19964
# Poissons Ratio (z) = 0.08032 0.12369
#
# Static dielectric constant tensor:
#      x y z
#    x 1.865040 0.000000 0.000000 
#    y 0.000000 1.833080 0.000000 
#    z 0.000000 0.000000 1.843480 
# 
# From -- ./inp_files/4217.got.cif
#   From: 2010.05.17/outbox.cif.g08.bks.cpg/sg62_3_cif.got.tgz:4217.got - 2010.06.03 15:25:27.
