data_PCOD9467082
_publ_section_title
;
Structure prediction by ZEFSAII (Michael W. Deem and Ramdas Pophale) SiO2 
 PCOD9467082
Probable space group: P N M A
;
_chemical_formula_sum "Si O2"
_cell_formula_units_Z 32
_cell_length_a 5.000182
_cell_length_b 10.577367
_cell_length_c 28.484982
_cell_angle_alpha 90.000000
_cell_angle_beta 90.000000
_cell_angle_gamma 90.000000
_cell_volume 1506.535379
_symmetry_space_group_name_H-M "P N M A"
_symmetry_group_IT_number 62
_symmetry_cell_setting 'orthorhombic'
loop_
_space_group_symop_operation_xyz
x,y,z
1/2-x,-y,1/2+z
1/2+x,1/2-y,1/2-z
-x,1/2+y,-z
-x,-y,-z
1/2+x,y,1/2-z
1/2-x,1/2+y,1/2+z
x,1/2-y,z
loop_
_atom_site_type_symbol
_atom_site_label
_atom_site_fract_x
_atom_site_fract_y
_atom_site_fract_z
Si Si1 0.041358 0.104993 0.640753
Si Si2 0.045844 0.046311 0.920840
Si Si3 0.204690 0.385645 0.491033
Si Si4 0.494559 0.607285 0.783018
O O1 0.084425 0.250000 0.656876
O O2 0.808517 0.106573 0.601741
O O3 0.311806 0.051963 0.617268
O O4 0.955817 0.005825 0.680507
O O5 0.143197 0.913322 0.942328
O O6 0.918026 0.111512 0.966693
O O7 0.067730 0.250000 0.490233
O O8 0.000000 0.500000 0.500000
O O9 0.284424 0.596909 0.740607
O O10 0.464748 0.750000 0.803333
#
# Coordination Sequence:
#
# PCOD9467082 Si02
#       4
#     8   8   8   8
#     4  12  24  41  68  97 128 167 216 271 320 379
#     4  11  25  42  62  96 133 173 214 270 325 376
#     4  11  24  43  67  93 132 179 224 271 324 385
#     4  10  23  44  67  93 129 167 204 258 326 390
#
# _framework density 21.240787999999998
#
# number of rings (size 3 to 8) (size 9 to 14) (size 15 to 20)
#    0.000    1.000    2.500    3.750    0.000    8.000 
#    0.000    0.000    0.000    0.000    0.000    0.000 
#    0.000    0.000    0.000    0.000    0.000    0.000 
#
# Total GULP energy -178745.913784 kJ/mol
# GULP energy per Si atom -5585.809806 kJ/mol
# Density = 2.119244 g / cm^3
# Si number density = 21.240788 Si / 1000 Ang^3
#
#
#
# Elastic Constant Matrix: (Units=GPa)
#
#
# Indices 1 2 3 4 5 6 
#
# 1 88.3365 29.2417 2.2889 0.0000 0.0000 0.0000
# 2 29.2417 186.4903 68.4181 0.0000 0.0000 0.0000
# 3 2.2889 68.4181 61.9155 0.0000 0.0000 0.0000
# 4 0.0000 0.0000 0.0000 -21.5877 0.0000 0.0000
# 5 0.0000 0.0000 0.0000 0.0000 30.9579 0.0000
# 6 0.0000 0.0000 0.0000 0.0000 0.0000 14.2675
#
#
#
# Elastic Compliance Matrix: (Units=1/GPa)
#
#
# Indices 1 2 3 4 5 6 
#
# 1 0.012222 -0.002944 0.002802 0.000000 0.000000 0.000000
# 2 -0.002944 0.009728 -0.010640 0.000000 0.000000 0.000000
# 3 0.002802 -0.010640 0.027805 0.000000 0.000000 0.000000
# 4 0.000000 0.000000 0.000000 -0.046323 0.000000 0.000000
# 5 0.000000 0.000000 0.000000 0.000000 0.032302 0.000000
# 6 0.000000 0.000000 0.000000 0.000000 0.000000 0.070089
#
#
# Mechanical properties :
#
#
# Convention : Reuss Voigt Hill
#
# Bulk Modulus (GPa) = 35.47433 59.62662 47.55048
# Shear Modulus (GPa) = 36.55346 20.51379 28.53363
#
# Velocity S-wave (km/s) = 4.15288 3.11106 3.66914
# Velocity P-wave (km/s) = 6.30338 6.40606 6.35493
#
# Compressibility (1/GPa) = 0.02818940
#
# Stress axis : x y z
#
# Youngs Moduli (GPa) = 81.81691 102.80121 35.96442
#
# Poissons Ratio (x) = 0.30268 -0.10076
# Poissons Ratio (y) = 0.24090 0.38267
# Poissons Ratio (z) = -0.22923 1.09384
#
# Static dielectric constant tensor:
#      x y z
#    x 1.763660 0.000000 0.000000 
#    y 0.000000 1.798140 0.000000 
#    z 0.000000 0.000000 1.762420 
# 
# From -- ./inp_files/31416.got.cif
#   From: 2010.05.17/outbox.cif.g08.bks.cpg/sg62_16_cif.got.tgz:31416.got - 2010.06.03 15:25:27.
