data_PCOD9467163
_publ_section_title
;
Structure prediction by ZEFSAII (Michael W. Deem and Ramdas Pophale) SiO2 
 PCOD9467163
Probable space group: P N M A
;
_chemical_formula_sum "Si O2"
_cell_formula_units_Z 56
_cell_length_a 15.806719
_cell_length_b 8.277398
_cell_length_c 19.946501
_cell_angle_alpha 90.000000
_cell_angle_beta 90.000000
_cell_angle_gamma 90.000000
_cell_volume 2609.770356
_symmetry_space_group_name_H-M "P N M A"
_symmetry_group_IT_number 62
_symmetry_cell_setting 'orthorhombic'
loop_
_space_group_symop_operation_xyz
x,y,z
1/2-x,-y,1/2+z
1/2+x,1/2-y,1/2-z
-x,1/2+y,-z
-x,-y,-z
1/2+x,y,1/2-z
1/2-x,1/2+y,1/2+z
x,1/2-y,z
loop_
_atom_site_type_symbol
_atom_site_label
_atom_site_fract_x
_atom_site_fract_y
_atom_site_fract_z
Si Si1 0.906562 0.437023 0.487908
Si Si2 0.652954 0.057942 0.126990
Si Si3 0.834483 0.934969 0.354613
Si Si4 0.500577 0.944569 0.623908
Si Si5 0.822163 0.443714 0.928740
Si Si6 0.683646 0.440907 0.579501
Si Si7 0.001046 0.943442 0.722866
O O1 0.904168 0.250000 0.465829
O O2 0.864837 0.458676 0.559720
O O3 0.868699 0.549128 0.430509
O O4 0.000000 0.500000 0.500000
O O5 0.640776 0.250000 0.115834
O O6 0.582311 0.004337 0.180769
O O7 0.753150 0.025381 0.133331
O O8 0.827018 0.750000 0.332656
O O9 0.739826 0.003363 0.368066
O O10 0.908907 0.012355 0.310559
O O11 0.499317 0.750000 0.621962
O O12 0.496969 0.001981 0.701058
O O13 0.418008 0.008707 0.586457
O O14 0.587945 0.004654 0.592853
O O15 0.813765 0.250000 0.931644
O O16 0.798324 0.512342 0.001815
O O17 0.691321 0.250000 0.587127
O O18 0.996946 0.750000 0.724087
#
# Coordination Sequence:
#
# PCOD9467163 Si02
#       7
#     8   8   8   8   8   8   8
#     4  12  22  34  57  91 129 169 209 258 317 376
#     4  11  22  39  63  95 130 165 209 263 315 378
#     4  11  23  38  63  95 130 167 207 261 318 375
#     4  11  25  46  67  90 124 170 217 265 316 377
#     4  11  24  43  67  96 127 163 209 268 323 375
#     4  12  25  42  67  97 126 165 211 265 324 380
#     4  10  24  43  65  92 129 173 213 255 314 382
#
# _framework density 21.457826000000001
#
# number of rings (size 3 to 8) (size 9 to 14) (size 15 to 20)
#    0.000    0.857    2.857    4.714    0.000    4.571 
#    0.000    4.286    0.000    0.000    0.000    0.000 
#    0.000    0.000    0.000    0.000    0.000    0.000 
#
# Total GULP energy -312787.089867 kJ/mol
# GULP energy per Si atom -5585.483748 kJ/mol
# Density = 2.140899 g / cm^3
# Si number density = 21.457826 Si / 1000 Ang^3
#
#
#
# Elastic Constant Matrix: (Units=GPa)
#
#
# Indices 1 2 3 4 5 6 
#
# 1 146.2942 12.4228 25.0936 0.0000 0.0000 0.0000
# 2 12.4228 58.5390 8.7669 0.0000 0.0000 0.0000
# 3 25.0936 8.7669 71.3749 0.0000 0.0000 0.0000
# 4 0.0000 0.0000 0.0000 23.3580 0.0000 0.0000
# 5 0.0000 0.0000 0.0000 0.0000 30.8028 0.0000
# 6 0.0000 0.0000 0.0000 0.0000 0.0000 27.8257
#
#
#
# Elastic Compliance Matrix: (Units=1/GPa)
#
#
# Indices 1 2 3 4 5 6 
#
# 1 0.007355 -0.001196 -0.002439 0.000000 0.000000 0.000000
# 2 -0.001196 0.017597 -0.001741 0.000000 0.000000 0.000000
# 3 -0.002439 -0.001741 0.015082 0.000000 0.000000 0.000000
# 4 0.000000 0.000000 0.000000 0.042812 0.000000 0.000000
# 5 0.000000 0.000000 0.000000 0.000000 0.032465 0.000000
# 6 0.000000 0.000000 0.000000 0.000000 0.000000 0.035938
#
#
# Mechanical properties :
#
#
# Convention : Reuss Voigt Hill
#
# Bulk Modulus (GPa) = 34.14979 40.97498 37.56238
# Shear Modulus (GPa) = 29.11015 31.72565 30.41790
#
# Velocity S-wave (km/s) = 3.68723 3.84931 3.76914
# Velocity P-wave (km/s) = 5.83755 6.23645 6.04029
#
# Compressibility (1/GPa) = 0.02928276
#
# Stress axis : x y z
#
# Youngs Moduli (GPa) = 135.95365 56.82757 66.30460
#
# Poissons Ratio (x) = 0.06795 0.16173
# Poissons Ratio (y) = 0.16255 0.11544
# Poissons Ratio (z) = 0.33161 0.09894
#
# Static dielectric constant tensor:
#      x y z
#    x 1.839710 0.000000 0.000000 
#    y 0.000000 1.731100 0.000000 
#    z 0.000000 0.000000 1.749300 
# 
# From -- ./inp_files/27263.got.cif
#   From: 2010.05.17/outbox.cif.g08.bks.cpg/sg62_14_cif.got.tgz:27263.got - 2010.06.03 15:25:27.
