data_PCOD9467437
_publ_section_title
;
Structure prediction by ZEFSAII (Michael W. Deem and Ramdas Pophale) SiO2 
 PCOD9467437
Probable space group: P N M A
;
_chemical_formula_sum "Si O2"
_cell_formula_units_Z 40
_cell_length_a 17.879982
_cell_length_b 13.325150
_cell_length_c 7.967940
_cell_angle_alpha 90.000000
_cell_angle_beta 90.000000
_cell_angle_gamma 90.000000
_cell_volume 1898.389132
_symmetry_space_group_name_H-M "P N M A"
_symmetry_group_IT_number 62
_symmetry_cell_setting 'orthorhombic'
loop_
_space_group_symop_operation_xyz
x,y,z
1/2-x,-y,1/2+z
1/2+x,1/2-y,1/2-z
-x,1/2+y,-z
-x,-y,-z
1/2+x,y,1/2-z
1/2-x,1/2+y,1/2+z
x,1/2-y,z
loop_
_atom_site_type_symbol
_atom_site_label
_atom_site_fract_x
_atom_site_fract_y
_atom_site_fract_z
Si Si1 0.529241 0.951059 0.742208
Si Si2 0.830835 0.984979 0.053156
Si Si3 0.097337 0.938923 0.412300
Si Si4 0.268270 0.134765 0.693358
Si Si5 0.123595 0.362381 0.257336
O O1 0.584841 0.983041 0.597209
O O2 0.464026 0.871881 0.703768
O O3 0.481316 0.046417 0.813185
O O4 0.578638 0.911297 0.898495
O O5 0.792501 0.932825 0.210769
O O6 0.789954 0.083048 0.981784
O O7 0.830823 0.905895 0.899763
O O8 0.156964 0.874504 0.310691
O O9 0.128133 0.053955 0.402706
O O10 0.245953 0.250000 0.678726
O O11 0.143103 0.250000 0.302393
#
# Coordination Sequence:
#
# PCOD9467437 Si02
#       5
#     8   8   8   8   8
#     4   9  18  38  60  85 118 157 186 254 308 344
#     4  11  22  40  59  85 126 159 201 262 292 359
#     4   8  19  38  59  87 120 150 193 248 300 359
#     4  11  24  41  62  88 121 168 207 246 311 367
#     4   9  18  33  58  87 114 151 193 240 301 359
#
# _framework density 21.070497
#
# number of rings (size 3 to 8) (size 9 to 14) (size 15 to 20)
#    1.200    1.200    0.000    2.400    0.000    1.600 
#    0.000   14.000    0.000    0.000    0.000    0.000 
#    0.000    0.000    0.000    0.000    0.000    0.000 
#
# Total GULP energy -222967.223094 kJ/mol
# GULP energy per Si atom -5574.180577 kJ/mol
# Density = 2.102254 g / cm^3
# Si number density = 21.070497 Si / 1000 Ang^3
#
#
#
# Elastic Constant Matrix: (Units=GPa)
#
#
# Indices 1 2 3 4 5 6 
#
# 1 57.5824 -3.7276 1.2993 0.0000 0.0000 0.0000
# 2 -3.7276 89.8985 10.8588 0.0000 0.0000 0.0000
# 3 1.2993 10.8588 44.6489 0.0000 0.0000 0.0000
# 4 0.0000 0.0000 0.0000 9.0920 0.0000 0.0000
# 5 0.0000 0.0000 0.0000 0.0000 48.6112 0.0000
# 6 0.0000 0.0000 0.0000 0.0000 0.0000 15.1508
#
#
#
# Elastic Compliance Matrix: (Units=1/GPa)
#
#
# Indices 1 2 3 4 5 6 
#
# 1 0.017435 0.000808 -0.000704 0.000000 0.000000 0.000000
# 2 0.000808 0.011498 -0.002820 0.000000 0.000000 0.000000
# 3 -0.000704 -0.002820 0.023103 0.000000 0.000000 0.000000
# 4 0.000000 0.000000 0.000000 0.109987 0.000000 0.000000
# 5 0.000000 0.000000 0.000000 0.000000 0.020571 0.000000
# 6 0.000000 0.000000 0.000000 0.000000 0.000000 0.066003
#
#
# Mechanical properties :
#
#
# Convention : Reuss Voigt Hill
#
# Bulk Modulus (GPa) = 21.45731 23.22120 22.33925
# Shear Modulus (GPa) = 18.54854 26.81742 22.68298
#
# Velocity S-wave (km/s) = 2.97022 3.57143 3.28461
# Velocity P-wave (km/s) = 4.68707 5.29636 5.00100
#
# Compressibility (1/GPa) = 0.04660417
#
# Stress axis : x y z
#
# Youngs Moduli (GPa) = 57.35719 86.97347 43.28393
#
# Poissons Ratio (x) = -0.07027 0.03047
# Poissons Ratio (y) = -0.04634 0.12205
# Poissons Ratio (z) = 0.04037 0.24525
#
# Static dielectric constant tensor:
#      x y z
#    x 1.815110 0.000000 0.000000 
#    y 0.000000 1.728660 0.000000 
#    z 0.000000 0.000000 1.782900 
# 
# From -- ./inp_files/8469.got.cif
#   From: 2010.05.17/outbox.cif.g08.bks.cpg/sg62_5_cif.got.tgz:8469.got - 2010.06.03 15:25:27.
