data_PCOD9467171
_publ_section_title
;
Structure prediction by ZEFSAII (Michael W. Deem and Ramdas Pophale) SiO2 
 PCOD9467171
Probable space group: P N M A
;
_chemical_formula_sum "Si O2"
_cell_formula_units_Z 60
_cell_length_a 8.859158
_cell_length_b 17.599292
_cell_length_c 18.113963
_cell_angle_alpha 90.000000
_cell_angle_beta 90.000000
_cell_angle_gamma 90.000000
_cell_volume 2824.236884
_symmetry_space_group_name_H-M "P N M A"
_symmetry_group_IT_number 62
_symmetry_cell_setting 'orthorhombic'
loop_
_space_group_symop_operation_xyz
x,y,z
1/2-x,-y,1/2+z
1/2+x,1/2-y,1/2-z
-x,1/2+y,-z
-x,-y,-z
1/2+x,y,1/2-z
1/2-x,1/2+y,1/2+z
x,1/2-y,z
loop_
_atom_site_type_symbol
_atom_site_label
_atom_site_fract_x
_atom_site_fract_y
_atom_site_fract_z
Si Si1 0.537288 0.864068 0.403319
Si Si2 0.887974 0.831197 0.376660
Si Si3 0.700698 0.579399 0.757944
Si Si4 0.953838 0.528246 0.851595
Si Si5 0.931245 0.750000 0.223690
Si Si6 0.537739 0.588418 0.998004
Si Si7 0.057129 0.340374 0.348789
Si Si8 0.356238 0.662604 0.547666
O O1 0.714539 0.849138 0.392127
O O2 0.456374 0.816859 0.338421
O O3 0.471011 0.835300 0.479658
O O4 0.517722 0.954972 0.400743
O O5 0.922732 0.750000 0.414044
O O6 0.912613 0.814874 0.290389
O O7 0.996764 0.886921 0.419038
O O8 0.797219 0.521525 0.807249
O O9 0.586788 0.534451 0.706603
O O10 0.600600 0.632718 0.811237
O O11 0.813717 0.626260 0.705117
O O12 0.934652 0.609410 0.891452
O O13 0.438632 0.625473 0.931636
O O14 0.705942 0.617647 0.978810
O O15 0.500000 0.500000 0.000000
O O16 0.066280 0.250000 0.351712
O O17 0.321841 0.750000 0.570252
#
# Coordination Sequence:
#
# PCOD9467171 Si02
#       8
#     8   8   8   8   4   8   8   8
#     4  12  25  47  74 107 142 191 238 294 367 428
#     4  10  24  43  70 102 141 181 237 289 350 415
#     4  10  25  44  69 103 136 180 234 292 363 415
#     4  11  26  45  71 104 146 188 235 298 357 437
#     4  10  24  46  72 108 144 180 232 300 350 438
#     4  12  27  44  70 104 146 191 239 294 359 433
#     4  11  23  44  71  99 136 180 236 292 353 427
#     4  12  26  47  73 104 144 191 249 298 364 433
#
# _framework density 21.244676999999999
#
# number of rings (size 3 to 8) (size 9 to 14) (size 15 to 20)
#    0.400    0.533    2.667    2.800    5.600    5.867 
#    0.000    0.000    0.000    0.000    0.000    0.000 
#    0.000    0.000    0.000    0.000    0.000    0.000 
#
# Total GULP energy -334051.802805 kJ/mol
# GULP energy per Si atom -5567.530047 kJ/mol
# Density = 2.119632 g / cm^3
# Si number density = 21.244677 Si / 1000 Ang^3
#
#
#
# Elastic Constant Matrix: (Units=GPa)
#
#
# Indices 1 2 3 4 5 6 
#
# 1 25.6834 3.3841 16.7631 0.0000 0.0000 0.0000
# 2 3.3841 111.3992 -15.8536 0.0000 0.0000 0.0000
# 3 16.7631 -15.8536 60.3093 0.0000 0.0000 0.0000
# 4 0.0000 0.0000 0.0000 10.0779 0.0000 0.0000
# 5 0.0000 0.0000 0.0000 0.0000 -27.2478 0.0000
# 6 0.0000 0.0000 0.0000 0.0000 0.0000 9.0979
#
#
#
# Elastic Compliance Matrix: (Units=1/GPa)
#
#
# Indices 1 2 3 4 5 6 
#
# 1 0.048880 -0.003551 -0.014520 0.000000 0.000000 0.000000
# 2 -0.003551 0.009584 0.003506 0.000000 0.000000 0.000000
# 3 -0.014520 0.003506 0.021539 0.000000 0.000000 0.000000
# 4 0.000000 0.000000 0.000000 0.099227 0.000000 0.000000
# 5 0.000000 0.000000 0.000000 0.000000 -0.036700 0.000000
# 6 0.000000 0.000000 0.000000 0.000000 0.000000 0.109916
#
#
# Mechanical properties :
#
#
# Convention : Reuss Voigt Hill
#
# Bulk Modulus (GPa) = 19.65678 22.88656 21.27167
# Shear Modulus (GPa) = 16.74859 11.25883 14.00371
#
# Velocity S-wave (km/s) = 2.81083 2.30458 2.57020
# Velocity P-wave (km/s) = 4.45051 4.22820 4.34078
#
# Compressibility (1/GPa) = 0.05087303
#
# Stress axis : x y z
#
# Youngs Moduli (GPa) = 20.45808 104.34478 46.42788
#
# Poissons Ratio (x) = 0.37056 0.67413
# Poissons Ratio (y) = 0.07265 -0.16279
# Poissons Ratio (z) = 0.29705 -0.36587
#
# Static dielectric constant tensor:
#      x y z
#    x 1.789840 0.000000 0.000000 
#    y 0.000000 1.754010 0.000000 
#    z 0.000000 0.000000 1.752920 
# 
# From -- ./inp_files/22467.got.cif
#   From: 2010.05.17/outbox.cif.g08.bks.cpg/sg62_12_cif.got.tgz:22467.got - 2010.06.03 15:25:27.
