data_PCOD9467569
_publ_section_title
;
Structure prediction by ZEFSAII (Michael W. Deem and Ramdas Pophale) SiO2 
 PCOD9467569
Probable space group: P N M A
;
_chemical_formula_sum "Si O2"
_cell_formula_units_Z 36
_cell_length_a 8.919375
_cell_length_b 22.342861
_cell_length_c 7.539732
_cell_angle_alpha 90.000000
_cell_angle_beta 90.000000
_cell_angle_gamma 90.000000
_cell_volume 1502.550635
_symmetry_space_group_name_H-M "P N M A"
_symmetry_group_IT_number 62
_symmetry_cell_setting 'orthorhombic'
loop_
_space_group_symop_operation_xyz
x,y,z
1/2-x,-y,1/2+z
1/2+x,1/2-y,1/2-z
-x,1/2+y,-z
-x,-y,-z
1/2+x,y,1/2-z
1/2-x,1/2+y,1/2+z
x,1/2-y,z
loop_
_atom_site_type_symbol
_atom_site_label
_atom_site_fract_x
_atom_site_fract_y
_atom_site_fract_z
Si Si1 0.807718 0.932757 0.777315
Si Si2 0.123376 0.139124 0.786033
Si Si3 0.554462 0.860475 0.922942
Si Si4 0.131595 0.559629 0.086682
Si Si5 0.261995 0.250000 0.014166
O O1 0.680934 0.912186 0.917473
O O2 0.709423 0.946097 0.602126
O O3 0.924068 0.882217 0.709419
O O4 0.887150 0.994246 0.830786
O O5 0.253557 0.098865 0.702861
O O6 0.182978 0.196815 0.890251
O O7 0.021309 0.154322 0.612675
O O8 0.020169 0.097624 0.909673
O O9 0.646875 0.801978 0.872406
#
# Coordination Sequence:
#
# PCOD9467569 Si02
#       5
#     8   8   8   8   4
#     4  11  26  46  78 116 158 193 251 321 390 460
#     4  11  24  45  74 106 147 202 254 311 373 453
#     4  11  26  49  74 112 150 201 254 312 380 450
#     4  11  24  43  76 115 149 197 248 317 393 450
#     4  12  26  48  74  96 148 202 260 306 354 458
#
# _framework density 23.959258999999999
#
# number of rings (size 3 to 8) (size 9 to 14) (size 15 to 20)
#    0.000    0.889    2.222    3.333    3.111    6.222 
#    0.000    1.111    0.000    0.000    0.000    0.000 
#    0.000    0.000    0.000    0.000    0.000    0.000 
#
# Total GULP energy -200531.198709 kJ/mol
# GULP energy per Si atom -5570.311075 kJ/mol
# Density = 2.390473 g / cm^3
# Si number density = 23.959259 Si / 1000 Ang^3
#
#
#
# Elastic Constant Matrix: (Units=GPa)
#
#
# Indices 1 2 3 4 5 6 
#
# 1 131.0376 53.0057 28.9907 0.0000 0.0000 0.0000
# 2 53.0057 170.4444 26.0002 0.0000 0.0000 0.0000
# 3 28.9907 26.0002 78.6076 0.0000 0.0000 0.0000
# 4 0.0000 0.0000 0.0000 34.3398 0.0000 0.0000
# 5 0.0000 0.0000 0.0000 0.0000 44.6007 0.0000
# 6 0.0000 0.0000 0.0000 0.0000 0.0000 29.5826
#
#
#
# Elastic Compliance Matrix: (Units=1/GPa)
#
#
# Indices 1 2 3 4 5 6 
#
# 1 0.009200 -0.002468 -0.002577 0.000000 0.000000 0.000000
# 2 -0.002468 0.006841 -0.001352 0.000000 0.000000 0.000000
# 3 -0.002577 -0.001352 0.014119 0.000000 0.000000 0.000000
# 4 0.000000 0.000000 0.000000 0.029121 0.000000 0.000000
# 5 0.000000 0.000000 0.000000 0.000000 0.022421 0.000000
# 6 0.000000 0.000000 0.000000 0.000000 0.000000 0.033804
#
#
# Mechanical properties :
#
#
# Convention : Reuss Voigt Hill
#
# Bulk Modulus (GPa) = 57.58529 66.23143 61.90836
# Shear Modulus (GPa) = 37.28904 39.84416 38.56660
#
# Velocity S-wave (km/s) = 3.94934 4.08241 4.01643
# Velocity P-wave (km/s) = 6.69950 7.06575 6.88506
#
# Compressibility (1/GPa) = 0.01736555
#
# Stress axis : x y z
#
# Youngs Moduli (GPa) = 108.69865 146.18125 70.82645
#
# Poissons Ratio (x) = 0.36077 0.18249
# Poissons Ratio (y) = 0.26826 0.09579
# Poissons Ratio (z) = 0.28007 0.19771
#
# Static dielectric constant tensor:
#      x y z
#    x 1.990880 0.000000 0.000000 
#    y 0.000000 1.764950 0.000000 
#    z 0.000000 0.000000 1.974450 
# 
# From -- ./inp_files/4166.got.cif
#   From: 2010.05.17/outbox.cif.g08.bks.cpg/sg62_3_cif.got.tgz:4166.got - 2010.06.03 15:25:27.
