data_PCOD9467057
_publ_section_title
;
Structure prediction by ZEFSAII (Michael W. Deem and Ramdas Pophale) SiO2 
 PCOD9467057
Probable space group: P N M A
;
_chemical_formula_sum "Si O2"
_cell_formula_units_Z 40
_cell_length_a 11.552792
_cell_length_b 18.424232
_cell_length_c 8.975729
_cell_angle_alpha 90.000000
_cell_angle_beta 90.000000
_cell_angle_gamma 90.000000
_cell_volume 1910.495766
_symmetry_space_group_name_H-M "P N M A"
_symmetry_group_IT_number 62
_symmetry_cell_setting 'orthorhombic'
loop_
_space_group_symop_operation_xyz
x,y,z
1/2-x,-y,1/2+z
1/2+x,1/2-y,1/2-z
-x,1/2+y,-z
-x,-y,-z
1/2+x,y,1/2-z
1/2-x,1/2+y,1/2+z
x,1/2-y,z
loop_
_atom_site_type_symbol
_atom_site_label
_atom_site_fract_x
_atom_site_fract_y
_atom_site_fract_z
Si Si1 0.222314 0.434261 0.293482
Si Si2 0.685438 0.664954 0.478075
Si Si3 0.242010 0.661840 0.360612
Si Si4 0.380208 0.456332 0.017551
Si Si5 0.950895 0.919467 0.970664
O O1 0.233727 0.361885 0.389325
O O2 0.207309 0.496367 0.416161
O O3 0.112103 0.426832 0.187720
O O4 0.330061 0.451010 0.184295
O O5 0.674903 0.750000 0.475456
O O6 0.728656 0.642864 0.313854
O O7 0.563231 0.629745 0.515920
O O8 0.246111 0.750000 0.378192
O O9 0.133217 0.624215 0.446858
O O10 0.355567 0.621928 0.426511
O O11 0.500000 0.500000 0.000000
O O12 0.000000 0.000000 0.000000
#
# Coordination Sequence:
#
# PCOD9467057 Si02
#       5
#     8   8   8   8   8
#     4  11  24  40  63  93 126 163 212 271 315 378
#     4  11  24  42  64  93 130 171 213 263 325 386
#     4  10  23  43  67  95 131 172 217 267 320 385
#     4  11  23  41  65  92 125 165 211 259 314 376
#     4  11  23  42  69  95 125 169 216 268 323 383
#
# _framework density 20.936973999999999
#
# number of rings (size 3 to 8) (size 9 to 14) (size 15 to 20)
#    0.000    1.200    0.000    6.600    0.000   10.400 
#    0.000    3.000    0.000    0.000    0.000    0.000 
#    0.000    0.000    0.000    0.000    0.000    0.000 
#
# Total GULP energy -223418.248223 kJ/mol
# GULP energy per Si atom -5585.456206 kJ/mol
# Density = 2.088932 g / cm^3
# Si number density = 20.936974 Si / 1000 Ang^3
#
#
#
# Elastic Constant Matrix: (Units=GPa)
#
#
# Indices 1 2 3 4 5 6 
#
# 1 76.1914 43.3269 40.1447 0.0000 0.0000 0.0000
# 2 43.3269 100.1578 51.1160 0.0000 0.0000 0.0000
# 3 40.1447 51.1160 118.9142 0.0000 0.0000 0.0000
# 4 0.0000 0.0000 0.0000 39.9341 0.0000 0.0000
# 5 0.0000 0.0000 0.0000 0.0000 31.0876 0.0000
# 6 0.0000 0.0000 0.0000 0.0000 0.0000 35.5944
#
#
#
# Elastic Compliance Matrix: (Units=1/GPa)
#
#
# Indices 1 2 3 4 5 6 
#
# 1 0.018537 -0.006181 -0.003601 0.000000 0.000000 0.000000
# 2 -0.006181 0.014851 -0.004297 0.000000 0.000000 0.000000
# 3 -0.003601 -0.004297 0.011472 0.000000 0.000000 0.000000
# 4 0.000000 0.000000 0.000000 0.025041 0.000000 0.000000
# 5 0.000000 0.000000 0.000000 0.000000 0.032167 0.000000
# 6 0.000000 0.000000 0.000000 0.000000 0.000000 0.028094
#
#
# Mechanical properties :
#
#
# Convention : Reuss Voigt Hill
#
# Bulk Modulus (GPa) = 59.87316 62.71540 61.29428
# Shear Modulus (GPa) = 30.50839 32.03493 31.27166
#
# Velocity S-wave (km/s) = 3.82141 3.91585 3.86892
# Velocity P-wave (km/s) = 6.93757 7.10384 7.02120
#
# Compressibility (1/GPa) = 0.01670197
#
# Stress axis : x y z
#
# Youngs Moduli (GPa) = 53.94576 67.33467 87.16660
#
# Poissons Ratio (x) = 0.41620 0.31389
# Poissons Ratio (y) = 0.33344 0.37457
# Poissons Ratio (z) = 0.19426 0.28935
#
# Static dielectric constant tensor:
#      x y z
#    x 1.796290 0.000000 0.000000 
#    y 0.000000 1.750460 0.000000 
#    z 0.000000 0.000000 1.775210 
# 
# From -- ./inp_files/5005.got.cif
#   From: 2010.05.17/outbox.cif.g08.bks.cpg/sg62_3_cif.got.tgz:5005.got - 2010.06.03 15:25:27.
