data_PCOD9467870
_publ_section_title
;
Structure prediction by ZEFSAII (Michael W. Deem and Ramdas Pophale) SiO2 
 PCOD9467870
Probable space group: P N M A
;
_chemical_formula_sum "Si O2"
_cell_formula_units_Z 56
_cell_length_a 21.000000
_cell_length_b 9.000000
_cell_length_c 15.000000
_cell_angle_alpha 90.000000
_cell_angle_beta 90.000000
_cell_angle_gamma 90.000000
_cell_volume 2835.000000
_symmetry_space_group_name_H-M "P N M A"
_symmetry_group_IT_number 62
_symmetry_cell_setting 'orthorhombic'
loop_
_space_group_symop_operation_xyz
x,y,z
1/2-x,-y,1/2+z
1/2+x,1/2-y,1/2-z
-x,1/2+y,-z
-x,-y,-z
1/2+x,y,1/2-z
1/2-x,1/2+y,1/2+z
x,1/2-y,z
loop_
_atom_site_type_symbol
_atom_site_label
_atom_site_fract_x
_atom_site_fract_y
_atom_site_fract_z
Si Si1 0.128695 0.572201 0.722196
Si Si2 0.652032 0.426762 0.257441
Si Si3 0.254813 0.573987 0.119397
Si Si4 0.939407 0.073144 0.886248
Si Si5 0.076483 0.571464 0.915127
Si Si6 0.058582 0.925761 0.549347
Si Si7 0.323965 0.928642 0.946466
O O1 0.144321 0.750000 0.715267
O O2 0.182495 0.473108 0.675333
O O3 0.118713 0.538744 0.826954
O O4 0.068359 0.546834 0.655687
O O5 0.645540 0.250000 0.256356
O O6 0.701632 0.479370 0.331805
O O7 0.588384 0.499419 0.297002
O O8 0.675306 0.471674 0.157873
O O9 0.242439 0.750000 0.128651
O O10 0.265011 0.542823 0.013822
O O11 0.937251 0.250000 0.876356
O O12 0.904247 0.037505 0.981833
O O13 0.010741 0.014773 0.899602
O O14 0.065553 0.750000 0.912698
O O15 0.054388 0.750000 0.538769
O O16 0.119309 0.987993 0.496507
O O17 0.000000 0.000000 0.500000
O O18 0.334178 0.750000 0.949788
#
# Coordination Sequence:
#
# PCOD9467870 Si02
#       7
#     8   8   8   8   8   8   8
#     4   9  19  36  57  79 107 148 187 221 274 341
#     4  11  23  39  60  82 111 152 191 229 284 345
#     4  10  21  39  59  82 111 141 185 238 280 325
#     4  10  21  36  55  83 114 144 187 237 280 327
#     4   9  19  37  58  80 113 152 186 226 278 340
#     4  10  20  33  53  82 114 145 181 226 276 332
#     4   9  21  40  58  78 109 148 187 228 275 333
#
# _framework density 19.753086
#
# number of rings (size 3 to 8) (size 9 to 14) (size 15 to 20)
#    0.000    2.286    0.000    1.714    2.000    4.571 
#    0.000    5.714    0.000    0.000    0.000    0.000 
#    0.000    0.000    0.000    0.000    0.000    0.000 
#
# Total GULP energy -312078.384750 kJ/mol
# GULP energy per Si atom -5572.828299 kJ/mol
# Density = 1.970813 g / cm^3
# Si number density = 19.753086 Si / 1000 Ang^3
#
#
#
# Elastic Constant Matrix: (Units=GPa)
#
#
# Indices 1 2 3 4 5 6 
#
# 1 22.4977 7.4689 5.0138 0.0000 0.0000 0.0000
# 2 7.4689 22.1214 35.4627 0.0000 0.0000 0.0000
# 3 5.0138 35.4627 141.4530 0.0000 0.0000 0.0000
# 4 0.0000 0.0000 0.0000 30.6511 0.0000 0.0000
# 5 0.0000 0.0000 0.0000 0.0000 22.4525 0.0000
# 6 0.0000 0.0000 0.0000 0.0000 0.0000 28.9391
#
#
#
# Elastic Compliance Matrix: (Units=1/GPa)
#
#
# Indices 1 2 3 4 5 6 
#
# 1 0.051537 -0.024197 0.004240 0.000000 0.000000 0.000000
# 2 -0.024197 0.086942 -0.020939 0.000000 0.000000 0.000000
# 3 0.004240 -0.020939 0.012169 0.000000 0.000000 0.000000
# 4 0.000000 0.000000 0.000000 0.032625 0.000000 0.000000
# 5 0.000000 0.000000 0.000000 0.000000 0.044538 0.000000
# 6 0.000000 0.000000 0.000000 0.000000 0.000000 0.034555
#
#
# Mechanical properties :
#
#
# Convention : Reuss Voigt Hill
#
# Bulk Modulus (GPa) = 14.52327 31.32919 22.92623
# Shear Modulus (GPa) = 13.61985 25.61698 19.61842
#
# Velocity S-wave (km/s) = 2.62869 3.60510 3.15490
# Velocity P-wave (km/s) = 4.07207 5.76401 4.99027
#
# Compressibility (1/GPa) = 0.06885501
#
# Stress axis : x y z
#
# Youngs Moduli (GPa) = 19.40344 11.50195 82.17829
#
# Poissons Ratio (x) = 0.27831 -0.34840
# Poissons Ratio (y) = 0.46950 1.72072
# Poissons Ratio (z) = -0.08226 0.24084
#
# Static dielectric constant tensor:
#      x y z
#    x 1.790790 0.000000 0.000000 
#    y 0.000000 1.645770 0.000000 
#    z 0.000000 0.000000 1.704850 
# 
# From -- ./inp_files/20323.got.cif
#   From: 2010.05.17/outbox.ucp.g08.bks.cvg/sg62_11_cif.got.tgz:20323.got - 2010.06.11 16:29:25.
