data_PCOD9467345
_publ_section_title
;
Structure prediction by ZEFSAII (Michael W. Deem and Ramdas Pophale) SiO2 
 PCOD9467345
Probable space group: P N M A
;
_chemical_formula_sum "Si O2"
_cell_formula_units_Z 48
_cell_length_a 16.942919
_cell_length_b 8.746563
_cell_length_c 18.526985
_cell_angle_alpha 90.000000
_cell_angle_beta 90.000000
_cell_angle_gamma 90.000000
_cell_volume 2745.556676
_symmetry_space_group_name_H-M "P N M A"
_symmetry_group_IT_number 62
_symmetry_cell_setting 'orthorhombic'
loop_
_space_group_symop_operation_xyz
x,y,z
1/2-x,-y,1/2+z
1/2+x,1/2-y,1/2-z
-x,1/2+y,-z
-x,-y,-z
1/2+x,y,1/2-z
1/2-x,1/2+y,1/2+z
x,1/2-y,z
loop_
_atom_site_type_symbol
_atom_site_label
_atom_site_fract_x
_atom_site_fract_y
_atom_site_fract_z
Si Si1 0.495934 0.431324 0.080361
Si Si2 0.830084 0.933136 0.404124
Si Si3 0.743838 0.567038 0.555432
Si Si4 0.331841 0.064094 0.668520
Si Si5 0.583955 0.934834 0.477321
Si Si6 0.141846 0.933251 0.331451
O O1 0.503458 0.250000 0.075994
O O2 0.410836 0.480544 0.110598
O O3 0.566476 0.497820 0.128056
O O4 0.500000 0.500000 0.000000
O O5 0.842416 0.750000 0.398227
O O6 0.799577 0.963238 0.485748
O O7 0.757436 0.978702 0.352954
O O8 0.744637 0.750000 0.566783
O O9 0.655578 0.521497 0.531328
O O10 0.781085 0.484706 0.623932
O O11 0.333261 0.250000 0.667842
O O12 0.388734 0.015006 0.602999
O O13 0.354279 0.013611 0.748438
O O14 0.580784 0.750000 0.477275
O O15 0.500000 0.000000 0.500000
O O16 0.136601 0.750000 0.332585
#
# Coordination Sequence:
#
# PCOD9467345 Si02
#       6
#     8   8   8   8   8   8
#     4  12  23  35  54  83 114 145 183 225 272 326
#     4   9  17  35  59  78 102 141 183 221 268 321
#     4   9  18  33  55  78 106 141 177 223 276 319
#     4   8  18  37  58  79 107 144 182 223 274 326
#     4   9  18  36  59  81 106 142 186 227 270 320
#     4  11  21  35  56  82 111 144 184 225 272 329
#
# _framework density 17.482793999999998
#
# number of rings (size 3 to 8) (size 9 to 14) (size 15 to 20)
#    0.000    2.333    1.667    4.000    0.000    0.667 
#    3.000    5.833    0.000    0.000    0.000    0.000 
#    0.000    0.000    0.000    0.000    0.000    0.000 
#
# Total GULP energy -267800.408438 kJ/mol
# GULP energy per Si atom -5579.175176 kJ/mol
# Density = 1.744300 g / cm^3
# Si number density = 17.482794 Si / 1000 Ang^3
#
#
#
# Elastic Constant Matrix: (Units=GPa)
#
#
# Indices 1 2 3 4 5 6 
#
# 1 156.6998 43.6146 92.4902 0.0000 0.0000 0.0000
# 2 43.6146 45.0215 42.0850 0.0000 0.0000 0.0000
# 3 92.4902 42.0850 142.7811 0.0000 0.0000 0.0000
# 4 0.0000 0.0000 0.0000 21.7457 0.0000 0.0000
# 5 0.0000 0.0000 0.0000 0.0000 22.7727 0.0000
# 6 0.0000 0.0000 0.0000 0.0000 0.0000 34.4679
#
#
#
# Elastic Compliance Matrix: (Units=1/GPa)
#
#
# Indices 1 2 3 4 5 6 
#
# 1 0.011288 -0.005660 -0.005644 0.000000 0.000000 0.000000
# 2 -0.005660 0.033496 -0.006207 0.000000 0.000000 0.000000
# 3 -0.005644 -0.006207 0.012489 0.000000 0.000000 0.000000
# 4 0.000000 0.000000 0.000000 0.045986 0.000000 0.000000
# 5 0.000000 0.000000 0.000000 0.000000 0.043912 0.000000
# 6 0.000000 0.000000 0.000000 0.000000 0.000000 0.029013
#
#
# Mechanical properties :
#
#
# Convention : Reuss Voigt Hill
#
# Bulk Modulus (GPa) = 44.93821 77.87577 61.40699
# Shear Modulus (GPa) = 22.87034 26.88477 24.87756
#
# Velocity S-wave (km/s) = 3.62078 3.92571 3.77632
# Velocity P-wave (km/s) = 6.57572 8.07399 7.36306
#
# Compressibility (1/GPa) = 0.02225278
#
# Stress axis : x y z
#
# Youngs Moduli (GPa) = 88.58806 29.85387 80.06819
#
# Poissons Ratio (x) = 0.16896 0.45191
# Poissons Ratio (y) = 0.50137 0.49699
# Poissons Ratio (z) = 0.50000 0.18530
#
# Static dielectric constant tensor:
#      x y z
#    x 1.587960 0.000000 0.000000 
#    y 0.000000 1.586220 0.000000 
#    z 0.000000 0.000000 1.589990 
# 
# From -- ./inp_files/24222.got.cif
#   From: 2010.05.17/outbox.cif.g08.bks.cpg/sg62_13_cif.got.tgz:24222.got - 2010.06.03 15:25:27.
