data_PCOD9467494
_publ_section_title
;
Structure prediction by ZEFSAII (Michael W. Deem and Ramdas Pophale) SiO2 
 PCOD9467494
Probable space group: P N M A
;
_chemical_formula_sum "Si O2"
_cell_formula_units_Z 48
_cell_length_a 9.466547
_cell_length_b 9.011246
_cell_length_c 28.594741
_cell_angle_alpha 90.000000
_cell_angle_beta 90.000000
_cell_angle_gamma 90.000000
_cell_volume 2439.285355
_symmetry_space_group_name_H-M "P N M A"
_symmetry_group_IT_number 62
_symmetry_cell_setting 'orthorhombic'
loop_
_space_group_symop_operation_xyz
x,y,z
1/2-x,-y,1/2+z
1/2+x,1/2-y,1/2-z
-x,1/2+y,-z
-x,-y,-z
1/2+x,y,1/2-z
1/2-x,1/2+y,1/2+z
x,1/2-y,z
loop_
_atom_site_type_symbol
_atom_site_label
_atom_site_fract_x
_atom_site_fract_y
_atom_site_fract_z
Si Si1 0.204465 0.574428 0.722652
Si Si2 0.705263 0.073123 0.617171
Si Si3 0.588067 0.078029 0.959235
Si Si4 0.637952 0.921909 0.519254
Si Si5 0.006185 0.424387 0.364868
Si Si6 0.993766 0.927667 0.200488
O O1 0.220093 0.750000 0.733170
O O2 0.100299 0.558611 0.678213
O O3 0.357084 0.505116 0.711261
O O4 0.124857 0.490812 0.764475
O O5 0.720301 0.250000 0.613568
O O6 0.567140 0.041754 0.648572
O O7 0.692943 0.002497 0.565895
O O8 0.844236 0.005840 0.641703
O O9 0.545226 0.250000 0.954185
O O10 0.563153 0.994027 0.911055
O O11 0.746835 0.072797 0.978142
O O12 0.500000 0.000000 0.000000
O O13 0.611853 0.750000 0.530783
O O14 0.500000 0.000000 0.500000
O O15 0.033085 0.250000 0.372193
O O16 0.007168 0.750000 0.206052
#
# Coordination Sequence:
#
# PCOD9467494 Si02
#       6
#     8   8   8   8   8   8
#     4  11  25  44  68  98 130 168 211 261 318 380
#     4  11  24  42  65  94 127 168 213 262 318 376
#     4  11  23  40  64  93 126 168 215 261 313 374
#     4  11  25  42  63  92 128 169 214 263 318 376
#     4  11  24  41  64  95 128 167 213 261 317 377
#     4  11  25  44  68  97 130 167 211 262 319 380
#
# _framework density 19.677893999999998
#
# number of rings (size 3 to 8) (size 9 to 14) (size 15 to 20)
#    0.000    1.000    1.667    4.000    2.333   10.000 
#    0.000    0.000    0.000    0.000    0.000    0.000 
#    0.000    0.000    0.000    0.000    0.000    0.000 
#
# Total GULP energy -268531.712043 kJ/mol
# GULP energy per Si atom -5594.410668 kJ/mol
# Density = 1.963311 g / cm^3
# Si number density = 19.677894 Si / 1000 Ang^3
#
#
#
# Elastic Constant Matrix: (Units=GPa)
#
#
# Indices 1 2 3 4 5 6 
#
# 1 113.7154 45.6580 6.8942 0.0000 0.0000 0.0000
# 2 45.6580 104.3948 25.3673 0.0000 0.0000 0.0000
# 3 6.8942 25.3673 47.9066 0.0000 0.0000 0.0000
# 4 0.0000 0.0000 0.0000 30.1670 0.0000 0.0000
# 5 0.0000 0.0000 0.0000 0.0000 27.4536 0.0000
# 6 0.0000 0.0000 0.0000 0.0000 0.0000 39.3746
#
#
#
# Elastic Compliance Matrix: (Units=1/GPa)
#
#
# Indices 1 2 3 4 5 6 
#
# 1 0.010715 -0.004948 0.001078 0.000000 0.000000 0.000000
# 2 -0.004948 0.013279 -0.006319 0.000000 0.000000 0.000000
# 3 0.001078 -0.006319 0.024065 0.000000 0.000000 0.000000
# 4 0.000000 0.000000 0.000000 0.033149 0.000000 0.000000
# 5 0.000000 0.000000 0.000000 0.000000 0.036425 0.000000
# 6 0.000000 0.000000 0.000000 0.000000 0.000000 0.025397
#
#
# Mechanical properties :
#
#
# Convention : Reuss Voigt Hill
#
# Bulk Modulus (GPa) = 36.12689 46.87288 41.49988
# Shear Modulus (GPa) = 28.96273 31.93887 30.45080
#
# Velocity S-wave (km/s) = 3.84062 4.03312 3.93805
# Velocity P-wave (km/s) = 6.16978 6.74981 6.46630
#
# Compressibility (1/GPa) = 0.02768021
#
# Stress axis : x y z
#
# Youngs Moduli (GPa) = 93.32388 75.30796 41.55430
#
# Poissons Ratio (x) = 0.37266 -0.04481
# Poissons Ratio (y) = 0.46181 0.26259
# Poissons Ratio (z) = -0.10063 0.47589
#
# Static dielectric constant tensor:
#      x y z
#    x 1.682440 0.000000 0.000000 
#    y 0.000000 1.662880 0.000000 
#    z 0.000000 0.000000 1.665140 
# 
# From -- ./inp_files/31970.got.cif
#   From: 2010.05.17/outbox.cif.g08.bks.cpg/sg62_16_cif.got.tgz:31970.got - 2010.06.03 15:25:27.
