data_PCOD9467164
_publ_section_title
;
Structure prediction by ZEFSAII (Michael W. Deem and Ramdas Pophale) SiO2 
 PCOD9467164
Probable space group: P N M A
;
_chemical_formula_sum "Si O2"
_cell_formula_units_Z 32
_cell_length_a 5.460137
_cell_length_b 13.704609
_cell_length_c 18.221603
_cell_angle_alpha 90.000000
_cell_angle_beta 90.000000
_cell_angle_gamma 90.000000
_cell_volume 1363.505108
_symmetry_space_group_name_H-M "P N M A"
_symmetry_group_IT_number 62
_symmetry_cell_setting 'orthorhombic'
loop_
_space_group_symop_operation_xyz
x,y,z
1/2-x,-y,1/2+z
1/2+x,1/2-y,1/2-z
-x,1/2+y,-z
-x,-y,-z
1/2+x,y,1/2-z
1/2-x,1/2+y,1/2+z
x,1/2-y,z
loop_
_atom_site_type_symbol
_atom_site_label
_atom_site_fract_x
_atom_site_fract_y
_atom_site_fract_z
Si Si1 0.688372 0.035569 0.560835
Si Si2 0.052815 0.637693 0.565781
Si Si3 0.688158 0.133514 0.285906
Si Si4 0.025051 0.367148 0.792149
O O1 0.558845 0.084760 0.629020
O O2 0.857236 0.112696 0.516140
O O3 0.500000 0.000000 0.500000
O O4 0.849348 0.942534 0.583647
O O5 0.968796 0.750000 0.571637
O O6 0.262662 0.623443 0.627419
O O7 0.930304 0.095467 0.244005
O O8 0.680168 0.250000 0.271282
O O9 0.264058 0.392437 0.743561
O O10 0.028805 0.250000 0.800573
#
# Coordination Sequence:
#
# PCOD9467164 Si02
#       4
#     8   8   8   8
#     4  11  26  44  67 104 139 184 236 306 366 434
#     4  10  24  43  65  95 136 185 230 286 364 436
#     4   9  19  36  59  89 125 168 218 263 319 405
#     4  10  24  47  77 107 141 191 248 307 363 428
#
# _framework density 23.468927999999998
#
# number of rings (size 3 to 8) (size 9 to 14) (size 15 to 20)
#    0.000    2.000    0.000    0.750   10.500    4.000 
#    0.000    0.000    0.000    0.000    0.000    0.000 
#    0.000    0.000    0.000    0.000    0.000    0.000 
#
# Total GULP energy -179293.628700 kJ/mol
# GULP energy per Si atom -5602.925897 kJ/mol
# Density = 2.341551 g / cm^3
# Si number density = 23.468928 Si / 1000 Ang^3
#
#
#
# Elastic Constant Matrix: (Units=GPa)
#
#
# Indices 1 2 3 4 5 6 
#
# 1 116.7582 74.1750 50.0188 0.0000 0.0000 0.0000
# 2 74.1750 132.0058 66.6577 0.0000 0.0000 0.0000
# 3 50.0188 66.6577 124.5094 0.0000 0.0000 0.0000
# 4 0.0000 0.0000 0.0000 33.7796 0.0000 0.0000
# 5 0.0000 0.0000 0.0000 0.0000 47.4862 0.0000
# 6 0.0000 0.0000 0.0000 0.0000 0.0000 37.6834
#
#
#
# Elastic Compliance Matrix: (Units=1/GPa)
#
#
# Indices 1 2 3 4 5 6 
#
# 1 0.013635 -0.006709 -0.001886 0.000000 0.000000 0.000000
# 2 -0.006709 0.013684 -0.004630 0.000000 0.000000 0.000000
# 3 -0.001886 -0.004630 0.011268 0.000000 0.000000 0.000000
# 4 0.000000 0.000000 0.000000 0.029604 0.000000 0.000000
# 5 0.000000 0.000000 0.000000 0.000000 0.021059 0.000000
# 6 0.000000 0.000000 0.000000 0.000000 0.000000 0.026537
#
#
# Mechanical properties :
#
#
# Convention : Reuss Voigt Hill
#
# Bulk Modulus (GPa) = 82.40068 83.88627 83.14347
# Shear Modulus (GPa) = 34.18066 35.95130 35.06598
#
# Velocity S-wave (km/s) = 3.82045 3.91815 3.86961
# Velocity P-wave (km/s) = 7.39242 7.50269 7.44776
#
# Compressibility (1/GPa) = 0.01213582
#
# Stress axis : x y z
#
# Youngs Moduli (GPa) = 73.34139 73.07995 88.74761
#
# Poissons Ratio (x) = 0.49032 0.16734
# Poissons Ratio (y) = 0.49208 0.41093
# Poissons Ratio (z) = 0.13829 0.33839
#
# Static dielectric constant tensor:
#      x y z
#    x 1.914990 0.000000 0.000000 
#    y 0.000000 1.890100 0.000000 
#    z 0.000000 0.000000 1.854460 
# 
# From -- ./inp_files/21402.got.cif
#   From: 2010.05.17/outbox.cif.g08.bks.cpg/sg62_11_cif.got.tgz:21402.got - 2010.06.03 15:25:27.
