data_PCOD9467020
_publ_section_title
;
Structure prediction by ZEFSAII (Michael W. Deem and Ramdas Pophale) SiO2 
 PCOD9467020
Probable space group: P N M A
;
_chemical_formula_sum "Si O2"
_cell_formula_units_Z 40
_cell_length_a 14.131017
_cell_length_b 8.561235
_cell_length_c 14.110581
_cell_angle_alpha 90.000000
_cell_angle_beta 90.000000
_cell_angle_gamma 90.000000
_cell_volume 1707.083377
_symmetry_space_group_name_H-M "P N M A"
_symmetry_group_IT_number 62
_symmetry_cell_setting 'orthorhombic'
loop_
_space_group_symop_operation_xyz
x,y,z
1/2-x,-y,1/2+z
1/2+x,1/2-y,1/2-z
-x,1/2+y,-z
-x,-y,-z
1/2+x,y,1/2-z
1/2-x,1/2+y,1/2+z
x,1/2-y,z
loop_
_atom_site_type_symbol
_atom_site_label
_atom_site_fract_x
_atom_site_fract_y
_atom_site_fract_z
Si Si1 0.117951 0.069545 0.396343
Si Si2 0.711679 0.433682 0.724197
Si Si3 0.289803 0.430120 0.069464
Si Si4 0.003522 0.067093 0.759817
Si Si5 0.594852 0.933288 0.454229
O O1 0.118069 0.250000 0.421912
O O2 0.208073 0.030084 0.329104
O O3 0.131909 0.970670 0.491475
O O4 0.028056 0.026872 0.332068
O O5 0.728439 0.250000 0.705041
O O6 0.708598 0.464166 0.837000
O O7 0.604527 0.479139 0.696582
O O8 0.294698 0.250000 0.097385
O O9 0.187956 0.468583 0.022354
O O10 0.010684 0.250000 0.734318
O O11 0.925206 0.052982 0.841448
O O12 0.607710 0.750000 0.476728
O O13 0.500000 0.000000 0.500000
#
# Coordination Sequence:
#
# PCOD9467020 Si02
#       5
#     8   8   8   8   8
#     4  12  25  42  67  97 131 173 220 274 332 395
#     4  11  23  43  68  97 133 172 219 272 332 397
#     4  12  25  42  65  94 131 176 221 271 329 390
#     4  10  23  42  66  93 129 174 215 268 330 392
#     4  11  22  39  65  97 132 170 219 272 329 390
#
# _framework density 23.431781000000001
#
# number of rings (size 3 to 8) (size 9 to 14) (size 15 to 20)
#    0.000    0.800    2.000    6.000    0.000    4.800 
#    0.000    0.000    0.000    0.000    0.000    0.000 
#    0.000    0.000    0.000    0.000    0.000    0.000 
#
# Total GULP energy -224078.521986 kJ/mol
# GULP energy per Si atom -5601.963050 kJ/mol
# Density = 2.337845 g / cm^3
# Si number density = 23.431781 Si / 1000 Ang^3
#
#
#
# Elastic Constant Matrix: (Units=GPa)
#
#
# Indices 1 2 3 4 5 6 
#
# 1 48.4504 6.5127 -5.4175 0.0000 0.0000 0.0000
# 2 6.5127 57.2613 -8.3483 0.0000 0.0000 0.0000
# 3 -5.4175 -8.3483 56.5849 0.0000 0.0000 0.0000
# 4 0.0000 0.0000 0.0000 29.4222 0.0000 0.0000
# 5 0.0000 0.0000 0.0000 0.0000 43.4452 0.0000
# 6 0.0000 0.0000 0.0000 0.0000 0.0000 28.1725
#
#
#
# Elastic Compliance Matrix: (Units=1/GPa)
#
#
# Indices 1 2 3 4 5 6 
#
# 1 0.021120 -0.002154 0.001704 0.000000 0.000000 0.000000
# 2 -0.002154 0.018067 0.002459 0.000000 0.000000 0.000000
# 3 0.001704 0.002459 0.018199 0.000000 0.000000 0.000000
# 4 0.000000 0.000000 0.000000 0.033988 0.000000 0.000000
# 5 0.000000 0.000000 0.000000 0.000000 0.023018 0.000000
# 6 0.000000 0.000000 0.000000 0.000000 0.000000 0.035496
#
#
# Mechanical properties :
#
#
# Convention : Reuss Voigt Hill
#
# Bulk Modulus (GPa) = 16.28514 16.42118 16.35316
# Shear Modulus (GPa) = 30.05979 31.51128 30.78553
#
# Velocity S-wave (km/s) = 3.58559 3.67114 3.62862
# Velocity P-wave (km/s) = 4.90990 4.99930 4.95480
#
# Compressibility (1/GPa) = 0.06140566
#
# Stress axis : x y z
#
# Youngs Moduli (GPa) = 47.34916 55.34864 54.94934
#
# Poissons Ratio (x) = 0.11920 -0.09365
# Poissons Ratio (y) = 0.10197 -0.13514
# Poissons Ratio (z) = -0.08070 -0.13612
#
# Static dielectric constant tensor:
#      x y z
#    x 1.949810 0.000000 0.000000 
#    y 0.000000 1.732410 0.000000 
#    z 0.000000 0.000000 1.901410 
# 
# From -- ./inp_files/18611.got.cif
#   From: 2010.05.17/outbox.cif.g08.bks.cpg/sg62_10_cif.got.tgz:18611.got - 2010.06.03 15:25:27.
