data_PCOD9467172
_publ_section_title
;
Structure prediction by ZEFSAII (Michael W. Deem and Ramdas Pophale) SiO2 
 PCOD9467172
Probable space group: P N M A
;
_chemical_formula_sum "Si O2"
_cell_formula_units_Z 32
_cell_length_a 10.388340
_cell_length_b 12.310244
_cell_length_c 9.809417
_cell_angle_alpha 90.000000
_cell_angle_beta 90.000000
_cell_angle_gamma 90.000000
_cell_volume 1254.457676
_symmetry_space_group_name_H-M "P N M A"
_symmetry_group_IT_number 62
_symmetry_cell_setting 'orthorhombic'
loop_
_space_group_symop_operation_xyz
x,y,z
1/2-x,-y,1/2+z
1/2+x,1/2-y,1/2-z
-x,1/2+y,-z
-x,-y,-z
1/2+x,y,1/2-z
1/2-x,1/2+y,1/2+z
x,1/2-y,z
loop_
_atom_site_type_symbol
_atom_site_label
_atom_site_fract_x
_atom_site_fract_y
_atom_site_fract_z
Si Si1 0.331714 0.931980 0.102610
Si Si2 0.488391 0.750000 0.515938
Si Si3 0.647610 0.750000 0.276991
Si Si4 0.021716 0.750000 0.499599
Si Si5 0.247412 0.750000 0.692999
Si Si6 0.332952 0.062235 0.362275
O O1 0.226919 0.852226 0.169821
O O2 0.437419 0.857304 0.029126
O O3 0.385648 0.994573 0.234280
O O4 0.249604 0.993534 0.983898
O O5 0.509834 0.750000 0.354136
O O6 0.347381 0.750000 0.572600
O O7 0.561042 0.642004 0.571642
O O8 0.626214 0.750000 0.119460
O O9 0.100516 0.750000 0.638944
O O10 0.264432 0.854702 0.787041
#
# Coordination Sequence:
#
# PCOD9467172 Si02
#       6
#     8   4   4   4   4   8
#     4  10  24  46  68 102 136 170 233 271 343 393
#     4   9  22  45  66  98 136 183 217 271 343 397
#     4   9  22  43  66  97 139 175 222 284 332 387
#     4  11  25  41  73  97 133 183 221 283 319 410
#     4  11  25  41  69  94 134 183 224 264 346 394
#     4  10  24  43  71  97 135 176 216 287 327 407
#
# _framework density 25.509031
#
# number of rings (size 3 to 8) (size 9 to 14) (size 15 to 20)
#    0.000    2.000    0.000    2.250   14.000    3.000 
#    0.000    5.000    0.000    0.000    0.000    0.000 
#    0.000    0.000    0.000    0.000    0.000    0.000 
#
# Total GULP energy -179060.880916 kJ/mol
# GULP energy per Si atom -5595.652529 kJ/mol
# Density = 2.545097 g / cm^3
# Si number density = 25.509031 Si / 1000 Ang^3
#
#
#
# Elastic Constant Matrix: (Units=GPa)
#
#
# Indices 1 2 3 4 5 6 
#
# 1 76.1817 5.0897 28.0039 0.0000 0.0000 0.0000
# 2 5.0897 62.8943 28.4159 0.0000 0.0000 0.0000
# 3 28.0039 28.4159 136.2158 0.0000 0.0000 0.0000
# 4 0.0000 0.0000 0.0000 74.5642 0.0000 0.0000
# 5 0.0000 0.0000 0.0000 0.0000 37.8711 0.0000
# 6 0.0000 0.0000 0.0000 0.0000 0.0000 -5.5608
#
#
#
# Elastic Compliance Matrix: (Units=1/GPa)
#
#
# Indices 1 2 3 4 5 6 
#
# 1 0.014202 0.000188 -0.002959 0.000000 0.000000 0.000000
# 2 0.000188 0.017557 -0.003701 0.000000 0.000000 0.000000
# 3 -0.002959 -0.003701 0.008722 0.000000 0.000000 0.000000
# 4 0.000000 0.000000 0.000000 0.013411 0.000000 0.000000
# 5 0.000000 0.000000 0.000000 0.000000 0.026405 0.000000
# 6 0.000000 0.000000 0.000000 0.000000 0.000000 -0.179829
#
#
# Mechanical properties :
#
#
# Convention : Reuss Voigt Hill
#
# Bulk Modulus (GPa) = 36.31695 44.25677 40.28686
# Shear Modulus (GPa) = -64.59149 35.62705 -14.48222
#
# Velocity S-wave (km/s) = -5.03746 3.74122 -2.38529
# Velocity P-wave (km/s) = 4.42344 6.00412 2.87077
#
# Compressibility (1/GPa) = 0.02753535
#
# Stress axis : x y z
#
# Youngs Moduli (GPa) = 70.41462 56.95848 114.65741
#
# Poissons Ratio (x) = -0.01068 0.33924
# Poissons Ratio (y) = -0.01320 0.42435
# Poissons Ratio (z) = 0.20834 0.21081
#
# Static dielectric constant tensor:
#      x y z
#    x 1.984350 0.000000 0.000000 
#    y 0.000000 2.137010 0.000000 
#    z 0.000000 0.000000 1.927590 
# 
# From -- ./inp_files/4918.got.cif
#   From: 2010.05.17/outbox.cif.g08.bks.cpg/sg62_3_cif.got.tgz:4918.got - 2010.06.03 15:25:27.
