data_PCOD9467983
_publ_section_title
;
Structure prediction by ZEFSAII (Michael W. Deem and Ramdas Pophale) SiO2 
 PCOD9467983
Probable space group: P N M A
;
_chemical_formula_sum "Si O2"
_cell_formula_units_Z 56
_cell_length_a 12.000000
_cell_length_b 15.000000
_cell_length_c 15.000000
_cell_angle_alpha 90.000000
_cell_angle_beta 90.000000
_cell_angle_gamma 90.000000
_cell_volume 2700.000000
_symmetry_space_group_name_H-M "P N M A"
_symmetry_group_IT_number 62
_symmetry_cell_setting 'orthorhombic'
loop_
_space_group_symop_operation_xyz
x,y,z
1/2-x,-y,1/2+z
1/2+x,1/2-y,1/2-z
-x,1/2+y,-z
-x,-y,-z
1/2+x,y,1/2-z
1/2-x,1/2+y,1/2+z
x,1/2-y,z
loop_
_atom_site_type_symbol
_atom_site_label
_atom_site_fract_x
_atom_site_fract_y
_atom_site_fract_z
Si Si1 0.895763 0.147105 0.484194
Si Si2 0.087943 0.921035 0.147940
Si Si3 0.997138 0.149714 0.669953
Si Si4 0.530771 0.910984 0.705254
Si Si5 0.619904 0.355134 0.131353
Si Si6 0.846282 0.349729 0.044198
Si Si7 0.676248 0.990348 0.847668
O O1 0.860980 0.250000 0.464391
O O2 0.907634 0.137646 0.590395
O O3 0.019081 0.135606 0.440041
O O4 0.825166 0.069909 0.436772
O O5 0.054916 0.857844 0.231083
O O6 0.206141 0.965772 0.169518
O O7 0.995461 0.997339 0.155061
O O8 0.102594 0.887988 0.046853
O O9 0.044415 0.250000 0.658193
O O10 0.086046 0.070792 0.653718
O O11 0.430287 0.891088 0.774867
O O12 0.564651 0.847690 0.624624
O O13 0.636189 0.923661 0.770128
O O14 0.638231 0.250000 0.147269
O O15 0.733177 0.392626 0.086638
O O16 0.811736 0.250000 0.018928
#
# Coordination Sequence:
#
# PCOD9467983 Si02
#       7
#     8   8   8   8   8   8   8
#     4   9  18  35  59  88 119 148 186 243 301 351
#     4  11  23  37  55  82 117 156 197 234 282 347
#     4  10  21  37  58  86 120 155 193 240 293 350
#     4  10  21  38  56  82 114 147 183 234 293 346
#     4   9  18  34  59  87 109 137 185 238 289 341
#     4  11  22  37  58  81 110 149 191 238 288 344
#     4  10  21  36  60  86 114 152 194 241 292 349
#
# _framework density 20.740741
#
# number of rings (size 3 to 8) (size 9 to 14) (size 15 to 20)
#    0.000    2.000    0.000    3.429    0.000    6.286 
#    0.000    1.429    0.000    4.286    0.000    0.000 
#    0.000    0.000    0.000    0.000    0.000    0.000 
#
# Total GULP energy -312236.277804 kJ/mol
# GULP energy per Si atom -5575.647818 kJ/mol
# Density = 2.069353 g / cm^3
# Si number density = 20.740741 Si / 1000 Ang^3
#
#
#
# Elastic Constant Matrix: (Units=GPa)
#
#
# Indices 1 2 3 4 5 6 
#
# 1 19.3535 0.1086 12.2400 0.0000 0.0000 0.0000
# 2 0.1086 65.3414 30.3350 0.0000 0.0000 0.0000
# 3 12.2400 30.3350 136.9029 0.0000 0.0000 0.0000
# 4 0.0000 0.0000 0.0000 33.7958 0.0000 0.0000
# 5 0.0000 0.0000 0.0000 0.0000 10.8000 0.0000
# 6 0.0000 0.0000 0.0000 0.0000 0.0000 -53.4322
#
#
#
# Elastic Compliance Matrix: (Units=1/GPa)
#
#
# Indices 1 2 3 4 5 6 
#
# 1 0.055116 0.002448 -0.005470 0.000000 0.000000 0.000000
# 2 0.002448 0.017168 -0.004023 0.000000 0.000000 0.000000
# 3 -0.005470 -0.004023 0.008685 0.000000 0.000000 0.000000
# 4 0.000000 0.000000 0.000000 0.029589 0.000000 0.000000
# 5 0.000000 0.000000 0.000000 0.000000 0.092593 0.000000
# 6 0.000000 0.000000 0.000000 0.000000 0.000000 -0.018715
#
#
# Mechanical properties :
#
#
# Convention : Reuss Voigt Hill
#
# Bulk Modulus (GPa) = 14.95247 34.10722 24.52984
# Shear Modulus (GPa) = 22.64299 10.16034 16.40167
#
# Velocity S-wave (km/s) = 3.30770 2.21571 2.81516
# Velocity P-wave (km/s) = 4.67041 4.79855 4.73491
#
# Compressibility (1/GPa) = 0.06687857
#
# Stress axis : x y z
#
# Youngs Moduli (GPa) = 18.14352 58.24857 115.14224
#
# Poissons Ratio (x) = -0.14259 0.62985
# Poissons Ratio (y) = -0.04441 0.46321
# Poissons Ratio (z) = 0.09925 0.23433
#
# Static dielectric constant tensor:
#      x y z
#    x 1.755950 0.000000 0.000000 
#    y 0.000000 1.790870 0.000000 
#    z 0.000000 0.000000 1.765300 
# 
# From -- ./inp_files/18087.got.cif
#   From: 2010.05.17/outbox.ucp.g08.bks.cvg/sg62_10_cif.got.tgz:18087.got - 2010.06.11 16:29:25.
