data_PCOD9467361
_publ_section_title
;
Structure prediction by ZEFSAII (Michael W. Deem and Ramdas Pophale) SiO2 
 PCOD9467361
Probable space group: P N M A
;
_chemical_formula_sum "Si O2"
_cell_formula_units_Z 48
_cell_length_a 8.251926
_cell_length_b 19.391463
_cell_length_c 13.763426
_cell_angle_alpha 90.000000
_cell_angle_beta 90.000000
_cell_angle_gamma 90.000000
_cell_volume 2202.381006
_symmetry_space_group_name_H-M "P N M A"
_symmetry_group_IT_number 62
_symmetry_cell_setting 'orthorhombic'
loop_
_space_group_symop_operation_xyz
x,y,z
1/2-x,-y,1/2+z
1/2+x,1/2-y,1/2-z
-x,1/2+y,-z
-x,-y,-z
1/2+x,y,1/2-z
1/2-x,1/2+y,1/2+z
x,1/2-y,z
loop_
_atom_site_type_symbol
_atom_site_label
_atom_site_fract_x
_atom_site_fract_y
_atom_site_fract_z
Si Si1 0.710499 0.589137 0.101530
Si Si2 0.292119 0.328648 0.201479
Si Si3 0.012141 0.171262 0.476649
Si Si4 0.027777 0.948606 0.205805
Si Si5 0.765525 0.450168 0.980621
Si Si6 0.026903 0.594512 0.850120
O O1 0.647354 0.654014 0.040918
O O2 0.587866 0.577533 0.191284
O O3 0.708459 0.521688 0.030604
O O4 0.886227 0.593986 0.152357
O O5 0.237210 0.250000 0.199550
O O6 0.344642 0.351666 0.308170
O O7 0.150513 0.375440 0.159705
O O8 0.451134 0.334965 0.134149
O O9 0.067662 0.250000 0.493237
O O10 0.137314 0.111061 0.503546
O O11 0.177753 0.955439 0.130290
O O12 0.959209 0.026070 0.215228
O O13 0.923672 0.428374 0.043003
#
# Coordination Sequence:
#
# PCOD9467361 Si02
#       6
#     8   8   8   8   8   8
#     4  11  22  40  64  89 120 156 199 250 298 355
#     4  11  22  36  57  86 124 163 197 238 299 368
#     4  11  24  41  60  86 119 158 201 247 302 362
#     4  11  22  39  63  91 118 153 204 251 299 350
#     4  11  23  39  64  92 122 157 199 251 304 357
#     4  11  21  37  59  90 122 155 196 245 296 356
#
# _framework density 21.794595999999999
#
# number of rings (size 3 to 8) (size 9 to 14) (size 15 to 20)
#    0.000    1.000    0.000   10.000    0.000    2.667 
#    0.000    4.167    0.000    0.000    0.000    0.000 
#    0.000    0.000    0.000    0.000    0.000    0.000 
#
# Total GULP energy -268616.436136 kJ/mol
# GULP energy per Si atom -5596.175753 kJ/mol
# Density = 2.174499 g / cm^3
# Si number density = 21.794596 Si / 1000 Ang^3
#
#
#
# Elastic Constant Matrix: (Units=GPa)
#
#
# Indices 1 2 3 4 5 6 
#
# 1 71.8509 14.7105 -0.2570 0.0000 0.0000 0.0000
# 2 14.7105 65.9825 16.4291 0.0000 0.0000 0.0000
# 3 -0.2570 16.4291 82.5124 0.0000 0.0000 0.0000
# 4 0.0000 0.0000 0.0000 24.0776 0.0000 0.0000
# 5 0.0000 0.0000 0.0000 0.0000 37.2815 0.0000
# 6 0.0000 0.0000 0.0000 0.0000 0.0000 27.9073
#
#
#
# Elastic Compliance Matrix: (Units=1/GPa)
#
#
# Indices 1 2 3 4 5 6 
#
# 1 0.014625 -0.003443 0.000731 0.000000 0.000000 0.000000
# 2 -0.003443 0.016756 -0.003347 0.000000 0.000000 0.000000
# 3 0.000731 -0.003347 0.012788 0.000000 0.000000 0.000000
# 4 0.000000 0.000000 0.000000 0.041532 0.000000 0.000000
# 5 0.000000 0.000000 0.000000 0.000000 0.026823 0.000000
# 6 0.000000 0.000000 0.000000 0.000000 0.000000 0.035833
#
#
# Mechanical properties :
#
#
# Convention : Reuss Voigt Hill
#
# Bulk Modulus (GPa) = 31.19902 31.34565 31.27234
# Shear Modulus (GPa) = 29.21250 30.48414 29.84832
#
# Velocity S-wave (km/s) = 3.66506 3.74398 3.70473
# Velocity P-wave (km/s) = 5.67946 5.75355 5.71663
#
# Compressibility (1/GPa) = 0.03205229
#
# Stress axis : x y z
#
# Youngs Moduli (GPa) = 68.37539 59.67846 78.19760
#
# Poissons Ratio (x) = 0.20545 -0.05716
# Poissons Ratio (y) = 0.23539 0.26174
# Poissons Ratio (z) = -0.04998 0.19975
#
# Static dielectric constant tensor:
#      x y z
#    x 1.856140 0.000000 0.000000 
#    y 0.000000 1.735040 0.000000 
#    z 0.000000 0.000000 1.781180 
# 
# From -- ./inp_files/16986.got.cif
#   From: 2010.05.17/outbox.cif.g08.bks.cpg/sg62_9_cif.got.tgz:16986.got - 2010.06.03 15:25:27.
