data_PCOD9467528
_publ_section_title
;
Structure prediction by ZEFSAII (Michael W. Deem and Ramdas Pophale) SiO2 
 PCOD9467528
Probable space group: P N M A
;
_chemical_formula_sum "Si O2"
_cell_formula_units_Z 44
_cell_length_a 9.433440
_cell_length_b 13.399982
_cell_length_c 15.438253
_cell_angle_alpha 90.000000
_cell_angle_beta 90.000000
_cell_angle_gamma 90.000000
_cell_volume 1951.517546
_symmetry_space_group_name_H-M "P N M A"
_symmetry_group_IT_number 62
_symmetry_cell_setting 'orthorhombic'
loop_
_space_group_symop_operation_xyz
x,y,z
1/2-x,-y,1/2+z
1/2+x,1/2-y,1/2-z
-x,1/2+y,-z
-x,-y,-z
1/2+x,y,1/2-z
1/2-x,1/2+y,1/2+z
x,1/2-y,z
loop_
_atom_site_type_symbol
_atom_site_label
_atom_site_fract_x
_atom_site_fract_y
_atom_site_fract_z
Si Si1 0.267019 0.750000 0.471226
Si Si2 0.445107 0.250000 0.636080
Si Si3 0.629334 0.952347 0.261547
Si Si4 0.229400 0.750000 0.665752
Si Si5 0.717980 0.250000 0.153235
Si Si6 0.387299 0.419137 0.270419
Si Si7 0.464289 0.416796 0.930109
Si Si8 0.672181 0.250000 0.964162
O O1 0.397163 0.750000 0.403853
O O2 0.300912 0.750000 0.573375
O O3 0.167102 0.653963 0.456270
O O4 0.407941 0.347877 0.693504
O O5 0.337355 0.250000 0.555064
O O6 0.574049 0.957268 0.163382
O O7 0.791576 0.985023 0.253602
O O8 0.537463 0.041678 0.303116
O O9 0.339750 0.750000 0.747604
O O10 0.129861 0.654193 0.687147
O O11 0.812378 0.149484 0.156613
O O12 0.632517 0.250000 0.065634
O O13 0.600411 0.345938 0.922743
O O14 0.500000 0.500000 0.000000
#
# Coordination Sequence:
#
# PCOD9467528 Si02
#       8
#     4   4   8   4   4   8   8   4
#     4  11  23  44  59  97 122 163 211 254 309 377
#     4  12  28  38  62  86 142 178 200 244 312 398
#     4  12  22  43  57  93 122 170 205 247 310 371
#     4   8  21  42  67  90 120 154 199 268 323 364
#     4   8  21  42  67  90 120 154 199 268 323 364
#     4   9  22  37  68  86 118 157 206 251 320 364
#     4  11  24  39  71  89 120 156 218 265 300 357
#     4  11  23  44  59  97 122 163 211 254 309 377
#
# _framework density 22.546555999999999
#
# number of rings (size 3 to 8) (size 9 to 14) (size 15 to 20)
#    1.091    0.364    0.000    5.455    0.000    8.000 
#    0.000    2.727    0.000    0.000    0.000    0.000 
#    0.000    0.000    0.000    0.000    0.000    0.000 
#
# Total GULP energy -245616.448446 kJ/mol
# GULP energy per Si atom -5582.192010 kJ/mol
# Density = 2.249524 g / cm^3
# Si number density = 22.546556 Si / 1000 Ang^3
#
#
#
# Elastic Constant Matrix: (Units=GPa)
#
#
# Indices 1 2 3 4 5 6 
#
# 1 92.1056 22.6294 8.3567 0.0000 0.0000 0.0000
# 2 22.6294 110.6531 10.0401 0.0000 0.0000 0.0000
# 3 8.3567 10.0401 75.4488 0.0000 0.0000 0.0000
# 4 0.0000 0.0000 0.0000 21.4979 0.0000 0.0000
# 5 0.0000 0.0000 0.0000 0.0000 26.2557 0.0000
# 6 0.0000 0.0000 0.0000 0.0000 0.0000 -7.5859
#
#
#
# Elastic Compliance Matrix: (Units=1/GPa)
#
#
# Indices 1 2 3 4 5 6 
#
# 1 0.011502 -0.002264 -0.000973 0.000000 0.000000 0.000000
# 2 -0.002264 0.009593 -0.001026 0.000000 0.000000 0.000000
# 3 -0.000973 -0.001026 0.013498 0.000000 0.000000 0.000000
# 4 0.000000 0.000000 0.000000 0.046516 0.000000 0.000000
# 5 0.000000 0.000000 0.000000 0.000000 0.038087 0.000000
# 6 0.000000 0.000000 0.000000 0.000000 0.000000 -0.131824
#
#
# Mechanical properties :
#
#
# Convention : Reuss Voigt Hill
#
# Bulk Modulus (GPa) = 38.36070 40.02887 39.19479
# Shear Modulus (GPa) = 1090.12876 23.84564 556.98720
#
# Velocity S-wave (km/s) = 22.01252 3.25563 15.73452
# Velocity P-wave (km/s) = 25.75109 5.65019 18.64193
#
# Compressibility (1/GPa) = 0.02606834
#
# Stress axis : x y z
#
# Youngs Moduli (GPa) = 86.94465 104.23927 74.08364
#
# Poissons Ratio (x) = 0.23599 0.07206
# Poissons Ratio (y) = 0.19683 0.07600
# Poissons Ratio (z) = 0.08457 0.10693
#
# Static dielectric constant tensor:
#      x y z
#    x 1.977370 0.000000 0.000000 
#    y 0.000000 1.856510 0.000000 
#    z 0.000000 0.000000 1.790780 
# 
# From -- ./inp_files/22176.got.cif
#   From: 2010.05.17/outbox.cif.g08.bks.cpg/sg62_12_cif.got.tgz:22176.got - 2010.06.03 15:25:27.
