data_PCOD9467610
_publ_section_title
;
Structure prediction by ZEFSAII (Michael W. Deem and Ramdas Pophale) SiO2 
 PCOD9467610
Probable space group: P N M A
;
_chemical_formula_sum "Si O2"
_cell_formula_units_Z 36
_cell_length_a 16.497414
_cell_length_b 10.272835
_cell_length_c 9.162849
_cell_angle_alpha 90.000000
_cell_angle_beta 90.000000
_cell_angle_gamma 90.000000
_cell_volume 1552.875776
_symmetry_space_group_name_H-M "P N M A"
_symmetry_group_IT_number 62
_symmetry_cell_setting 'orthorhombic'
loop_
_space_group_symop_operation_xyz
x,y,z
1/2-x,-y,1/2+z
1/2+x,1/2-y,1/2-z
-x,1/2+y,-z
-x,-y,-z
1/2+x,y,1/2-z
1/2-x,1/2+y,1/2+z
x,1/2-y,z
loop_
_atom_site_type_symbol
_atom_site_label
_atom_site_fract_x
_atom_site_fract_y
_atom_site_fract_z
Si Si1 0.466611 0.750000 0.670643
Si Si2 0.289860 0.471853 0.228275
Si Si3 0.044945 0.750000 0.147651
Si Si4 0.523334 0.490165 0.830242
Si Si5 0.269546 0.750000 0.243777
Si Si6 0.793993 0.750000 0.938388
Si Si7 0.210397 0.750000 0.968218
O O1 0.494670 0.750000 0.502928
O O2 0.499434 0.623644 0.750883
O O3 0.369977 0.750000 0.668477
O O4 0.379909 0.521505 0.191292
O O5 0.236493 0.600583 0.255033
O O6 0.256906 0.378432 0.100903
O O7 0.293704 0.376464 0.367295
O O8 0.022211 0.625904 0.246032
O O9 0.136160 0.750000 0.083152
O O10 0.500000 0.500000 0.000000
O O11 0.320725 0.750000 0.393606
O O12 0.289553 0.750000 0.070845
#
# Coordination Sequence:
#
# PCOD9467610 Si02
#       7
#     4   8   4   8   4   4   4
#     4  12  25  48  74 108 141 201 244 302 368 454
#     4  11  25  49  65 106 146 184 234 305 360 438
#     4  12  26  45  76 103 144 190 250 297 374 437
#     4  12  27  45  74 106 146 189 251 307 369 436
#     4  12  26  41  75 101 139 184 243 284 371 432
#     4  11  27  43  72 100 145 185 234 293 367 437
#     4  11  26  45  73 104 143 194 235 302 362 440
#
# _framework density 23.182796
#
# number of rings (size 3 to 8) (size 9 to 14) (size 15 to 20)
#    0.000    0.444    2.222    5.333    9.333    3.556 
#    0.000    0.000    0.000    0.000    0.000    0.000 
#    0.000    0.000    0.000    0.000    0.000    0.000 
#
# Total GULP energy -201119.367837 kJ/mol
# GULP energy per Si atom -5586.649107 kJ/mol
# Density = 2.313003 g / cm^3
# Si number density = 23.182796 Si / 1000 Ang^3
#
#
#
# Elastic Constant Matrix: (Units=GPa)
#
#
# Indices 1 2 3 4 5 6 
#
# 1 75.3784 35.4632 47.7001 0.0000 0.0000 0.0000
# 2 35.4632 227.2520 87.8713 0.0000 0.0000 0.0000
# 3 47.7001 87.8713 208.8194 0.0000 0.0000 0.0000
# 4 0.0000 0.0000 0.0000 98.8507 0.0000 0.0000
# 5 0.0000 0.0000 0.0000 0.0000 34.4387 0.0000
# 6 0.0000 0.0000 0.0000 0.0000 0.0000 30.9474
#
#
#
# Elastic Compliance Matrix: (Units=1/GPa)
#
#
# Indices 1 2 3 4 5 6 
#
# 1 0.015813 -0.001279 -0.003074 0.000000 0.000000 0.000000
# 2 -0.001279 0.005359 -0.001963 0.000000 0.000000 0.000000
# 3 -0.003074 -0.001963 0.006317 0.000000 0.000000 0.000000
# 4 0.000000 0.000000 0.000000 0.010116 0.000000 0.000000
# 5 0.000000 0.000000 0.000000 0.000000 0.029037 0.000000
# 6 0.000000 0.000000 0.000000 0.000000 0.000000 0.032313
#
#
# Mechanical properties :
#
#
# Convention : Reuss Voigt Hill
#
# Bulk Modulus (GPa) = 67.30617 94.83543 81.07080
# Shear Modulus (GPa) = 42.90371 55.54172 49.22271
#
# Velocity S-wave (km/s) = 4.30661 4.90002 4.61287
# Velocity P-wave (km/s) = 7.33655 8.54459 7.96351
#
# Compressibility (1/GPa) = 0.01485748
#
# Stress axis : x y z
#
# Youngs Moduli (GPa) = 63.23741 186.60214 158.30332
#
# Poissons Ratio (x) = 0.23869 0.48662
# Poissons Ratio (y) = 0.08089 0.31073
# Poissons Ratio (z) = 0.19439 0.36628
#
# Static dielectric constant tensor:
#      x y z
#    x 1.996300 0.000000 0.000000 
#    y 0.000000 1.834260 0.000000 
#    z 0.000000 0.000000 1.860350 
# 
# From -- ./inp_files/8366.got.cif
#   From: 2010.05.17/outbox.cif.g08.bks.cpg/sg62_5_cif.got.tgz:8366.got - 2010.06.03 15:25:27.
