data_PCOD9467288
_publ_section_title
;
Structure prediction by ZEFSAII (Michael W. Deem and Ramdas Pophale) SiO2 
 PCOD9467288
Probable space group: P N M A
;
_chemical_formula_sum "Si O2"
_cell_formula_units_Z 48
_cell_length_a 18.790738
_cell_length_b 7.669679
_cell_length_c 17.160717
_cell_angle_alpha 90.000000
_cell_angle_beta 90.000000
_cell_angle_gamma 90.000000
_cell_volume 2473.184149
_symmetry_space_group_name_H-M "P N M A"
_symmetry_group_IT_number 62
_symmetry_cell_setting 'orthorhombic'
loop_
_space_group_symop_operation_xyz
x,y,z
1/2-x,-y,1/2+z
1/2+x,1/2-y,1/2-z
-x,1/2+y,-z
-x,-y,-z
1/2+x,y,1/2-z
1/2-x,1/2+y,1/2+z
x,1/2-y,z
loop_
_atom_site_type_symbol
_atom_site_label
_atom_site_fract_x
_atom_site_fract_y
_atom_site_fract_z
Si Si1 0.477434 0.959029 0.587401
Si Si2 0.833063 0.963212 0.833121
Si Si3 0.407772 0.540828 0.822629
Si Si4 0.327215 0.464306 0.143201
Si Si5 0.583164 0.954124 0.003044
Si Si6 0.053081 0.537296 0.758088
O O1 0.475883 0.750000 0.594209
O O2 0.398157 0.020363 0.611331
O O3 0.532001 0.021108 0.654896
O O4 0.500000 0.000000 0.500000
O O5 0.832604 0.750000 0.834471
O O6 0.854902 0.017567 0.745585
O O7 0.754389 0.022298 0.855002
O O8 0.409409 0.750000 0.819950
O O9 0.389700 0.491523 0.910220
O O10 0.487191 0.482874 0.797520
O O11 0.326032 0.250000 0.143099
O O12 0.373402 0.517862 0.218676
O O13 0.369524 0.529081 0.066878
O O14 0.585914 0.750000 0.990444
O O15 0.500000 0.000000 0.000000
O O16 0.053698 0.750000 0.758631
#
# Coordination Sequence:
#
# PCOD9467288 Si02
#       6
#     8   8   8   8   8   8
#     4   9  17  31  51  72  94 123 163 202 235 281
#     4   8  16  31  51  70  93 130 168 199 237 291
#     4   9  16  31  51  72  94 122 162 201 238 287
#     4   9  16  29  49  72  96 126 164 201 237 286
#     4  11  20  30  50  76 102 130 163 201 244 294
#     4   8  14  27  48  68  90 122 158 193 232 285
#
# _framework density 19.408179000000001
#
# number of rings (size 3 to 8) (size 9 to 14) (size 15 to 20)
#    0.000    3.000    1.667    2.500    0.000    0.000 
#    3.000    3.333    0.000    3.000    0.000    0.000 
#    0.000    0.000    0.000    0.000    0.000    0.000 
#
# Total GULP energy -267532.144393 kJ/mol
# GULP energy per Si atom -5573.586342 kJ/mol
# Density = 1.936400 g / cm^3
# Si number density = 19.408179 Si / 1000 Ang^3
#
#
#
# Elastic Constant Matrix: (Units=GPa)
#
#
# Indices 1 2 3 4 5 6 
#
# 1 167.0095 7.3407 113.5213 0.0000 0.0000 0.0000
# 2 7.3407 28.9680 2.9470 0.0000 0.0000 0.0000
# 3 113.5213 2.9470 175.5534 0.0000 0.0000 0.0000
# 4 0.0000 0.0000 0.0000 24.9643 0.0000 0.0000
# 5 0.0000 0.0000 0.0000 0.0000 21.9527 0.0000
# 6 0.0000 0.0000 0.0000 0.0000 0.0000 6.1982
#
#
#
# Elastic Compliance Matrix: (Units=1/GPa)
#
#
# Indices 1 2 3 4 5 6 
#
# 1 0.010802 -0.002030 -0.006951 0.000000 0.000000 0.000000
# 2 -0.002030 0.034961 0.000726 0.000000 0.000000 0.000000
# 3 -0.006951 0.000726 0.010179 0.000000 0.000000 0.000000
# 4 0.000000 0.000000 0.000000 0.040057 0.000000 0.000000
# 5 0.000000 0.000000 0.000000 0.000000 0.045552 0.000000
# 6 0.000000 0.000000 0.000000 0.000000 0.000000 0.161338
#
#
# Mechanical properties :
#
#
# Convention : Reuss Voigt Hill
#
# Bulk Modulus (GPa) = 25.36021 68.79433 47.07727
# Shear Modulus (GPa) = 15.03564 27.13782 21.08673
#
# Velocity S-wave (km/s) = 2.78637 3.74340 3.29977
# Velocity P-wave (km/s) = 4.84221 7.36254 6.23113
#
# Compressibility (1/GPa) = 0.03943185
#
# Stress axis : x y z
#
# Youngs Moduli (GPa) = 92.57955 28.60294 98.24383
#
# Poissons Ratio (x) = 0.05807 0.68286
# Poissons Ratio (y) = 0.18794 -0.07131
# Poissons Ratio (z) = 0.64349 -0.02076
#
# Static dielectric constant tensor:
#      x y z
#    x 1.662760 0.000000 0.000000 
#    y 0.000000 1.732910 0.000000 
#    z 0.000000 0.000000 1.688680 
# 
# From -- ./inp_files/20027.got.cif
#   From: 2010.05.17/outbox.cif.g08.bks.cpg/sg62_11_cif.got.tgz:20027.got - 2010.06.03 15:25:27.
