data_PCOD9467320
_publ_section_title
;
Structure prediction by ZEFSAII (Michael W. Deem and Ramdas Pophale) SiO2 
 PCOD9467320
Probable space group: P N M A
;
_chemical_formula_sum "Si O2"
_cell_formula_units_Z 48
_cell_length_a 17.513042
_cell_length_b 14.864795
_cell_length_c 9.715440
_cell_angle_alpha 90.000000
_cell_angle_beta 90.000000
_cell_angle_gamma 90.000000
_cell_volume 2529.198919
_symmetry_space_group_name_H-M "P N M A"
_symmetry_group_IT_number 62
_symmetry_cell_setting 'orthorhombic'
loop_
_space_group_symop_operation_xyz
x,y,z
1/2-x,-y,1/2+z
1/2+x,1/2-y,1/2-z
-x,1/2+y,-z
-x,-y,-z
1/2+x,y,1/2-z
1/2-x,1/2+y,1/2+z
x,1/2-y,z
loop_
_atom_site_type_symbol
_atom_site_label
_atom_site_fract_x
_atom_site_fract_y
_atom_site_fract_z
Si Si1 0.730746 0.906979 0.428840
Si Si2 0.800654 0.104123 0.483604
Si Si3 0.461954 0.517437 0.352313
Si Si4 0.591731 0.639561 0.224081
Si Si5 0.637593 0.650630 0.693656
Si Si6 0.830759 0.654700 0.185803
O O1 0.656863 0.896378 0.329865
O O2 0.698461 0.870786 0.572926
O O3 0.796024 0.857897 0.338563
O O4 0.766138 0.005139 0.456292
O O5 0.877613 0.111353 0.573851
O O6 0.817494 0.145963 0.336560
O O7 0.739198 0.153132 0.579560
O O8 0.500000 0.500000 0.500000
O O9 0.517821 0.580413 0.262513
O O10 0.431082 0.421380 0.300046
O O11 0.384746 0.574740 0.359369
O O12 0.584668 0.750000 0.234320
O O13 0.606435 0.750000 0.668093
O O14 0.871969 0.750000 0.177977
#
# Coordination Sequence:
#
# PCOD9467320 Si02
#       6
#     8   8   8   8   8   8
#     4  11  20  40  65  93 121 161 211 261 310 367
#     4  11  21  41  64  94 125 164 207 260 317 371
#     4  12  24  40  63  94 124 167 213 260 310 374
#     4  11  23  41  65  92 129 173 210 248 314 388
#     4  12  23  39  64  94 127 162 207 264 321 369
#     4  11  22  40  65  92 123 162 213 258 306 378
#
# _framework density 18.978341
#
# number of rings (size 3 to 8) (size 9 to 14) (size 15 to 20)
#    0.000    0.667    5.000    5.500    0.000    1.333 
#    0.000    0.000    0.000    2.000    0.000    0.000 
#    0.000    0.000    0.000    0.000    0.000    0.000 
#
# Total GULP energy -267646.916205 kJ/mol
# GULP energy per Si atom -5575.977421 kJ/mol
# Density = 1.893515 g / cm^3
# Si number density = 18.978341 Si / 1000 Ang^3
#
#
#
# Elastic Constant Matrix: (Units=GPa)
#
#
# Indices 1 2 3 4 5 6 
#
# 1 77.6094 39.7416 26.7940 0.0000 0.0000 0.0000
# 2 39.7416 177.3795 27.0625 0.0000 0.0000 0.0000
# 3 26.7940 27.0625 136.4326 0.0000 0.0000 0.0000
# 4 0.0000 0.0000 0.0000 14.0056 0.0000 0.0000
# 5 0.0000 0.0000 0.0000 0.0000 28.7069 0.0000
# 6 0.0000 0.0000 0.0000 0.0000 0.0000 15.3102
#
#
#
# Elastic Compliance Matrix: (Units=1/GPa)
#
#
# Indices 1 2 3 4 5 6 
#
# 1 0.015277 -0.003058 -0.002394 0.000000 0.000000 0.000000
# 2 -0.003058 0.006426 -0.000674 0.000000 0.000000 0.000000
# 3 -0.002394 -0.000674 0.007933 0.000000 0.000000 0.000000
# 4 0.000000 0.000000 0.000000 0.071400 0.000000 0.000000
# 5 0.000000 0.000000 0.000000 0.000000 0.034835 0.000000
# 6 0.000000 0.000000 0.000000 0.000000 0.000000 0.065316
#
#
# Mechanical properties :
#
#
# Convention : Reuss Voigt Hill
#
# Bulk Modulus (GPa) = 57.52008 64.29085 60.90547
# Shear Modulus (GPa) = 22.80681 31.45944 27.13312
#
# Velocity S-wave (km/s) = 3.47036 4.07584 3.78522
# Velocity P-wave (km/s) = 6.81410 7.48996 7.16000
#
# Compressibility (1/GPa) = 0.01738523
#
# Stress axis : x y z
#
# Youngs Moduli (GPa) = 65.45703 155.62929 126.04858
#
# Poissons Ratio (x) = 0.47585 0.30173
# Poissons Ratio (y) = 0.20014 0.08497
# Poissons Ratio (z) = 0.15669 0.10491
#
# Static dielectric constant tensor:
#      x y z
#    x 1.662200 0.000000 0.000000 
#    y 0.000000 1.733740 0.000000 
#    z 0.000000 0.000000 1.657410 
# 
# From -- ./inp_files/7644.got.cif
#   From: 2010.05.17/outbox.cif.g08.bks.cpg/sg62_4_cif.got.tgz:7644.got - 2010.06.03 15:25:27.
