data_PCOD9467618
_publ_section_title
;
Structure prediction by ZEFSAII (Michael W. Deem and Ramdas Pophale) SiO2 
 PCOD9467618
Probable space group: P N M A
;
_chemical_formula_sum "Si O2"
_cell_formula_units_Z 48
_cell_length_a 11.444154
_cell_length_b 21.095116
_cell_length_c 8.902137
_cell_angle_alpha 90.000000
_cell_angle_beta 90.000000
_cell_angle_gamma 90.000000
_cell_volume 2149.116135
_symmetry_space_group_name_H-M "P N M A"
_symmetry_group_IT_number 62
_symmetry_cell_setting 'orthorhombic'
loop_
_space_group_symop_operation_xyz
x,y,z
1/2-x,-y,1/2+z
1/2+x,1/2-y,1/2-z
-x,1/2+y,-z
-x,-y,-z
1/2+x,y,1/2-z
1/2-x,1/2+y,1/2+z
x,1/2-y,z
loop_
_atom_site_type_symbol
_atom_site_label
_atom_site_fract_x
_atom_site_fract_y
_atom_site_fract_z
Si Si1 0.120316 0.822811 0.927590
Si Si2 0.762267 0.889418 0.349005
Si Si3 0.299695 0.380468 0.122097
Si Si4 0.964120 0.566461 0.566551
Si Si5 0.875008 0.821571 0.071298
Si Si6 0.392442 0.512730 0.618220
O O1 0.116791 0.750000 0.875278
O O2 0.174521 0.867009 0.797459
O O3 0.195993 0.830184 0.077997
O O4 0.990920 0.841909 0.981604
O O5 0.853765 0.910854 0.474770
O O6 0.833752 0.868530 0.202769
O O7 0.666981 0.945884 0.332611
O O8 0.426839 0.386984 0.050191
O O9 0.220816 0.442576 0.080954
O O10 0.227672 0.323773 0.050588
O O11 0.942572 0.550873 0.740129
O O12 0.000000 0.500000 0.500000
O O13 0.894177 0.750000 0.127637
O O14 0.500000 0.500000 0.500000
#
# Coordination Sequence:
#
# PCOD9467618 Si02
#       6
#     8   8   8   8   8   8
#     4  11  26  49  74 103 143 194 251 305 360 431
#     4  12  26  46  73 107 148 190 243 303 373 445
#     4  12  24  47  72 104 143 188 245 302 367 436
#     4  12  26  42  67 108 142 189 230 289 374 437
#     4  11  27  48  73 105 145 197 251 307 368 435
#     4  12  27  45  74 107 145 186 236 303 369 442
#
# _framework density 22.334764
#
# number of rings (size 3 to 8) (size 9 to 14) (size 15 to 20)
#    0.000    0.333    3.333    5.000    7.000    0.000 
#    0.000    2.500    0.000    0.000    0.000    0.000 
#    0.000    0.000    0.000    0.000    0.000    0.000 
#
# Total GULP energy -268177.219067 kJ/mol
# GULP energy per Si atom -5587.025397 kJ/mol
# Density = 2.228393 g / cm^3
# Si number density = 22.334764 Si / 1000 Ang^3
#
#
#
# Elastic Constant Matrix: (Units=GPa)
#
#
# Indices 1 2 3 4 5 6 
#
# 1 146.7974 40.7600 68.8193 0.0000 0.0000 0.0000
# 2 40.7600 90.7669 37.6225 0.0000 0.0000 0.0000
# 3 68.8193 37.6225 123.7332 0.0000 0.0000 0.0000
# 4 0.0000 0.0000 0.0000 31.5238 0.0000 0.0000
# 5 0.0000 0.0000 0.0000 0.0000 45.7189 0.0000
# 6 0.0000 0.0000 0.0000 0.0000 0.0000 25.4565
#
#
#
# Elastic Compliance Matrix: (Units=1/GPa)
#
#
# Indices 1 2 3 4 5 6 
#
# 1 0.009656 -0.002414 -0.004637 0.000000 0.000000 0.000000
# 2 -0.002414 0.013210 -0.002674 0.000000 0.000000 0.000000
# 3 -0.004637 -0.002674 0.011474 0.000000 0.000000 0.000000
# 4 0.000000 0.000000 0.000000 0.031722 0.000000 0.000000
# 5 0.000000 0.000000 0.000000 0.000000 0.021873 0.000000
# 6 0.000000 0.000000 0.000000 0.000000 0.000000 0.039283
#
#
# Mechanical properties :
#
#
# Convention : Reuss Voigt Hill
#
# Bulk Modulus (GPa) = 67.15803 72.85568 70.00686
# Shear Modulus (GPa) = 32.97507 34.81287 33.89397
#
# Velocity S-wave (km/s) = 3.84657 3.95230 3.89979
# Velocity P-wave (km/s) = 7.06132 7.31562 7.18959
#
# Compressibility (1/GPa) = 0.01489025
#
# Stress axis : x y z
#
# Youngs Moduli (GPa) = 103.56131 75.70211 87.15606
#
# Poissons Ratio (x) = 0.18277 0.40410
# Poissons Ratio (y) = 0.25004 0.23303
# Poissons Ratio (z) = 0.48016 0.20241
#
# Static dielectric constant tensor:
#      x y z
#    x 1.874300 0.000000 0.000000 
#    y 0.000000 1.845160 0.000000 
#    z 0.000000 0.000000 1.813970 
# 
# From -- ./inp_files/5288.got.cif
#   From: 2010.05.17/outbox.cif.g08.bks.cpg/sg62_3_cif.got.tgz:5288.got - 2010.06.03 15:25:27.
