data_PCOD9467003
_publ_section_title
;
Structure prediction by ZEFSAII (Michael W. Deem and Ramdas Pophale) SiO2 
 PCOD9467003
Probable space group: P N M A
;
_chemical_formula_sum "Si O2"
_cell_formula_units_Z 64
_cell_length_a 25.068168
_cell_length_b 8.523707
_cell_length_c 14.450258
_cell_angle_alpha 90.000000
_cell_angle_beta 90.000000
_cell_angle_gamma 90.000000
_cell_volume 3087.640368
_symmetry_space_group_name_H-M "P N M A"
_symmetry_group_IT_number 62
_symmetry_cell_setting 'orthorhombic'
loop_
_space_group_symop_operation_xyz
x,y,z
1/2-x,-y,1/2+z
1/2+x,1/2-y,1/2-z
-x,1/2+y,-z
-x,-y,-z
1/2+x,y,1/2-z
1/2-x,1/2+y,1/2+z
x,1/2-y,z
loop_
_atom_site_type_symbol
_atom_site_label
_atom_site_fract_x
_atom_site_fract_y
_atom_site_fract_z
Si Si1 0.418691 0.062977 0.248715
Si Si2 0.250413 0.934302 0.579757
Si Si3 0.895446 0.439690 0.714884
Si Si4 0.452586 0.565084 0.437589
Si Si5 0.498557 0.937467 0.104286
Si Si6 0.203865 0.438847 0.404581
Si Si7 0.868106 0.436224 0.924577
Si Si8 0.200006 0.936396 0.781195
O O1 0.415882 0.250000 0.237259
O O2 0.359417 0.999196 0.270910
O O3 0.452674 0.018827 0.338761
O O4 0.446020 0.992171 0.158488
O O5 0.260358 0.750000 0.564252
O O6 0.229251 0.953678 0.683419
O O7 0.206393 0.995526 0.507909
O O8 0.305452 0.027952 0.569776
O O9 0.893873 0.250000 0.713770
O O10 0.950020 0.491128 0.664717
O O11 0.845523 0.502627 0.656102
O O12 0.889205 0.486559 0.822669
O O13 0.500000 0.500000 0.500000
O O14 0.458139 0.750000 0.423691
O O15 0.399115 0.524017 0.494118
O O16 0.499974 0.750000 0.101538
O O17 0.500000 0.000000 0.000000
O O18 0.203424 0.250000 0.404980
O O19 0.259252 0.497584 0.357934
O O20 0.877416 0.250000 0.934965
O O21 0.193991 0.750000 0.800620
#
# Coordination Sequence:
#
# PCOD9467003 Si02
#       8
#     8   8   8   8   8   8   8   8
#     4  11  23  43  68  95 130 172 216 269 328 390
#     4  11  22  39  61  90 127 169 211 255 316 386
#     4  10  23  42  64  89 125 167 210 265 324 382
#     4  12  25  42  66  97 130 170 214 265 324 389
#     4  11  25  45  66  93 128 171 223 275 328 388
#     4  11  22  39  63  94 127 165 214 264 317 381
#     4  11  22  40  65  96 130 167 213 266 322 385
#     4   9  21  40  62  89 128 168 205 256 316 377
#
# _framework density 20.727802000000001
#
# number of rings (size 3 to 8) (size 9 to 14) (size 15 to 20)
#    0.000    1.250    1.250    4.500    1.750    3.500 
#    0.000    3.750    0.000    0.000    0.000    0.000 
#    0.000    0.000    0.000    0.000    0.000    0.000 
#
# Total GULP energy -357981.257276 kJ/mol
# GULP energy per Si atom -5593.457145 kJ/mol
# Density = 2.068062 g / cm^3
# Si number density = 20.727802 Si / 1000 Ang^3
#
#
#
# Elastic Constant Matrix: (Units=GPa)
#
#
# Indices 1 2 3 4 5 6 
#
# 1 63.2145 4.2175 -13.7174 0.0000 0.0000 0.0000
# 2 4.2175 32.1631 8.3898 0.0000 0.0000 0.0000
# 3 -13.7174 8.3898 38.0943 0.0000 0.0000 0.0000
# 4 0.0000 0.0000 0.0000 31.0784 0.0000 0.0000
# 5 0.0000 0.0000 0.0000 0.0000 23.6071 0.0000
# 6 0.0000 0.0000 0.0000 0.0000 0.0000 32.5620
#
#
#
# Elastic Compliance Matrix: (Units=1/GPa)
#
#
# Indices 1 2 3 4 5 6 
#
# 1 0.017685 -0.004223 0.007298 0.000000 0.000000 0.000000
# 2 -0.004223 0.033995 -0.009007 0.000000 0.000000 0.000000
# 3 0.007298 -0.009007 0.030862 0.000000 0.000000 0.000000
# 4 0.000000 0.000000 0.000000 0.032177 0.000000 0.000000
# 5 0.000000 0.000000 0.000000 0.000000 0.042360 0.000000
# 6 0.000000 0.000000 0.000000 0.000000 0.000000 0.030711
#
#
# Mechanical properties :
#
#
# Convention : Reuss Voigt Hill
#
# Bulk Modulus (GPa) = 14.14876 14.58352 14.36614
# Shear Modulus (GPa) = 22.40018 26.42164 24.41091
#
# Velocity S-wave (km/s) = 3.29094 3.57416 3.43547
# Velocity P-wave (km/s) = 4.61315 4.90753 4.76262
#
# Compressibility (1/GPa) = 0.07067757
#
# Stress axis : x y z
#
# Youngs Moduli (GPa) = 56.54656 29.41626 32.40192
#
# Poissons Ratio (x) = 0.12421 -0.23647
# Poissons Ratio (y) = 0.23878 0.29186
# Poissons Ratio (z) = -0.41268 0.26497
#
# Static dielectric constant tensor:
#      x y z
#    x 1.779410 0.000000 0.000000 
#    y 0.000000 1.721310 0.000000 
#    z 0.000000 0.000000 1.710810 
# 
# From -- ./inp_files/20781.got.cif
#   From: 2010.05.17/outbox.cif.g08.bks.cpg/sg62_11_cif.got.tgz:20781.got - 2010.06.03 15:25:27.
