data_PCOD9467098
_publ_section_title
;
Structure prediction by ZEFSAII (Michael W. Deem and Ramdas Pophale) SiO2 
 PCOD9467098
Probable space group: P N M A
;
_chemical_formula_sum "Si O2"
_cell_formula_units_Z 48
_cell_length_a 18.865238
_cell_length_b 8.641333
_cell_length_c 14.972300
_cell_angle_alpha 90.000000
_cell_angle_beta 90.000000
_cell_angle_gamma 90.000000
_cell_volume 2440.796379
_symmetry_space_group_name_H-M "P N M A"
_symmetry_group_IT_number 62
_symmetry_cell_setting 'orthorhombic'
loop_
_space_group_symop_operation_xyz
x,y,z
1/2-x,-y,1/2+z
1/2+x,1/2-y,1/2-z
-x,1/2+y,-z
-x,-y,-z
1/2+x,y,1/2-z
1/2-x,1/2+y,1/2+z
x,1/2-y,z
loop_
_atom_site_type_symbol
_atom_site_label
_atom_site_fract_x
_atom_site_fract_y
_atom_site_fract_z
Si Si1 0.741304 0.565705 0.181618
Si Si2 0.432875 0.933691 0.552656
Si Si3 0.675466 0.566336 0.842832
Si Si4 0.279904 0.433250 0.508476
Si Si5 0.915299 0.434846 0.753701
Si Si6 0.474819 0.935188 0.094927
O O1 0.743543 0.750000 0.165740
O O2 0.801557 0.516158 0.251297
O O3 0.665305 0.528148 0.225844
O O4 0.751089 0.478117 0.088741
O O5 0.428811 0.750000 0.540862
O O6 0.500000 0.000000 0.500000
O O7 0.360695 0.011221 0.517328
O O8 0.437330 0.976138 0.657307
O O9 0.675877 0.750000 0.830381
O O10 0.732935 0.518479 0.917199
O O11 0.599246 0.509819 0.876241
O O12 0.275579 0.250000 0.523759
O O13 0.918514 0.250000 0.771872
O O14 0.966728 0.468627 0.670841
O O15 0.466727 0.750000 0.088824
O O16 0.500000 0.000000 0.000000
#
# Coordination Sequence:
#
# PCOD9467098 Si02
#       6
#     8   8   8   8   8   8
#     4  11  23  42  69  99 132 172 218 272 333 396
#     4  12  26  44  68  96 133 175 223 275 332 400
#     4  12  25  43  66  98 135 175 224 273 326 394
#     4  12  25  44  69  98 133 173 223 277 332 393
#     4  10  23  44  69  97 134 173 218 272 334 395
#     4  11  24  43  68  99 135 175 220 275 334 397
#
# _framework density 19.665711999999999
#
# number of rings (size 3 to 8) (size 9 to 14) (size 15 to 20)
#    0.000    0.667    1.667    6.500    2.333    3.333 
#    0.000    0.000    0.000    0.000    0.000    0.000 
#    0.000    0.000    0.000    0.000    0.000    0.000 
#
# Total GULP energy -268793.607354 kJ/mol
# GULP energy per Si atom -5599.866820 kJ/mol
# Density = 1.962095 g / cm^3
# Si number density = 19.665712 Si / 1000 Ang^3
#
#
#
# Elastic Constant Matrix: (Units=GPa)
#
#
# Indices 1 2 3 4 5 6 
#
# 1 85.5311 28.6329 -2.3416 0.0000 0.0000 0.0000
# 2 28.6329 67.8348 6.3009 0.0000 0.0000 0.0000
# 3 -2.3416 6.3009 57.1620 0.0000 0.0000 0.0000
# 4 0.0000 0.0000 0.0000 41.3179 0.0000 0.0000
# 5 0.0000 0.0000 0.0000 0.0000 34.3744 0.0000
# 6 0.0000 0.0000 0.0000 0.0000 0.0000 32.7381
#
#
#
# Elastic Compliance Matrix: (Units=1/GPa)
#
#
# Indices 1 2 3 4 5 6 
#
# 1 0.013698 -0.005894 0.001211 0.000000 0.000000 0.000000
# 2 -0.005894 0.017431 -0.002163 0.000000 0.000000 0.000000
# 3 0.001211 -0.002163 0.017782 0.000000 0.000000 0.000000
# 4 0.000000 0.000000 0.000000 0.024203 0.000000 0.000000
# 5 0.000000 0.000000 0.000000 0.000000 0.029091 0.000000
# 6 0.000000 0.000000 0.000000 0.000000 0.000000 0.030545
#
#
# Mechanical properties :
#
#
# Convention : Reuss Voigt Hill
#
# Bulk Modulus (GPa) = 28.39449 30.63471 29.51460
# Shear Modulus (GPa) = 31.60911 33.54847 32.57879
#
# Velocity S-wave (km/s) = 4.01349 4.13478 4.07459
# Velocity P-wave (km/s) = 5.99561 6.19732 6.09730
#
# Compressibility (1/GPa) = 0.03521810
#
# Stress axis : x y z
#
# Youngs Moduli (GPa) = 73.00307 57.37036 56.23618
#
# Poissons Ratio (x) = 0.33816 -0.06809
# Poissons Ratio (y) = 0.43031 0.12163
# Poissons Ratio (z) = -0.08840 0.12408
#
# Static dielectric constant tensor:
#      x y z
#    x 1.660810 0.000000 0.000000 
#    y 0.000000 1.661070 0.000000 
#    z 0.000000 0.000000 1.656800 
# 
# From -- ./inp_files/19568.got.cif
#   From: 2010.05.17/outbox.cif.g08.bks.cpg/sg62_10_cif.got.tgz:19568.got - 2010.06.03 15:25:27.
