data_PCOD9467595
_publ_section_title
;
Structure prediction by ZEFSAII (Michael W. Deem and Ramdas Pophale) SiO2 
 PCOD9467595
Probable space group: P N M A
;
_chemical_formula_sum "Si O2"
_cell_formula_units_Z 32
_cell_length_a 9.535240
_cell_length_b 23.436954
_cell_length_c 5.009362
_cell_angle_alpha 90.000000
_cell_angle_beta 90.000000
_cell_angle_gamma 90.000000
_cell_volume 1119.477098
_symmetry_space_group_name_H-M "P N M A"
_symmetry_group_IT_number 62
_symmetry_cell_setting 'orthorhombic'
loop_
_space_group_symop_operation_xyz
x,y,z
1/2-x,-y,1/2+z
1/2+x,1/2-y,1/2-z
-x,1/2+y,-z
-x,-y,-z
1/2+x,y,1/2-z
1/2-x,1/2+y,1/2+z
x,1/2-y,z
loop_
_atom_site_type_symbol
_atom_site_label
_atom_site_fract_x
_atom_site_fract_y
_atom_site_fract_z
Si Si1 0.267888 0.847208 0.478980
Si Si2 0.576792 0.250000 0.203743
Si Si3 0.899347 0.250000 0.802467
Si Si4 0.577524 0.937223 0.718199
Si Si5 0.332179 0.562869 0.091805
O O1 0.344740 0.806487 0.692102
O O2 0.187155 0.805114 0.279713
O O3 0.155088 0.887258 0.621545
O O4 0.367967 0.886817 0.296861
O O5 0.437716 0.250000 0.388482
O O6 0.534321 0.250000 0.895260
O O7 0.663208 0.934310 0.440498
O O8 0.416797 0.931736 0.812908
O O9 0.623401 0.001220 0.802352
#
# Coordination Sequence:
#
# PCOD9467595 Si02
#       5
#     8   4   4   8   8
#     4  11  26  46  75 107 153 204 265 325 405 473
#     4  11  28  49  74 109 150 204 264 325 397 461
#     4  11  28  49  76 107 152 204 266 327 389 471
#     4  11  25  44  73 110 160 203 272 323 409 480
#     4  11  25  46  71 116 156 216 255 338 395 494
#
# _framework density 28.584775
#
# number of rings (size 3 to 8) (size 9 to 14) (size 15 to 20)
#    0.000    1.000    2.500    1.500   10.500    5.000 
#    0.000    0.000    0.000    0.000    0.000    0.000 
#    0.000    0.000    0.000    0.000    0.000    0.000 
#
# Total GULP energy -179626.274366 kJ/mol
# GULP energy per Si atom -5613.321074 kJ/mol
# Density = 2.851971 g / cm^3
# Si number density = 28.584775 Si / 1000 Ang^3
#
#
#
# Elastic Constant Matrix: (Units=GPa)
#
#
# Indices 1 2 3 4 5 6 
#
# 1 112.2210 40.6361 10.0772 0.0000 0.0000 0.0000
# 2 40.6361 203.4726 23.8455 0.0000 0.0000 0.0000
# 3 10.0772 23.8455 87.0964 0.0000 0.0000 0.0000
# 4 0.0000 0.0000 0.0000 42.1683 0.0000 0.0000
# 5 0.0000 0.0000 0.0000 0.0000 52.3028 0.0000
# 6 0.0000 0.0000 0.0000 0.0000 0.0000 26.3396
#
#
#
# Elastic Compliance Matrix: (Units=1/GPa)
#
#
# Indices 1 2 3 4 5 6 
#
# 1 0.009637 -0.001853 -0.000608 0.000000 0.000000 0.000000
# 2 -0.001853 0.005434 -0.001273 0.000000 0.000000 0.000000
# 3 -0.000608 -0.001273 0.011900 0.000000 0.000000 0.000000
# 4 0.000000 0.000000 0.000000 0.023715 0.000000 0.000000
# 5 0.000000 0.000000 0.000000 0.000000 0.019119 0.000000
# 6 0.000000 0.000000 0.000000 0.000000 0.000000 0.037966
#
#
# Mechanical properties :
#
#
# Convention : Reuss Voigt Hill
#
# Bulk Modulus (GPa) = 51.27503 61.32306 56.29904
# Shear Modulus (GPa) = 41.07113 46.04423 43.55768
#
# Velocity S-wave (km/s) = 3.79465 4.01783 3.90783
# Velocity P-wave (km/s) = 6.09721 6.55923 6.33244
#
# Compressibility (1/GPa) = 0.01950267
#
# Stress axis : x y z
#
# Youngs Moduli (GPa) = 103.77035 184.02555 84.03053
#
# Poissons Ratio (x) = 0.34107 0.05105
# Poissons Ratio (y) = 0.19232 0.10700
# Poissons Ratio (z) = 0.06305 0.23432
#
# Static dielectric constant tensor:
#      x y z
#    x 2.240890 0.000000 0.000000 
#    y 0.000000 2.123420 0.000000 
#    z 0.000000 0.000000 2.208160 
# 
# From -- ./inp_files/540.got.cif
#   From: 2010.05.17/outbox.cif.g08.bks.cpg/sg62_1_cif.got.tgz:540.got - 2010.06.03 15:25:27.
