data_PCOD9467680
_publ_section_title
;
Structure prediction by ZEFSAII (Michael W. Deem and Ramdas Pophale) SiO2 
 PCOD9467680
Probable space group: P N M A
;
_chemical_formula_sum "Si O2"
_cell_formula_units_Z 32
_cell_length_a 9.771462
_cell_length_b 15.750680
_cell_length_c 9.458070
_cell_angle_alpha 90.000000
_cell_angle_beta 90.000000
_cell_angle_gamma 90.000000
_cell_volume 1455.664798
_symmetry_space_group_name_H-M "P N M A"
_symmetry_group_IT_number 62
_symmetry_cell_setting 'orthorhombic'
loop_
_space_group_symop_operation_xyz
x,y,z
1/2-x,-y,1/2+z
1/2+x,1/2-y,1/2-z
-x,1/2+y,-z
-x,-y,-z
1/2+x,y,1/2-z
1/2-x,1/2+y,1/2+z
x,1/2-y,z
loop_
_atom_site_type_symbol
_atom_site_label
_atom_site_fract_x
_atom_site_fract_y
_atom_site_fract_z
Si Si1 0.880249 0.067451 0.983897
Si Si2 0.292882 0.949530 0.735816
Si Si3 0.469597 0.089604 0.079972
Si Si4 0.389154 0.250000 0.607157
Si Si5 0.439492 0.750000 0.105512
O O1 0.922956 0.164451 0.976963
O O2 0.812528 0.042095 0.833245
O O3 0.779754 0.050751 0.113134
O O4 0.000000 0.000000 0.000000
O O5 0.189016 0.904364 0.626956
O O6 0.439903 0.911119 0.776025
O O7 0.518509 0.166677 0.983322
O O8 0.500000 0.000000 0.000000
O O9 0.224221 0.250000 0.628971
O O10 0.475287 0.250000 0.750443
#
# Coordination Sequence:
#
# PCOD9467680 Si02
#       5
#     8   8   8   4   4
#     4  12  27  46  78 110 152 199 251 310 380 458
#     4  12  24  45  74 102 149 191 244 301 376 437
#     4  12  25  45  71 106 144 193 243 304 371 445
#     4  12  28  49  75 111 151 195 257 308 382 452
#     4  12  28  47  75 107 151 195 251 316 378 456
#
# _framework density 21.983082
#
# number of rings (size 3 to 8) (size 9 to 14) (size 15 to 20)
#    0.000    0.000    7.500    1.500    3.500    2.000 
#    0.000    1.250    0.000    0.000    0.000    0.000 
#    0.000    0.000    0.000    0.000    0.000    0.000 
#
# Total GULP energy -178929.190082 kJ/mol
# GULP energy per Si atom -5591.537190 kJ/mol
# Density = 2.193305 g / cm^3
# Si number density = 21.983082 Si / 1000 Ang^3
#
#
#
# Elastic Constant Matrix: (Units=GPa)
#
#
# Indices 1 2 3 4 5 6 
#
# 1 97.1542 41.8378 10.9483 0.0000 0.0000 0.0000
# 2 41.8378 178.2893 64.9469 0.0000 0.0000 0.0000
# 3 10.9483 64.9469 107.8895 0.0000 0.0000 0.0000
# 4 0.0000 0.0000 0.0000 35.5861 0.0000 0.0000
# 5 0.0000 0.0000 0.0000 0.0000 58.2811 0.0000
# 6 0.0000 0.0000 0.0000 0.0000 0.0000 27.1279
#
#
#
# Elastic Compliance Matrix: (Units=1/GPa)
#
#
# Indices 1 2 3 4 5 6 
#
# 1 0.011479 -0.002907 0.000585 0.000000 0.000000 0.000000
# 2 -0.002907 0.007920 -0.004473 0.000000 0.000000 0.000000
# 3 0.000585 -0.004473 0.011902 0.000000 0.000000 0.000000
# 4 0.000000 0.000000 0.000000 0.028101 0.000000 0.000000
# 5 0.000000 0.000000 0.000000 0.000000 0.017158 0.000000
# 6 0.000000 0.000000 0.000000 0.000000 0.000000 0.036862
#
#
# Mechanical properties :
#
#
# Convention : Reuss Voigt Hill
#
# Bulk Modulus (GPa) = 56.45982 68.75545 62.60763
# Shear Modulus (GPa) = 37.61782 41.90569 39.76176
#
# Velocity S-wave (km/s) = 4.14117 4.37082 4.25755
# Velocity P-wave (km/s) = 6.97172 7.53767 7.26021
#
# Compressibility (1/GPa) = 0.01771171
#
# Stress axis : x y z
#
# Youngs Moduli (GPa) = 87.11765 126.25735 84.01981
#
# Poissons Ratio (x) = 0.36699 -0.04915
# Poissons Ratio (y) = 0.25323 0.37581
# Poissons Ratio (z) = -0.05096 0.56473
#
# Static dielectric constant tensor:
#      x y z
#    x 2.382750 0.000000 0.000000 
#    y 0.000000 1.731270 0.000000 
#    z 0.000000 0.000000 1.812500 
# 
# From -- ./inp_files/4911.got.cif
#   From: 2010.05.17/outbox.cif.g08.bks.cpg/sg62_3_cif.got.tgz:4911.got - 2010.06.03 15:25:27.
