data_PCOD9467426
_publ_section_title
;
Structure prediction by ZEFSAII (Michael W. Deem and Ramdas Pophale) SiO2 
 PCOD9467426
Probable space group: P N M A
;
_chemical_formula_sum "Si O2"
_cell_formula_units_Z 40
_cell_length_a 8.613053
_cell_length_b 8.423179
_cell_length_c 25.118251
_cell_angle_alpha 90.000000
_cell_angle_beta 90.000000
_cell_angle_gamma 90.000000
_cell_volume 1822.311205
_symmetry_space_group_name_H-M "P N M A"
_symmetry_group_IT_number 62
_symmetry_cell_setting 'orthorhombic'
loop_
_space_group_symop_operation_xyz
x,y,z
1/2-x,-y,1/2+z
1/2+x,1/2-y,1/2-z
-x,1/2+y,-z
-x,-y,-z
1/2+x,y,1/2-z
1/2-x,1/2+y,1/2+z
x,1/2-y,z
loop_
_atom_site_type_symbol
_atom_site_label
_atom_site_fract_x
_atom_site_fract_y
_atom_site_fract_z
Si Si1 0.651412 0.062969 0.322491
Si Si2 0.160425 0.943500 0.376320
Si Si3 0.172412 0.060005 0.579080
Si Si4 0.665008 0.060477 0.727850
Si Si5 0.836602 0.938852 0.021435
O O1 0.625974 0.250000 0.326883
O O2 0.694284 0.991439 0.379659
O O3 0.793414 0.025294 0.282513
O O4 0.502152 0.980768 0.296134
O O5 0.160249 0.750000 0.375960
O O6 0.211284 0.990765 0.317399
O O7 0.285442 0.997628 0.420336
O O8 0.991357 0.994190 0.396203
O O9 0.170892 0.250000 0.574713
O O10 0.207686 0.987735 0.521697
O O11 0.675386 0.250000 0.736486
O O12 0.845113 0.750000 0.024170
O O13 0.000000 0.000000 0.000000
#
# Coordination Sequence:
#
# PCOD9467426 Si02
#       5
#     8   8   8   8   8
#     4  12  25  41  61  92 127 161 203 258 312 363
#     4   9  21  39  62  88 118 156 203 250 300 360
#     4  11  22  40  63  89 120 161 206 252 306 369
#     4  11  22  41  66  91 120 163 210 253 303 370
#     4  11  22  39  61  90 123 159 202 253 307 366
#
# _framework density 21.950147999999999
#
# number of rings (size 3 to 8) (size 9 to 14) (size 15 to 20)
#    0.000    1.200    0.000    6.600    0.000    3.200 
#    0.000    9.000    0.000    0.000    0.000    0.000 
#    0.000    0.000    0.000    0.000    0.000    0.000 
#
# Total GULP energy -223938.386456 kJ/mol
# GULP energy per Si atom -5598.459661 kJ/mol
# Density = 2.190019 g / cm^3
# Si number density = 21.950148 Si / 1000 Ang^3
#
#
#
# Elastic Constant Matrix: (Units=GPa)
#
#
# Indices 1 2 3 4 5 6 
#
# 1 59.1164 -6.2554 -18.4387 0.0000 0.0000 0.0000
# 2 -6.2554 48.7815 -4.2108 0.0000 0.0000 0.0000
# 3 -18.4387 -4.2108 70.6666 0.0000 0.0000 0.0000
# 4 0.0000 0.0000 0.0000 30.7134 0.0000 0.0000
# 5 0.0000 0.0000 0.0000 0.0000 40.1849 0.0000
# 6 0.0000 0.0000 0.0000 0.0000 0.0000 29.0166
#
#
#
# Elastic Compliance Matrix: (Units=1/GPa)
#
#
# Indices 1 2 3 4 5 6 
#
# 1 0.018800 0.002849 0.005075 0.000000 0.000000 0.000000
# 2 0.002849 0.021037 0.001997 0.000000 0.000000 0.000000
# 3 0.005075 0.001997 0.015594 0.000000 0.000000 0.000000
# 4 0.000000 0.000000 0.000000 0.032559 0.000000 0.000000
# 5 0.000000 0.000000 0.000000 0.000000 0.024885 0.000000
# 6 0.000000 0.000000 0.000000 0.000000 0.000000 0.034463
#
#
# Mechanical properties :
#
#
# Convention : Reuss Voigt Hill
#
# Bulk Modulus (GPa) = 13.28485 13.41719 13.35102
# Shear Modulus (GPa) = 32.76799 33.81428 33.29114
#
# Velocity S-wave (km/s) = 3.86792 3.92918 3.89867
# Velocity P-wave (km/s) = 5.10031 5.16822 5.13437
#
# Compressibility (1/GPa) = 0.07527370
#
# Stress axis : x y z
#
# Youngs Moduli (GPa) = 53.19088 47.53471 64.12643
#
# Poissons Ratio (x) = -0.13542 -0.32546
# Poissons Ratio (y) = -0.15154 -0.12805
# Poissons Ratio (z) = -0.26995 -0.09492
#
# Static dielectric constant tensor:
#      x y z
#    x 1.846620 0.000000 0.000000 
#    y 0.000000 1.746410 0.000000 
#    z 0.000000 0.000000 1.642290 
# 
# From -- ./inp_files/28581.got.cif
#   From: 2010.05.17/outbox.cif.g08.bks.cpg/sg62_15_cif.got.tgz:28581.got - 2010.06.03 15:25:27.
