data_PCOD9467639
_publ_section_title
;
Structure prediction by ZEFSAII (Michael W. Deem and Ramdas Pophale) SiO2 
 PCOD9467639
Probable space group: P N M A
;
_chemical_formula_sum "Si O2"
_cell_formula_units_Z 24
_cell_length_a 18.422293
_cell_length_b 9.608013
_cell_length_c 6.366525
_cell_angle_alpha 90.000000
_cell_angle_beta 90.000000
_cell_angle_gamma 90.000000
_cell_volume 1126.885306
_symmetry_space_group_name_H-M "P N M A"
_symmetry_group_IT_number 62
_symmetry_cell_setting 'orthorhombic'
loop_
_space_group_symop_operation_xyz
x,y,z
1/2-x,-y,1/2+z
1/2+x,1/2-y,1/2-z
-x,1/2+y,-z
-x,-y,-z
1/2+x,y,1/2-z
1/2-x,1/2+y,1/2+z
x,1/2-y,z
loop_
_atom_site_type_symbol
_atom_site_label
_atom_site_fract_x
_atom_site_fract_y
_atom_site_fract_z
Si Si1 0.370772 0.250000 0.540632
Si Si2 0.603133 0.050202 0.615510
Si Si3 0.798053 0.750000 0.356945
Si Si4 0.587747 0.250000 0.232845
Si Si5 0.495884 0.250000 0.850568
O O1 0.391794 0.387256 0.411680
O O2 0.285859 0.250000 0.591903
O O3 0.415951 0.250000 0.758563
O O4 0.674867 0.117050 0.721855
O O5 0.593453 0.118661 0.386402
O O6 0.537912 0.115849 0.752497
O O7 0.846287 0.750000 0.568013
O O8 0.514952 0.250000 0.094453
#
# Coordination Sequence:
#
# PCOD9467639 Si02
#       5
#     4   8   4   4   4
#     4  12  22  34  68  90 114 158 202 236 300 354
#     4   9  21  41  58  85 122 154 192 246 291 344
#     4   9  22  40  57  83 123 159 191 241 290 348
#     4   8  18  42  62  74 128 154 184 246 290 340
#     4   9  20  42  61  89 119 155 193 245 296 348
#
# _framework density 21.297640000000001
#
# number of rings (size 3 to 8) (size 9 to 14) (size 15 to 20)
#    0.000    3.333    0.000    1.000    4.667    1.333 
#    0.000   16.667    0.000    0.000    0.000    0.000 
#    0.000    0.000    0.000    0.000    0.000    0.000 
#
# Total GULP energy -134148.401025 kJ/mol
# GULP energy per Si atom -5589.516709 kJ/mol
# Density = 2.124917 g / cm^3
# Si number density = 21.297640 Si / 1000 Ang^3
#
#
#
# Elastic Constant Matrix: (Units=GPa)
#
#
# Indices 1 2 3 4 5 6 
#
# 1 102.3784 23.4245 29.9404 0.0000 0.0000 0.0000
# 2 23.4245 199.0784 57.6320 0.0000 0.0000 0.0000
# 3 29.9404 57.6320 126.1355 0.0000 0.0000 0.0000
# 4 0.0000 0.0000 0.0000 -7.2192 0.0000 0.0000
# 5 0.0000 0.0000 0.0000 0.0000 28.4025 0.0000
# 6 0.0000 0.0000 0.0000 0.0000 0.0000 12.1892
#
#
#
# Elastic Compliance Matrix: (Units=1/GPa)
#
#
# Indices 1 2 3 4 5 6 
#
# 1 0.010557 -0.000596 -0.002234 0.000000 0.000000 0.000000
# 2 -0.000596 0.005822 -0.002519 0.000000 0.000000 0.000000
# 3 -0.002234 -0.002519 0.009609 0.000000 0.000000 0.000000
# 4 0.000000 0.000000 0.000000 -0.138520 0.000000 0.000000
# 5 0.000000 0.000000 0.000000 0.000000 0.035208 0.000000
# 6 0.000000 0.000000 0.000000 0.000000 0.000000 0.082040
#
#
# Mechanical properties :
#
#
# Convention : Reuss Voigt Hill
#
# Bulk Modulus (GPa) = 65.39292 72.17626 68.78459
# Shear Modulus (GPa) = 243.77468 27.78087 135.77777
#
# Velocity S-wave (km/s) = 10.71025 3.61558 7.99318
# Velocity P-wave (km/s) = 13.55422 7.16888 10.84227
#
# Compressibility (1/GPa) = 0.01529218
#
# Stress axis : x y z
#
# Youngs Moduli (GPa) = 94.72188 171.74935 104.06758
#
# Poissons Ratio (x) = 0.10228 0.23247
# Poissons Ratio (y) = 0.05641 0.26214
# Poissons Ratio (z) = 0.21159 0.43263
#
# Static dielectric constant tensor:
#      x y z
#    x 1.777440 0.000000 0.000000 
#    y 0.000000 1.779650 0.000000 
#    z 0.000000 0.000000 1.761940 
# 
# From -- ./inp_files/1395.got.cif
#   From: 2010.05.17/outbox.cif.g08.bks.cpg/sg62_1_cif.got.tgz:1395.got - 2010.06.03 15:25:27.
