data_PCOD9467750
_publ_section_title
;
Structure prediction by ZEFSAII (Michael W. Deem and Ramdas Pophale) SiO2 
 PCOD9467750
Probable space group: P N M A
;
_chemical_formula_sum "Si O2"
_cell_formula_units_Z 48
_cell_length_a 17.176179
_cell_length_b 9.250680
_cell_length_c 17.302292
_cell_angle_alpha 90.000000
_cell_angle_beta 90.000000
_cell_angle_gamma 90.000000
_cell_volume 2749.184284
_symmetry_space_group_name_H-M "P N M A"
_symmetry_group_IT_number 62
_symmetry_cell_setting 'orthorhombic'
loop_
_space_group_symop_operation_xyz
x,y,z
1/2-x,-y,1/2+z
1/2+x,1/2-y,1/2-z
-x,1/2+y,-z
-x,-y,-z
1/2+x,y,1/2-z
1/2-x,1/2+y,1/2+z
x,1/2-y,z
loop_
_atom_site_type_symbol
_atom_site_label
_atom_site_fract_x
_atom_site_fract_y
_atom_site_fract_z
Si Si1 0.428102 0.423224 0.597306
Si Si2 0.601576 0.576112 0.230566
Si Si3 0.878780 0.915772 0.488498
Si Si4 0.729048 0.576715 0.104811
Si Si5 0.603680 0.422864 0.559995
Si Si6 0.486442 0.415966 0.120717
O O1 0.421105 0.250000 0.587919
O O2 0.392383 0.463873 0.679787
O O3 0.520426 0.460338 0.597146
O O4 0.392455 0.501314 0.523250
O O5 0.590693 0.750000 0.226065
O O6 0.677384 0.538306 0.179590
O O7 0.528072 0.499175 0.190536
O O8 0.859079 0.750000 0.470316
O O9 0.948392 0.914078 0.552319
O O10 0.809225 0.998501 0.531148
O O11 0.913255 0.999557 0.414978
O O12 0.721823 0.750000 0.094690
O O13 0.819944 0.539290 0.109053
O O14 0.603873 0.250000 0.549013
O O15 0.468111 0.250000 0.139555
#
# Coordination Sequence:
#
# PCOD9467750 Si02
#       6
#     8   8   8   8   8   8
#     4   9  18  33  52  72  94 124 164 204 241 287
#     4   9  17  30  48  70  97 127 160 200 245 291
#     4   9  16  26  42  65  93 126 161 194 230 279
#     4   9  17  30  48  69  95 126 157 196 247 294
#     4   9  18  33  52  71  93 124 161 200 243 290
#     4   9  16  26  42  65  94 127 161 194 232 282
#
# _framework density 17.459723
#
# number of rings (size 3 to 8) (size 9 to 14) (size 15 to 20)
#    0.000    3.000    0.000    1.000    0.000    5.333 
#    0.000    1.667    0.000    4.000    0.000    0.000 
#    0.000    0.000    0.000    0.000    0.000    0.000 
#
# Total GULP energy -267397.340847 kJ/mol
# GULP energy per Si atom -5570.777934 kJ/mol
# Density = 1.741998 g / cm^3
# Si number density = 17.459723 Si / 1000 Ang^3
#
#
#
# Elastic Constant Matrix: (Units=GPa)
#
#
# Indices 1 2 3 4 5 6 
#
# 1 68.4649 20.2890 34.0683 0.0000 0.0000 0.0000
# 2 20.2890 30.1565 23.1374 0.0000 0.0000 0.0000
# 3 34.0683 23.1374 79.5040 0.0000 0.0000 0.0000
# 4 0.0000 0.0000 0.0000 23.6593 0.0000 0.0000
# 5 0.0000 0.0000 0.0000 0.0000 9.2693 0.0000
# 6 0.0000 0.0000 0.0000 0.0000 0.0000 19.4415
#
#
#
# Elastic Compliance Matrix: (Units=1/GPa)
#
#
# Indices 1 2 3 4 5 6 
#
# 1 0.020296 -0.008989 -0.006081 0.000000 0.000000 0.000000
# 2 -0.008989 0.046674 -0.009731 0.000000 0.000000 0.000000
# 3 -0.006081 -0.009731 0.018016 0.000000 0.000000 0.000000
# 4 0.000000 0.000000 0.000000 0.042267 0.000000 0.000000
# 5 0.000000 0.000000 0.000000 0.000000 0.107883 0.000000
# 6 0.000000 0.000000 0.000000 0.000000 0.000000 0.051436
#
#
# Mechanical properties :
#
#
# Convention : Reuss Voigt Hill
#
# Bulk Modulus (GPa) = 28.26210 37.01275 32.63743
# Shear Modulus (GPa) = 14.36912 17.18276 15.77594
#
# Velocity S-wave (km/s) = 2.87189 3.14050 3.00919
# Velocity P-wave (km/s) = 5.21720 5.86475 5.55042
#
# Compressibility (1/GPa) = 0.03538307
#
# Stress axis : x y z
#
# Youngs Moduli (GPa) = 49.27137 21.42501 55.50717
#
# Poissons Ratio (x) = 0.19260 0.33753
# Poissons Ratio (y) = 0.44291 0.54016
# Poissons Ratio (z) = 0.29961 0.20849
#
# Static dielectric constant tensor:
#      x y z
#    x 1.602850 0.000000 0.000000 
#    y 0.000000 1.586340 0.000000 
#    z 0.000000 0.000000 1.573110 
# 
# From -- ./inp_files/24189.got.cif
#   From: 2010.05.17/outbox.cif.g08.bks.cpg/sg62_13_cif.got.tgz:24189.got - 2010.06.03 15:25:27.
