data_PCOD9467346
_publ_section_title
;
Structure prediction by ZEFSAII (Michael W. Deem and Ramdas Pophale) SiO2 
 PCOD9467346
Probable space group: P N M A
;
_chemical_formula_sum "Si O2"
_cell_formula_units_Z 48
_cell_length_a 10.432185
_cell_length_b 8.629028
_cell_length_c 30.119737
_cell_angle_alpha 90.000000
_cell_angle_beta 90.000000
_cell_angle_gamma 90.000000
_cell_volume 2711.367173
_symmetry_space_group_name_H-M "P N M A"
_symmetry_group_IT_number 62
_symmetry_cell_setting 'orthorhombic'
loop_
_space_group_symop_operation_xyz
x,y,z
1/2-x,-y,1/2+z
1/2+x,1/2-y,1/2-z
-x,1/2+y,-z
-x,-y,-z
1/2+x,y,1/2-z
1/2-x,1/2+y,1/2+z
x,1/2-y,z
loop_
_atom_site_type_symbol
_atom_site_label
_atom_site_fract_x
_atom_site_fract_y
_atom_site_fract_z
Si Si1 0.988657 0.438073 0.216088
Si Si2 0.276587 0.934287 0.113861
Si Si3 0.716930 0.562027 0.788564
Si Si4 0.625894 0.564177 0.524430
Si Si5 0.875372 0.434395 0.475877
Si Si6 0.007566 0.563471 0.884390
O O1 0.986680 0.250000 0.217683
O O2 0.136817 0.485221 0.223404
O O3 0.953603 0.482475 0.165515
O O4 0.887179 0.491970 0.252615
O O5 0.284051 0.750000 0.113808
O O6 0.311559 0.999957 0.162273
O O7 0.360594 0.002305 0.074082
O O8 0.129409 0.986559 0.105586
O O9 0.715391 0.750000 0.790162
O O10 0.500000 0.500000 0.500000
O O11 0.631496 0.750000 0.519235
O O12 0.750594 0.489943 0.502897
O O13 0.606724 0.527617 0.576584
O O14 0.879524 0.250000 0.474710
O O15 0.000000 0.500000 0.500000
O O16 0.987435 0.750000 0.884523
#
# Coordination Sequence:
#
# PCOD9467346 Si02
#       6
#     8   8   8   8   8   8
#     4   8  15  30  53  78 105 137 183 228 269 325
#     4  11  21  35  57  82 111 148 190 229 281 343
#     4   9  17  33  55  79 106 141 182 228 277 330
#     4  11  21  35  59  89 118 150 191 234 278 331
#     4  12  25  42  60  82 116 152 191 238 290 345
#     4   9  18  34  57  84 112 145 189 233 273 328
#
# _framework density 17.703246
#
# number of rings (size 3 to 8) (size 9 to 14) (size 15 to 20)
#    0.000    2.000    1.667    4.500    0.000    0.667 
#    3.000    3.333    0.000    0.000    0.000    0.000 
#    0.000    0.000    0.000    0.000    0.000    0.000 
#
# Total GULP energy -267905.381594 kJ/mol
# GULP energy per Si atom -5581.362117 kJ/mol
# Density = 1.766295 g / cm^3
# Si number density = 17.703246 Si / 1000 Ang^3
#
#
#
# Elastic Constant Matrix: (Units=GPa)
#
#
# Indices 1 2 3 4 5 6 
#
# 1 116.4567 35.5372 96.5751 0.0000 0.0000 0.0000
# 2 35.5372 65.2118 48.7751 0.0000 0.0000 0.0000
# 3 96.5751 48.7751 163.0364 0.0000 0.0000 0.0000
# 4 0.0000 0.0000 0.0000 25.5293 0.0000 0.0000
# 5 0.0000 0.0000 0.0000 0.0000 37.5579 0.0000
# 6 0.0000 0.0000 0.0000 0.0000 0.0000 24.3699
#
#
#
# Elastic Compliance Matrix: (Units=1/GPa)
#
#
# Indices 1 2 3 4 5 6 
#
# 1 0.017130 -0.002249 -0.009474 0.000000 0.000000 0.000000
# 2 -0.002249 0.020050 -0.004666 0.000000 0.000000 0.000000
# 3 -0.009474 -0.004666 0.013142 0.000000 0.000000 0.000000
# 4 0.000000 0.000000 0.000000 0.039171 0.000000 0.000000
# 5 0.000000 0.000000 0.000000 0.000000 0.026626 0.000000
# 6 0.000000 0.000000 0.000000 0.000000 0.000000 0.041034
#
#
# Mechanical properties :
#
#
# Convention : Reuss Voigt Hill
#
# Bulk Modulus (GPa) = 57.00177 78.49775 67.74976
# Shear Modulus (GPa) = 25.53907 28.41258 26.97582
#
# Velocity S-wave (km/s) = 3.80231 4.01051 3.90780
# Velocity P-wave (km/s) = 7.17949 8.11682 7.66250
#
# Compressibility (1/GPa) = 0.01754331
#
# Stress axis : x y z
#
# Youngs Moduli (GPa) = 58.37776 49.87460 76.09396
#
# Poissons Ratio (x) = 0.11215 0.72093
# Poissons Ratio (y) = 0.13128 0.35508
# Poissons Ratio (z) = 0.55308 0.23273
#
# Static dielectric constant tensor:
#      x y z
#    x 1.576740 0.000000 0.000000 
#    y 0.000000 1.598570 0.000000 
#    z 0.000000 0.000000 1.615020 
# 
# From -- ./inp_files/32046.got.cif
#   From: 2010.05.17/outbox.cif.g08.bks.cpg/sg62_17_cif.got.tgz:32046.got - 2010.06.03 15:25:27.
