data_PCOD9467581
_publ_section_title
;
Structure prediction by ZEFSAII (Michael W. Deem and Ramdas Pophale) SiO2 
 PCOD9467581
Probable space group: P N M A
;
_chemical_formula_sum "Si O2"
_cell_formula_units_Z 32
_cell_length_a 7.313247
_cell_length_b 10.286344
_cell_length_c 19.540444
_cell_angle_alpha 90.000000
_cell_angle_beta 90.000000
_cell_angle_gamma 90.000000
_cell_volume 1469.960664
_symmetry_space_group_name_H-M "P N M A"
_symmetry_group_IT_number 62
_symmetry_cell_setting 'orthorhombic'
loop_
_space_group_symop_operation_xyz
x,y,z
1/2-x,-y,1/2+z
1/2+x,1/2-y,1/2-z
-x,1/2+y,-z
-x,-y,-z
1/2+x,y,1/2-z
1/2-x,1/2+y,1/2+z
x,1/2-y,z
loop_
_atom_site_type_symbol
_atom_site_label
_atom_site_fract_x
_atom_site_fract_y
_atom_site_fract_z
Si Si1 0.839905 0.393347 0.994966
Si Si2 0.613634 0.394784 0.131038
Si Si3 0.626997 0.100198 0.699720
Si Si4 0.235127 0.034257 0.653040
O O1 0.922920 0.250000 0.004755
O O2 0.746839 0.398836 0.920689
O O3 0.687605 0.409830 0.053685
O O4 0.000000 0.500000 0.000000
O O5 0.667690 0.250000 0.154812
O O6 0.710792 0.511613 0.171176
O O7 0.396694 0.412205 0.140181
O O8 0.622442 0.250000 0.674328
O O9 0.445637 0.024225 0.675826
O O10 0.648028 0.105770 0.781508
#
# Coordination Sequence:
#
# PCOD9467581 Si02
#       4
#     8   8   8   8
#     4  11  24  45  73 105 142 184 235 294 354 419
#     4  11  27  47  71 105 145 188 230 287 359 426
#     4  12  25  44  74 107 138 182 239 297 348 414
#     4  12  25  45  71 105 143 185 237 289 352 420
#
# _framework density 21.769292
#
# number of rings (size 3 to 8) (size 9 to 14) (size 15 to 20)
#    0.000    0.500    5.000    3.000    0.000    5.000 
#    0.000    0.000    0.000    0.000    0.000    0.000 
#    0.000    0.000    0.000    0.000    0.000    0.000 
#
# Total GULP energy -178551.840945 kJ/mol
# GULP energy per Si atom -5579.745030 kJ/mol
# Density = 2.171974 g / cm^3
# Si number density = 21.769292 Si / 1000 Ang^3
#
#
#
# Elastic Constant Matrix: (Units=GPa)
#
#
# Indices 1 2 3 4 5 6 
#
# 1 106.3293 60.2423 22.2562 0.0000 0.0000 0.0000
# 2 60.2423 111.6338 51.6765 0.0000 0.0000 0.0000
# 3 22.2562 51.6765 136.7962 0.0000 0.0000 0.0000
# 4 0.0000 0.0000 0.0000 10.6862 0.0000 0.0000
# 5 0.0000 0.0000 0.0000 0.0000 37.7530 0.0000
# 6 0.0000 0.0000 0.0000 0.0000 0.0000 43.2409
#
#
#
# Elastic Compliance Matrix: (Units=1/GPa)
#
#
# Indices 1 2 3 4 5 6 
#
# 1 0.013598 -0.007652 0.000678 0.000000 0.000000 0.000000
# 2 -0.007652 0.015162 -0.004483 0.000000 0.000000 0.000000
# 3 0.000678 -0.004483 0.008893 0.000000 0.000000 0.000000
# 4 0.000000 0.000000 0.000000 0.093578 0.000000 0.000000
# 5 0.000000 0.000000 0.000000 0.000000 0.026488 0.000000
# 6 0.000000 0.000000 0.000000 0.000000 0.000000 0.023126
#
#
# Mechanical properties :
#
#
# Convention : Reuss Voigt Hill
#
# Bulk Modulus (GPa) = 67.84013 69.23439 68.53726
# Shear Modulus (GPa) = 23.96091 33.04163 28.50127
#
# Velocity S-wave (km/s) = 3.32124 3.90013 3.62227
# Velocity P-wave (km/s) = 6.77779 7.22178 7.00330
#
# Compressibility (1/GPa) = 0.01474054
#
# Stress axis : x y z
#
# Youngs Moduli (GPa) = 73.53907 65.95244 112.44513
#
# Poissons Ratio (x) = 0.50468 -0.07627
# Poissons Ratio (y) = 0.56273 0.50407
# Poissons Ratio (z) = -0.04988 0.29565
#
# Static dielectric constant tensor:
#      x y z
#    x 1.805240 0.000000 0.000000 
#    y 0.000000 1.784360 0.000000 
#    z 0.000000 0.000000 1.805050 
# 
# From -- ./inp_files/25537.got.cif
#   From: 2010.05.17/outbox.cif.g08.bks.cpg/sg62_13_cif.got.tgz:25537.got - 2010.06.03 15:25:27.
