data_PCOD9467992
_publ_section_title
;
Structure prediction by ZEFSAII (Michael W. Deem and Ramdas Pophale) SiO2 
 PCOD9467992
Probable space group: P N M A
;
_chemical_formula_sum "Si O2"
_cell_formula_units_Z 56
_cell_length_a 15.000000
_cell_length_b 9.000000
_cell_length_c 21.000000
_cell_angle_alpha 90.000000
_cell_angle_beta 90.000000
_cell_angle_gamma 90.000000
_cell_volume 2835.000000
_symmetry_space_group_name_H-M "P N M A"
_symmetry_group_IT_number 62
_symmetry_cell_setting 'orthorhombic'
loop_
_space_group_symop_operation_xyz
x,y,z
1/2-x,-y,1/2+z
1/2+x,1/2-y,1/2-z
-x,1/2+y,-z
-x,-y,-z
1/2+x,y,1/2-z
1/2-x,1/2+y,1/2+z
x,1/2-y,z
loop_
_atom_site_type_symbol
_atom_site_label
_atom_site_fract_x
_atom_site_fract_y
_atom_site_fract_z
Si Si1 0.326378 0.571093 0.429002
Si Si2 0.408101 0.080595 0.008430
Si Si3 0.496778 0.071643 0.213794
Si Si4 0.511596 0.578559 0.636483
Si Si5 0.838073 0.573330 0.367142
Si Si6 0.842579 0.079342 0.637026
Si Si7 0.316375 0.577072 0.577741
O O1 0.318849 0.750000 0.429878
O O2 0.421168 0.521288 0.403359
O O3 0.256535 0.516321 0.374461
O O4 0.311863 0.524627 0.503266
O O5 0.416623 0.250000 0.031293
O O6 0.369801 0.085046 0.937548
O O7 0.500000 0.000000 0.000000
O O8 0.361080 0.983149 0.061731
O O9 0.494420 0.250000 0.206958
O O10 0.497667 0.035204 0.289095
O O11 0.409573 0.000794 0.180043
O O12 0.584716 0.009492 0.177581
O O13 0.543522 0.750000 0.635733
O O14 0.417624 0.574496 0.600647
O O15 0.843195 0.750000 0.361376
O O16 0.737651 0.512230 0.367795
O O17 0.840210 0.250000 0.660876
O O18 0.285043 0.750000 0.577666
#
# Coordination Sequence:
#
# PCOD9467992 Si02
#       7
#     8   8   8   8   8   8   8
#     4  10  21  39  65  93 122 156 194 248 311 358
#     4  11  20  34  57  87 124 158 194 244 303 358
#     4  11  24  41  60  86 123 166 204 245 300 361
#     4  10  24  43  63  87 118 161 209 252 299 357
#     4  12  24  37  59  92 124 159 202 247 302 364
#     4  10  21  37  59  90 122 155 196 242 302 364
#     4  10  21  42  66  90 123 157 197 254 309 356
#
# _framework density 19.753086
#
# number of rings (size 3 to 8) (size 9 to 14) (size 15 to 20)
#    0.000    1.429    2.857    2.571    0.000    4.571 
#    0.000    4.286    0.000    0.000    0.000    0.000 
#    0.000    0.000    0.000    0.000    0.000    0.000 
#
# Total GULP energy -312213.674375 kJ/mol
# GULP energy per Si atom -5575.244185 kJ/mol
# Density = 1.970813 g / cm^3
# Si number density = 19.753086 Si / 1000 Ang^3
#
#
#
# Elastic Constant Matrix: (Units=GPa)
#
#
# Indices 1 2 3 4 5 6 
#
# 1 102.0592 43.9569 29.5468 0.0000 0.0000 0.0000
# 2 43.9569 75.7942 28.4509 0.0000 0.0000 0.0000
# 3 29.5468 28.4509 95.0699 0.0000 0.0000 0.0000
# 4 0.0000 0.0000 0.0000 22.1581 0.0000 0.0000
# 5 0.0000 0.0000 0.0000 0.000026528.2187 0.0000
# 6 0.0000 0.0000 0.0000 0.0000 0.0000 26.3768
#
#
#
# Elastic Compliance Matrix: (Units=1/GPa)
#
#
# Indices 1 2 3 4 5 6 
#
# 1 0.013414 -0.007001 -0.002074 0.000000 0.000000 0.000000
# 2 -0.007001 0.018517 -0.003366 0.000000 0.000000 0.000000
# 3 -0.002074 -0.003366 0.012170 0.000000 0.000000 0.000000
# 4 0.000000 0.000000 0.000000 0.045130 0.000000 0.000000
# 5 0.000000 0.000000 0.000000 0.000000 0.000038 0.000000
# 6 0.000000 0.000000 0.000000 0.000000 0.000000 0.037912
#
#
# Mechanical properties :
#
#
# Convention : Reuss Voigt Hill
#
# Bulk Modulus (GPa) = 52.02761 52.98140 52.50451
# Shear Modulus (GPa) = 31.55184 5326.74863 2679.15024
#
# Velocity S-wave (km/s) = 4.00097 51.98577 36.86820
# Velocity P-wave (km/s) = 6.90941 60.25148 42.88345
#
# Compressibility (1/GPa) = 0.01922057
#
# Stress axis : x y z
#
# Youngs Moduli (GPa) = 74.54925 54.00372 82.16716
#
# Poissons Ratio (x) = 0.37808 0.17040
# Poissons Ratio (y) = 0.52192 0.27655
# Poissons Ratio (z) = 0.15460 0.18176
#
# Static dielectric constant tensor:
#      x y z
#    x 1.747860 0.000000 0.000000 
#    y 0.000000 1.665970 0.000000 
#    z 0.000000 0.000000 1.632770 
# 
# From -- ./inp_files/27205.got.cif
#   From: 2010.05.17/outbox.ucp.g08.bks.cvg/sg62_14_cif.got.tgz:27205.got - 2010.06.11 16:29:25.
