data_PCOD9467478
_publ_section_title
;
Structure prediction by ZEFSAII (Michael W. Deem and Ramdas Pophale) SiO2 
 PCOD9467478
Probable space group: P N M A
;
_chemical_formula_sum "Si O2"
_cell_formula_units_Z 48
_cell_length_a 12.108648
_cell_length_b 8.987064
_cell_length_c 23.363583
_cell_angle_alpha 90.000000
_cell_angle_beta 90.000000
_cell_angle_gamma 90.000000
_cell_volume 2542.453011
_symmetry_space_group_name_H-M "P N M A"
_symmetry_group_IT_number 62
_symmetry_cell_setting 'orthorhombic'
loop_
_space_group_symop_operation_xyz
x,y,z
1/2-x,-y,1/2+z
1/2+x,1/2-y,1/2-z
-x,1/2+y,-z
-x,-y,-z
1/2+x,y,1/2-z
1/2-x,1/2+y,1/2+z
x,1/2-y,z
loop_
_atom_site_type_symbol
_atom_site_label
_atom_site_fract_x
_atom_site_fract_y
_atom_site_fract_z
Si Si1 0.336821 0.427162 0.354158
Si Si2 0.077192 0.927538 0.147942
Si Si3 0.480950 0.573538 0.129384
Si Si4 0.730181 0.572921 0.918645
Si Si5 0.685478 0.927552 0.050562
Si Si6 0.660010 0.927336 0.225018
O O1 0.342846 0.250000 0.353548
O O2 0.457573 0.498236 0.353283
O O3 0.271734 0.484503 0.410259
O O4 0.263443 0.485972 0.301060
O O5 0.066581 0.750000 0.142195
O O6 0.133392 0.959196 0.209436
O O7 0.157644 0.993243 0.099993
O O8 0.455949 0.750000 0.130269
O O9 0.369399 0.483644 0.121237
O O10 0.564207 0.542553 0.076518
O O11 0.552892 0.538160 0.185726
O O12 0.742455 0.750000 0.913985
O O13 0.698274 0.536133 0.984117
O O14 0.704574 0.750000 0.058219
O O15 0.680627 0.750000 0.218440
#
# Coordination Sequence:
#
# PCOD9467478 Si02
#       6
#     8   8   8   8   8   8
#     4  11  23  39  62  90 118 148 192 249 301 343
#     4  11  24  41  61  84 117 162 202 236 286 357
#     4   9  18  36  61  88 115 152 199 242 291 352
#     4  11  23  37  57  90 124 153 195 250 297 338
#     4   9  20  40  62  84 118 161 200 237 287 357
#     4   9  21  41  63  84 113 157 202 236 283 356
#
# _framework density 18.879404000000001
#
# number of rings (size 3 to 8) (size 9 to 14) (size 15 to 20)
#    0.000    2.000    0.000    4.000    2.333    6.000 
#    0.000    0.000    0.000    0.000    0.000    0.000 
#    0.000    0.000    0.000    0.000    0.000    0.000 
#
# Total GULP energy -268241.655375 kJ/mol
# GULP energy per Si atom -5588.367820 kJ/mol
# Density = 1.883643 g / cm^3
# Si number density = 18.879404 Si / 1000 Ang^3
#
#
#
# Elastic Constant Matrix: (Units=GPa)
#
#
# Indices 1 2 3 4 5 6 
#
# 1 93.9672 47.8737 2.3805 0.0000 0.0000 0.0000
# 2 47.8737 52.2545 16.9416 0.0000 0.0000 0.0000
# 3 2.3805 16.9416 30.6329 0.0000 0.0000 0.0000
# 4 0.0000 0.0000 0.0000 13.2162 0.0000 0.0000
# 5 0.0000 0.0000 0.0000 0.0000 8.6742 0.0000
# 6 0.0000 0.0000 0.0000 0.0000 0.0000 35.9707
#
#
#
# Elastic Compliance Matrix: (Units=1/GPa)
#
#
# Indices 1 2 3 4 5 6 
#
# 1 0.023128 -0.025108 0.012089 0.000000 0.000000 0.000000
# 2 -0.025108 0.050576 -0.026020 0.000000 0.000000 0.000000
# 3 0.012089 -0.026020 0.046096 0.000000 0.000000 0.000000
# 4 0.000000 0.000000 0.000000 0.075665 0.000000 0.000000
# 5 0.000000 0.000000 0.000000 0.000000 0.115285 0.000000
# 6 0.000000 0.000000 0.000000 0.000000 0.000000 0.027800
#
#
# Mechanical properties :
#
#
# Convention : Reuss Voigt Hill
#
# Bulk Modulus (GPa) = 23.96886 34.58292 29.27589
# Shear Modulus (GPa) = 11.61345 18.88279 15.24812
#
# Velocity S-wave (km/s) = 2.48289 3.16599 2.84502
# Velocity P-wave (km/s) = 4.57635 5.63225 5.13153
#
# Compressibility (1/GPa) = 0.04172080
#
# Stress axis : x y z
#
# Youngs Moduli (GPa) = 43.23845 19.77214 21.69395
#
# Poissons Ratio (x) = 0.49644 -0.26225
# Poissons Ratio (y) = 1.08563 0.56448
# Poissons Ratio (z) = -0.52270 0.51448
#
# Static dielectric constant tensor:
#      x y z
#    x 1.624510 0.000000 0.000000 
#    y 0.000000 1.595880 0.000000 
#    z 0.000000 0.000000 1.653630 
# 
# From -- ./inp_files/29213.got.cif
#   From: 2010.05.17/outbox.cif.g08.bks.cpg/sg62_15_cif.got.tgz:29213.got - 2010.06.03 15:25:27.
