data_PCOD9467655
_publ_section_title
;
Structure prediction by ZEFSAII (Michael W. Deem and Ramdas Pophale) SiO2 
 PCOD9467655
Probable space group: P N M A
;
_chemical_formula_sum "Si O2"
_cell_formula_units_Z 40
_cell_length_a 16.960750
_cell_length_b 21.834240
_cell_length_c 5.060488
_cell_angle_alpha 90.000000
_cell_angle_beta 90.000000
_cell_angle_gamma 90.000000
_cell_volume 1874.025654
_symmetry_space_group_name_H-M "P N M A"
_symmetry_group_IT_number 62
_symmetry_cell_setting 'orthorhombic'
loop_
_space_group_symop_operation_xyz
x,y,z
1/2-x,-y,1/2+z
1/2+x,1/2-y,1/2-z
-x,1/2+y,-z
-x,-y,-z
1/2+x,y,1/2-z
1/2-x,1/2+y,1/2+z
x,1/2-y,z
loop_
_atom_site_type_symbol
_atom_site_label
_atom_site_fract_x
_atom_site_fract_y
_atom_site_fract_z
Si Si1 0.649190 0.647549 0.828481
Si Si2 0.173079 0.320075 0.172641
Si Si3 0.194928 0.507732 0.734572
Si Si4 0.105929 0.384314 0.673724
Si Si5 0.448165 0.319985 0.675423
O O1 0.734642 0.674863 0.762464
O O2 0.659242 0.574453 0.814548
O O3 0.585246 0.669146 0.615889
O O4 0.621652 0.668787 0.116062
O O5 0.146700 0.250000 0.188708
O O6 0.125322 0.361034 0.380534
O O7 0.159814 0.346604 0.880684
O O8 0.263559 0.495598 0.519601
O O9 0.130269 0.454699 0.704246
O O10 0.017527 0.366737 0.752035
O O11 0.476885 0.250000 0.701462
#
# Coordination Sequence:
#
# PCOD9467655 Si02
#       5
#     8   8   8   8   8
#     4  12  25  43  70  98 134 181 219 278 336 386
#     4  12  23  41  68 100 128 177 233 270 324 398
#     4  12  23  46  70  98 134 168 231 284 320 390
#     4  12  25  44  70  97 135 181 218 277 336 387
#     4  12  26  44  64 101 143 173 217 277 338 401
#
# _framework density 21.344427
#
# number of rings (size 3 to 8) (size 9 to 14) (size 15 to 20)
#    0.000    0.000    4.000    7.200    0.000    1.600 
#    0.000    0.000    0.000    0.000    0.000    0.000 
#    0.000    0.000    0.000    0.000    0.000    0.000 
#
# Total GULP energy -224142.411469 kJ/mol
# GULP energy per Si atom -5603.560287 kJ/mol
# Density = 2.129585 g / cm^3
# Si number density = 21.344427 Si / 1000 Ang^3
#
#
#
# Elastic Constant Matrix: (Units=GPa)
#
#
# Indices 1 2 3 4 5 6 
#
# 1 45.9988 -8.8427 -9.1794 0.0000 0.0000 0.0000
# 2 -8.8427 88.9781 0.2098 0.0000 0.0000 0.0000
# 3 -9.1794 0.2098 51.6721 0.0000 0.0000 0.0000
# 4 0.0000 0.0000 0.0000 86.0518 0.0000 0.0000
# 5 0.0000 0.0000 0.0000 0.0000 35.9615 0.0000
# 6 0.0000 0.0000 0.0000 0.0000 0.0000 98.5804
#
#
#
# Elastic Compliance Matrix: (Units=1/GPa)
#
#
# Indices 1 2 3 4 5 6 
#
# 1 0.022990 0.002275 0.004075 0.000000 0.000000 0.000000
# 2 0.002275 0.011464 0.000358 0.000000 0.000000 0.000000
# 3 0.004075 0.000358 0.020075 0.000000 0.000000 0.000000
# 4 0.000000 0.000000 0.000000 0.011621 0.000000 0.000000
# 5 0.000000 0.000000 0.000000 0.000000 0.027808 0.000000
# 6 0.000000 0.000000 0.000000 0.000000 0.000000 0.010144
#
#
# Mechanical properties :
#
#
# Convention : Reuss Voigt Hill
#
# Bulk Modulus (GPa) = 14.71781 16.78049 15.74915
# Shear Modulus (GPa) = 44.11708 57.74950 50.93329
#
# Velocity S-wave (km/s) = 4.55126 5.20718 4.89023
# Velocity P-wave (km/s) = 5.87614 6.63565 6.26741
#
# Compressibility (1/GPa) = 0.06794491
#
# Stress axis : x y z
#
# Youngs Moduli (GPa) = 43.49673 87.22969 49.81256
#
# Poissons Ratio (x) = -0.19846 -0.20298
# Poissons Ratio (y) = -0.09896 -0.01781
# Poissons Ratio (z) = -0.17724 -0.03120
#
# Static dielectric constant tensor:
#      x y z
#    x 1.756630 0.000000 0.000000 
#    y 0.000000 1.737280 0.000000 
#    z 0.000000 0.000000 1.726180 
# 
# From -- ./inp_files/1048.got.cif
#   From: 2010.05.17/outbox.cif.g08.bks.cpg/sg62_1_cif.got.tgz:1048.got - 2010.06.03 15:25:27.
