data_PCOD9467853
_publ_section_title
;
Structure prediction by ZEFSAII (Michael W. Deem and Ramdas Pophale) SiO2 
 PCOD9467853
Probable space group: P N M A
;
_chemical_formula_sum "Si O2"
_cell_formula_units_Z 64
_cell_length_a 24.000000
_cell_length_b 9.000000
_cell_length_c 15.000000
_cell_angle_alpha 90.000000
_cell_angle_beta 90.000000
_cell_angle_gamma 90.000000
_cell_volume 3240.000000
_symmetry_space_group_name_H-M "P N M A"
_symmetry_group_IT_number 62
_symmetry_cell_setting 'orthorhombic'
loop_
_space_group_symop_operation_xyz
x,y,z
1/2-x,-y,1/2+z
1/2+x,1/2-y,1/2-z
-x,1/2+y,-z
-x,-y,-z
1/2+x,y,1/2-z
1/2-x,1/2+y,1/2+z
x,1/2-y,z
loop_
_atom_site_type_symbol
_atom_site_label
_atom_site_fract_x
_atom_site_fract_y
_atom_site_fract_z
Si Si1 0.840752 0.580080 0.869425
Si Si2 0.484606 0.075060 0.406307
Si Si3 0.950055 0.426399 0.552415
Si Si4 0.265280 0.574858 0.176807
Si Si5 0.169293 0.571686 0.527761
Si Si6 0.747089 0.425818 0.624224
Si Si7 0.379470 0.581468 0.437657
Si Si8 0.439670 0.925935 0.757441
O O1 0.818541 0.750000 0.871476
O O2 0.791300 0.464327 0.874968
O O3 0.877703 0.557678 0.782223
O O4 0.880159 0.567308 0.955344
O O5 0.493835 0.250000 0.414493
O O6 0.519462 0.021644 0.321347
O O7 0.500000 0.000000 0.500000
O O8 0.420094 0.034680 0.392801
O O9 0.956181 0.250000 0.553837
O O10 0.892753 0.462634 0.502157
O O11 0.947156 0.486975 0.652271
O O12 0.000000 0.500000 0.500000
O O13 0.275253 0.750000 0.182239
O O14 0.313949 0.498750 0.121421
O O15 0.254328 0.512382 0.275907
O O16 0.176194 0.750000 0.534128
O O17 0.210176 0.514434 0.448914
O O18 0.761146 0.250000 0.633108
O O19 0.684549 0.436112 0.588341
O O20 0.396861 0.750000 0.414605
O O21 0.449516 0.750000 0.771925
#
# Coordination Sequence:
#
# PCOD9467853 Si02
#       8
#     8   8   8   8   8   8   8   8
#     4  10  19  36  60  84 118 162 201 244 301 359
#     4  11  22  37  57  86 123 159 198 246 298 359
#     4  11  25  44  68  92 119 158 206 257 309 365
#     4  11  22  35  58  93 123 153 200 253 296 353
#     4  10  21  42  65  85 116 161 200 240 301 366
#     4   9  19  37  59  83 119 157 193 237 292 355
#     4  10  19  36  59  82 115 159 198 240 299 358
#     4  10  22  40  62  89 122 161 207 256 306 361
#
# _framework density 19.753086
#
# number of rings (size 3 to 8) (size 9 to 14) (size 15 to 20)
#    0.000    1.750    2.500    1.875    0.000    5.000 
#    0.000    5.000    0.000    0.000    0.000    0.000 
#    0.000    0.000    0.000    0.000    0.000    0.000 
#
# Total GULP energy -357172.700047 kJ/mol
# GULP energy per Si atom -5580.823438 kJ/mol
# Density = 1.970813 g / cm^3
# Si number density = 19.753086 Si / 1000 Ang^3
#
#
#
# Elastic Constant Matrix: (Units=GPa)
#
#
# Indices 1 2 3 4 5 6 
#
# 1 61.6519 36.1356 34.5797 0.0000 0.0000 0.0000
# 2 36.1356 7.3640 15.2799 0.0000 0.0000 0.0000
# 3 34.5797 15.2799 49.1495 0.0000 0.0000 0.0000
# 4 0.0000 0.0000 0.0000 29.2204 0.0000 0.0000
# 5 0.0000 0.0000 0.0000 0.0000 19.2338 0.0000
# 6 0.0000 0.0000 0.0000 0.0000 0.0000 26.9015
#
#
#
# Elastic Compliance Matrix: (Units=1/GPa)
#
#
# Indices 1 2 3 4 5 6 
#
# 1 -0.004779 0.046420 -0.011069 0.000000 0.000000 0.000000
# 2 0.046420 -0.068250 -0.011441 0.000000 0.000000 0.000000
# 3 -0.011069 -0.011441 0.031691 0.000000 0.000000 0.000000
# 4 0.000000 0.000000 0.000000 0.034223 0.000000 0.000000
# 5 0.000000 0.000000 0.000000 0.000000 0.051992 0.000000
# 6 0.000000 0.000000 0.000000 0.000000 0.000000 0.037173
#
#
# Mechanical properties :
#
#
# Convention : Reuss Voigt Hill
#
# Bulk Modulus (GPa) = 154.29227 32.23951 93.26589
# Shear Modulus (GPa) = 137.40318 17.21581 77.30949
#
# Velocity S-wave (km/s) = 8.34933 2.95541 6.26282
# Velocity P-wave (km/s) = 13.08543 5.29175 9.98076
#
# Compressibility (1/GPa) = 0.00648121
#
# Stress axis : x y z
#
# Youngs Moduli (GPa) = -209.22785 -14.65207 31.55508
#
# Poissons Ratio (x) = 0.68015 0.34927
# Poissons Ratio (y) = 9.71238 0.36104
# Poissons Ratio (z) = -2.31588 -0.16764
#
# Static dielectric constant tensor:
#      x y z
#    x 1.728100 0.000000 0.000000 
#    y 0.000000 1.672090 0.000000 
#    z 0.000000 0.000000 1.703880 
# 
# From -- ./inp_files/20835.got.cif
#   From: 2010.05.17/outbox.ucp.g08.bks.cvg/sg62_11_cif.got.tgz:20835.got - 2010.06.11 16:29:25.
