data_PCOD9467598
_publ_section_title
;
Structure prediction by ZEFSAII (Michael W. Deem and Ramdas Pophale) SiO2 
 PCOD9467598
Probable space group: P N M A
;
_chemical_formula_sum "Si O2"
_cell_formula_units_Z 28
_cell_length_a 18.345873
_cell_length_b 7.811871
_cell_length_c 8.324306
_cell_angle_alpha 90.000000
_cell_angle_beta 90.000000
_cell_angle_gamma 90.000000
_cell_volume 1193.002853
_symmetry_space_group_name_H-M "P N M A"
_symmetry_group_IT_number 62
_symmetry_cell_setting 'orthorhombic'
loop_
_space_group_symop_operation_xyz
x,y,z
1/2-x,-y,1/2+z
1/2+x,1/2-y,1/2-z
-x,1/2+y,-z
-x,-y,-z
1/2+x,y,1/2-z
1/2-x,1/2+y,1/2+z
x,1/2-y,z
loop_
_atom_site_type_symbol
_atom_site_label
_atom_site_fract_x
_atom_site_fract_y
_atom_site_fract_z
Si Si1 0.049421 0.548015 0.847555
Si Si2 0.000000 0.000000 0.500000
Si Si3 0.152807 0.449973 0.378683
Si Si4 0.305354 0.544767 0.519481
O O1 0.041122 0.750000 0.816458
O O2 0.020090 0.459797 0.688401
O O3 0.132206 0.504989 0.893345
O O4 0.000000 0.500000 0.000000
O O5 0.913478 0.041796 0.535578
O O6 0.128067 0.250000 0.372154
O O7 0.228220 0.465177 0.473310
O O8 0.168330 0.508284 0.196945
O O9 0.297322 0.750000 0.521109
#
# Coordination Sequence:
#
# PCOD9467598 Si02
#       4
#     8   4   8   8
#     4  12  26  47  75 109 147 192 244 302 365 436
#     4  12  26  46  74 108 148 194 242 304 366 438
#     4  11  25  46  70 104 145 191 248 305 367 440
#     4  11  25  47  72 105 147 193 246 306 369 438
#
# _framework density 23.470186999999999
#
# number of rings (size 3 to 8) (size 9 to 14) (size 15 to 20)
#    0.000    0.571    2.857    4.286    0.000   13.714 
#    0.000    0.000    0.000    0.000    0.000    0.000 
#    0.000    0.000    0.000    0.000    0.000    0.000 
#
# Total GULP energy -155873.544904 kJ/mol
# GULP energy per Si atom -5566.912318 kJ/mol
# Density = 2.341677 g / cm^3
# Si number density = 23.470187 Si / 1000 Ang^3
#
#
#
# Elastic Constant Matrix: (Units=GPa)
#
#
# Indices 1 2 3 4 5 6 
#
# 1 172.6756 -9.2217 59.7308 0.0000 0.0000 0.0000
# 2 -9.2217 54.6975 -6.8809 0.0000 0.0000 0.0000
# 3 59.7308 -6.8809 167.4528 0.0000 0.0000 0.0000
# 4 0.0000 0.0000 0.0000 1.6912 0.0000 0.0000
# 5 0.0000 0.0000 0.0000 0.0000 57.6978 0.0000
# 6 0.0000 0.0000 0.0000 0.0000 0.0000 -0.3680
#
#
#
# Elastic Compliance Matrix: (Units=1/GPa)
#
#
# Indices 1 2 3 4 5 6 
#
# 1 0.006643 0.000826 -0.002336 0.000000 0.000000 0.000000
# 2 0.000826 0.018480 0.000465 0.000000 0.000000 0.000000
# 3 -0.002336 0.000465 0.006824 0.000000 0.000000 0.000000
# 4 0.000000 0.000000 0.000000 0.591312 0.000000 0.000000
# 5 0.000000 0.000000 0.000000 0.000000 0.017332 0.000000
# 6 0.000000 0.000000 0.000000 0.000000 0.000000 -2.717695
#
#
# Mechanical properties :
#
#
# Convention : Reuss Voigt Hill
#
# Bulk Modulus (GPa) = 33.49210 53.56469 43.52840
# Shear Modulus (GPa) = -2.42124 35.21738 16.39807
#
# Velocity S-wave (km/s) = -1.01679 3.87785 2.64612
# Velocity P-wave (km/s) = 3.59480 6.55151 5.28417
#
# Compressibility (1/GPa) = 0.02985778
#
# Stress axis : x y z
#
# Youngs Moduli (GPa) = 150.52784 54.11218 146.53979
#
# Poissons Ratio (x) = -0.04471 0.34228
# Poissons Ratio (y) = -0.12436 -0.06809
# Poissons Ratio (z) = 0.35159 -0.02514
#
# Static dielectric constant tensor:
#      x y z
#    x 1.818770 0.000000 0.000000 
#    y 0.000000 1.961460 0.000000 
#    z 0.000000 0.000000 1.862320 
# 
# From -- ./inp_files/7142.got.cif
#   From: 2010.05.17/outbox.cif.g08.bks.cpg/sg62_4_cif.got.tgz:7142.got - 2010.06.03 15:25:27.
