data_PCOD9467131
_publ_section_title
;
Structure prediction by ZEFSAII (Michael W. Deem and Ramdas Pophale) SiO2 
 PCOD9467131
Probable space group: P N M A
;
_chemical_formula_sum "Si O2"
_cell_formula_units_Z 44
_cell_length_a 26.579729
_cell_length_b 7.715588
_cell_length_c 8.676518
_cell_angle_alpha 90.000000
_cell_angle_beta 90.000000
_cell_angle_gamma 90.000000
_cell_volume 1779.365024
_symmetry_space_group_name_H-M "P N M A"
_symmetry_group_IT_number 62
_symmetry_cell_setting 'orthorhombic'
loop_
_space_group_symop_operation_xyz
x,y,z
1/2-x,-y,1/2+z
1/2+x,1/2-y,1/2-z
-x,1/2+y,-z
-x,-y,-z
1/2+x,y,1/2-z
1/2-x,1/2+y,1/2+z
x,1/2-y,z
loop_
_atom_site_type_symbol
_atom_site_label
_atom_site_fract_x
_atom_site_fract_y
_atom_site_fract_z
Si Si1 0.677616 0.550205 0.144153
Si Si2 0.638941 0.443253 0.601338
Si Si3 0.432960 0.051616 0.939673
Si Si4 0.547440 0.042026 0.394756
Si Si5 0.268105 0.051191 0.550595
Si Si6 0.922321 0.750000 0.358895
O O1 0.666138 0.750000 0.180570
O O2 0.624241 0.474810 0.094311
O O3 0.717942 0.538725 0.007977
O O4 0.704440 0.478171 0.297278
O O5 0.653847 0.250000 0.546457
O O6 0.597611 0.517051 0.484035
O O7 0.690456 0.545924 0.586383
O O8 0.609839 0.400961 0.759136
O O9 0.430477 0.250000 0.997069
O O10 0.455994 0.046042 0.769362
O O11 0.453143 0.904084 0.050942
O O12 0.550645 0.250000 0.377863
O O13 0.500000 0.000000 0.500000
O O14 0.253992 0.250000 0.585011
#
# Coordination Sequence:
#
# PCOD9467131 Si02
#       6
#     8   8   8   8   8   4
#     4  10  24  39  57  89 129 172 225 278 333 402
#     4   9  22  42  63  92 132 172 217 276 344 395
#     4  11  23  43  69 101 135 180 229 277 345 409
#     4  11  22  42  74 101 131 175 232 288 341 406
#     4  11  23  37  60  89 125 170 226 280 333 399
#     4  10  24  42  70  92 142 174 212 272 346 404
#
# _framework density 24.727920999999998
#
# number of rings (size 3 to 8) (size 9 to 14) (size 15 to 20)
#    0.545    1.091    2.727    1.091    3.818    2.909 
#    0.000    0.909    0.000    0.000    0.000    0.000 
#    0.000    0.000    0.000    0.000    0.000    0.000 
#
# Total GULP energy -244992.827011 kJ/mol
# GULP energy per Si atom -5568.018796 kJ/mol
# Density = 2.467164 g / cm^3
# Si number density = 24.727921 Si / 1000 Ang^3
#
#
#
# Elastic Constant Matrix: (Units=GPa)
#
#
# Indices 1 2 3 4 5 6 
#
# 1 96.7187 10.1451 29.4415 0.0000 0.0000 0.0000
# 2 10.1451 99.2567 14.4072 0.0000 0.0000 0.0000
# 3 29.4415 14.4072 94.1526 0.0000 0.0000 0.0000
# 4 0.0000 0.0000 0.0000 -2.6268 0.0000 0.0000
# 5 0.0000 0.0000 0.0000 0.0000 44.7496 0.0000
# 6 0.0000 0.0000 0.0000 0.0000 0.0000 21.1974
#
#
#
# Elastic Compliance Matrix: (Units=1/GPa)
#
#
# Indices 1 2 3 4 5 6 
#
# 1 0.011470 -0.000667 -0.003485 0.000000 0.000000 0.000000
# 2 -0.000667 0.010342 -0.001374 0.000000 0.000000 0.000000
# 3 -0.003485 -0.001374 0.011921 0.000000 0.000000 0.000000
# 4 0.000000 0.000000 0.000000 -0.380687 0.000000 0.000000
# 5 0.000000 0.000000 0.000000 0.000000 0.022347 0.000000
# 6 0.000000 0.000000 0.000000 0.000000 0.000000 0.047176
#
#
# Mechanical properties :
#
#
# Convention : Reuss Voigt Hill
#
# Bulk Modulus (GPa) = 44.08658 44.23507 44.16082
# Shear Modulus (GPa) = -19.31847 28.40631 4.54392
#
# Velocity S-wave (km/s) = -2.79810 3.39301 1.35704
# Velocity P-wave (km/s) = 2.72547 5.76867 4.51142
#
# Compressibility (1/GPa) = 0.02268264
#
# Stress axis : x y z
#
# Youngs Moduli (GPa) = 87.18454 96.68866 83.88571
#
# Poissons Ratio (x) = 0.06445 0.29231
# Poissons Ratio (y) = 0.05811 0.11527
# Poissons Ratio (z) = 0.30381 0.13287
#
# Static dielectric constant tensor:
#      x y z
#    x 2.068750 0.000000 0.000000 
#    y 0.000000 1.907740 0.000000 
#    z 0.000000 0.000000 2.018070 
# 
# From -- ./inp_files/10060.got.cif
#   From: 2010.05.17/outbox.cif.g08.bks.cpg/sg62_6_cif.got.tgz:10060.got - 2010.06.03 15:25:27.
