data_PCOD9467041
_publ_section_title
;
Structure prediction by ZEFSAII (Michael W. Deem and Ramdas Pophale) SiO2 
 PCOD9467041
Probable space group: P N M A
;
_chemical_formula_sum "Si O2"
_cell_formula_units_Z 64
_cell_length_a 24.371010
_cell_length_b 8.586602
_cell_length_c 15.849550
_cell_angle_alpha 90.000000
_cell_angle_beta 90.000000
_cell_angle_gamma 90.000000
_cell_volume 3316.742818
_symmetry_space_group_name_H-M "P N M A"
_symmetry_group_IT_number 62
_symmetry_cell_setting 'orthorhombic'
loop_
_space_group_symop_operation_xyz
x,y,z
1/2-x,-y,1/2+z
1/2+x,1/2-y,1/2-z
-x,1/2+y,-z
-x,-y,-z
1/2+x,y,1/2-z
1/2-x,1/2+y,1/2+z
x,1/2-y,z
loop_
_atom_site_type_symbol
_atom_site_label
_atom_site_fract_x
_atom_site_fract_y
_atom_site_fract_z
Si Si1 0.615063 0.436585 0.911732
Si Si2 0.883639 0.563483 0.906766
Si Si3 0.884140 0.436305 0.086183
Si Si4 0.498217 0.439085 0.845611
Si Si5 0.809463 0.938052 0.747927
Si Si6 0.317553 0.061681 0.246763
Si Si7 0.498960 0.936947 0.351470
Si Si8 0.620997 0.563416 0.092700
O O1 0.614996 0.250000 0.914930
O O2 0.552406 0.491932 0.894732
O O3 0.651055 0.491872 0.833045
O O4 0.635592 0.502800 0.000242
O O5 0.887357 0.750000 0.905909
O O6 0.843505 0.513396 0.830935
O O7 0.943830 0.493757 0.889788
O O8 0.864194 0.507460 0.998233
O O9 0.882844 0.250000 0.080435
O O10 0.847936 0.485375 0.166746
O O11 0.946316 0.491410 0.102953
O O12 0.497886 0.250000 0.847471
O O13 0.502268 0.484089 0.747324
O O14 0.440752 0.493004 0.884366
O O15 0.811177 0.750000 0.743909
O O16 0.746038 0.985584 0.752657
O O17 0.838807 0.003993 0.665288
O O18 0.320143 0.250000 0.241394
O O19 0.495940 0.750000 0.356528
O O20 0.620857 0.750000 0.092867
#
# Coordination Sequence:
#
# PCOD9467041 Si02
#       8
#     8   8   8   8   8   8   8   8
#     4  11  22  39  62  91 123 158 198 241 296 353
#     4  11  23  39  61  89 120 156 197 242 297 354
#     4  11  23  39  61  89 120 156 197 242 297 354
#     4   9  19  35  59  89 121 155 191 238 292 353
#     4  10  23  43  63  86 118 156 202 252 297 347
#     4  10  23  43  63  86 118 156 202 252 297 347
#     4  11  20  37  62  89 122 154 194 241 294 357
#     4  11  22  39  62  91 123 158 198 241 296 353
#
# _framework density 19.296040999999999
#
# number of rings (size 3 to 8) (size 9 to 14) (size 15 to 20)
#    0.000    1.500    2.500    2.625    0.000    2.500 
#    0.000    4.375    0.000    0.000    0.000    0.000 
#    0.000    0.000    0.000    0.000    0.000    0.000 
#
# Total GULP energy -357807.044146 kJ/mol
# GULP energy per Si atom -5590.735065 kJ/mol
# Density = 1.925212 g / cm^3
# Si number density = 19.296041 Si / 1000 Ang^3
#
#
#
# Elastic Constant Matrix: (Units=GPa)
#
#
# Indices 1 2 3 4 5 6 
#
# 1 95.6730 0.3186 7.0140 0.0000 0.0000 0.0000
# 2 0.3186 10.4311 -5.5831 0.0000 0.0000 0.0000
# 3 7.0140 -5.5831 84.1122 0.0000 0.0000 0.0000
# 4 0.0000 0.0000 0.0000 30.8969 0.0000 0.0000
# 5 0.0000 0.0000 0.0000 0.0000 -2.7335 0.0000
# 6 0.0000 0.0000 0.0000 0.0000 0.0000 6.5533
#
#
#
# Elastic Compliance Matrix: (Units=1/GPa)
#
#
# Indices 1 2 3 4 5 6 
#
# 1 0.010523 -0.000820 -0.000932 0.000000 0.000000 0.000000
# 2 -0.000820 0.099463 0.006670 0.000000 0.000000 0.000000
# 3 -0.000932 0.006670 0.012409 0.000000 0.000000 0.000000
# 4 0.000000 0.000000 0.000000 0.032366 0.000000 0.000000
# 5 0.000000 0.000000 0.000000 0.000000 -0.365827 0.000000
# 6 0.000000 0.000000 0.000000 0.000000 0.000000 0.152595
#
#
# Mechanical properties :
#
#
# Convention : Reuss Voigt Hill
#
# Bulk Modulus (GPa) = 7.56249 21.52395 14.54322
# Shear Modulus (GPa) = -206.35663 19.50779 -93.42442
#
# Velocity S-wave (km/s) = -10.35252 3.18303 -6.96574
# Velocity P-wave (km/s) = 11.78863 4.96867 7.55924
#
# Compressibility (1/GPa) = 0.13223151
#
# Stress axis : x y z
#
# Youngs Moduli (GPa) = 95.02699 10.05403 80.58440
#
# Poissons Ratio (x) = 0.00825 0.07510
# Poissons Ratio (y) = 0.07795 -0.53753
# Poissons Ratio (z) = 0.08856 -0.06706
#
# Static dielectric constant tensor:
#      x y z
#    x 1.652650 0.000000 0.000000 
#    y 0.000000 1.648690 0.000000 
#    z 0.000000 0.000000 1.658490 
# 
# From -- ./inp_files/20899.got.cif
#   From: 2010.05.17/outbox.cif.g08.bks.cpg/sg62_11_cif.got.tgz:20899.got - 2010.06.03 15:25:27.
