data_PCOD9467542
_publ_section_title
;
Structure prediction by ZEFSAII (Michael W. Deem and Ramdas Pophale) SiO2 
 PCOD9467542
Probable space group: P N M A
;
_chemical_formula_sum "Si O2"
_cell_formula_units_Z 28
_cell_length_a 16.148689
_cell_length_b 13.384186
_cell_length_c 5.026897
_cell_angle_alpha 90.000000
_cell_angle_beta 90.000000
_cell_angle_gamma 90.000000
_cell_volume 1086.498725
_symmetry_space_group_name_H-M "P N M A"
_symmetry_group_IT_number 62
_symmetry_cell_setting 'orthorhombic'
loop_
_space_group_symop_operation_xyz
x,y,z
1/2-x,-y,1/2+z
1/2+x,1/2-y,1/2-z
-x,1/2+y,-z
-x,-y,-z
1/2+x,y,1/2-z
1/2-x,1/2+y,1/2+z
x,1/2-y,z
loop_
_atom_site_type_symbol
_atom_site_label
_atom_site_fract_x
_atom_site_fract_y
_atom_site_fract_z
Si Si1 0.483947 0.750000 0.991713
Si Si2 0.863541 0.250000 0.862930
Si Si3 0.197468 0.469736 0.495035
Si Si4 0.814437 0.750000 0.416692
Si Si5 0.052355 0.574576 0.812649
O O1 0.487058 0.850281 0.821008
O O2 0.571818 0.750000 0.129400
O O3 0.407424 0.750000 0.196903
O O4 0.770367 0.250000 0.755059
O O5 0.886815 0.151248 0.031574
O O6 0.240250 0.521751 0.245741
O O7 0.189493 0.353004 0.423688
O O8 0.111267 0.516928 0.602110
O O9 0.000000 0.500000 0.000000
#
# Coordination Sequence:
#
# PCOD9467542 Si02
#       5
#     4   4   8   4   8
#     4  11  27  47  77 111 160 211 269 332 404 489
#     4  11  23  49  69 109 153 207 257 333 393 484
#     4  12  28  50  79 115 159 211 267 333 404 484
#     4  12  26  46  82 112 155 208 278 323 407 479
#     4  11  26  45  75 109 159 205 265 332 409 469
#
# _framework density 25.770855000000001
#
# number of rings (size 3 to 8) (size 9 to 14) (size 15 to 20)
#    0.000    0.571    2.857    3.429    4.000    5.714 
#    0.000    0.000    0.000    0.000    0.000    0.000 
#    0.000    0.000    0.000    0.000    0.000    0.000 
#
# Total GULP energy -156738.797340 kJ/mol
# GULP energy per Si atom -5597.814191 kJ/mol
# Density = 2.571220 g / cm^3
# Si number density = 25.770855 Si / 1000 Ang^3
#
#
#
# Elastic Constant Matrix: (Units=GPa)
#
#
# Indices 1 2 3 4 5 6 
#
# 1 218.9611 65.2737 59.4149 0.0000 0.0000 0.0000
# 2 65.2737 220.3449 52.7528 0.0000 0.0000 0.0000
# 3 59.4149 52.7528 100.4838 0.0000 0.0000 0.0000
# 4 0.0000 0.0000 0.0000 24.8037 0.0000 0.0000
# 5 0.0000 0.0000 0.0000 0.0000 47.9619 0.0000
# 6 0.0000 0.0000 0.0000 0.0000 0.0000 23.3612
#
#
#
# Elastic Compliance Matrix: (Units=1/GPa)
#
#
# Indices 1 2 3 4 5 6 
#
# 1 0.005624 -0.000995 -0.002803 0.000000 0.000000 0.000000
# 2 -0.000995 0.005367 -0.002229 0.000000 0.000000 0.000000
# 3 -0.002803 -0.002229 0.012780 0.000000 0.000000 0.000000
# 4 0.000000 0.000000 0.000000 0.040317 0.000000 0.000000
# 5 0.000000 0.000000 0.000000 0.000000 0.020850 0.000000
# 6 0.000000 0.000000 0.000000 0.000000 0.000000 0.042806
#
#
# Mechanical properties :
#
#
# Convention : Reuss Voigt Hill
#
# Bulk Modulus (GPa) = 85.35362 99.40806 92.38084
# Shear Modulus (GPa) = 34.79394 43.38192 39.08793
#
# Velocity S-wave (km/s) = 3.67839 4.10734 3.89877
# Velocity P-wave (km/s) = 7.15772 7.81993 7.49614
#
# Compressibility (1/GPa) = 0.01171596
#
# Stress axis : x y z
#
# Youngs Moduli (GPa) = 177.80047 186.33158 78.24936
#
# Poissons Ratio (x) = 0.18540 0.21935
# Poissons Ratio (y) = 0.17691 0.17443
# Poissons Ratio (z) = 0.49841 0.41537
#
# Static dielectric constant tensor:
#      x y z
#    x 2.087650 0.000000 0.000000 
#    y 0.000000 2.070710 0.000000 
#    z 0.000000 0.000000 2.035190 
# 
# From -- ./inp_files/828.got.cif
#   From: 2010.05.17/outbox.cif.g08.bks.cpg/sg62_1_cif.got.tgz:828.got - 2010.06.03 15:25:27.
