data_PCOD9467037
_publ_section_title
;
Structure prediction by ZEFSAII (Michael W. Deem and Ramdas Pophale) SiO2 
 PCOD9467037
Probable space group: P N M A
;
_chemical_formula_sum "Si O2"
_cell_formula_units_Z 56
_cell_length_a 13.304505
_cell_length_b 30.572479
_cell_length_c 5.242041
_cell_angle_alpha 90.000000
_cell_angle_beta 90.000000
_cell_angle_gamma 90.000000
_cell_volume 2132.209087
_symmetry_space_group_name_H-M "P N M A"
_symmetry_group_IT_number 62
_symmetry_cell_setting 'orthorhombic'
loop_
_space_group_symop_operation_xyz
x,y,z
1/2-x,-y,1/2+z
1/2+x,1/2-y,1/2-z
-x,1/2+y,-z
-x,-y,-z
1/2+x,y,1/2-z
1/2-x,1/2+y,1/2+z
x,1/2-y,z
loop_
_atom_site_type_symbol
_atom_site_label
_atom_site_fract_x
_atom_site_fract_y
_atom_site_fract_z
Si Si1 0.747516 0.832279 0.376444
Si Si2 0.822939 0.602451 0.021136
Si Si3 0.591548 0.533968 0.962120
Si Si4 0.571763 0.325485 0.211113
Si Si5 0.673161 0.750000 0.063381
Si Si6 0.378111 0.997944 0.527508
Si Si7 0.459226 0.250000 0.450773
Si Si8 0.607670 0.627577 0.793029
O O1 0.829606 0.810584 0.563778
O O2 0.728165 0.795763 0.154500
O O3 0.647667 0.849863 0.527378
O O4 0.809879 0.876627 0.300967
O O5 0.902483 0.632152 0.876770
O O6 0.714085 0.616135 0.917465
O O7 0.848953 0.552653 0.969099
O O8 0.662672 0.515736 0.740624
O O9 0.557846 0.579956 0.846450
O O10 0.500000 0.500000 0.000000
O O11 0.642492 0.531053 0.239070
O O12 0.532354 0.289869 0.402910
O O13 0.468822 0.339475 0.067547
O O14 0.583091 0.750000 0.267856
O O15 0.629375 0.750000 0.772348
O O16 0.500000 0.000000 0.500000
#
# Coordination Sequence:
#
# PCOD9467037 Si02
#       8
#     8   8   8   8   4   8   4   8
#     4  11  27  46  78 113 161 213 264 345 400 504
#     4  11  27  44  75 110 156 203 269 329 408 475
#     4  10  23  42  70 103 144 196 250 317 385 460
#     4  11  25  47  76 112 148 210 264 324 397 493
#     4  12  27  53  76 119 164 202 262 332 409 476
#     4  10  23  43  69 104 145 196 247 320 384 466
#     4  12  27  49  82 111 156 208 260 318 411 472
#     4  11  25  46  73 109 155 205 267 331 403 482
#
# _framework density 26.263840999999999
#
# number of rings (size 3 to 8) (size 9 to 14) (size 15 to 20)
#    0.000    1.143    1.429    3.000   14.000    2.857 
#    0.000    0.000    0.000    0.000    0.000    0.000 
#    0.000    0.000    0.000    0.000    0.000    0.000 
#
# Total GULP energy -312416.057110 kJ/mol
# GULP energy per Si atom -5578.858163 kJ/mol
# Density = 2.620406 g / cm^3
# Si number density = 26.263841 Si / 1000 Ang^3
#
#
#
# Elastic Constant Matrix: (Units=GPa)
#
#
# Indices 1 2 3 4 5 6 
#
# 1 104.6039 46.6160 14.2849 0.0000 0.0000 0.0000
# 2 46.6160 149.9549 11.8868 0.0000 0.0000 0.0000
# 3 14.2849 11.8868 114.1472 0.0000 0.0000 0.0000
# 4 0.0000 0.0000 0.0000 33.4052 0.0000 0.0000
# 5 0.0000 0.0000 0.0000 0.0000 20.6068 0.0000
# 6 0.0000 0.0000 0.0000 0.0000 0.0000 39.1649
#
#
#
# Elastic Compliance Matrix: (Units=1/GPa)
#
#
# Indices 1 2 3 4 5 6 
#
# 1 0.011221 -0.003405 -0.001050 0.000000 0.000000 0.000000
# 2 -0.003405 0.007757 -0.000382 0.000000 0.000000 0.000000
# 3 -0.001050 -0.000382 0.008932 0.000000 0.000000 0.000000
# 4 0.000000 0.000000 0.000000 0.029936 0.000000 0.000000
# 5 0.000000 0.000000 0.000000 0.000000 0.048528 0.000000
# 6 0.000000 0.000000 0.000000 0.000000 0.000000 0.025533
#
#
# Mechanical properties :
#
#
# Convention : Reuss Voigt Hill
#
# Bulk Modulus (GPa) = 54.83293 57.14239 55.98766
# Shear Modulus (GPa) = 33.86214 38.36325 36.11269
#
# Velocity S-wave (km/s) = 3.59459 3.82604 3.71212
# Velocity P-wave (km/s) = 6.17666 6.42825 6.30371
#
# Compressibility (1/GPa) = 0.01823722
#
# Stress axis : x y z
#
# Youngs Moduli (GPa) = 89.12191 128.90918 111.96043
#
# Poissons Ratio (x) = 0.43892 0.11752
# Poissons Ratio (y) = 0.30345 0.04274
# Poissons Ratio (z) = 0.09354 0.04921
#
# Static dielectric constant tensor:
#      x y z
#    x 2.271850 0.000000 0.000000 
#    y 0.000000 2.176870 0.000000 
#    z 0.000000 0.000000 2.407590 
# 
# From -- ./inp_files/1322.got.cif
#   From: 2010.05.17/outbox.cif.g08.bks.cpg/sg62_1_cif.got.tgz:1322.got - 2010.06.03 15:25:27.
