data_PCOD9467502
_publ_section_title
;
Structure prediction by ZEFSAII (Michael W. Deem and Ramdas Pophale) SiO2 
 PCOD9467502
Probable space group: P N M A
;
_chemical_formula_sum "Si O2"
_cell_formula_units_Z 40
_cell_length_a 9.206885
_cell_length_b 8.813742
_cell_length_c 26.748267
_cell_angle_alpha 90.000000
_cell_angle_beta 90.000000
_cell_angle_gamma 90.000000
_cell_volume 2170.544538
_symmetry_space_group_name_H-M "P N M A"
_symmetry_group_IT_number 62
_symmetry_cell_setting 'orthorhombic'
loop_
_space_group_symop_operation_xyz
x,y,z
1/2-x,-y,1/2+z
1/2+x,1/2-y,1/2-z
-x,1/2+y,-z
-x,-y,-z
1/2+x,y,1/2-z
1/2-x,1/2+y,1/2+z
x,1/2-y,z
loop_
_atom_site_type_symbol
_atom_site_label
_atom_site_fract_x
_atom_site_fract_y
_atom_site_fract_z
Si Si1 0.156563 0.432734 0.704168
Si Si2 0.165003 0.431023 0.296637
Si Si3 0.661894 0.068944 0.498934
Si Si4 0.670029 0.067646 0.609653
Si Si5 0.327138 0.068530 0.603300
O O1 0.154327 0.250000 0.708598
O O2 0.244875 0.502318 0.750202
O O3 0.236163 0.472785 0.652156
O O4 0.994701 0.497118 0.704324
O O5 0.157193 0.250000 0.293222
O O6 0.244940 0.481608 0.347407
O O7 0.651833 0.250000 0.496257
O O8 0.725730 0.031017 0.553524
O O9 0.500000 0.000000 0.500000
O O10 0.729202 0.006051 0.447944
O O11 0.682806 0.250000 0.617105
O O12 0.497675 0.029625 0.611290
O O13 0.321585 0.250000 0.596950
#
# Coordination Sequence:
#
# PCOD9467502 Si02
#       5
#     8   8   8   8   8
#     4  11  23  41  62  82 111 152 188 225 281 347
#     4  12  25  39  58  86 114 143 186 240 284 325
#     4   9  17  30  53  82 113 147 184 226 272 324
#     4   9  18  35  57  83 114 150 188 225 274 337
#     4   9  19  35  58  85 111 144 188 230 272 327
#
# _framework density 18.428553999999998
#
# number of rings (size 3 to 8) (size 9 to 14) (size 15 to 20)
#    0.000    2.000    0.000    5.400    0.000    7.200 
#    0.000    1.000    0.000    0.000    0.000    0.000 
#    0.000    0.000    0.000    0.000    0.000    0.000 
#
# Total GULP energy -223307.443565 kJ/mol
# GULP energy per Si atom -5582.686089 kJ/mol
# Density = 1.838661 g / cm^3
# Si number density = 18.428554 Si / 1000 Ang^3
#
#
#
# Elastic Constant Matrix: (Units=GPa)
#
#
# Indices 1 2 3 4 5 6 
#
# 1 90.6822 41.2695 80.1934 0.0000 0.0000 0.0000
# 2 41.2695 69.2943 79.1647 0.0000 0.0000 0.0000
# 3 80.1934 79.1647 209.3561 0.0000 0.0000 0.0000
# 4 0.0000 0.0000 0.0000 38.7501 0.0000 0.0000
# 5 0.0000 0.0000 0.0000 0.0000 26.8230 0.0000
# 6 0.0000 0.0000 0.0000 0.0000 0.0000 23.4546
#
#
#
# Elastic Compliance Matrix: (Units=1/GPa)
#
#
# Indices 1 2 3 4 5 6 
#
# 1 0.017568 -0.004886 -0.004882 0.000000 0.000000 0.000000
# 2 -0.004886 0.026766 -0.008250 0.000000 0.000000 0.000000
# 3 -0.004882 -0.008250 0.009766 0.000000 0.000000 0.000000
# 4 0.000000 0.000000 0.000000 0.025806 0.000000 0.000000
# 5 0.000000 0.000000 0.000000 0.000000 0.037281 0.000000
# 6 0.000000 0.000000 0.000000 0.000000 0.000000 0.042636
#
#
# Mechanical properties :
#
#
# Convention : Reuss Voigt Hill
#
# Bulk Modulus (GPa) = 55.35440 85.62088 70.48764
# Shear Modulus (GPa) = 24.76723 29.05255 26.90989
#
# Velocity S-wave (km/s) = 3.66998 3.97482 3.82544
# Velocity P-wave (km/s) = 6.93259 8.22359 7.60553
#
# Compressibility (1/GPa) = 0.01806541
#
# Stress axis : x y z
#
# Youngs Moduli (GPa) = 56.92042 37.36148 102.39553
#
# Poissons Ratio (x) = 0.18254 0.49990
# Poissons Ratio (y) = 0.27809 0.84471
# Poissons Ratio (z) = 0.27789 0.30821
#
# Static dielectric constant tensor:
#      x y z
#    x 1.626540 0.000000 0.000000 
#    y 0.000000 1.615190 0.000000 
#    z 0.000000 0.000000 1.655580 
# 
# From -- ./inp_files/28571.got.cif
#   From: 2010.05.17/outbox.cif.g08.bks.cpg/sg62_15_cif.got.tgz:28571.got - 2010.06.03 15:25:27.
