data_PCOD9467445
_publ_section_title
;
Structure prediction by ZEFSAII (Michael W. Deem and Ramdas Pophale) SiO2 
 PCOD9467445
Probable space group: P N M A
;
_chemical_formula_sum "Si O2"
_cell_formula_units_Z 56
_cell_length_a 8.373764
_cell_length_b 20.634190
_cell_length_c 13.861023
_cell_angle_alpha 90.000000
_cell_angle_beta 90.000000
_cell_angle_gamma 90.000000
_cell_volume 2394.988466
_symmetry_space_group_name_H-M "P N M A"
_symmetry_group_IT_number 62
_symmetry_cell_setting 'orthorhombic'
loop_
_space_group_symop_operation_xyz
x,y,z
1/2-x,-y,1/2+z
1/2+x,1/2-y,1/2-z
-x,1/2+y,-z
-x,-y,-z
1/2+x,y,1/2-z
1/2-x,1/2+y,1/2+z
x,1/2-y,z
loop_
_atom_site_type_symbol
_atom_site_label
_atom_site_fract_x
_atom_site_fract_y
_atom_site_fract_z
Si Si1 0.053685 0.750000 0.585366
Si Si2 0.601419 0.325206 0.602202
Si Si3 0.764995 0.938686 0.986070
Si Si4 0.782030 0.062572 0.108832
Si Si5 0.890972 0.593261 0.790283
Si Si6 0.063547 0.674127 0.284482
Si Si7 0.442556 0.875727 0.030087
Si Si8 0.153968 0.250000 0.216385
O O1 0.234589 0.750000 0.619933
O O2 0.010067 0.688637 0.520994
O O3 0.954921 0.750000 0.684929
O O4 0.580242 0.250000 0.573093
O O5 0.635451 0.374649 0.516842
O O6 0.458896 0.345305 0.673828
O O7 0.761194 0.330097 0.669040
O O8 0.821873 0.995686 0.056155
O O9 0.791352 0.944522 0.872466
O O10 0.578456 0.928482 0.007693
O O11 0.639178 0.060569 0.186898
O O12 0.721555 0.107952 0.022067
O O13 0.928725 0.089120 0.170930
O O14 0.844429 0.668904 0.782345
O O15 0.017230 0.750000 0.287264
O O16 0.947014 0.635800 0.356186
#
# Coordination Sequence:
#
# PCOD9467445 Si02
#       8
#     4   8   8   8   8   8   8   4
#     4  12  22  40  70 101 133 174 226 285 361 401
#     4   9  20  36  61  91 123 166 223 276 332 390
#     4  11  25  44  68  95 134 183 226 280 342 413
#     4  12  27  45  65 100 139 179 231 275 346 423
#     4  12  26  45  70 101 138 181 229 292 344 413
#     4   9  18  34  57  85 122 160 208 268 328 389
#     4  11  22  40  67  97 132 176 224 280 343 415
#     4  12  24  42  74 101 137 174 226 295 351 397
#
# _framework density 23.382156999999999
#
# number of rings (size 3 to 8) (size 9 to 14) (size 15 to 20)
#    0.000    1.143    3.571    2.571    2.000    4.571 
#    0.000    0.000    0.000    0.000    0.000    0.000 
#    0.000    0.000    0.000    0.000    0.000    0.000 
#
# Total GULP energy -312186.996268 kJ/mol
# GULP energy per Si atom -5574.767791 kJ/mol
# Density = 2.332894 g / cm^3
# Si number density = 23.382157 Si / 1000 Ang^3
#
#
#
# Elastic Constant Matrix: (Units=GPa)
#
#
# Indices 1 2 3 4 5 6 
#
# 1 44.4098 9.2679 6.1307 0.0000 0.0000 0.0000
# 2 9.2679 76.2269 23.0164 0.0000 0.0000 0.0000
# 3 6.1307 23.0164 89.5420 0.0000 0.0000 0.0000
# 4 0.0000 0.0000 0.0000 17.7392 0.0000 0.0000
# 5 0.0000 0.0000 0.0000 0.0000 54.2813 0.0000
# 6 0.0000 0.0000 0.0000 0.0000 0.0000 -95.5858
#
#
#
# Elastic Compliance Matrix: (Units=1/GPa)
#
#
# Indices 1 2 3 4 5 6 
#
# 1 0.023176 -0.002535 -0.000935 0.000000 0.000000 0.000000
# 2 -0.002535 0.014500 -0.003554 0.000000 0.000000 0.000000
# 3 -0.000935 -0.003554 0.012145 0.000000 0.000000 0.000000
# 4 0.000000 0.000000 0.000000 0.056372 0.000000 0.000000
# 5 0.000000 0.000000 0.000000 0.000000 0.018423 0.000000
# 6 0.000000 0.000000 0.000000 0.000000 0.000000 -0.010462
#
#
# Mechanical properties :
#
#
# Convention : Reuss Voigt Hill
#
# Bulk Modulus (GPa) = 27.95407 31.88988 29.92197
# Shear Modulus (GPa) = 35.68201 6.73786 21.20993
#
# Velocity S-wave (km/s) = 3.91069 1.69938 3.01508
# Velocity P-wave (km/s) = 5.68969 4.18553 4.99456
#
# Compressibility (1/GPa) = 0.03577297
#
# Stress axis : x y z
#
# Youngs Moduli (GPa) = 43.14856 68.96558 82.33574
#
# Poissons Ratio (x) = 0.17486 0.07699
# Poissons Ratio (y) = 0.10940 0.29259
# Poissons Ratio (z) = 0.04035 0.24507
#
# Static dielectric constant tensor:
#      x y z
#    x 1.958840 0.000000 0.000000 
#    y 0.000000 1.886230 0.000000 
#    z 0.000000 0.000000 1.848880 
# 
# From -- ./inp_files/17225.got.cif
#   From: 2010.05.17/outbox.cif.g08.bks.cpg/sg62_9_cif.got.tgz:17225.got - 2010.06.03 15:25:27.
