data_PCOD9467238
_publ_section_title
;
Structure prediction by ZEFSAII (Michael W. Deem and Ramdas Pophale) SiO2 
 PCOD9467238
Probable space group: P N M A
;
_chemical_formula_sum "Si O2"
_cell_formula_units_Z 32
_cell_length_a 16.901890
_cell_length_b 14.980132
_cell_length_c 5.158818
_cell_angle_alpha 90.000000
_cell_angle_beta 90.000000
_cell_angle_gamma 90.000000
_cell_volume 1306.174250
_symmetry_space_group_name_H-M "P N M A"
_symmetry_group_IT_number 62
_symmetry_cell_setting 'orthorhombic'
loop_
_space_group_symop_operation_xyz
x,y,z
1/2-x,-y,1/2+z
1/2+x,1/2-y,1/2-z
-x,1/2+y,-z
-x,-y,-z
1/2+x,y,1/2-z
1/2-x,1/2+y,1/2+z
x,1/2-y,z
loop_
_atom_site_type_symbol
_atom_site_label
_atom_site_fract_x
_atom_site_fract_y
_atom_site_fract_z
Si Si1 0.141355 0.603906 0.981325
Si Si2 0.227251 0.250000 0.546003
Si Si3 0.964122 0.147246 0.516527
Si Si4 0.568204 0.062412 0.622513
Si Si5 0.122823 0.250000 0.053092
O O1 0.219840 0.662388 0.993220
O O2 0.086115 0.634749 0.742268
O O3 0.145830 0.497443 0.926583
O O4 0.096323 0.625718 0.248726
O O5 0.191511 0.250000 0.833785
O O6 0.158918 0.250000 0.335594
O O7 0.988236 0.250000 0.533174
O O8 0.040014 0.085288 0.585012
O O9 0.575216 0.158775 0.492203
O O10 0.500000 0.000000 0.500000
#
# Coordination Sequence:
#
# PCOD9467238 Si02
#       5
#     8   4   8   8   4
#     4  11  23  41  69  99 132 185 222 273 337 416
#     4  12  26  44  68  96 142 190 230 266 336 424
#     4  11  19  39  69 100 131 170 225 285 345 391
#     4  10  25  45  72 104 138 172 233 294 354 399
#     4  12  28  46  68 102 138 182 224 292 338 414
#
# _framework density 24.499027000000002
#
# number of rings (size 3 to 8) (size 9 to 14) (size 15 to 20)
#    0.000    1.000    3.750    2.250    0.000   10.000 
#    0.000    0.000    0.000    0.000    0.000    0.000 
#    0.000    0.000    0.000    0.000    0.000    0.000 
#
# Total GULP energy -179123.277948 kJ/mol
# GULP energy per Si atom -5597.602436 kJ/mol
# Density = 2.444327 g / cm^3
# Si number density = 24.499027 Si / 1000 Ang^3
#
#
#
# Elastic Constant Matrix: (Units=GPa)
#
#
# Indices 1 2 3 4 5 6 
#
# 1 65.0051 36.3269 22.4977 0.0000 0.0000 0.0000
# 2 36.3269 192.9305 11.0604 0.0000 0.0000 0.0000
# 3 22.4977 11.0604 120.8407 0.0000 0.0000 0.0000
# 4 0.0000 0.0000 0.0000 34.0407 0.0000 0.0000
# 5 0.0000 0.0000 0.0000 0.0000 46.6525 0.0000
# 6 0.0000 0.0000 0.0000 0.0000 0.0000 46.6278
#
#
#
# Elastic Compliance Matrix: (Units=1/GPa)
#
#
# Indices 1 2 3 4 5 6 
#
# 1 0.018282 -0.003264 -0.003105 0.000000 0.000000 0.000000
# 2 -0.003264 0.005793 0.000077 0.000000 0.000000 0.000000
# 3 -0.003105 0.000077 0.008846 0.000000 0.000000 0.000000
# 4 0.000000 0.000000 0.000000 0.029377 0.000000 0.000000
# 5 0.000000 0.000000 0.000000 0.000000 0.021435 0.000000
# 6 0.000000 0.000000 0.000000 0.000000 0.000000 0.021446
#
#
# Mechanical properties :
#
#
# Convention : Reuss Voigt Hill
#
# Bulk Modulus (GPa) = 49.16820 57.61625 53.39223
# Shear Modulus (GPa) = 40.14669 46.05693 43.10181
#
# Velocity S-wave (km/s) = 4.05248 4.34054 4.19898
# Velocity P-wave (km/s) = 6.48150 6.97777 6.73421
#
# Compressibility (1/GPa) = 0.02033835
#
# Stress axis : x y z
#
# Youngs Moduli (GPa) = 54.69790 172.60961 113.04115
#
# Poissons Ratio (x) = 0.56346 0.35099
# Poissons Ratio (y) = 0.17855 -0.00876
# Poissons Ratio (z) = 0.16983 -0.01337
#
# Static dielectric constant tensor:
#      x y z
#    x 1.975160 0.000000 0.000000 
#    y 0.000000 2.028220 0.000000 
#    z 0.000000 0.000000 1.961800 
# 
# From -- ./inp_files/1468.got.cif
#   From: 2010.05.17/outbox.cif.g08.bks.cpg/sg62_1_cif.got.tgz:1468.got - 2010.06.03 15:25:27.
