data_PCOD9467679
_publ_section_title
;
Structure prediction by ZEFSAII (Michael W. Deem and Ramdas Pophale) SiO2 
 PCOD9467679
Probable space group: P N M A
;
_chemical_formula_sum "Si O2"
_cell_formula_units_Z 48
_cell_length_a 9.117310
_cell_length_b 13.442581
_cell_length_c 18.262785
_cell_angle_alpha 90.000000
_cell_angle_beta 90.000000
_cell_angle_gamma 90.000000
_cell_volume 2238.290184
_symmetry_space_group_name_H-M "P N M A"
_symmetry_group_IT_number 62
_symmetry_cell_setting 'orthorhombic'
loop_
_space_group_symop_operation_xyz
x,y,z
1/2-x,-y,1/2+z
1/2+x,1/2-y,1/2-z
-x,1/2+y,-z
-x,-y,-z
1/2+x,y,1/2-z
1/2-x,1/2+y,1/2+z
x,1/2-y,z
loop_
_atom_site_type_symbol
_atom_site_label
_atom_site_fract_x
_atom_site_fract_y
_atom_site_fract_z
Si Si1 0.066137 0.750000 0.037838
Si Si2 0.049260 0.953938 0.846859
Si Si3 0.712215 0.750000 0.018770
Si Si4 0.939672 0.250000 0.361394
Si Si5 0.313388 0.465152 0.929823
Si Si6 0.294301 0.250000 0.377414
Si Si7 0.056673 0.967978 0.681845
Si Si8 0.706293 0.954471 0.416437
O O1 0.121006 0.649317 0.077270
O O2 0.890588 0.750000 0.023682
O O3 0.155477 0.750000 0.961677
O O4 0.130632 0.848362 0.844910
O O5 0.009572 0.986842 0.764920
O O6 0.163898 0.027594 0.884503
O O7 0.910155 0.957441 0.900404
O O8 0.652955 0.850619 0.055313
O O9 0.646960 0.750000 0.937486
O O10 0.118074 0.250000 0.369363
O O11 0.896925 0.352457 0.322202
O O12 0.431296 0.517889 0.878712
O O13 0.288754 0.520308 0.007547
O O14 0.184283 0.038958 0.651917
#
# Coordination Sequence:
#
# PCOD9467679 Si02
#       8
#     4   8   4   4   8   4   8   8
#     4  12  24  45  70 110 130 183 254 292 346 423
#     4  12  25  47  69 104 144 188 232 296 367 427
#     4  12  26  43  74 106 136 181 249 300 342 419
#     4  12  25  43  71 105 145 179 232 299 357 425
#     4  12  24  47  70 103 141 187 242 296 346 434
#     4  12  25  41  75 101 143 181 231 295 353 433
#     4  12  27  45  70 108 148 184 236 296 371 427
#     4  12  25  44  76 101 141 192 240 297 353 426
#
# _framework density 21.444939999999999
#
# number of rings (size 3 to 8) (size 9 to 14) (size 15 to 20)
#    0.000    0.000    6.667    3.500    2.333    0.000 
#    0.000    5.000    0.000    0.000    0.000    0.000 
#    0.000    0.000    0.000    0.000    0.000    0.000 
#
# Total GULP energy -268450.093049 kJ/mol
# GULP energy per Si atom -5592.710272 kJ/mol
# Density = 2.139613 g / cm^3
# Si number density = 21.444940 Si / 1000 Ang^3
#
#
#
# Elastic Constant Matrix: (Units=GPa)
#
#
# Indices 1 2 3 4 5 6 
#
# 1 52.2922 -19.3519 -3.9250 0.0000 0.0000 0.0000
# 2 -19.3519 63.9925 -5.5642 0.0000 0.0000 0.0000
# 3 -3.9250 -5.5642 79.8011 0.0000 0.0000 0.0000
# 4 0.0000 0.0000 0.0000 57.5120 0.0000 0.0000
# 5 0.0000 0.0000 0.0000 0.0000 26.6879 0.0000
# 6 0.0000 0.0000 0.0000 0.0000 0.0000 31.6348
#
#
#
# Elastic Compliance Matrix: (Units=1/GPa)
#
#
# Indices 1 2 3 4 5 6 
#
# 1 0.021719 0.006701 0.001535 0.000000 0.000000 0.000000
# 2 0.006701 0.017790 0.001570 0.000000 0.000000 0.000000
# 3 0.001535 0.001570 0.012716 0.000000 0.000000 0.000000
# 4 0.000000 0.000000 0.000000 0.017388 0.000000 0.000000
# 5 0.000000 0.000000 0.000000 0.000000 0.037470 0.000000
# 6 0.000000 0.000000 0.000000 0.000000 0.000000 0.031611
#
#
# Mechanical properties :
#
#
# Convention : Reuss Voigt Hill
#
# Bulk Modulus (GPa) = 13.92011 15.37816 14.64914
# Shear Modulus (GPa) = 34.95880 38.16207 36.56044
#
# Velocity S-wave (km/s) = 4.04191 4.22303 4.13346
# Velocity P-wave (km/s) = 5.31864 5.56464 5.44303
#
# Compressibility (1/GPa) = 0.07183849
#
# Stress axis : x y z
#
# Youngs Moduli (GPa) = 46.04356 56.21162 78.64010
#
# Poissons Ratio (x) = -0.37670 -0.12075
# Poissons Ratio (y) = -0.30856 -0.12347
# Poissons Ratio (z) = -0.07070 -0.08825
#
# Static dielectric constant tensor:
#      x y z
#    x 1.842870 0.000000 0.000000 
#    y 0.000000 1.785130 0.000000 
#    z 0.000000 0.000000 1.756910 
# 
# From -- ./inp_files/22282.got.cif
#   From: 2010.05.17/outbox.cif.g08.bks.cpg/sg62_12_cif.got.tgz:22282.got - 2010.06.03 15:25:27.
