data_PCOD9467265
_publ_section_title
;
Structure prediction by ZEFSAII (Michael W. Deem and Ramdas Pophale) SiO2 
 PCOD9467265
Probable space group: P N M A
;
_chemical_formula_sum "Si O2"
_cell_formula_units_Z 48
_cell_length_a 10.296810
_cell_length_b 19.019725
_cell_length_c 14.814897
_cell_angle_alpha 90.000000
_cell_angle_beta 90.000000
_cell_angle_gamma 90.000000
_cell_volume 2901.386385
_symmetry_space_group_name_H-M "P N M A"
_symmetry_group_IT_number 62
_symmetry_cell_setting 'orthorhombic'
loop_
_space_group_symop_operation_xyz
x,y,z
1/2-x,-y,1/2+z
1/2+x,1/2-y,1/2-z
-x,1/2+y,-z
-x,-y,-z
1/2+x,y,1/2-z
1/2-x,1/2+y,1/2+z
x,1/2-y,z
loop_
_atom_site_type_symbol
_atom_site_label
_atom_site_fract_x
_atom_site_fract_y
_atom_site_fract_z
Si Si1 0.859206 0.506555 0.223895
Si Si2 0.887256 0.396048 0.754572
Si Si3 0.501683 0.111226 0.931111
Si Si4 0.211124 0.671302 0.071259
Si Si5 0.643082 0.972294 0.518587
Si Si6 0.122859 0.957110 0.589541
O O1 0.739676 0.555321 0.253412
O O2 0.829189 0.479073 0.124487
O O3 0.867995 0.447913 0.302731
O O4 0.988315 0.555460 0.220246
O O5 0.912465 0.367837 0.653485
O O6 0.855789 0.339206 0.830945
O O7 0.634418 0.154758 0.925442
O O8 0.536154 0.028565 0.914798
O O9 0.436919 0.105682 0.029861
O O10 0.189216 0.750000 0.038413
O O11 0.155478 0.608224 0.011355
O O12 0.500000 0.000000 0.500000
O O13 0.744664 0.018163 0.459616
#
# Coordination Sequence:
#
# PCOD9467265 Si02
#       6
#     8   8   8   8   8   8
#     4  11  19  31  55  85 111 135 186 230 278 321
#     4  11  18  33  53  81 113 142 175 225 276 330
#     4   9  18  32  51  74 108 141 176 217 267 334
#     4  11  23  36  51  79 115 150 185 227 291 347
#     4  11  19  33  55  82 112 138 184 238 277 325
#     4   9  17  30  52  80 104 133 172 229 273 315
#
# _framework density 16.543814999999999
#
# number of rings (size 3 to 8) (size 9 to 14) (size 15 to 20)
#    0.000    1.667    8.333    0.000    2.333    0.667 
#    0.000    0.000    0.000    2.000    0.000    0.000 
#    0.000    0.000    0.000    0.000    0.000    0.000 
#
# Total GULP energy -267324.483796 kJ/mol
# GULP energy per Si atom -5569.260079 kJ/mol
# Density = 1.650616 g / cm^3
# Si number density = 16.543815 Si / 1000 Ang^3
#
#
#
# Elastic Constant Matrix: (Units=GPa)
#
#
# Indices 1 2 3 4 5 6 
#
# 1 81.7843 23.4725 15.6371 0.0000 0.0000 0.0000
# 2 23.4725 52.9881 13.9542 0.0000 0.0000 0.0000
# 3 15.6371 13.9542 95.2369 0.0000 0.0000 0.0000
# 4 0.0000 0.0000 0.0000 12.2797 0.0000 0.0000
# 5 0.0000 0.0000 0.0000 0.0000 26.9525 0.0000
# 6 0.0000 0.0000 0.0000 0.0000 0.0000 6.8887
#
#
#
# Elastic Compliance Matrix: (Units=1/GPa)
#
#
# Indices 1 2 3 4 5 6 
#
# 1 0.014203 -0.005905 -0.001467 0.000000 0.000000 0.000000
# 2 -0.005905 0.022085 -0.002266 0.000000 0.000000 0.000000
# 3 -0.001467 -0.002266 0.011073 0.000000 0.000000 0.000000
# 4 0.000000 0.000000 0.000000 0.081436 0.000000 0.000000
# 5 0.000000 0.000000 0.000000 0.000000 0.037102 0.000000
# 6 0.000000 0.000000 0.000000 0.000000 0.000000 0.145166
#
#
# Mechanical properties :
#
#
# Convention : Reuss Voigt Hill
#
# Bulk Modulus (GPa) = 35.60742 37.34855 36.47799
# Shear Modulus (GPa) = 14.71879 21.02052 17.86966
#
# Velocity S-wave (km/s) = 2.98600 3.56841 3.29012
# Velocity P-wave (km/s) = 5.78429 6.29306 6.04403
#
# Compressibility (1/GPa) = 0.02808403
#
# Stress axis : x y z
#
# Youngs Moduli (GPa) = 70.40994 45.27995 90.30961
#
# Poissons Ratio (x) = 0.26739 0.13246
# Poissons Ratio (y) = 0.41578 0.20467
# Poissons Ratio (z) = 0.10327 0.10262
#
# Static dielectric constant tensor:
#      x y z
#    x 1.583890 0.000000 0.000000 
#    y 0.000000 1.521890 0.000000 
#    z 0.000000 0.000000 1.643680 
# 
# From -- ./inp_files/16938.got.cif
#   From: 2010.05.17/outbox.cif.g08.bks.cpg/sg62_9_cif.got.tgz:16938.got - 2010.06.03 15:25:27.
