data_PCOD9467665
_publ_section_title
;
Structure prediction by ZEFSAII (Michael W. Deem and Ramdas Pophale) SiO2 
 PCOD9467665
Probable space group: P N M A
;
_chemical_formula_sum "Si O2"
_cell_formula_units_Z 40
_cell_length_a 13.627858
_cell_length_b 22.785642
_cell_length_c 4.928341
_cell_angle_alpha 90.000000
_cell_angle_beta 90.000000
_cell_angle_gamma 90.000000
_cell_volume 1530.345952
_symmetry_space_group_name_H-M "P N M A"
_symmetry_group_IT_number 62
_symmetry_cell_setting 'orthorhombic'
loop_
_space_group_symop_operation_xyz
x,y,z
1/2-x,-y,1/2+z
1/2+x,1/2-y,1/2-z
-x,1/2+y,-z
-x,-y,-z
1/2+x,y,1/2-z
1/2-x,1/2+y,1/2+z
x,1/2-y,z
loop_
_atom_site_type_symbol
_atom_site_label
_atom_site_fract_x
_atom_site_fract_y
_atom_site_fract_z
Si Si1 0.185634 0.979015 0.131803
Si Si2 0.034126 0.428512 0.332232
Si Si3 0.626206 0.126522 0.629561
Si Si4 0.073017 0.750000 0.540420
Si Si5 0.436310 0.750000 0.442059
Si Si6 0.161401 0.620130 0.479920
O O1 0.169809 0.908860 0.173407
O O2 0.266451 0.001137 0.351381
O O3 0.085282 0.013935 0.205316
O O4 0.095417 0.407065 0.596663
O O5 0.920018 0.424275 0.403572
O O6 0.041489 0.383439 0.086576
O O7 0.626630 0.195385 0.663320
O O8 0.724148 0.113113 0.457281
O O9 0.980197 0.750000 0.751299
O O10 0.129175 0.686710 0.548608
O O11 0.033864 0.750000 0.235317
#
# Coordination Sequence:
#
# PCOD9467665 Si02
#       6
#     8   8   8   4   4   8
#     4  12  25  47  75 106 149 192 241 301 367 430
#     4  12  25  47  72 111 138 195 236 307 347 443
#     4  12  25  45  75  99 150 182 247 292 367 422
#     4  12  27  44  77 104 144 190 249 290 371 440
#     4  12  23  50  67 106 146 192 235 310 355 434
#     4  12  26  48  77 106 146 196 243 297 373 428
#
# _framework density 26.137879999999999
#
# number of rings (size 3 to 8) (size 9 to 14) (size 15 to 20)
#    0.000    0.000    8.000    1.200    0.000    6.400 
#    0.000    6.000    0.000    0.000    0.000    0.000 
#    0.000    0.000    0.000    0.000    0.000    0.000 
#
# Total GULP energy -223182.148616 kJ/mol
# GULP energy per Si atom -5579.553715 kJ/mol
# Density = 2.607839 g / cm^3
# Si number density = 26.137880 Si / 1000 Ang^3
#
#
#
# Elastic Constant Matrix: (Units=GPa)
#
#
# Indices 1 2 3 4 5 6 
#
# 1 147.3340 22.1671 31.7685 0.0000 0.0000 0.0000
# 2 22.1671 121.4743 14.6848 0.0000 0.0000 0.0000
# 3 31.7685 14.6848 122.7783 0.0000 0.0000 0.0000
# 4 0.0000 0.0000 0.0000 19.8949 0.0000 0.0000
# 5 0.0000 0.0000 0.0000 0.0000 49.8794 0.0000
# 6 0.0000 0.0000 0.0000 0.0000 0.0000 39.5152
#
#
#
# Elastic Compliance Matrix: (Units=1/GPa)
#
#
# Indices 1 2 3 4 5 6 
#
# 1 0.007337 -0.001126 -0.001764 0.000000 0.000000 0.000000
# 2 -0.001126 0.008526 -0.000728 0.000000 0.000000 0.000000
# 3 -0.001764 -0.000728 0.008688 0.000000 0.000000 0.000000
# 4 0.000000 0.000000 0.000000 0.050264 0.000000 0.000000
# 5 0.000000 0.000000 0.000000 0.000000 0.020048 0.000000
# 6 0.000000 0.000000 0.000000 0.000000 0.000000 0.025307
#
#
# Mechanical properties :
#
#
# Convention : Reuss Voigt Hill
#
# Bulk Modulus (GPa) = 57.75297 58.75859 58.25578
# Shear Modulus (GPa) = 37.54381 43.38895 40.46638
#
# Velocity S-wave (km/s) = 3.79407 4.07873 3.93897
# Velocity P-wave (km/s) = 6.42936 6.68659 6.55924
#
# Compressibility (1/GPa) = 0.01731513
#
# Stress axis : x y z
#
# Youngs Moduli (GPa) = 136.29599 117.29281 115.09787
#
# Poissons Ratio (x) = 0.13203 0.20301
# Poissons Ratio (y) = 0.15342 0.08384
# Poissons Ratio (z) = 0.24040 0.08544
#
# Static dielectric constant tensor:
#      x y z
#    x 2.053360 0.000000 0.000000 
#    y 0.000000 2.464150 0.000000 
#    z 0.000000 0.000000 2.056930 
# 
# From -- ./inp_files/1060.got.cif
#   From: 2010.05.17/outbox.cif.g08.bks.cpg/sg62_1_cif.got.tgz:1060.got - 2010.06.03 15:25:27.
