data_PCOD9467148
_publ_section_title
;
Structure prediction by ZEFSAII (Michael W. Deem and Ramdas Pophale) SiO2 
 PCOD9467148
Probable space group: P N M A
;
_chemical_formula_sum "Si O2"
_cell_formula_units_Z 48
_cell_length_a 7.857258
_cell_length_b 25.958770
_cell_length_c 10.738945
_cell_angle_alpha 90.000000
_cell_angle_beta 90.000000
_cell_angle_gamma 90.000000
_cell_volume 2190.366267
_symmetry_space_group_name_H-M "P N M A"
_symmetry_group_IT_number 62
_symmetry_cell_setting 'orthorhombic'
loop_
_space_group_symop_operation_xyz
x,y,z
1/2-x,-y,1/2+z
1/2+x,1/2-y,1/2-z
-x,1/2+y,-z
-x,-y,-z
1/2+x,y,1/2-z
1/2-x,1/2+y,1/2+z
x,1/2-y,z
loop_
_atom_site_type_symbol
_atom_site_label
_atom_site_fract_x
_atom_site_fract_y
_atom_site_fract_z
Si Si1 0.923927 0.650057 0.117769
Si Si2 0.663146 0.446284 0.061171
Si Si3 0.370378 0.309348 0.065059
Si Si4 0.320788 0.851362 0.098632
Si Si5 0.852913 0.957922 0.004184
Si Si6 0.839958 0.408163 0.289265
O O1 0.785301 0.677858 0.029726
O O2 0.882707 0.660320 0.261955
O O3 0.894310 0.589001 0.094903
O O4 0.121030 0.662629 0.088204
O O5 0.693947 0.506632 0.045927
O O6 0.812466 0.422087 0.147190
O O7 0.500142 0.433043 0.142595
O O8 0.662278 0.412350 0.935882
O O9 0.368625 0.250000 0.099126
O O10 0.547548 0.324004 0.995738
O O11 0.348999 0.347657 0.181770
O O12 0.810953 0.932393 0.872283
O O13 0.000000 0.000000 0.000000
#
# Coordination Sequence:
#
# PCOD9467148 Si02
#       6
#     8   8   8   8   8   8
#     4  11  23  41  65  98 135 165 218 276 320 397
#     4  11  23  40  65  92 134 178 216 264 327 393
#     4  10  24  46  69  93 124 171 224 280 336 383
#     4  11  23  42  66  96 133 168 216 268 328 395
#     4  11  22  38  63  94 131 178 218 259 332 389
#     4  10  24  42  62  95 131 170 226 275 316 400
#
# _framework density 21.914141999999998
#
# number of rings (size 3 to 8) (size 9 to 14) (size 15 to 20)
#    0.000    1.333    3.333    1.500    4.667    2.667 
#    0.000    3.333    0.000    0.000    0.000    0.000 
#    0.000    0.000    0.000    0.000    0.000    0.000 
#
# Total GULP energy -268307.868976 kJ/mol
# GULP energy per Si atom -5589.747270 kJ/mol
# Density = 2.186426 g / cm^3
# Si number density = 21.914142 Si / 1000 Ang^3
#
#
#
# Elastic Constant Matrix: (Units=GPa)
#
#
# Indices 1 2 3 4 5 6 
#
# 1 136.4654 20.8625 -3.2430 0.0000 0.0000 0.0000
# 2 20.8625 141.6861 15.0070 0.0000 0.0000 0.0000
# 3 -3.2430 15.0070 58.2569 0.0000 0.0000 0.0000
# 4 0.0000 0.0000 0.0000 7.4720 0.0000 0.0000
# 5 0.0000 0.0000 0.0000 0.0000 23.9457 0.0000
# 6 0.0000 0.0000 0.0000 0.0000 0.0000 17.3420
#
#
#
# Elastic Compliance Matrix: (Units=1/GPa)
#
#
# Indices 1 2 3 4 5 6 
#
# 1 0.007526 -0.001185 0.000724 0.000000 0.000000 0.000000
# 2 -0.001185 0.007442 -0.001983 0.000000 0.000000 0.000000
# 3 0.000724 -0.001983 0.017717 0.000000 0.000000 0.000000
# 4 0.000000 0.000000 0.000000 0.133834 0.000000 0.000000
# 5 0.000000 0.000000 0.000000 0.000000 0.041761 0.000000
# 6 0.000000 0.000000 0.000000 0.000000 0.000000 0.057663
#
#
# Mechanical properties :
#
#
# Convention : Reuss Voigt Hill
#
# Bulk Modulus (GPa) = 35.97451 44.62905 40.30178
# Shear Modulus (GPa) = 17.85097 30.00408 23.92752
#
# Velocity S-wave (km/s) = 2.85719 3.70424 3.30794
# Velocity P-wave (km/s) = 5.22843 6.22132 5.74636
#
# Compressibility (1/GPa) = 0.02779746
#
# Stress axis : x y z
#
# Youngs Moduli (GPa) = 132.86884 134.36578 56.44455
#
# Poissons Ratio (x) = 0.15921 -0.04088
# Poissons Ratio (y) = 0.15744 0.11194
# Poissons Ratio (z) = -0.09622 0.26646
#
# Static dielectric constant tensor:
#      x y z
#    x 1.982570 0.000000 0.000000 
#    y 0.000000 1.766960 0.000000 
#    z 0.000000 0.000000 1.752700 
# 
# From -- ./inp_files/11314.got.cif
#   From: 2010.05.17/outbox.cif.g08.bks.cpg/sg62_6_cif.got.tgz:11314.got - 2010.06.03 15:25:27.
