data_PCOD9467366
_publ_section_title
;
Structure prediction by ZEFSAII (Michael W. Deem and Ramdas Pophale) SiO2 
 PCOD9467366
Probable space group: P N M A
;
_chemical_formula_sum "Si O2"
_cell_formula_units_Z 48
_cell_length_a 9.760266
_cell_length_b 8.459113
_cell_length_c 27.795033
_cell_angle_alpha 90.000000
_cell_angle_beta 90.000000
_cell_angle_gamma 90.000000
_cell_volume 2294.846674
_symmetry_space_group_name_H-M "P N M A"
_symmetry_group_IT_number 62
_symmetry_cell_setting 'orthorhombic'
loop_
_space_group_symop_operation_xyz
x,y,z
1/2-x,-y,1/2+z
1/2+x,1/2-y,1/2-z
-x,1/2+y,-z
-x,-y,-z
1/2+x,y,1/2-z
1/2-x,1/2+y,1/2+z
x,1/2-y,z
loop_
_atom_site_type_symbol
_atom_site_label
_atom_site_fract_x
_atom_site_fract_y
_atom_site_fract_z
Si Si1 0.570812 0.933234 0.953199
Si Si2 0.066673 0.559774 0.950307
Si Si3 0.159480 0.938143 0.705624
Si Si4 0.689353 0.057101 0.391657
Si Si5 0.671308 0.936207 0.100908
Si Si6 0.651413 0.937052 0.210070
O O1 0.592641 0.750000 0.961857
O O2 0.713583 0.002326 0.935012
O O3 0.463282 0.963193 0.910683
O O4 0.500000 0.000000 0.000000
O O5 0.079028 0.750000 0.952297
O O6 0.211610 0.484305 0.936656
O O7 0.963795 0.514789 0.906546
O O8 0.000000 0.500000 0.000000
O O9 0.139922 0.750000 0.701122
O O10 0.243479 0.995521 0.658341
O O11 0.256027 0.974866 0.750995
O O12 0.008863 0.013878 0.710669
O O13 0.693946 0.250000 0.391119
O O14 0.639961 0.750000 0.095834
O O15 0.708293 0.966987 0.156258
O O16 0.659796 0.750000 0.219435
#
# Coordination Sequence:
#
# PCOD9467366 Si02
#       6
#     8   8   8   8   8   8
#     4  11  21  38  64  93 125 162 207 259 315 375
#     4  11  23  41  64  93 129 169 214 263 318 377
#     4  11  23  43  69  96 124 167 218 263 317 386
#     4   9  21  40  62  90 124 159 206 262 311 370
#     4  11  24  42  62  90 129 170 212 258 313 378
#     4  11  25  44  65  96 133 168 208 266 327 380
#
# _framework density 20.916429999999998
#
# number of rings (size 3 to 8) (size 9 to 14) (size 15 to 20)
#    0.000    1.333    1.667    3.500    2.333    3.333 
#    0.000    5.000    0.000    0.000    0.000    0.000 
#    0.000    0.000    0.000    0.000    0.000    0.000 
#
# Total GULP energy -268240.868271 kJ/mol
# GULP energy per Si atom -5588.351422 kJ/mol
# Density = 2.086882 g / cm^3
# Si number density = 20.916430 Si / 1000 Ang^3
#
#
#
# Elastic Constant Matrix: (Units=GPa)
#
#
# Indices 1 2 3 4 5 6 
#
# 1 63.4059 -14.7518 -5.2037 0.0000 0.0000 0.0000
# 2 -14.7518 22.8778 1.1396 0.0000 0.0000 0.0000
# 3 -5.2037 1.1396 70.7905 0.0000 0.0000 0.0000
# 4 0.0000 0.0000 0.0000 30.8882 0.0000 0.0000
# 5 0.0000 0.0000 0.0000 0.0000 38.4854 0.0000
# 6 0.0000 0.0000 0.0000 0.0000 0.0000 26.0940
#
#
#
# Elastic Compliance Matrix: (Units=1/GPa)
#
#
# Indices 1 2 3 4 5 6 
#
# 1 0.018653 0.011969 0.001178 0.000000 0.000000 0.000000
# 2 0.011969 0.051426 0.000052 0.000000 0.000000 0.000000
# 3 0.001178 0.000052 0.014212 0.000000 0.000000 0.000000
# 4 0.000000 0.000000 0.000000 0.032375 0.000000 0.000000
# 5 0.000000 0.000000 0.000000 0.000000 0.025984 0.000000
# 6 0.000000 0.000000 0.000000 0.000000 0.000000 0.038323
#
#
# Mechanical properties :
#
#
# Convention : Reuss Voigt Hill
#
# Bulk Modulus (GPa) = 9.03435 13.27136 11.15285
# Shear Modulus (GPa) = 26.11377 30.81950 28.46664
#
# Velocity S-wave (km/s) = 3.53722 3.84273 3.69314
# Velocity P-wave (km/s) = 4.58380 5.10367 4.85071
#
# Compressibility (1/GPa) = 0.11068862
#
# Stress axis : x y z
#
# Youngs Moduli (GPa) = 53.61144 19.44560 70.36313
#
# Poissons Ratio (x) = -0.23274 -0.08292
# Poissons Ratio (y) = -0.64166 -0.00366
# Poissons Ratio (z) = -0.06318 -0.00101
#
# Static dielectric constant tensor:
#      x y z
#    x 1.769070 0.000000 0.000000 
#    y 0.000000 1.734860 0.000000 
#    z 0.000000 0.000000 1.776420 
# 
# From -- ./inp_files/32010.got.cif
#   From: 2010.05.17/outbox.cif.g08.bks.cpg/sg62_17_cif.got.tgz:32010.got - 2010.06.03 15:25:27.
