data_PCOD9467808
_publ_section_title
;
Structure prediction by ZEFSAII (Michael W. Deem and Ramdas Pophale) SiO2 
 PCOD9467808
Probable space group: P N M A
;
_chemical_formula_sum "Si O2"
_cell_formula_units_Z 56
_cell_length_a 21.000000
_cell_length_b 9.000000
_cell_length_c 15.000000
_cell_angle_alpha 90.000000
_cell_angle_beta 90.000000
_cell_angle_gamma 90.000000
_cell_volume 2835.000000
_symmetry_space_group_name_H-M "P N M A"
_symmetry_group_IT_number 62
_symmetry_cell_setting 'orthorhombic'
loop_
_space_group_symop_operation_xyz
x,y,z
1/2-x,-y,1/2+z
1/2+x,1/2-y,1/2-z
-x,1/2+y,-z
-x,-y,-z
1/2+x,y,1/2-z
1/2-x,1/2+y,1/2+z
x,1/2-y,z
loop_
_atom_site_type_symbol
_atom_site_label
_atom_site_fract_x
_atom_site_fract_y
_atom_site_fract_z
Si Si1 0.829212 0.572524 0.397348
Si Si2 0.423531 0.575347 0.596531
Si Si3 0.821300 0.928999 0.201964
Si Si4 0.021834 0.428077 0.592513
Si Si5 0.908224 0.070952 0.717506
Si Si6 0.076223 0.924364 0.911075
Si Si7 0.295890 0.428302 0.918962
O O1 0.822491 0.750000 0.406835
O O2 0.801778 0.526745 0.301737
O O3 0.904471 0.537323 0.392473
O O4 0.801038 0.495992 0.483685
O O5 0.409099 0.750000 0.592580
O O6 0.397628 0.503173 0.686954
O O7 0.500369 0.556187 0.598970
O O8 0.402802 0.497529 0.504793
O O9 0.827330 0.750000 0.201897
O O10 0.767789 0.973949 0.131830
O O11 0.887019 0.997973 0.169263
O O12 0.015463 0.250000 0.584410
O O13 0.000000 0.500000 0.500000
O O14 0.975675 0.473793 0.673346
O O15 0.907095 0.250000 0.728607
O O16 0.855292 0.029664 0.644139
O O17 0.089964 0.750000 0.912762
O O18 0.296689 0.250000 0.925897
#
# Coordination Sequence:
#
# PCOD9467808 Si02
#       7
#     8   8   8   8   8   8   8
#     4  10  21  37  58  84 115 152 192 236 290 347
#     4  10  21  36  58  87 117 148 185 234 286 340
#     4  10  22  40  60  82 113 153 195 237 283 339
#     4  10  19  32  54  82 113 149 185 232 291 345
#     4  10  20  35  55  83 118 154 189 232 289 345
#     4  10  21  38  59  85 114 148 189 234 285 339
#     4  10  22  39  58  82 114 151 191 236 282 334
#
# _framework density 19.753086
#
# number of rings (size 3 to 8) (size 9 to 14) (size 15 to 20)
#    0.000    2.000    1.429    1.714    0.000    6.286 
#    0.000    1.429    0.000    0.000    0.000    0.000 
#    0.000    0.000    0.000    0.000    0.000    0.000 
#
# Total GULP energy -312803.065420 kJ/mol
# GULP energy per Si atom -5585.769025 kJ/mol
# Density = 1.970813 g / cm^3
# Si number density = 19.753086 Si / 1000 Ang^3
#
#
#
# Elastic Constant Matrix: (Units=GPa)
#
#
# Indices 1 2 3 4 5 6 
#
# 1 27.6771 26.5769 19.3927 0.0000 0.0000 0.0000
# 2 26.5769 13.8349 40.0235 0.0000 0.0000 0.0000
# 3 19.3927 40.0235 149.1487 0.0000 0.0000 0.0000
# 4 0.0000 0.0000 0.0000 37.3544 0.0000 0.0000
# 5 0.0000 0.0000 0.0000 0.0000 19.5683 0.0000
# 6 0.0000 0.0000 0.0000 0.0000 0.0000 14.8323
#
#
#
# Elastic Compliance Matrix: (Units=1/GPa)
#
#
# Indices 1 2 3 4 5 6 
#
# 1 -0.008167 0.056400 -0.014073 0.000000 0.000000 0.000000
# 2 0.056400 -0.066382 0.010480 0.000000 0.000000 0.000000
# 3 -0.014073 0.010480 0.005722 0.000000 0.000000 0.000000
# 4 0.000000 0.000000 0.000000 0.026771 0.000000 0.000000
# 5 0.000000 0.000000 0.000000 0.000000 0.051103 0.000000
# 6 0.000000 0.000000 0.000000 0.000000 0.000000 0.067420
#
#
# Mechanical properties :
#
#
# Convention : Reuss Voigt Hill
#
# Bulk Modulus (GPa) = 27.18263 40.29408 33.73835
# Shear Modulus (GPa) = -296.15216 21.32883 -137.41166
#
# Velocity S-wave (km/s) = -12.25775 3.28955 -8.34959
# Velocity P-wave (km/s) = 13.65817 5.90520 8.70845
#
# Compressibility (1/GPa) = 0.03678819
#
# Stress axis : x y z
#
# Youngs Moduli (GPa) = -122.45120 -15.06440 174.75692
#
# Poissons Ratio (x) = 0.84963 2.45933
# Poissons Ratio (y) = 6.90624 -1.83146
# Poissons Ratio (z) = -1.72324 0.15788
#
# Static dielectric constant tensor:
#      x y z
#    x 1.722080 0.000000 0.000000 
#    y 0.000000 1.659890 0.000000 
#    z 0.000000 0.000000 1.668180 
# 
# From -- ./inp_files/20353.got.cif
#   From: 2010.05.17/outbox.ucp.g08.bks.cvg/sg62_11_cif.got.tgz:20353.got - 2010.06.11 16:29:25.
