data_PCOD9467705
_publ_section_title
;
Structure prediction by ZEFSAII (Michael W. Deem and Ramdas Pophale) SiO2 
 PCOD9467705
Probable space group: P N M A
;
_chemical_formula_sum "Si O2"
_cell_formula_units_Z 48
_cell_length_a 18.685035
_cell_length_b 16.652067
_cell_length_c 7.070409
_cell_angle_alpha 90.000000
_cell_angle_beta 90.000000
_cell_angle_gamma 90.000000
_cell_volume 2199.918553
_symmetry_space_group_name_H-M "P N M A"
_symmetry_group_IT_number 62
_symmetry_cell_setting 'orthorhombic'
loop_
_space_group_symop_operation_xyz
x,y,z
1/2-x,-y,1/2+z
1/2+x,1/2-y,1/2-z
-x,1/2+y,-z
-x,-y,-z
1/2+x,y,1/2-z
1/2-x,1/2+y,1/2+z
x,1/2-y,z
loop_
_atom_site_type_symbol
_atom_site_label
_atom_site_fract_x
_atom_site_fract_y
_atom_site_fract_z
Si Si1 0.227929 0.077614 0.060403
Si Si2 0.480321 0.750000 0.252352
Si Si3 0.478378 0.924343 0.242728
Si Si4 0.070434 0.074983 0.187478
Si Si5 0.933040 0.750000 0.826666
Si Si6 0.679799 0.422488 0.875001
Si Si7 0.811740 0.750000 0.368198
Si Si8 0.264805 0.750000 0.551634
O O1 0.156043 0.063320 0.182815
O O2 0.263791 0.163064 0.113829
O O3 0.278249 0.000878 0.062978
O O4 0.199833 0.087557 0.846602
O O5 0.511007 0.836604 0.196078
O O6 0.477758 0.750000 0.480019
O O7 0.396250 0.750000 0.189369
O O8 0.454575 0.921858 0.465628
O O9 0.405200 0.934269 0.126188
O O10 0.529880 0.999870 0.224600
O O11 0.053745 0.163993 0.268049
O O12 0.848967 0.750000 0.886284
O O13 0.699986 0.336025 0.965273
O O14 0.765483 0.750000 0.176673
#
# Coordination Sequence:
#
# PCOD9467705 Si02
#       8
#     8   4   8   8   4   8   4   4
#     4   9  16  27  43  61  81 106 136 167 198 235
#     4   7  10  18  33  51  71  99 132 157 182 228
#     4   8  13  22  37  56  76  99 129 163 195 228
#     4   8  13  22  37  56  76  99 129 163 195 228
#     4   7  10  18  33  51  71  99 132 157 182 228
#     4   9  16  27  43  61  81 106 136 167 198 235
#     4   7  12  24  40  55  75 109 142 157 180 238
#     4   7  12  24  40  55  75 109 142 157 180 238
#
# _framework density 21.818988000000001
#
# number of rings (size 3 to 8) (size 9 to 14) (size 15 to 20)
#    0.000    4.000    0.000    4.000    0.000    0.000 
#    0.000    2.500    0.000    5.000    0.000    0.000 
#    0.000    0.000    0.000    0.000    0.000    0.000 
#
# Total GULP energy -267560.343134 kJ/mol
# GULP energy per Si atom -5574.173815 kJ/mol
# Density = 2.176933 g / cm^3
# Si number density = 21.818988 Si / 1000 Ang^3
#
#
#
# Elastic Constant Matrix: (Units=GPa)
#
#
# Indices 1 2 3 4 5 6 
#
# 1 35.2594 80.8288 18.0077 0.0000 0.0000 0.0000
# 2 80.8288 289.8418 30.7971 0.0000 0.0000 0.0000
# 3 18.0077 30.7971 57.8814 0.0000 0.0000 0.0000
# 4 0.0000 0.0000 0.0000 15.9039 0.0000 0.0000
# 5 0.0000 0.0000 0.0000 0.0000 21.5029 0.0000
# 6 0.0000 0.0000 0.0000 0.0000 0.0000 34.2018
#
#
#
# Elastic Compliance Matrix: (Units=1/GPa)
#
#
# Indices 1 2 3 4 5 6 
#
# 1 0.090141 -0.023486 -0.015548 0.000000 0.000000 0.000000
# 2 -0.023486 0.009776 0.002105 0.000000 0.000000 0.000000
# 3 -0.015548 0.002105 0.020994 0.000000 0.000000 0.000000
# 4 0.000000 0.000000 0.000000 0.062878 0.000000 0.000000
# 5 0.000000 0.000000 0.000000 0.000000 0.046505 0.000000
# 6 0.000000 0.000000 0.000000 0.000000 0.000000 0.029238
#
#
# Mechanical properties :
#
#
# Convention : Reuss Voigt Hill
#
# Bulk Modulus (GPa) = 21.25239 71.36109 46.30674
# Shear Modulus (GPa) = 14.32365 31.21164 22.76764
#
# Velocity S-wave (km/s) = 2.56496 3.78627 3.23380
# Velocity P-wave (km/s) = 4.30505 7.20357 5.93401
#
# Compressibility (1/GPa) = 0.04705354
#
# Stress axis : x y z
#
# Youngs Moduli (GPa) = 11.09378 102.29168 47.63322
#
# Poissons Ratio (x) = 2.40239 0.74060
# Poissons Ratio (y) = 0.26054 -0.10028
# Poissons Ratio (z) = 0.17249 -0.21534
#
# Static dielectric constant tensor:
#      x y z
#    x 1.726350 0.000000 0.000000 
#    y 0.000000 1.843320 0.000000 
#    z 0.000000 0.000000 1.890130 
# 
# From -- ./inp_files/6577.got.cif
#   From: 2010.05.17/outbox.cif.g08.bks.cpg/sg62_4_cif.got.tgz:6577.got - 2010.06.03 15:25:27.
