data_PCOD9467214
_publ_section_title
;
Structure prediction by ZEFSAII (Michael W. Deem and Ramdas Pophale) SiO2 
 PCOD9467214
Probable space group: P N M A
;
_chemical_formula_sum "Si O2"
_cell_formula_units_Z 48
_cell_length_a 9.702114
_cell_length_b 34.264892
_cell_length_c 5.106309
_cell_angle_alpha 90.000000
_cell_angle_beta 90.000000
_cell_angle_gamma 90.000000
_cell_volume 1697.551007
_symmetry_space_group_name_H-M "P N M A"
_symmetry_group_IT_number 62
_symmetry_cell_setting 'orthorhombic'
loop_
_space_group_symop_operation_xyz
x,y,z
1/2-x,-y,1/2+z
1/2+x,1/2-y,1/2-z
-x,1/2+y,-z
-x,-y,-z
1/2+x,y,1/2-z
1/2-x,1/2+y,1/2+z
x,1/2-y,z
loop_
_atom_site_type_symbol
_atom_site_label
_atom_site_fract_x
_atom_site_fract_y
_atom_site_fract_z
Si Si1 0.375476 0.292718 0.304442
Si Si2 0.691906 0.293942 0.697498
Si Si3 0.160625 0.502165 0.309554
Si Si4 0.673929 0.913626 0.242672
Si Si5 0.526901 0.143676 0.019182
Si Si6 0.939461 0.921671 0.895428
O O1 0.436461 0.250000 0.252952
O O2 0.317639 0.293886 0.595119
O O3 0.253109 0.297374 0.092458
O O4 0.479944 0.326548 0.242074
O O5 0.628886 0.250000 0.721312
O O6 0.603299 0.329918 0.805127
O O7 0.669472 0.415644 0.634733
O O8 0.227830 0.489667 0.581334
O O9 0.074573 0.466607 0.192513
O O10 0.104378 0.545456 0.357129
O O11 0.605725 0.876480 0.107397
O O12 0.598331 0.912977 0.526734
O O13 0.604187 0.108467 0.167949
#
# Coordination Sequence:
#
# PCOD9467214 Si02
#       6
#     8   8   8   8   8   8
#     4  10  24  46  72 104 147 199 252 306 374 454
#     4  10  24  46  71 103 147 198 251 304 372 454
#     4  10  25  49  79 107 152 202 265 316 386 458
#     4  11  28  48  76 109 154 201 260 322 384 463
#     4  12  27  41  76 108 157 190 260 313 396 448
#     4  11  28  48  76 111 152 207 260 321 389 458
#
# _framework density 28.276032000000001
#
# number of rings (size 3 to 8) (size 9 to 14) (size 15 to 20)
#    0.000    1.333    0.000    2.000   16.333    0.667 
#    0.000    5.000    0.000    0.000    0.000    0.000 
#    0.000    0.000    0.000    0.000    0.000    0.000 
#
# Total GULP energy -269136.001307 kJ/mol
# GULP energy per Si atom -5607.000027 kJ/mol
# Density = 2.821167 g / cm^3
# Si number density = 28.276032 Si / 1000 Ang^3
#
#
#
# Elastic Constant Matrix: (Units=GPa)
#
#
# Indices 1 2 3 4 5 6 
#
# 1 95.4595 43.0516 33.9009 0.0000 0.0000 0.0000
# 2 43.0516 198.5197 16.8318 0.0000 0.0000 0.0000
# 3 33.9009 16.8318 104.6108 0.0000 0.0000 0.0000
# 4 0.0000 0.0000 0.0000 31.2841 0.0000 0.0000
# 5 0.0000 0.0000 0.0000 0.0000 55.4755 0.0000
# 6 0.0000 0.0000 0.0000 0.0000 0.0000 46.9227
#
#
#
# Elastic Compliance Matrix: (Units=1/GPa)
#
#
# Indices 1 2 3 4 5 6 
#
# 1 0.012944 -0.002485 -0.003795 0.000000 0.000000 0.000000
# 2 -0.002485 0.005584 -0.000093 0.000000 0.000000 0.000000
# 3 -0.003795 -0.000093 0.010804 0.000000 0.000000 0.000000
# 4 0.000000 0.000000 0.000000 0.031965 0.000000 0.000000
# 5 0.000000 0.000000 0.000000 0.000000 0.018026 0.000000
# 6 0.000000 0.000000 0.000000 0.000000 0.000000 0.021312
#
#
# Mechanical properties :
#
#
# Convention : Reuss Voigt Hill
#
# Bulk Modulus (GPa) = 60.29274 65.12873 62.71074
# Shear Modulus (GPa) = 42.04846 47.05683 44.55265
#
# Velocity S-wave (km/s) = 3.86044 4.08388 3.97373
# Velocity P-wave (km/s) = 6.42183 6.73206 6.57877
#
# Compressibility (1/GPa) = 0.01658574
#
# Stress axis : x y z
#
# Youngs Moduli (GPa) = 77.25453 179.07806 92.55815
#
# Poissons Ratio (x) = 0.44507 0.35125
# Poissons Ratio (y) = 0.19201 0.00861
# Poissons Ratio (z) = 0.29317 0.01667
#
# Static dielectric constant tensor:
#      x y z
#    x 2.233150 0.000000 0.000000 
#    y 0.000000 2.148270 0.000000 
#    z 0.000000 0.000000 2.199810 
# 
# From -- ./inp_files/1165.got.cif
#   From: 2010.05.17/outbox.cif.g08.bks.cpg/sg62_1_cif.got.tgz:1165.got - 2010.06.03 15:25:27.
