data_PCOD9467860
_publ_section_title
;
Structure prediction by ZEFSAII (Michael W. Deem and Ramdas Pophale) SiO2 
 PCOD9467860
Probable space group: P N M A
;
_chemical_formula_sum "Si O2"
_cell_formula_units_Z 64
_cell_length_a 21.000000
_cell_length_b 9.000000
_cell_length_c 21.000000
_cell_angle_alpha 90.000000
_cell_angle_beta 90.000000
_cell_angle_gamma 90.000000
_cell_volume 3969.000000
_symmetry_space_group_name_H-M "P N M A"
_symmetry_group_IT_number 62
_symmetry_cell_setting 'orthorhombic'
loop_
_space_group_symop_operation_xyz
x,y,z
1/2-x,-y,1/2+z
1/2+x,1/2-y,1/2-z
-x,1/2+y,-z
-x,-y,-z
1/2+x,y,1/2-z
1/2-x,1/2+y,1/2+z
x,1/2-y,z
loop_
_atom_site_type_symbol
_atom_site_label
_atom_site_fract_x
_atom_site_fract_y
_atom_site_fract_z
Si Si1 0.174737 0.929612 0.827610
Si Si2 0.323568 0.430388 0.178772
Si Si3 0.567898 0.929578 0.924580
Si Si4 0.072049 0.429022 0.925438
Si Si5 0.325263 0.929612 0.827610
Si Si6 0.072049 0.929022 0.425438
Si Si7 0.067898 0.429578 0.075420
Si Si8 0.676432 0.069612 0.321228
O O1 0.168362 0.750000 0.832053
O O2 0.161970 0.971569 0.752908
O O3 0.250000 0.964927 0.840189
O O4 0.125460 0.003838 0.877515
O O5 0.322987 0.250000 0.177555
O O6 0.377012 0.475712 0.126410
O O7 0.250000 0.477936 0.164579
O O8 0.560830 0.750000 0.919752
O O9 0.498780 0.004330 0.911901
O O10 0.585270 0.962513 0.999029
O O11 0.070744 0.250000 0.918726
O O12 0.001220 0.495670 0.911901
O O13 0.085271 0.462513 0.000971
O O14 0.331638 0.750000 0.832053
O O15 0.338030 0.971569 0.752909
O O16 0.374540 0.003838 0.877515
O O17 0.070744 0.750000 0.418726
O O18 0.060830 0.250000 0.080248
O O19 0.122988 0.475712 0.126410
O O20 0.677013 0.250000 0.322445
#
# Coordination Sequence:
#
# PCOD9467860 Si02
#       8
#     8   8   8   8   8   8   8   8
#     4   9  18  33  52  72  95 124 158 197 239 284
#     4   8  15  30  52  74  92 117 161 207 237 270
#     4   9  18  33  52  71  94 127 164 200 235 276
#     4  10  20  32  48  72 101 129 157 195 241 287
#     4   9  18  33  52  72  95 124 158 197 239 284
#     4  10  20  32  48  72 101 129 157 195 241 287
#     4   9  18  33  52  71  94 127 164 200 235 276
#     4   8  15  30  52  74  92 117 161 207 237 270
#
# _framework density 16.124969
#
# number of rings (size 3 to 8) (size 9 to 14) (size 15 to 20)
#    0.000    3.000    0.000    2.250    0.000    3.500 
#    0.000    8.750    0.000    2.250    0.000    0.000 
#    0.000    0.000    0.000    0.000    0.000    0.000 
#
# Total GULP energy -356393.921755 kJ/mol
# GULP energy per Si atom -5568.655027 kJ/mol
# Density = 1.608827 g / cm^3
# Si number density = 16.124969 Si / 1000 Ang^3
#
#
#
# Elastic Constant Matrix: (Units=GPa)
#
#
# Indices 1 2 3 4 5 6 
#
# 1 166.9089 42.6940 118.3145 0.0000 0.0000 0.0000
# 2 42.6940 38.6678 39.5782 0.0000 0.0000 0.0000
# 3 118.3145 39.5782 155.5398 0.0000 0.0000 0.0000
# 4 0.0000 0.0000 0.0000 28.8687 0.0000 0.0000
# 5 0.0000 0.0000 0.0000 0.0000 47.8647 0.0000
# 6 0.0000 0.0000 0.0000 0.0000 0.0000 29.1059
#
#
#
# Elastic Compliance Matrix: (Units=1/GPa)
#
#
# Indices 1 2 3 4 5 6 
#
# 1 0.014012 -0.006168 -0.009089 0.000000 0.000000 0.000000
# 2 -0.006168 0.037684 -0.004897 0.000000 0.000000 0.000000
# 3 -0.009089 -0.004897 0.014589 0.000000 0.000000 0.000000
# 4 0.000000 0.000000 0.000000 0.034640 0.000000 0.000000
# 5 0.000000 0.000000 0.000000 0.000000 0.020892 0.000000
# 6 0.000000 0.000000 0.000000 0.000000 0.000000 0.034357
#
#
# Mechanical properties :
#
#
# Convention : Reuss Voigt Hill
#
# Bulk Modulus (GPa) = 38.49597 84.69887 61.59742
# Shear Modulus (GPa) = 24.37359 31.86985 28.12172
#
# Velocity S-wave (km/s) = 3.89208 4.45053 4.18064
# Velocity P-wave (km/s) = 6.64252 8.89102 7.84771
#
# Compressibility (1/GPa) = 0.02597674
#
# Stress axis : x y z
#
# Youngs Moduli (GPa) = 71.36951 26.53655 68.54511
#
# Poissons Ratio (x) = 0.16367 0.62299
# Poissons Ratio (y) = 0.44019 0.33569
# Poissons Ratio (z) = 0.64866 0.12996
#
# Static dielectric constant tensor:
#      x y z
#    x 1.533750 0.000000 0.000000 
#    y 0.000000 1.541010 0.000000 
#    z 0.000000 0.000000 1.549750 
# 
# From -- ./inp_files/27956.got.cif
#   From: 2010.05.17/outbox.ucp.g08.bks.cvg/sg62_14_cif.got.tgz:27956.got - 2010.06.11 16:29:25.
