data_PCOD9467520
_publ_section_title
;
Structure prediction by ZEFSAII (Michael W. Deem and Ramdas Pophale) SiO2 
 PCOD9467520
Probable space group: P N M A
;
_chemical_formula_sum "Si O2"
_cell_formula_units_Z 32
_cell_length_a 12.027430
_cell_length_b 8.739240
_cell_length_c 15.714790
_cell_angle_alpha 90.000000
_cell_angle_beta 90.000000
_cell_angle_gamma 90.000000
_cell_volume 1651.790964
_symmetry_space_group_name_H-M "P N M A"
_symmetry_group_IT_number 62
_symmetry_cell_setting 'orthorhombic'
loop_
_space_group_symop_operation_xyz
x,y,z
1/2-x,-y,1/2+z
1/2+x,1/2-y,1/2-z
-x,1/2+y,-z
-x,-y,-z
1/2+x,y,1/2-z
1/2-x,1/2+y,1/2+z
x,1/2-y,z
loop_
_atom_site_type_symbol
_atom_site_label
_atom_site_fract_x
_atom_site_fract_y
_atom_site_fract_z
Si Si1 0.765929 0.430973 0.158227
Si Si2 0.874938 0.433604 0.501437
Si Si3 0.763333 0.427584 0.843275
Si Si4 0.985852 0.926708 0.091788
O O1 0.749449 0.250000 0.151116
O O2 0.745685 0.488364 0.253481
O O3 0.892734 0.476364 0.138836
O O4 0.688854 0.511047 0.086791
O O5 0.878139 0.250000 0.499418
O O6 0.807027 0.495560 0.419316
O O7 0.000000 0.500000 0.500000
O O8 0.727670 0.250000 0.835227
O O9 0.893240 0.429816 0.866685
O O10 0.948576 0.750000 0.086035
O O11 0.000000 0.000000 0.000000
#
# Coordination Sequence:
#
# PCOD9467520 Si02
#       4
#     8   8   8   8
#     4  12  26  44  68  99 136 177 223 272 330 395
#     4  12  26  46  70  97 135 177 221 274 333 397
#     4  11  25  45  69  99 134 175 223 274 331 393
#     4  11  23  42  70  98 132 172 220 275 331 391
#
# _framework density 19.372910999999998
#
# number of rings (size 3 to 8) (size 9 to 14) (size 15 to 20)
#    0.000    0.500    2.500    6.000    3.500    3.000 
#    0.000    0.000    0.000    0.000    0.000    0.000 
#    0.000    0.000    0.000    0.000    0.000    0.000 
#
# Total GULP energy -179047.702280 kJ/mol
# GULP energy per Si atom -5595.240696 kJ/mol
# Density = 1.932882 g / cm^3
# Si number density = 19.372911 Si / 1000 Ang^3
#
#
#
# Elastic Constant Matrix: (Units=GPa)
#
#
# Indices 1 2 3 4 5 6 
#
# 1 106.1304 57.4037 51.4674 0.0000 0.0000 0.0000
# 2 57.4037 194.4149 69.0712 0.0000 0.0000 0.0000
# 3 51.4674 69.0712 148.9371 0.0000 0.0000 0.0000
# 4 0.0000 0.0000 0.0000 37.8214 0.0000 0.0000
# 5 0.0000 0.0000 0.0000 0.0000 30.7389 0.0000
# 6 0.0000 0.0000 0.0000 0.0000 0.0000 38.5945
#
#
#
# Elastic Compliance Matrix: (Units=1/GPa)
#
#
# Indices 1 2 3 4 5 6 
#
# 1 0.012282 -0.002536 -0.003068 0.000000 0.000000 0.000000
# 2 -0.002536 0.006682 -0.002222 0.000000 0.000000 0.000000
# 3 -0.003068 -0.002222 0.008805 0.000000 0.000000 0.000000
# 4 0.000000 0.000000 0.000000 0.026440 0.000000 0.000000
# 5 0.000000 0.000000 0.000000 0.000000 0.032532 0.000000
# 6 0.000000 0.000000 0.000000 0.000000 0.000000 0.025910
#
#
# Mechanical properties :
#
#
# Convention : Reuss Voigt Hill
#
# Bulk Modulus (GPa) = 82.53777 89.48524 86.01150
# Shear Modulus (GPa) = 37.78033 39.53364 38.65698
#
# Velocity S-wave (km/s) = 4.42086 4.52227 4.47185
# Velocity P-wave (km/s) = 8.29191 8.57666 8.43549
#
# Compressibility (1/GPa) = 0.01211567
#
# Stress axis : x y z
#
# Youngs Moduli (GPa) = 81.41938 149.65267 113.57093
#
# Poissons Ratio (x) = 0.37959 0.34843
# Poissons Ratio (y) = 0.20652 0.25240
# Poissons Ratio (z) = 0.24979 0.33259
#
# Static dielectric constant tensor:
#      x y z
#    x 1.639910 0.000000 0.000000 
#    y 0.000000 1.006870 0.000000 
#    z 0.000000 0.000000 2.102420 
# 
# From -- ./inp_files/17573.got.cif
#   From: 2010.05.17/outbox.cif.g08.bks.cpg/sg62_9_cif.got.tgz:17573.got - 2010.06.03 15:25:27.
