data_PCOD9467190
_publ_section_title
;
Structure prediction by ZEFSAII (Michael W. Deem and Ramdas Pophale) SiO2 
 PCOD9467190
Probable space group: P N M A
;
_chemical_formula_sum "Si O2"
_cell_formula_units_Z 28
_cell_length_a 4.921650
_cell_length_b 13.741071
_cell_length_c 16.663712
_cell_angle_alpha 90.000000
_cell_angle_beta 90.000000
_cell_angle_gamma 90.000000
_cell_volume 1126.945881
_symmetry_space_group_name_H-M "P N M A"
_symmetry_group_IT_number 62
_symmetry_cell_setting 'orthorhombic'
loop_
_space_group_symop_operation_xyz
x,y,z
1/2-x,-y,1/2+z
1/2+x,1/2-y,1/2-z
-x,1/2+y,-z
-x,-y,-z
1/2+x,y,1/2-z
1/2-x,1/2+y,1/2+z
x,1/2-y,z
loop_
_atom_site_type_symbol
_atom_site_label
_atom_site_fract_x
_atom_site_fract_y
_atom_site_fract_z
Si Si1 0.813854 0.960207 0.070862
Si Si2 0.457524 0.356926 0.068326
Si Si3 0.185368 0.634470 0.202717
Si Si4 0.867394 0.750000 0.808895
O O1 0.026238 0.918492 0.133402
O O2 0.631724 0.051786 0.096804
O O3 0.633993 0.880580 0.022667
O O4 0.000000 0.000000 0.000000
O O5 0.597024 0.250000 0.067828
O O6 0.211449 0.339352 0.131782
O O7 0.998962 0.611762 0.281193
O O8 0.164092 0.750000 0.189755
O O9 0.654282 0.750000 0.734671
#
# Coordination Sequence:
#
# PCOD9467190 Si02
#       4
#     8   8   8   4
#     4  11  24  42  69 101 136 184 233 294 340 420
#     4   9  24  42  64  99 135 182 232 274 356 402
#     4  10  24  45  70 101 136 181 229 290 350 406
#     4  10  24  44  68  96 140 184 228 276 346 420
#
# _framework density 24.845914
#
# number of rings (size 3 to 8) (size 9 to 14) (size 15 to 20)
#    0.857    1.143    0.000    0.857   12.000    4.571 
#    0.000    0.000    0.000    0.000    0.000    0.000 
#    0.000    0.000    0.000    0.000    0.000    0.000 
#
# Total GULP energy -156602.978921 kJ/mol
# GULP energy per Si atom -5592.963533 kJ/mol
# Density = 2.478936 g / cm^3
# Si number density = 24.845914 Si / 1000 Ang^3
#
#
#
# Elastic Constant Matrix: (Units=GPa)
#
#
# Indices 1 2 3 4 5 6 
#
# 1 71.0145 23.1280 -10.8817 0.0000 0.0000 0.0000
# 2 23.1280 108.2081 35.0125 0.0000 0.0000 0.0000
# 3 -10.8817 35.0125 63.8230 0.0000 0.0000 0.0000
# 4 0.0000 0.0000 0.0000 41.2300 0.0000 0.0000
# 5 0.0000 0.0000 0.0000 0.0000 44.1703 0.0000
# 6 0.0000 0.0000 0.0000 0.0000 0.0000 15.7474
#
#
#
# Elastic Compliance Matrix: (Units=1/GPa)
#
#
# Indices 1 2 3 4 5 6 
#
# 1 0.016766 -0.005481 0.005865 0.000000 0.000000 0.000000
# 2 -0.005481 0.013028 -0.008081 0.000000 0.000000 0.000000
# 3 0.005865 -0.008081 0.021102 0.000000 0.000000 0.000000
# 4 0.000000 0.000000 0.000000 0.024254 0.000000 0.000000
# 5 0.000000 0.000000 0.000000 0.000000 0.022640 0.000000
# 6 0.000000 0.000000 0.000000 0.000000 0.000000 0.063503
#
#
# Mechanical properties :
#
#
# Convention : Reuss Voigt Hill
#
# Bulk Modulus (GPa) = 28.16854 37.50704 32.83779
# Shear Modulus (GPa) = 26.52240 33.28198 29.90219
#
# Velocity S-wave (km/s) = 3.27077 3.66394 3.47292
# Velocity P-wave (km/s) = 5.06219 5.74699 5.41543
#
# Compressibility (1/GPa) = 0.03550060
#
# Stress axis : x y z
#
# Youngs Moduli (GPa) = 59.64614 76.75840 47.38935
#
# Poissons Ratio (x) = 0.42073 -0.27796
# Poissons Ratio (y) = 0.32694 0.38298
# Poissons Ratio (z) = -0.34985 0.62032
#
# Static dielectric constant tensor:
#      x y z
#    x 2.043790 0.000000 0.000000 
#    y 0.000000 1.982690 0.000000 
#    z 0.000000 0.000000 2.137790 
# 
# From -- ./inp_files/21404.got.cif
#   From: 2010.05.17/outbox.cif.g08.bks.cpg/sg62_11_cif.got.tgz:21404.got - 2010.06.03 15:25:27.
