data_PCOD9467205
_publ_section_title
;
Structure prediction by ZEFSAII (Michael W. Deem and Ramdas Pophale) SiO2 
 PCOD9467205
Probable space group: P N M A
;
_chemical_formula_sum "Si O2"
_cell_formula_units_Z 40
_cell_length_a 13.016907
_cell_length_b 14.772868
_cell_length_c 7.983204
_cell_angle_alpha 90.000000
_cell_angle_beta 90.000000
_cell_angle_gamma 90.000000
_cell_volume 1535.146570
_symmetry_space_group_name_H-M "P N M A"
_symmetry_group_IT_number 62
_symmetry_cell_setting 'orthorhombic'
loop_
_space_group_symop_operation_xyz
x,y,z
1/2-x,-y,1/2+z
1/2+x,1/2-y,1/2-z
-x,1/2+y,-z
-x,-y,-z
1/2+x,y,1/2-z
1/2-x,1/2+y,1/2+z
x,1/2-y,z
loop_
_atom_site_type_symbol
_atom_site_label
_atom_site_fract_x
_atom_site_fract_y
_atom_site_fract_z
Si Si1 0.061493 0.857736 0.227632
Si Si2 0.920282 0.854342 0.913954
Si Si3 0.232385 0.101671 0.540785
Si Si4 0.300934 0.398731 0.158610
Si Si5 0.982420 0.883761 0.562553
O O1 0.045897 0.750000 0.266613
O O2 0.179377 0.868490 0.169448
O O3 0.027574 0.919155 0.384771
O O4 0.986831 0.881242 0.072923
O O5 0.945853 0.750000 0.874293
O O6 0.798217 0.859749 0.936042
O O7 0.943169 0.911671 0.747972
O O8 0.284234 0.101825 0.357835
O O9 0.125539 0.154263 0.511221
O O10 0.195322 0.002450 0.597426
O O11 0.405815 0.347570 0.120209
#
# Coordination Sequence:
#
# PCOD9467205 Si02
#       5
#     8   8   8   8   8
#     4  11  25  44  69  98 134 176 223 278 335 399
#     4  10  24  45  67  97 132 174 226 276 335 397
#     4  11  25  44  69 101 138 175 231 277 333 405
#     4  11  24  44  69  98 137 181 221 283 335 392
#     4  11  24  45  68 102 132 179 220 282 334 398
#
# _framework density 26.056142999999999
#
# number of rings (size 3 to 8) (size 9 to 14) (size 15 to 20)
#    0.000    1.200    2.000    2.400    5.600    8.000 
#    0.000    0.000    0.000    0.000    0.000    0.000 
#    0.000    0.000    0.000    0.000    0.000    0.000 
#
# Total GULP energy -223001.233308 kJ/mol
# GULP energy per Si atom -5575.030833 kJ/mol
# Density = 2.599684 g / cm^3
# Si number density = 26.056143 Si / 1000 Ang^3
#
#
#
# Elastic Constant Matrix: (Units=GPa)
#
#
# Indices 1 2 3 4 5 6 
#
# 1 223.2633 -13.8384 64.9713 0.0000 0.0000 0.0000
# 2 -13.8384 57.7560 6.8967 0.0000 0.0000 0.0000
# 3 64.9713 6.8967 138.6576 0.0000 0.0000 0.0000
# 4 0.0000 0.0000 0.0000 -216.5727 0.0000 0.0000
# 5 0.0000 0.0000 0.0000 0.0000 51.9972 0.0000
# 6 0.0000 0.0000 0.0000 0.0000 0.0000 7.2790
#
#
#
# Elastic Compliance Matrix: (Units=1/GPa)
#
#
# Indices 1 2 3 4 5 6 
#
# 1 0.005326 0.001584 -0.002575 0.000000 0.000000 0.000000
# 2 0.001584 0.017889 -0.001632 0.000000 0.000000 0.000000
# 3 -0.002575 -0.001632 0.008500 0.000000 0.000000 0.000000
# 4 0.000000 0.000000 0.000000 -0.004617 0.000000 0.000000
# 5 0.000000 0.000000 0.000000 0.000000 0.019232 0.000000
# 6 0.000000 0.000000 0.000000 0.000000 0.000000 0.137381
#
#
# Mechanical properties :
#
#
# Convention : Reuss Voigt Hill
#
# Bulk Modulus (GPa) = 37.78009 59.52622 48.65316
# Shear Modulus (GPa) = 25.28081 -7.34947 8.96567
#
# Velocity S-wave (km/s) = 3.11825 -1.68129 1.85698
# Velocity P-wave (km/s) = 5.24363 4.37332 4.82813
#
# Compressibility (1/GPa) = 0.02646897
#
# Stress axis : x y z
#
# Youngs Moduli (GPa) = 187.74420 55.90180 117.65324
#
# Poissons Ratio (x) = -0.08853 0.30291
# Poissons Ratio (y) = -0.29732 0.19199
# Poissons Ratio (z) = 0.48336 0.09122
#
# Static dielectric constant tensor:
#      x y z
#    x 1.986690 0.000000 0.000000 
#    y 0.000000 2.781890 0.000000 
#    z 0.000000 0.000000 2.003600 
# 
# From -- ./inp_files/5010.got.cif
#   From: 2010.05.17/outbox.cif.g08.bks.cpg/sg62_3_cif.got.tgz:5010.got - 2010.06.03 15:25:27.
