data_PCOD9467472
_publ_section_title
;
Structure prediction by ZEFSAII (Michael W. Deem and Ramdas Pophale) SiO2 
 PCOD9467472
Probable space group: P N M A
;
_chemical_formula_sum "Si O2"
_cell_formula_units_Z 40
_cell_length_a 16.644332
_cell_length_b 9.825845
_cell_length_c 11.439669
_cell_angle_alpha 90.000000
_cell_angle_beta 90.000000
_cell_angle_gamma 90.000000
_cell_volume 1870.896392
_symmetry_space_group_name_H-M "P N M A"
_symmetry_group_IT_number 62
_symmetry_cell_setting 'orthorhombic'
loop_
_space_group_symop_operation_xyz
x,y,z
1/2-x,-y,1/2+z
1/2+x,1/2-y,1/2-z
-x,1/2+y,-z
-x,-y,-z
1/2+x,y,1/2-z
1/2-x,1/2+y,1/2+z
x,1/2-y,z
loop_
_atom_site_type_symbol
_atom_site_label
_atom_site_fract_x
_atom_site_fract_y
_atom_site_fract_z
Si Si1 0.152558 0.250000 0.340462
Si Si2 0.272885 0.019841 0.760412
Si Si3 0.368653 0.250000 0.859607
Si Si4 0.588196 0.966803 0.734586
Si Si5 0.274310 0.250000 0.560852
Si Si6 0.549340 0.750000 0.551656
Si Si7 0.988988 0.750000 0.196316
Si Si8 0.466786 0.250000 0.087800
O O1 0.173411 0.383805 0.263579
O O2 0.208261 0.250000 0.457325
O O3 0.061019 0.250000 0.384623
O O4 0.312150 0.118512 0.857670
O O5 0.267828 0.115685 0.644565
O O6 0.182725 0.974705 0.789623
O O7 0.419459 0.250000 0.739854
O O8 0.436909 0.250000 0.956349
O O9 0.543259 0.882170 0.633336
O O10 0.571876 0.881527 0.850760
O O11 0.553786 0.116462 0.742434
O O12 0.360446 0.250000 0.498536
O O13 0.489214 0.750000 0.443908
#
# Coordination Sequence:
#
# PCOD9467472 Si02
#       8
#     4   8   4   8   4   4   4   4
#     4  12  25  48  72 103 144 183 231 295 350 412
#     4  11  24  46  69  96 136 184 231 277 344 419
#     4  11  26  45  68 103 140 180 224 282 352 418
#     4  11  25  45  68  99 136 180 231 287 339 418
#     4  11  24  45  70  99 138 183 228 286 345 420
#     4  11  22  47  65  95 137 175 228 287 338 411
#     4  12  23  42  70  97 135 175 234 284 347 400
#     4  11  28  43  69 109 142 178 227 288 356 409
#
# _framework density 21.380127000000002
#
# number of rings (size 3 to 8) (size 9 to 14) (size 15 to 20)
#    0.000    0.800    4.000    3.600    5.600    1.600 
#    0.000    0.000    0.000    0.000    0.000    0.000 
#    0.000    0.000    0.000    0.000    0.000    0.000 
#
# Total GULP energy -223691.930678 kJ/mol
# GULP energy per Si atom -5592.298267 kJ/mol
# Density = 2.133146 g / cm^3
# Si number density = 21.380127 Si / 1000 Ang^3
#
#
#
# Elastic Constant Matrix: (Units=GPa)
#
#
# Indices 1 2 3 4 5 6 
#
# 1 100.6355 26.6735 -1.1848 0.0000 0.0000 0.0000
# 2 26.6735 168.3734 30.7859 0.0000 0.0000 0.0000
# 3 -1.1848 30.7859 79.2495 0.0000 0.0000 0.0000
# 4 0.0000 0.0000 0.0000 7.6870 0.0000 0.0000
# 5 0.0000 0.0000 0.0000 0.0000 12.0105 0.0000
# 6 0.0000 0.0000 0.0000 0.0000 0.0000 18.8942
#
#
#
# Elastic Compliance Matrix: (Units=1/GPa)
#
#
# Indices 1 2 3 4 5 6 
#
# 1 0.010426 -0.001809 0.000859 0.000000 0.000000 0.000000
# 2 -0.001809 0.006707 -0.002633 0.000000 0.000000 0.000000
# 3 0.000859 -0.002633 0.013654 0.000000 0.000000 0.000000
# 4 0.000000 0.000000 0.000000 0.130090 0.000000 0.000000
# 5 0.000000 0.000000 0.000000 0.000000 0.083261 0.000000
# 6 0.000000 0.000000 0.000000 0.000000 0.000000 0.052926
#
#
# Mechanical properties :
#
#
# Convention : Reuss Voigt Hill
#
# Bulk Modulus (GPa) = 42.33371 51.20085 46.76728
# Shear Modulus (GPa) = 16.02034 27.18392 21.60213
#
# Velocity S-wave (km/s) = 2.74032 3.56962 3.18210
# Velocity P-wave (km/s) = 5.46406 6.40230 5.95170
#
# Compressibility (1/GPa) = 0.02362183
#
# Stress axis : x y z
#
# Youngs Moduli (GPa) = 95.91072 149.09681 73.23937
#
# Poissons Ratio (x) = 0.26967 -0.06288
# Poissons Ratio (y) = 0.17347 0.19280
# Poissons Ratio (z) = -0.08234 0.39250
#
# Static dielectric constant tensor:
#      x y z
#    x 1.740650 0.000000 0.000000 
#    y 0.000000 1.769270 0.000000 
#    z 0.000000 0.000000 1.774760 
# 
# From -- ./inp_files/13935.got.cif
#   From: 2010.05.17/outbox.cif.g08.bks.cpg/sg62_7_cif.got.tgz:13935.got - 2010.06.03 15:25:27.
