data_PCOD9467958
_publ_section_title
;
Structure prediction by ZEFSAII (Michael W. Deem and Ramdas Pophale) SiO2 
 PCOD9467958
Probable space group: P N M A
;
_chemical_formula_sum "Si O2"
_cell_formula_units_Z 64
_cell_length_a 18.000000
_cell_length_b 9.000000
_cell_length_c 21.000000
_cell_angle_alpha 90.000000
_cell_angle_beta 90.000000
_cell_angle_gamma 90.000000
_cell_volume 3402.000000
_symmetry_space_group_name_H-M "P N M A"
_symmetry_group_IT_number 62
_symmetry_cell_setting 'orthorhombic'
loop_
_space_group_symop_operation_xyz
x,y,z
1/2-x,-y,1/2+z
1/2+x,1/2-y,1/2-z
-x,1/2+y,-z
-x,-y,-z
1/2+x,y,1/2-z
1/2-x,1/2+y,1/2+z
x,1/2-y,z
loop_
_atom_site_type_symbol
_atom_site_label
_atom_site_fract_x
_atom_site_fract_y
_atom_site_fract_z
Si Si1 0.851476 0.929054 0.682612
Si Si2 0.813620 0.929557 0.535034
Si Si3 0.475736 0.070668 0.203864
Si Si4 0.152195 0.072295 0.960444
Si Si5 0.933425 0.424261 0.154597
Si Si6 0.282421 0.072022 0.692939
Si Si7 0.363346 0.570839 0.107715
Si Si8 0.599490 0.076216 0.400165
O O1 0.842338 0.750000 0.686496
O O2 0.841409 0.970660 0.607221
O O3 0.936524 0.966207 0.702172
O O4 0.797561 0.000587 0.736822
O O5 0.810566 0.750000 0.534266
O O6 0.853901 0.972630 0.467490
O O7 0.732219 0.999165 0.529990
O O8 0.470543 0.250000 0.200790
O O9 0.439342 0.024354 0.271779
O O10 0.433255 0.000758 0.143896
O O11 0.157393 0.250000 0.956756
O O12 0.118122 0.011408 0.894735
O O13 0.106365 0.034807 0.025162
O O14 0.911421 0.250000 0.154911
O O15 0.016032 0.434811 0.125317
O O16 0.282757 0.250000 0.700138
O O17 0.207642 0.030638 0.653020
O O18 0.348097 0.019278 0.645682
O O19 0.369245 0.750000 0.108695
O O20 0.622336 0.250000 0.394516
#
# Coordination Sequence:
#
# PCOD9467958 Si02
#       8
#     8   8   8   8   8   8   8   8
#     4  10  22  42  65  87 116 155 203 245 288 353
#     4  10  22  42  64  85 116 160 198 241 299 351
#     4  10  22  40  62  88 115 154 202 245 290 348
#     4  11  23  36  57  90 123 154 196 248 294 346
#     4  10  21  38  58  83 120 160 199 239 289 355
#     4  11  22  37  61  90 121 154 191 242 296 347
#     4  10  23  41  60  88 123 155 193 244 299 351
#     4  10  20  38  61  85 118 160 199 238 287 352
#
# _framework density 18.812463000000001
#
# number of rings (size 3 to 8) (size 9 to 14) (size 15 to 20)
#    0.000    1.750    2.500    1.125    1.750    4.500 
#    0.000    0.000    0.000    0.000    0.000    0.000 
#    0.000    0.000    0.000    0.000    0.000    0.000 
#
# Total GULP energy -357125.605225 kJ/mol
# GULP energy per Si atom -5580.087582 kJ/mol
# Density = 1.876965 g / cm^3
# Si number density = 18.812463 Si / 1000 Ang^3
#
#
#
# Elastic Constant Matrix: (Units=GPa)
#
#
# Indices 1 2 3 4 5 6 
#
# 1 27.4029 9.8602 19.2516 0.0000 0.0000 0.0000
# 2 9.8602 17.8824 26.8579 0.0000 0.0000 0.0000
# 3 19.2516 26.8579 170.5713 0.0000 0.0000 0.0000
# 4 0.0000 0.0000 0.0000 37.8170 0.0000 0.0000
# 5 0.0000 0.0000 0.0000 0.0000 41.5491 0.0000
# 6 0.0000 0.0000 0.0000 0.0000 0.0000 25.3661
#
#
#
# Elastic Compliance Matrix: (Units=1/GPa)
#
#
# Indices 1 2 3 4 5 6 
#
# 1 0.045841 -0.022928 -0.001564 0.000000 0.000000 0.000000
# 2 -0.022928 0.084709 -0.010750 0.000000 0.000000 0.000000
# 3 -0.001564 -0.010750 0.007732 0.000000 0.000000 0.000000
# 4 0.000000 0.000000 0.000000 0.026443 0.000000 0.000000
# 5 0.000000 0.000000 0.000000 0.000000 0.024068 0.000000
# 6 0.000000 0.000000 0.000000 0.000000 0.000000 0.039423
#
#
# Mechanical properties :
#
#
# Convention : Reuss Voigt Hill
#
# Bulk Modulus (GPa) = 14.74961 36.42179 25.58570
# Shear Modulus (GPa) = 15.56181 31.60557 23.58369
#
# Velocity S-wave (km/s) = 2.87924 4.10327 3.54449
# Velocity P-wave (km/s) = 4.34865 6.46928 5.51191
#
# Compressibility (1/GPa) = 0.06779839
#
# Stress axis : x y z
#
# Youngs Moduli (GPa) = 21.81454 11.80506 129.33446
#
# Poissons Ratio (x) = 0.27066 0.20224
# Poissons Ratio (y) = 0.50016 1.39041
# Poissons Ratio (z) = 0.03411 0.12691
#
# Static dielectric constant tensor:
#      x y z
#    x 1.656090 0.000000 0.000000 
#    y 0.000000 1.635450 0.000000 
#    z 0.000000 0.000000 1.662260 
# 
# From -- ./inp_files/27618.got.cif
#   From: 2010.05.17/outbox.ucp.g08.bks.cvg/sg62_14_cif.got.tgz:27618.got - 2010.06.11 16:29:25.
