data_PCOD9467975
_publ_section_title
;
Structure prediction by ZEFSAII (Michael W. Deem and Ramdas Pophale) SiO2 
 PCOD9467975
Probable space group: P N M A
;
_chemical_formula_sum "Si O2"
_cell_formula_units_Z 64
_cell_length_a 12.000000
_cell_length_b 18.000000
_cell_length_c 15.000000
_cell_angle_alpha 90.000000
_cell_angle_beta 90.000000
_cell_angle_gamma 90.000000
_cell_volume 3240.000000
_symmetry_space_group_name_H-M "P N M A"
_symmetry_group_IT_number 62
_symmetry_cell_setting 'orthorhombic'
loop_
_space_group_symop_operation_xyz
x,y,z
1/2-x,-y,1/2+z
1/2+x,1/2-y,1/2-z
-x,1/2+y,-z
-x,-y,-z
1/2+x,y,1/2-z
1/2-x,1/2+y,1/2+z
x,1/2-y,z
loop_
_atom_site_type_symbol
_atom_site_label
_atom_site_fract_x
_atom_site_fract_y
_atom_site_fract_z
Si Si1 0.638558 0.661123 0.895309
Si Si2 0.167067 0.338199 0.968136
Si Si3 0.420213 0.597587 0.991718
Si Si4 0.387425 0.443228 0.270027
Si Si5 0.548253 0.580776 0.525813
Si Si6 0.056985 0.981621 0.355900
Si Si7 0.242823 0.404768 0.784224
Si Si8 0.724879 0.664958 0.407861
O O1 0.642634 0.750000 0.884740
O O2 0.523086 0.636117 0.941388
O O3 0.649609 0.620486 0.799768
O O4 0.733041 0.637062 0.966194
O O5 0.174354 0.250000 0.959557
O O6 0.176473 0.371813 0.868689
O O7 0.054150 0.362941 0.015236
O O8 0.374529 0.538523 0.919085
O O9 0.463972 0.550834 0.077028
O O10 0.332791 0.655454 0.029567
O O11 0.406010 0.420233 0.372708
O O12 0.501282 0.475266 0.226033
O O13 0.303697 0.512872 0.265815
O O14 0.500000 0.500000 0.500000
O O15 0.637847 0.608165 0.452871
O O16 0.131730 0.915614 0.319294
O O17 0.244125 0.358381 0.693134
O O18 0.684454 0.750000 0.409181
#
# Coordination Sequence:
#
# PCOD9467975 Si02
#       8
#     8   8   8   8   8   8   8   8
#     4  10  23  43  68  97 131 172 218 273 336 400
#     4  11  25  45  67  96 135 175 220 272 333 402
#     4  10  20  41  68  92 128 166 218 274 329 383
#     4  11  24  40  69  99 127 171 224 276 328 400
#     4  12  26  45  69  97 133 182 221 272 331 400
#     4  10  21  38  64  99 121 164 221 278 316 384
#     4  12  23  40  67  97 130 173 220 272 329 400
#     4  12  27  43  64  97 137 175 216 275 341 398
#
# _framework density 19.753086
#
# number of rings (size 3 to 8) (size 9 to 14) (size 15 to 20)
#    0.000    1.000    3.750    2.625    3.500    1.000 
#    0.000    0.000    0.000    0.000    0.000    0.000 
#    0.000    0.000    0.000    0.000    0.000    0.000 
#
# Total GULP energy -357571.536694 kJ/mol
# GULP energy per Si atom -5587.055261 kJ/mol
# Density = 1.970813 g / cm^3
# Si number density = 19.753086 Si / 1000 Ang^3
#
#
#
# Elastic Constant Matrix: (Units=GPa)
#
#
# Indices 1 2 3 4 5 6 
#
# 1 52.1858 12.3903 27.1017 0.0000 0.0000 0.0000
# 2 12.3903 77.8136 46.2048 0.0000 0.0000 0.0000
# 3 27.1017 46.2048 138.2887 0.0000 0.0000 0.0000
# 4 0.0000 0.0000 0.0000 33.5477 0.0000 0.0000
# 5 0.0000 0.0000 0.0000 0.0000 27.1073 0.0000
# 6 0.0000 0.0000 0.0000 0.0000 0.0000 31.4705
#
#
#
# Elastic Compliance Matrix: (Units=1/GPa)
#
#
# Indices 1 2 3 4 5 6 
#
# 1 0.021415 -0.001145 -0.003814 0.000000 0.000000 0.000000
# 2 -0.001145 0.016093 -0.005153 0.000000 0.000000 0.000000
# 3 -0.003814 -0.005153 0.009700 0.000000 0.000000 0.000000
# 4 0.000000 0.000000 0.000000 0.029808 0.000000 0.000000
# 5 0.000000 0.000000 0.000000 0.000000 0.036890 0.000000
# 6 0.000000 0.000000 0.000000 0.000000 0.000000 0.031776
#
#
# Mechanical properties :
#
#
# Convention : Reuss Voigt Hill
#
# Bulk Modulus (GPa) = 37.05819 48.85352 42.95585
# Shear Modulus (GPa) = 28.58745 30.59783 29.59264
#
# Velocity S-wave (km/s) = 3.80839 3.94002 3.87476
# Velocity P-wave (km/s) = 6.17575 6.74419 6.46622
#
# Compressibility (1/GPa) = 0.02698459
#
# Stress axis : x y z
#
# Youngs Moduli (GPa) = 46.69613 62.13843 103.08897
#
# Poissons Ratio (x) = 0.07115 0.39322
# Poissons Ratio (y) = 0.05347 0.53118
# Poissons Ratio (z) = 0.17811 0.32017
#
# Static dielectric constant tensor:
#      x y z
#    x 1.749660 0.000000 0.000000 
#    y 0.000000 1.694950 0.000000 
#    z 0.000000 0.000000 1.673040 
# 
# From -- ./inp_files/18263.got.cif
#   From: 2010.05.17/outbox.ucp.g08.bks.cvg/sg62_10_cif.got.tgz:18263.got - 2010.06.11 16:29:25.
