data_PCOD9467176
_publ_section_title
;
Structure prediction by ZEFSAII (Michael W. Deem and Ramdas Pophale) SiO2 
 PCOD9467176
Probable space group: P N M A
;
_chemical_formula_sum "Si O2"
_cell_formula_units_Z 60
_cell_length_a 18.038048
_cell_length_b 9.456248
_cell_length_c 16.654253
_cell_angle_alpha 90.000000
_cell_angle_beta 90.000000
_cell_angle_gamma 90.000000
_cell_volume 2840.753495
_symmetry_space_group_name_H-M "P N M A"
_symmetry_group_IT_number 62
_symmetry_cell_setting 'orthorhombic'
loop_
_space_group_symop_operation_xyz
x,y,z
1/2-x,-y,1/2+z
1/2+x,1/2-y,1/2-z
-x,1/2+y,-z
-x,-y,-z
1/2+x,y,1/2-z
1/2-x,1/2+y,1/2+z
x,1/2-y,z
loop_
_atom_site_type_symbol
_atom_site_label
_atom_site_fract_x
_atom_site_fract_y
_atom_site_fract_z
Si Si1 0.420359 0.090447 0.315363
Si Si2 0.415311 0.583029 0.616722
Si Si3 0.839134 0.414010 0.017629
Si Si4 0.798741 0.411202 0.457583
Si Si5 0.837233 0.415606 0.743305
Si Si6 0.073563 0.529005 0.419532
Si Si7 0.971085 0.750000 0.487540
Si Si8 0.673536 0.413727 0.796706
O O1 0.416975 0.250000 0.280631
O O2 0.501779 0.067172 0.350417
O O3 0.365116 0.084829 0.390942
O O4 0.395237 0.975391 0.251823
O O5 0.401908 0.750000 0.604248
O O6 0.399673 0.494015 0.536754
O O7 0.362459 0.515267 0.683926
O O8 0.830877 0.250000 0.991956
O O9 0.763781 0.499431 0.003522
O O10 0.774652 0.250000 0.443341
O O11 0.871885 0.408970 0.511836
O O12 0.814132 0.492420 0.375289
O O13 0.854460 0.250000 0.759923
O O14 0.881245 0.459985 0.663424
O O15 0.747801 0.425179 0.741696
O O16 0.053846 0.373148 0.447939
O O17 0.001121 0.626213 0.424799
O O18 0.664660 0.250000 0.819850
#
# Coordination Sequence:
#
# PCOD9467176 Si02
#       8
#     8   8   8   8   8   8   4   8
#     4  10  24  44  65  98 133 171 216 270 329 395
#     4  11  24  42  66  98 134 175 218 266 332 390
#     4  11  23  42  69  97 132 170 218 273 328 393
#     4  12  24  43  68  95 132 175 220 278 333 391
#     4  11  23  44  67  93 133 173 221 269 330 398
#     4  11  24  45  69  96 131 179 222 277 336 400
#     4  10  24  44  64  96 130 164 226 276 330 398
#     4  11  25  43  66  98 134 172 223 275 327 393
#
# _framework density 21.121157
#
# number of rings (size 3 to 8) (size 9 to 14) (size 15 to 20)
#    0.000    1.067    2.667    2.800    2.800    5.867 
#    2.400    0.000    0.000    0.000    0.000    0.000 
#    0.000    0.000    0.000    0.000    0.000    0.000 
#
# Total GULP energy -334592.964886 kJ/mol
# GULP energy per Si atom -5576.549415 kJ/mol
# Density = 2.107308 g / cm^3
# Si number density = 21.121157 Si / 1000 Ang^3
#
#
#
# Elastic Constant Matrix: (Units=GPa)
#
#
# Indices 1 2 3 4 5 6 
#
# 1 33.2003 27.2214 -0.4375 0.0000 0.0000 0.0000
# 2 27.2214 158.7913 15.3980 0.0000 0.0000 0.0000
# 3 -0.4375 15.3980 35.8643 0.0000 0.0000 0.0000
# 4 0.0000 0.0000 0.0000 23.9702 0.0000 0.0000
# 5 0.0000 0.0000 0.0000 0.0000 24.0419 0.0000
# 6 0.0000 0.0000 0.0000 0.0000 0.0000 6.2592
#
#
#
# Elastic Compliance Matrix: (Units=1/GPa)
#
#
# Indices 1 2 3 4 5 6 
#
# 1 0.035388 -0.006374 0.003168 0.000000 0.000000 0.000000
# 2 -0.006374 0.007719 -0.003392 0.000000 0.000000 0.000000
# 3 0.003168 -0.003392 0.029378 0.000000 0.000000 0.000000
# 4 0.000000 0.000000 0.000000 0.041718 0.000000 0.000000
# 5 0.000000 0.000000 0.000000 0.000000 0.041594 0.000000
# 6 0.000000 0.000000 0.000000 0.000000 0.000000 0.159764
#
#
# Mechanical properties :
#
#
# Convention : Reuss Voigt Hill
#
# Bulk Modulus (GPa) = 16.86627 34.69108 25.77868
# Shear Modulus (GPa) = 14.34641 23.23254 18.78948
#
# Velocity S-wave (km/s) = 2.60906 3.32017 2.98586
# Velocity P-wave (km/s) = 4.13268 5.58198 4.91109
#
# Compressibility (1/GPa) = 0.05928994
#
# Stress axis : x y z
#
# Youngs Moduli (GPa) = 28.25823 129.54827 34.03933
#
# Poissons Ratio (x) = 0.82571 -0.10784
# Poissons Ratio (y) = 0.18011 0.11546
# Poissons Ratio (z) = -0.08953 0.43941
#
# Static dielectric constant tensor:
#      x y z
#    x 1.810600 0.000000 0.000000 
#    y 0.000000 1.719530 0.000000 
#    z 0.000000 0.000000 1.694350 
# 
# From -- ./inp_files/24377.got.cif
#   From: 2010.05.17/outbox.cif.g08.bks.cpg/sg62_13_cif.got.tgz:24377.got - 2010.06.03 15:25:27.
