data_PCOD9467160
_publ_section_title
;
Structure prediction by ZEFSAII (Michael W. Deem and Ramdas Pophale) SiO2 
 PCOD9467160
Probable space group: P N M A
;
_chemical_formula_sum "Si O2"
_cell_formula_units_Z 56
_cell_length_a 21.856388
_cell_length_b 8.597457
_cell_length_c 14.848151
_cell_angle_alpha 90.000000
_cell_angle_beta 90.000000
_cell_angle_gamma 90.000000
_cell_volume 2790.106492
_symmetry_space_group_name_H-M "P N M A"
_symmetry_group_IT_number 62
_symmetry_cell_setting 'orthorhombic'
loop_
_space_group_symop_operation_xyz
x,y,z
1/2-x,-y,1/2+z
1/2+x,1/2-y,1/2-z
-x,1/2+y,-z
-x,-y,-z
1/2+x,y,1/2-z
1/2-x,1/2+y,1/2+z
x,1/2-y,z
loop_
_atom_site_type_symbol
_atom_site_label
_atom_site_fract_x
_atom_site_fract_y
_atom_site_fract_z
Si Si1 0.278503 0.432934 0.817540
Si Si2 0.613940 0.064470 0.299437
Si Si3 0.430849 0.437552 0.510813
Si Si4 0.850472 0.932781 0.517248
Si Si5 0.354038 0.432694 0.334276
Si Si6 0.587589 0.569009 0.857729
Si Si7 0.956752 0.068031 0.633300
O O1 0.210889 0.750000 0.307854
O O2 0.320072 0.518498 0.742389
O O3 0.302525 0.489250 0.915132
O O4 0.207505 0.473929 0.814637
O O5 0.606519 0.250000 0.294657
O O6 0.600648 0.005124 0.399575
O O7 0.565502 0.982735 0.232429
O O8 0.500000 0.500000 0.500000
O O9 0.432811 0.250000 0.515976
O O10 0.390637 0.481441 0.423351
O O11 0.839320 0.750000 0.510998
O O12 0.856978 0.009499 0.419695
O O13 0.915166 0.968066 0.566025
O O14 0.337528 0.250000 0.344627
O O15 0.396637 0.445959 0.246919
O O16 0.575696 0.750000 0.878136
O O17 0.527417 0.470255 0.877896
O O18 0.944400 0.250000 0.618985
#
# Coordination Sequence:
#
# PCOD9467160 Si02
#       7
#     8   8   8   8   8   8   8
#     4  11  23  41  64  89 117 152 199 251 300 356
#     4  11  22  39  63  89 121 161 201 245 301 361
#     4  11  23  41  65  94 126 162 208 257 309 366
#     4  11  22  38  60  86 119 157 195 237 290 351
#     4  10  24  43  62  85 118 158 198 247 300 355
#     4  11  22  38  59  86 119 154 194 238 292 350
#     4  11  21  36  59  89 122 154 194 241 291 349
#
# _framework density 20.070917999999999
#
# number of rings (size 3 to 8) (size 9 to 14) (size 15 to 20)
#    0.000    1.143    0.000    9.000    0.000    4.571 
#    0.000    0.000    0.000    0.000    0.000    0.000 
#    0.000    0.000    0.000    0.000    0.000    0.000 
#
# Total GULP energy -313227.539458 kJ/mol
# GULP energy per Si atom -5593.348919 kJ/mol
# Density = 2.002524 g / cm^3
# Si number density = 20.070918 Si / 1000 Ang^3
#
#
#
# Elastic Constant Matrix: (Units=GPa)
#
#
# Indices 1 2 3 4 5 6 
#
# 1 48.0370 2.3681 -14.2141 0.0000 0.0000 0.0000
# 2 2.3681 54.7974 3.9426 0.0000 0.0000 0.0000
# 3 -14.2141 3.9426 92.9305 0.0000 0.0000 0.0000
# 4 0.0000 0.0000 0.0000 30.9864 0.0000 0.0000
# 5 0.0000 0.0000 0.0000 0.0000 6.1818 0.0000
# 6 0.0000 0.0000 0.0000 0.0000 0.0000 32.9222
#
#
#
# Elastic Compliance Matrix: (Units=1/GPa)
#
#
# Indices 1 2 3 4 5 6 
#
# 1 0.021881 -0.001190 0.003397 0.000000 0.000000 0.000000
# 2 -0.001190 0.018370 -0.000961 0.000000 0.000000 0.000000
# 3 0.003397 -0.000961 0.011321 0.000000 0.000000 0.000000
# 4 0.000000 0.000000 0.000000 0.032272 0.000000 0.000000
# 5 0.000000 0.000000 0.000000 0.000000 0.161765 0.000000
# 6 0.000000 0.000000 0.000000 0.000000 0.000000 0.030375
#
#
# Mechanical properties :
#
#
# Convention : Reuss Voigt Hill
#
# Bulk Modulus (GPa) = 18.49666 19.99534 19.24600
# Shear Modulus (GPa) = 17.15186 27.59595 22.37390
#
# Velocity S-wave (km/s) = 2.92646 3.71202 3.34240
# Velocity P-wave (km/s) = 4.54473 5.32504 4.95028
#
# Compressibility (1/GPa) = 0.05406381
#
# Stress axis : x y z
#
# Youngs Moduli (GPa) = 45.70128 54.43765 88.33022
#
# Poissons Ratio (x) = 0.06478 -0.30009
# Poissons Ratio (y) = 0.05439 0.08492
# Poissons Ratio (z) = -0.15526 0.05233
#
# Static dielectric constant tensor:
#      x y z
#    x 1.693650 0.000000 0.000000 
#    y 0.000000 1.678890 0.000000 
#    z 0.000000 0.000000 1.719760 
# 
# From -- ./inp_files/20362.got.cif
#   From: 2010.05.17/outbox.cif.g08.bks.cpg/sg62_11_cif.got.tgz:20362.got - 2010.06.03 15:25:27.
