data_PCOD9467574
_publ_section_title
;
Structure prediction by ZEFSAII (Michael W. Deem and Ramdas Pophale) SiO2 
 PCOD9467574
Probable space group: P N M A
;
_chemical_formula_sum "Si O2"
_cell_formula_units_Z 48
_cell_length_a 18.855982
_cell_length_b 8.550219
_cell_length_c 14.843300
_cell_angle_alpha 90.000000
_cell_angle_beta 90.000000
_cell_angle_gamma 90.000000
_cell_volume 2393.078024
_symmetry_space_group_name_H-M "P N M A"
_symmetry_group_IT_number 62
_symmetry_cell_setting 'orthorhombic'
loop_
_space_group_symop_operation_xyz
x,y,z
1/2-x,-y,1/2+z
1/2+x,1/2-y,1/2-z
-x,1/2+y,-z
-x,-y,-z
1/2+x,y,1/2-z
1/2-x,1/2+y,1/2+z
x,1/2-y,z
loop_
_atom_site_type_symbol
_atom_site_label
_atom_site_fract_x
_atom_site_fract_y
_atom_site_fract_z
Si Si1 0.915409 0.063785 0.241142
Si Si2 0.209724 0.064107 0.449808
Si Si3 0.526233 0.563025 0.403748
Si Si4 0.934503 0.562367 0.441787
Si Si5 0.815973 0.565114 0.905554
Si Si6 0.259868 0.933653 0.267332
O O1 0.907978 0.250000 0.234694
O O2 0.932782 0.014919 0.343524
O O3 0.840908 0.983473 0.215861
O O4 0.976248 0.005657 0.174037
O O5 0.211373 0.250000 0.433206
O O6 0.138597 0.026787 0.505529
O O7 0.276303 0.014463 0.510678
O O8 0.214754 0.974774 0.355591
O O9 0.500000 0.500000 0.500000
O O10 0.522575 0.750000 0.402390
O O11 0.606695 0.506839 0.391293
O O12 0.938983 0.750000 0.431635
O O13 0.000000 0.500000 0.500000
O O14 0.821245 0.750000 0.920981
O O15 0.769325 0.529055 0.817516
O O16 0.256528 0.750000 0.246417
#
# Coordination Sequence:
#
# PCOD9467574 Si02
#       6
#     8   8   8   8   8   8
#     4  12  25  45  71 100 137 178 224 276 335 398
#     4  11  24  44  69  98 134 176 223 275 333 397
#     4  12  26  46  70  99 136 177 223 276 334 398
#     4  11  25  44  68  97 136 178 225 276 334 399
#     4  12  25  44  69 100 135 174 222 275 333 396
#     4  12  25  43  68  99 134 176 223 273 333 396
#
# _framework density 20.057852
#
# number of rings (size 3 to 8) (size 9 to 14) (size 15 to 20)
#    0.000    0.333    1.667    8.000    2.333    2.000 
#    0.000    0.000    0.000    0.000    0.000    0.000 
#    0.000    0.000    0.000    0.000    0.000    0.000 
#
# Total GULP energy -268926.908096 kJ/mol
# GULP energy per Si atom -5602.643919 kJ/mol
# Density = 2.001220 g / cm^3
# Si number density = 20.057852 Si / 1000 Ang^3
#
#
#
# Elastic Constant Matrix: (Units=GPa)
#
#
# Indices 1 2 3 4 5 6 
#
# 1 74.9282 16.4986 3.9448 0.0000 0.0000 0.0000
# 2 16.4986 82.3423 -1.5365 0.0000 0.0000 0.0000
# 3 3.9448 -1.5365 49.8176 0.0000 0.0000 0.0000
# 4 0.0000 0.0000 0.0000 42.0100 0.0000 0.0000
# 5 0.0000 0.0000 0.0000 0.0000 41.0075 0.0000
# 6 0.0000 0.0000 0.0000 0.0000 0.0000 36.8323
#
#
#
# Elastic Compliance Matrix: (Units=1/GPa)
#
#
# Indices 1 2 3 4 5 6 
#
# 1 0.014033 -0.002834 -0.001199 0.000000 0.000000 0.000000
# 2 -0.002834 0.012724 0.000617 0.000000 0.000000 0.000000
# 3 -0.001199 0.000617 0.020187 0.000000 0.000000 0.000000
# 4 0.000000 0.000000 0.000000 0.023804 0.000000 0.000000
# 5 0.000000 0.000000 0.000000 0.000000 0.024386 0.000000
# 6 0.000000 0.000000 0.000000 0.000000 0.000000 0.027150
#
#
# Mechanical properties :
#
#
# Convention : Reuss Voigt Hill
#
# Bulk Modulus (GPa) = 24.92995 27.21132 26.07063
# Shear Modulus (GPa) = 35.09101 36.51538 35.80319
#
# Velocity S-wave (km/s) = 4.18723 4.27136 4.22951
# Velocity P-wave (km/s) = 5.98608 6.15808 6.07269
#
# Compressibility (1/GPa) = 0.04011240
#
# Stress axis : x y z
#
# Youngs Moduli (GPa) = 71.25919 78.59283 49.53638
#
# Poissons Ratio (x) = 0.22274 0.05938
# Poissons Ratio (y) = 0.20196 -0.03056
# Poissons Ratio (z) = 0.08541 -0.04848
#
# Static dielectric constant tensor:
#      x y z
#    x 1.692500 0.000000 0.000000 
#    y 0.000000 1.665230 0.000000 
#    z 0.000000 0.000000 1.677110 
# 
# From -- ./inp_files/19557.got.cif
#   From: 2010.05.17/outbox.cif.g08.bks.cpg/sg62_10_cif.got.tgz:19557.got - 2010.06.03 15:25:27.
