data_PCOD9467806
_publ_section_title
;
Structure prediction by ZEFSAII (Michael W. Deem and Ramdas Pophale) SiO2 
 PCOD9467806
Probable space group: P N M A
;
_chemical_formula_sum "Si O2"
_cell_formula_units_Z 56
_cell_length_a 21.000000
_cell_length_b 9.000000
_cell_length_c 15.000000
_cell_angle_alpha 90.000000
_cell_angle_beta 90.000000
_cell_angle_gamma 90.000000
_cell_volume 2835.000000
_symmetry_space_group_name_H-M "P N M A"
_symmetry_group_IT_number 62
_symmetry_cell_setting 'orthorhombic'
loop_
_space_group_symop_operation_xyz
x,y,z
1/2-x,-y,1/2+z
1/2+x,1/2-y,1/2-z
-x,1/2+y,-z
-x,-y,-z
1/2+x,y,1/2-z
1/2-x,1/2+y,1/2+z
x,1/2-y,z
loop_
_atom_site_type_symbol
_atom_site_label
_atom_site_fract_x
_atom_site_fract_y
_atom_site_fract_z
Si Si1 0.330454 0.073289 0.680928
Si Si2 0.811280 0.069054 0.010748
Si Si3 0.401459 0.915346 0.014979
Si Si4 0.987741 0.086727 0.374323
Si Si5 0.023166 0.922112 0.208617
Si Si6 0.198479 0.429046 0.367780
Si Si7 0.050051 0.926221 0.934835
O O1 0.321219 0.250000 0.690824
O O2 0.296900 0.020911 0.590211
O O3 0.406496 0.049339 0.670506
O O4 0.310772 0.994347 0.770929
O O5 0.810538 0.250000 0.007861
O O6 0.763993 0.024136 0.087713
O O7 0.880888 0.019974 0.038100
O O8 0.380701 0.750000 0.045250
O O9 0.466182 0.896565 0.958830
O O10 0.352662 0.975266 0.942271
O O11 0.419951 0.024145 0.094383
O O12 0.983816 0.250000 0.332326
O O13 0.021187 0.967826 0.311020
O O14 0.008922 0.750000 0.195275
O O15 0.970685 0.022304 0.162103
O O16 0.193627 0.250000 0.361787
O O17 0.047737 0.750000 0.943711
O O18 0.000000 0.000000 0.000000
#
# Coordination Sequence:
#
# PCOD9467806 Si02
#       7
#     8   8   8   8   8   8   8
#     4  10  20  37  60  84 112 149 192 234 285 342
#     4   9  20  40  61  82 115 153 187 235 296 344
#     4   9  18  32  52  80 111 146 186 230 282 337
#     4  10  19  32  52  81 113 146 187 234 283 332
#     4  11  21  35  57  84 113 148 188 234 286 341
#     4  10  20  38  62  84 113 153 196 237 284 346
#     4  11  21  37  60  86 115 147 185 235 293 344
#
# _framework density 19.753086
#
# number of rings (size 3 to 8) (size 9 to 14) (size 15 to 20)
#    0.000    2.000    2.857    1.286    0.000    1.714 
#    2.571    2.143    0.000    0.000    0.000    0.000 
#    0.000    0.000    0.000    0.000    0.000    0.000 
#
# Total GULP energy -311847.523064 kJ/mol
# GULP energy per Si atom -5568.705769 kJ/mol
# Density = 1.970813 g / cm^3
# Si number density = 19.753086 Si / 1000 Ang^3
#
#
#
# Elastic Constant Matrix: (Units=GPa)
#
#
# Indices 1 2 3 4 5 6 
#
# 1 50.0705 35.4596 -0.8456 0.0000 0.0000 0.0000
# 2 35.4596 13.0009 26.9979 0.0000 0.0000 0.0000
# 3 -0.8456 26.9979 -25.0501 0.0000 0.0000 0.0000
# 4 0.0000 0.0000 0.0000 29.0696 0.0000 0.0000
# 5 0.0000 0.0000 0.0000 0.0000 -14.7480 0.0000
# 6 0.0000 0.0000 0.0000 0.0000 0.0000 6.8371
#
#
#
# Elastic Compliance Matrix: (Units=1/GPa)
#
#
# Indices 1 2 3 4 5 6 
#
# 1 0.045984 -0.037738 -0.042224 0.000000 0.000000 0.000000
# 2 -0.037738 0.054724 0.060253 0.000000 0.000000 0.000000
# 3 -0.042224 0.060253 0.026443 0.000000 0.000000 0.000000
# 4 0.000000 0.000000 0.000000 0.034400 0.000000 0.000000
# 5 0.000000 0.000000 0.000000 0.000000 -0.067806 0.000000
# 6 0.000000 0.000000 0.000000 0.000000 0.000000 0.146260
#
#
# Mechanical properties :
#
#
# Convention : Reuss Voigt Hill
#
# Bulk Modulus (GPa) = 11.39812 17.91614 14.65713
# Shear Modulus (GPa) = 16.19862 2.65903 9.42882
#
# Velocity S-wave (km/s) = 2.86677 1.16149 2.18717
# Velocity P-wave (km/s) = 4.09153 3.29977 3.71679
#
# Compressibility (1/GPa) = 0.08773378
#
# Stress axis : x y z
#
# Youngs Moduli (GPa) = 21.74652 18.27350 37.81686
#
# Poissons Ratio (x) = 0.68960 1.59679
# Poissons Ratio (y) = 0.82066 -2.27858
# Poissons Ratio (z) = 0.91823 -1.10103
#
# Static dielectric constant tensor:
#      x y z
#    x 1.903920 0.000000 0.000000 
#    y 0.000000 1.717180 0.000000 
#    z 0.000000 0.000000 1.805350 
# 
# From -- ./inp_files/20283.got.cif
#   From: 2010.05.17/outbox.ucp.g08.bks.cvg/sg62_11_cif.got.tgz:20283.got - 2010.06.11 16:29:25.
