data_PCOD9467066
_publ_section_title
;
Structure prediction by ZEFSAII (Michael W. Deem and Ramdas Pophale) SiO2 
 PCOD9467066
Probable space group: P N M A
;
_chemical_formula_sum "Si O2"
_cell_formula_units_Z 40
_cell_length_a 18.271232
_cell_length_b 8.513570
_cell_length_c 12.527004
_cell_angle_alpha 90.000000
_cell_angle_beta 90.000000
_cell_angle_gamma 90.000000
_cell_volume 1948.618222
_symmetry_space_group_name_H-M "P N M A"
_symmetry_group_IT_number 62
_symmetry_cell_setting 'orthorhombic'
loop_
_space_group_symop_operation_xyz
x,y,z
1/2-x,-y,1/2+z
1/2+x,1/2-y,1/2-z
-x,1/2+y,-z
-x,-y,-z
1/2+x,y,1/2-z
1/2-x,1/2+y,1/2+z
x,1/2-y,z
loop_
_atom_site_type_symbol
_atom_site_label
_atom_site_fract_x
_atom_site_fract_y
_atom_site_fract_z
Si Si1 0.791590 0.566393 0.608486
Si Si2 0.877697 0.435329 0.799101
Si Si3 0.046242 0.060933 0.762082
Si Si4 0.421154 0.436104 0.037677
Si Si5 0.639426 0.064840 0.533661
O O1 0.775409 0.750000 0.597183
O O2 0.820183 0.528028 0.726962
O O3 0.857199 0.517654 0.529328
O O4 0.719838 0.468570 0.579449
O O5 0.867316 0.250000 0.780715
O O6 0.960130 0.476852 0.762989
O O7 0.870414 0.473782 0.923391
O O8 0.053774 0.250000 0.749647
O O9 0.081950 0.016624 0.874886
O O10 0.084385 0.977254 0.662645
O O11 0.418115 0.250000 0.019762
O O12 0.500000 0.500000 0.000000
O O13 0.629805 0.250000 0.513117
#
# Coordination Sequence:
#
# PCOD9467066 Si02
#       5
#     8   8   8   8   8
#     4  12  26  44  66  95 132 175 222 273 330 389
#     4  11  23  43  69  97 132 173 218 270 328 393
#     4  10  23  43  69  98 132 171 217 269 327 390
#     4  12  24  41  67  97 131 170 219 271 326 389
#     4  11  25  44  67  97 134 175 219 270 330 394
#
# _framework density 20.527366000000001
#
# number of rings (size 3 to 8) (size 9 to 14) (size 15 to 20)
#    0.000    0.800    2.000    5.400    2.800    2.400 
#    0.000    0.000    0.000    0.000    0.000    0.000 
#    0.000    0.000    0.000    0.000    0.000    0.000 
#
# Total GULP energy -223969.048394 kJ/mol
# GULP energy per Si atom -5599.226210 kJ/mol
# Density = 2.048064 g / cm^3
# Si number density = 20.527366 Si / 1000 Ang^3
#
#
#
# Elastic Constant Matrix: (Units=GPa)
#
#
# Indices 1 2 3 4 5 6 
#
# 1 29.3729 -12.1941 -12.5524 0.0000 0.0000 0.0000
# 2 -12.1941 29.7278 1.7398 0.0000 0.0000 0.0000
# 3 -12.5524 1.7398 91.5676 0.0000 0.0000 0.0000
# 4 0.0000 0.0000 0.0000 21.8386 0.0000 0.0000
# 5 0.0000 0.0000 0.0000 0.0000 13.7057 0.0000
# 6 0.0000 0.0000 0.0000 0.0000 0.0000 24.1963
#
#
#
# Elastic Compliance Matrix: (Units=1/GPa)
#
#
# Indices 1 2 3 4 5 6 
#
# 1 0.043785 0.017629 0.005667 0.000000 0.000000 0.000000
# 2 0.017629 0.040774 0.001642 0.000000 0.000000 0.000000
# 3 0.005667 0.001642 0.011667 0.000000 0.000000 0.000000
# 4 0.000000 0.000000 0.000000 0.045791 0.000000 0.000000
# 5 0.000000 0.000000 0.000000 0.000000 0.072963 0.000000
# 6 0.000000 0.000000 0.000000 0.000000 0.000000 0.041329
#
#
# Mechanical properties :
#
#
# Convention : Reuss Voigt Hill
#
# Bulk Modulus (GPa) = 6.84454 11.62832 9.23643
# Shear Modulus (GPa) = 19.59769 23.52643 21.56206
#
# Velocity S-wave (km/s) = 3.09319 3.38908 3.24451
# Velocity P-wave (km/s) = 4.01232 4.58166 4.30641
#
# Compressibility (1/GPa) = 0.14610184
#
# Stress axis : x y z
#
# Youngs Moduli (GPa) = 22.83863 24.52562 85.71489
#
# Poissons Ratio (x) = -0.43236 -0.48577
# Poissons Ratio (y) = -0.40262 -0.14074
# Poissons Ratio (z) = -0.12943 -0.04027
#
# Static dielectric constant tensor:
#      x y z
#    x 1.695460 0.000000 0.000000 
#    y 0.000000 1.682350 0.000000 
#    z 0.000000 0.000000 1.719650 
# 
# From -- ./inp_files/13851.got.cif
#   From: 2010.05.17/outbox.cif.g08.bks.cpg/sg62_7_cif.got.tgz:13851.got - 2010.06.03 15:25:27.
