data_PCOD9467530
_publ_section_title
;
Structure prediction by ZEFSAII (Michael W. Deem and Ramdas Pophale) SiO2 
 PCOD9467530
Probable space group: P N M A
;
_chemical_formula_sum "Si O2"
_cell_formula_units_Z 44
_cell_length_a 18.238055
_cell_length_b 14.446397
_cell_length_c 8.930097
_cell_angle_alpha 90.000000
_cell_angle_beta 90.000000
_cell_angle_gamma 90.000000
_cell_volume 2352.850012
_symmetry_space_group_name_H-M "P N M A"
_symmetry_group_IT_number 62
_symmetry_cell_setting 'orthorhombic'
loop_
_space_group_symop_operation_xyz
x,y,z
1/2-x,-y,1/2+z
1/2+x,1/2-y,1/2-z
-x,1/2+y,-z
-x,-y,-z
1/2+x,y,1/2-z
1/2-x,1/2+y,1/2+z
x,1/2-y,z
loop_
_atom_site_type_symbol
_atom_site_label
_atom_site_fract_x
_atom_site_fract_y
_atom_site_fract_z
Si Si1 0.778792 0.903597 0.861704
Si Si2 0.396128 0.750000 0.550816
Si Si3 0.812401 0.423497 0.657040
Si Si4 0.754130 0.750000 0.334967
Si Si5 0.474535 0.396397 0.964684
Si Si6 0.195012 0.750000 0.828937
Si Si7 0.073166 0.250000 0.704002
Si Si8 0.967326 0.250000 0.272552
O O1 0.844331 0.838834 0.921694
O O2 0.727315 0.838291 0.759656
O O3 0.808489 0.986805 0.761414
O O4 0.732025 0.938857 0.002970
O O5 0.426757 0.750000 0.383174
O O6 0.461815 0.750000 0.668671
O O7 0.774120 0.338956 0.743847
O O8 0.895534 0.398314 0.614817
O O9 0.722229 0.750000 0.501560
O O10 0.841995 0.750000 0.343761
O O11 0.531898 0.339456 0.863023
O O12 0.500000 0.500000 0.000000
O O13 0.468087 0.338433 0.117900
O O14 0.107627 0.750000 0.819679
#
# Coordination Sequence:
#
# PCOD9467530 Si02
#       8
#     8   4   8   4   8   4   4   4
#     4  11  24  43  70  98 133 173 227 279 333 406
#     4  11  24  45  66  99 136 175 226 282 330 395
#     4  12  24  45  67  98 132 177 221 281 341 403
#     4  12  25  43  70  96 137 177 229 279 339 397
#     4  11  26  44  68  98 136 177 224 273 346 409
#     4  11  24  41  69  97 129 174 222 276 334 401
#     4  11  26  45  69  97 135 180 222 277 336 403
#     4  11  23  44  68  95 137 178 219 278 337 404
#
# _framework density 18.700724000000001
#
# number of rings (size 3 to 8) (size 9 to 14) (size 15 to 20)
#    0.000    0.727    3.636    3.818   12.727    0.000 
#    3.273    1.818    0.000    0.000    0.000    0.000 
#    0.000    0.000    0.000    0.000    0.000    0.000 
#
# Total GULP energy -246189.318869 kJ/mol
# GULP energy per Si atom -5595.211792 kJ/mol
# Density = 1.865816 g / cm^3
# Si number density = 18.700724 Si / 1000 Ang^3
#
#
#
# Elastic Constant Matrix: (Units=GPa)
#
#
# Indices 1 2 3 4 5 6 
#
# 1 180.6218 67.1823 76.6418 0.0000 0.0000 0.0000
# 2 67.1823 129.0874 50.8770 0.0000 0.0000 0.0000
# 3 76.6418 50.8770 138.7750 0.0000 0.0000 0.0000
# 4 0.0000 0.0000 0.0000 22.0188 0.0000 0.0000
# 5 0.0000 0.0000 0.0000 0.0000 46.2860 0.0000
# 6 0.0000 0.0000 0.0000 0.0000 0.0000 15.0693
#
#
#
# Elastic Compliance Matrix: (Units=1/GPa)
#
#
# Indices 1 2 3 4 5 6 
#
# 1 0.008035 -0.002844 -0.003395 0.000000 0.000000 0.000000
# 2 -0.002844 0.010061 -0.002118 0.000000 0.000000 0.000000
# 3 -0.003395 -0.002118 0.009857 0.000000 0.000000 0.000000
# 4 0.000000 0.000000 0.000000 0.045416 0.000000 0.000000
# 5 0.000000 0.000000 0.000000 0.000000 0.021605 0.000000
# 6 0.000000 0.000000 0.000000 0.000000 0.000000 0.066360
#
#
# Mechanical properties :
#
#
# Convention : Reuss Voigt Hill
#
# Bulk Modulus (GPa) = 88.96659 93.09847 91.03253
# Shear Modulus (GPa) = 27.50369 33.59370 30.54869
#
# Velocity S-wave (km/s) = 3.83917 4.24298 4.04611
# Velocity P-wave (km/s) = 8.20545 8.59623 8.40311
#
# Compressibility (1/GPa) = 0.01124017
#
# Stress axis : x y z
#
# Youngs Moduli (GPa) = 124.46214 99.38928 101.44703
#
# Poissons Ratio (x) = 0.28262 0.34439
# Poissons Ratio (y) = 0.35391 0.21489
# Poissons Ratio (z) = 0.42252 0.21053
#
# Static dielectric constant tensor:
#      x y z
#    x 1.619830 0.000000 0.000000 
#    y 0.000000 1.627410 0.000000 
#    z 0.000000 0.000000 1.614300 
# 
# From -- ./inp_files/7590.got.cif
#   From: 2010.05.17/outbox.cif.g08.bks.cpg/sg62_4_cif.got.tgz:7590.got - 2010.06.03 15:25:27.
