data_PCOD9467744
_publ_section_title
;
Structure prediction by ZEFSAII (Michael W. Deem and Ramdas Pophale) SiO2 
 PCOD9467744
Probable space group: P N M A
;
_chemical_formula_sum "Si O2"
_cell_formula_units_Z 48
_cell_length_a 8.481522
_cell_length_b 7.207738
_cell_length_c 29.678253
_cell_angle_alpha 90.000000
_cell_angle_beta 90.000000
_cell_angle_gamma 90.000000
_cell_volume 1814.308426
_symmetry_space_group_name_H-M "P N M A"
_symmetry_group_IT_number 62
_symmetry_cell_setting 'orthorhombic'
loop_
_space_group_symop_operation_xyz
x,y,z
1/2-x,-y,1/2+z
1/2+x,1/2-y,1/2-z
-x,1/2+y,-z
-x,-y,-z
1/2+x,y,1/2-z
1/2-x,1/2+y,1/2+z
x,1/2-y,z
loop_
_atom_site_type_symbol
_atom_site_label
_atom_site_fract_x
_atom_site_fract_y
_atom_site_fract_z
Si Si1 0.412304 0.975309 0.901300
Si Si2 0.271359 0.023515 0.147871
Si Si3 0.911147 0.975161 0.768114
Si Si4 0.760177 0.474085 0.014702
Si Si5 0.769598 0.024442 0.183424
Si Si6 0.062256 0.039732 0.070311
O O1 0.414825 0.750000 0.902290
O O2 0.570080 0.037717 0.876479
O O3 0.270805 0.030977 0.867413
O O4 0.381924 0.033369 0.952777
O O5 0.274291 0.250000 0.146917
O O6 0.233599 0.973260 0.198953
O O7 0.126245 0.960804 0.116515
O O8 0.919349 0.750000 0.766991
O O9 0.871034 0.031014 0.717452
O O10 0.069804 0.037079 0.792791
O O11 0.760716 0.250000 0.011608
O O12 0.789480 0.542537 0.964334
O O13 0.916211 0.538422 0.042492
O O14 0.774499 0.250000 0.182685
O O15 0.013442 0.250000 0.080645
#
# Coordination Sequence:
#
# PCOD9467744 Si02
#       6
#     8   8   8   8   8   8
#     4   9  16  25  37  54  77 105 136 169 206 247
#     4   9  16  25  37  54  77 105 136 169 206 247
#     4   9  15  22  33  50  74 104 136 168 203 245
#     4   9  17  29  44  61  82 109 140 173 209 248
#     4   9  15  22  33  50  74 104 136 168 203 245
#     4   9  17  29  44  61  82 109 140 173 209 248
#
# _framework density 26.456361999999999
#
# number of rings (size 3 to 8) (size 9 to 14) (size 15 to 20)
#    0.000    3.000    0.000    2.000    0.000    8.667 
#    0.000    0.000    0.000    0.000    0.000    0.000 
#    0.000    1.333    0.000    3.667    0.000    6.667 
#
# Total GULP energy -268371.110683 kJ/mol
# GULP energy per Si atom -5591.064806 kJ/mol
# Density = 2.639615 g / cm^3
# Si number density = 26.456362 Si / 1000 Ang^3
#
#
#
# Elastic Constant Matrix: (Units=GPa)
#
#
# Indices 1 2 3 4 5 6 
#
# 1 57.8270 -7.1937 -11.1025 0.0000 0.0000 0.0000
# 2 -7.1937 132.3416 -8.6347 0.0000 0.0000 0.0000
# 3 -11.1025 -8.6347 116.5784 0.0000 0.0000 0.0000
# 4 0.0000 0.0000 0.0000 -11.3927 0.0000 0.0000
# 5 0.0000 0.0000 0.0000 0.0000 42.6783 0.0000
# 6 0.0000 0.0000 0.0000 0.0000 0.0000 -26.5307
#
#
#
# Elastic Compliance Matrix: (Units=1/GPa)
#
#
# Indices 1 2 3 4 5 6 
#
# 1 0.017768 0.001081 0.001772 0.000000 0.000000 0.000000
# 2 0.001081 0.007659 0.000670 0.000000 0.000000 0.000000
# 3 0.001772 0.000670 0.008796 0.000000 0.000000 0.000000
# 4 0.000000 0.000000 0.000000 -0.087776 0.000000 0.000000
# 5 0.000000 0.000000 0.000000 0.000000 0.023431 0.000000
# 6 0.000000 0.000000 0.000000 0.000000 0.000000 -0.037692
#
#
# Mechanical properties :
#
#
# Convention : Reuss Voigt Hill
#
# Bulk Modulus (GPa) = 24.23028 28.09835 26.16431
# Shear Modulus (GPa) = -81.82632 23.19619 -29.31507
#
# Velocity S-wave (km/s) = -5.56740 2.96425 -3.33236
# Velocity P-wave (km/s) = 5.67005 4.72857 2.21247
#
# Compressibility (1/GPa) = 0.04127067
#
# Stress axis : x y z
#
# Youngs Moduli (GPa) = 56.28173 130.57018 113.68359
#
# Poissons Ratio (x) = -0.14120 -0.20147
# Poissons Ratio (y) = -0.06086 -0.07620
# Poissons Ratio (z) = -0.09974 -0.08752
#
# Static dielectric constant tensor:
#      x y z
#    x 2.106780 0.000000 0.000000 
#    y 0.000000 2.036500 0.000000 
#    z 0.000000 0.000000 1.970920 
# 
# From -- ./inp_files/28792.got.cif
#   From: 2010.05.17/outbox.cif.g08.bks.cpg/sg62_15_cif.got.tgz:28792.got - 2010.06.03 15:25:27.
