data_PCOD9467619
_publ_section_title
;
Structure prediction by ZEFSAII (Michael W. Deem and Ramdas Pophale) SiO2 
 PCOD9467619
Probable space group: P N M A
;
_chemical_formula_sum "Si O2"
_cell_formula_units_Z 40
_cell_length_a 17.272939
_cell_length_b 16.555541
_cell_length_c 5.226029
_cell_angle_alpha 90.000000
_cell_angle_beta 90.000000
_cell_angle_gamma 90.000000
_cell_volume 1494.450146
_symmetry_space_group_name_H-M "P N M A"
_symmetry_group_IT_number 62
_symmetry_cell_setting 'orthorhombic'
loop_
_space_group_symop_operation_xyz
x,y,z
1/2-x,-y,1/2+z
1/2+x,1/2-y,1/2-z
-x,1/2+y,-z
-x,-y,-z
1/2+x,y,1/2-z
1/2-x,1/2+y,1/2+z
x,1/2-y,z
loop_
_atom_site_type_symbol
_atom_site_label
_atom_site_fract_x
_atom_site_fract_y
_atom_site_fract_z
Si Si1 0.612343 0.004471 0.062070
Si Si2 0.893918 0.750000 0.447943
Si Si3 0.732516 0.373005 0.166379
Si Si4 0.032016 0.929593 0.826996
Si Si5 0.995038 0.750000 0.931899
Si Si6 0.332217 0.340628 0.824708
O O1 0.609874 0.976112 0.767145
O O2 0.606212 0.912277 0.159398
O O3 0.692665 0.039342 0.163664
O O4 0.539531 0.062566 0.118691
O O5 0.839329 0.676832 0.541447
O O6 0.928670 0.750000 0.158181
O O7 0.963092 0.750000 0.644842
O O8 0.794348 0.352653 0.950297
O O9 0.767893 0.350787 0.444646
O O10 0.035980 0.838152 0.926678
O O11 0.000000 0.000000 0.000000
O O12 0.363695 0.250000 0.852328
#
# Coordination Sequence:
#
# PCOD9467619 Si02
#       6
#     8   4   8   8   4   8
#     4  11  27  45  71 103 145 185 241 302 360 432
#     4  12  22  44  74 107 139 188 248 297 344 442
#     4  12  24  46  72 103 142 184 239 295 358 435
#     4  11  27  49  72 108 142 197 249 306 366 443
#     4  12  26  46  78 101 147 196 246 307 368 428
#     4  12  26  45  70 107 143 186 233 294 369 436
#
# _framework density 26.765699000000001
#
# number of rings (size 3 to 8) (size 9 to 14) (size 15 to 20)
#    0.000    0.400    4.000    3.600    9.800    0.000 
#    1.800    0.000    0.000    0.000    0.000    0.000 
#    0.000    0.000    0.000    0.000    0.000    0.000 
#
# Total GULP energy -222987.276062 kJ/mol
# GULP energy per Si atom -5574.681902 kJ/mol
# Density = 2.670478 g / cm^3
# Si number density = 26.765699 Si / 1000 Ang^3
#
#
#
# Elastic Constant Matrix: (Units=GPa)
#
#
# Indices 1 2 3 4 5 6 
#
# 1 100.2468 61.6962 22.7989 0.0000 0.0000 0.0000
# 2 61.6962 170.2449 56.1061 0.0000 0.0000 0.0000
# 3 22.7989 56.1061 99.5200 0.0000 0.0000 0.0000
# 4 0.0000 0.0000 0.0000 35.7046 0.0000 0.0000
# 5 0.0000 0.0000 0.0000 0.0000 49.4073 0.0000
# 6 0.0000 0.0000 0.0000 0.0000 0.0000 45.8457
#
#
#
# Elastic Compliance Matrix: (Units=1/GPa)
#
#
# Indices 1 2 3 4 5 6 
#
# 1 0.012851 -0.004528 -0.000391 0.000000 0.000000 0.000000
# 2 -0.004528 0.008810 -0.003929 0.000000 0.000000 0.000000
# 3 -0.000391 -0.003929 0.012353 0.000000 0.000000 0.000000
# 4 0.000000 0.000000 0.000000 0.028008 0.000000 0.000000
# 5 0.000000 0.000000 0.000000 0.000000 0.020240 0.000000
# 6 0.000000 0.000000 0.000000 0.000000 0.000000 0.021812
#
#
# Mechanical properties :
#
#
# Convention : Reuss Voigt Hill
#
# Bulk Modulus (GPa) = 61.28739 72.35715 66.82227
# Shear Modulus (GPa) = 39.30489 41.48555 40.39522
#
# Velocity S-wave (km/s) = 3.83623 3.94121 3.88908
# Velocity P-wave (km/s) = 6.52454 6.91398 6.72208
#
# Compressibility (1/GPa) = 0.01631657
#
# Stress axis : x y z
#
# Youngs Moduli (GPa) = 77.81324 113.50848 80.95154
#
# Poissons Ratio (x) = 0.51401 0.03166
# Poissons Ratio (y) = 0.35237 0.31809
# Poissons Ratio (z) = 0.03044 0.44601
#
# Static dielectric constant tensor:
#      x y z
#    x 1.039660 0.000000 0.000000 
#    y 0.000000 -7.052420 0.000000 
#    z 0.000000 0.000000 -4.690080 
# 
# From -- ./inp_files/1580.got.cif
#   From: 2010.05.17/outbox.cif.g08.bks.cpg/sg62_1_cif.got.tgz:1580.got - 2010.06.03 15:25:27.
