data_PCOD9467342
_publ_section_title
;
Structure prediction by ZEFSAII (Michael W. Deem and Ramdas Pophale) SiO2 
 PCOD9467342
Probable space group: P N M A
;
_chemical_formula_sum "Si O2"
_cell_formula_units_Z 48
_cell_length_a 15.287260
_cell_length_b 8.812138
_cell_length_c 20.335243
_cell_angle_alpha 90.000000
_cell_angle_beta 90.000000
_cell_angle_gamma 90.000000
_cell_volume 2739.430635
_symmetry_space_group_name_H-M "P N M A"
_symmetry_group_IT_number 62
_symmetry_cell_setting 'orthorhombic'
loop_
_space_group_symop_operation_xyz
x,y,z
1/2-x,-y,1/2+z
1/2+x,1/2-y,1/2-z
-x,1/2+y,-z
-x,-y,-z
1/2+x,y,1/2-z
1/2-x,1/2+y,1/2+z
x,1/2-y,z
loop_
_atom_site_type_symbol
_atom_site_label
_atom_site_fract_x
_atom_site_fract_y
_atom_site_fract_z
Si Si1 0.620566 0.432909 0.811632
Si Si2 0.306764 0.569235 0.665688
Si Si3 0.510387 0.932004 0.305866
Si Si4 0.080026 0.431693 0.539507
Si Si5 0.558416 0.931488 0.558451
Si Si6 0.276061 0.431774 0.522980
O O1 0.631915 0.250000 0.811645
O O2 0.715814 0.507709 0.804700
O O3 0.552818 0.473573 0.754571
O O4 0.583804 0.476503 0.883608
O O5 0.309161 0.750000 0.667870
O O6 0.392663 0.500744 0.699586
O O7 0.307205 0.513456 0.589602
O O8 0.516819 0.750000 0.309106
O O9 0.468798 0.994189 0.373227
O O10 0.073128 0.250000 0.536990
O O11 0.175409 0.474536 0.510897
O O12 0.000000 0.500000 0.500000
O O13 0.545647 0.750000 0.561782
O O14 0.658153 0.962638 0.536424
O O15 0.500000 0.000000 0.500000
O O16 0.278788 0.250000 0.536137
#
# Coordination Sequence:
#
# PCOD9467342 Si02
#       6
#     8   8   8   8   8   8
#     4   9  21  41  60  78 110 153 192 227 278 344
#     4  11  21  34  58  85 110 143 186 235 281 334
#     4  11  22  38  59  81 113 153 190 234 282 341
#     4   9  18  36  59  82 106 142 186 228 276 331
#     4  11  21  34  56  85 116 148 186 233 281 334
#     4   9  19  36  56  77 111 150 183 222 277 341
#
# _framework density 17.521889000000002
#
# number of rings (size 3 to 8) (size 9 to 14) (size 15 to 20)
#    0.000    2.000    1.667    3.500    0.000    4.667 
#    3.000    0.000    0.000    0.000    0.000    0.000 
#    0.000    0.000    0.000    0.000    0.000    0.000 
#
# Total GULP energy -267943.662374 kJ/mol
# GULP energy per Si atom -5582.159633 kJ/mol
# Density = 1.748201 g / cm^3
# Si number density = 17.521889 Si / 1000 Ang^3
#
#
#
# Elastic Constant Matrix: (Units=GPa)
#
#
# Indices 1 2 3 4 5 6 
#
# 1 186.5939 66.1658 101.7597 0.0000 0.0000 0.0000
# 2 66.1658 55.3582 41.4708 0.0000 0.0000 0.0000
# 3 101.7597 41.4708 98.1331 0.0000 0.0000 0.0000
# 4 0.0000 0.0000 0.0000 27.0325 0.0000 0.0000
# 5 0.0000 0.0000 0.0000 0.0000 34.5139 0.0000
# 6 0.0000 0.0000 0.0000 0.0000 0.0000 32.4719
#
#
#
# Elastic Compliance Matrix: (Units=1/GPa)
#
#
# Indices 1 2 3 4 5 6 
#
# 1 0.014949 -0.009152 -0.011634 0.000000 0.000000 0.000000
# 2 -0.009152 0.032036 -0.004047 0.000000 0.000000 0.000000
# 3 -0.011634 -0.004047 0.023965 0.000000 0.000000 0.000000
# 4 0.000000 0.000000 0.000000 0.036992 0.000000 0.000000
# 5 0.000000 0.000000 0.000000 0.000000 0.028974 0.000000
# 6 0.000000 0.000000 0.000000 0.000000 0.000000 0.030796
#
#
# Mechanical properties :
#
#
# Convention : Reuss Voigt Hill
#
# Bulk Modulus (GPa) = 46.98868 84.31974 65.65421
# Shear Modulus (GPa) = 22.27437 27.51626 24.89531
#
# Velocity S-wave (km/s) = 3.56930 3.96712 3.77346
# Velocity P-wave (km/s) = 6.62283 8.31932 7.51907
#
# Compressibility (1/GPa) = 0.02128172
#
# Stress axis : x y z
#
# Youngs Moduli (GPa) = 66.89273 31.21533 41.72824
#
# Poissons Ratio (x) = 0.28570 0.48546
# Poissons Ratio (y) = 0.61223 0.16889
# Poissons Ratio (z) = 0.77823 0.12634
#
# Static dielectric constant tensor:
#      x y z
#    x 1.603660 0.000000 0.000000 
#    y 0.000000 1.593270 0.000000 
#    z 0.000000 0.000000 1.568090 
# 
# From -- ./inp_files/26860.got.cif
#   From: 2010.05.17/outbox.cif.g08.bks.cpg/sg62_14_cif.got.tgz:26860.got - 2010.06.03 15:25:27.
