data_PCOD9467357
_publ_section_title
;
Structure prediction by ZEFSAII (Michael W. Deem and Ramdas Pophale) SiO2 
 PCOD9467357
Probable space group: P N M A
;
_chemical_formula_sum "Si O2"
_cell_formula_units_Z 64
_cell_length_a 9.955937
_cell_length_b 26.571386
_cell_length_c 14.123137
_cell_angle_alpha 90.000000
_cell_angle_beta 90.000000
_cell_angle_gamma 90.000000
_cell_volume 3736.177667
_symmetry_space_group_name_H-M "P N M A"
_symmetry_group_IT_number 62
_symmetry_cell_setting 'orthorhombic'
loop_
_space_group_symop_operation_xyz
x,y,z
1/2-x,-y,1/2+z
1/2+x,1/2-y,1/2-z
-x,1/2+y,-z
-x,-y,-z
1/2+x,y,1/2-z
1/2-x,1/2+y,1/2+z
x,1/2-y,z
loop_
_atom_site_type_symbol
_atom_site_label
_atom_site_fract_x
_atom_site_fract_y
_atom_site_fract_z
Si Si1 0.331923 0.372251 0.588433
Si Si2 0.913062 0.692537 0.336369
Si Si3 0.888632 0.057527 0.420134
Si Si4 0.837603 0.486322 0.233352
Si Si5 0.202441 0.459829 0.462675
Si Si6 0.907875 0.442591 0.750781
Si Si7 0.070647 0.308606 0.887289
Si Si8 0.848774 0.133704 0.580189
O O1 0.211846 0.344008 0.643366
O O2 0.263494 0.411542 0.516619
O O3 0.417627 0.405174 0.662065
O O4 0.442204 0.331183 0.557225
O O5 0.873481 0.750000 0.355863
O O6 0.956272 0.689951 0.226368
O O7 0.036857 0.675110 0.401107
O O8 0.845863 0.057690 0.310699
O O9 0.852323 0.106904 0.479037
O O10 0.049884 0.050656 0.428433
O O11 0.816765 0.009181 0.470627
O O12 0.797824 0.471225 0.127122
O O13 0.724345 0.525204 0.264343
O O14 0.972095 0.518319 0.246382
O O15 0.889193 0.410476 0.655128
O O16 0.093903 0.250000 0.911475
O O17 0.204211 0.341718 0.902090
#
# Coordination Sequence:
#
# PCOD9467357 Si02
#       8
#     8   8   8   8   8   8   8   8
#     4  12  22  36  57  84 117 160 195 232 290 350
#     4  11  21  36  59  85 116 155 195 238 291 356
#     4  11  22  38  58  84 117 156 195 239 281 344
#     4  12  23  38  55  82 122 155 199 240 275 331
#     4  11  23  38  58  84 117 157 198 234 287 342
#     4  12  21  33  56  84 118 159 195 231 278 340
#     4  11  23  37  55  88 124 150 189 246 294 344
#     4  12  21  37  59  83 118 162 194 230 290 351
#
# _framework density 17.129807
#
# number of rings (size 3 to 8) (size 9 to 14) (size 15 to 20)
#    0.000    0.500    7.500    3.000    0.000    3.500 
#    0.000    0.000    0.000    0.000    0.000    5.250 
#    0.000    0.000    0.000    0.000    0.000    0.000 
#
# Total GULP energy -357263.424962 kJ/mol
# GULP energy per Si atom -5582.241015 kJ/mol
# Density = 1.709082 g / cm^3
# Si number density = 17.129807 Si / 1000 Ang^3
#
#
#
# Elastic Constant Matrix: (Units=GPa)
#
#
# Indices 1 2 3 4 5 6 
#
# 1 99.0121 34.9324 21.7025 0.0000 0.0000 0.0000
# 2 34.9324 87.5497 37.3137 0.0000 0.0000 0.0000
# 3 21.7025 37.3137 70.0098 0.0000 0.0000 0.0000
# 4 0.0000 0.0000 0.0000 23.3454 0.0000 0.0000
# 5 0.0000 0.0000 0.0000 0.0000 11.0084 0.0000
# 6 0.0000 0.0000 0.0000 0.0000 0.0000 28.6545
#
#
#
# Elastic Compliance Matrix: (Units=1/GPa)
#
#
# Indices 1 2 3 4 5 6 
#
# 1 0.011874 -0.004100 -0.001495 0.000000 0.000000 0.000000
# 2 -0.004100 0.016195 -0.007361 0.000000 0.000000 0.000000
# 3 -0.001495 -0.007361 0.018670 0.000000 0.000000 0.000000
# 4 0.000000 0.000000 0.000000 0.042835 0.000000 0.000000
# 5 0.000000 0.000000 0.000000 0.000000 0.090840 0.000000
# 6 0.000000 0.000000 0.000000 0.000000 0.000000 0.034899
#
#
# Mechanical properties :
#
#
# Convention : Reuss Voigt Hill
#
# Bulk Modulus (GPa) = 48.01512 49.38542 48.70027
# Shear Modulus (GPa) = 20.14760 23.44319 21.79540
#
# Velocity S-wave (km/s) = 3.43326 3.70342 3.57089
# Velocity P-wave (km/s) = 6.61871 6.86875 6.74489
#
# Compressibility (1/GPa) = 0.02082677
#
# Stress axis : x y z
#
# Youngs Moduli (GPa) = 84.21588 61.74645 53.56088
#
# Poissons Ratio (x) = 0.25319 0.08010
# Poissons Ratio (y) = 0.34532 0.39424
# Poissons Ratio (z) = 0.12594 0.45449
#
# Static dielectric constant tensor:
#      x y z
#    x 1.583440 0.000000 0.000000 
#    y 0.000000 1.594190 0.000000 
#    z 0.000000 0.000000 1.588240 
# 
# From -- ./inp_files/17374.got.cif
#   From: 2010.05.17/outbox.cif.g08.bks.cpg/sg62_9_cif.got.tgz:17374.got - 2010.06.03 15:25:27.
