data_PCOD9467727
_publ_section_title
;
Structure prediction by ZEFSAII (Michael W. Deem and Ramdas Pophale) SiO2 
 PCOD9467727
Probable space group: P N M A
;
_chemical_formula_sum "Si O2"
_cell_formula_units_Z 64
_cell_length_a 18.342894
_cell_length_b 7.456911
_cell_length_c 21.311632
_cell_angle_alpha 90.000000
_cell_angle_beta 90.000000
_cell_angle_gamma 90.000000
_cell_volume 2915.033328
_symmetry_space_group_name_H-M "P N M A"
_symmetry_group_IT_number 62
_symmetry_cell_setting 'orthorhombic'
loop_
_space_group_symop_operation_xyz
x,y,z
1/2-x,-y,1/2+z
1/2+x,1/2-y,1/2-z
-x,1/2+y,-z
-x,-y,-z
1/2+x,y,1/2-z
1/2-x,1/2+y,1/2+z
x,1/2-y,z
loop_
_atom_site_type_symbol
_atom_site_label
_atom_site_fract_x
_atom_site_fract_y
_atom_site_fract_z
Si Si1 0.367245 0.962402 0.002778
Si Si2 0.919991 0.469830 0.226463
Si Si3 0.299684 0.530188 0.634462
Si Si4 0.708707 0.545569 0.639643
Si Si5 0.301859 0.546484 0.498376
Si Si6 0.921292 0.531116 0.768306
Si Si7 0.868144 0.464629 0.360683
Si Si8 0.624690 0.030975 0.132859
O O1 0.355587 0.750000 0.997505
O O2 0.286382 0.046462 0.004999
O O3 0.401303 0.994387 0.070933
O O4 0.401963 0.023304 0.936798
O O5 0.918862 0.250000 0.224586
O O6 0.852787 0.534403 0.184243
O O7 0.908736 0.526329 0.298510
O O8 0.000406 0.524168 0.205086
O O9 0.298567 0.750000 0.633559
O O10 0.326922 0.472196 0.565424
O O11 0.353147 0.472725 0.689725
O O12 0.215953 0.470956 0.642517
O O13 0.718779 0.750000 0.661542
O O14 0.682419 0.545870 0.567526
O O15 0.790645 0.470444 0.639162
O O16 0.327717 0.750000 0.492404
O O17 0.919201 0.750000 0.768180
O O18 0.914838 0.472727 0.695950
O O19 0.865885 0.250000 0.357114
O O20 0.622724 0.250000 0.133349
#
# Coordination Sequence:
#
# PCOD9467727 Si02
#       8
#     8   8   8   8   8   8   8   8
#     4   9  16  27  44  68  92 115 143 181 222 264
#     4   9  17  27  42  63  88 114 148 187 218 250
#     4   8  14  24  41  62  86 111 139 174 217 260
#     4   9  16  28  45  67  90 114 143 181 222 262
#     4   9  16  27  44  68  92 115 143 181 222 264
#     4   9  15  25  41  63  86 112 146 185 218 252
#     4   9  16  28  45  67  90 114 143 181 222 262
#     4   8  14  24  41  62  86 111 139 174 217 260
#
# _framework density 21.955151999999998
#
# number of rings (size 3 to 8) (size 9 to 14) (size 15 to 20)
#    0.000    3.250    0.000    3.000    0.000    3.000 
#    0.000    1.875    0.000    0.000    0.000   18.375 
#    0.000    0.000    0.000    0.000    0.000    0.000 
#
# Total GULP energy -356714.902823 kJ/mol
# GULP energy per Si atom -5573.670357 kJ/mol
# Density = 2.190518 g / cm^3
# Si number density = 21.955152 Si / 1000 Ang^3
#
#
#
# Elastic Constant Matrix: (Units=GPa)
#
#
# Indices 1 2 3 4 5 6 
#
# 1 50.9472 -1.3168 18.8279 0.0000 0.0000 0.0000
# 2 -1.3168 63.9741 -7.2747 0.0000 0.0000 0.0000
# 3 18.8279 -7.2747 96.3101 0.0000 0.0000 0.0000
# 4 0.0000 0.0000 0.0000 26.1812 0.0000 0.0000
# 5 0.0000 0.0000 0.0000 0.0000 -17.6166 0.0000
# 6 0.0000 0.0000 0.0000 0.0000 0.0000 -2.1887
#
#
#
# Elastic Compliance Matrix: (Units=1/GPa)
#
#
# Indices 1 2 3 4 5 6 
#
# 1 0.021157 -0.000035 -0.004139 0.000000 0.000000 0.000000
# 2 -0.000035 0.015767 0.001198 0.000000 0.000000 0.000000
# 3 -0.004139 0.001198 0.011283 0.000000 0.000000 0.000000
# 4 0.000000 0.000000 0.000000 0.038195 0.000000 0.000000
# 5 0.000000 0.000000 0.000000 0.000000 -0.056764 0.000000
# 6 0.000000 0.000000 0.000000 0.000000 0.000000 -0.456885
#
#
# Mechanical properties :
#
#
# Convention : Reuss Voigt Hill
#
# Bulk Modulus (GPa) = 23.66625 25.74491 24.70558
# Shear Modulus (GPa) = -12.27865 14.67483 1.19809
#
# Velocity S-wave (km/s) = -2.36743 2.58815 0.73952
# Velocity P-wave (km/s) = 1.82477 4.54785 3.46502
#
# Compressibility (1/GPa) = 0.04225426
#
# Stress axis : x y z
#
# Youngs Moduli (GPa) = 47.26635 63.42438 88.63151
#
# Poissons Ratio (x) = 0.00223 0.36681
# Poissons Ratio (y) = 0.00166 -0.10616
# Poissons Ratio (z) = 0.19562 -0.07597
#
# Static dielectric constant tensor:
#      x y z
#    x 1.758040 0.000000 0.000000 
#    y 0.000000 1.862470 0.000000 
#    z 0.000000 0.000000 1.831000 
# 
# From -- ./inp_files/27911.got.cif
#   From: 2010.05.17/outbox.cif.g08.bks.cpg/sg62_14_cif.got.tgz:27911.got - 2010.06.03 15:25:27.
