data_PCOD9467192
_publ_section_title
;
Structure prediction by ZEFSAII (Michael W. Deem and Ramdas Pophale) SiO2 
 PCOD9467192
Probable space group: P N M A
;
_chemical_formula_sum "Si O2"
_cell_formula_units_Z 40
_cell_length_a 10.296757
_cell_length_b 9.639938
_cell_length_c 18.693503
_cell_angle_alpha 90.000000
_cell_angle_beta 90.000000
_cell_angle_gamma 90.000000
_cell_volume 1855.518960
_symmetry_space_group_name_H-M "P N M A"
_symmetry_group_IT_number 62
_symmetry_cell_setting 'orthorhombic'
loop_
_space_group_symop_operation_xyz
x,y,z
1/2-x,-y,1/2+z
1/2+x,1/2-y,1/2-z
-x,1/2+y,-z
-x,-y,-z
1/2+x,y,1/2-z
1/2-x,1/2+y,1/2+z
x,1/2-y,z
loop_
_atom_site_type_symbol
_atom_site_label
_atom_site_fract_x
_atom_site_fract_y
_atom_site_fract_z
Si Si1 0.279533 0.402204 0.121886
Si Si2 0.458806 0.410348 0.665220
Si Si3 0.505854 0.902244 0.166552
Si Si4 0.588570 0.589930 0.555738
Si Si5 0.146004 0.972099 0.470500
O O1 0.253004 0.250000 0.152545
O O2 0.170527 0.514307 0.138748
O O3 0.411166 0.469983 0.151164
O O4 0.293812 0.389422 0.036605
O O5 0.469402 0.250000 0.641079
O O6 0.455430 0.409909 0.750977
O O7 0.569375 0.506379 0.630024
O O8 0.441431 0.750000 0.155514
O O9 0.620007 0.910251 0.107835
O O10 0.500000 0.500000 0.500000
O O11 0.543869 0.750000 0.558940
O O12 0.742176 0.587611 0.538010
O O13 0.000000 0.000000 0.500000
#
# Coordination Sequence:
#
# PCOD9467192 Si02
#       5
#     8   8   8   8   8
#     4  11  23  41  68 100 136 178 231 299 357 414
#     4  11  25  44  67  97 139 189 235 287 351 423
#     4  10  24  44  68  97 135 185 236 287 350 426
#     4  12  26  45  72 105 141 185 234 291 351 420
#     4  10  24  45  72 103 138 181 234 286 350 419
#
# _framework density 21.557310999999999
#
# number of rings (size 3 to 8) (size 9 to 14) (size 15 to 20)
#    0.000    1.200    2.000    2.400    2.800   10.400 
#    0.000    0.000    0.000    0.000    0.000    0.000 
#    0.000    0.000    0.000    0.000    0.000    0.000 
#
# Total GULP energy -222933.261815 kJ/mol
# GULP energy per Si atom -5573.331545 kJ/mol
# Density = 2.150825 g / cm^3
# Si number density = 21.557311 Si / 1000 Ang^3
#
#
#
# Elastic Constant Matrix: (Units=GPa)
#
#
# Indices 1 2 3 4 5 6 
#
# 1 96.2929 45.2094 26.9328 0.0000 0.0000 0.0000
# 2 45.2094 187.1548 57.9470 0.0000 0.0000 0.0000
# 3 26.9328 57.9470 121.9542 0.0000 0.0000 0.0000
# 4 0.0000 0.0000 0.0000 13.6498 0.0000 0.0000
# 5 0.0000 0.0000 0.0000 0.0000 23.2523 0.0000
# 6 0.0000 0.0000 0.0000 0.0000 0.0000 19.3669
#
#
#
# Elastic Compliance Matrix: (Units=1/GPa)
#
#
# Indices 1 2 3 4 5 6 
#
# 1 0.011938 -0.002424 -0.001485 0.000000 0.000000 0.000000
# 2 -0.002424 0.006757 -0.002675 0.000000 0.000000 0.000000
# 3 -0.001485 -0.002675 0.009799 0.000000 0.000000 0.000000
# 4 0.000000 0.000000 0.000000 0.073261 0.000000 0.000000
# 5 0.000000 0.000000 0.000000 0.000000 0.043007 0.000000
# 6 0.000000 0.000000 0.000000 0.000000 0.000000 0.051634
#
#
# Mechanical properties :
#
#
# Convention : Reuss Voigt Hill
#
# Bulk Modulus (GPa) = 65.24828 73.95336 69.60082
# Shear Modulus (GPa) = 23.29119 29.60797 26.44958
#
# Velocity S-wave (km/s) = 3.29056 3.71003 3.50657
# Velocity P-wave (km/s) = 6.69104 7.26171 6.98221
#
# Compressibility (1/GPa) = 0.01532607
#
# Stress axis : x y z
#
# Youngs Moduli (GPa) = 83.76344 147.99280 102.05277
#
# Poissons Ratio (x) = 0.35876 0.15151
# Poissons Ratio (y) = 0.20306 0.27302
# Poissons Ratio (z) = 0.12436 0.39592
#
# Static dielectric constant tensor:
#      x y z
#    x 1.838770 0.000000 0.000000 
#    y 0.000000 1.773850 0.000000 
#    z 0.000000 0.000000 1.815120 
# 
# From -- ./inp_files/26459.got.cif
#   From: 2010.05.17/outbox.cif.g08.bks.cpg/sg62_14_cif.got.tgz:26459.got - 2010.06.03 15:25:27.
