data_PCOD9467074
_publ_section_title
;
Structure prediction by ZEFSAII (Michael W. Deem and Ramdas Pophale) SiO2 
 PCOD9467074
Probable space group: P N M A
;
_chemical_formula_sum "Si O2"
_cell_formula_units_Z 40
_cell_length_a 10.078029
_cell_length_b 10.736754
_cell_length_c 15.924532
_cell_angle_alpha 90.000000
_cell_angle_beta 90.000000
_cell_angle_gamma 90.000000
_cell_volume 1723.119052
_symmetry_space_group_name_H-M "P N M A"
_symmetry_group_IT_number 62
_symmetry_cell_setting 'orthorhombic'
loop_
_space_group_symop_operation_xyz
x,y,z
1/2-x,-y,1/2+z
1/2+x,1/2-y,1/2-z
-x,1/2+y,-z
-x,-y,-z
1/2+x,y,1/2-z
1/2-x,1/2+y,1/2+z
x,1/2-y,z
loop_
_atom_site_type_symbol
_atom_site_label
_atom_site_fract_x
_atom_site_fract_y
_atom_site_fract_z
Si Si1 0.540671 0.887993 0.561979
Si Si2 0.684126 0.110583 0.839959
Si Si3 0.872866 0.115726 0.464335
Si Si4 0.443214 0.490317 0.730644
Si Si5 0.659081 0.439057 0.096069
O O1 0.497947 0.750000 0.533651
O O2 0.484662 0.922604 0.653579
O O3 0.699512 0.886794 0.572194
O O4 0.500000 0.000000 0.500000
O O5 0.659126 0.250000 0.872430
O O6 0.677772 0.998822 0.907820
O O7 0.830902 0.103344 0.801664
O O8 0.572152 0.075205 0.771132
O O9 0.818739 0.250000 0.439745
O O10 0.030867 0.116951 0.449882
O O11 0.841968 0.080847 0.560333
O O12 0.373342 0.565711 0.806126
#
# Coordination Sequence:
#
# PCOD9467074 Si02
#       5
#     8   8   8   8   8
#     4  12  28  49  74 106 146 193 244 304 369 435
#     4  11  24  43  70 103 143 187 237 294 356 424
#     4  10  23  43  73 106 142 186 236 290 356 431
#     4  11  24  46  70 105 141 190 243 295 357 427
#     4  10  23  45  71 104 143 187 239 299 359 427
#
# _framework density 23.213718
#
# number of rings (size 3 to 8) (size 9 to 14) (size 15 to 20)
#    0.000    1.200    2.000    2.400    0.000   19.200 
#    0.000    0.000    0.000    0.000    0.000    0.000 
#    0.000    0.000    0.000    0.000    0.000    0.000 
#
# Total GULP energy -223704.006509 kJ/mol
# GULP energy per Si atom -5592.600163 kJ/mol
# Density = 2.316088 g / cm^3
# Si number density = 23.213718 Si / 1000 Ang^3
#
#
#
# Elastic Constant Matrix: (Units=GPa)
#
#
# Indices 1 2 3 4 5 6 
#
# 1 130.0264 30.7650 27.0596 0.0000 0.0000 0.0000
# 2 30.7650 190.5675 64.9365 0.0000 0.0000 0.0000
# 3 27.0596 64.9365 129.5373 0.0000 0.0000 0.0000
# 4 0.0000 0.0000 0.0000 22.2132 0.0000 0.0000
# 5 0.0000 0.0000 0.0000 0.0000 32.4153 0.0000
# 6 0.0000 0.0000 0.0000 0.0000 0.0000 -1.7904
#
#
#
# Elastic Compliance Matrix: (Units=1/GPa)
#
#
# Indices 1 2 3 4 5 6 
#
# 1 0.008163 -0.000889 -0.001260 0.000000 0.000000 0.000000
# 2 -0.000889 0.006425 -0.003035 0.000000 0.000000 0.000000
# 3 -0.001260 -0.003035 0.009505 0.000000 0.000000 0.000000
# 4 0.000000 0.000000 0.000000 0.045018 0.000000 0.000000
# 5 0.000000 0.000000 0.000000 0.000000 0.030850 0.000000
# 6 0.000000 0.000000 0.000000 0.000000 0.000000 -0.558522
#
#
# Mechanical properties :
#
#
# Convention : Reuss Voigt Hill
#
# Bulk Modulus (GPa) = 72.85686 77.29484 75.07585
# Shear Modulus (GPa) = -11.27095 32.39228 10.56067
#
# Velocity S-wave (km/s) = -2.20586 3.73955 2.13523
# Velocity P-wave (km/s) = 4.99656 7.21214 6.20405
#
# Compressibility (1/GPa) = 0.01372554
#
# Stress axis : x y z
#
# Youngs Moduli (GPa) = 122.50155 155.63647 105.21283
#
# Poissons Ratio (x) = 0.13829 0.13255
# Poissons Ratio (y) = 0.10885 0.31935
# Poissons Ratio (z) = 0.15433 0.47241
#
# Static dielectric constant tensor:
#      x y z
#    x 1.879790 0.000000 0.000000 
#    y 0.000000 1.899550 0.000000 
#    z 0.000000 0.000000 1.897270 
# 
# From -- ./inp_files/17785.got.cif
#   From: 2010.05.17/outbox.cif.g08.bks.cpg/sg62_9_cif.got.tgz:17785.got - 2010.06.03 15:25:27.
