data_PCOD9467895
_publ_section_title
;
Structure prediction by ZEFSAII (Michael W. Deem and Ramdas Pophale) SiO2 
 PCOD9467895
Probable space group: P N M A
;
_chemical_formula_sum "Si O2"
_cell_formula_units_Z 40
_cell_length_a 15.000000
_cell_length_b 9.000000
_cell_length_c 15.000000
_cell_angle_alpha 90.000000
_cell_angle_beta 90.000000
_cell_angle_gamma 90.000000
_cell_volume 2025.000000
_symmetry_space_group_name_H-M "P N M A"
_symmetry_group_IT_number 62
_symmetry_cell_setting 'orthorhombic'
loop_
_space_group_symop_operation_xyz
x,y,z
1/2-x,-y,1/2+z
1/2+x,1/2-y,1/2-z
-x,1/2+y,-z
-x,-y,-z
1/2+x,y,1/2-z
1/2-x,1/2+y,1/2+z
x,1/2-y,z
loop_
_atom_site_type_symbol
_atom_site_label
_atom_site_fract_x
_atom_site_fract_y
_atom_site_fract_z
Si Si1 0.708657 0.419812 0.064124
Si Si2 0.045247 0.082184 0.298665
Si Si3 0.126070 0.081655 0.951949
Si Si4 0.930824 0.926971 0.430647
Si Si5 0.431133 0.418647 0.625241
O O1 0.741101 0.250000 0.059638
O O2 0.625301 0.422379 0.130504
O O3 0.785144 0.528780 0.095881
O O4 0.666919 0.465111 0.968128
O O5 0.013250 0.250000 0.290361
O O6 0.085199 0.023805 0.207555
O O7 0.963850 0.983681 0.335550
O O8 0.133687 0.250000 0.983801
O O9 0.037017 0.072085 0.894325
O O10 0.114866 0.973574 0.035704
O O11 0.938928 0.750000 0.435966
O O12 0.000000 0.000000 0.500000
O O13 0.406979 0.250000 0.645726
#
# Coordination Sequence:
#
# PCOD9467895 Si02
#       5
#     8   8   8   8   8
#     4   9  19  35  55  81 112 143 178 223 271 321
#     4  10  20  35  56  83 112 144 183 226 271 323
#     4  10  21  37  58  81 106 142 185 223 270 327
#     4   9  17  31  52  78 109 144 178 217 268 323
#     4  10  21  38  58  79 107 145 183 225 273 323
#
# _framework density 19.753086
#
# number of rings (size 3 to 8) (size 9 to 14) (size 15 to 20)
#    0.000    2.400    0.000    3.600    0.000    7.200 
#    3.600    0.000    0.000    0.000    0.000    0.000 
#    0.000    0.000    0.000    0.000    0.000    0.000 
#
# Total GULP energy -222808.166774 kJ/mol
# GULP energy per Si atom -5570.204169 kJ/mol
# Density = 1.970813 g / cm^3
# Si number density = 19.753086 Si / 1000 Ang^3
#
#
#
# Elastic Constant Matrix: (Units=GPa)
#
#
# Indices 1 2 3 4 5 6 
#
# 1 33.8177 40.1018 -13.4327 0.0000 0.0000 0.0000
# 2 40.1018 56.6097 10.2351 0.0000 0.0000 0.0000
# 3 -13.4327 10.2351 37.1522 0.0000 0.0000 0.0000
# 4 0.0000 0.0000 0.0000 23.6602 0.0000 0.0000
# 5 0.0000 0.0000 0.0000 0.0000 -7.2691 0.0000
# 6 0.0000 0.0000 0.0000 0.0000 0.0000 14.9989
#
#
#
# Elastic Compliance Matrix: (Units=1/GPa)
#
#
# Indices 1 2 3 4 5 6 
#
# 1 -0.149072 0.121392 -0.087341 0.000000 0.000000 0.000000
# 2 0.121392 -0.080261 0.066002 0.000000 0.000000 0.000000
# 3 -0.087341 0.066002 -0.022845 0.000000 0.000000 0.000000
# 4 0.000000 0.000000 0.000000 0.042265 0.000000 0.000000
# 5 0.000000 0.000000 0.000000 0.000000 -0.137569 0.000000
# 6 0.000000 0.000000 0.000000 0.000000 0.000000 0.066672
#
#
# Mechanical properties :
#
#
# Convention : Reuss Voigt Hill
#
# Bulk Modulus (GPa) = -19.20406 22.37642 1.58618
# Shear Modulus (GPa) = -10.03462 12.32303 1.14421
#
# Velocity S-wave (km/s) = -2.25634 2.50042 0.76191
# Velocity P-wave (km/s) = 4.06586 4.43720 1.25649
#
# Compressibility (1/GPa) = -0.05207231
#
# Stress axis : x y z
#
# Youngs Moduli (GPa) = -6.70816 -12.45928 -43.77237
#
# Poissons Ratio (x) = 1.51246 -3.82312
# Poissons Ratio (y) = 0.81432 2.88906
# Poissons Ratio (z) = -0.58590 0.82234
#
# Static dielectric constant tensor:
#      x y z
#    x 1.758650 0.000000 0.000000 
#    y 0.000000 1.644330 0.000000 
#    z 0.000000 0.000000 2.022540 
# 
# From -- ./inp_files/18616.got.cif
#   From: 2010.05.17/outbox.ucp.g08.bks.cvg/sg62_10_cif.got.tgz:18616.got - 2010.06.11 16:29:25.
