data_PCOD9467177
_publ_section_title
;
Structure prediction by ZEFSAII (Michael W. Deem and Ramdas Pophale) SiO2 
 PCOD9467177
Probable space group: P N M A
;
_chemical_formula_sum "Si O2"
_cell_formula_units_Z 48
_cell_length_a 28.286901
_cell_length_b 8.870177
_cell_length_c 9.610255
_cell_angle_alpha 90.000000
_cell_angle_beta 90.000000
_cell_angle_gamma 90.000000
_cell_volume 2411.307339
_symmetry_space_group_name_H-M "P N M A"
_symmetry_group_IT_number 62
_symmetry_cell_setting 'orthorhombic'
loop_
_space_group_symop_operation_xyz
x,y,z
1/2-x,-y,1/2+z
1/2+x,1/2-y,1/2-z
-x,1/2+y,-z
-x,-y,-z
1/2+x,y,1/2-z
1/2-x,1/2+y,1/2+z
x,1/2-y,z
loop_
_atom_site_type_symbol
_atom_site_label
_atom_site_fract_x
_atom_site_fract_y
_atom_site_fract_z
Si Si1 0.699288 0.068962 0.982882
Si Si2 0.613644 0.429744 0.795829
Si Si3 0.642117 0.926240 0.512068
Si Si4 0.488029 0.429169 0.147133
Si Si5 0.963562 0.425784 0.893328
Si Si6 0.217731 0.431095 0.196453
O O1 0.706164 0.250000 0.974038
O O2 0.710463 0.022778 0.141869
O O3 0.645951 0.037618 0.930991
O O4 0.734275 0.990496 0.873627
O O5 0.607082 0.250000 0.785452
O O6 0.640966 0.489783 0.659797
O O7 0.562871 0.509098 0.803509
O O8 0.654586 0.750000 0.531665
O O9 0.589079 0.935415 0.451940
O O10 0.676903 0.001410 0.401512
O O11 0.486438 0.250000 0.142004
O O12 0.528333 0.484812 0.252022
O O13 0.500000 0.500000 0.000000
O O14 0.975381 0.250000 0.873390
O O15 0.000000 0.500000 0.000000
O O16 0.216484 0.250000 0.192242
#
# Coordination Sequence:
#
# PCOD9467177 Si02
#       6
#     8   8   8   8   8   8
#     4  10  24  44  65  94 128 162 207 260 317 381
#     4  11  23  42  67  95 128 169 214 265 322 382
#     4  11  24  41  64  95 129 167 212 262 317 381
#     4  12  26  43  64  93 131 173 219 270 323 383
#     4  11  23  41  65  95 129 171 217 266 318 376
#     4  11  24  42  66  95 126 165 208 259 316 377
#
# _framework density 19.906213999999999
#
# number of rings (size 3 to 8) (size 9 to 14) (size 15 to 20)
#    0.000    1.000    1.667    4.500    2.333    7.333 
#    0.000    0.000    0.000    0.000    0.000    0.000 
#    0.000    0.000    0.000    0.000    0.000    0.000 
#
# Total GULP energy -268519.984033 kJ/mol
# GULP energy per Si atom -5594.166334 kJ/mol
# Density = 1.986091 g / cm^3
# Si number density = 19.906214 Si / 1000 Ang^3
#
#
#
# Elastic Constant Matrix: (Units=GPa)
#
#
# Indices 1 2 3 4 5 6 
#
# 1 53.4274 31.5533 9.9496 0.0000 0.0000 0.0000
# 2 31.5533 104.5924 38.5670 0.0000 0.0000 0.0000
# 3 9.9496 38.5670 120.8895 0.0000 0.0000 0.0000
# 4 0.0000 0.0000 0.0000 34.5650 0.0000 0.0000
# 5 0.0000 0.0000 0.0000 0.0000 38.3933 0.0000
# 6 0.0000 0.0000 0.0000 0.0000 0.0000 36.3201
#
#
#
# Elastic Compliance Matrix: (Units=1/GPa)
#
#
# Indices 1 2 3 4 5 6 
#
# 1 0.022788 -0.007008 0.000360 0.000000 0.000000 0.000000
# 2 -0.007008 0.012990 -0.003568 0.000000 0.000000 0.000000
# 3 0.000360 -0.003568 0.009381 0.000000 0.000000 0.000000
# 4 0.000000 0.000000 0.000000 0.028931 0.000000 0.000000
# 5 0.000000 0.000000 0.000000 0.000000 0.026046 0.000000
# 6 0.000000 0.000000 0.000000 0.000000 0.000000 0.027533
#
#
# Mechanical properties :
#
#
# Convention : Reuss Voigt Hill
#
# Bulk Modulus (GPa) = 40.43785 48.78322 44.61054
# Shear Modulus (GPa) = 31.98099 35.11165 33.54632
#
# Velocity S-wave (km/s) = 4.01257 4.20438 4.10959
# Velocity P-wave (km/s) = 6.46729 6.93749 6.70652
#
# Compressibility (1/GPa) = 0.02472930
#
# Stress axis : x y z
#
# Youngs Moduli (GPa) = 43.88183 76.97969 106.60378
#
# Poissons Ratio (x) = 0.53944 -0.03838
# Poissons Ratio (y) = 0.30750 0.38032
# Poissons Ratio (z) = -0.01580 0.27463
#
# Static dielectric constant tensor:
#      x y z
#    x 1.695330 0.000000 0.000000 
#    y 0.000000 1.669890 0.000000 
#    z 0.000000 0.000000 1.700550 
# 
# From -- ./inp_files/10252.got.cif
#   From: 2010.05.17/outbox.cif.g08.bks.cpg/sg62_6_cif.got.tgz:10252.got - 2010.06.03 15:25:27.
