data_PCOD9467539
_publ_section_title
;
Structure prediction by ZEFSAII (Michael W. Deem and Ramdas Pophale) SiO2 
 PCOD9467539
Probable space group: P N M A
;
_chemical_formula_sum "Si O2"
_cell_formula_units_Z 32
_cell_length_a 14.975703
_cell_length_b 10.093360
_cell_length_c 10.402456
_cell_angle_alpha 90.000000
_cell_angle_beta 90.000000
_cell_angle_gamma 90.000000
_cell_volume 1572.384918
_symmetry_space_group_name_H-M "P N M A"
_symmetry_group_IT_number 62
_symmetry_cell_setting 'orthorhombic'
loop_
_space_group_symop_operation_xyz
x,y,z
1/2-x,-y,1/2+z
1/2+x,1/2-y,1/2-z
-x,1/2+y,-z
-x,-y,-z
1/2+x,y,1/2-z
1/2-x,1/2+y,1/2+z
x,1/2-y,z
loop_
_atom_site_type_symbol
_atom_site_label
_atom_site_fract_x
_atom_site_fract_y
_atom_site_fract_z
Si Si1 0.347508 0.500761 0.017926
Si Si2 0.051808 0.750000 0.185829
Si Si3 0.734838 0.250000 0.837341
Si Si4 0.775216 0.750000 0.046904
Si Si5 0.487653 0.968389 0.802271
Si Si6 0.462196 0.750000 0.590323
O O1 0.294781 0.619632 0.085687
O O2 0.283590 0.381126 0.976656
O O3 0.422664 0.446745 0.116228
O O4 0.403353 0.554829 0.896066
O O5 0.159095 0.750000 0.185038
O O6 0.017553 0.879572 0.258897
O O7 0.019026 0.750000 0.039506
O O8 0.692842 0.250000 0.694774
O O9 0.859382 0.750000 0.952867
O O10 0.482853 0.876433 0.678381
#
# Coordination Sequence:
#
# PCOD9467539 Si02
#       6
#     8   4   4   4   8   4
#     4  11  24  44  72  95 133 182 222 284 330 402
#     4  12  24  46  65  97 143 174 215 282 335 401
#     4  12  25  44  67 102 133 178 229 276 335 397
#     4  12  25  44  67 102 138 173 232 281 332 394
#     4  11  23  46  68  98 133 175 230 266 344 407
#     4  12  26  42  67 103 136 175 220 281 340 398
#
# _framework density 20.35125
#
# number of rings (size 3 to 8) (size 9 to 14) (size 15 to 20)
#    0.000    0.500    2.500    6.000    0.000    6.000 
#    4.500    0.000    0.000    0.000    0.000    0.000 
#    0.000    0.000    0.000    0.000    0.000    0.000 
#
# Total GULP energy -179242.993548 kJ/mol
# GULP energy per Si atom -5601.343548 kJ/mol
# Density = 2.030493 g / cm^3
# Si number density = 20.351250 Si / 1000 Ang^3
#
#
#
# Elastic Constant Matrix: (Units=GPa)
#
#
# Indices 1 2 3 4 5 6 
#
# 1 41.8676 -1.3232 5.1388 0.0000 0.0000 0.0000
# 2 -1.3232 106.6291 25.1504 0.0000 0.0000 0.0000
# 3 5.1388 25.1504 108.2971 0.0000 0.0000 0.0000
# 4 0.0000 0.0000 0.0000 49.5284 0.0000 0.0000
# 5 0.0000 0.0000 0.0000 0.0000 36.2551 0.0000
# 6 0.0000 0.0000 0.0000 0.0000 0.0000 34.2127
#
#
#
# Elastic Compliance Matrix: (Units=1/GPa)
#
#
# Indices 1 2 3 4 5 6 
#
# 1 0.024061 0.000601 -0.001281 0.000000 0.000000 0.000000
# 2 0.000601 0.009937 -0.002336 0.000000 0.000000 0.000000
# 3 -0.001281 -0.002336 0.009837 0.000000 0.000000 0.000000
# 4 0.000000 0.000000 0.000000 0.020190 0.000000 0.000000
# 5 0.000000 0.000000 0.000000 0.000000 0.027582 0.000000
# 6 0.000000 0.000000 0.000000 0.000000 0.000000 0.029229
#
#
# Mechanical properties :
#
#
# Convention : Reuss Voigt Hill
#
# Bulk Modulus (GPa) = 26.45378 34.96953 30.71166
# Shear Modulus (GPa) = 35.84986 39.18776 37.51881
#
# Velocity S-wave (km/s) = 4.20164 4.39289 4.29833
# Velocity P-wave (km/s) = 6.04692 6.55365 6.30538
#
# Compressibility (1/GPa) = 0.03780178
#
# Stress axis : x y z
#
# Youngs Moduli (GPa) = 41.56096 100.63612 101.65500
#
# Poissons Ratio (x) = -0.06046 0.13024
# Poissons Ratio (y) = -0.02497 0.23748
# Poissons Ratio (z) = 0.05325 0.23510
#
# Static dielectric constant tensor:
#      x y z
#    x 1.704760 0.000000 0.000000 
#    y 0.000000 1.671760 0.000000 
#    z 0.000000 0.000000 1.684640 
# 
# From -- ./inp_files/5811.got.cif
#   From: 2010.05.17/outbox.cif.g08.bks.cpg/sg62_3_cif.got.tgz:5811.got - 2010.06.03 15:25:27.
