data_PCOD9467952
_publ_section_title
;
Structure prediction by ZEFSAII (Michael W. Deem and Ramdas Pophale) SiO2 
 PCOD9467952
Probable space group: P N M A
;
_chemical_formula_sum "Si O2"
_cell_formula_units_Z 48
_cell_length_a 9.000000
_cell_length_b 9.000000
_cell_length_c 30.000000
_cell_angle_alpha 90.000000
_cell_angle_beta 90.000000
_cell_angle_gamma 90.000000
_cell_volume 2430.000000
_symmetry_space_group_name_H-M "P N M A"
_symmetry_group_IT_number 62
_symmetry_cell_setting 'orthorhombic'
loop_
_space_group_symop_operation_xyz
x,y,z
1/2-x,-y,1/2+z
1/2+x,1/2-y,1/2-z
-x,1/2+y,-z
-x,-y,-z
1/2+x,y,1/2-z
1/2-x,1/2+y,1/2+z
x,1/2-y,z
loop_
_atom_site_type_symbol
_atom_site_label
_atom_site_fract_x
_atom_site_fract_y
_atom_site_fract_z
Si Si1 0.758244 0.570732 0.612820
Si Si2 0.192283 0.570965 0.697621
Si Si3 0.479830 0.083022 0.952909
Si Si4 0.501088 0.576260 0.547960
Si Si5 0.840753 0.571935 0.709949
Si Si6 0.726805 0.583429 0.395202
O O1 0.755158 0.750000 0.615134
O O2 0.891577 0.517628 0.582087
O O3 0.622731 0.517546 0.582745
O O4 0.767297 0.515287 0.663815
O O5 0.216946 0.750000 0.691058
O O6 0.276531 0.520344 0.742701
O O7 0.240785 0.480894 0.653876
O O8 0.016703 0.548319 0.705538
O O9 0.415174 0.250000 0.960036
O O10 0.630787 0.102673 0.926184
O O11 0.500000 0.000000 0.000000
O O12 0.500000 0.500000 0.500000
O O13 0.525615 0.750000 0.540661
O O14 0.357321 0.540570 0.576329
O O15 0.815564 0.750000 0.710549
O O16 0.657245 0.750000 0.392086
#
# Coordination Sequence:
#
# PCOD9467952 Si02
#       6
#     8   8   8   8   8   8
#     4  10  21  39  61  88 119 154 196 248 299 355
#     4  10  20  37  63  90 118 154 197 246 298 355
#     4  11  23  38  60  87 117 154 198 246 298 358
#     4  11  24  40  62  89 123 161 205 251 303 361
#     4   9  19  35  61  92 118 147 194 246 297 355
#     4  11  24  41  59  86 124 160 201 247 296 359
#
# _framework density 19.753086
#
# number of rings (size 3 to 8) (size 9 to 14) (size 15 to 20)
#    0.000    1.667    1.667    2.500    2.333    7.333 
#    0.000    1.667    0.000    0.000    0.000    0.000 
#    0.000    0.000    0.000    0.000    0.000    0.000 
#
# Total GULP energy -267346.034545 kJ/mol
# GULP energy per Si atom -5569.709053 kJ/mol
# Density = 1.970813 g / cm^3
# Si number density = 19.753086 Si / 1000 Ang^3
#
#
#
# Elastic Constant Matrix: (Units=GPa)
#
#
# Indices 1 2 3 4 5 6 
#
# 1 24.8750 -10.3092 27.6129 0.0000 0.0000 0.0000
# 2 -10.3092 -10.2478 28.9949 0.0000 0.0000 0.0000
# 3 27.6129 28.9949 215.3098 0.0000 0.0000 0.0000
# 4 0.0000 0.0000 0.0000 52.7949 0.0000 0.0000
# 5 0.0000 0.0000 0.0000 0.0000 31.1222 0.0000
# 6 0.0000 0.0000 0.0000 0.0000 0.0000 15.4604
#
#
#
# Elastic Compliance Matrix: (Units=1/GPa)
#
#
# Indices 1 2 3 4 5 6 
#
# 1 0.028379 -0.028129 0.000149 0.000000 0.000000 0.000000
# 2 -0.028129 -0.042779 0.009368 0.000000 0.000000 0.000000
# 3 0.000149 0.009368 0.003364 0.000000 0.000000 0.000000
# 4 0.000000 0.000000 0.000000 0.018941 0.000000 0.000000
# 5 0.000000 0.000000 0.000000 0.000000 0.032131 0.000000
# 6 0.000000 0.000000 0.000000 0.000000 0.000000 0.064682
#
#
# Mechanical properties :
#
#
# Convention : Reuss Voigt Hill
#
# Bulk Modulus (GPa) = -20.72109 35.83711 7.55801
# Shear Modulus (GPa) = 39.72822 32.11806 35.92314
#
# Velocity S-wave (km/s) = 4.48955 4.03672 4.26914
# Velocity P-wave (km/s) = 4.04499 6.31733 5.30427
#
# Compressibility (1/GPa) = -0.04826001
#
# Stress axis : x y z
#
# Youngs Moduli (GPa) = 35.23793 -23.37620 297.27892
#
# Poissons Ratio (x) = -0.65754 -0.04415
# Poissons Ratio (y) = 0.99120 -2.78498
# Poissons Ratio (z) = -0.00523 0.21899
#
# Static dielectric constant tensor:
#      x y z
#    x 1.867380 0.000000 0.000000 
#    y 0.000000 1.686400 0.000000 
#    z 0.000000 0.000000 1.498700 
# 
# From -- ./inp_files/31997.got.cif
#   From: 2010.05.17/outbox.ucp.g08.bks.cvg/sg62_16_cif.got.tgz:31997.got - 2010.06.11 16:29:25.
