data_PCOD9467425
_publ_section_title
;
Structure prediction by ZEFSAII (Michael W. Deem and Ramdas Pophale) SiO2 
 PCOD9467425
Probable space group: P N M A
;
_chemical_formula_sum "Si O2"
_cell_formula_units_Z 40
_cell_length_a 18.474732
_cell_length_b 8.550130
_cell_length_c 13.642530
_cell_angle_alpha 90.000000
_cell_angle_beta 90.000000
_cell_angle_gamma 90.000000
_cell_volume 2154.992597
_symmetry_space_group_name_H-M "P N M A"
_symmetry_group_IT_number 62
_symmetry_cell_setting 'orthorhombic'
loop_
_space_group_symop_operation_xyz
x,y,z
1/2-x,-y,1/2+z
1/2+x,1/2-y,1/2-z
-x,1/2+y,-z
-x,-y,-z
1/2+x,y,1/2-z
1/2-x,1/2+y,1/2+z
x,1/2-y,z
loop_
_atom_site_type_symbol
_atom_site_label
_atom_site_fract_x
_atom_site_fract_y
_atom_site_fract_z
Si Si1 0.524936 0.937442 0.804105
Si Si2 0.375979 0.437342 0.884028
Si Si3 0.466171 0.062563 0.600162
Si Si4 0.318322 0.562849 0.680123
Si Si5 0.831184 0.563091 0.405985
O O1 0.524870 0.750000 0.807098
O O2 0.457767 0.001062 0.868316
O O3 0.509368 0.995660 0.693887
O O4 0.599744 0.003307 0.844978
O O5 0.376725 0.250000 0.887654
O O6 0.332236 0.494676 0.788630
O O7 0.342928 0.506060 0.982910
O O8 0.467569 0.250000 0.603013
O O9 0.500000 0.000000 0.500000
O O10 0.384090 0.003121 0.614484
O O11 0.323141 0.750000 0.683730
O O12 0.241871 0.508830 0.638049
O O13 0.827622 0.750000 0.402566
#
# Coordination Sequence:
#
# PCOD9467425 Si02
#       5
#     8   8   8   8   8
#     4  11  22  39  61  89 119 154 197 244 291 348
#     4  11  22  40  62  87 118 156 194 239 293 350
#     4  11  22  40  63  89 119 158 199 242 291 348
#     4  11  23  41  61  88 120 154 194 243 295 350
#     4  12  24  40  61  89 120 156 197 244 294 348
#
# _framework density 18.561547000000001
#
# number of rings (size 3 to 8) (size 9 to 14) (size 15 to 20)
#    0.000    0.800    0.000   12.000    0.000    1.600 
#    0.000    8.000    0.000    0.000    0.000    0.000 
#    0.000    0.000    0.000    0.000    0.000    0.000 
#
# Total GULP energy -223875.238841 kJ/mol
# GULP energy per Si atom -5596.880971 kJ/mol
# Density = 1.851930 g / cm^3
# Si number density = 18.561547 Si / 1000 Ang^3
#
#
#
# Elastic Constant Matrix: (Units=GPa)
#
#
# Indices 1 2 3 4 5 6 
#
# 1 137.6361 23.1908 81.9247 0.0000 0.0000 0.0000
# 2 23.1908 160.3978 13.6556 0.0000 0.0000 0.0000
# 3 81.9247 13.6556 80.1108 0.0000 0.0000 0.0000
# 4 0.0000 0.0000 0.0000 36.9864 0.0000 0.0000
# 5 0.0000 0.0000 0.0000 0.0000 20.2855 0.0000
# 6 0.0000 0.0000 0.0000 0.0000 0.0000 36.4229
#
#
#
# Elastic Compliance Matrix: (Units=1/GPa)
#
#
# Indices 1 2 3 4 5 6 
#
# 1 0.018755 -0.001095 -0.018993 0.000000 0.000000 0.000000
# 2 -0.001095 0.006390 0.000030 0.000000 0.000000 0.000000
# 3 -0.018993 0.000030 0.031901 0.000000 0.000000 0.000000
# 4 0.000000 0.000000 0.000000 0.027037 0.000000 0.000000
# 5 0.000000 0.000000 0.000000 0.000000 0.049296 0.000000
# 6 0.000000 0.000000 0.000000 0.000000 0.000000 0.027455
#
#
# Mechanical properties :
#
#
# Convention : Reuss Voigt Hill
#
# Bulk Modulus (GPa) = 59.06398 68.40967 63.73682
# Shear Modulus (GPa) = 24.20197 36.03053 30.11625
#
# Velocity S-wave (km/s) = 3.61484 4.41062 4.03241
# Velocity P-wave (km/s) = 7.02228 7.92929 7.48953
#
# Compressibility (1/GPa) = 0.01693079
#
# Stress axis : x y z
#
# Youngs Moduli (GPa) = 53.31791 156.48954 31.34687
#
# Poissons Ratio (x) = 0.17131 0.59539
# Poissons Ratio (y) = 0.05837 -0.00095
# Poissons Ratio (z) = 1.01269 -0.00473
#
# Static dielectric constant tensor:
#      x y z
#    x 1.609040 0.000000 0.000000 
#    y 0.000000 1.614850 0.000000 
#    z 0.000000 0.000000 1.616780 
# 
# From -- ./inp_files/19360.got.cif
#   From: 2010.05.17/outbox.cif.g08.bks.cpg/sg62_10_cif.got.tgz:19360.got - 2010.06.03 15:25:27.
