data_PCOD9467602
_publ_section_title
;
Structure prediction by ZEFSAII (Michael W. Deem and Ramdas Pophale) SiO2 
 PCOD9467602
Probable space group: P N M A
;
_chemical_formula_sum "Si O2"
_cell_formula_units_Z 40
_cell_length_a 9.171507
_cell_length_b 14.446737
_cell_length_c 12.417283
_cell_angle_alpha 90.000000
_cell_angle_beta 90.000000
_cell_angle_gamma 90.000000
_cell_volume 1645.269503
_symmetry_space_group_name_H-M "P N M A"
_symmetry_group_IT_number 62
_symmetry_cell_setting 'orthorhombic'
loop_
_space_group_symop_operation_xyz
x,y,z
1/2-x,-y,1/2+z
1/2+x,1/2-y,1/2-z
-x,1/2+y,-z
-x,-y,-z
1/2+x,y,1/2-z
1/2-x,1/2+y,1/2+z
x,1/2-y,z
loop_
_atom_site_type_symbol
_atom_site_label
_atom_site_fract_x
_atom_site_fract_y
_atom_site_fract_z
Si Si1 0.768195 0.849249 0.479895
Si Si2 0.085261 0.459189 0.342897
Si Si3 0.274207 0.141643 0.159853
Si Si4 0.948648 0.856378 0.274311
Si Si5 0.945560 0.897473 0.027800
O O1 0.833154 0.750000 0.516821
O O2 0.811563 0.860077 0.355504
O O3 0.596390 0.844579 0.493739
O O4 0.834167 0.933460 0.546790
O O5 0.929161 0.408561 0.345669
O O6 0.058726 0.566933 0.320651
O O7 0.179660 0.412105 0.249040
O O8 0.410411 0.614868 0.346815
O O9 0.290886 0.250000 0.187733
O O10 0.184474 0.133102 0.048967
O O11 0.002343 0.750000 0.274829
O O12 0.000000 0.000000 0.000000
#
# Coordination Sequence:
#
# PCOD9467602 Si02
#       5
#     8   8   8   8   8
#     4  11  25  46  75 109 147 191 241 305 366 428
#     4  12  26  48  73 109 149 188 247 302 361 437
#     4  12  25  45  75 107 145 194 242 301 367 433
#     4  11  26  47  72 105 147 194 241 294 363 436
#     4  12  25  47  75 108 150 191 244 302 364 432
#
# _framework density 24.312127
#
# number of rings (size 3 to 8) (size 9 to 14) (size 15 to 20)
#    0.000    0.400    2.000    6.600    0.000    1.600 
#    0.000    2.000    0.000    0.000    0.000    0.000 
#    0.000    0.000    0.000    0.000    0.000    0.000 
#
# Total GULP energy -224408.119859 kJ/mol
# GULP energy per Si atom -5610.202996 kJ/mol
# Density = 2.425679 g / cm^3
# Si number density = 24.312127 Si / 1000 Ang^3
#
#
#
# Elastic Constant Matrix: (Units=GPa)
#
#
# Indices 1 2 3 4 5 6 
#
# 1 151.6890 35.8476 52.3383 0.0000 0.0000 0.0000
# 2 35.8476 189.9223 45.6795 0.0000 0.0000 0.0000
# 3 52.3383 45.6795 139.1508 0.0000 0.0000 0.0000
# 4 0.0000 0.0000 0.0000 -26.5296 0.0000 0.0000
# 5 0.0000 0.0000 0.0000 0.0000 21.1419 0.0000
# 6 0.0000 0.0000 0.0000 0.0000 0.0000 16.0782
#
#
#
# Elastic Compliance Matrix: (Units=1/GPa)
#
#
# Indices 1 2 3 4 5 6 
#
# 1 0.007692 -0.000821 -0.002624 0.000000 0.000000 0.000000
# 2 -0.000821 0.005804 -0.001597 0.000000 0.000000 0.000000
# 3 -0.002624 -0.001597 0.008697 0.000000 0.000000 0.000000
# 4 0.000000 0.000000 0.000000 -0.037694 0.000000 0.000000
# 5 0.000000 0.000000 0.000000 0.000000 0.047299 0.000000
# 6 0.000000 0.000000 0.000000 0.000000 0.000000 0.062196
#
#
# Mechanical properties :
#
#
# Convention : Reuss Voigt Hill
#
# Bulk Modulus (GPa) = 82.56804 83.16590 82.86697
# Shear Modulus (GPa) = 46.24755 25.26457 35.75606
#
# Velocity S-wave (km/s) = 4.36620 3.22712 3.83914
# Velocity P-wave (km/s) = 7.71062 6.94029 7.33557
#
# Compressibility (1/GPa) = 0.01211122
#
# Stress axis : x y z
#
# Youngs Moduli (GPa) = 130.01132 172.28736 114.97699
#
# Poissons Ratio (x) = 0.14141 0.30165
# Poissons Ratio (y) = 0.10671 0.18358
# Poissons Ratio (z) = 0.34110 0.27509
#
# Static dielectric constant tensor:
#      x y z
#    x 1.862910 0.000000 0.000000 
#    y 0.000000 1.993180 0.000000 
#    z 0.000000 0.000000 1.905360 
# 
# From -- ./inp_files/25827.got.cif
#   From: 2010.05.17/outbox.cif.g08.bks.cpg/sg62_13_cif.got.tgz:25827.got - 2010.06.03 15:25:27.
