data_PCOD9467181
_publ_section_title
;
Structure prediction by ZEFSAII (Michael W. Deem and Ramdas Pophale) SiO2 
 PCOD9467181
Probable space group: P N M A
;
_chemical_formula_sum "Si O2"
_cell_formula_units_Z 64
_cell_length_a 23.989116
_cell_length_b 8.701118
_cell_length_c 15.368178
_cell_angle_alpha 90.000000
_cell_angle_beta 90.000000
_cell_angle_gamma 90.000000
_cell_volume 3207.832513
_symmetry_space_group_name_H-M "P N M A"
_symmetry_group_IT_number 62
_symmetry_cell_setting 'orthorhombic'
loop_
_space_group_symop_operation_xyz
x,y,z
1/2-x,-y,1/2+z
1/2+x,1/2-y,1/2-z
-x,1/2+y,-z
-x,-y,-z
1/2+x,y,1/2-z
1/2-x,1/2+y,1/2+z
x,1/2-y,z
loop_
_atom_site_type_symbol
_atom_site_label
_atom_site_fract_x
_atom_site_fract_y
_atom_site_fract_z
Si Si1 0.717773 0.931060 0.575264
Si Si2 0.383935 0.074095 0.150331
Si Si3 0.881321 0.573286 0.169599
Si Si4 0.006092 0.570409 0.096221
Si Si5 0.577049 0.433756 0.246597
Si Si6 0.227523 0.069737 0.608790
Si Si7 0.700810 0.934339 0.219028
Si Si8 0.497470 0.569391 0.096523
O O1 0.708608 0.750000 0.591447
O O2 0.734935 0.950931 0.475673
O O3 0.662362 0.026064 0.596304
O O4 0.767248 0.990710 0.637645
O O5 0.400377 0.250000 0.135617
O O6 0.370876 0.040887 0.250880
O O7 0.328009 0.030118 0.100323
O O8 0.434785 0.963353 0.127745
O O9 0.870958 0.750000 0.196514
O O10 0.944820 0.559901 0.139185
O O11 0.021273 0.750000 0.089030
O O12 0.049044 0.490560 0.162867
O O13 0.000000 0.500000 0.000000
O O14 0.578902 0.250000 0.246467
O O15 0.638824 0.501371 0.233257
O O16 0.538588 0.490954 0.166307
O O17 0.211429 0.250000 0.613986
O O18 0.261869 0.032056 0.695613
O O19 0.698486 0.750000 0.208229
O O20 0.509480 0.750000 0.094608
O O21 0.500000 0.500000 0.000000
#
# Coordination Sequence:
#
# PCOD9467181 Si02
#       8
#     8   8   8   8   8   8   8   8
#     4  11  24  42  66  98 130 169 219 270 325 388
#     4  12  24  41  69  99 129 169 219 271 326 386
#     4  11  23  42  67  95 130 171 216 270 330 387
#     4  11  25  44  68  98 133 175 222 273 330 392
#     4  12  26  45  68  97 134 175 221 272 328 393
#     4  10  24  44  66  94 132 173 215 266 327 388
#     4  11  24  44  67  93 131 177 218 266 329 392
#     4  12  26  46  70  98 133 173 220 271 330 393
#
# _framework density 19.951165
#
# number of rings (size 3 to 8) (size 9 to 14) (size 15 to 20)
#    0.000    0.750    2.500    4.875    3.500    3.000 
#    0.000    0.000    0.000    0.000    0.000    0.000 
#    0.000    0.000    0.000    0.000    0.000    0.000 
#
# Total GULP energy -358072.427529 kJ/mol
# GULP energy per Si atom -5594.881680 kJ/mol
# Density = 1.990576 g / cm^3
# Si number density = 19.951165 Si / 1000 Ang^3
#
#
#
# Elastic Constant Matrix: (Units=GPa)
#
#
# Indices 1 2 3 4 5 6 
#
# 1 47.8393 0.7818 -26.1086 0.0000 0.0000 0.0000
# 2 0.7818 69.8232 2.0182 0.0000 0.0000 0.0000
# 3 -26.1086 2.0182 55.6231 0.0000 0.0000 0.0000
# 4 0.0000 0.0000 0.0000 32.9421 0.0000 0.0000
# 5 0.0000 0.0000 0.0000 0.0000 21.4991 0.0000
# 6 0.0000 0.0000 0.0000 0.0000 0.0000 34.9307
#
#
#
# Elastic Compliance Matrix: (Units=1/GPa)
#
#
# Indices 1 2 3 4 5 6 
#
# 1 0.028136 -0.000697 0.013232 0.000000 0.000000 0.000000
# 2 -0.000697 0.014354 -0.000848 0.000000 0.000000 0.000000
# 3 0.013232 -0.000848 0.024220 0.000000 0.000000 0.000000
# 4 0.000000 0.000000 0.000000 0.030356 0.000000 0.000000
# 5 0.000000 0.000000 0.000000 0.000000 0.046514 0.000000
# 6 0.000000 0.000000 0.000000 0.000000 0.000000 0.028628
#
#
# Mechanical properties :
#
#
# Convention : Reuss Voigt Hill
#
# Bulk Modulus (GPa) = 11.10093 14.07428 12.58760
# Shear Modulus (GPa) = 27.95435 30.98067 29.46751
#
# Velocity S-wave (km/s) = 3.74724 3.94487 3.84732
# Velocity P-wave (km/s) = 4.92935 5.27437 5.10478
#
# Compressibility (1/GPa) = 0.09008253
#
# Stress axis : x y z
#
# Youngs Moduli (GPa) = 35.54154 69.66600 41.28858
#
# Poissons Ratio (x) = 0.04859 -0.54633
# Poissons Ratio (y) = 0.02479 0.03502
# Poissons Ratio (z) = -0.47028 0.05909
#
# Static dielectric constant tensor:
#      x y z
#    x 1.673550 0.000000 0.000000 
#    y 0.000000 1.085590 0.000000 
#    z 0.000000 0.000000 1.740920 
# 
# From -- ./inp_files/20954.got.cif
#   From: 2010.05.17/outbox.cif.g08.bks.cpg/sg62_11_cif.got.tgz:20954.got - 2010.06.03 15:25:27.
