data_PCOD9467614
_publ_section_title
;
Structure prediction by ZEFSAII (Michael W. Deem and Ramdas Pophale) SiO2 
 PCOD9467614
Probable space group: P N M A
;
_chemical_formula_sum "Si O2"
_cell_formula_units_Z 32
_cell_length_a 23.143649
_cell_length_b 11.480724
_cell_length_c 5.160875
_cell_angle_alpha 90.000000
_cell_angle_beta 90.000000
_cell_angle_gamma 90.000000
_cell_volume 1371.274661
_symmetry_space_group_name_H-M "P N M A"
_symmetry_group_IT_number 62
_symmetry_cell_setting 'orthorhombic'
loop_
_space_group_symop_operation_xyz
x,y,z
1/2-x,-y,1/2+z
1/2+x,1/2-y,1/2-z
-x,1/2+y,-z
-x,-y,-z
1/2+x,y,1/2-z
1/2-x,1/2+y,1/2+z
x,1/2-y,z
loop_
_atom_site_type_symbol
_atom_site_label
_atom_site_fract_x
_atom_site_fract_y
_atom_site_fract_z
Si Si1 0.406993 0.030735 0.079663
Si Si2 0.781934 0.250000 0.677692
Si Si3 0.137279 0.750000 0.829289
Si Si4 0.275898 0.965848 0.083329
Si Si5 0.998648 0.384702 0.819753
O O1 0.399146 0.130890 0.298305
O O2 0.442540 0.097609 0.859126
O O3 0.342259 0.990032 0.017653
O O4 0.444309 0.916904 0.150198
O O5 0.819026 0.250000 0.416811
O O6 0.829727 0.250000 0.902645
O O7 0.740328 0.357689 0.732668
O O8 0.245066 0.943236 0.807232
O O9 0.002320 0.250000 0.912463
O O10 0.000000 0.500000 0.000000
#
# Coordination Sequence:
#
# PCOD9467614 Si02
#       5
#     8   4   4   8   8
#     4  11  26  46  73 105 147 195 254 313 385 451
#     4  12  24  44  69 112 151 192 244 300 380 462
#     4  12  24  44  81 102 151 200 244 306 376 476
#     4  12  25  44  71 110 145 189 241 303 371 453
#     4  11  28  49  75 107 147 202 265 324 386 455
#
# _framework density 23.335954999999998
#
# number of rings (size 3 to 8) (size 9 to 14) (size 15 to 20)
#    0.000    0.500    6.250    0.000   10.500    1.000 
#    0.000    0.000    0.000    0.000    0.000    0.000 
#    0.000    0.000    0.000    0.000    0.000    0.000 
#
# Total GULP energy -178486.517296 kJ/mol
# GULP energy per Si atom -5577.703666 kJ/mol
# Density = 2.328284 g / cm^3
# Si number density = 23.335955 Si / 1000 Ang^3
#
#
#
# Elastic Constant Matrix: (Units=GPa)
#
#
# Indices 1 2 3 4 5 6 
#
# 1 165.8411 39.8422 46.4405 0.0000 0.0000 0.0000
# 2 39.8422 146.0879 37.8567 0.0000 0.0000 0.0000
# 3 46.4405 37.8567 97.9319 0.0000 0.0000 0.0000
# 4 0.0000 0.0000 0.0000 31.8265 0.0000 0.0000
# 5 0.0000 0.0000 0.0000 0.0000 32.6646 0.0000
# 6 0.0000 0.0000 0.0000 0.0000 0.0000 33.6557
#
#
#
# Elastic Compliance Matrix: (Units=1/GPa)
#
#
# Indices 1 2 3 4 5 6 
#
# 1 0.007134 -0.001188 -0.002924 0.000000 0.000000 0.000000
# 2 -0.001188 0.007805 -0.002454 0.000000 0.000000 0.000000
# 3 -0.002924 -0.002454 0.012546 0.000000 0.000000 0.000000
# 4 0.000000 0.000000 0.000000 0.031420 0.000000 0.000000
# 5 0.000000 0.000000 0.000000 0.000000 0.030614 0.000000
# 6 0.000000 0.000000 0.000000 0.000000 0.000000 0.029713
#
#
# Mechanical properties :
#
#
# Convention : Reuss Voigt Hill
#
# Bulk Modulus (GPa) = 69.66625 73.12664 71.39644
# Shear Modulus (GPa) = 36.45687 38.67746 37.56717
#
# Velocity S-wave (km/s) = 3.95683 4.07556 4.01663
# Velocity P-wave (km/s) = 7.12698 7.31788 7.22306
#
# Compressibility (1/GPa) = 0.01435415
#
# Stress axis : x y z
#
# Youngs Moduli (GPa) = 140.17326 128.12216 79.70528
#
# Poissons Ratio (x) = 0.15221 0.23304
# Poissons Ratio (y) = 0.16652 0.19558
# Poissons Ratio (z) = 0.40984 0.31438
#
# Static dielectric constant tensor:
#      x y z
#    x 1.877650 0.000000 0.000000 
#    y 0.000000 2.142950 0.000000 
#    z 0.000000 0.000000 1.959580 
# 
# From -- ./inp_files/2015.got.cif
#   From: 2010.05.17/outbox.cif.g08.bks.cpg/sg62_2_cif.got.tgz:2015.got - 2010.06.03 15:25:27.
