data_PCOD9467820
_publ_section_title
;
Structure prediction by ZEFSAII (Michael W. Deem and Ramdas Pophale) SiO2 
 PCOD9467820
Probable space group: P N M A
;
_chemical_formula_sum "Si O2"
_cell_formula_units_Z 48
_cell_length_a 24.000000
_cell_length_b 9.000000
_cell_length_c 12.000000
_cell_angle_alpha 90.000000
_cell_angle_beta 90.000000
_cell_angle_gamma 90.000000
_cell_volume 2592.000000
_symmetry_space_group_name_H-M "P N M A"
_symmetry_group_IT_number 62
_symmetry_cell_setting 'orthorhombic'
loop_
_space_group_symop_operation_xyz
x,y,z
1/2-x,-y,1/2+z
1/2+x,1/2-y,1/2-z
-x,1/2+y,-z
-x,-y,-z
1/2+x,y,1/2-z
1/2-x,1/2+y,1/2+z
x,1/2-y,z
loop_
_atom_site_type_symbol
_atom_site_label
_atom_site_fract_x
_atom_site_fract_y
_atom_site_fract_z
Si Si1 0.230330 0.572986 0.849468
Si Si2 0.155586 0.571092 0.407483
Si Si3 0.870964 0.070907 0.000970
Si Si4 0.640918 0.571671 0.838639
Si Si5 0.574122 0.569817 0.275461
Si Si6 0.051769 0.428519 0.814786
O O1 0.239325 0.750000 0.855580
O O2 0.288372 0.490661 0.853881
O O3 0.189372 0.528095 0.951398
O O4 0.193930 0.540920 0.739800
O O5 0.157337 0.750000 0.403188
O O6 0.152413 0.526703 0.535688
O O7 0.101486 0.519694 0.339353
O O8 0.875053 0.250000 0.012524
O O9 0.918131 0.998391 0.078123
O O10 0.884079 0.029088 0.875010
O O11 0.630845 0.750000 0.832874
O O12 0.588568 0.486063 0.787926
O O13 0.571462 0.750000 0.273228
O O14 0.511772 0.519413 0.301353
O O15 0.053181 0.250000 0.821896
#
# Coordination Sequence:
#
# PCOD9467820 Si02
#       6
#     8   8   8   8   8   8
#     4   9  19  34  52  75 105 138 172 218 263 305
#     4  10  21  36  55  77 103 142 180 212 257 316
#     4   9  18  35  56  77 108 144 172 212 272 316
#     4   9  20  38  55  74 106 142 173 210 266 319
#     4   9  19  34  53  80 109 138 175 218 263 310
#     4  10  19  33  55  81 106 135 179 223 256 306
#
# _framework density 18.518519000000001
#
# number of rings (size 3 to 8) (size 9 to 14) (size 15 to 20)
#    0.000    2.667    0.000    2.000    2.333    4.000 
#    0.000    3.333    0.000    0.000    0.000    0.000 
#    0.000    0.000    0.000    0.000    0.000    0.000 
#
# Total GULP energy -267657.306211 kJ/mol
# GULP energy per Si atom -5576.193879 kJ/mol
# Density = 1.847637 g / cm^3
# Si number density = 18.518519 Si / 1000 Ang^3
#
#
#
# Elastic Constant Matrix: (Units=GPa)
#
#
# Indices 1 2 3 4 5 6 
#
# 1 15.6487 -6.1745 6.2188 0.0000 0.0000 0.0000
# 2 -6.1745 0.6849 6.1578 0.0000 0.0000 0.0000
# 3 6.2188 6.1578 52.5950 0.0000 0.0000 0.0000
# 4 0.0000 0.0000 0.0000 17.3958 0.0000 0.0000
# 5 0.0000 0.0000 0.0000 0.0000 -22.1366 0.0000
# 6 0.0000 0.0000 0.0000 0.0000 0.0000 28.4500
#
#
#
# Elastic Compliance Matrix: (Units=1/GPa)
#
#
# Indices 1 2 3 4 5 6 
#
# 1 0.000747 -0.143259 0.016684 0.000000 0.000000 0.000000
# 2 -0.143259 -0.309517 0.053177 0.000000 0.000000 0.000000
# 3 0.016684 0.053177 0.010815 0.000000 0.000000 0.000000
# 4 0.000000 0.000000 0.000000 0.057485 0.000000 0.000000
# 5 0.000000 0.000000 0.000000 0.000000 -0.045174 0.000000
# 6 0.000000 0.000000 0.000000 0.000000 0.000000 0.035149
#
#
# Mechanical properties :
#
#
# Convention : Reuss Voigt Hill
#
# Bulk Modulus (GPa) = -2.24845 9.03696 3.39426
# Shear Modulus (GPa) = -19.84525 8.92359 -5.46083
#
# Velocity S-wave (km/s) = -3.27715 2.19754 -1.71908
# Velocity P-wave (km/s) = 3.94162 3.36593 1.45033
#
# Compressibility (1/GPa) = -0.44475064
#
# Stress axis : x y z
#
# Youngs Moduli (GPa) = 1337.88214 -3.23084 92.46734
#
# Poissons Ratio (x) = -0.46285 -1.54274
# Poissons Ratio (y) = 191.66308 -4.91711
# Poissons Ratio (z) = -22.32148 0.17181
#
# Static dielectric constant tensor:
#      x y z
#    x 1.610590 0.000000 0.000000 
#    y 0.000000 1.616330 0.000000 
#    z 0.000000 0.000000 1.659720 
# 
# From -- ./inp_files/15102.got.cif
#   From: 2010.05.17/outbox.ucp.g08.bks.cvg/sg62_8_cif.got.tgz:15102.got - 2010.06.11 16:29:25.
