data_PCOD9467553
_publ_section_title
;
Structure prediction by ZEFSAII (Michael W. Deem and Ramdas Pophale) SiO2 
 PCOD9467553
Probable space group: P N M A
;
_chemical_formula_sum "Si O2"
_cell_formula_units_Z 56
_cell_length_a 7.961311
_cell_length_b 22.479577
_cell_length_c 15.268076
_cell_angle_alpha 90.000000
_cell_angle_beta 90.000000
_cell_angle_gamma 90.000000
_cell_volume 2732.480286
_symmetry_space_group_name_H-M "P N M A"
_symmetry_group_IT_number 62
_symmetry_cell_setting 'orthorhombic'
loop_
_space_group_symop_operation_xyz
x,y,z
1/2-x,-y,1/2+z
1/2+x,1/2-y,1/2-z
-x,1/2+y,-z
-x,-y,-z
1/2+x,y,1/2-z
1/2-x,1/2+y,1/2+z
x,1/2-y,z
loop_
_atom_site_type_symbol
_atom_site_label
_atom_site_fract_x
_atom_site_fract_y
_atom_site_fract_z
Si Si1 0.542276 0.509158 0.735893
Si Si2 0.455554 0.052372 0.067982
Si Si3 0.786760 0.075734 0.790675
Si Si4 0.945651 0.559138 0.944234
Si Si5 0.392335 0.639416 0.059576
Si Si6 0.035262 0.684748 0.029693
Si Si7 0.778830 0.316267 0.659919
O O1 0.505421 0.535902 0.831892
O O2 0.478746 0.443483 0.700652
O O3 0.734758 0.487722 0.749539
O O4 0.513403 0.551265 0.654178
O O5 0.256066 0.061906 0.057962
O O6 0.557039 0.109390 0.031987
O O7 0.500000 0.000000 0.000000
O O8 0.674731 0.087075 0.875487
O O9 0.777268 0.134118 0.733746
O O10 0.000000 0.500000 0.000000
O O11 0.009593 0.622152 0.980410
O O12 0.230426 0.681584 0.057374
O O13 0.560411 0.668377 0.099174
O O14 0.007663 0.750000 0.986357
O O15 0.895625 0.682351 0.106452
O O16 0.800322 0.250000 0.696473
#
# Coordination Sequence:
#
# PCOD9467553 Si02
#       7
#     8   8   8   8   8   8   8
#     4  12  25  39  64 100 135 176 223 282 353 411
#     4  12  23  41  65 101 140 182 225 289 356 411
#     4  12  22  40  59  94 140 174 218 279 340 409
#     4  12  25  42  71 103 139 182 233 293 353 417
#     4  12  24  43  66  96 140 181 232 279 342 415
#     4  11  26  46  68  98 138 183 231 283 347 413
#     4  11  24  42  65  93 133 182 229 275 334 421
#
# _framework density 20.494198999999998
#
# number of rings (size 3 to 8) (size 9 to 14) (size 15 to 20)
#    0.000    0.286    5.714    3.857    4.000    1.143 
#    0.000    0.000    0.000    4.286    0.000    0.000 
#    0.000    0.000    0.000    0.000    0.000    0.000 
#
# Total GULP energy -312464.356850 kJ/mol
# GULP energy per Si atom -5579.720658 kJ/mol
# Density = 2.044755 g / cm^3
# Si number density = 20.494199 Si / 1000 Ang^3
#
#
#
# Elastic Constant Matrix: (Units=GPa)
#
#
# Indices 1 2 3 4 5 6 
#
# 1 90.7514 32.5361 32.5931 0.0000 0.0000 0.0000
# 2 32.5361 132.7314 57.1497 0.0000 0.0000 0.0000
# 3 32.5931 57.1497 99.7415 0.0000 0.0000 0.0000
# 4 0.0000 0.0000 0.0000 29.8122 0.0000 0.0000
# 5 0.0000 0.0000 0.0000 0.0000 22.0817 0.0000
# 6 0.0000 0.0000 0.0000 0.0000 0.0000 17.3873
#
#
#
# Elastic Compliance Matrix: (Units=1/GPa)
#
#
# Indices 1 2 3 4 5 6 
#
# 1 0.012791 -0.001773 -0.003164 0.000000 0.000000 0.000000
# 2 -0.001773 0.010247 -0.005292 0.000000 0.000000 0.000000
# 3 -0.003164 -0.005292 0.014092 0.000000 0.000000 0.000000
# 4 0.000000 0.000000 0.000000 0.033543 0.000000 0.000000
# 5 0.000000 0.000000 0.000000 0.000000 0.045286 0.000000
# 6 0.000000 0.000000 0.000000 0.000000 0.000000 0.057513
#
#
# Mechanical properties :
#
#
# Convention : Reuss Voigt Hill
#
# Bulk Modulus (GPa) = 59.97983 63.08689 61.53336
# Shear Modulus (GPa) = 25.06405 27.25258 26.15831
#
# Velocity S-wave (km/s) = 3.50091 3.65056 3.57652
# Velocity P-wave (km/s) = 6.75811 6.97269 6.86624
#
# Compressibility (1/GPa) = 0.01667227
#
# Stress axis : x y z
#
# Youngs Moduli (GPa) = 78.17924 97.58728 70.96237
#
# Poissons Ratio (x) = 0.17304 0.22451
# Poissons Ratio (y) = 0.13863 0.37553
# Poissons Ratio (z) = 0.24734 0.51643
#
# Static dielectric constant tensor:
#      x y z
#    x 1.856910 0.000000 0.000000 
#    y 0.000000 1.747670 0.000000 
#    z 0.000000 0.000000 1.709090 
# 
# From -- ./inp_files/17198.got.cif
#   From: 2010.05.17/outbox.cif.g08.bks.cpg/sg62_9_cif.got.tgz:17198.got - 2010.06.03 15:25:27.
