data_PCOD9467017
_publ_section_title
;
Structure prediction by ZEFSAII (Michael W. Deem and Ramdas Pophale) SiO2 
 PCOD9467017
Probable space group: P N M A
;
_chemical_formula_sum "Si O2"
_cell_formula_units_Z 40
_cell_length_a 14.054183
_cell_length_b 21.537229
_cell_length_c 4.965265
_cell_angle_alpha 90.000000
_cell_angle_beta 90.000000
_cell_angle_gamma 90.000000
_cell_volume 1502.926915
_symmetry_space_group_name_H-M "P N M A"
_symmetry_group_IT_number 62
_symmetry_cell_setting 'orthorhombic'
loop_
_space_group_symop_operation_xyz
x,y,z
1/2-x,-y,1/2+z
1/2+x,1/2-y,1/2-z
-x,1/2+y,-z
-x,-y,-z
1/2+x,y,1/2-z
1/2-x,1/2+y,1/2+z
x,1/2-y,z
loop_
_atom_site_type_symbol
_atom_site_label
_atom_site_fract_x
_atom_site_fract_y
_atom_site_fract_z
Si Si1 0.845009 0.559445 0.500130
Si Si2 0.925022 0.135070 0.304886
Si Si3 0.627317 0.512005 0.504025
Si Si4 0.966593 0.681162 0.200577
Si Si5 0.790591 0.678304 0.833857
O O1 0.736314 0.534663 0.485240
O O2 0.881617 0.546706 0.201700
O O3 0.896168 0.512597 0.708541
O O4 0.834201 0.627107 0.632147
O O5 0.818306 0.157302 0.378614
O O6 0.985788 0.136460 0.578141
O O7 0.972637 0.177170 0.075051
O O8 0.921065 0.069125 0.153978
O O9 0.978486 0.750000 0.320251
O O10 0.858001 0.676108 0.096156
O O11 0.791775 0.750000 0.738183
#
# Coordination Sequence:
#
# PCOD9467017 Si02
#       5
#     8   8   8   8   8
#     4   9  18  35  58  87 120 156 201 251 304 361
#     4  11  23  43  67  92 125 166 209 255 313 370
#     4   9  18  35  60  86 118 159 200 251 307 359
#     4  11  24  41  62  94 129 161 208 262 308 366
#     4  10  23  42  66  93 126 168 208 253 312 372
#
# _framework density 26.614733000000001
#
# number of rings (size 3 to 8) (size 9 to 14) (size 15 to 20)
#    0.000    2.000    0.000    3.000    0.000    8.000 
#    0.000   13.000    0.000    0.000    0.000    0.000 
#    0.000    0.000    0.000    0.000    0.000    0.000 
#
# Total GULP energy -224106.214960 kJ/mol
# GULP energy per Si atom -5602.655374 kJ/mol
# Density = 2.655416 g / cm^3
# Si number density = 26.614733 Si / 1000 Ang^3
#
#
#
# Elastic Constant Matrix: (Units=GPa)
#
#
# Indices 1 2 3 4 5 6 
#
# 1 176.5066 1.6733 27.7247 0.0000 0.0000 0.0000
# 2 1.6733 116.4978 -18.4542 0.0000 0.0000 0.0000
# 3 27.7247 -18.4542 114.0992 0.0000 0.0000 0.0000
# 4 0.0000 0.0000 0.0000 14.5333 0.0000 0.0000
# 5 0.0000 0.0000 0.0000 0.0000 32.2918 0.0000
# 6 0.0000 0.0000 0.0000 0.0000 0.0000 21.0661
#
#
#
# Elastic Compliance Matrix: (Units=1/GPa)
#
#
# Indices 1 2 3 4 5 6 
#
# 1 0.005902 -0.000320 -0.001486 0.000000 0.000000 0.000000
# 2 -0.000320 0.008827 0.001505 0.000000 0.000000 0.000000
# 3 -0.001486 0.001505 0.009369 0.000000 0.000000 0.000000
# 4 0.000000 0.000000 0.000000 0.068807 0.000000 0.000000
# 5 0.000000 0.000000 0.000000 0.000000 0.030968 0.000000
# 6 0.000000 0.000000 0.000000 0.000000 0.000000 0.047470
#
#
# Mechanical properties :
#
#
# Convention : Reuss Voigt Hill
#
# Bulk Modulus (GPa) = 42.55944 47.66567 45.11256
# Shear Modulus (GPa) = 27.81247 39.98893 33.90070
#
# Velocity S-wave (km/s) = 3.23616 3.88043 3.57284
# Velocity P-wave (km/s) = 5.47625 6.16647 5.83158
#
# Compressibility (1/GPa) = 0.02349655
#
# Stress axis : x y z
#
# Youngs Moduli (GPa) = 169.43585 113.28969 106.73680
#
# Poissons Ratio (x) = 0.03627 0.15860
# Poissons Ratio (y) = 0.05424 -0.16069
# Poissons Ratio (z) = 0.25176 -0.17055
#
# Static dielectric constant tensor:
#      x y z
#    x 2.129190 0.000000 0.000000 
#    y 0.000000 2.140050 0.000000 
#    z 0.000000 0.000000 1.990380 
# 
# From -- ./inp_files/6583.got.cif
#   From: 2010.05.17/outbox.cif.g08.bks.cpg/sg62_4_cif.got.tgz:6583.got - 2010.06.03 15:25:27.
