data_PCOD9467912
_publ_section_title
;
Structure prediction by ZEFSAII (Michael W. Deem and Ramdas Pophale) SiO2 
 PCOD9467912
Probable space group: P N M A
;
_chemical_formula_sum "Si O2"
_cell_formula_units_Z 56
_cell_length_a 12.000000
_cell_length_b 15.000000
_cell_length_c 15.000000
_cell_angle_alpha 90.000000
_cell_angle_beta 90.000000
_cell_angle_gamma 90.000000
_cell_volume 2700.000000
_symmetry_space_group_name_H-M "P N M A"
_symmetry_group_IT_number 62
_symmetry_cell_setting 'orthorhombic'
loop_
_space_group_symop_operation_xyz
x,y,z
1/2-x,-y,1/2+z
1/2+x,1/2-y,1/2-z
-x,1/2+y,-z
-x,-y,-z
1/2+x,y,1/2-z
1/2-x,1/2+y,1/2+z
x,1/2-y,z
loop_
_atom_site_type_symbol
_atom_site_label
_atom_site_fract_x
_atom_site_fract_y
_atom_site_fract_z
Si Si1 0.025795 0.144073 0.389960
Si Si2 0.604247 0.503868 0.435865
Si Si3 0.411468 0.489315 0.769139
Si Si4 0.279564 0.649345 0.029882
Si Si5 0.921111 0.846677 0.301181
Si Si6 0.251013 0.650868 0.333566
Si Si7 0.279056 0.148054 0.044952
O O1 0.025531 0.250000 0.372571
O O2 0.112357 0.127900 0.470531
O O3 0.900389 0.118739 0.419512
O O4 0.070417 0.087235 0.307022
O O5 0.500000 0.500000 0.500000
O O6 0.568833 0.521938 0.334981
O O7 0.683647 0.578472 0.478459
O O8 0.680154 0.416055 0.426764
O O9 0.498422 0.426639 0.820679
O O10 0.297335 0.439382 0.791861
O O11 0.244283 0.750000 0.007359
O O12 0.317220 0.647464 0.132655
O O13 0.972288 0.750000 0.320307
O O14 0.878022 0.848930 0.200092
O O15 0.211695 0.750000 0.301472
O O16 0.226102 0.647407 0.437643
O O17 0.262058 0.250000 0.074455
#
# Coordination Sequence:
#
# PCOD9467912 Si02
#       7
#     8   8   8   8   8   8   8
#     4  10  23  42  67  93 117 161 223 275 312 355
#     4  12  26  41  60  92 133 174 208 242 309 390
#     4  12  23  36  61  88 127 159 204 256 309 369
#     4  10  21  42  67  93 126 161 205 265 320 369
#     4  10  20  35  59  92 123 155 199 253 318 376
#     4  10  20  36  60  91 120 152 197 251 315 373
#     4  10  22  43  66  89 123 165 213 264 314 368
#
# _framework density 20.740741
#
# number of rings (size 3 to 8) (size 9 to 14) (size 15 to 20)
#    0.000    1.429    1.429    3.857    0.000    5.714 
#    0.000    0.000    0.000    0.000    0.000    0.000 
#    0.000    0.000    0.000    0.000    0.000    0.000 
#
# Total GULP energy -312247.635171 kJ/mol
# GULP energy per Si atom -5575.850628 kJ/mol
# Density = 2.069353 g / cm^3
# Si number density = 20.740741 Si / 1000 Ang^3
#
#
#
# Elastic Constant Matrix: (Units=GPa)
#
#
# Indices 1 2 3 4 5 6 
#
# 1 90.5543 67.0488 11.0813 0.0000 0.0000 0.0000
# 2 67.0488 71.5187 6.3292 0.0000 0.0000 0.0000
# 3 11.0813 6.3292 -12.9341 0.0000 0.0000 0.0000
# 4 0.0000 0.0000 0.0000 15.8843 0.0000 0.0000
# 5 0.0000 0.0000 0.0000 0.0000 21.2079 0.0000
# 6 0.0000 0.0000 0.0000 0.0000 0.0000 57.6176
#
#
#
# Elastic Compliance Matrix: (Units=1/GPa)
#
#
# Indices 1 2 3 4 5 6 
#
# 1 0.033716 -0.032747 0.012862 0.000000 0.000000 0.000000
# 2 -0.032747 0.045207 -0.005934 0.000000 0.000000 0.000000
# 3 0.012862 -0.005934 -0.069200 0.000000 0.000000 0.000000
# 4 0.000000 0.000000 0.000000 0.062955 0.000000 0.000000
# 5 0.000000 0.000000 0.000000 0.000000 0.047152 0.000000
# 6 0.000000 0.000000 0.000000 0.000000 0.000000 0.017356
#
#
# Mechanical properties :
#
#
# Convention : Reuss Voigt Hill
#
# Bulk Modulus (GPa) = -23.85834 35.33973 5.74070
# Shear Modulus (GPa) = 28.59544 23.25393 25.92468
#
# Velocity S-wave (km/s) = 3.71712 3.35202 3.53928
# Velocity P-wave (km/s) = 2.62576 5.66191 4.41315
#
# Compressibility (1/GPa) = -0.04191407
#
# Stress axis : x y z
#
# Youngs Moduli (GPa) = 29.65984 22.12027 -14.45095
#
# Poissons Ratio (x) = 0.72436 0.18586
# Poissons Ratio (y) = 0.97126 -0.08575
# Poissons Ratio (z) = -0.38147 0.13126
#
# Static dielectric constant tensor:
#      x y z
#    x 1.817250 0.000000 0.000000 
#    y 0.000000 1.796780 0.000000 
#    z 0.000000 0.000000 1.757760 
# 
# From -- ./inp_files/18115.got.cif
#   From: 2010.05.17/outbox.ucp.g08.bks.cvg/sg62_10_cif.got.tgz:18115.got - 2010.06.11 16:29:25.
