data_PCOD9467813
_publ_section_title
;
Structure prediction by ZEFSAII (Michael W. Deem and Ramdas Pophale) SiO2 
 PCOD9467813
Probable space group: P N M A
;
_chemical_formula_sum "Si O2"
_cell_formula_units_Z 48
_cell_length_a 18.000000
_cell_length_b 18.000000
_cell_length_c 9.000000
_cell_angle_alpha 90.000000
_cell_angle_beta 90.000000
_cell_angle_gamma 90.000000
_cell_volume 2916.000000
_symmetry_space_group_name_H-M "P N M A"
_symmetry_group_IT_number 62
_symmetry_cell_setting 'orthorhombic'
loop_
_space_group_symop_operation_xyz
x,y,z
1/2-x,-y,1/2+z
1/2+x,1/2-y,1/2-z
-x,1/2+y,-z
-x,-y,-z
1/2+x,y,1/2-z
1/2-x,1/2+y,1/2+z
x,1/2-y,z
loop_
_atom_site_type_symbol
_atom_site_label
_atom_site_fract_x
_atom_site_fract_y
_atom_site_fract_z
Si Si1 0.629810 0.338153 0.885501
Si Si2 0.824003 0.540254 0.807366
Si Si3 0.274735 0.092556 0.473375
Si Si4 0.584826 0.409967 0.568489
Si Si5 0.938443 0.412183 0.111648
Si Si6 0.964727 0.938927 0.609505
O O1 0.618585 0.250000 0.882430
O O2 0.611002 0.371925 0.721649
O O3 0.713612 0.356221 0.943809
O O4 0.575853 0.378299 0.005551
O O5 0.765209 0.565613 0.680922
O O6 0.900134 0.524537 0.714154
O O7 0.790647 0.473140 0.905824
O O8 0.854367 0.597268 0.934918
O O9 0.357226 0.121501 0.426385
O O10 0.575604 0.498712 0.595921
O O11 0.503778 0.387422 0.502657
O O12 0.974043 0.405106 0.276784
O O13 0.000000 0.000000 0.500000
#
# Coordination Sequence:
#
# PCOD9467813 Si02
#       6
#     8   8   8   8   8   8
#     4  11  23  38  54  79 119 158 187 229 295 357
#     4   9  19  30  55  86 110 140 179 234 281 331
#     4  10  19  33  53  83 115 144 181 229 282 335
#     4   9  17  34  54  82 111 141 190 232 284 335
#     4   9  17  32  58  86 104 135 189 246 278 316
#     4  10  19  34  59  87 110 145 189 239 280 338
#
# _framework density 16.460905
#
# number of rings (size 3 to 8) (size 9 to 14) (size 15 to 20)
#    0.000    2.333    1.667    3.000    2.333    0.000 
#    0.000    9.167    0.000    0.000    0.000    0.000 
#    0.000    0.000    0.000    0.000    0.000    0.000 
#
# Total GULP energy -267227.044275 kJ/mol
# GULP energy per Si atom -5567.230089 kJ/mol
# Density = 1.642344 g / cm^3
# Si number density = 16.460905 Si / 1000 Ang^3
#
#
#
# Elastic Constant Matrix: (Units=GPa)
#
#
# Indices 1 2 3 4 5 6 
#
# 1 125.1288 32.1132 61.6052 0.0000 0.0000 0.0000
# 2 32.1132 58.1893 35.2124 0.0000 0.0000 0.0000
# 3 61.6052 35.2124 149.9380 0.0000 0.0000 0.0000
# 4 0.0000 0.0000 0.0000 15.8579 0.0000 0.0000
# 5 0.0000 0.0000 0.0000 0.0000 42.0598 0.0000
# 6 0.0000 0.0000 0.0000 0.0000 0.0000 15.5091
#
#
#
# Elastic Compliance Matrix: (Units=1/GPa)
#
#
# Indices 1 2 3 4 5 6 
#
# 1 0.010686 -0.003777 -0.003504 0.000000 0.000000 0.000000
# 2 -0.003777 0.021367 -0.003466 0.000000 0.000000 0.000000
# 3 -0.003504 -0.003466 0.008923 0.000000 0.000000 0.000000
# 4 0.000000 0.000000 0.000000 0.063060 0.000000 0.000000
# 5 0.000000 0.000000 0.000000 0.000000 0.023776 0.000000
# 6 0.000000 0.000000 0.000000 0.000000 0.000000 0.064478
#
#
# Mechanical properties :
#
#
# Convention : Reuss Voigt Hill
#
# Bulk Modulus (GPa) = 51.32789 65.67976 58.50382
# Shear Modulus (GPa) = 22.69857 28.30704 25.50280
#
# Velocity S-wave (km/s) = 3.71743 4.15137 3.94038
# Velocity P-wave (km/s) = 7.04806 7.93508 7.50469
#
# Compressibility (1/GPa) = 0.01948259
#
# Stress axis : x y z
#
# Youngs Moduli (GPa) = 93.57976 46.80041 112.07096
#
# Poissons Ratio (x) = 0.17678 0.39264
# Poissons Ratio (y) = 0.35348 0.38845
# Poissons Ratio (z) = 0.32786 0.16221
#
# Static dielectric constant tensor:
#      x y z
#    x 1.591240 0.000000 0.000000 
#    y 0.000000 1.529890 0.000000 
#    z 0.000000 0.000000 1.566500 
# 
# From -- ./inp_files/7796.got.cif
#   From: 2010.05.17/outbox.ucp.g08.bks.cvg/sg62_4_cif.got.tgz:7796.got - 2010.06.11 16:29:25.
