data_PCOD9467649
_publ_section_title
;
Structure prediction by ZEFSAII (Michael W. Deem and Ramdas Pophale) SiO2 
 PCOD9467649
Probable space group: P N M A
;
_chemical_formula_sum "Si O2"
_cell_formula_units_Z 32
_cell_length_a 10.208940
_cell_length_b 21.653925
_cell_length_c 6.611249
_cell_angle_alpha 90.000000
_cell_angle_beta 90.000000
_cell_angle_gamma 90.000000
_cell_volume 1461.506644
_symmetry_space_group_name_H-M "P N M A"
_symmetry_group_IT_number 62
_symmetry_cell_setting 'orthorhombic'
loop_
_space_group_symop_operation_xyz
x,y,z
1/2-x,-y,1/2+z
1/2+x,1/2-y,1/2-z
-x,1/2+y,-z
-x,-y,-z
1/2+x,y,1/2-z
1/2-x,1/2+y,1/2+z
x,1/2-y,z
loop_
_atom_site_type_symbol
_atom_site_label
_atom_site_fract_x
_atom_site_fract_y
_atom_site_fract_z
Si Si1 0.259708 0.680634 0.540159
Si Si2 0.401002 0.968437 0.848091
Si Si3 0.781102 0.091783 0.829868
Si Si4 0.035692 0.860214 0.857573
O O1 0.234392 0.750000 0.464702
O O2 0.268611 0.630180 0.361589
O O3 0.403068 0.679044 0.642625
O O4 0.143321 0.661899 0.694493
O O5 0.486602 0.929074 0.694119
O O6 0.321064 0.023254 0.743450
O O7 0.315311 0.921469 0.982614
O O8 0.500000 0.000000 0.000000
O O9 0.897723 0.132759 0.924061
#
# Coordination Sequence:
#
# PCOD9467649 Si02
#       4
#     8   8   8   8
#     4  12  28  48  73 104 144 198 248 294 352 426
#     4  12  22  43  73 107 144 182 233 294 369 432
#     4  12  25  46  73 108 146 187 236 300 366 429
#     4  12  25  50  71 108 146 187 243 299 364 428
#
# _framework density 21.895212999999998
#
# number of rings (size 3 to 8) (size 9 to 14) (size 15 to 20)
#    0.000    0.000    5.000    6.000    0.000    2.000 
#    0.000    0.000    0.000    0.000    0.000    0.000 
#    0.000    0.000    0.000    0.000    0.000    0.000 
#
# Total GULP energy -178973.005449 kJ/mol
# GULP energy per Si atom -5592.906420 kJ/mol
# Density = 2.184538 g / cm^3
# Si number density = 21.895213 Si / 1000 Ang^3
#
#
#
# Elastic Constant Matrix: (Units=GPa)
#
#
# Indices 1 2 3 4 5 6 
#
# 1 116.7754 16.5776 30.9141 0.0000 0.0000 0.0000
# 2 16.5776 87.9402 -1.4186 0.0000 0.0000 0.0000
# 3 30.9141 -1.4186 56.5365 0.0000 0.0000 0.0000
# 4 0.0000 0.0000 0.0000 15.3014 0.0000 0.0000
# 5 0.0000 0.0000 0.0000 0.0000 38.7640 0.0000
# 6 0.0000 0.0000 0.0000 0.0000 0.0000 4.7043
#
#
#
# Elastic Compliance Matrix: (Units=1/GPa)
#
#
# Indices 1 2 3 4 5 6 
#
# 1 0.010369 -0.002047 -0.005721 0.000000 0.000000 0.000000
# 2 -0.002047 0.011780 0.001415 0.000000 0.000000 0.000000
# 3 -0.005721 0.001415 0.020851 0.000000 0.000000 0.000000
# 4 0.000000 0.000000 0.000000 0.065353 0.000000 0.000000
# 5 0.000000 0.000000 0.000000 0.000000 0.025797 0.000000
# 6 0.000000 0.000000 0.000000 0.000000 0.000000 0.212573
#
#
# Mechanical properties :
#
#
# Convention : Reuss Voigt Hill
#
# Bulk Modulus (GPa) = 33.00973 39.26646 36.13809
# Shear Modulus (GPa) = 13.53079 26.09920 19.81500
#
# Velocity S-wave (km/s) = 2.48862 3.45629 3.01157
# Velocity P-wave (km/s) = 4.83390 5.82243 5.35104
#
# Compressibility (1/GPa) = 0.03029410
#
# Stress axis : x y z
#
# Youngs Moduli (GPa) = 96.44588 84.88935 47.95857
#
# Poissons Ratio (x) = 0.17376 0.27436
# Poissons Ratio (y) = 0.19741 -0.06785
# Poissons Ratio (z) = 0.55175 -0.12010
#
# Static dielectric constant tensor:
#      x y z
#    x 1.949430 0.000000 0.000000 
#    y 0.000000 1.906620 0.000000 
#    z 0.000000 0.000000 2.018720 
# 
# From -- ./inp_files/430.got.cif
#   From: 2010.05.17/outbox.cif.g08.bks.cpg/sg62_1_cif.got.tgz:430.got - 2010.06.03 15:25:27.
