data_PCOD9467513
_publ_section_title
;
Structure prediction by ZEFSAII (Michael W. Deem and Ramdas Pophale) SiO2 
 PCOD9467513
Probable space group: P N M A
;
_chemical_formula_sum "Si O2"
_cell_formula_units_Z 40
_cell_length_a 20.385470
_cell_length_b 10.233603
_cell_length_c 9.793578
_cell_angle_alpha 90.000000
_cell_angle_beta 90.000000
_cell_angle_gamma 90.000000
_cell_volume 2043.104971
_symmetry_space_group_name_H-M "P N M A"
_symmetry_group_IT_number 62
_symmetry_cell_setting 'orthorhombic'
loop_
_space_group_symop_operation_xyz
x,y,z
1/2-x,-y,1/2+z
1/2+x,1/2-y,1/2-z
-x,1/2+y,-z
-x,-y,-z
1/2+x,y,1/2-z
1/2-x,1/2+y,1/2+z
x,1/2-y,z
loop_
_atom_site_type_symbol
_atom_site_label
_atom_site_fract_x
_atom_site_fract_y
_atom_site_fract_z
Si Si1 0.051336 0.750000 0.714460
Si Si2 0.062406 0.494493 0.900058
Si Si3 0.459594 0.750000 0.206015
Si Si4 0.301634 0.909885 0.532418
Si Si5 0.403468 0.750000 0.909369
Si Si6 0.812867 0.504593 0.663512
Si Si7 0.105276 0.750000 0.408751
O O1 0.065888 0.624782 0.808625
O O2 0.093702 0.750000 0.573606
O O3 0.974056 0.750000 0.668596
O O4 0.053704 0.376242 0.795491
O O5 0.126959 0.461166 0.987090
O O6 0.000000 0.500000 0.000000
O O7 0.533970 0.750000 0.156724
O O8 0.417139 0.750000 0.069770
O O9 0.298849 0.750000 0.526356
O O10 0.289117 0.961461 0.684723
O O11 0.248801 0.976303 0.433255
O O12 0.360302 0.875846 0.874837
O O13 0.856460 0.375666 0.645019
#
# Coordination Sequence:
#
# PCOD9467513 Si02
#       7
#     4   8   4   8   4   8   4
#     4  11  25  43  73 110 148 184 242 301 364 422
#     4  12  25  43  74 102 147 190 245 298 363 421
#     4  11  23  41  73 102 138 192 244 285 362 432
#     4  12  28  49  71 106 144 191 238 303 358 426
#     4  11  24  45  73 106 146 189 232 304 362 425
#     4  12  27  46  76  98 151 187 240 292 367 425
#     4  11  24  45  69 110 142 183 242 300 350 441
#
# _framework density 19.578044999999999
#
# number of rings (size 3 to 8) (size 9 to 14) (size 15 to 20)
#    0.000    0.400    3.000    5.400    5.600    5.600 
#    0.000    0.000    0.000    0.000    0.000    0.000 
#    0.000    0.000    0.000    0.000    0.000    0.000 
#
# Total GULP energy -223789.544310 kJ/mol
# GULP energy per Si atom -5594.738608 kJ/mol
# Density = 1.953348 g / cm^3
# Si number density = 19.578045 Si / 1000 Ang^3
#
#
#
# Elastic Constant Matrix: (Units=GPa)
#
#
# Indices 1 2 3 4 5 6 
#
# 1 86.1213 35.4739 57.7198 0.0000 0.0000 0.0000
# 2 35.4739 179.2345 69.0806 0.0000 0.0000 0.0000
# 3 57.7198 69.0806 165.7848 0.0000 0.0000 0.0000
# 4 0.0000 0.0000 0.0000 49.6509 0.0000 0.0000
# 5 0.0000 0.0000 0.0000 0.0000 33.7869 0.0000
# 6 0.0000 0.0000 0.0000 0.0000 0.0000 29.8416
#
#
#
# Elastic Compliance Matrix: (Units=1/GPa)
#
#
# Indices 1 2 3 4 5 6 
#
# 1 0.015347 -0.001165 -0.004858 0.000000 0.000000 0.000000
# 2 -0.001165 0.006735 -0.002401 0.000000 0.000000 0.000000
# 3 -0.004858 -0.002401 0.008724 0.000000 0.000000 0.000000
# 4 0.000000 0.000000 0.000000 0.020141 0.000000 0.000000
# 5 0.000000 0.000000 0.000000 0.000000 0.029597 0.000000
# 6 0.000000 0.000000 0.000000 0.000000 0.000000 0.033510
#
#
# Mechanical properties :
#
#
# Convention : Reuss Voigt Hill
#
# Bulk Modulus (GPa) = 71.64120 83.96547 77.80333
# Shear Modulus (GPa) = 36.88548 40.58029 38.73289
#
# Velocity S-wave (km/s) = 4.34524 4.55768 4.45273
# Velocity P-wave (km/s) = 7.86428 8.40698 8.14015
#
# Compressibility (1/GPa) = 0.01395845
#
# Stress axis : x y z
#
# Youngs Moduli (GPa) = 65.15822 148.47324 114.63164
#
# Poissons Ratio (x) = 0.17301 0.55686
# Poissons Ratio (y) = 0.07592 0.27521
# Poissons Ratio (z) = 0.31652 0.35645
#
# Static dielectric constant tensor:
#      x y z
#    x 1.612530 0.000000 0.000000 
#    y 0.000000 1.852800 0.000000 
#    z 0.000000 0.000000 1.664640 
# 
# From -- ./inp_files/9155.got.cif
#   From: 2010.05.17/outbox.cif.g08.bks.cpg/sg62_5_cif.got.tgz:9155.got - 2010.06.03 15:25:27.
