data_PCOD9467387
_publ_section_title
;
Structure prediction by ZEFSAII (Michael W. Deem and Ramdas Pophale) SiO2 
 PCOD9467387
Probable space group: P N M A
;
_chemical_formula_sum "Si O2"
_cell_formula_units_Z 32
_cell_length_a 13.029627
_cell_length_b 14.152081
_cell_length_c 8.830703
_cell_angle_alpha 90.000000
_cell_angle_beta 90.000000
_cell_angle_gamma 90.000000
_cell_volume 1628.349284
_symmetry_space_group_name_H-M "P N M A"
_symmetry_group_IT_number 62
_symmetry_cell_setting 'orthorhombic'
loop_
_space_group_symop_operation_xyz
x,y,z
1/2-x,-y,1/2+z
1/2+x,1/2-y,1/2-z
-x,1/2+y,-z
-x,-y,-z
1/2+x,y,1/2-z
1/2-x,1/2+y,1/2+z
x,1/2-y,z
loop_
_atom_site_type_symbol
_atom_site_label
_atom_site_fract_x
_atom_site_fract_y
_atom_site_fract_z
Si Si1 0.484596 0.250000 0.053544
Si Si2 0.698896 0.250000 0.227147
Si Si3 0.292096 0.592563 0.281214
Si Si4 0.186820 0.906604 0.595692
Si Si5 0.819970 0.250000 0.917767
Si Si6 0.043591 0.250000 0.802476
O O1 0.586250 0.250000 0.155269
O O2 0.413673 0.158962 0.085299
O O3 0.514436 0.250000 0.876113
O O4 0.725755 0.341432 0.326943
O O5 0.778540 0.250000 0.087179
O O6 0.327898 0.499855 0.193955
O O7 0.224498 0.568487 0.427463
O O8 0.225489 0.659035 0.169645
O O9 0.387127 0.658068 0.330058
O O10 0.941594 0.250000 0.901150
#
# Coordination Sequence:
#
# PCOD9467387 Si02
#       6
#     4   4   8   8   4   4
#     4  11  22  43  69  93 127 176 213 259 330 384
#     4  11  23  42  68  94 130 168 215 267 323 380
#     4  11  23  41  64  95 129 168 214 265 318 379
#     4  11  25  43  64  98 131 170 214 269 316 383
#     4  11  21  42  65  95 127 165 213 267 317 379
#     4  11  22  41  70  94 128 173 211 265 324 381
#
# _framework density 19.651803000000001
#
# number of rings (size 3 to 8) (size 9 to 14) (size 15 to 20)
#    0.000    1.000    5.000    3.750    0.000    7.000 
#    0.000    3.750    0.000    0.000    0.000    0.000 
#    0.000    0.000    0.000    0.000    0.000    0.000 
#
# Total GULP energy -179009.114760 kJ/mol
# GULP energy per Si atom -5594.034836 kJ/mol
# Density = 1.960708 g / cm^3
# Si number density = 19.651803 Si / 1000 Ang^3
#
#
#
# Elastic Constant Matrix: (Units=GPa)
#
#
# Indices 1 2 3 4 5 6 
#
# 1 85.9524 31.1739 -2.4342 0.0000 0.0000 0.0000
# 2 31.1739 86.9643 11.3098 0.0000 0.0000 0.0000
# 3 -2.4342 11.3098 80.8079 0.0000 0.0000 0.0000
# 4 0.0000 0.0000 0.0000 33.4120 0.0000 0.0000
# 5 0.0000 0.0000 0.0000 0.0000 27.7813 0.0000
# 6 0.0000 0.0000 0.0000 0.0000 0.0000 0.8888
#
#
#
# Elastic Compliance Matrix: (Units=1/GPa)
#
#
# Indices 1 2 3 4 5 6 
#
# 1 0.013469 -0.004971 0.001101 0.000000 0.000000 0.000000
# 2 -0.004971 0.013547 -0.002046 0.000000 0.000000 0.000000
# 3 0.001101 -0.002046 0.012695 0.000000 0.000000 0.000000
# 4 0.000000 0.000000 0.000000 0.029929 0.000000 0.000000
# 5 0.000000 0.000000 0.000000 0.000000 0.035995 0.000000
# 6 0.000000 0.000000 0.000000 0.000000 0.000000 1.125158
#
#
# Mechanical properties :
#
#
# Convention : Reuss Voigt Hill
#
# Bulk Modulus (GPa) = 35.86930 37.09152 36.48041
# Shear Modulus (GPa) = 3.99387 26.66143 15.32765
#
# Velocity S-wave (km/s) = 1.42714 3.68732 2.79581
# Velocity P-wave (km/s) = 4.58341 6.08636 5.38756
#
# Compressibility (1/GPa) = 0.02787900
#
# Stress axis : x y z
#
# Youngs Moduli (GPa) = 74.24688 73.81663 78.77401
#
# Poissons Ratio (x) = 0.36697 -0.08677
# Poissons Ratio (y) = 0.36910 0.16116
# Poissons Ratio (z) = -0.08178 0.15101
#
# Static dielectric constant tensor:
#      x y z
#    x 1.671350 0.000000 0.000000 
#    y 0.000000 1.660660 0.000000 
#    z 0.000000 0.000000 1.671800 
# 
# From -- ./inp_files/4881.got.cif
#   From: 2010.05.17/outbox.cif.g08.bks.cpg/sg62_3_cif.got.tgz:4881.got - 2010.06.03 15:25:27.
