data_PCOD9467563
_publ_section_title
;
Structure prediction by ZEFSAII (Michael W. Deem and Ramdas Pophale) SiO2 
 PCOD9467563
Probable space group: P N M A
;
_chemical_formula_sum "Si O2"
_cell_formula_units_Z 48
_cell_length_a 14.000427
_cell_length_b 18.224272
_cell_length_c 9.265445
_cell_angle_alpha 90.000000
_cell_angle_beta 90.000000
_cell_angle_gamma 90.000000
_cell_volume 2364.055960
_symmetry_space_group_name_H-M "P N M A"
_symmetry_group_IT_number 62
_symmetry_cell_setting 'orthorhombic'
loop_
_space_group_symop_operation_xyz
x,y,z
1/2-x,-y,1/2+z
1/2+x,1/2-y,1/2-z
-x,1/2+y,-z
-x,-y,-z
1/2+x,y,1/2-z
1/2-x,1/2+y,1/2+z
x,1/2-y,z
loop_
_atom_site_type_symbol
_atom_site_label
_atom_site_fract_x
_atom_site_fract_y
_atom_site_fract_z
Si Si1 0.027527 0.250000 0.274424
Si Si2 0.810300 0.114902 0.896543
Si Si3 0.519147 0.250000 0.901775
Si Si4 0.642016 0.640039 0.721565
Si Si5 0.639977 0.002267 0.897296
Si Si6 0.723475 0.250000 0.388466
Si Si7 0.287452 0.750000 0.267828
Si Si8 0.052672 0.908473 0.349535
O O1 0.958564 0.320056 0.252943
O O2 0.064909 0.250000 0.438711
O O3 0.115250 0.250000 0.166703
O O4 0.735591 0.048746 0.911621
O O5 0.761226 0.178303 0.801148
O O6 0.903219 0.087914 0.809552
O O7 0.834557 0.146490 0.053288
O O8 0.601714 0.250000 0.781924
O O9 0.456181 0.177064 0.889450
O O10 0.641652 0.555784 0.767773
O O11 0.720616 0.681208 0.819035
O O12 0.552118 0.057283 0.869023
O O13 0.618283 0.954230 0.040073
O O14 0.724450 0.250000 0.560577
#
# Coordination Sequence:
#
# PCOD9467563 Si02
#       8
#     4   8   4   8   8   4   4   8
#     4  11  24  43  69  97 133 176 224 282 340 402
#     4  12  25  43  70  99 141 176 233 282 336 413
#     4  12  22  45  72  92 134 178 229 275 340 400
#     4  11  25  44  67 102 136 177 227 281 339 406
#     4  11  24  45  66 100 138 186 227 275 351 404
#     4  11  27  43  71  99 135 176 225 285 346 399
#     4  12  25  43  70 102 130 174 230 280 338 405
#     4  11  25  42  72  97 136 188 225 284 342 407
#
# _framework density 20.304088
#
# number of rings (size 3 to 8) (size 9 to 14) (size 15 to 20)
#    0.000    0.667    3.333    4.500    4.667    2.000 
#    0.000    0.000    0.000    0.000    0.000    0.000 
#    0.000    0.000    0.000    0.000    0.000    0.000 
#
# Total GULP energy -268659.703605 kJ/mol
# GULP energy per Si atom -5597.077158 kJ/mol
# Density = 2.025787 g / cm^3
# Si number density = 20.304088 Si / 1000 Ang^3
#
#
#
# Elastic Constant Matrix: (Units=GPa)
#
#
# Indices 1 2 3 4 5 6 
#
# 1 61.7584 28.5479 40.4554 0.0000 0.0000 0.0000
# 2 28.5479 117.6544 34.3320 0.0000 0.0000 0.0000
# 3 40.4554 34.3320 179.9272 0.0000 0.0000 0.0000
# 4 0.0000 0.0000 0.0000 13.4223 0.0000 0.0000
# 5 0.0000 0.0000 0.0000 0.0000 35.8431 0.0000
# 6 0.0000 0.0000 0.0000 0.0000 0.0000 6.1997
#
#
#
# Elastic Compliance Matrix: (Units=1/GPa)
#
#
# Indices 1 2 3 4 5 6 
#
# 1 0.020510 -0.003845 -0.003878 0.000000 0.000000 0.000000
# 2 -0.003845 0.009721 -0.000990 0.000000 0.000000 0.000000
# 3 -0.003878 -0.000990 0.006619 0.000000 0.000000 0.000000
# 4 0.000000 0.000000 0.000000 0.074503 0.000000 0.000000
# 5 0.000000 0.000000 0.000000 0.000000 0.027899 0.000000
# 6 0.000000 0.000000 0.000000 0.000000 0.000000 0.161297
#
#
# Mechanical properties :
#
#
# Convention : Reuss Voigt Hill
#
# Bulk Modulus (GPa) = 51.48427 62.89003 57.18715
# Shear Modulus (GPa) = 15.41070 28.16002 21.78536
#
# Velocity S-wave (km/s) = 2.75798 3.72817 3.27915
# Velocity P-wave (km/s) = 5.96268 7.04086 6.52408
#
# Compressibility (1/GPa) = 0.01942341
#
# Stress axis : x y z
#
# Youngs Moduli (GPa) = 48.75752 102.86552 151.08738
#
# Poissons Ratio (x) = 0.39551 0.58589
# Poissons Ratio (y) = 0.18747 0.14964
# Poissons Ratio (z) = 0.18907 0.10188
#
# Static dielectric constant tensor:
#      x y z
#    x 1.700440 0.000000 0.000000 
#    y 0.000000 1.716170 0.000000 
#    z 0.000000 0.000000 1.706930 
# 
# From -- ./inp_files/6557.got.cif
#   From: 2010.05.17/outbox.cif.g08.bks.cpg/sg62_4_cif.got.tgz:6557.got - 2010.06.03 15:25:27.
