data_PCOD9467796
_publ_section_title
;
Structure prediction by ZEFSAII (Michael W. Deem and Ramdas Pophale) SiO2 
 PCOD9467796
Probable space group: P N M A
;
_chemical_formula_sum "Si O2"
_cell_formula_units_Z 56
_cell_length_a 18.000000
_cell_length_b 9.000000
_cell_length_c 21.000000
_cell_angle_alpha 90.000000
_cell_angle_beta 90.000000
_cell_angle_gamma 90.000000
_cell_volume 3402.000000
_symmetry_space_group_name_H-M "P N M A"
_symmetry_group_IT_number 62
_symmetry_cell_setting 'orthorhombic'
loop_
_space_group_symop_operation_xyz
x,y,z
1/2-x,-y,1/2+z
1/2+x,1/2-y,1/2-z
-x,1/2+y,-z
-x,-y,-z
1/2+x,y,1/2-z
1/2-x,1/2+y,1/2+z
x,1/2-y,z
loop_
_atom_site_type_symbol
_atom_site_label
_atom_site_fract_x
_atom_site_fract_y
_atom_site_fract_z
Si Si1 0.465194 0.068646 0.837559
Si Si2 0.881870 0.929203 0.408249
Si Si3 0.197248 0.071295 0.970794
Si Si4 0.931820 0.429845 0.810963
Si Si5 0.968883 0.928835 0.065784
Si Si6 0.144412 0.430386 0.444301
Si Si7 0.287995 0.069828 0.609069
O O1 0.459967 0.250000 0.840253
O O2 0.547089 0.024396 0.865614
O O3 0.451070 0.024471 0.762596
O O4 0.405662 0.998929 0.887520
O O5 0.883151 0.750000 0.407862
O O6 0.884994 0.972084 0.483750
O O7 0.799426 0.971810 0.382070
O O8 0.207704 0.250000 0.973227
O O9 0.119950 0.041011 0.933773
O O10 0.271261 0.994153 0.942481
O O11 0.188848 0.006122 0.042411
O O12 0.935242 0.250000 0.809590
O O13 0.848432 0.469619 0.836362
O O14 0.988038 0.476459 0.868993
O O15 0.978658 0.750000 0.060809
O O16 0.000000 0.000000 0.000000
O O17 0.145032 0.250000 0.440407
O O18 0.290761 0.250000 0.601456
#
# Coordination Sequence:
#
# PCOD9467796 Si02
#       7
#     8   8   8   8   8   8   8
#     4  10  19  34  52  76 105 134 173 217 262 311
#     4   8  16  30  52  77  98 129 173 213 253 306
#     4  10  19  31  51  81 106 129 170 219 261 304
#     4   9  18  32  51  75 105 139 170 209 261 314
#     4  10  19  32  52  78 104 136 175 215 260 309
#     4  10  20  35  54  75 102 138 174 217 267 313
#     4   9  16  31  52  74 101 136 172 206 257 315
#
# _framework density 16.460905
#
# number of rings (size 3 to 8) (size 9 to 14) (size 15 to 20)
#    0.000    2.571    1.429    2.143    0.000    0.571 
#    2.571    4.286    0.000    0.000    0.000    0.000 
#    0.000    0.000    0.000    0.000    0.000    0.000 
#
# Total GULP energy -311858.343516 kJ/mol
# GULP energy per Si atom -5568.898991 kJ/mol
# Density = 1.642344 g / cm^3
# Si number density = 16.460905 Si / 1000 Ang^3
#
#
#
# Elastic Constant Matrix: (Units=GPa)
#
#
# Indices 1 2 3 4 5 6 
#
# 1 159.9099 28.1594 97.4533 0.0000 0.0000 0.0000
# 2 28.1594 35.2822 24.0160 0.0000 0.0000 0.0000
# 3 97.4533 24.0160 155.4948 0.0000 0.0000 0.0000
# 4 0.0000 0.0000 0.0000 27.3540 0.0000 0.0000
# 5 0.0000 0.0000 0.0000 0.0000 33.5245 0.0000
# 6 0.0000 0.0000 0.0000 0.0000 0.0000 24.5998
#
#
#
# Elastic Compliance Matrix: (Units=1/GPa)
#
#
# Indices 1 2 3 4 5 6 
#
# 1 0.010708 -0.004445 -0.006024 0.000000 0.000000 0.000000
# 2 -0.004445 0.033518 -0.002391 0.000000 0.000000 0.000000
# 3 -0.006024 -0.002391 0.010576 0.000000 0.000000 0.000000
# 4 0.000000 0.000000 0.000000 0.036558 0.000000 0.000000
# 5 0.000000 0.000000 0.000000 0.000000 0.029829 0.000000
# 6 0.000000 0.000000 0.000000 0.000000 0.000000 0.040651
#
#
# Mechanical properties :
#
#
# Convention : Reuss Voigt Hill
#
# Bulk Modulus (GPa) = 34.38673 72.21602 53.30137
# Shear Modulus (GPa) = 25.34805 30.49952 27.92379
#
# Velocity S-wave (km/s) = 3.92841 4.30914 4.12317
# Velocity P-wave (km/s) = 6.44296 8.29004 7.42417
#
# Compressibility (1/GPa) = 0.02908099
#
# Stress axis : x y z
#
# Youngs Moduli (GPa) = 93.39106 29.83451 94.55453
#
# Poissons Ratio (x) = 0.13263 0.56962
# Poissons Ratio (y) = 0.41516 0.22606
# Poissons Ratio (z) = 0.56261 0.07133
#
# Static dielectric constant tensor:
#      x y z
#    x 1.588180 0.000000 0.000000 
#    y 0.000000 1.550090 0.000000 
#    z 0.000000 0.000000 1.543550 
# 
# From -- ./inp_files/27570.got.cif
#   From: 2010.05.17/outbox.ucp.g08.bks.cvg/sg62_14_cif.got.tgz:27570.got - 2010.06.11 16:29:25.
