data_PCOD9467444
_publ_section_title
;
Structure prediction by ZEFSAII (Michael W. Deem and Ramdas Pophale) SiO2 
 PCOD9467444
Probable space group: P N M A
;
_chemical_formula_sum "Si O2"
_cell_formula_units_Z 32
_cell_length_a 30.035084
_cell_length_b 10.168153
_cell_length_c 4.932916
_cell_angle_alpha 90.000000
_cell_angle_beta 90.000000
_cell_angle_gamma 90.000000
_cell_volume 1506.519105
_symmetry_space_group_name_H-M "P N M A"
_symmetry_group_IT_number 62
_symmetry_cell_setting 'orthorhombic'
loop_
_space_group_symop_operation_xyz
x,y,z
1/2-x,-y,1/2+z
1/2+x,1/2-y,1/2-z
-x,1/2+y,-z
-x,-y,-z
1/2+x,y,1/2-z
1/2-x,1/2+y,1/2+z
x,1/2-y,z
loop_
_atom_site_type_symbol
_atom_site_label
_atom_site_fract_x
_atom_site_fract_y
_atom_site_fract_z
Si Si1 0.632153 0.601161 0.559722
Si Si2 0.004036 0.115855 0.209612
Si Si3 0.578237 0.522060 0.034917
Si Si4 0.234496 0.911896 0.117463
O O1 0.627022 0.750000 0.667096
O O2 0.602417 0.583478 0.292935
O O3 0.683151 0.583348 0.477261
O O4 0.613718 0.506926 0.794623
O O5 0.001475 0.250000 0.050744
O O6 0.050674 0.103247 0.363773
O O7 0.962570 0.105773 0.411964
O O8 0.000000 0.000000 0.000000
O O9 0.245565 0.750000 0.134791
O O10 0.260220 0.003891 0.895987
#
# Coordination Sequence:
#
# PCOD9467444 Si02
#       4
#     8   8   8   8
#     4  11  22  40  67  96 126 170 223 266 313 395
#     4  11  24  41  64  92 131 174 217 268 328 382
#     4  11  23  40  62  94 124 170 221 270 311 373
#     4  11  24  45  73 103 137 175 224 277 343 411
#
# _framework density 21.241016999999999
#
# number of rings (size 3 to 8) (size 9 to 14) (size 15 to 20)
#    0.000    1.000    2.500    4.500    0.000    9.000 
#    0.000    7.500    0.000    0.000    0.000    0.000 
#    0.000    0.000    0.000    0.000    0.000    0.000 
#
# Total GULP energy -178464.543975 kJ/mol
# GULP energy per Si atom -5577.016999 kJ/mol
# Density = 2.119267 g / cm^3
# Si number density = 21.241017 Si / 1000 Ang^3
#
#
#
# Elastic Constant Matrix: (Units=GPa)
#
#
# Indices 1 2 3 4 5 6 
#
# 1 76.5146 22.2632 -11.2663 0.0000 0.0000 0.0000
# 2 22.2632 152.2806 31.1546 0.0000 0.0000 0.0000
# 3 -11.2663 31.1546 76.1397 0.0000 0.0000 0.0000
# 4 0.0000 0.0000 0.0000 31.6135 0.0000 0.0000
# 5 0.0000 0.0000 0.0000 0.0000 37.1849 0.0000
# 6 0.0000 0.0000 0.0000 0.0000 0.0000 751.4981
#
#
#
# Elastic Compliance Matrix: (Units=1/GPa)
#
#
# Indices 1 2 3 4 5 6 
#
# 1 0.014353 -0.002764 0.003255 0.000000 0.000000 0.000000
# 2 -0.002764 0.007699 -0.003559 0.000000 0.000000 0.000000
# 3 0.003255 -0.003559 0.015072 0.000000 0.000000 0.000000
# 4 0.000000 0.000000 0.000000 0.031632 0.000000 0.000000
# 5 0.000000 0.000000 0.000000 0.000000 0.026893 0.000000
# 6 0.000000 0.000000 0.000000 0.000000 0.000000 0.001331
#
#
# Mechanical properties :
#
#
# Convention : Reuss Voigt Hill
#
# Bulk Modulus (GPa) = 32.27222 43.24865 37.76044
# Shear Modulus (GPa) = 44.07399 181.57820 112.82609
#
# Velocity S-wave (km/s) = 4.56010 9.25582 7.29605
# Velocity P-wave (km/s) = 6.55380 11.60311 9.42296
#
# Compressibility (1/GPa) = 0.03098640
#
# Stress axis : x y z
#
# Youngs Moduli (GPa) = 69.67193 129.88436 66.34920
#
# Poissons Ratio (x) = 0.35904 -0.21596
# Poissons Ratio (y) = 0.19259 0.23616
# Poissons Ratio (z) = -0.22677 0.46230
#
# Static dielectric constant tensor:
#      x y z
#    x 1.763280 0.000000 0.000000 
#    y 0.000000 1.897230 0.000000 
#    z 0.000000 0.000000 1.786890 
# 
# From -- ./inp_files/3455.got.cif
#   From: 2010.05.17/outbox.cif.g08.bks.cpg/sg62_2_cif.got.tgz:3455.got - 2010.06.03 15:25:27.
