data_PCOD9467734
_publ_section_title
;
Structure prediction by ZEFSAII (Michael W. Deem and Ramdas Pophale) SiO2 
 PCOD9467734
Probable space group: P N M A
;
_chemical_formula_sum "Si O2"
_cell_formula_units_Z 48
_cell_length_a 29.143811
_cell_length_b 7.312021
_cell_length_c 8.103050
_cell_angle_alpha 90.000000
_cell_angle_beta 90.000000
_cell_angle_gamma 90.000000
_cell_volume 1726.761236
_symmetry_space_group_name_H-M "P N M A"
_symmetry_group_IT_number 62
_symmetry_cell_setting 'orthorhombic'
loop_
_space_group_symop_operation_xyz
x,y,z
1/2-x,-y,1/2+z
1/2+x,1/2-y,1/2-z
-x,1/2+y,-z
-x,-y,-z
1/2+x,y,1/2-z
1/2-x,1/2+y,1/2+z
x,1/2-y,z
loop_
_atom_site_type_symbol
_atom_site_label
_atom_site_fract_x
_atom_site_fract_y
_atom_site_fract_z
Si Si1 0.846098 0.473178 0.248343
Si Si2 0.320952 0.032428 0.772247
Si Si3 0.009723 0.528607 0.248028
Si Si4 0.405115 0.028463 0.573314
Si Si5 0.263808 0.031889 0.459735
Si Si6 0.573618 0.959280 0.952288
O O1 0.845040 0.250000 0.260661
O O2 0.795550 0.535351 0.193453
O O3 0.877430 0.539103 0.400031
O O4 0.877171 0.522735 0.088579
O O5 0.324087 0.250000 0.757179
O O6 0.371969 0.968964 0.725777
O O7 0.288142 0.960671 0.624364
O O8 0.289648 0.005433 0.932790
O O9 0.006241 0.750000 0.248727
O O10 0.042505 0.467303 0.097973
O O11 0.041201 0.465849 0.404638
O O12 0.959325 0.457918 0.290107
O O13 0.407155 0.250000 0.573486
O O14 0.268581 0.250000 0.463314
O O15 0.582563 0.750000 0.002111
#
# Coordination Sequence:
#
# PCOD9467734 Si02
#       6
#     8   8   8   8   8   8
#     4   8  15  29  47  65  87 116 149 183 218 261
#     4   9  18  32  49  70  95 122 154 192 232 274
#     4   9  17  29  45  65  88 114 145 180 218 261
#     4   8  15  29  47  65  87 116 149 183 218 261
#     4   9  18  32  49  70  95 122 154 192 232 274
#     4   9  17  29  45  65  88 114 145 180 218 261
#
# _framework density 27.797705000000001
#
# number of rings (size 3 to 8) (size 9 to 14) (size 15 to 20)
#    0.000    3.333    0.000    2.000    0.000    2.667 
#    0.000    5.000    0.000    6.000    0.000    0.000 
#    0.000    0.000    0.000    0.000    0.000    0.000 
#
# Total GULP energy -268220.914033 kJ/mol
# GULP energy per Si atom -5587.935709 kJ/mol
# Density = 2.773444 g / cm^3
# Si number density = 27.797705 Si / 1000 Ang^3
#
#
#
# Elastic Constant Matrix: (Units=GPa)
#
#
# Indices 1 2 3 4 5 6 
#
# 1 214.2245 -9.6988 15.3137 0.0000 0.0000 0.0000
# 2 -9.6988 119.9847 -8.2960 0.0000 0.0000 0.0000
# 3 15.3137 -8.2960 47.3070 0.0000 0.0000 0.0000
# 4 0.0000 0.0000 0.0000 86.9186 0.0000 0.0000
# 5 0.0000 0.0000 0.0000 0.0000 64.0924 0.0000
# 6 0.0000 0.0000 0.0000 0.0000 0.0000 -38.6986
#
#
#
# Elastic Compliance Matrix: (Units=1/GPa)
#
#
# Indices 1 2 3 4 5 6 
#
# 1 0.004788 0.000283 -0.001500 0.000000 0.000000 0.000000
# 2 0.000283 0.008453 0.001391 0.000000 0.000000 0.000000
# 3 -0.001500 0.001391 0.021868 0.000000 0.000000 0.000000
# 4 0.000000 0.000000 0.000000 0.011505 0.000000 0.000000
# 5 0.000000 0.000000 0.000000 0.000000 0.015602 0.000000
# 6 0.000000 0.000000 0.000000 0.000000 0.000000 -0.025841
#
#
# Mechanical properties :
#
#
# Convention : Reuss Voigt Hill
#
# Bulk Modulus (GPa) = 28.20305 41.79487 34.99896
# Shear Modulus (GPa) = 104.49792 48.07564 76.28678
#
# Velocity S-wave (km/s) = 6.13791 4.16322 5.24434
# Velocity P-wave (km/s) = 7.77172 6.17882 7.02060
#
# Compressibility (1/GPa) = 0.03545716
#
# Stress axis : x y z
#
# Youngs Moduli (GPa) = 208.85237 118.29484 45.72877
#
# Poissons Ratio (x) = -0.03351 0.06860
# Poissons Ratio (y) = -0.05917 -0.06360
# Poissons Ratio (z) = 0.31333 -0.16452
#
# Static dielectric constant tensor:
#      x y z
#    x 2.115940 0.000000 0.000000 
#    y 0.000000 2.060120 0.000000 
#    z 0.000000 0.000000 2.329330 
# 
# From -- ./inp_files/9788.got.cif
#   From: 2010.05.17/outbox.cif.g08.bks.cpg/sg62_5_cif.got.tgz:9788.got - 2010.06.03 15:25:27.
