data_PCOD9467580
_publ_section_title
;
Structure prediction by ZEFSAII (Michael W. Deem and Ramdas Pophale) SiO2 
 PCOD9467580
Probable space group: P N M A
;
_chemical_formula_sum "Si O2"
_cell_formula_units_Z 40
_cell_length_a 16.744839
_cell_length_b 9.764527
_cell_length_c 11.557875
_cell_angle_alpha 90.000000
_cell_angle_beta 90.000000
_cell_angle_gamma 90.000000
_cell_volume 1889.775351
_symmetry_space_group_name_H-M "P N M A"
_symmetry_group_IT_number 62
_symmetry_cell_setting 'orthorhombic'
loop_
_space_group_symop_operation_xyz
x,y,z
1/2-x,-y,1/2+z
1/2+x,1/2-y,1/2-z
-x,1/2+y,-z
-x,-y,-z
1/2+x,y,1/2-z
1/2-x,1/2+y,1/2+z
x,1/2-y,z
loop_
_atom_site_type_symbol
_atom_site_label
_atom_site_fract_x
_atom_site_fract_y
_atom_site_fract_z
Si Si1 0.789027 0.750000 0.949429
Si Si2 0.293289 0.750000 0.942331
Si Si3 0.197073 0.479523 0.630094
Si Si4 0.590212 0.250000 0.262864
Si Si5 0.446930 0.250000 0.705632
Si Si6 0.038994 0.969440 0.772447
Si Si7 0.105721 0.750000 0.944095
Si Si8 0.225927 0.750000 0.291675
O O1 0.747476 0.612631 0.902301
O O2 0.878420 0.750000 0.895605
O O3 0.772214 0.750000 0.086426
O O4 0.334596 0.750000 0.819625
O O5 0.199288 0.750000 0.922131
O O6 0.315214 0.616808 0.018253
O O7 0.113364 0.524054 0.685717
O O8 0.244860 0.383443 0.720625
O O9 0.535796 0.120857 0.232872
O O10 0.504042 0.380614 0.712102
O O11 0.406727 0.250000 0.579962
O O12 0.371157 0.250000 0.794048
O O13 0.068841 0.885684 0.885264
#
# Coordination Sequence:
#
# PCOD9467580 Si02
#       8
#     4   4   8   4   4   8   4   4
#     4  12  27  44  78 103 139 192 248 290 352 435
#     4  11  25  47  77  97 146 189 239 296 352 433
#     4  11  25  48  69 104 141 188 236 298 354 431
#     4  11  26  46  68 106 142 195 231 290 364 420
#     4  12  23  44  71 107 143 184 237 296 355 414
#     4  11  26  44  69 105 145 181 237 293 361 422
#     4  11  24  45  72  99 143 188 235 290 352 430
#     4  11  27  46  72 108 141 184 246 294 353 428
#
# _framework density 21.166536000000001
#
# number of rings (size 3 to 8) (size 9 to 14) (size 15 to 20)
#    0.000    0.800    2.000    5.400    8.400    4.000 
#    3.600    0.000    0.000    0.000    0.000    0.000 
#    0.000    0.000    0.000    0.000    0.000    0.000 
#
# Total GULP energy -223854.043589 kJ/mol
# GULP energy per Si atom -5596.351090 kJ/mol
# Density = 2.111836 g / cm^3
# Si number density = 21.166536 Si / 1000 Ang^3
#
#
#
# Elastic Constant Matrix: (Units=GPa)
#
#
# Indices 1 2 3 4 5 6 
#
# 1 1770.5692 1149.4596 -223.9347 0.0000 0.0000 0.0000
# 2 1149.4596 915.8320 -131.5935 0.0000 0.0000 0.0000
# 3 -223.9347 -131.5935 97.9938 0.0000 0.0000 0.0000
# 4 0.0000 0.0000 0.0000 -15.3032 0.0000 0.0000
# 5 0.0000 0.0000 0.0000 0.0000 24.5376 0.0000
# 6 0.0000 0.0000 0.0000 0.0000 0.0000 -110.8350
#
#
#
# Elastic Compliance Matrix: (Units=1/GPa)
#
#
# Indices 1 2 3 4 5 6 
#
# 1 0.003519 -0.004040 0.002615 0.000000 0.000000 0.000000
# 2 -0.004040 0.005993 -0.001186 0.000000 0.000000 0.000000
# 3 0.002615 -0.001186 0.014588 0.000000 0.000000 0.000000
# 4 0.000000 0.000000 0.000000 -0.065346 0.000000 0.000000
# 5 0.000000 0.000000 0.000000 0.000000 0.040754 0.000000
# 6 0.000000 0.000000 0.000000 0.000000 0.000000 -0.009022
#
#
# Mechanical properties :
#
#
# Convention : Reuss Voigt Hill
#
# Bulk Modulus (GPa) = 52.97685 485.80641 269.39163
# Shear Modulus (GPa) = 2500.70976 112.37744 1306.54360
#
# Velocity S-wave (km/s) = 34.40944 7.29433 24.87184
# Velocity P-wave (km/s) = 40.04701 17.34813 30.86033
#
# Compressibility (1/GPa) = 0.01887617
#
# Stress axis : x y z
#
# Youngs Moduli (GPa) = 284.20793 166.87115 68.55082
#
# Poissons Ratio (x) = 0.67423 -0.17925
# Poissons Ratio (y) = 1.14832 0.08128
# Poissons Ratio (z) = -0.74314 0.19787
#
# Static dielectric constant tensor:
#      x y z
#    x 1.743170 0.000000 0.000000 
#    y 0.000000 1.709190 0.000000 
#    z 0.000000 0.000000 1.757400 
# 
# From -- ./inp_files/13934.got.cif
#   From: 2010.05.17/outbox.cif.g08.bks.cpg/sg62_7_cif.got.tgz:13934.got - 2010.06.03 15:25:27.
