data_PCOD9467488
_publ_section_title
;
Structure prediction by ZEFSAII (Michael W. Deem and Ramdas Pophale) SiO2 
 PCOD9467488
Probable space group: P N M A
;
_chemical_formula_sum "Si O2"
_cell_formula_units_Z 40
_cell_length_a 12.343203
_cell_length_b 27.191507
_cell_length_c 5.358732
_cell_angle_alpha 90.000000
_cell_angle_beta 90.000000
_cell_angle_gamma 90.000000
_cell_volume 1798.552779
_symmetry_space_group_name_H-M "P N M A"
_symmetry_group_IT_number 62
_symmetry_cell_setting 'orthorhombic'
loop_
_space_group_symop_operation_xyz
x,y,z
1/2-x,-y,1/2+z
1/2+x,1/2-y,1/2-z
-x,1/2+y,-z
-x,-y,-z
1/2+x,y,1/2-z
1/2-x,1/2+y,1/2+z
x,1/2-y,z
loop_
_atom_site_type_symbol
_atom_site_label
_atom_site_fract_x
_atom_site_fract_y
_atom_site_fract_z
Si Si1 0.520614 0.383005 0.436443
Si Si2 0.704636 0.057210 0.724545
Si Si3 0.294645 0.146139 0.581592
Si Si4 0.406975 0.463456 0.099808
Si Si5 0.701862 0.308128 0.403666
O O1 0.607899 0.417030 0.575547
O O2 0.421991 0.364041 0.605094
O O3 0.463457 0.418330 0.236249
O O4 0.588918 0.336112 0.349116
O O5 0.728255 0.094353 0.954283
O O6 0.821892 0.056916 0.597710
O O7 0.667973 0.001051 0.744910
O O8 0.276286 0.177539 0.332004
O O9 0.248429 0.171125 0.833050
O O10 0.500000 0.500000 0.000000
O O11 0.688941 0.250000 0.421939
#
# Coordination Sequence:
#
# PCOD9467488 Si02
#       5
#     8   8   8   8   8
#     4  11  23  42  67  98 136 181 227 283 345 408
#     4  11  23  39  62  98 138 179 230 278 328 406
#     4  11  24  45  68  96 134 176 222 282 346 408
#     4  12  22  38  65 100 142 191 232 278 341 412
#     4  11  26  46  70 100 132 171 228 291 352 420
#
# _framework density 22.240103999999999
#
# number of rings (size 3 to 8) (size 9 to 14) (size 15 to 20)
#    0.000    0.800    0.000    8.400    0.000    6.400 
#    0.000    0.000    0.000    0.000    0.000    0.000 
#    0.000    0.000    0.000    0.000    0.000    0.000 
#
# Total GULP energy -223626.769866 kJ/mol
# GULP energy per Si atom -5590.669247 kJ/mol
# Density = 2.218948 g / cm^3
# Si number density = 22.240104 Si / 1000 Ang^3
#
#
#
# Elastic Constant Matrix: (Units=GPa)
#
#
# Indices 1 2 3 4 5 6 
#
# 1 133.9258 52.8680 34.4210 0.0000 0.0000 0.0000
# 2 52.8680 171.6808 50.7105 0.0000 0.0000 0.0000
# 3 34.4210 50.7105 78.7429 0.0000 0.0000 0.0000
# 4 0.0000 0.0000 0.0000 38.8505 0.0000 0.0000
# 5 0.0000 0.0000 0.0000 0.0000 34.6342 0.0000
# 6 0.0000 0.0000 0.0000 0.0000 0.0000 17.0533
#
#
#
# Elastic Compliance Matrix: (Units=1/GPa)
#
#
# Indices 1 2 3 4 5 6 
#
# 1 0.008921 -0.001970 -0.002631 0.000000 0.000000 0.000000
# 2 -0.001970 0.007628 -0.004051 0.000000 0.000000 0.000000
# 3 -0.002631 -0.004051 0.016459 0.000000 0.000000 0.000000
# 4 0.000000 0.000000 0.000000 0.025740 0.000000 0.000000
# 5 0.000000 0.000000 0.000000 0.000000 0.028873 0.000000
# 6 0.000000 0.000000 0.000000 0.000000 0.000000 0.058640
#
#
# Mechanical properties :
#
#
# Convention : Reuss Voigt Hill
#
# Bulk Modulus (GPa) = 63.68185 73.37206 68.52696
# Shear Modulus (GPa) = 29.62109 34.53093 32.07601
#
# Velocity S-wave (km/s) = 3.65345 3.94463 3.80183
# Velocity P-wave (km/s) = 6.81857 7.33549 7.08174
#
# Compressibility (1/GPa) = 0.01570306
#
# Stress axis : x y z
#
# Youngs Moduli (GPa) = 112.09957 131.09458 60.75831
#
# Poissons Ratio (x) = 0.25825 0.15984
# Poissons Ratio (y) = 0.22083 0.24615
# Poissons Ratio (z) = 0.29492 0.53111
#
# Static dielectric constant tensor:
#      x y z
#    x 1.835110 0.000000 0.000000 
#    y 0.000000 1.839240 0.000000 
#    z 0.000000 0.000000 1.897510 
# 
# From -- ./inp_files/598.got.cif
#   From: 2010.05.17/outbox.cif.g08.bks.cpg/sg62_1_cif.got.tgz:598.got - 2010.06.03 15:25:27.
