data_PCOD9467254
_publ_section_title
;
Structure prediction by ZEFSAII (Michael W. Deem and Ramdas Pophale) SiO2 
 PCOD9467254
Probable space group: P N M A
;
_chemical_formula_sum "Si O2"
_cell_formula_units_Z 44
_cell_length_a 8.216240
_cell_length_b 18.086180
_cell_length_c 11.757720
_cell_angle_alpha 90.000000
_cell_angle_beta 90.000000
_cell_angle_gamma 90.000000
_cell_volume 1747.201843
_symmetry_space_group_name_H-M "P N M A"
_symmetry_group_IT_number 62
_symmetry_cell_setting 'orthorhombic'
loop_
_space_group_symop_operation_xyz
x,y,z
1/2-x,-y,1/2+z
1/2+x,1/2-y,1/2-z
-x,1/2+y,-z
-x,-y,-z
1/2+x,y,1/2-z
1/2-x,1/2+y,1/2+z
x,1/2-y,z
loop_
_atom_site_type_symbol
_atom_site_label
_atom_site_fract_x
_atom_site_fract_y
_atom_site_fract_z
Si Si1 0.628766 0.945731 0.940515
Si Si2 0.067971 0.541458 0.135327
Si Si3 0.075021 0.890589 0.906469
Si Si4 0.841806 0.750000 0.303963
Si Si5 0.116104 0.862032 0.342668
Si Si6 0.089840 0.335719 0.298858
O O1 0.064297 0.891639 0.043397
O O2 0.537409 0.892622 0.853016
O O3 0.767396 0.995858 0.886420
O O4 0.500000 0.000000 0.000000
O O5 0.930765 0.478975 0.116941
O O6 0.690255 0.606899 0.042283
O O7 0.064027 0.571392 0.261025
O O8 0.929098 0.852302 0.836081
O O9 0.238054 0.854193 0.857203
O O10 0.739643 0.686614 0.231870
O O11 0.955086 0.814046 0.364886
O O12 0.050664 0.250000 0.318405
#
# Coordination Sequence:
#
# PCOD9467254 Si02
#       6
#     8   8   8   4   8   8
#     4  12  25  44  80 110 146 193 250 311 368 441
#     4  11  26  47  75 111 143 194 251 315 361 447
#     4  11  26  48  71 109 145 192 247 302 373 433
#     4  10  26  46  70 100 148 200 230 304 370 446
#     4  11  26  47  71 107 148 190 247 304 371 439
#     4  12  27  48  74 108 152 198 242 308 376 459
#
# _framework density 25.183122999999998
#
# number of rings (size 3 to 8) (size 9 to 14) (size 15 to 20)
#    0.000    0.727    1.818    3.818   10.182    0.000 
#    4.909    0.909    0.000    0.000    0.000    0.000 
#    0.000    0.000    0.000    0.000    0.000    0.000 
#
# Total GULP energy -245643.707217 kJ/mol
# GULP energy per Si atom -5582.811528 kJ/mol
# Density = 2.512580 g / cm^3
# Si number density = 25.183123 Si / 1000 Ang^3
#
#
#
# Elastic Constant Matrix: (Units=GPa)
#
#
# Indices 1 2 3 4 5 6 
#
# 1 66.9124 21.2766 6.8748 0.0000 0.0000 0.0000
# 2 21.2766 114.4610 29.6742 0.0000 0.0000 0.0000
# 3 6.8748 29.6742 114.6833 0.0000 0.0000 0.0000
# 4 0.0000 0.0000 0.0000 22.9217 0.0000 0.0000
# 5 0.0000 0.0000 0.0000 0.0000 29.3387 0.0000
# 6 0.0000 0.0000 0.0000 0.0000 0.0000 49.3304
#
#
#
# Elastic Compliance Matrix: (Units=1/GPa)
#
#
# Indices 1 2 3 4 5 6 
#
# 1 0.015888 -0.002901 -0.000202 0.000000 0.000000 0.000000
# 2 -0.002901 0.009895 -0.002386 0.000000 0.000000 0.000000
# 3 -0.000202 -0.002386 0.009349 0.000000 0.000000 0.000000
# 4 0.000000 0.000000 0.000000 0.043627 0.000000 0.000000
# 5 0.000000 0.000000 0.000000 0.000000 0.034085 0.000000
# 6 0.000000 0.000000 0.000000 0.000000 0.000000 0.020271
#
#
# Mechanical properties :
#
#
# Convention : Reuss Voigt Hill
#
# Bulk Modulus (GPa) = 41.40171 45.74531 43.57351
# Shear Modulus (GPa) = 32.86354 36.20022 34.53188
#
# Velocity S-wave (km/s) = 3.61637 3.79552 3.70703
# Velocity P-wave (km/s) = 5.82353 6.11658 5.97185
#
# Compressibility (1/GPa) = 0.02415359
#
# Stress axis : x y z
#
# Youngs Moduli (GPa) = 62.94012 101.06611 106.96087
#
# Poissons Ratio (x) = 0.29320 0.02158
# Poissons Ratio (y) = 0.18259 0.25524
# Poissons Ratio (z) = 0.01270 0.24117
#
# Static dielectric constant tensor:
#      x y z
#    x 2.030680 0.000000 0.000000 
#    y 0.000000 1.942440 0.000000 
#    z 0.000000 0.000000 2.019110 
# 
# From -- ./inp_files/16854.got.cif
#   From: 2010.05.17/outbox.cif.g08.bks.cpg/sg62_9_cif.got.tgz:16854.got - 2010.06.03 15:25:27.
