data_PCOD9467392
_publ_section_title
;
Structure prediction by ZEFSAII (Michael W. Deem and Ramdas Pophale) SiO2 
 PCOD9467392
Probable space group: P N M A
;
_chemical_formula_sum "Si O2"
_cell_formula_units_Z 48
_cell_length_a 13.858854
_cell_length_b 18.095114
_cell_length_c 8.015245
_cell_angle_alpha 90.000000
_cell_angle_beta 90.000000
_cell_angle_gamma 90.000000
_cell_volume 2010.043448
_symmetry_space_group_name_H-M "P N M A"
_symmetry_group_IT_number 62
_symmetry_cell_setting 'orthorhombic'
loop_
_space_group_symop_operation_xyz
x,y,z
1/2-x,-y,1/2+z
1/2+x,1/2-y,1/2-z
-x,1/2+y,-z
-x,-y,-z
1/2+x,y,1/2-z
1/2-x,1/2+y,1/2+z
x,1/2-y,z
loop_
_atom_site_type_symbol
_atom_site_label
_atom_site_fract_x
_atom_site_fract_y
_atom_site_fract_z
Si Si1 0.765075 0.907080 0.009575
Si Si2 0.999419 0.750000 0.731771
Si Si3 0.077680 0.750000 0.073208
Si Si4 0.701399 0.250000 0.855285
Si Si5 0.152106 0.992784 0.232068
Si Si6 0.520348 0.404163 0.664318
Si Si7 0.920427 0.878030 0.525514
Si Si8 0.805545 0.750000 0.959922
O O1 0.876555 0.908284 0.073669
O O2 0.749940 0.826519 0.932288
O O3 0.694026 0.926415 0.158106
O O4 0.761984 0.973289 0.877876
O O5 0.994288 0.823177 0.619792
O O6 0.899677 0.750000 0.842478
O O7 0.080389 0.750000 0.872003
O O8 0.184473 0.750000 0.142623
O O9 0.022455 0.676885 0.131455
O O10 0.672748 0.250000 0.659918
O O11 0.659823 0.178403 0.950826
O O12 0.117067 0.060856 0.346540
O O13 0.064813 0.961048 0.122318
O O14 0.535843 0.415160 0.861810
#
# Coordination Sequence:
#
# PCOD9467392 Si02
#       8
#     8   4   4   4   8   8   8   4
#     4  12  25  46  71 102 146 185 237 296 348 419
#     4  11  21  43  73  98 141 181 237 291 354 405
#     4  12  23  43  70 106 130 188 245 287 348 425
#     4  11  24  41  76  97 138 186 243 284 355 417
#     4  12  27  43  70 105 141 187 236 289 359 423
#     4  12  24  45  70 102 138 190 234 285 357 421
#     4  11  23  46  68 102 143 188 225 298 351 419
#     4  12  20  47  69  95 127 193 227 282 345 415
#
# _framework density 23.880081000000001
#
# number of rings (size 3 to 8) (size 9 to 14) (size 15 to 20)
#    0.000    0.333    5.000    4.000    2.333    0.000 
#    3.000    1.667    0.000    0.000    0.000    0.000 
#    0.000    0.000    0.000    0.000    0.000    0.000 
#
# Total GULP energy -268854.639029 kJ/mol
# GULP energy per Si atom -5601.138313 kJ/mol
# Density = 2.382573 g / cm^3
# Si number density = 23.880081 Si / 1000 Ang^3
#
#
#
# Elastic Constant Matrix: (Units=GPa)
#
#
# Indices 1 2 3 4 5 6 
#
# 1 62.0972 8.5660 -21.1377 0.0000 0.0000 0.0000
# 2 8.5660 81.3780 -20.9275 0.0000 0.0000 0.0000
# 3 -21.1377 -20.9275 33.7518 0.0000 0.0000 0.0000
# 4 0.0000 0.0000 0.0000 41.6767 0.0000 0.0000
# 5 0.0000 0.0000 0.0000 0.0000 31.3078 0.0000
# 6 0.0000 0.0000 0.0000 0.0000 0.0000 7.1778
#
#
#
# Elastic Compliance Matrix: (Units=1/GPa)
#
#
# Indices 1 2 3 4 5 6 
#
# 1 0.020594 0.001367 0.013745 0.000000 0.000000 0.000000
# 2 0.001367 0.014710 0.009977 0.000000 0.000000 0.000000
# 3 0.013745 0.009977 0.044422 0.000000 0.000000 0.000000
# 4 0.000000 0.000000 0.000000 0.023994 0.000000 0.000000
# 5 0.000000 0.000000 0.000000 0.000000 0.031941 0.000000
# 6 0.000000 0.000000 0.000000 0.000000 0.000000 0.139318
#
#
# Mechanical properties :
#
#
# Convention : Reuss Voigt Hill
#
# Bulk Modulus (GPa) = 7.69798 12.24762 9.97280
# Shear Modulus (GPa) = 18.64957 30.08090 24.36524
#
# Velocity S-wave (km/s) = 2.79761 3.55303 3.19770
# Velocity P-wave (km/s) = 3.69677 4.68742 4.22126
#
# Compressibility (1/GPa) = 0.12990420
#
# Stress axis : x y z
#
# Youngs Moduli (GPa) = 48.55796 67.98017 22.51123
#
# Poissons Ratio (x) = -0.09293 -0.30942
# Poissons Ratio (y) = -0.06638 -0.22459
# Poissons Ratio (z) = -0.66743 -0.67824
#
# Static dielectric constant tensor:
#      x y z
#    x 1.879930 0.000000 0.000000 
#    y 0.000000 1.900390 0.000000 
#    z 0.000000 0.000000 1.923340 
# 
# From -- ./inp_files/6542.got.cif
#   From: 2010.05.17/outbox.cif.g08.bks.cpg/sg62_4_cif.got.tgz:6542.got - 2010.06.03 15:25:27.
