data_PCOD9467018
_publ_section_title
;
Structure prediction by ZEFSAII (Michael W. Deem and Ramdas Pophale) SiO2 
 PCOD9467018
Probable space group: P N M A
;
_chemical_formula_sum "Si O2"
_cell_formula_units_Z 48
_cell_length_a 15.110427
_cell_length_b 8.830000
_cell_length_c 18.692578
_cell_angle_alpha 90.000000
_cell_angle_beta 90.000000
_cell_angle_gamma 90.000000
_cell_volume 2494.058536
_symmetry_space_group_name_H-M "P N M A"
_symmetry_group_IT_number 62
_symmetry_cell_setting 'orthorhombic'
loop_
_space_group_symop_operation_xyz
x,y,z
1/2-x,-y,1/2+z
1/2+x,1/2-y,1/2-z
-x,1/2+y,-z
-x,-y,-z
1/2+x,y,1/2-z
1/2-x,1/2+y,1/2+z
x,1/2-y,z
loop_
_atom_site_type_symbol
_atom_site_label
_atom_site_fract_x
_atom_site_fract_y
_atom_site_fract_z
Si Si1 0.403474 0.930227 0.511560
Si Si2 0.061750 0.568553 0.438682
Si Si3 0.751875 0.430724 0.087379
Si Si4 0.695518 0.069669 0.738584
Si Si5 0.506584 0.568778 0.223557
Si Si6 0.845157 0.571343 0.825280
O O1 0.405579 0.750000 0.497776
O O2 0.373886 0.955069 0.593315
O O3 0.500000 0.000000 0.500000
O O4 0.332978 0.007918 0.459551
O O5 0.066012 0.750000 0.446009
O O6 0.160096 0.500155 0.440846
O O7 0.000000 0.500000 0.500000
O O8 0.023033 0.533480 0.359736
O O9 0.748038 0.250000 0.085253
O O10 0.768125 0.487223 0.168189
O O11 0.702791 0.250000 0.728208
O O12 0.593290 0.031770 0.753196
O O13 0.757054 0.018330 0.803900
O O14 0.519403 0.750000 0.232440
O O15 0.577085 0.483882 0.272768
O O16 0.830142 0.750000 0.815229
#
# Coordination Sequence:
#
# PCOD9467018 Si02
#       6
#     8   8   8   8   8   8
#     4  11  25  44  66  97 132 172 217 268 324 385
#     4  11  24  43  65  95 130 171 218 268 323 388
#     4  12  25  43  67  97 131 174 218 266 324 386
#     4  11  23  41  66  95 127 167 213 264 323 385
#     4  10  23  42  66  93 126 168 213 261 319 383
#     4  11  24  41  64  96 129 164 212 263 317 381
#
# _framework density 19.245740000000001
#
# number of rings (size 3 to 8) (size 9 to 14) (size 15 to 20)
#    0.000    1.000    1.667    4.500    2.333    7.333 
#    0.000    0.000    0.000    0.000    0.000    0.000 
#    0.000    0.000    0.000    0.000    0.000    0.000 
#
# Total GULP energy -268639.576913 kJ/mol
# GULP energy per Si atom -5596.657852 kJ/mol
# Density = 1.920194 g / cm^3
# Si number density = 19.245740 Si / 1000 Ang^3
#
#
#
# Elastic Constant Matrix: (Units=GPa)
#
#
# Indices 1 2 3 4 5 6 
#
# 1 113.0798 38.4610 19.9815 0.0000 0.0000 0.0000
# 2 38.4610 77.2064 39.8934 0.0000 0.0000 0.0000
# 3 19.9815 39.8934 52.0777 0.0000 0.0000 0.0000
# 4 0.0000 0.0000 0.0000 32.8083 0.0000 0.0000
# 5 0.0000 0.0000 0.0000 0.0000 39.9671 0.0000
# 6 0.0000 0.0000 0.0000 0.0000 0.0000 35.3587
#
#
#
# Elastic Compliance Matrix: (Units=1/GPa)
#
#
# Indices 1 2 3 4 5 6 
#
# 1 0.010647 -0.005285 -0.000037 0.000000 0.000000 0.000000
# 2 -0.005285 0.024061 -0.016404 0.000000 0.000000 0.000000
# 3 -0.000037 -0.016404 0.031782 0.000000 0.000000 0.000000
# 4 0.000000 0.000000 0.000000 0.030480 0.000000 0.000000
# 5 0.000000 0.000000 0.000000 0.000000 0.025021 0.000000
# 6 0.000000 0.000000 0.000000 0.000000 0.000000 0.028282
#
#
# Mechanical properties :
#
#
# Convention : Reuss Voigt Hill
#
# Bulk Modulus (GPa) = 43.40409 48.78174 46.09292
# Shear Modulus (GPa) = 24.82573 31.22870 28.02721
#
# Velocity S-wave (km/s) = 3.59546 4.03256 3.82027
# Velocity P-wave (km/s) = 6.31173 6.86177 6.59249
#
# Compressibility (1/GPa) = 0.02303930
#
# Stress axis : x y z
#
# Youngs Moduli (GPa) = 93.91977 41.56072 31.46427
#
# Poissons Ratio (x) = 0.21965 0.00115
# Poissons Ratio (y) = 0.49638 0.51614
# Poissons Ratio (z) = 0.00344 0.68176
#
# Static dielectric constant tensor:
#      x y z
#    x 1.638080 0.000000 0.000000 
#    y 0.000000 1.641610 0.000000 
#    z 0.000000 0.000000 1.646730 
# 
# From -- ./inp_files/23662.got.cif
#   From: 2010.05.17/outbox.cif.g08.bks.cpg/sg62_12_cif.got.tgz:23662.got - 2010.06.03 15:25:27.
