data_PCOD9467816
_publ_section_title
;
Structure prediction by ZEFSAII (Michael W. Deem and Ramdas Pophale) SiO2 
 PCOD9467816
Probable space group: P N M A
;
_chemical_formula_sum "Si O2"
_cell_formula_units_Z 64
_cell_length_a 15.000000
_cell_length_b 9.000000
_cell_length_c 24.000000
_cell_angle_alpha 90.000000
_cell_angle_beta 90.000000
_cell_angle_gamma 90.000000
_cell_volume 3240.000000
_symmetry_space_group_name_H-M "P N M A"
_symmetry_group_IT_number 62
_symmetry_cell_setting 'orthorhombic'
loop_
_space_group_symop_operation_xyz
x,y,z
1/2-x,-y,1/2+z
1/2+x,1/2-y,1/2-z
-x,1/2+y,-z
-x,-y,-z
1/2+x,y,1/2-z
1/2-x,1/2+y,1/2+z
x,1/2-y,z
loop_
_atom_site_type_symbol
_atom_site_label
_atom_site_fract_x
_atom_site_fract_y
_atom_site_fract_z
Si Si1 0.653110 0.428263 0.113078
Si Si2 0.306738 0.071321 0.464425
Si Si3 0.716947 0.072229 0.838563
Si Si4 0.551015 0.922208 0.630796
Si Si5 0.204386 0.426676 0.263644
Si Si6 0.854871 0.576871 0.919449
Si Si7 0.972050 0.579578 0.362122
Si Si8 0.523455 0.919656 0.266763
O O1 0.652078 0.250000 0.115306
O O2 0.710088 0.471925 0.059398
O O3 0.699305 0.476509 0.171771
O O4 0.553355 0.488412 0.113278
O O5 0.309173 0.250000 0.474422
O O6 0.372542 0.039442 0.412888
O O7 0.336180 0.986836 0.519465
O O8 0.714642 0.250000 0.834618
O O9 0.627480 0.022122 0.870450
O O10 0.725583 0.004802 0.776836
O O11 0.799056 0.017058 0.875108
O O12 0.564037 0.750000 0.648050
O O13 0.458149 0.933833 0.597438
O O14 0.541547 0.022595 0.685298
O O15 0.216445 0.250000 0.261818
O O16 0.108492 0.472153 0.237814
O O17 0.829390 0.750000 0.915857
O O18 0.978885 0.750000 0.381231
O O19 0.982741 0.579635 0.294931
O O20 0.552537 0.750000 0.278800
#
# Coordination Sequence:
#
# PCOD9467816 Si02
#       8
#     8   8   8   8   8   8   8   8
#     4   9  20  38  59  84 114 149 192 238 288 342
#     4  10  22  40  60  83 113 153 195 238 292 345
#     4  11  22  37  58  84 116 154 192 235 287 341
#     4  10  21  36  56  83 118 153 189 234 282 341
#     4  10  19  33  54  83 116 149 187 232 282 339
#     4  11  23  39  58  85 116 150 197 241 283 341
#     4   9  21  38  56  83 118 152 191 237 286 340
#     4  10  19  33  54  82 116 153 189 227 280 339
#
# _framework density 19.753086
#
# number of rings (size 3 to 8) (size 9 to 14) (size 15 to 20)
#    0.000    2.000    1.250    1.875    1.750    3.500 
#    0.000    0.625    0.000    0.000    0.000    0.000 
#    0.000    0.000    0.000    0.000    0.000    0.000 
#
# Total GULP energy -357335.969404 kJ/mol
# GULP energy per Si atom -5583.374522 kJ/mol
# Density = 1.970813 g / cm^3
# Si number density = 19.753086 Si / 1000 Ang^3
#
#
#
# Elastic Constant Matrix: (Units=GPa)
#
#
# Indices 1 2 3 4 5 6 
#
# 1 54.2852 5.8248 -18.0515 0.0000 0.0000 0.0000
# 2 5.8248 30.6873 -3.8362 0.0000 0.0000 0.0000
# 3 -18.0515 -3.8362 6.7682 0.0000 0.0000 0.0000
# 4 0.0000 0.0000 0.0000 19.8405 0.0000 0.0000
# 5 0.0000 0.0000 0.0000 0.0000 3.5470 0.0000
# 6 0.0000 0.0000 0.0000 0.0000 0.0000 20.6328
#
#
#
# Elastic Compliance Matrix: (Units=1/GPa)
#
#
# Indices 1 2 3 4 5 6 
#
# 1 0.183191 0.028313 0.504637 0.000000 0.000000 0.000000
# 2 0.028313 0.039448 0.097872 0.000000 0.000000 0.000000
# 3 0.504637 0.097872 1.549143 0.000000 0.000000 0.000000
# 4 0.000000 0.000000 0.000000 0.050402 0.000000 0.000000
# 5 0.000000 0.000000 0.000000 0.000000 0.281932 0.000000
# 6 0.000000 0.000000 0.000000 0.000000 0.000000 0.048467
#
#
# Mechanical properties :
#
#
# Convention : Reuss Voigt Hill
#
# Bulk Modulus (GPa) = 0.32966 6.62386 3.47676
# Shear Modulus (GPa) = 2.62870 15.99096 9.30983
#
# Velocity S-wave (km/s) = 1.15485 2.84833 2.17332
# Velocity P-wave (km/s) = 1.39480 3.76536 2.83931
#
# Compressibility (1/GPa) = 3.03342642
#
# Stress axis : x y z
#
# Youngs Moduli (GPa) = 5.45878 25.35008 0.64552
#
# Poissons Ratio (x) = -0.71773 -0.32575
# Poissons Ratio (y) = -0.15455 -0.06318
# Poissons Ratio (z) = -2.75470 -2.48107
#
# Static dielectric constant tensor:
#      x y z
#    x 1.727920 0.000000 0.000000 
#    y 0.000000 1.667620 0.000000 
#    z 0.000000 0.000000 1.676690 
# 
# From -- ./inp_files/29749.got.cif
#   From: 2010.05.17/outbox.ucp.g08.bks.cvg/sg62_15_cif.got.tgz:29749.got - 2010.06.11 16:29:25.
