data_PCOD9467573
_publ_section_title
;
Structure prediction by ZEFSAII (Michael W. Deem and Ramdas Pophale) SiO2 
 PCOD9467573
Probable space group: P N M A
;
_chemical_formula_sum "Si O2"
_cell_formula_units_Z 40
_cell_length_a 8.025755
_cell_length_b 10.863080
_cell_length_c 18.917105
_cell_angle_alpha 90.000000
_cell_angle_beta 90.000000
_cell_angle_gamma 90.000000
_cell_volume 1649.276802
_symmetry_space_group_name_H-M "P N M A"
_symmetry_group_IT_number 62
_symmetry_cell_setting 'orthorhombic'
loop_
_space_group_symop_operation_xyz
x,y,z
1/2-x,-y,1/2+z
1/2+x,1/2-y,1/2-z
-x,1/2+y,-z
-x,-y,-z
1/2+x,y,1/2-z
1/2-x,1/2+y,1/2+z
x,1/2-y,z
loop_
_atom_site_type_symbol
_atom_site_label
_atom_site_fract_x
_atom_site_fract_y
_atom_site_fract_z
Si Si1 0.751153 0.892371 0.016955
Si Si2 0.756683 0.891443 0.270605
Si Si3 0.017562 0.250000 0.156404
Si Si4 0.415354 0.250000 0.181362
Si Si5 0.556618 0.990202 0.400100
Si Si6 0.429223 0.007788 0.850933
O O1 0.720201 0.750000 0.998698
O O2 0.617315 0.942402 0.072431
O O3 0.783486 0.977798 0.949109
O O4 0.927745 0.905518 0.058338
O O5 0.742313 0.750000 0.249524
O O6 0.728211 0.974988 0.201848
O O7 0.928806 0.914125 0.311052
O O8 0.618346 0.929984 0.328070
O O9 0.218387 0.250000 0.167089
O O10 0.939256 0.250000 0.233955
O O11 0.977860 0.374929 0.114740
O O12 0.505084 0.369586 0.150539
#
# Coordination Sequence:
#
# PCOD9467573 Si02
#       6
#     8   8   4   4   8   8
#     4  11  25  45  68  99 135 179 224 274 334 406
#     4  12  24  43  67  97 133 175 222 277 332 399
#     4  12  24  46  68  98 138 169 229 286 328 402
#     4  12  24  44  70 102 134 175 223 280 336 396
#     4  11  24  44  69  95 135 177 223 279 335 393
#     4  12  25  43  68  99 133 176 223 275 337 395
#
# _framework density 24.253055
#
# number of rings (size 3 to 8) (size 9 to 14) (size 15 to 20)
#    0.000    0.400    5.000    3.600    2.800    0.800 
#    3.600    0.000    0.000    0.000    0.000    0.000 
#    0.000    0.000    0.000    0.000    0.000    0.000 
#
# Total GULP energy -224396.968249 kJ/mol
# GULP energy per Si atom -5609.924206 kJ/mol
# Density = 2.419785 g / cm^3
# Si number density = 24.253055 Si / 1000 Ang^3
#
#
#
# Elastic Constant Matrix: (Units=GPa)
#
#
# Indices 1 2 3 4 5 6 
#
# 1 59.5456 23.6030 13.5589 0.0000 0.0000 0.0000
# 2 23.6030 123.4005 10.7568 0.0000 0.0000 0.0000
# 3 13.5589 10.7568 87.4140 0.0000 0.0000 0.0000
# 4 0.0000 0.0000 0.0000 36.7500 0.0000 0.0000
# 5 0.0000 0.0000 0.0000 0.0000 45.7932 0.0000
# 6 0.0000 0.0000 0.0000 0.0000 0.0000 35.6487
#
#
#
# Elastic Compliance Matrix: (Units=1/GPa)
#
#
# Indices 1 2 3 4 5 6 
#
# 1 0.018691 -0.003358 -0.002486 0.000000 0.000000 0.000000
# 2 -0.003358 0.008795 -0.000561 0.000000 0.000000 0.000000
# 3 -0.002486 -0.000561 0.011894 0.000000 0.000000 0.000000
# 4 0.000000 0.000000 0.000000 0.027211 0.000000 0.000000
# 5 0.000000 0.000000 0.000000 0.000000 0.021837 0.000000
# 6 0.000000 0.000000 0.000000 0.000000 0.000000 0.028051
#
#
# Mechanical properties :
#
#
# Convention : Reuss Voigt Hill
#
# Bulk Modulus (GPa) = 37.63748 40.68861 39.16304
# Shear Modulus (GPa) = 36.19305 38.46781 37.33043
#
# Velocity S-wave (km/s) = 3.86723 3.98691 3.92753
# Velocity P-wave (km/s) = 5.95760 6.16499 6.06218
#
# Compressibility (1/GPa) = 0.02656926
#
# Stress axis : x y z
#
# Youngs Moduli (GPa) = 53.50128 113.70103 84.07255
#
# Poissons Ratio (x) = 0.38185 0.20900
# Poissons Ratio (y) = 0.17968 0.04719
# Poissons Ratio (z) = 0.13300 0.06383
#
# Static dielectric constant tensor:
#      x y z
#    x 1.999180 0.000000 0.000000 
#    y 0.000000 1.844970 0.000000 
#    z 0.000000 0.000000 1.903890 
# 
# From -- ./inp_files/21952.got.cif
#   From: 2010.05.17/outbox.cif.g08.bks.cpg/sg62_11_cif.got.tgz:21952.got - 2010.06.03 15:25:27.
