data_PCOD9467507
_publ_section_title
;
Structure prediction by ZEFSAII (Michael W. Deem and Ramdas Pophale) SiO2 
 PCOD9467507
Probable space group: P N M A
;
_chemical_formula_sum "Si O2"
_cell_formula_units_Z 48
_cell_length_a 15.682032
_cell_length_b 14.747690
_cell_length_c 9.810906
_cell_angle_alpha 90.000000
_cell_angle_beta 90.000000
_cell_angle_gamma 90.000000
_cell_volume 2269.004987
_symmetry_space_group_name_H-M "P N M A"
_symmetry_group_IT_number 62
_symmetry_cell_setting 'orthorhombic'
loop_
_space_group_symop_operation_xyz
x,y,z
1/2-x,-y,1/2+z
1/2+x,1/2-y,1/2-z
-x,1/2+y,-z
-x,-y,-z
1/2+x,y,1/2-z
1/2-x,1/2+y,1/2+z
x,1/2-y,z
loop_
_atom_site_type_symbol
_atom_site_label
_atom_site_fract_x
_atom_site_fract_y
_atom_site_fract_z
Si Si1 0.572794 0.453227 0.162019
Si Si2 0.634481 0.750000 0.036872
Si Si3 0.914200 0.939115 0.347324
Si Si4 0.579411 0.250000 0.468904
Si Si5 0.245579 0.501682 0.797149
Si Si6 0.018160 0.250000 0.313915
Si Si7 0.490911 0.750000 0.228285
Si Si8 0.768761 0.893865 0.949194
O O1 0.484246 0.493094 0.217771
O O2 0.652957 0.503718 0.228955
O O3 0.569451 0.344089 0.165180
O O4 0.587300 0.472954 0.002146
O O5 0.562685 0.750000 0.916221
O O6 0.696194 0.835184 0.022160
O O7 0.588386 0.750000 0.181953
O O8 0.952011 0.839489 0.338970
O O9 0.822895 0.938005 0.276385
O O10 0.508805 0.250000 0.350023
O O11 0.534389 0.250000 0.614508
O O12 0.643449 0.163269 0.454374
O O13 0.234163 0.592451 0.705176
O O14 0.226035 0.484709 0.956774
#
# Coordination Sequence:
#
# PCOD9467507 Si02
#       8
#     8   4   8   4   8   4   4   8
#     4  11  23  41  68 100 133 179 234 277 336 416
#     4  11  24  44  72  91 130 188 236 269 332 438
#     4  11  23  41  68 100 133 179 234 277 336 416
#     4  11  24  42  62  97 136 172 212 285 356 396
#     4  12  22  40  68  98 134 176 222 288 334 408
#     4  12  22  42  68  98 130 180 222 287 341 404
#     4  12  22  42  68  98 130 180 222 287 341 404
#     4  11  24  43  65  96 133 178 226 278 347 406
#
# _framework density 21.154646
#
# number of rings (size 3 to 8) (size 9 to 14) (size 15 to 20)
#    0.000    0.667    6.667    2.000    0.000    0.000 
#    0.000    8.333    0.000    2.000    0.000    0.000 
#    0.000    0.000    0.000    0.000    0.000    0.000 
#
# Total GULP energy -267225.233332 kJ/mol
# GULP energy per Si atom -5567.192361 kJ/mol
# Density = 2.110650 g / cm^3
# Si number density = 21.154646 Si / 1000 Ang^3
#
#
#
# Elastic Constant Matrix: (Units=GPa)
#
#
# Indices 1 2 3 4 5 6 
#
# 1 83.7623 23.3353 27.7140 0.0000 0.0000 0.0000
# 2 23.3353 75.5887 -4.5433 0.0000 0.0000 0.0000
# 3 27.7140 -4.5433 66.6788 0.0000 0.0000 0.0000
# 4 0.0000 0.0000 0.0000 18.1182 0.0000 0.0000
# 5 0.0000 0.0000 0.0000 0.0000 36.1867 0.0000
# 6 0.0000 0.0000 0.0000 0.0000 0.0000 11.6028
#
#
#
# Elastic Compliance Matrix: (Units=1/GPa)
#
#
# Indices 1 2 3 4 5 6 
#
# 1 0.015676 -0.005253 -0.006873 0.000000 0.000000 0.000000
# 2 -0.005253 0.015044 0.003208 0.000000 0.000000 0.000000
# 3 -0.006873 0.003208 0.018073 0.000000 0.000000 0.000000
# 4 0.000000 0.000000 0.000000 0.055193 0.000000 0.000000
# 5 0.000000 0.000000 0.000000 0.000000 0.027634 0.000000
# 6 0.000000 0.000000 0.000000 0.000000 0.000000 0.086186
#
#
# Mechanical properties :
#
#
# Convention : Reuss Voigt Hill
#
# Bulk Modulus (GPa) = 32.30282 35.44909 33.87595
# Shear Modulus (GPa) = 20.32847 25.14980 22.73914
#
# Velocity S-wave (km/s) = 3.10328 3.45172 3.28212
# Velocity P-wave (km/s) = 5.30504 5.71658 5.51465
#
# Compressibility (1/GPa) = 0.03095705
#
# Stress axis : x y z
#
# Youngs Moduli (GPa) = 63.79176 66.47239 55.33219
#
# Poissons Ratio (x) = 0.34915 0.38032
# Poissons Ratio (y) = 0.33507 -0.17752
# Poissons Ratio (z) = 0.43846 -0.21325
#
# Static dielectric constant tensor:
#      x y z
#    x 1.803120 0.000000 0.000000 
#    y 0.000000 1.812430 0.000000 
#    z 0.000000 0.000000 1.819410 
# 
# From -- ./inp_files/6550.got.cif
#   From: 2010.05.17/outbox.cif.g08.bks.cpg/sg62_4_cif.got.tgz:6550.got - 2010.06.03 15:25:27.
