data_PCOD9467996
_publ_section_title
;
Structure prediction by ZEFSAII (Michael W. Deem and Ramdas Pophale) SiO2 
 PCOD9467996
Probable space group: P N M A
;
_chemical_formula_sum "Si O2"
_cell_formula_units_Z 48
_cell_length_a 24.000000
_cell_length_b 9.000000
_cell_length_c 12.000000
_cell_angle_alpha 90.000000
_cell_angle_beta 90.000000
_cell_angle_gamma 90.000000
_cell_volume 2592.000000
_symmetry_space_group_name_H-M "P N M A"
_symmetry_group_IT_number 62
_symmetry_cell_setting 'orthorhombic'
loop_
_space_group_symop_operation_xyz
x,y,z
1/2-x,-y,1/2+z
1/2+x,1/2-y,1/2-z
-x,1/2+y,-z
-x,-y,-z
1/2+x,y,1/2-z
1/2-x,1/2+y,1/2+z
x,1/2-y,z
loop_
_atom_site_type_symbol
_atom_site_label
_atom_site_fract_x
_atom_site_fract_y
_atom_site_fract_z
Si Si1 0.936622 0.070168 0.505627
Si Si2 0.298467 0.069850 0.588227
Si Si3 0.868250 0.074536 0.133850
Si Si4 0.487555 0.571063 0.381368
Si Si5 0.176811 0.574121 0.625132
Si Si6 0.600470 0.570684 0.253294
O O1 0.944020 0.250000 0.496406
O O2 0.884878 0.027048 0.422895
O O3 0.908904 0.032801 0.624839
O O4 0.000000 0.000000 0.500000
O O5 0.293238 0.250000 0.592612
O O6 0.333011 0.031056 0.475639
O O7 0.341967 0.020710 0.686902
O O8 0.235585 0.003157 0.590794
O O9 0.882141 0.250000 0.121747
O O10 0.830086 0.056249 0.242260
O O11 0.926534 0.989045 0.151252
O O12 0.500000 0.500000 0.500000
O O13 0.486048 0.750000 0.384232
O O14 0.541922 0.524857 0.310136
O O15 0.181671 0.750000 0.597706
O O16 0.602257 0.750000 0.261893
#
# Coordination Sequence:
#
# PCOD9467996 Si02
#       6
#     8   8   8   8   8   8
#     4  10  21  39  61  85 115 148 187 235 286 340
#     4  10  21  38  58  80 112 154 190 228 279 339
#     4  10  21  39  58  81 116 148 184 235 286 332
#     4  11  20  34  57  85 115 148 188 234 284 337
#     4  10  23  39  58  85 116 147 186 241 287 329
#     4   9  19  36  57  81 113 150 186 230 282 338
#
# _framework density 18.518519000000001
#
# number of rings (size 3 to 8) (size 9 to 14) (size 15 to 20)
#    0.000    2.000    1.667    1.500    2.333    2.000 
#    0.000    1.667    0.000    0.000    0.000    0.000 
#    0.000    0.000    0.000    0.000    0.000    0.000 
#
# Total GULP energy -267355.144464 kJ/mol
# GULP energy per Si atom -5569.898843 kJ/mol
# Density = 1.847637 g / cm^3
# Si number density = 18.518519 Si / 1000 Ang^3
#
#
#
# Elastic Constant Matrix: (Units=GPa)
#
#
# Indices 1 2 3 4 5 6 
#
# 1 183.0060 41.2486 49.5738 0.0000 0.0000 0.0000
# 2 41.2486 37.9597 16.0442 0.0000 0.0000 0.0000
# 3 49.5738 16.0442 97.8045 0.0000 0.0000 0.0000
# 4 0.0000 0.0000 0.0000 15.2756 0.0000 0.0000
# 5 0.0000 0.0000 0.0000 0.0000 28.7034 0.0000
# 6 0.0000 0.0000 0.0000 0.0000 0.0000 49.3495
#
#
#
# Elastic Compliance Matrix: (Units=1/GPa)
#
#
# Indices 1 2 3 4 5 6 
#
# 1 0.007884 -0.007391 -0.002784 0.000000 0.000000 0.000000
# 2 -0.007391 0.035234 -0.002034 0.000000 0.000000 0.000000
# 3 -0.002784 -0.002034 0.011969 0.000000 0.000000 0.000000
# 4 0.000000 0.000000 0.000000 0.065464 0.000000 0.000000
# 5 0.000000 0.000000 0.000000 0.000000 0.034839 0.000000
# 6 0.000000 0.000000 0.000000 0.000000 0.000000 0.020264
#
#
# Mechanical properties :
#
#
# Convention : Reuss Voigt Hill
#
# Bulk Modulus (GPa) = 32.60418 59.16704 45.88561
# Shear Modulus (GPa) = 23.77612 32.79260 28.28436
#
# Velocity S-wave (km/s) = 3.58706 4.21265 3.91238
# Velocity P-wave (km/s) = 5.89919 7.46200 6.72614
#
# Compressibility (1/GPa) = 0.03067091
#
# Stress axis : x y z
#
# Youngs Moduli (GPa) = 126.83537 28.38137 83.54798
#
# Poissons Ratio (x) = 0.20976 0.23259
# Poissons Ratio (y) = 0.93740 0.16993
# Poissons Ratio (z) = 0.35309 0.05772
#
# Static dielectric constant tensor:
#      x y z
#    x 1.645860 0.000000 0.000000 
#    y 0.000000 1.640020 0.000000 
#    z 0.000000 0.000000 1.732550 
# 
# From -- ./inp_files/15131.got.cif
#   From: 2010.05.17/outbox.ucp.g08.bks.cvg/sg62_8_cif.got.tgz:15131.got - 2010.06.11 16:29:25.
