data_PCOD9467670
_publ_section_title
;
Structure prediction by ZEFSAII (Michael W. Deem and Ramdas Pophale) SiO2 
 PCOD9467670
Probable space group: P N M A
;
_chemical_formula_sum "Si O2"
_cell_formula_units_Z 24
_cell_length_a 9.716179
_cell_length_b 18.455418
_cell_length_c 5.163860
_cell_angle_alpha 90.000000
_cell_angle_beta 90.000000
_cell_angle_gamma 90.000000
_cell_volume 925.963468
_symmetry_space_group_name_H-M "P N M A"
_symmetry_group_IT_number 62
_symmetry_cell_setting 'orthorhombic'
loop_
_space_group_symop_operation_xyz
x,y,z
1/2-x,-y,1/2+z
1/2+x,1/2-y,1/2-z
-x,1/2+y,-z
-x,-y,-z
1/2+x,y,1/2-z
1/2-x,1/2+y,1/2+z
x,1/2-y,z
loop_
_atom_site_type_symbol
_atom_site_label
_atom_site_fract_x
_atom_site_fract_y
_atom_site_fract_z
Si Si1 0.095024 0.494732 0.749258
Si Si2 0.564501 0.250000 0.063653
Si Si3 0.820582 0.250000 0.763947
Si Si4 0.740539 0.122762 0.046835
O O1 0.000000 0.500000 0.500000
O O2 0.198266 0.562403 0.767720
O O3 0.677878 0.421378 0.804828
O O4 0.000000 0.500000 0.000000
O O5 0.626079 0.175547 0.173725
O O6 0.404903 0.250000 0.998377
O O7 0.653375 0.250000 0.786742
O O8 0.852694 0.177789 0.927434
#
# Coordination Sequence:
#
# PCOD9467670 Si02
#       4
#     8   4   4   8
#     4  12  24  42  71 106 152 197 251 316 393 461
#     4   8  18  38  68 100 149 194 257 314 391 454
#     4   8  18  40  70 106 153 202 259 326 393 464
#     4   9  22  39  69 107 150 193 259 319 379 466
#
# _framework density 25.918948
#
# number of rings (size 3 to 8) (size 9 to 14) (size 15 to 20)
#    2.000    0.000    0.000    4.000    0.000    0.000 
#    0.000    6.667    0.000   56.000    0.000    0.000 
#    0.000    0.000    0.000    0.000    0.000    0.000 
#
# Total GULP energy -134092.831893 kJ/mol
# GULP energy per Si atom -5587.201329 kJ/mol
# Density = 2.585996 g / cm^3
# Si number density = 25.918948 Si / 1000 Ang^3
#
#
#
# Elastic Constant Matrix: (Units=GPa)
#
#
# Indices 1 2 3 4 5 6 
#
# 1 85.9792 39.8896 45.1596 0.0000 0.0000 0.0000
# 2 39.8896 207.0079 42.2793 0.0000 0.0000 0.0000
# 3 45.1596 42.2793 135.7537 0.0000 0.0000 0.0000
# 4 0.0000 0.0000 0.0000 25.3649 0.0000 0.0000
# 5 0.0000 0.0000 0.0000 0.0000 58.4945 0.0000
# 6 0.0000 0.0000 0.0000 0.0000 0.0000 10.2098
#
#
#
# Elastic Compliance Matrix: (Units=1/GPa)
#
#
# Indices 1 2 3 4 5 6 
#
# 1 0.014811 -0.001973 -0.004313 0.000000 0.000000 0.000000
# 2 -0.001973 0.005422 -0.001032 0.000000 0.000000 0.000000
# 3 -0.004313 -0.001032 0.009122 0.000000 0.000000 0.000000
# 4 0.000000 0.000000 0.000000 0.039425 0.000000 0.000000
# 5 0.000000 0.000000 0.000000 0.000000 0.017096 0.000000
# 6 0.000000 0.000000 0.000000 0.000000 0.000000 0.097945
#
#
# Mechanical properties :
#
#
# Convention : Reuss Voigt Hill
#
# Bulk Modulus (GPa) = 67.93707 75.93309 71.93508
# Shear Modulus (GPa) = 24.58655 38.90799 31.74727
#
# Velocity S-wave (km/s) = 3.08327 3.87866 3.50361
# Velocity P-wave (km/s) = 6.24048 7.02984 6.64689
#
# Compressibility (1/GPa) = 0.01471950
#
# Stress axis : x y z
#
# Youngs Moduli (GPa) = 67.51586 184.44118 109.62106
#
# Poissons Ratio (x) = 0.36396 0.47275
# Poissons Ratio (y) = 0.13323 0.11314
# Poissons Ratio (z) = 0.29117 0.19037
#
# Static dielectric constant tensor:
#      x y z
#    x 2.100390 0.000000 0.000000 
#    y 0.000000 2.039880 0.000000 
#    z 0.000000 0.000000 2.024630 
# 
# From -- ./inp_files/368.got.cif
#   From: 2010.05.17/outbox.cif.g08.bks.cpg/sg62_1_cif.got.tgz:368.got - 2010.06.03 15:25:27.
