data_PCOD9467726
_publ_section_title
;
Structure prediction by ZEFSAII (Michael W. Deem and Ramdas Pophale) SiO2 
 PCOD9467726
Probable space group: P N M A
;
_chemical_formula_sum "Si O2"
_cell_formula_units_Z 56
_cell_length_a 7.968313
_cell_length_b 19.167413
_cell_length_c 14.215475
_cell_angle_alpha 90.000000
_cell_angle_beta 90.000000
_cell_angle_gamma 90.000000
_cell_volume 2171.157163
_symmetry_space_group_name_H-M "P N M A"
_symmetry_group_IT_number 62
_symmetry_cell_setting 'orthorhombic'
loop_
_space_group_symop_operation_xyz
x,y,z
1/2-x,-y,1/2+z
1/2+x,1/2-y,1/2-z
-x,1/2+y,-z
-x,-y,-z
1/2+x,y,1/2-z
1/2-x,1/2+y,1/2+z
x,1/2-y,z
loop_
_atom_site_type_symbol
_atom_site_label
_atom_site_fract_x
_atom_site_fract_y
_atom_site_fract_z
Si Si1 0.288430 0.569225 0.062664
Si Si2 0.372929 0.897717 0.777635
Si Si3 0.524859 0.250000 0.392386
Si Si4 0.229396 0.330833 0.899888
Si Si5 0.775573 0.250000 0.261349
Si Si6 0.399854 0.089186 0.060672
Si Si7 0.581773 0.168416 0.787548
Si Si8 0.928426 0.092426 0.097232
O O1 0.426143 0.606010 0.994402
O O2 0.301022 0.614131 0.156707
O O3 0.362956 0.492292 0.071249
O O4 0.114994 0.564273 0.006084
O O5 0.293863 0.821930 0.777809
O O6 0.420712 0.921672 0.671854
O O7 0.233224 0.936649 0.840945
O O8 0.548244 0.890127 0.834134
O O9 0.725043 0.250000 0.371286
O O10 0.451193 0.323714 0.425900
O O11 0.458787 0.250000 0.283484
O O12 0.200784 0.250000 0.927606
O O13 0.261808 0.376749 0.992361
O O14 0.088311 0.349320 0.823202
O O15 0.399647 0.335143 0.836592
O O16 0.637358 0.250000 0.796022
#
# Coordination Sequence:
#
# PCOD9467726 Si02
#       8
#     8   8   4   8   4   8   8   8
#     4   9  18  31  48  72  99 128 163 201 243 293
#     4   9  17  29  46  67  93 122 153 187 228 278
#     4   8  14  24  40  62  85 110 142 178 215 260
#     4   9  18  33  54  76  98 128 168 212 254 294
#     4   8  14  24  40  62  85 110 142 178 215 260
#     4   9  18  31  48  72  99 128 163 201 243 293
#     4   9  18  33  54  76  98 128 168 212 254 294
#     4   9  17  29  46  67  93 122 153 187 228 278
#
# _framework density 25.792697
#
# number of rings (size 3 to 8) (size 9 to 14) (size 15 to 20)
#    0.000    3.143    0.000    0.000    2.000    1.143 
#    0.000    1.429    0.000    1.714    0.000    0.000 
#    0.000    0.000    0.000    0.000    0.000    0.000 
#
# Total GULP energy -312202.683000 kJ/mol
# GULP energy per Si atom -5575.047911 kJ/mol
# Density = 2.573399 g / cm^3
# Si number density = 25.792697 Si / 1000 Ang^3
#
#
#
# Elastic Constant Matrix: (Units=GPa)
#
#
# Indices 1 2 3 4 5 6 
#
# 1 69.1824 10.1492 -2.5063 0.0000 0.0000 0.0000
# 2 10.1492 31.7449 28.6698 0.0000 0.0000 0.0000
# 3 -2.5063 28.6698 114.1533 0.0000 0.0000 0.0000
# 4 0.0000 0.0000 0.0000 10.5012 0.0000 0.0000
# 5 0.0000 0.0000 0.0000 0.0000 47.2015 0.0000
# 6 0.0000 0.0000 0.0000 0.0000 0.0000 25.7970
#
#
#
# Elastic Compliance Matrix: (Units=1/GPa)
#
#
# Indices 1 2 3 4 5 6 
#
# 1 0.015529 -0.006820 0.002054 0.000000 0.000000 0.000000
# 2 -0.006820 0.043737 -0.011134 0.000000 0.000000 0.000000
# 3 0.002054 -0.011134 0.011602 0.000000 0.000000 0.000000
# 4 0.000000 0.000000 0.000000 0.095227 0.000000 0.000000
# 5 0.000000 0.000000 0.000000 0.000000 0.021186 0.000000
# 6 0.000000 0.000000 0.000000 0.000000 0.000000 0.038764
#
#
# Mechanical properties :
#
#
# Convention : Reuss Voigt Hill
#
# Bulk Modulus (GPa) = 25.59666 31.96733 28.78200
# Shear Modulus (GPa) = 18.45911 28.61779 23.53845
#
# Velocity S-wave (km/s) = 2.67811 3.33458 3.02421
# Velocity P-wave (km/s) = 4.41685 5.21984 4.83504
#
# Compressibility (1/GPa) = 0.03906759
#
# Stress axis : x y z
#
# Youngs Moduli (GPa) = 64.39392 22.86376 86.19453
#
# Poissons Ratio (x) = 0.15592 -0.17702
# Poissons Ratio (y) = 0.43915 0.95973
# Poissons Ratio (z) = -0.13225 0.25457
#
# Static dielectric constant tensor:
#      x y z
#    x 2.209320 0.000000 0.000000 
#    y 0.000000 2.032400 0.000000 
#    z 0.000000 0.000000 2.093660 
# 
# From -- ./inp_files/17243.got.cif
#   From: 2010.05.17/outbox.cif.g08.bks.cpg/sg62_9_cif.got.tgz:17243.got - 2010.06.03 15:25:27.
