data_PCOD9467203
_publ_section_title
;
Structure prediction by ZEFSAII (Michael W. Deem and Ramdas Pophale) SiO2 
 PCOD9467203
Probable space group: P N M A
;
_chemical_formula_sum "Si O2"
_cell_formula_units_Z 48
_cell_length_a 16.550185
_cell_length_b 25.247775
_cell_length_c 5.631153
_cell_angle_alpha 90.000000
_cell_angle_beta 90.000000
_cell_angle_gamma 90.000000
_cell_volume 2353.007391
_symmetry_space_group_name_H-M "P N M A"
_symmetry_group_IT_number 62
_symmetry_cell_setting 'orthorhombic'
loop_
_space_group_symop_operation_xyz
x,y,z
1/2-x,-y,1/2+z
1/2+x,1/2-y,1/2-z
-x,1/2+y,-z
-x,-y,-z
1/2+x,y,1/2-z
1/2-x,1/2+y,1/2+z
x,1/2-y,z
loop_
_atom_site_type_symbol
_atom_site_label
_atom_site_fract_x
_atom_site_fract_y
_atom_site_fract_z
Si Si1 0.092726 0.161493 0.605968
Si Si2 0.340381 0.250000 0.785967
Si Si3 0.799292 0.061468 0.356579
Si Si4 0.550011 0.750000 0.594920
Si Si5 0.797347 0.937768 0.356353
Si Si6 0.618089 0.250000 0.510267
Si Si7 0.796840 0.750000 0.608869
Si Si8 0.091820 0.659228 0.572138
O O1 0.129893 0.103703 0.635978
O O2 0.103094 0.197266 0.840506
O O3 0.152386 0.196249 0.438315
O O4 0.999376 0.157620 0.529374
O O5 0.432685 0.250000 0.680539
O O6 0.277221 0.250000 0.570388
O O7 0.345091 0.306755 0.913802
O O8 0.748897 0.070203 0.603117
O O9 0.873263 0.102048 0.372240
O O10 0.822525 0.999472 0.358824
O O11 0.753424 0.070722 0.103134
O O12 0.457465 0.750000 0.666546
O O13 0.587348 0.803187 0.698224
O O14 0.706550 0.250000 0.394291
#
# Coordination Sequence:
#
# PCOD9467203 Si02
#       8
#     8   4   8   4   8   4   4   8
#     4  11  23  39  64  94 131 170 216 268 330 388
#     4  11  23  39  58  92 129 166 214 259 322 391
#     4  10  24  45  67  94 132 169 223 276 334 385
#     4  11  21  38  62  88 133 171 204 264 329 385
#     4  10  24  45  67  95 129 173 219 281 328 390
#     4  11  21  40  61  92 137 169 207 269 328 392
#     4  11  23  37  59  94 125 170 213 258 319 390
#     4  11  23  39  64  94 129 175 212 273 328 394
#
# _framework density 20.399426999999999
#
# number of rings (size 3 to 8) (size 9 to 14) (size 15 to 20)
#    0.000    1.333    3.333    2.000    7.000    3.333 
#    0.000    0.000    0.000    7.000    0.000    0.000 
#    0.000    0.000    0.000    0.000    0.000    0.000 
#
# Total GULP energy -267434.626268 kJ/mol
# GULP energy per Si atom -5571.554714 kJ/mol
# Density = 2.035300 g / cm^3
# Si number density = 20.399427 Si / 1000 Ang^3
#
#
#
# Elastic Constant Matrix: (Units=GPa)
#
#
# Indices 1 2 3 4 5 6 
#
# 1 95.4481 77.6394 27.4889 0.0000 0.0000 0.0000
# 2 77.6394 143.0379 36.7466 0.0000 0.0000 0.0000
# 3 27.4889 36.7466 78.3980 0.0000 0.0000 0.0000
# 4 0.0000 0.0000 0.0000 -7.5530 0.0000 0.0000
# 5 0.0000 0.0000 0.0000 0.0000 27.8007 0.0000
# 6 0.0000 0.0000 0.0000 0.0000 0.0000 146.6190
#
#
#
# Elastic Compliance Matrix: (Units=1/GPa)
#
#
# Indices 1 2 3 4 5 6 
#
# 1 0.019054 -0.009807 -0.002084 0.000000 0.000000 0.000000
# 2 -0.009807 0.012996 -0.002653 0.000000 0.000000 0.000000
# 3 -0.002084 -0.002653 0.014730 0.000000 0.000000 0.000000
# 4 0.000000 0.000000 0.000000 -0.132399 0.000000 0.000000
# 5 0.000000 0.000000 0.000000 0.000000 0.035970 0.000000
# 6 0.000000 0.000000 0.000000 0.000000 0.000000 0.006820
#
#
# Mechanical properties :
#
#
# Convention : Reuss Voigt Hill
#
# Bulk Modulus (GPa) = 56.52386 66.73709 61.63048
# Shear Modulus (GPa) = -637.56047 45.04060 -296.25993
#
# Velocity S-wave (km/s) = -17.69794 4.70396 -12.06420
# Velocity P-wave (km/s) = 19.74472 7.89235 12.79775
#
# Compressibility (1/GPa) = 0.01769164
#
# Stress axis : x y z
#
# Youngs Moduli (GPa) = 52.48116 76.94789 67.89031
#
# Poissons Ratio (x) = 0.75463 0.14151
# Poissons Ratio (y) = 0.51469 0.18009
# Poissons Ratio (z) = 0.10939 0.20412
#
# Static dielectric constant tensor:
#      x y z
#    x 1.755840 0.000000 0.000000 
#    y 0.000000 1.702390 0.000000 
#    z 0.000000 0.000000 1.905030 
# 
# From -- ./inp_files/1751.got.cif
#   From: 2010.05.17/outbox.cif.g08.bks.cpg/sg62_1_cif.got.tgz:1751.got - 2010.06.03 15:25:27.
