data_PCOD9467195
_publ_section_title
;
Structure prediction by ZEFSAII (Michael W. Deem and Ramdas Pophale) SiO2 
 PCOD9467195
Probable space group: P N M A
;
_chemical_formula_sum "Si O2"
_cell_formula_units_Z 36
_cell_length_a 9.490266
_cell_length_b 19.700019
_cell_length_c 8.685201
_cell_angle_alpha 90.000000
_cell_angle_beta 90.000000
_cell_angle_gamma 90.000000
_cell_volume 1623.771461
_symmetry_space_group_name_H-M "P N M A"
_symmetry_group_IT_number 62
_symmetry_cell_setting 'orthorhombic'
loop_
_space_group_symop_operation_xyz
x,y,z
1/2-x,-y,1/2+z
1/2+x,1/2-y,1/2-z
-x,1/2+y,-z
-x,-y,-z
1/2+x,y,1/2-z
1/2-x,1/2+y,1/2+z
x,1/2-y,z
loop_
_atom_site_type_symbol
_atom_site_label
_atom_site_fract_x
_atom_site_fract_y
_atom_site_fract_z
Si Si1 0.198172 0.174948 0.628833
Si Si2 0.091251 0.593572 0.344561
Si Si3 0.723834 0.750000 0.679941
Si Si4 0.260494 0.111409 0.166676
Si Si5 0.987724 0.035028 0.165374
O O1 0.190302 0.250000 0.706142
O O2 0.310308 0.128260 0.715603
O O3 0.244969 0.191876 0.454894
O O4 0.046866 0.139673 0.631174
O O5 0.179478 0.589824 0.500838
O O6 0.038916 0.520803 0.287126
O O7 0.702262 0.689332 0.805255
O O8 0.093804 0.098727 0.170284
O O9 0.335323 0.061709 0.288503
O O10 0.000000 0.000000 0.000000
#
# Coordination Sequence:
#
# PCOD9467195 Si02
#       5
#     8   8   4   8   8
#     4  10  24  44  70 100 137 177 228 281 351 410
#     4  12  24  46  73 103 137 185 235 291 347 418
#     4  10  26  42  68  96 142 172 232 272 356 410
#     4  12  26  45  71 102 140 187 229 295 345 425
#     4  12  26  46  71 103 141 182 240 287 360 413
#
# _framework density 22.170608000000001
#
# number of rings (size 3 to 8) (size 9 to 14) (size 15 to 20)
#    0.667    0.000    0.000    8.000    3.111    0.889 
#    0.000    0.000    0.000    0.000    0.000    0.000 
#    0.000    0.000    0.000    0.000    0.000    0.000 
#
# Total GULP energy -200508.140344 kJ/mol
# GULP energy per Si atom -5569.670565 kJ/mol
# Density = 2.212015 g / cm^3
# Si number density = 22.170608 Si / 1000 Ang^3
#
#
#
# Elastic Constant Matrix: (Units=GPa)
#
#
# Indices 1 2 3 4 5 6 
#
# 1 51.3249 -5.1461 -0.5853 0.0000 0.0000 0.0000
# 2 -5.1461 84.8881 8.2858 0.0000 0.0000 0.0000
# 3 -0.5853 8.2858 77.0417 0.0000 0.0000 0.0000
# 4 0.0000 0.0000 0.0000 41.7499 0.0000 0.0000
# 5 0.0000 0.0000 0.0000 0.0000 19.5242 0.0000
# 6 0.0000 0.0000 0.0000 0.0000 0.0000 7.2874
#
#
#
# Elastic Compliance Matrix: (Units=1/GPa)
#
#
# Indices 1 2 3 4 5 6 
#
# 1 0.019603 0.001186 0.000021 0.000000 0.000000 0.000000
# 2 0.001186 0.011977 -0.001279 0.000000 0.000000 0.000000
# 3 0.000021 -0.001279 0.013118 0.000000 0.000000 0.000000
# 4 0.000000 0.000000 0.000000 0.023952 0.000000 0.000000
# 5 0.000000 0.000000 0.000000 0.000000 0.051219 0.000000
# 6 0.000000 0.000000 0.000000 0.000000 0.000000 0.137224
#
#
# Mechanical properties :
#
#
# Convention : Reuss Voigt Hill
#
# Bulk Modulus (GPa) = 22.44435 24.26262 23.35348
# Shear Modulus (GPa) = 18.37650 27.75898 23.06774
#
# Velocity S-wave (km/s) = 2.88213 3.54229 3.22912
# Velocity P-wave (km/s) = 4.60663 5.26287 4.94564
#
# Compressibility (1/GPa) = 0.04455464
#
# Stress axis : x y z
#
# Youngs Moduli (GPa) = 51.01284 83.49348 76.23283
#
# Poissons Ratio (x) = -0.09905 -0.00163
# Poissons Ratio (y) = -0.06052 0.09751
# Poissons Ratio (z) = -0.00109 0.10680
#
# Static dielectric constant tensor:
#      x y z
#    x 1.781980 0.000000 0.000000 
#    y 0.000000 1.794970 0.000000 
#    z 0.000000 0.000000 1.828270 
# 
# From -- ./inp_files/4190.got.cif
#   From: 2010.05.17/outbox.cif.g08.bks.cpg/sg62_3_cif.got.tgz:4190.got - 2010.06.03 15:25:27.
