data_PCOD9467356
_publ_section_title
;
Structure prediction by ZEFSAII (Michael W. Deem and Ramdas Pophale) SiO2 
 PCOD9467356
Probable space group: P N M A
;
_chemical_formula_sum "Si O2"
_cell_formula_units_Z 48
_cell_length_a 10.396412
_cell_length_b 8.609422
_cell_length_c 30.373721
_cell_angle_alpha 90.000000
_cell_angle_beta 90.000000
_cell_angle_gamma 90.000000
_cell_volume 2718.663628
_symmetry_space_group_name_H-M "P N M A"
_symmetry_group_IT_number 62
_symmetry_cell_setting 'orthorhombic'
loop_
_space_group_symop_operation_xyz
x,y,z
1/2-x,-y,1/2+z
1/2+x,1/2-y,1/2-z
-x,1/2+y,-z
-x,-y,-z
1/2+x,y,1/2-z
1/2-x,1/2+y,1/2+z
x,1/2-y,z
loop_
_atom_site_type_symbol
_atom_site_label
_atom_site_fract_x
_atom_site_fract_y
_atom_site_fract_z
Si Si1 0.779441 0.936606 0.383488
Si Si2 0.127976 0.436569 0.522125
Si Si3 0.377898 0.563033 0.473223
Si Si4 0.010251 0.562798 0.784750
Si Si5 0.979011 0.563585 0.119904
Si Si6 0.785656 0.437411 0.287977
O O1 0.788075 0.750000 0.379939
O O2 0.855829 0.986842 0.426888
O O3 0.628423 0.975955 0.390071
O O4 0.820198 0.009289 0.337215
O O5 0.128239 0.250000 0.521615
O O6 0.250241 0.497295 0.495163
O O7 0.000000 0.500000 0.500000
O O8 0.500000 0.500000 0.500000
O O9 0.378045 0.750000 0.475100
O O10 0.395134 0.516211 0.422099
O O11 0.008517 0.750000 0.783349
O O12 0.110046 0.507558 0.747666
O O13 0.053493 0.510913 0.833332
O O14 0.861677 0.509326 0.778642
O O15 0.971585 0.750000 0.124198
O O16 0.784429 0.250000 0.286938
#
# Coordination Sequence:
#
# PCOD9467356 Si02
#       6
#     8   8   8   8   8   8
#     4   9  18  35  56  77 106 141 180 221 266 323
#     4  11  23  40  57  81 115 150 187 231 280 333
#     4  11  21  36  59  85 113 146 186 231 274 326
#     4   9  18  33  52  75 104 136 173 219 266 317
#     4   9  18  34  55  80 107 137 178 225 268 318
#     4   9  18  33  53  76 103 135 174 218 266 318
#
# _framework density 17.655733000000001
#
# number of rings (size 3 to 8) (size 9 to 14) (size 15 to 20)
#    0.000    2.333    1.667    1.000    0.000    3.333 
#    3.000    0.000    0.000    0.000    0.000    0.000 
#    0.000    0.000    0.000    0.000    0.000    0.000 
#
# Total GULP energy -267755.943519 kJ/mol
# GULP energy per Si atom -5578.248823 kJ/mol
# Density = 1.761555 g / cm^3
# Si number density = 17.655733 Si / 1000 Ang^3
#
#
#
# Elastic Constant Matrix: (Units=GPa)
#
#
# Indices 1 2 3 4 5 6 
#
# 1 120.3688 27.9450 103.3003 0.0000 0.0000 0.0000
# 2 27.9450 20.7572 33.6686 0.0000 0.0000 0.0000
# 3 103.3003 33.6686 189.0844 0.0000 0.0000 0.0000
# 4 0.0000 0.0000 0.0000 33.5583 0.0000 0.0000
# 5 0.0000 0.0000 0.0000 0.0000 37.2266 0.0000
# 6 0.0000 0.0000 0.0000 0.0000 0.0000 23.6849
#
#
#
# Elastic Compliance Matrix: (Units=1/GPa)
#
#
# Indices 1 2 3 4 5 6 
#
# 1 0.017315 -0.011203 -0.007465 0.000000 0.000000 0.000000
# 2 -0.011203 0.074989 -0.007232 0.000000 0.000000 0.000000
# 3 -0.007465 -0.007232 0.010654 0.000000 0.000000 0.000000
# 4 0.000000 0.000000 0.000000 0.029799 0.000000 0.000000
# 5 0.000000 0.000000 0.000000 0.000000 0.026863 0.000000
# 6 0.000000 0.000000 0.000000 0.000000 0.000000 0.042221
#
#
# Mechanical properties :
#
#
# Convention : Reuss Voigt Hill
#
# Bulk Modulus (GPa) = 19.54695 73.33758 46.44226
# Shear Modulus (GPa) = 18.47109 29.91372 24.19240
#
# Velocity S-wave (km/s) = 3.23798 4.12063 3.70568
# Velocity P-wave (km/s) = 5.00745 8.01668 6.68363
#
# Compressibility (1/GPa) = 0.05115889
#
# Stress axis : x y z
#
# Youngs Moduli (GPa) = 57.75413 13.33527 93.85717
#
# Poissons Ratio (x) = 0.14939 0.70061
# Poissons Ratio (y) = 0.64701 0.67881
# Poissons Ratio (z) = 0.43111 0.09644
#
# Static dielectric constant tensor:
#      x y z
#    x 1.585930 0.000000 0.000000 
#    y 0.000000 1.598630 0.000000 
#    z 0.000000 0.000000 1.593650 
# 
# From -- ./inp_files/31946.got.cif
#   From: 2010.05.17/outbox.cif.g08.bks.cpg/sg62_16_cif.got.tgz:31946.got - 2010.06.03 15:25:27.
