data_PCOD9467053
_publ_section_title
;
Structure prediction by ZEFSAII (Michael W. Deem and Ramdas Pophale) SiO2 
 PCOD9467053
Probable space group: P N M A
;
_chemical_formula_sum "Si O2"
_cell_formula_units_Z 48
_cell_length_a 22.368918
_cell_length_b 17.784301
_cell_length_c 5.505047
_cell_angle_alpha 90.000000
_cell_angle_beta 90.000000
_cell_angle_gamma 90.000000
_cell_volume 2189.993414
_symmetry_space_group_name_H-M "P N M A"
_symmetry_group_IT_number 62
_symmetry_cell_setting 'orthorhombic'
loop_
_space_group_symop_operation_xyz
x,y,z
1/2-x,-y,1/2+z
1/2+x,1/2-y,1/2-z
-x,1/2+y,-z
-x,-y,-z
1/2+x,y,1/2-z
1/2-x,1/2+y,1/2+z
x,1/2-y,z
loop_
_atom_site_type_symbol
_atom_site_label
_atom_site_fract_x
_atom_site_fract_y
_atom_site_fract_z
Si Si1 0.662545 0.064758 0.189598
Si Si2 0.744017 0.330487 0.442489
Si Si3 0.355394 0.110643 0.779292
Si Si4 0.864834 0.668961 0.299311
Si Si5 0.947334 0.838335 0.904525
Si Si6 0.918098 0.159672 0.223600
O O1 0.726202 0.100462 0.270723
O O2 0.603117 0.107944 0.291085
O O3 0.657923 0.977744 0.238706
O O4 0.655750 0.091531 0.914933
O O5 0.757718 0.250000 0.319036
O O6 0.795092 0.347706 0.635773
O O7 0.681971 0.322280 0.583143
O O8 0.380365 0.137632 0.518483
O O9 0.397149 0.125281 0.018170
O O10 0.859800 0.750000 0.434958
O O11 0.931128 0.661356 0.191192
O O12 0.941458 0.750000 0.836109
O O13 0.013565 0.862328 0.835819
O O14 0.915018 0.250000 0.248546
#
# Coordination Sequence:
#
# PCOD9467053 Si02
#       6
#     8   8   8   8   8   8
#     4  11  24  39  69 100 139 173 228 293 357 391
#     4  10  23  43  66  95 132 182 234 281 336 414
#     4  12  29  43  71 104 143 182 225 285 354 418
#     4   9  19  38  66  96 127 174 232 288 339 397
#     4   9  21  42  70  97 133 182 239 285 336 409
#     4  11  26  49  70  98 137 189 235 277 337 423
#
# _framework density 21.917876
#
# number of rings (size 3 to 8) (size 9 to 14) (size 15 to 20)
#    0.000    1.667    0.000    4.000   11.667    1.333 
#    0.000    0.000    0.000    0.000    0.000    0.000 
#    0.000    0.000    0.000    0.000    0.000    0.000 
#
# Total GULP energy -267394.605795 kJ/mol
# GULP energy per Si atom -5570.720954 kJ/mol
# Density = 2.186799 g / cm^3
# Si number density = 21.917876 Si / 1000 Ang^3
#
#
#
# Elastic Constant Matrix: (Units=GPa)
#
#
# Indices 1 2 3 4 5 6 
#
# 1 76.9969 0.6818 2.2063 0.0000 0.0000 0.0000
# 2 0.6818 86.9301 -8.1734 0.0000 0.0000 0.0000
# 3 2.2063 -8.1734 41.5965 0.0000 0.0000 0.0000
# 4 0.0000 0.0000 0.0000 33.5978 0.0000 0.0000
# 5 0.0000 0.0000 0.0000 0.0000 30.7100 0.0000
# 6 0.0000 0.0000 0.0000 0.0000 0.0000 11.9679
#
#
#
# Elastic Compliance Matrix: (Units=1/GPa)
#
#
# Indices 1 2 3 4 5 6 
#
# 1 0.013010 -0.000170 -0.000723 0.000000 0.000000 0.000000
# 2 -0.000170 0.011722 0.002312 0.000000 0.000000 0.000000
# 3 -0.000723 0.002312 0.024533 0.000000 0.000000 0.000000
# 4 0.000000 0.000000 0.000000 0.029764 0.000000 0.000000
# 5 0.000000 0.000000 0.000000 0.000000 0.032563 0.000000
# 6 0.000000 0.000000 0.000000 0.000000 0.000000 0.083557
#
#
# Mechanical properties :
#
#
# Convention : Reuss Voigt Hill
#
# Bulk Modulus (GPa) = 19.19279 21.66143 20.42711
# Shear Modulus (GPa) = 23.84601 29.30906 26.57753
#
# Velocity S-wave (km/s) = 3.30202 3.66077 3.48601
# Velocity P-wave (km/s) = 4.82840 5.26999 5.05402
#
# Compressibility (1/GPa) = 0.05210289
#
# Stress axis : x y z
#
# Youngs Moduli (GPa) = 76.86528 85.30796 40.76107
#
# Poissons Ratio (x) = 0.01451 0.02949
# Poissons Ratio (y) = 0.01307 -0.09425
# Poissons Ratio (z) = 0.05561 -0.19726
#
# Static dielectric constant tensor:
#      x y z
#    x 1.793930 0.000000 0.000000 
#    y 0.000000 2.116370 0.000000 
#    z 0.000000 0.000000 1.975630 
# 
# From -- ./inp_files/2739.got.cif
#   From: 2010.05.17/outbox.cif.g08.bks.cpg/sg62_2_cif.got.tgz:2739.got - 2010.06.03 15:25:27.
