data_PCOD9467158
_publ_section_title
;
Structure prediction by ZEFSAII (Michael W. Deem and Ramdas Pophale) SiO2 
 PCOD9467158
Probable space group: P N M A
;
_chemical_formula_sum "Si O2"
_cell_formula_units_Z 24
_cell_length_a 8.584979
_cell_length_b 13.330307
_cell_length_c 7.686963
_cell_angle_alpha 90.000000
_cell_angle_beta 90.000000
_cell_angle_gamma 90.000000
_cell_volume 879.699164
_symmetry_space_group_name_H-M "P N M A"
_symmetry_group_IT_number 62
_symmetry_cell_setting 'orthorhombic'
loop_
_space_group_symop_operation_xyz
x,y,z
1/2-x,-y,1/2+z
1/2+x,1/2-y,1/2-z
-x,1/2+y,-z
-x,-y,-z
1/2+x,y,1/2-z
1/2-x,1/2+y,1/2+z
x,1/2-y,z
loop_
_atom_site_type_symbol
_atom_site_label
_atom_site_fract_x
_atom_site_fract_y
_atom_site_fract_z
Si Si1 0.412256 0.138876 0.869388
Si Si2 0.172790 0.092562 0.345270
Si Si3 0.502725 0.117903 0.490630
O O1 0.337461 0.250000 0.889296
O O2 0.509079 0.148474 0.689768
O O3 0.321541 0.031233 0.846485
O O4 0.530663 0.120568 0.027939
O O5 0.331478 0.139648 0.414623
O O6 0.132580 0.135404 0.155030
O O7 0.500000 0.000000 0.500000
#
# Coordination Sequence:
#
# PCOD9467158 Si02
#       3
#     8   8   8
#     4  10  24  43  70 101 135 180 232 277 340 414
#     4  10  24  45  70  98 140 180 226 288 345 401
#     4  10  24  42  70  98 133 183 225 278 346 405
#
# _framework density 27.282053999999999
#
# number of rings (size 3 to 8) (size 9 to 14) (size 15 to 20)
#    0.000    2.000    0.000    0.000   28.000    2.667 
#    0.000    0.000    0.000    0.000    0.000    0.000 
#    0.000    0.000    0.000    0.000    0.000    0.000 
#
# Total GULP energy -134209.546154 kJ/mol
# GULP energy per Si atom -5592.064423 kJ/mol
# Density = 2.721996 g / cm^3
# Si number density = 27.282054 Si / 1000 Ang^3
#
#
#
# Elastic Constant Matrix: (Units=GPa)
#
#
# Indices 1 2 3 4 5 6 
#
# 1 73.2188 15.5718 2.1872 0.0000 0.0000 0.0000
# 2 15.5718 251.4280 28.7958 0.0000 0.0000 0.0000
# 3 2.1872 28.7958 168.3092 0.0000 0.0000 0.0000
# 4 0.0000 0.0000 0.0000 -115.3171 0.0000 0.0000
# 5 0.0000 0.0000 0.0000 0.0000 23.4232 0.0000
# 6 0.0000 0.0000 0.0000 0.0000 0.0000 0.1976
#
#
#
# Elastic Compliance Matrix: (Units=1/GPa)
#
#
# Indices 1 2 3 4 5 6 
#
# 1 0.013840 -0.000853 -0.000034 0.000000 0.000000 0.000000
# 2 -0.000853 0.004109 -0.000692 0.000000 0.000000 0.000000
# 3 -0.000034 -0.000692 0.006060 0.000000 0.000000 0.000000
# 4 0.000000 0.000000 0.000000 -0.008672 0.000000 0.000000
# 5 0.000000 0.000000 0.000000 0.000000 0.042693 0.000000
# 6 0.000000 0.000000 0.000000 0.000000 0.000000 5.060623
#
#
# Mechanical properties :
#
#
# Convention : Reuss Voigt Hill
#
# Bulk Modulus (GPa) = 47.95802 65.11838 56.53820
# Shear Modulus (GPa) = 0.97489 11.42083 6.19786
#
# Velocity S-wave (km/s) = 0.59843 2.04824 1.50888
# Velocity P-wave (km/s) = 4.25373 5.43269 4.87895
#
# Compressibility (1/GPa) = 0.02085157
#
# Stress axis : x y z
#
# Youngs Moduli (GPa) = 72.25335 243.34563 165.00896
#
# Poissons Ratio (x) = 0.20764 0.00559
# Poissons Ratio (y) = 0.06165 0.11418
# Poissons Ratio (z) = 0.00245 0.16839
#
# Static dielectric constant tensor:
#      x y z
#    x 2.123590 0.000000 0.000000 
#    y 0.000000 2.005540 0.000000 
#    z 0.000000 0.000000 2.071090 
# 
# From -- ./inp_files/3989.got.cif
#   From: 2010.05.17/outbox.cif.g08.bks.cpg/sg62_2_cif.got.tgz:3989.got - 2010.06.03 15:25:27.
