data_PCOD9467837
_publ_section_title
;
Structure prediction by ZEFSAII (Michael W. Deem and Ramdas Pophale) SiO2 
 PCOD9467837
Probable space group: P N M A
;
_chemical_formula_sum "Si O2"
_cell_formula_units_Z 64
_cell_length_a 18.000000
_cell_length_b 9.000000
_cell_length_c 21.000000
_cell_angle_alpha 90.000000
_cell_angle_beta 90.000000
_cell_angle_gamma 90.000000
_cell_volume 3402.000000
_symmetry_space_group_name_H-M "P N M A"
_symmetry_group_IT_number 62
_symmetry_cell_setting 'orthorhombic'
loop_
_space_group_symop_operation_xyz
x,y,z
1/2-x,-y,1/2+z
1/2+x,1/2-y,1/2-z
-x,1/2+y,-z
-x,-y,-z
1/2+x,y,1/2-z
1/2-x,1/2+y,1/2+z
x,1/2-y,z
loop_
_atom_site_type_symbol
_atom_site_label
_atom_site_fract_x
_atom_site_fract_y
_atom_site_fract_z
Si Si1 0.853795 0.069665 0.679246
Si Si2 0.822415 0.074798 0.532883
Si Si3 0.475840 0.928842 0.209233
Si Si4 0.145777 0.075610 0.957212
Si Si5 0.933174 0.425118 0.157912
Si Si6 0.284712 0.070464 0.688053
Si Si7 0.358889 0.570814 0.102753
Si Si8 0.594496 0.073200 0.404768
O O1 0.848076 0.250000 0.676624
O O2 0.842269 0.020117 0.605303
O O3 0.798863 0.022142 0.737833
O O4 0.937394 0.030563 0.701663
O O5 0.842569 0.250000 0.530105
O O6 0.733210 0.062056 0.529004
O O7 0.853808 0.997918 0.468397
O O8 0.471413 0.750000 0.216102
O O9 0.431605 0.968430 0.144524
O O10 0.440230 0.999773 0.272700
O O11 0.127812 0.250000 0.948379
O O12 0.125240 0.993628 0.891881
O O13 0.104602 0.022095 0.021835
O O14 0.920153 0.250000 0.165990
O O15 0.011888 0.446710 0.121748
O O16 0.286569 0.250000 0.688954
O O17 0.209698 0.026949 0.649882
O O18 0.350641 0.009704 0.643534
O O19 0.356394 0.750000 0.095726
O O20 0.612069 0.250000 0.404160
#
# Coordination Sequence:
#
# PCOD9467837 Si02
#       8
#     8   8   8   8   8   8   8   8
#     4   9  19  36  59  85 109 145 193 232 275 332
#     4  10  21  38  61  84 112 149 192 236 278 333
#     4  10  21  39  60  81 111 151 192 231 279 340
#     4  10  21  36  56  81 114 155 189 223 277 343
#     4  11  23  36  54  84 118 146 185 237 281 331
#     4  10  19  34  58  83 109 144 186 231 277 329
#     4  10  22  37  58  86 115 147 188 235 281 332
#     4  10  20  36  56  82 114 148 185 225 279 338
#
# _framework density 18.812463000000001
#
# number of rings (size 3 to 8) (size 9 to 14) (size 15 to 20)
#    0.000    2.000    2.500    0.750    1.750    2.500 
#    0.000    1.250    0.000    0.000    0.000    0.000 
#    0.000    0.000    0.000    0.000    0.000    0.000 
#
# Total GULP energy -356992.503542 kJ/mol
# GULP energy per Si atom -5578.007868 kJ/mol
# Density = 1.876965 g / cm^3
# Si number density = 18.812463 Si / 1000 Ang^3
#
#
#
# Elastic Constant Matrix: (Units=GPa)
#
#
# Indices 1 2 3 4 5 6 
#
# 1 23.8211 7.8110 18.9902 0.0000 0.0000 0.0000
# 2 7.8110 21.4114 27.3123 0.0000 0.0000 0.0000
# 3 18.9902 27.3123 181.8221 0.0000 0.0000 0.0000
# 4 0.0000 0.0000 0.0000 41.7122 0.0000 0.0000
# 5 0.0000 0.0000 0.0000 0.0000 41.4329 0.0000
# 6 0.0000 0.0000 0.0000 0.0000 0.0000 16.7614
#
#
#
# Elastic Compliance Matrix: (Units=1/GPa)
#
#
# Indices 1 2 3 4 5 6 
#
# 1 0.048978 -0.014031 -0.003008 0.000000 0.000000 0.000000
# 2 -0.014031 0.061794 -0.007817 0.000000 0.000000 0.000000
# 3 -0.003008 -0.007817 0.006988 0.000000 0.000000 0.000000
# 4 0.000000 0.000000 0.000000 0.023974 0.000000 0.000000
# 5 0.000000 0.000000 0.000000 0.000000 0.024135 0.000000
# 6 0.000000 0.000000 0.000000 0.000000 0.000000 0.059661
#
#
# Mechanical properties :
#
#
# Convention : Reuss Voigt Hill
#
# Bulk Modulus (GPa) = 14.69521 37.25350 25.97436
# Shear Modulus (GPa) = 16.78279 31.51071 24.14675
#
# Velocity S-wave (km/s) = 2.99006 4.09711 3.58655
# Velocity P-wave (km/s) = 4.44399 6.49825 5.56670
#
# Compressibility (1/GPa) = 0.06804939
#
# Stress axis : x y z
#
# Youngs Moduli (GPa) = 20.41724 16.18287 143.09735
#
# Poissons Ratio (x) = 0.22706 0.43042
# Poissons Ratio (y) = 0.28647 1.11858
# Poissons Ratio (z) = 0.06141 0.12650
#
# Static dielectric constant tensor:
#      x y z
#    x 1.677670 0.000000 0.000000 
#    y 0.000000 1.645000 0.000000 
#    z 0.000000 0.000000 1.642560 
# 
# From -- ./inp_files/24736.got.cif
#   From: 2010.05.17/outbox.ucp.g08.bks.cvg/sg62_13_cif.got.tgz:24736.got - 2010.06.11 16:29:25.
