data_PCOD9467664
_publ_section_title
;
Structure prediction by ZEFSAII (Michael W. Deem and Ramdas Pophale) SiO2 
 PCOD9467664
Probable space group: P N M A
;
_chemical_formula_sum "Si O2"
_cell_formula_units_Z 40
_cell_length_a 9.385638
_cell_length_b 15.126936
_cell_length_c 12.371811
_cell_angle_alpha 90.000000
_cell_angle_beta 90.000000
_cell_angle_gamma 90.000000
_cell_volume 1756.499562
_symmetry_space_group_name_H-M "P N M A"
_symmetry_group_IT_number 62
_symmetry_cell_setting 'orthorhombic'
loop_
_space_group_symop_operation_xyz
x,y,z
1/2-x,-y,1/2+z
1/2+x,1/2-y,1/2-z
-x,1/2+y,-z
-x,-y,-z
1/2+x,y,1/2-z
1/2-x,1/2+y,1/2+z
x,1/2-y,z
loop_
_atom_site_type_symbol
_atom_site_label
_atom_site_fract_x
_atom_site_fract_y
_atom_site_fract_z
Si Si1 0.103766 0.418325 0.750121
Si Si2 0.749704 0.349955 0.370257
Si Si3 0.443564 0.587035 0.831311
Si Si4 0.632767 0.847223 0.388973
Si Si5 0.714241 0.511111 0.536527
O O1 0.226732 0.377462 0.676691
O O2 0.172570 0.474906 0.846934
O O3 0.005172 0.488997 0.689796
O O4 0.998445 0.349552 0.806184
O O5 0.710881 0.250000 0.404805
O O6 0.654243 0.378819 0.267377
O O7 0.735564 0.426783 0.459888
O O8 0.916944 0.352935 0.340565
O O9 0.350477 0.574091 0.939172
O O10 0.650834 0.750000 0.435372
O O11 0.605825 0.921704 0.479109
#
# Coordination Sequence:
#
# PCOD9467664 Si02
#       5
#     8   8   8   8   8
#     4  12  23  49  71  95 144 182 222 282 349 405
#     4  12  27  44  72 106 136 180 232 283 340 409
#     4  12  23  49  71  95 144 182 222 282 349 405
#     4  12  27  44  72 106 136 180 232 283 340 409
#     4  12  24  46  74  98 138 184 228 284 340 412
#
# _framework density 22.772562000000001
#
# number of rings (size 3 to 8) (size 9 to 14) (size 15 to 20)
#    0.000    0.000    8.000    2.400    0.000    3.200 
#    0.000    0.000    0.000    0.000    0.000    0.000 
#    0.000    0.000    0.000    0.000    0.000    0.000 
#
# Total GULP energy -223842.764586 kJ/mol
# GULP energy per Si atom -5596.069115 kJ/mol
# Density = 2.272073 g / cm^3
# Si number density = 22.772562 Si / 1000 Ang^3
#
#
#
# Elastic Constant Matrix: (Units=GPa)
#
#
# Indices 1 2 3 4 5 6 
#
# 1 89.4321 -0.6283 8.5743 0.0000 0.0000 0.0000
# 2 -0.6283 119.1298 3.9069 0.0000 0.0000 0.0000
# 3 8.5743 3.9069 64.2370 0.0000 0.0000 0.0000
# 4 0.0000 0.0000 0.0000 9.6870 0.0000 0.0000
# 5 0.0000 0.0000 0.0000 0.0000 36.4320 0.0000
# 6 0.0000 0.0000 0.0000 0.0000 0.0000 17.6554
#
#
#
# Elastic Compliance Matrix: (Units=1/GPa)
#
#
# Indices 1 2 3 4 5 6 
#
# 1 0.011328 0.000110 -0.001519 0.000000 0.000000 0.000000
# 2 0.000110 0.008412 -0.000526 0.000000 0.000000 0.000000
# 3 -0.001519 -0.000526 0.015802 0.000000 0.000000 0.000000
# 4 0.000000 0.000000 0.000000 0.103232 0.000000 0.000000
# 5 0.000000 0.000000 0.000000 0.000000 0.027448 0.000000
# 6 0.000000 0.000000 0.000000 0.000000 0.000000 0.056640
#
#
# Mechanical properties :
#
#
# Convention : Reuss Voigt Hill
#
# Bulk Modulus (GPa) = 31.57428 32.94496 32.25962
# Shear Modulus (GPa) = 21.07125 30.15125 25.61125
#
# Velocity S-wave (km/s) = 3.04516 3.64265 3.35722
# Velocity P-wave (km/s) = 5.12437 5.67364 5.40599
#
# Compressibility (1/GPa) = 0.03167134
#
# Stress axis : x y z
#
# Youngs Moduli (GPa) = 88.27645 118.87716 63.28283
#
# Poissons Ratio (x) = -0.01302 0.09611
# Poissons Ratio (y) = -0.00967 0.03330
# Poissons Ratio (z) = 0.13407 0.06256
#
# Static dielectric constant tensor:
#      x y z
#    x 1.923270 0.000000 0.000000 
#    y 0.000000 1.828870 0.000000 
#    z 0.000000 0.000000 1.868070 
# 
# From -- ./inp_files/11056.got.cif
#   From: 2010.05.17/outbox.cif.g08.bks.cpg/sg62_6_cif.got.tgz:11056.got - 2010.06.03 15:25:27.
