data_PCOD9467071
_publ_section_title
;
Structure prediction by ZEFSAII (Michael W. Deem and Ramdas Pophale) SiO2 
 PCOD9467071
Probable space group: P N M A
;
_chemical_formula_sum "Si O2"
_cell_formula_units_Z 56
_cell_length_a 14.029602
_cell_length_b 29.807044
_cell_length_c 5.499092
_cell_angle_alpha 90.000000
_cell_angle_beta 90.000000
_cell_angle_gamma 90.000000
_cell_volume 2299.615594
_symmetry_space_group_name_H-M "P N M A"
_symmetry_group_IT_number 62
_symmetry_cell_setting 'orthorhombic'
loop_
_space_group_symop_operation_xyz
x,y,z
1/2-x,-y,1/2+z
1/2+x,1/2-y,1/2-z
-x,1/2+y,-z
-x,-y,-z
1/2+x,y,1/2-z
1/2-x,1/2+y,1/2+z
x,1/2-y,z
loop_
_atom_site_type_symbol
_atom_site_label
_atom_site_fract_x
_atom_site_fract_y
_atom_site_fract_z
Si Si1 0.118788 0.750000 0.526375
Si Si2 0.871183 0.905402 0.077061
Si Si3 0.754693 0.141175 0.945792
Si Si4 0.078915 0.167312 0.265147
Si Si5 0.553311 0.010397 0.753061
Si Si6 0.108010 0.655862 0.427381
Si Si7 0.197227 0.931522 0.688355
Si Si8 0.500645 0.750000 0.486491
O O1 0.165255 0.701063 0.505742
O O2 0.080042 0.750000 0.801178
O O3 0.045589 0.750000 0.285846
O O4 0.929187 0.880355 0.870426
O O5 0.794091 0.938685 0.959543
O O6 0.810348 0.867543 0.211143
O O7 0.930443 0.936192 0.253484
O O8 0.860072 0.154883 0.855726
O O9 0.684946 0.169324 0.119441
O O10 0.770414 0.092848 0.066227
O O11 0.059073 0.206123 0.068575
O O12 0.998371 0.166344 0.476858
O O13 0.500000 0.000000 0.500000
O O14 0.642210 0.976758 0.766507
O O15 0.500000 0.000000 0.000000
O O16 0.139652 0.608714 0.548213
#
# Coordination Sequence:
#
# PCOD9467071 Si02
#       8
#     4   8   8   8   8   8   8   4
#     4  10  24  41  69 107 142 192 241 297 360 425
#     4  10  25  45  70  98 146 188 241 300 366 436
#     4  10  24  43  71 104 137 197 238 302 371 428
#     4  10  23  43  71 104 147 193 247 304 364 438
#     4  12  30  44  72 109 136 185 245 294 367 439
#     4  10  23  43  71 102 146 191 242 299 365 434
#     4  10  25  45  69 100 143 190 239 300 366 432
#     4  10  24  41  69 109 140 192 245 297 362 425
#
# _framework density 24.351896
#
# number of rings (size 3 to 8) (size 9 to 14) (size 15 to 20)
#    0.000    1.714    0.000    0.857   20.000    0.571 
#    0.000    6.429    0.000    0.000    0.000    0.000 
#    0.000    0.000    0.000    0.000    0.000    0.000 
#
# Total GULP energy -312492.540048 kJ/mol
# GULP energy per Si atom -5580.223929 kJ/mol
# Density = 2.429647 g / cm^3
# Si number density = 24.351896 Si / 1000 Ang^3
#
#
#
# Elastic Constant Matrix: (Units=GPa)
#
#
# Indices 1 2 3 4 5 6 
#
# 1 82.7969 40.1097 59.2148 0.0000 0.0000 0.0000
# 2 40.1097 106.4054 33.1164 0.0000 0.0000 0.0000
# 3 59.2148 33.1164 122.4131 0.0000 0.0000 0.0000
# 4 0.0000 0.0000 0.0000 32.8003 0.0000 0.0000
# 5 0.0000 0.0000 0.0000 0.0000 48.5619 0.0000
# 6 0.0000 0.0000 0.0000 0.0000 0.0000 35.2059
#
#
#
# Elastic Compliance Matrix: (Units=1/GPa)
#
#
# Indices 1 2 3 4 5 6 
#
# 1 0.020748 -0.005129 -0.008649 0.000000 0.000000 0.000000
# 2 -0.005129 0.011530 -0.000638 0.000000 0.000000 0.000000
# 3 -0.008649 -0.000638 0.012525 0.000000 0.000000 0.000000
# 4 0.000000 0.000000 0.000000 0.030488 0.000000 0.000000
# 5 0.000000 0.000000 0.000000 0.000000 0.020592 0.000000
# 6 0.000000 0.000000 0.000000 0.000000 0.000000 0.028404
#
#
# Mechanical properties :
#
#
# Convention : Reuss Voigt Hill
#
# Bulk Modulus (GPa) = 62.61264 64.05523 63.33394
# Shear Modulus (GPa) = 31.55701 35.25860 33.40780
#
# Velocity S-wave (km/s) = 3.60373 3.80923 3.70790
# Velocity P-wave (km/s) = 6.56378 6.76077 6.66301
#
# Compressibility (1/GPa) = 0.01597121
#
# Stress axis : x y z
#
# Youngs Moduli (GPa) = 48.19748 86.72969 79.83805
#
# Poissons Ratio (x) = 0.44486 0.69050
# Poissons Ratio (y) = 0.24722 0.05094
# Poissons Ratio (z) = 0.41685 0.05534
#
# Static dielectric constant tensor:
#      x y z
#    x 1.996640 0.000000 0.000000 
#    y 0.000000 1.935680 0.000000 
#    z 0.000000 0.000000 1.933460 
# 
# From -- ./inp_files/1303.got.cif
#   From: 2010.05.17/outbox.cif.g08.bks.cpg/sg62_1_cif.got.tgz:1303.got - 2010.06.03 15:25:27.
