data_PCOD9467060
_publ_section_title
;
Structure prediction by ZEFSAII (Michael W. Deem and Ramdas Pophale) SiO2 
 PCOD9467060
Probable space group: P N M A
;
_chemical_formula_sum "Si O2"
_cell_formula_units_Z 48
_cell_length_a 14.304344
_cell_length_b 26.101788
_cell_length_c 5.493196
_cell_angle_alpha 90.000000
_cell_angle_beta 90.000000
_cell_angle_gamma 90.000000
_cell_volume 2050.988848
_symmetry_space_group_name_H-M "P N M A"
_symmetry_group_IT_number 62
_symmetry_cell_setting 'orthorhombic'
loop_
_space_group_symop_operation_xyz
x,y,z
1/2-x,-y,1/2+z
1/2+x,1/2-y,1/2-z
-x,1/2+y,-z
-x,-y,-z
1/2+x,y,1/2-z
1/2-x,1/2+y,1/2+z
x,1/2-y,z
loop_
_atom_site_type_symbol
_atom_site_label
_atom_site_fract_x
_atom_site_fract_y
_atom_site_fract_z
Si Si1 0.847107 0.190995 0.007674
Si Si2 0.999527 0.359291 0.350819
Si Si3 0.347536 0.599173 0.492432
Si Si4 0.142863 0.898679 0.337240
Si Si5 0.194339 0.993403 0.039026
Si Si6 0.855899 0.693650 0.378720
O O1 0.874067 0.250000 0.987391
O O2 0.915358 0.162060 0.189211
O O3 0.856316 0.159400 0.758996
O O4 0.735185 0.189169 0.053386
O O5 0.085937 0.383165 0.206430
O O6 0.046798 0.311282 0.484138
O O7 0.953646 0.402390 0.521550
O O8 0.234386 0.595499 0.505239
O O9 0.372272 0.539475 0.447885
O O10 0.358308 0.643510 0.290869
O O11 0.152978 0.938222 0.113531
O O12 0.234676 0.010513 0.308580
O O13 0.847086 0.750000 0.258355
#
# Coordination Sequence:
#
# PCOD9467060 Si02
#       6
#     8   8   8   8   8   8
#     4  10  23  43  67  96 137 184 231 285 354 423
#     4  12  23  38  67 105 139 178 230 294 348 431
#     4  10  24  43  69  97 136 184 233 286 355 417
#     4  10  24  43  68  98 138 184 232 290 354 418
#     4  10  24  45  77 101 139 192 238 294 351 421
#     4  10  23  44  67  98 140 183 231 288 352 423
#
# _framework density 23.403345999999999
#
# number of rings (size 3 to 8) (size 9 to 14) (size 15 to 20)
#    0.000    1.667    0.000    2.500   11.667    4.667 
#    0.000    6.667    0.000    0.000    0.000    0.000 
#    0.000    0.000    0.000    0.000    0.000    0.000 
#
# Total GULP energy -267564.293494 kJ/mol
# GULP energy per Si atom -5574.256114 kJ/mol
# Density = 2.335008 g / cm^3
# Si number density = 23.403346 Si / 1000 Ang^3
#
#
#
# Elastic Constant Matrix: (Units=GPa)
#
#
# Indices 1 2 3 4 5 6 
#
# 1 94.8673 37.2005 40.3984 0.0000 0.0000 0.0000
# 2 37.2005 129.5954 32.6171 0.0000 0.0000 0.0000
# 3 40.3984 32.6171 62.6821 0.0000 0.0000 0.0000
# 4 0.0000 0.0000 0.0000 18.6596 0.0000 0.0000
# 5 0.0000 0.0000 0.0000 0.0000 34.5969 0.0000
# 6 0.0000 0.0000 0.0000 0.0000 0.0000 6.2591
#
#
#
# Elastic Compliance Matrix: (Units=1/GPa)
#
#
# Indices 1 2 3 4 5 6 
#
# 1 0.015036 -0.002160 -0.008567 0.000000 0.000000 0.000000
# 2 -0.002160 0.009189 -0.003390 0.000000 0.000000 0.000000
# 3 -0.008567 -0.003390 0.023239 0.000000 0.000000 0.000000
# 4 0.000000 0.000000 0.000000 0.053592 0.000000 0.000000
# 5 0.000000 0.000000 0.000000 0.000000 0.028904 0.000000
# 6 0.000000 0.000000 0.000000 0.000000 0.000000 0.159768
#
#
# Mechanical properties :
#
#
# Convention : Reuss Voigt Hill
#
# Bulk Modulus (GPa) = 51.99855 56.39740 54.19798
# Shear Modulus (GPa) = 15.41442 23.69838 19.55640
#
# Velocity S-wave (km/s) = 2.56919 3.18560 2.89385
# Velocity P-wave (km/s) = 5.57383 6.13849 5.86296
#
# Compressibility (1/GPa) = 0.01923131
#
# Stress axis : x y z
#
# Youngs Moduli (GPa) = 66.50649 108.82001 43.03187
#
# Poissons Ratio (x) = 0.23505 0.36864
# Poissons Ratio (y) = 0.14366 0.14586
# Poissons Ratio (z) = 0.56974 0.36887
#
# Static dielectric constant tensor:
#      x y z
#    x 1.885870 0.000000 0.000000 
#    y 0.000000 1.922140 0.000000 
#    z 0.000000 0.000000 1.948500 
# 
# From -- ./inp_files/1169.got.cif
#   From: 2010.05.17/outbox.cif.g08.bks.cpg/sg62_1_cif.got.tgz:1169.got - 2010.06.03 15:25:27.
