data_PCOD9467714
_publ_section_title
;
Structure prediction by ZEFSAII (Michael W. Deem and Ramdas Pophale) SiO2 
 PCOD9467714
Probable space group: P N M A
;
_chemical_formula_sum "Si O2"
_cell_formula_units_Z 48
_cell_length_a 6.999282
_cell_length_b 9.256329
_cell_length_c 32.684637
_cell_angle_alpha 90.000000
_cell_angle_beta 90.000000
_cell_angle_gamma 90.000000
_cell_volume 2117.561050
_symmetry_space_group_name_H-M "P N M A"
_symmetry_group_IT_number 62
_symmetry_cell_setting 'orthorhombic'
loop_
_space_group_symop_operation_xyz
x,y,z
1/2-x,-y,1/2+z
1/2+x,1/2-y,1/2-z
-x,1/2+y,-z
-x,-y,-z
1/2+x,y,1/2-z
1/2-x,1/2+y,1/2+z
x,1/2-y,z
loop_
_atom_site_type_symbol
_atom_site_label
_atom_site_fract_x
_atom_site_fract_y
_atom_site_fract_z
Si Si1 0.183529 0.584538 0.448790
Si Si2 0.594886 0.080548 0.130627
Si Si3 0.357726 0.920134 0.607763
Si Si4 0.007023 0.916830 0.717163
Si Si5 0.229191 0.584441 0.028387
Si Si6 0.450892 0.916237 0.694807
O O1 0.242676 0.750000 0.444759
O O2 0.198903 0.501423 0.405915
O O3 0.283202 0.507256 0.487024
O O4 0.955987 0.584360 0.459946
O O5 0.644279 0.250000 0.130089
O O6 0.369069 0.073230 0.118917
O O7 0.610649 0.026126 0.177890
O O8 0.401027 0.750000 0.600919
O O9 0.467588 0.973258 0.648643
O O10 0.376284 0.013015 0.566969
O O11 0.941727 0.750000 0.723217
O O12 0.016372 0.985711 0.762330
O O13 0.223457 0.910627 0.702242
O O14 0.173440 0.750000 0.021572
O O15 0.520844 0.750000 0.693303
#
# Coordination Sequence:
#
# PCOD9467714 Si02
#       6
#     8   8   8   8   8   8
#     4   9  15  21  30  45  66  92 120 148 179 218
#     4   8  13  21  32  46  66  92 120 149 181 216
#     4   8  13  21  32  46  66  92 120 149 181 216
#     4   8  13  21  34  52  73  97 125 156 187 218
#     4   9  15  21  30  45  66  92 120 148 179 218
#     4   8  13  21  34  52  73  97 125 156 187 218
#
# _framework density 22.667589
#
# number of rings (size 3 to 8) (size 9 to 14) (size 15 to 20)
#    0.000    3.667    0.000    3.000    0.000    4.000 
#    0.000    0.000    0.000    1.000    0.000    0.000 
#    0.000    1.333    0.000    2.333    0.000    3.333 
#
# Total GULP energy -267810.611688 kJ/mol
# GULP energy per Si atom -5579.387743 kJ/mol
# Density = 2.261600 g / cm^3
# Si number density = 22.667589 Si / 1000 Ang^3
#
#
#
# Elastic Constant Matrix: (Units=GPa)
#
#
# Indices 1 2 3 4 5 6 
#
# 1 72.9967 4.4426 36.2332 0.0000 0.0000 0.0000
# 2 4.4426 79.2715 92.6885 0.0000 0.0000 0.0000
# 3 36.2332 92.6885 253.0979 0.0000 0.0000 0.0000
# 4 0.0000 0.0000 0.0000 26.7603 0.0000 0.0000
# 5 0.0000 0.0000 0.0000 0.0000 48.7402 0.0000
# 6 0.0000 0.0000 0.0000 0.0000 0.0000 -0.6343
#
#
#
# Elastic Compliance Matrix: (Units=1/GPa)
#
#
# Indices 1 2 3 4 5 6 
#
# 1 0.015131 0.002946 -0.003245 0.000000 0.000000 0.000000
# 2 0.002946 0.022635 -0.008711 0.000000 0.000000 0.000000
# 3 -0.003245 -0.008711 0.007606 0.000000 0.000000 0.000000
# 4 0.000000 0.000000 0.000000 0.037369 0.000000 0.000000
# 5 0.000000 0.000000 0.000000 0.000000 0.020517 0.000000
# 6 0.000000 0.000000 0.000000 0.000000 0.000000 -1.576619
#
#
# Mechanical properties :
#
#
# Convention : Reuss Voigt Hill
#
# Bulk Modulus (GPa) = 36.56046 74.67718 55.61882
# Shear Modulus (GPa) = -3.45728 33.10671 14.82471
#
# Velocity S-wave (km/s) = -1.23633 3.82583 2.56013
# Velocity P-wave (km/s) = 3.75845 7.24790 5.77313
#
# Compressibility (1/GPa) = 0.02735195
#
# Stress axis : x y z
#
# Youngs Moduli (GPa) = 66.09080 44.17861 131.47866
#
# Poissons Ratio (x) = -0.13017 0.42666
# Poissons Ratio (y) = -0.19473 1.14534
# Poissons Ratio (z) = 0.21447 0.38485
#
# Static dielectric constant tensor:
#      x y z
#    x 1.963620 0.000000 0.000000 
#    y 0.000000 1.753920 0.000000 
#    z 0.000000 0.000000 1.881450 
# 
# From -- ./inp_files/30746.got.cif
#   From: 2010.05.17/outbox.cif.g08.bks.cpg/sg62_16_cif.got.tgz:30746.got - 2010.06.03 15:25:27.
