data_PCOD9467485
_publ_section_title
;
Structure prediction by ZEFSAII (Michael W. Deem and Ramdas Pophale) SiO2 
 PCOD9467485
Probable space group: P N M A
;
_chemical_formula_sum "Si O2"
_cell_formula_units_Z 64
_cell_length_a 23.997048
_cell_length_b 8.452694
_cell_length_c 15.213788
_cell_angle_alpha 90.000000
_cell_angle_beta 90.000000
_cell_angle_gamma 90.000000
_cell_volume 3085.960249
_symmetry_space_group_name_H-M "P N M A"
_symmetry_group_IT_number 62
_symmetry_cell_setting 'orthorhombic'
loop_
_space_group_symop_operation_xyz
x,y,z
1/2-x,-y,1/2+z
1/2+x,1/2-y,1/2-z
-x,1/2+y,-z
-x,-y,-z
1/2+x,y,1/2-z
1/2-x,1/2+y,1/2+z
x,1/2-y,z
loop_
_atom_site_type_symbol
_atom_site_label
_atom_site_fract_x
_atom_site_fract_y
_atom_site_fract_z
Si Si1 0.075842 0.560968 0.751141
Si Si2 0.313208 0.067432 0.684467
Si Si3 0.499708 0.438238 0.900955
Si Si4 0.696168 0.939353 0.807554
Si Si5 0.950529 0.560669 0.063128
Si Si6 0.828899 0.936202 0.005164
Si Si7 0.294925 0.059257 0.983709
Si Si8 0.381014 0.562754 0.842688
O O1 0.074517 0.750000 0.759539
O O2 0.140594 0.510305 0.743359
O O3 0.044493 0.487321 0.834760
O O4 0.047253 0.511880 0.660201
O O5 0.315797 0.250000 0.658121
O O6 0.251953 0.027158 0.721209
O O7 0.324536 0.961059 0.599399
O O8 0.356764 0.025493 0.758624
O O9 0.504806 0.250000 0.900288
O O10 0.441291 0.494244 0.862033
O O11 0.500000 0.500000 0.000000
O O12 0.703089 0.750000 0.796778
O O13 0.692261 0.968941 0.912943
O O14 0.950393 0.750000 0.055703
O O15 0.888523 0.498068 0.036164
O O16 0.000000 0.500000 0.000000
O O17 0.829405 0.750000 0.025629
O O18 0.768434 0.996994 0.037544
O O19 0.297706 0.250000 0.970295
O O20 0.339963 0.975197 0.923507
O O21 0.383424 0.750000 0.827701
#
# Coordination Sequence:
#
# PCOD9467485 Si02
#       8
#     8   8   8   8   8   8   8   8
#     4  11  24  43  69 100 134 174 218 271 327 389
#     4  11  23  38  62  93 126 164 210 263 316 377
#     4  12  26  46  70  98 131 172 219 267 323 386
#     4   9  20  40  64  92 128 166 205 254 317 382
#     4  11  25  44  66  93 127 172 221 276 330 389
#     4   9  21  42  65  88 124 167 209 261 323 381
#     4   9  18  37  63  93 127 164 206 259 316 379
#     4  12  25  40  62  92 129 168 210 259 316 382
#
# _framework density 20.739087000000001
#
# number of rings (size 3 to 8) (size 9 to 14) (size 15 to 20)
#    0.000    1.500    0.000    5.625    3.500    5.000 
#    0.000    0.000    0.000    0.000    0.000    0.000 
#    0.000    0.000    0.000    0.000    0.000    0.000 
#
# Total GULP energy -357795.111903 kJ/mol
# GULP energy per Si atom -5590.548623 kJ/mol
# Density = 2.069188 g / cm^3
# Si number density = 20.739087 Si / 1000 Ang^3
#
#
#
# Elastic Constant Matrix: (Units=GPa)
#
#
# Indices 1 2 3 4 5 6 
#
# 1 88.4951 4.7235 6.4424 0.0000 0.0000 0.0000
# 2 4.7235 22.4801 -13.7299 0.0000 0.0000 0.0000
# 3 6.4424 -13.7299 43.1493 0.0000 0.0000 0.0000
# 4 0.0000 0.0000 0.0000 26.4946 0.0000 0.0000
# 5 0.0000 0.0000 0.0000 0.0000 41.3895 0.0000
# 6 0.0000 0.0000 0.0000 0.0000 0.0000 29.5732
#
#
#
# Elastic Compliance Matrix: (Units=1/GPa)
#
#
# Indices 1 2 3 4 5 6 
#
# 1 0.011765 -0.004400 -0.003157 0.000000 0.000000 0.000000
# 2 -0.004400 0.056860 0.018749 0.000000 0.000000 0.000000
# 3 -0.003157 0.018749 0.029613 0.000000 0.000000 0.000000
# 4 0.000000 0.000000 0.000000 0.037743 0.000000 0.000000
# 5 0.000000 0.000000 0.000000 0.000000 0.024161 0.000000
# 6 0.000000 0.000000 0.000000 0.000000 0.000000 0.033814
#
#
# Mechanical properties :
#
#
# Convention : Reuss Voigt Hill
#
# Bulk Modulus (GPa) = 8.29031 16.55516 12.42274
# Shear Modulus (GPa) = 23.60973 29.93738 26.77356
#
# Velocity S-wave (km/s) = 3.37770 3.80350 3.59691
# Velocity P-wave (km/s) = 4.38383 5.22386 4.82217
#
# Compressibility (1/GPa) = 0.12062271
#
# Stress axis : x y z
#
# Youngs Moduli (GPa) = 85.00004 17.58719 33.76947
#
# Poissons Ratio (x) = 0.07738 0.10659
# Poissons Ratio (y) = 0.37399 -0.63315
# Poissons Ratio (z) = 0.26830 -0.32975
#
# Static dielectric constant tensor:
#      x y z
#    x 1.740610 0.000000 0.000000 
#    y 0.000000 1.709710 0.000000 
#    z 0.000000 0.000000 1.724280 
# 
# From -- ./inp_files/20799.got.cif
#   From: 2010.05.17/outbox.cif.g08.bks.cpg/sg62_11_cif.got.tgz:20799.got - 2010.06.03 15:25:27.
