data_PCOD9467191
_publ_section_title
;
Structure prediction by ZEFSAII (Michael W. Deem and Ramdas Pophale) SiO2 
 PCOD9467191
Probable space group: P N M A
;
_chemical_formula_sum "Si O2"
_cell_formula_units_Z 32
_cell_length_a 11.023671
_cell_length_b 13.864908
_cell_length_c 9.060857
_cell_angle_alpha 90.000000
_cell_angle_beta 90.000000
_cell_angle_gamma 90.000000
_cell_volume 1384.881175
_symmetry_space_group_name_H-M "P N M A"
_symmetry_group_IT_number 62
_symmetry_cell_setting 'orthorhombic'
loop_
_space_group_symop_operation_xyz
x,y,z
1/2-x,-y,1/2+z
1/2+x,1/2-y,1/2-z
-x,1/2+y,-z
-x,-y,-z
1/2+x,y,1/2-z
1/2-x,1/2+y,1/2+z
x,1/2-y,z
loop_
_atom_site_type_symbol
_atom_site_label
_atom_site_fract_x
_atom_site_fract_y
_atom_site_fract_z
Si Si1 0.923419 0.506923 0.647967
Si Si2 0.023556 0.364656 0.075260
Si Si3 0.724649 0.364854 0.666337
Si Si4 0.749739 0.137902 0.988238
O O1 0.861542 0.402804 0.659139
O O2 0.806195 0.574316 0.615972
O O3 0.000000 0.500000 0.500000
O O4 0.981335 0.561519 0.787354
O O5 0.038770 0.250000 0.117840
O O6 0.895056 0.370072 0.991234
O O7 0.133701 0.392985 0.965201
O O8 0.724679 0.250000 0.664799
O O9 0.690396 0.394408 0.833053
O O10 0.719762 0.250000 0.011437
#
# Coordination Sequence:
#
# PCOD9467191 Si02
#       4
#     8   8   8   8
#     4  12  27  41  66 104 137 183 228 286 342 415
#     4  10  24  47  73  99 138 185 235 290 347 415
#     4  10  24  44  68  97 133 180 229 283 343 407
#     4  10  24  46  71  98 134 179 230 287 346 412
#
# _framework density 23.106676
#
# number of rings (size 3 to 8) (size 9 to 14) (size 15 to 20)
#    0.000    1.500    0.000    2.250   10.500    4.000 
#    0.000    0.000    0.000    0.000    0.000    0.000 
#    0.000    0.000    0.000    0.000    0.000    0.000 
#
# Total GULP energy -178749.991251 kJ/mol
# GULP energy per Si atom -5585.937227 kJ/mol
# Density = 2.305408 g / cm^3
# Si number density = 23.106676 Si / 1000 Ang^3
#
#
#
# Elastic Constant Matrix: (Units=GPa)
#
#
# Indices 1 2 3 4 5 6 
#
# 1 58.9005 17.7804 40.5232 0.0000 0.0000 0.0000
# 2 17.7804 41.6974 43.9917 0.0000 0.0000 0.0000
# 3 40.5232 43.9917 123.6519 0.0000 0.0000 0.0000
# 4 0.0000 0.0000 0.0000 32.0435 0.0000 0.0000
# 5 0.0000 0.0000 0.0000 0.0000 48.9267 0.0000
# 6 0.0000 0.0000 0.0000 0.0000 0.0000 25.1386
#
#
#
# Elastic Compliance Matrix: (Units=1/GPa)
#
#
# Indices 1 2 3 4 5 6 
#
# 1 0.022131 -0.002858 -0.006236 0.000000 0.000000 0.000000
# 2 -0.002858 0.038762 -0.012854 0.000000 0.000000 0.000000
# 3 -0.006236 -0.012854 0.014704 0.000000 0.000000 0.000000
# 4 0.000000 0.000000 0.000000 0.031208 0.000000 0.000000
# 5 0.000000 0.000000 0.000000 0.000000 0.020439 0.000000
# 6 0.000000 0.000000 0.000000 0.000000 0.000000 0.039779
#
#
# Mechanical properties :
#
#
# Convention : Reuss Voigt Hill
#
# Bulk Modulus (GPa) = 31.54424 47.64892 39.59658
# Shear Modulus (GPa) = 22.57491 29.35205 25.96348
#
# Velocity S-wave (km/s) = 3.12907 3.56797 3.35570
# Velocity P-wave (km/s) = 5.17068 6.13514 5.67344
#
# Compressibility (1/GPa) = 0.03170150
#
# Stress axis : x y z
#
# Youngs Moduli (GPa) = 45.18585 25.79850 68.00926
#
# Poissons Ratio (x) = 0.07373 0.42411
# Poissons Ratio (y) = 0.12913 0.87418
# Poissons Ratio (z) = 0.28178 0.33161
#
# Static dielectric constant tensor:
#      x y z
#    x 1.884860 0.000000 0.000000 
#    y 0.000000 1.895870 0.000000 
#    z 0.000000 0.000000 1.921040 
# 
# From -- ./inp_files/4831.got.cif
#   From: 2010.05.17/outbox.cif.g08.bks.cpg/sg62_3_cif.got.tgz:4831.got - 2010.06.03 15:25:27.
