data_PCOD9467008
_publ_section_title
;
Structure prediction by ZEFSAII (Michael W. Deem and Ramdas Pophale) SiO2 
 PCOD9467008
Probable space group: P N M A
;
_chemical_formula_sum "Si O2"
_cell_formula_units_Z 64
_cell_length_a 9.050126
_cell_length_b 19.246255
_cell_length_c 18.766851
_cell_angle_alpha 90.000000
_cell_angle_beta 90.000000
_cell_angle_gamma 90.000000
_cell_volume 3268.829489
_symmetry_space_group_name_H-M "P N M A"
_symmetry_group_IT_number 62
_symmetry_cell_setting 'orthorhombic'
loop_
_space_group_symop_operation_xyz
x,y,z
1/2-x,-y,1/2+z
1/2+x,1/2-y,1/2-z
-x,1/2+y,-z
-x,-y,-z
1/2+x,y,1/2-z
1/2-x,1/2+y,1/2+z
x,1/2-y,z
loop_
_atom_site_type_symbol
_atom_site_label
_atom_site_fract_x
_atom_site_fract_y
_atom_site_fract_z
Si Si1 0.538897 0.330889 0.471325
Si Si2 0.408693 0.889141 0.276068
Si Si3 0.411902 0.034219 0.202500
Si Si4 0.876042 0.952661 0.082826
Si Si5 0.077867 0.433339 0.154903
Si Si6 0.800849 0.671552 0.483649
Si Si7 0.711102 0.671783 0.330438
Si Si8 0.591458 0.457209 0.057678
O O1 0.592162 0.250000 0.479640
O O2 0.593641 0.389807 0.527968
O O3 0.571095 0.365231 0.394622
O O4 0.363031 0.327748 0.483457
O O5 0.320559 0.915345 0.345000
O O6 0.328415 0.829410 0.232869
O O7 0.569140 0.869469 0.304418
O O8 0.415135 0.953365 0.222840
O O9 0.473763 0.070278 0.274762
O O10 0.244760 0.053760 0.181307
O O11 0.518180 0.043848 0.135165
O O12 0.752360 0.006880 0.058414
O O13 0.014911 0.001400 0.107310
O O14 0.858685 0.750000 0.480527
O O15 0.781277 0.643884 0.403157
O O16 0.898269 0.620805 0.529615
O O17 0.662313 0.750000 0.347892
O O18 0.500000 0.500000 0.000000
#
# Coordination Sequence:
#
# PCOD9467008 Si02
#       8
#     8   8   8   8   8   8   8   8
#     4  11  23  41  67  96 126 172 224 271 331 398
#     4  11  21  37  59  88 124 163 202 261 316 380
#     4  11  24  40  65  98 129 165 218 275 328 396
#     4  11  22  39  66  94 126 168 213 266 322 386
#     4  11  23  43  68  96 130 168 217 271 334 390
#     4  10  23  42  64  91 128 173 219 270 328 394
#     4  11  22  37  58  87 125 169 210 250 316 392
#     4  12  24  39  65 100 130 169 218 270 328 385
#
# _framework density 19.578873000000002
#
# number of rings (size 3 to 8) (size 9 to 14) (size 15 to 20)
#    0.000    1.000    2.500    6.000    1.750    0.500 
#    0.000    3.750    0.000    0.000    0.000    0.000 
#    0.000    0.000    0.000    0.000    0.000    0.000 
#
# Total GULP energy -357394.131302 kJ/mol
# GULP energy per Si atom -5584.283302 kJ/mol
# Density = 1.953431 g / cm^3
# Si number density = 19.578873 Si / 1000 Ang^3
#
#
#
# Elastic Constant Matrix: (Units=GPa)
#
#
# Indices 1 2 3 4 5 6 
#
# 1 41.3181 32.4219 15.7020 0.0000 0.0000 0.0000
# 2 32.4219 98.5600 63.4512 0.0000 0.0000 0.0000
# 3 15.7020 63.4512 96.1986 0.0000 0.0000 0.0000
# 4 0.0000 0.0000 0.0000 23.2659 0.0000 0.0000
# 5 0.0000 0.0000 0.0000 0.0000 24.1368 0.0000
# 6 0.0000 0.0000 0.0000 0.0000 0.0000 26.1973
#
#
#
# Elastic Compliance Matrix: (Units=1/GPa)
#
#
# Indices 1 2 3 4 5 6 
#
# 1 0.033146 -0.012897 0.003096 0.000000 0.000000 0.000000
# 2 -0.012897 0.022652 -0.012836 0.000000 0.000000 0.000000
# 3 0.003096 -0.012836 0.018356 0.000000 0.000000 0.000000
# 4 0.000000 0.000000 0.000000 0.042981 0.000000 0.000000
# 5 0.000000 0.000000 0.000000 0.000000 0.041431 0.000000
# 6 0.000000 0.000000 0.000000 0.000000 0.000000 0.038172
#
#
# Mechanical properties :
#
#
# Convention : Reuss Voigt Hill
#
# Bulk Modulus (GPa) = 34.62455 51.02520 42.82487
# Shear Modulus (GPa) = 19.86981 23.02011 21.44496
#
# Velocity S-wave (km/s) = 3.18914 3.43266 3.31314
# Velocity P-wave (km/s) = 5.59320 6.46752 6.04618
#
# Compressibility (1/GPa) = 0.02888124
#
# Stress axis : x y z
#
# Youngs Moduli (GPa) = 30.16970 44.14575 54.47752
#
# Poissons Ratio (x) = 0.56935 -0.16869
# Poissons Ratio (y) = 0.38910 0.69927
# Poissons Ratio (z) = -0.09342 0.56665
#
# Static dielectric constant tensor:
#      x y z
#    x 1.710820 0.000000 0.000000 
#    y 0.000000 1.694840 0.000000 
#    z 0.000000 0.000000 1.701200 
# 
# From -- ./inp_files/22567.got.cif
#   From: 2010.05.17/outbox.cif.g08.bks.cpg/sg62_12_cif.got.tgz:22567.got - 2010.06.03 15:25:27.
