data_PCOD9467628
_publ_section_title
;
Structure prediction by ZEFSAII (Michael W. Deem and Ramdas Pophale) SiO2 
 PCOD9467628
Probable space group: P N M A
;
_chemical_formula_sum "Si O2"
_cell_formula_units_Z 20
_cell_length_a 4.732429
_cell_length_b 8.090625
_cell_length_c 22.830776
_cell_angle_alpha 90.000000
_cell_angle_beta 90.000000
_cell_angle_gamma 90.000000
_cell_volume 874.151792
_symmetry_space_group_name_H-M "P N M A"
_symmetry_group_IT_number 62
_symmetry_cell_setting 'orthorhombic'
loop_
_space_group_symop_operation_xyz
x,y,z
1/2-x,-y,1/2+z
1/2+x,1/2-y,1/2-z
-x,1/2+y,-z
-x,-y,-z
1/2+x,y,1/2-z
1/2-x,1/2+y,1/2+z
x,1/2-y,z
loop_
_atom_site_type_symbol
_atom_site_label
_atom_site_fract_x
_atom_site_fract_y
_atom_site_fract_z
Si Si1 0.034626 0.250000 0.928585
Si Si2 0.037032 0.250000 0.291480
Si Si3 0.533421 0.250000 0.010680
Si Si4 0.755304 0.574631 0.889006
O O1 0.852553 0.250000 0.989088
O O2 0.941941 0.413860 0.894347
O O3 0.352252 0.250000 0.951000
O O4 0.849683 0.250000 0.232789
O O5 0.943935 0.404760 0.332235
O O6 0.437608 0.099355 0.052982
O O7 0.925655 0.750000 0.888008
#
# Coordination Sequence:
#
# PCOD9467628 Si02
#       4
#     4   4   4   8
#     4  12  18  39  50  84 114 137 174 218 252 326
#     4   9  20  39  56  74 104 137 178 227 266 304
#     4   9  22  32  56  78 116 144 168 209 266 312
#     4   8  22  34  57  82 103 146 178 212 266 316
#
# _framework density 22.879325000000001
#
# number of rings (size 3 to 8) (size 9 to 14) (size 15 to 20)
#    2.400    0.000    0.000    2.400    0.000    9.600 
#    0.000    2.000    0.000    0.000    0.000    0.000 
#    0.000    0.000    0.000    0.000    0.000    0.000 
#
# Total GULP energy -111584.378420 kJ/mol
# GULP energy per Si atom -5579.218921 kJ/mol
# Density = 2.282725 g / cm^3
# Si number density = 22.879325 Si / 1000 Ang^3
#
#
#
# Elastic Constant Matrix: (Units=GPa)
#
#
# Indices 1 2 3 4 5 6 
#
# 1 57.6609 12.6767 6.9388 0.0000 0.0000 0.0000
# 2 12.6767 143.3590 18.6304 0.0000 0.0000 0.0000
# 3 6.9388 18.6304 101.7771 0.0000 0.0000 0.0000
# 4 0.0000 0.0000 0.0000 25.6311 0.0000 0.0000
# 5 0.0000 0.0000 0.0000 0.0000 39.0205 0.0000
# 6 0.0000 0.0000 0.0000 0.0000 0.0000 16.9434
#
#
#
# Elastic Compliance Matrix: (Units=1/GPa)
#
#
# Indices 1 2 3 4 5 6 
#
# 1 0.017775 -0.001449 -0.000947 0.000000 0.000000 0.000000
# 2 -0.001449 0.007264 -0.001231 0.000000 0.000000 0.000000
# 3 -0.000947 -0.001231 0.010115 0.000000 0.000000 0.000000
# 4 0.000000 0.000000 0.000000 0.039015 0.000000 0.000000
# 5 0.000000 0.000000 0.000000 0.000000 0.025628 0.000000
# 6 0.000000 0.000000 0.000000 0.000000 0.000000 0.059020
#
#
# Mechanical properties :
#
#
# Convention : Reuss Voigt Hill
#
# Bulk Modulus (GPa) = 35.84039 42.14323 38.99181
# Shear Modulus (GPa) = 28.51120 33.95574 31.23347
#
# Velocity S-wave (km/s) = 3.53392 3.85661 3.69879
# Velocity P-wave (km/s) = 5.68775 6.18798 5.94313
#
# Compressibility (1/GPa) = 0.02790148
#
# Stress axis : x y z
#
# Youngs Moduli (GPa) = 56.25811 137.67354 98.86075
#
# Poissons Ratio (x) = 0.19946 0.09359
# Poissons Ratio (y) = 0.08151 0.12168
# Poissons Ratio (z) = 0.05326 0.16945
#
# Static dielectric constant tensor:
#      x y z
#    x 1.835020 0.000000 0.000000 
#    y 0.000000 1.952100 0.000000 
#    z 0.000000 0.000000 1.850560 
# 
# From -- ./inp_files/21322.got.cif
#   From: 2010.05.17/outbox.cif.g08.bks.cpg/sg62_11_cif.got.tgz:21322.got - 2010.06.03 15:25:27.
