data_PCOD9467758
_publ_section_title
;
Structure prediction by ZEFSAII (Michael W. Deem and Ramdas Pophale) SiO2 
 PCOD9467758
Probable space group: P N M A
;
_chemical_formula_sum "Si O2"
_cell_formula_units_Z 64
_cell_length_a 30.000000
_cell_length_b 9.000000
_cell_length_c 15.000000
_cell_angle_alpha 90.000000
_cell_angle_beta 90.000000
_cell_angle_gamma 90.000000
_cell_volume 4050.000000
_symmetry_space_group_name_H-M "P N M A"
_symmetry_group_IT_number 62
_symmetry_cell_setting 'orthorhombic'
loop_
_space_group_symop_operation_xyz
x,y,z
1/2-x,-y,1/2+z
1/2+x,1/2-y,1/2-z
-x,1/2+y,-z
-x,-y,-z
1/2+x,y,1/2-z
1/2-x,1/2+y,1/2+z
x,1/2-y,z
loop_
_atom_site_type_symbol
_atom_site_label
_atom_site_fract_x
_atom_site_fract_y
_atom_site_fract_z
Si Si1 0.456082 0.570668 0.390045
Si Si2 0.811735 0.579813 0.036081
Si Si3 0.642522 0.421741 0.347526
Si Si4 0.277464 0.924990 0.952362
Si Si5 0.780473 0.426690 0.740767
Si Si6 0.305891 0.931565 0.142823
Si Si7 0.629313 0.428843 0.709949
Si Si8 0.548578 0.071223 0.402771
O O1 0.457102 0.750000 0.387313
O O2 0.418198 0.514802 0.323089
O O3 0.445494 0.528879 0.492852
O O4 0.503930 0.504307 0.369381
O O5 0.793762 0.750000 0.042413
O O6 0.773291 0.461625 0.021020
O O7 0.836888 0.547172 0.127816
O O8 0.844100 0.577850 0.951781
O O9 0.646681 0.250000 0.317123
O O10 0.676034 0.523016 0.293830
O O11 0.591522 0.470636 0.345751
O O12 0.284756 0.750000 0.940795
O O13 0.283027 0.004976 0.857882
O O14 0.304428 0.978611 0.039742
O O15 0.777222 0.250000 0.733358
O O16 0.737637 0.477833 0.799515
O O17 0.305128 0.750000 0.141887
O O18 0.348504 0.983373 0.199270
O O19 0.625453 0.250000 0.718092
O O20 0.544815 0.250000 0.400897
#
# Coordination Sequence:
#
# PCOD9467758 Si02
#       8
#     8   8   8   8   8   8   8   8
#     4   9  16  27  46  69  92 123 162 195 226 279
#     4  10  17  28  48  69  94 128 163 194 231 276
#     4  10  19  31  48  71  97 130 165 196 235 286
#     4  11  21  33  46  68  97 125 160 201 238 276
#     4  11  21  34  50  69  94 128 164 199 238 280
#     4   9  18  30  47  68  92 122 158 195 233 277
#     4   9  15  28  48  68  91 126 164 192 227 279
#     4   9  17  29  44  66  98 129 154 189 239 286
#
# _framework density 15.802469
#
# number of rings (size 3 to 8) (size 9 to 14) (size 15 to 20)
#    0.000    2.250    3.750    0.750    0.000    0.500 
#    0.000    0.625    0.000    0.000    0.000    0.875 
#    0.000    0.000    0.000    0.000    0.000    0.000 
#
# Total GULP energy -356454.961022 kJ/mol
# GULP energy per Si atom -5569.608766 kJ/mol
# Density = 1.576650 g / cm^3
# Si number density = 15.802469 Si / 1000 Ang^3
#
#
#
# Elastic Constant Matrix: (Units=GPa)
#
#
# Indices 1 2 3 4 5 6 
#
# 1 46.2073 2.4488 -7.9711 0.0000 0.0000 0.0000
# 2 2.4488 7.3433 5.1152 0.0000 0.0000 0.0000
# 3 -7.9711 5.1152 41.0291 0.0000 0.0000 0.0000
# 4 0.0000 0.0000 0.0000 19.2626 0.0000 0.0000
# 5 0.0000 0.0000 0.0000 0.0000 14.0938 0.0000
# 6 0.0000 0.0000 0.0000 0.0000 0.0000 21.2503
#
#
#
# Elastic Compliance Matrix: (Units=1/GPa)
#
#
# Indices 1 2 3 4 5 6 
#
# 1 0.023315 -0.011970 0.006022 0.000000 0.000000 0.000000
# 2 -0.011970 0.155275 -0.021684 0.000000 0.000000 0.000000
# 3 0.006022 -0.021684 0.028246 0.000000 0.000000 0.000000
# 4 0.000000 0.000000 0.000000 0.051914 0.000000 0.000000
# 5 0.000000 0.000000 0.000000 0.000000 0.070953 0.000000
# 6 0.000000 0.000000 0.000000 0.000000 0.000000 0.047058
#
#
# Mechanical properties :
#
#
# Convention : Reuss Voigt Hill
#
# Bulk Modulus (GPa) = 6.59748 10.41837 8.50793
# Shear Modulus (GPa) = 10.36163 17.25380 13.80771
#
# Velocity S-wave (km/s) = 2.56344 3.30789 2.95917
# Velocity P-wave (km/s) = 3.59800 4.60399 4.13173
#
# Compressibility (1/GPa) = 0.15157298
#
# Stress axis : x y z
#
# Youngs Moduli (GPa) = 42.89129 6.44017 35.40286
#
# Poissons Ratio (x) = 0.07709 -0.21319
# Poissons Ratio (y) = 0.51339 0.76768
# Poissons Ratio (z) = -0.25829 0.13965
#
# Static dielectric constant tensor:
#      x y z
#    x 1.547110 0.000000 0.000000 
#    y 0.000000 1.529780 0.000000 
#    z 0.000000 0.000000 1.543560 
# 
# From -- ./inp_files/21244.got.cif
#   From: 2010.05.17/outbox.ucp.g08.bks.cvg/sg62_11_cif.got.tgz:21244.got - 2010.06.11 16:29:25.
