data_PCOD9467470
_publ_section_title
;
Structure prediction by ZEFSAII (Michael W. Deem and Ramdas Pophale) SiO2 
 PCOD9467470
Probable space group: P N M A
;
_chemical_formula_sum "Si O2"
_cell_formula_units_Z 40
_cell_length_a 9.308633
_cell_length_b 13.677697
_cell_length_c 11.795219
_cell_angle_alpha 90.000000
_cell_angle_beta 90.000000
_cell_angle_gamma 90.000000
_cell_volume 1501.775087
_symmetry_space_group_name_H-M "P N M A"
_symmetry_group_IT_number 62
_symmetry_cell_setting 'orthorhombic'
loop_
_space_group_symop_operation_xyz
x,y,z
1/2-x,-y,1/2+z
1/2+x,1/2-y,1/2-z
-x,1/2+y,-z
-x,-y,-z
1/2+x,y,1/2-z
1/2-x,1/2+y,1/2+z
x,1/2-y,z
loop_
_atom_site_type_symbol
_atom_site_label
_atom_site_fract_x
_atom_site_fract_y
_atom_site_fract_z
Si Si1 0.149388 0.250000 0.030151
Si Si2 0.806805 0.034622 0.131889
Si Si3 0.853944 0.076571 0.440533
Si Si4 0.171457 0.750000 0.883143
Si Si5 0.956286 0.039234 0.749996
Si Si6 0.946442 0.750000 0.465028
Si Si7 0.424523 0.750000 0.275474
O O1 0.163933 0.250000 0.892050
O O2 0.225561 0.345431 0.083352
O O3 0.978792 0.250000 0.049689
O O4 0.821697 0.145221 0.173105
O O5 0.724057 0.006795 0.016783
O O6 0.708576 0.979870 0.224740
O O7 0.968511 0.996963 0.135282
O O8 0.956860 0.152786 0.512066
O O9 0.955486 0.022595 0.347789
O O10 0.322919 0.750000 0.944343
O O11 0.480770 0.153606 0.737169
O O12 0.854926 0.750000 0.348837
#
# Coordination Sequence:
#
# PCOD9467470 Si02
#       7
#     4   8   8   4   8   4   4
#     4  11  28  47  76 111 157 196 255 324 375 440
#     4  12  27  49  72 112 147 197 256 308 371 458
#     4  11  24  50  72 110 154 198 238 318 380 445
#     4  12  28  46  74 105 148 208 251 299 384 458
#     4  12  27  46  81 107 154 197 249 317 382 444
#     4  11  22  45  82 100 148 193 252 295 382 457
#     4  12  24  48  78 118 141 195 264 314 375 453
#
# _framework density 26.635147
#
# number of rings (size 3 to 8) (size 9 to 14) (size 15 to 20)
#    0.000    0.400    6.000    1.800    2.800    8.800 
#    0.000    0.000    0.000    0.000    0.000    0.000 
#    0.000    0.000    0.000    0.000    0.000    0.000 
#
# Total GULP energy -223421.610073 kJ/mol
# GULP energy per Si atom -5585.540252 kJ/mol
# Density = 2.657452 g / cm^3
# Si number density = 26.635147 Si / 1000 Ang^3
#
#
#
# Elastic Constant Matrix: (Units=GPa)
#
#
# Indices 1 2 3 4 5 6 
#
# 1 75.5298 10.8138 11.2171 0.0000 0.0000 0.0000
# 2 10.8138 209.9027 20.0225 0.0000 0.0000 0.0000
# 3 11.2171 20.0225 74.3164 0.0000 0.0000 0.0000
# 4 0.0000 0.0000 0.0000 98.1903 0.0000 0.0000
# 5 0.0000 0.0000 0.0000 0.0000 40.9587 0.0000
# 6 0.0000 0.0000 0.0000 0.0000 0.0000 19.7190
#
#
#
# Elastic Compliance Matrix: (Units=1/GPa)
#
#
# Indices 1 2 3 4 5 6 
#
# 1 0.013598 -0.000518 -0.001913 0.000000 0.000000 0.000000
# 2 -0.000518 0.004910 -0.001245 0.000000 0.000000 0.000000
# 3 -0.001913 -0.001245 0.014080 0.000000 0.000000 0.000000
# 4 0.000000 0.000000 0.000000 0.010184 0.000000 0.000000
# 5 0.000000 0.000000 0.000000 0.000000 0.024415 0.000000
# 6 0.000000 0.000000 0.000000 0.000000 0.000000 0.050712
#
#
# Mechanical properties :
#
#
# Convention : Reuss Voigt Hill
#
# Bulk Modulus (GPa) = 39.62494 49.31728 44.47111
# Shear Modulus (GPa) = 37.40769 52.95331 45.18050
#
# Velocity S-wave (km/s) = 3.75166 4.46365 4.12305
# Velocity P-wave (km/s) = 5.80309 6.71726 6.27684
#
# Compressibility (1/GPa) = 0.02523663
#
# Stress axis : x y z
#
# Youngs Moduli (GPa) = 73.53991 203.68597 71.02269
#
# Poissons Ratio (x) = 0.10553 0.13586
# Poissons Ratio (y) = 0.03810 0.08839
# Poissons Ratio (z) = 0.14067 0.25349
#
# Static dielectric constant tensor:
#      x y z
#    x 1.995540 0.000000 0.000000 
#    y 0.000000 2.354650 0.000000 
#    z 0.000000 0.000000 2.216330 
# 
# From -- ./inp_files/16725.got.cif
#   From: 2010.05.17/outbox.cif.g08.bks.cpg/sg62_9_cif.got.tgz:16725.got - 2010.06.03 15:25:27.
