data_PCOD9467316
_publ_section_title
;
Structure prediction by ZEFSAII (Michael W. Deem and Ramdas Pophale) SiO2 
 PCOD9467316
Probable space group: P N M A
;
_chemical_formula_sum "Si O2"
_cell_formula_units_Z 40
_cell_length_a 8.786550
_cell_length_b 18.626536
_cell_length_c 12.543256
_cell_angle_alpha 90.000000
_cell_angle_beta 90.000000
_cell_angle_gamma 90.000000
_cell_volume 2052.866780
_symmetry_space_group_name_H-M "P N M A"
_symmetry_group_IT_number 62
_symmetry_cell_setting 'orthorhombic'
loop_
_space_group_symop_operation_xyz
x,y,z
1/2-x,-y,1/2+z
1/2+x,1/2-y,1/2-z
-x,1/2+y,-z
-x,-y,-z
1/2+x,y,1/2-z
1/2-x,1/2+y,1/2+z
x,1/2-y,z
loop_
_atom_site_type_symbol
_atom_site_label
_atom_site_fract_x
_atom_site_fract_y
_atom_site_fract_z
Si Si1 0.495634 0.832040 0.809748
Si Si2 0.820880 0.110994 0.129734
Si Si3 0.812107 0.556910 0.177595
Si Si4 0.340048 0.066007 0.607441
Si Si5 0.137126 0.942896 0.523551
O O1 0.544215 0.750000 0.820426
O O2 0.532650 0.861320 0.692124
O O3 0.318341 0.840437 0.833454
O O4 0.579110 0.884107 0.894019
O O5 0.786921 0.029483 0.169028
O O6 0.831143 0.110034 0.002163
O O7 0.768553 0.585391 0.293870
O O8 0.988089 0.566648 0.148869
O O9 0.699548 0.587870 0.087631
O O10 0.278713 0.987524 0.572201
O O11 0.000000 0.000000 0.500000
#
# Coordination Sequence:
#
# PCOD9467316 Si02
#       5
#     8   8   8   8   8
#     4  12  25  40  61  89 129 172 208 260 322 384
#     4  11  23  39  58  91 131 165 211 255 319 384
#     4  11  21  36  64  96 128 161 213 271 330 365
#     4  11  22  36  63  97 127 165 206 278 319 374
#     4  11  20  38  62  93 127 165 215 267 316 375
#
# _framework density 19.484946999999998
#
# number of rings (size 3 to 8) (size 9 to 14) (size 15 to 20)
#    0.000    0.800    6.000    5.400    2.800    0.000 
#    0.000    0.000    0.000    2.400    0.000    0.000 
#    0.000    0.000    0.000    0.000    0.000    0.000 
#
# Total GULP energy -223489.496147 kJ/mol
# GULP energy per Si atom -5587.237404 kJ/mol
# Density = 1.944060 g / cm^3
# Si number density = 19.484947 Si / 1000 Ang^3
#
#
#
# Elastic Constant Matrix: (Units=GPa)
#
#
# Indices 1 2 3 4 5 6 
#
# 1 97.7993 29.8784 70.1830 0.0000 0.0000 0.0000
# 2 29.8784 32.1370 24.3803 0.0000 0.0000 0.0000
# 3 70.1830 24.3803 180.2304 0.0000 0.0000 0.0000
# 4 0.0000 0.0000 0.0000 9.7789 0.0000 0.0000
# 5 0.0000 0.0000 0.0000 0.0000 41.9811 0.0000
# 6 0.0000 0.0000 0.0000 0.0000 0.0000 18.0361
#
#
#
# Elastic Compliance Matrix: (Units=1/GPa)
#
#
# Indices 1 2 3 4 5 6 
#
# 1 0.017838 -0.012608 -0.005241 0.000000 0.000000 0.000000
# 2 -0.012608 0.043587 -0.000986 0.000000 0.000000 0.000000
# 3 -0.005241 -0.000986 0.007723 0.000000 0.000000 0.000000
# 4 0.000000 0.000000 0.000000 0.102261 0.000000 0.000000
# 5 0.000000 0.000000 0.000000 0.000000 0.023820 0.000000
# 6 0.000000 0.000000 0.000000 0.000000 0.000000 0.055444
#
#
# Mechanical properties :
#
#
# Convention : Reuss Voigt Hill
#
# Bulk Modulus (GPa) = 31.76926 62.11666 46.94296
# Shear Modulus (GPa) = 16.73156 26.34089 21.53623
#
# Velocity S-wave (km/s) = 2.93352 3.68075 3.32817
# Velocity P-wave (km/s) = 5.27390 7.07195 6.23804
#
# Compressibility (1/GPa) = 0.03147697
#
# Stress axis : x y z
#
# Youngs Moduli (GPa) = 56.06098 22.94246 129.49008
#
# Poissons Ratio (x) = 0.28927 0.67860
# Poissons Ratio (y) = 0.70684 0.12773
# Poissons Ratio (z) = 0.29379 0.02263
#
# Static dielectric constant tensor:
#      x y z
#    x 1.719440 0.000000 0.000000 
#    y 0.000000 1.649510 0.000000 
#    z 0.000000 0.000000 1.732520 
# 
# From -- ./inp_files/11050.got.cif
#   From: 2010.05.17/outbox.cif.g08.bks.cpg/sg62_6_cif.got.tgz:11050.got - 2010.06.03 15:25:27.
