data_PCOD9467525
_publ_section_title
;
Structure prediction by ZEFSAII (Michael W. Deem and Ramdas Pophale) SiO2 
 PCOD9467525
Probable space group: P N M A
;
_chemical_formula_sum "Si O2"
_cell_formula_units_Z 40
_cell_length_a 9.977194
_cell_length_b 14.673026
_cell_length_c 11.636962
_cell_angle_alpha 90.000000
_cell_angle_beta 90.000000
_cell_angle_gamma 90.000000
_cell_volume 1703.600348
_symmetry_space_group_name_H-M "P N M A"
_symmetry_group_IT_number 62
_symmetry_cell_setting 'orthorhombic'
loop_
_space_group_symop_operation_xyz
x,y,z
1/2-x,-y,1/2+z
1/2+x,1/2-y,1/2-z
-x,1/2+y,-z
-x,-y,-z
1/2+x,y,1/2-z
1/2-x,1/2+y,1/2+z
x,1/2-y,z
loop_
_atom_site_type_symbol
_atom_site_label
_atom_site_fract_x
_atom_site_fract_y
_atom_site_fract_z
Si Si1 0.170727 0.856371 0.276553
Si Si2 0.075695 0.475536 0.730851
Si Si3 0.334220 0.412959 0.040997
Si Si4 0.871794 0.056440 0.036543
Si Si5 0.194971 0.250000 0.181578
Si Si6 0.110960 0.750000 0.896290
O O1 0.154616 0.750000 0.250462
O O2 0.313532 0.894541 0.233090
O O3 0.148297 0.868980 0.415375
O O4 0.059090 0.925636 0.230093
O O5 0.051116 0.542116 0.621416
O O6 0.133950 0.543133 0.826307
O O7 0.251270 0.338847 0.114386
O O8 0.249826 0.504054 0.018683
O O9 0.883080 0.162798 0.021556
O O10 0.000000 0.000000 0.000000
O O11 0.264140 0.250000 0.307211
O O12 0.032546 0.250000 0.171761
#
# Coordination Sequence:
#
# PCOD9467525 Si02
#       6
#     8   8   8   8   4   4
#     4  11  24  43  67  98 134 184 228 278 346 410
#     4  11  24  43  69  95 140 176 225 290 338 407
#     4  11  23  44  69 100 140 181 227 285 352 405
#     4  11  23  43  69 101 139 182 226 281 350 411
#     4  12  24  46  74 101 137 182 236 291 343 409
#     4  12  26  44  78 103 137 184 242 291 339 413
#
# _framework density 23.479683999999999
#
# number of rings (size 3 to 8) (size 9 to 14) (size 15 to 20)
#    0.000    0.800    5.000    2.400    0.000    0.000 
#   12.600    0.000    0.000    0.000    0.000    0.000 
#    0.000    0.000    0.000    0.000    0.000    0.000 
#
# Total GULP energy -223446.545933 kJ/mol
# GULP energy per Si atom -5586.163648 kJ/mol
# Density = 2.342624 g / cm^3
# Si number density = 23.479684 Si / 1000 Ang^3
#
#
#
# Elastic Constant Matrix: (Units=GPa)
#
#
# Indices 1 2 3 4 5 6 
#
# 1 61.7538 9.0404 -24.5125 0.0000 0.0000 0.0000
# 2 9.0404 177.4301 22.5042 0.0000 0.0000 0.0000
# 3 -24.5125 22.5042 75.1845 0.0000 0.0000 0.0000
# 4 0.0000 0.0000 0.0000 29.4421 0.0000 0.0000
# 5 0.0000 0.0000 0.0000 0.0000 23.1308 0.0000
# 6 0.0000 0.0000 0.0000 0.0000 0.0000 28.8031
#
#
#
# Elastic Compliance Matrix: (Units=1/GPa)
#
#
# Indices 1 2 3 4 5 6 
#
# 1 0.019161 -0.001838 0.006797 0.000000 0.000000 0.000000
# 2 -0.001838 0.006035 -0.002406 0.000000 0.000000 0.000000
# 3 0.006797 -0.002406 0.016237 0.000000 0.000000 0.000000
# 4 0.000000 0.000000 0.000000 0.033965 0.000000 0.000000
# 5 0.000000 0.000000 0.000000 0.000000 0.043232 0.000000
# 6 0.000000 0.000000 0.000000 0.000000 0.000000 0.034718
#
#
# Mechanical properties :
#
#
# Convention : Reuss Voigt Hill
#
# Bulk Modulus (GPa) = 21.48766 36.49251 28.99009
# Shear Modulus (GPa) = 30.53350 36.76429 33.64890
#
# Velocity S-wave (km/s) = 3.61005 3.96130 3.78975
# Velocity P-wave (km/s) = 5.15248 6.04139 5.61456
#
# Compressibility (1/GPa) = 0.04653833
#
# Stress axis : x y z
#
# Youngs Moduli (GPa) = 52.19063 165.70507 61.58856
#
# Poissons Ratio (x) = 0.30463 -0.41863
# Poissons Ratio (y) = 0.09595 0.14816
# Poissons Ratio (z) = -0.35475 0.39864
#
# Static dielectric constant tensor:
#      x y z
#    x 1.917430 0.000000 0.000000 
#    y 0.000000 1.828550 0.000000 
#    z 0.000000 0.000000 2.021480 
# 
# From -- ./inp_files/12079.got.cif
#   From: 2010.05.17/outbox.cif.g08.bks.cpg/sg62_7_cif.got.tgz:12079.got - 2010.06.03 15:25:27.
