data_PCOD9467414
_publ_section_title
;
Structure prediction by ZEFSAII (Michael W. Deem and Ramdas Pophale) SiO2 
 PCOD9467414
Probable space group: P N M A
;
_chemical_formula_sum "Si O2"
_cell_formula_units_Z 64
_cell_length_a 18.262373
_cell_length_b 19.089385
_cell_length_c 9.338874
_cell_angle_alpha 90.000000
_cell_angle_beta 90.000000
_cell_angle_gamma 90.000000
_cell_volume 3255.694619
_symmetry_space_group_name_H-M "P N M A"
_symmetry_group_IT_number 62
_symmetry_cell_setting 'orthorhombic'
loop_
_space_group_symop_operation_xyz
x,y,z
1/2-x,-y,1/2+z
1/2+x,1/2-y,1/2-z
-x,1/2+y,-z
-x,-y,-z
1/2+x,y,1/2-z
1/2-x,1/2+y,1/2+z
x,1/2-y,z
loop_
_atom_site_type_symbol
_atom_site_label
_atom_site_fract_x
_atom_site_fract_y
_atom_site_fract_z
Si Si1 0.585940 0.332693 0.204564
Si Si2 0.689908 0.395915 0.684488
Si Si3 0.654277 0.927392 0.066241
Si Si4 0.201622 0.413089 0.476604
Si Si5 0.549316 0.574139 0.808625
Si Si6 0.063319 0.170908 0.959602
Si Si7 0.964270 0.439483 0.788928
Si Si8 0.634549 0.541854 0.549367
O O1 0.578480 0.250000 0.183012
O O2 0.515857 0.374899 0.145353
O O3 0.582252 0.346896 0.375385
O O4 0.659066 0.359977 0.126814
O O5 0.770901 0.391606 0.616826
O O6 0.686863 0.399454 0.855916
O O7 0.639321 0.334802 0.625551
O O8 0.656278 0.469163 0.625397
O O9 0.590004 0.906491 0.174042
O O10 0.619380 0.917774 0.910244
O O11 0.671633 0.010586 0.070936
O O12 0.289601 0.417076 0.467949
O O13 0.513655 0.496487 0.794548
O O14 0.580061 0.585749 0.649467
O O15 0.033598 0.250000 0.956536
O O16 0.011438 0.116246 0.877094
O O17 0.909424 0.474839 0.904538
#
# Coordination Sequence:
#
# PCOD9467414 Si02
#       8
#     8   8   8   8   8   8   8   8
#     4  11  26  44  64  91 126 171 216 261 322 389
#     4  11  23  40  61  95 130 164 208 260 320 379
#     4  11  24  37  65 101 128 157 212 269 314 375
#     4  11  23  40  61  95 130 163 208 262 318 381
#     4  12  22  39  66  98 129 164 212 271 319 374
#     4  11  25  43  64  90 127 171 214 262 322 388
#     4  12  21  41  65  98 128 167 212 265 323 376
#     4  11  22  37  65  96 124 163 210 265 316 372
#
# _framework density 19.657864
#
# number of rings (size 3 to 8) (size 9 to 14) (size 15 to 20)
#    0.000    0.750    6.250    1.500    3.500    0.500 
#    0.000    2.500    0.000    0.000    0.000    0.000 
#    0.000    0.000    0.000    0.000    0.000    0.000 
#
# Total GULP energy -357308.105894 kJ/mol
# GULP energy per Si atom -5582.939155 kJ/mol
# Density = 1.961312 g / cm^3
# Si number density = 19.657864 Si / 1000 Ang^3
#
#
#
# Elastic Constant Matrix: (Units=GPa)
#
#
# Indices 1 2 3 4 5 6 
#
# 1 82.8538 23.4332 18.8658 0.0000 0.0000 0.0000
# 2 23.4332 64.0437 7.2339 0.0000 0.0000 0.0000
# 3 18.8658 7.2339 62.3718 0.0000 0.0000 0.0000
# 4 0.0000 0.0000 0.0000 17.0413 0.0000 0.0000
# 5 0.0000 0.0000 0.0000 0.0000 45.8214 0.0000
# 6 0.0000 0.0000 0.0000 0.0000 0.0000 21.4177
#
#
#
# Elastic Compliance Matrix: (Units=1/GPa)
#
#
# Indices 1 2 3 4 5 6 
#
# 1 0.014284 -0.004801 -0.003764 0.000000 0.000000 0.000000
# 2 -0.004801 0.017436 -0.000570 0.000000 0.000000 0.000000
# 3 -0.003764 -0.000570 0.017237 0.000000 0.000000 0.000000
# 4 0.000000 0.000000 0.000000 0.058681 0.000000 0.000000
# 5 0.000000 0.000000 0.000000 0.000000 0.021824 0.000000
# 6 0.000000 0.000000 0.000000 0.000000 0.000000 0.046690
#
#
# Mechanical properties :
#
#
# Convention : Reuss Voigt Hill
#
# Bulk Modulus (GPa) = 32.58689 34.25945 33.42317
# Shear Modulus (GPa) = 24.43172 27.50517 25.96844
#
# Velocity S-wave (km/s) = 3.52923 3.74464 3.63853
# Velocity P-wave (km/s) = 5.76370 6.01349 5.88992
#
# Compressibility (1/GPa) = 0.03068719
#
# Stress axis : x y z
#
# Youngs Moduli (GPa) = 70.00623 57.35412 58.01326
#
# Poissons Ratio (x) = 0.27538 0.21835
# Poissons Ratio (y) = 0.33613 0.03306
# Poissons Ratio (z) = 0.26349 0.03268
#
# Static dielectric constant tensor:
#      x y z
#    x 1.726630 0.000000 0.000000 
#    y 0.000000 1.685050 0.000000 
#    z 0.000000 0.000000 1.720520 
# 
# From -- ./inp_files/8091.got.cif
#   From: 2010.05.17/outbox.cif.g08.bks.cpg/sg62_5_cif.got.tgz:8091.got - 2010.06.03 15:25:27.
