data_PCOD9467251
_publ_section_title
;
Structure prediction by ZEFSAII (Michael W. Deem and Ramdas Pophale) SiO2 
 PCOD9467251
Probable space group: P N M A
;
_chemical_formula_sum "Si O2"
_cell_formula_units_Z 36
_cell_length_a 15.813759
_cell_length_b 19.294473
_cell_length_c 5.072450
_cell_angle_alpha 90.000000
_cell_angle_beta 90.000000
_cell_angle_gamma 90.000000
_cell_volume 1547.696540
_symmetry_space_group_name_H-M "P N M A"
_symmetry_group_IT_number 62
_symmetry_cell_setting 'orthorhombic'
loop_
_space_group_symop_operation_xyz
x,y,z
1/2-x,-y,1/2+z
1/2+x,1/2-y,1/2-z
-x,1/2+y,-z
-x,-y,-z
1/2+x,y,1/2-z
1/2-x,1/2+y,1/2+z
x,1/2-y,z
loop_
_atom_site_type_symbol
_atom_site_label
_atom_site_fract_x
_atom_site_fract_y
_atom_site_fract_z
Si Si1 0.284074 0.858711 0.800318
Si Si2 0.327257 0.250000 0.981290
Si Si3 0.577903 0.880523 0.250311
Si Si4 0.883709 0.622981 0.200149
Si Si5 0.356435 0.459574 0.248126
O O1 0.213522 0.809181 0.680678
O O2 0.360892 0.853945 0.593790
O O3 0.240486 0.934551 0.786196
O O4 0.318398 0.843733 0.091068
O O5 0.368544 0.311631 0.797872
O O6 0.479433 0.862365 0.222389
O O7 0.592939 0.916365 0.530915
O O8 0.607877 0.936070 0.033198
O O9 0.869188 0.540663 0.215482
#
# Coordination Sequence:
#
# PCOD9467251 Si02
#       5
#     8   4   8   8   8
#     4  11  24  40  65  93 134 176 221 283 336 415
#     4  10  26  46  62  92 134 186 228 264 352 418
#     4  11  24  41  67  93 133 178 221 282 338 419
#     4  12  23  41  67 102 127 169 229 289 342 397
#     4  11  22  42  66  97 133 173 218 280 357 413
#
# _framework density 23.260370999999999
#
# number of rings (size 3 to 8) (size 9 to 14) (size 15 to 20)
#    0.000    0.889    0.000    8.000    0.000    9.778 
#    0.000    0.000    0.000    0.000    0.000    0.000 
#    0.000    0.000    0.000    0.000    0.000    0.000 
#
# Total GULP energy -200664.691783 kJ/mol
# GULP energy per Si atom -5574.019216 kJ/mol
# Density = 2.320743 g / cm^3
# Si number density = 23.260371 Si / 1000 Ang^3
#
#
#
# Elastic Constant Matrix: (Units=GPa)
#
#
# Indices 1 2 3 4 5 6 
#
# 1 94.1426 -16.9183 14.4275 0.0000 0.0000 0.0000
# 2 -16.9183 88.6028 -1.2098 0.0000 0.0000 0.0000
# 3 14.4275 -1.2098 42.1366 0.0000 0.0000 0.0000
# 4 0.0000 0.0000 0.0000 22.7560 0.0000 0.0000
# 5 0.0000 0.0000 0.0000 0.0000 33.3850 0.0000
# 6 0.0000 0.0000 0.0000 0.0000 0.0000 -14.3149
#
#
#
# Elastic Compliance Matrix: (Units=1/GPa)
#
#
# Indices 1 2 3 4 5 6 
#
# 1 0.011611 0.002164 -0.003913 0.000000 0.000000 0.000000
# 2 0.002164 0.011694 -0.000405 0.000000 0.000000 0.000000
# 3 -0.003913 -0.000405 0.025061 0.000000 0.000000 0.000000
# 4 0.000000 0.000000 0.000000 0.043944 0.000000 0.000000
# 5 0.000000 0.000000 0.000000 0.000000 0.029954 0.000000
# 6 0.000000 0.000000 0.000000 0.000000 0.000000 -0.069857
#
#
# Mechanical properties :
#
#
# Convention : Reuss Voigt Hill
#
# Bulk Modulus (GPa) = 22.69863 24.16456 23.43159
# Shear Modulus (GPa) = 70.02683 23.60404 46.81544
#
# Velocity S-wave (km/s) = 5.49281 3.18901 4.49115
# Velocity P-wave (km/s) = 7.07161 4.89602 6.08189
#
# Compressibility (1/GPa) = 0.04405553
#
# Stress axis : x y z
#
# Youngs Moduli (GPa) = 86.12725 85.51453 39.90322
#
# Poissons Ratio (x) = -0.18502 0.15616
# Poissons Ratio (y) = -0.18634 0.01616
# Poissons Ratio (z) = 0.33705 0.03464
#
# Static dielectric constant tensor:
#      x y z
#    x 1.893240 0.000000 0.000000 
#    y 0.000000 1.734700 0.000000 
#    z 0.000000 0.000000 1.839270 
# 
# From -- ./inp_files/971.got.cif
#   From: 2010.05.17/outbox.cif.g08.bks.cpg/sg62_1_cif.got.tgz:971.got - 2010.06.03 15:25:27.
