data_PCOD9467044
_publ_section_title
;
Structure prediction by ZEFSAII (Michael W. Deem and Ramdas Pophale) SiO2 
 PCOD9467044
Probable space group: P N M A
;
_chemical_formula_sum "Si O2"
_cell_formula_units_Z 60
_cell_length_a 18.171325
_cell_length_b 9.547802
_cell_length_c 16.826968
_cell_angle_alpha 90.000000
_cell_angle_beta 90.000000
_cell_angle_gamma 90.000000
_cell_volume 2919.415227
_symmetry_space_group_name_H-M "P N M A"
_symmetry_group_IT_number 62
_symmetry_cell_setting 'orthorhombic'
loop_
_space_group_symop_operation_xyz
x,y,z
1/2-x,-y,1/2+z
1/2+x,1/2-y,1/2-z
-x,1/2+y,-z
-x,-y,-z
1/2+x,y,1/2-z
1/2-x,1/2+y,1/2+z
x,1/2-y,z
loop_
_atom_site_type_symbol
_atom_site_label
_atom_site_fract_x
_atom_site_fract_y
_atom_site_fract_z
Si Si1 0.672895 0.415404 0.282214
Si Si2 0.520141 0.750000 0.474365
Si Si3 0.666201 0.916658 0.726801
Si Si4 0.705570 0.409005 0.466026
Si Si5 0.417336 0.413736 0.830871
Si Si6 0.074060 0.484896 0.923333
Si Si7 0.338003 0.586440 0.969011
Si Si8 0.590638 0.091366 0.859861
O O1 0.655031 0.250000 0.276112
O O2 0.746253 0.443518 0.230052
O O3 0.692322 0.444098 0.373888
O O4 0.608122 0.511134 0.249685
O O5 0.490968 0.625845 0.413276
O O6 0.545548 0.872362 0.538153
O O7 0.656250 0.750000 0.723762
O O8 0.622479 0.986152 0.654468
O O9 0.633812 0.979370 0.807841
O O10 0.735538 0.250000 0.470121
O O11 0.628382 0.414018 0.511761
O O12 0.760358 0.518498 0.506488
O O13 0.397181 0.250000 0.830986
O O14 0.504142 0.425118 0.845767
O O15 0.375610 0.497529 0.900188
O O16 0.329581 0.750000 0.946895
O O17 0.388222 0.577845 0.047970
O O18 0.612166 0.250000 0.835305
#
# Coordination Sequence:
#
# PCOD9467044 Si02
#       8
#     8   4   8   8   8   8   8   8
#     4  10  23  43  64  95 132 165 216 270 320 387
#     4  10  24  42  60  88 130 162 220 268 318 376
#     4  11  23  42  67  92 127 171 216 260 322 389
#     4  11  23  42  67  95 129 170 215 272 328 383
#     4  11  24  42  64  97 130 169 212 263 324 384
#     4  11  23  43  64  95 126 176 217 268 321 388
#     4  11  23  41  68  96 129 168 217 266 319 388
#     4  10  24  43  64  97 133 168 213 263 324 383
#
# _framework density 20.552060999999998
#
# number of rings (size 3 to 8) (size 9 to 14) (size 15 to 20)
#    0.000    1.333    2.667    2.000    1.867    5.867 
#    2.400    0.000    0.000    0.000    0.000    0.000 
#    0.000    0.000    0.000    0.000    0.000    0.000 
#
# Total GULP energy -334501.546589 kJ/mol
# GULP energy per Si atom -5575.025776 kJ/mol
# Density = 2.050528 g / cm^3
# Si number density = 20.552061 Si / 1000 Ang^3
#
#
#
# Elastic Constant Matrix: (Units=GPa)
#
#
# Indices 1 2 3 4 5 6 
#
# 1 30.1025 23.0181 5.6713 0.0000 0.0000 0.0000
# 2 23.0181 89.3119 12.9845 0.0000 0.0000 0.0000
# 3 5.6713 12.9845 45.4876 0.0000 0.0000 0.0000
# 4 0.0000 0.0000 0.0000 22.0784 0.0000 0.0000
# 5 0.0000 0.0000 0.0000 0.0000 11.8755 0.0000
# 6 0.0000 0.0000 0.0000 0.0000 0.0000 27.8252
#
#
#
# Elastic Compliance Matrix: (Units=1/GPa)
#
#
# Indices 1 2 3 4 5 6 
#
# 1 0.041587 -0.010396 -0.002217 0.000000 0.000000 0.000000
# 2 -0.010396 0.014280 -0.002780 0.000000 0.000000 0.000000
# 3 -0.002217 -0.002780 0.023054 0.000000 0.000000 0.000000
# 4 0.000000 0.000000 0.000000 0.045293 0.000000 0.000000
# 5 0.000000 0.000000 0.000000 0.000000 0.084207 0.000000
# 6 0.000000 0.000000 0.000000 0.000000 0.000000 0.035939
#
#
# Mechanical properties :
#
#
# Convention : Reuss Voigt Hill
#
# Bulk Modulus (GPa) = 20.77519 27.58331 24.17925
# Shear Modulus (GPa) = 17.17086 20.57104 18.87095
#
# Velocity S-wave (km/s) = 2.89361 3.16717 3.03347
# Velocity P-wave (km/s) = 4.61459 5.17928 4.90507
#
# Compressibility (1/GPa) = 0.04813434
#
# Stress axis : x y z
#
# Youngs Moduli (GPa) = 24.04614 70.02734 43.37629
#
# Poissons Ratio (x) = 0.72798 0.09619
# Poissons Ratio (y) = 0.24997 0.12059
# Poissons Ratio (z) = 0.05332 0.19469
#
# Static dielectric constant tensor:
#      x y z
#    x 1.755790 0.000000 0.000000 
#    y 0.000000 1.692380 0.000000 
#    z 0.000000 0.000000 1.743930 
# 
# From -- ./inp_files/24398.got.cif
#   From: 2010.05.17/outbox.cif.g08.bks.cpg/sg62_13_cif.got.tgz:24398.got - 2010.06.03 15:25:27.
