data_PCOD9467028
_publ_section_title
;
Structure prediction by ZEFSAII (Michael W. Deem and Ramdas Pophale) SiO2 
 PCOD9467028
Probable space group: P N M A
;
_chemical_formula_sum "Si O2"
_cell_formula_units_Z 64
_cell_length_a 23.261130
_cell_length_b 13.618530
_cell_length_c 9.965884
_cell_angle_alpha 90.000000
_cell_angle_beta 90.000000
_cell_angle_gamma 90.000000
_cell_volume 3157.016619
_symmetry_space_group_name_H-M "P N M A"
_symmetry_group_IT_number 62
_symmetry_cell_setting 'orthorhombic'
loop_
_space_group_symop_operation_xyz
x,y,z
1/2-x,-y,1/2+z
1/2+x,1/2-y,1/2-z
-x,1/2+y,-z
-x,-y,-z
1/2+x,y,1/2-z
1/2-x,1/2+y,1/2+z
x,1/2-y,z
loop_
_atom_site_type_symbol
_atom_site_label
_atom_site_fract_x
_atom_site_fract_y
_atom_site_fract_z
Si Si1 0.362923 0.132613 0.902480
Si Si2 0.504430 0.868671 0.054964
Si Si3 0.194705 0.512223 0.642909
Si Si4 0.409263 0.867442 0.565231
Si Si5 0.015088 0.869452 0.749283
Si Si6 0.326128 0.035838 0.629372
Si Si7 0.640998 0.866640 0.643323
Si Si8 0.099429 0.367316 0.746731
O O1 0.356226 0.250000 0.922274
O O2 0.335779 0.096042 0.764662
O O3 0.430799 0.109539 0.900522
O O4 0.334004 0.072517 0.022378
O O5 0.500682 0.750000 0.051232
O O6 0.497451 0.902168 0.900582
O O7 0.455674 0.899325 0.159400
O O8 0.258727 0.480710 0.607907
O O9 0.191516 0.584167 0.770983
O O10 0.154972 0.421225 0.687382
O O11 0.401605 0.750000 0.584002
O O12 0.468490 0.897635 0.638724
O O13 0.409353 0.886486 0.405275
O O14 0.358648 0.931308 0.630401
O O15 0.015566 0.750000 0.746589
O O16 0.080054 0.897191 0.789502
O O17 0.354289 0.095571 0.507258
O O18 0.644457 0.750000 0.648475
O O19 0.105981 0.250000 0.733157
#
# Coordination Sequence:
#
# PCOD9467028 Si02
#       8
#     8   8   8   8   8   8   8   8
#     4  11  25  44  69  97 131 171 216 275 333 383
#     4   9  19  39  65  98 130 166 217 267 328 395
#     4  12  25  46  65  95 129 173 229 266 315 393
#     4  10  23  43  66  96 135 176 213 269 332 383
#     4   9  19  38  66  98 130 166 216 268 326 397
#     4  12  27  44  63  99 131 172 228 269 310 395
#     4  11  23  44  69  94 129 169 216 276 332 379
#     4  10  23  42  67  97 135 173 213 273 331 382
#
# _framework density 20.272303999999998
#
# number of rings (size 3 to 8) (size 9 to 14) (size 15 to 20)
#    0.000    1.500    2.500    1.500    3.500    4.000 
#    0.000    0.000    0.000    0.000    0.000    0.000 
#    0.000    0.000    0.000    0.000    0.000    0.000 
#
# Total GULP energy -357922.463696 kJ/mol
# GULP energy per Si atom -5592.538495 kJ/mol
# Density = 2.022616 g / cm^3
# Si number density = 20.272304 Si / 1000 Ang^3
#
#
#
# Elastic Constant Matrix: (Units=GPa)
#
#
# Indices 1 2 3 4 5 6 
#
# 1 116.7248 30.0811 23.0709 0.0000 0.0000 0.0000
# 2 30.0811 81.1032 15.3427 0.0000 0.0000 0.0000
# 3 23.0709 15.3427 71.8231 0.0000 0.0000 0.0000
# 4 0.0000 0.0000 0.0000 27.9153 0.0000 0.0000
# 5 0.0000 0.0000 0.0000 0.0000 22.8555 0.0000
# 6 0.0000 0.0000 0.0000 0.0000 0.0000 14.4059
#
#
#
# Elastic Compliance Matrix: (Units=1/GPa)
#
#
# Indices 1 2 3 4 5 6 
#
# 1 0.009883 -0.003194 -0.002492 0.000000 0.000000 0.000000
# 2 -0.003194 0.013882 -0.001939 0.000000 0.000000 0.000000
# 3 -0.002492 -0.001939 0.015138 0.000000 0.000000 0.000000
# 4 0.000000 0.000000 0.000000 0.035823 0.000000 0.000000
# 5 0.000000 0.000000 0.000000 0.000000 0.043753 0.000000
# 6 0.000000 0.000000 0.000000 0.000000 0.000000 0.069416
#
#
# Mechanical properties :
#
#
# Convention : Reuss Voigt Hill
#
# Bulk Modulus (GPa) = 42.28154 45.18229 43.73192
# Shear Modulus (GPa) = 23.69341 26.44577 25.06959
#
# Velocity S-wave (km/s) = 3.42242 3.61574 3.52041
# Velocity P-wave (km/s) = 6.04312 6.30615 6.17604
#
# Compressibility (1/GPa) = 0.02365098
#
# Stress axis : x y z
#
# Youngs Moduli (GPa) = 101.18485 72.03823 66.05921
#
# Poissons Ratio (x) = 0.23010 0.16464
# Poissons Ratio (y) = 0.32319 0.12811
# Poissons Ratio (z) = 0.25218 0.13971
#
# Static dielectric constant tensor:
#      x y z
#    x 1.676010 0.000000 0.000000 
#    y 0.000000 1.750360 0.000000 
#    z 0.000000 0.000000 1.705600 
# 
# From -- ./inp_files/9527.got.cif
#   From: 2010.05.17/outbox.cif.g08.bks.cpg/sg62_5_cif.got.tgz:9527.got - 2010.06.03 15:25:27.
