data_PCOD9467601
_publ_section_title
;
Structure prediction by ZEFSAII (Michael W. Deem and Ramdas Pophale) SiO2 
 PCOD9467601
Probable space group: P N M A
;
_chemical_formula_sum "Si O2"
_cell_formula_units_Z 24
_cell_length_a 13.845048
_cell_length_b 13.643376
_cell_length_c 4.915320
_cell_angle_alpha 90.000000
_cell_angle_beta 90.000000
_cell_angle_gamma 90.000000
_cell_volume 928.470502
_symmetry_space_group_name_H-M "P N M A"
_symmetry_group_IT_number 62
_symmetry_cell_setting 'orthorhombic'
loop_
_space_group_symop_operation_xyz
x,y,z
1/2-x,-y,1/2+z
1/2+x,1/2-y,1/2-z
-x,1/2+y,-z
-x,-y,-z
1/2+x,y,1/2-z
1/2-x,1/2+y,1/2+z
x,1/2-y,z
loop_
_atom_site_type_symbol
_atom_site_label
_atom_site_fract_x
_atom_site_fract_y
_atom_site_fract_z
Si Si1 0.860869 0.051516 0.063463
Si Si2 0.834747 0.860667 0.720182
Si Si3 0.459746 0.361765 0.936239
O O1 0.939280 0.102484 0.867034
O O2 0.844529 0.942660 0.953460
O O3 0.759918 0.109339 0.050574
O O4 0.899280 0.067577 0.366431
O O5 0.824808 0.750000 0.828470
O O6 0.930612 0.862601 0.536524
O O7 0.424549 0.250000 0.966660
#
# Coordination Sequence:
#
# PCOD9467601 Si02
#       3
#     8   8   8
#     4  12  25  47  73 104 144 185 234 290 349 417
#     4  11  26  47  73 105 142 187 237 290 352 418
#     4  11  25  46  74 107 143 184 232 288 351 419
#
# _framework density 25.848965
#
# number of rings (size 3 to 8) (size 9 to 14) (size 15 to 20)
#    0.000    0.667    0.000    7.000    0.000    5.333 
#    0.000   21.667    0.000    2.000    0.000    0.000 
#    0.000    0.000    0.000    0.000    0.000    0.000 
#
# Total GULP energy -134872.513467 kJ/mol
# GULP energy per Si atom -5619.688061 kJ/mol
# Density = 2.579013 g / cm^3
# Si number density = 25.848965 Si / 1000 Ang^3
#
#
#
# Elastic Constant Matrix: (Units=GPa)
#
#
# Indices 1 2 3 4 5 6 
#
# 1 132.3851 17.9216 -4.9349 0.0000 0.0000 0.0000
# 2 17.9216 238.6819 15.8211 0.0000 0.0000 0.0000
# 3 -4.9349 15.8211 68.5657 0.0000 0.0000 0.0000
# 4 0.0000 0.0000 0.0000 20.8695 0.0000 0.0000
# 5 0.0000 0.0000 0.0000 0.0000 28.2536 0.0000
# 6 0.0000 0.0000 0.0000 0.0000 0.0000 36.2248
#
#
#
# Elastic Compliance Matrix: (Units=1/GPa)
#
#
# Indices 1 2 3 4 5 6 
#
# 1 0.007664 -0.000622 0.000695 0.000000 0.000000 0.000000
# 2 -0.000622 0.004305 -0.001038 0.000000 0.000000 0.000000
# 3 0.000695 -0.001038 0.014874 0.000000 0.000000 0.000000
# 4 0.000000 0.000000 0.000000 0.047917 0.000000 0.000000
# 5 0.000000 0.000000 0.000000 0.000000 0.035394 0.000000
# 6 0.000000 0.000000 0.000000 0.000000 0.000000 0.027605
#
#
# Mechanical properties :
#
#
# Convention : Reuss Voigt Hill
#
# Bulk Modulus (GPa) = 40.13846 55.24982 47.69414
# Shear Modulus (GPa) = 33.78544 44.45790 39.12167
#
# Velocity S-wave (km/s) = 3.61921 4.15168 3.89456
# Velocity P-wave (km/s) = 5.74689 6.66351 6.22210
#
# Compressibility (1/GPa) = 0.02491376
#
# Stress axis : x y z
#
# Youngs Moduli (GPa) = 130.48417 232.27962 67.23090
#
# Poissons Ratio (x) = 0.14436 -0.04672
# Poissons Ratio (y) = 0.08110 0.06979
# Poissons Ratio (z) = -0.09069 0.24113
#
# Static dielectric constant tensor:
#      x y z
#    x 2.026530 0.000000 0.000000 
#    y 0.000000 2.017150 0.000000 
#    z 0.000000 0.000000 1.946390 
# 
# From -- ./inp_files/796.got.cif
#   From: 2010.05.17/outbox.cif.g08.bks.cpg/sg62_1_cif.got.tgz:796.got - 2010.06.03 15:25:27.
