data_PCOD9467885
_publ_section_title
;
Structure prediction by ZEFSAII (Michael W. Deem and Ramdas Pophale) SiO2 
 PCOD9467885
Probable space group: P N M A
;
_chemical_formula_sum "Si O2"
_cell_formula_units_Z 64
_cell_length_a 21.000000
_cell_length_b 9.000000
_cell_length_c 18.000000
_cell_angle_alpha 90.000000
_cell_angle_beta 90.000000
_cell_angle_gamma 90.000000
_cell_volume 3402.000000
_symmetry_space_group_name_H-M "P N M A"
_symmetry_group_IT_number 62
_symmetry_cell_setting 'orthorhombic'
loop_
_space_group_symop_operation_xyz
x,y,z
1/2-x,-y,1/2+z
1/2+x,1/2-y,1/2-z
-x,1/2+y,-z
-x,-y,-z
1/2+x,y,1/2-z
1/2-x,1/2+y,1/2+z
x,1/2-y,z
loop_
_atom_site_type_symbol
_atom_site_label
_atom_site_fract_x
_atom_site_fract_y
_atom_site_fract_z
Si Si1 0.410109 0.420340 0.058032
Si Si2 0.453568 0.570447 0.640409
Si Si3 0.733658 0.928643 0.916502
Si Si4 0.631322 0.428355 0.215445
Si Si5 0.773986 0.429696 0.240618
Si Si6 0.898692 0.429049 0.150500
Si Si7 0.136595 0.927914 0.020624
Si Si8 0.031807 0.919316 0.392323
O O1 0.407798 0.250000 0.086247
O O2 0.336843 0.473159 0.054145
O O3 0.461008 0.510947 0.106842
O O4 0.440848 0.419376 0.976238
O O5 0.454857 0.750000 0.631028
O O6 0.403370 0.536076 0.706413
O O7 0.526808 0.521888 0.658351
O O8 0.421431 0.496571 0.568404
O O9 0.740831 0.750000 0.926360
O O10 0.730113 0.960155 0.828428
O O11 0.795287 0.005723 0.952821
O O12 0.633177 0.250000 0.210005
O O13 0.704887 0.481934 0.209200
O O14 0.583207 0.491173 0.154744
O O15 0.774532 0.250000 0.231889
O O16 0.840513 0.483767 0.203755
O O17 0.901105 0.250000 0.160700
O O18 0.876498 0.459519 0.066126
O O19 0.137757 0.750000 0.030486
O O20 0.028616 0.750000 0.366087
#
# Coordination Sequence:
#
# PCOD9467885 Si02
#       8
#     8   8   8   8   8   8   8   8
#     4   9  20  37  58  83 109 146 193 233 275 330
#     4  10  20  38  61  83 108 147 198 237 272 327
#     4  10  20  37  61  82 107 146 192 233 268 324
#     4  10  20  34  57  83 108 147 193 231 275 330
#     4   9  18  35  56  81 108 139 186 235 273 321
#     4   9  20  35  57  86 112 141 184 237 284 329
#     4  11  22  36  56  84 117 149 179 226 294 344
#     4  10  21  36  54  82 118 148 181 231 287 337
#
# _framework density 18.812463000000001
#
# number of rings (size 3 to 8) (size 9 to 14) (size 15 to 20)
#    0.000    2.250    1.250    1.125    3.500    1.500 
#    0.000    0.625    0.000    2.250    0.000    0.000 
#    0.000    0.000    0.000    0.000    0.000    0.000 
#
# Total GULP energy -356854.495181 kJ/mol
# GULP energy per Si atom -5575.851487 kJ/mol
# Density = 1.876965 g / cm^3
# Si number density = 18.812463 Si / 1000 Ang^3
#
#
#
# Elastic Constant Matrix: (Units=GPa)
#
#
# Indices 1 2 3 4 5 6 
#
# 1 176.8829 28.3879 23.4003 0.0000 0.0000 0.0000
# 2 28.3879 11.5607 14.6455 0.0000 0.0000 0.0000
# 3 23.4003 14.6455 23.1106 0.0000 0.0000 0.0000
# 4 0.0000 0.0000 0.0000 19.4903 0.0000 0.0000
# 5 0.0000 0.0000 0.0000 0.0000 35.5077 0.0000
# 6 0.0000 0.0000 0.0000 0.0000 0.0000 25.7443
#
#
#
# Elastic Compliance Matrix: (Units=1/GPa)
#
#
# Indices 1 2 3 4 5 6 
#
# 1 0.013785 -0.081988 0.037999 0.000000 0.000000 0.000000
# 2 -0.081988 0.926311 -0.503998 0.000000 0.000000 0.000000
# 3 0.037999 -0.503998 0.324184 0.000000 0.000000 0.000000
# 4 0.000000 0.000000 0.000000 0.051308 0.000000 0.000000
# 5 0.000000 0.000000 0.000000 0.000000 0.028163 0.000000
# 6 0.000000 0.000000 0.000000 0.000000 0.000000 0.038843
#
#
# Mechanical properties :
#
#
# Convention : Reuss Voigt Hill
#
# Bulk Modulus (GPa) = 5.94157 38.26905 22.10531
# Shear Modulus (GPa) = 1.97264 25.82318 13.89791
#
# Velocity S-wave (km/s) = 1.02511 3.70897 2.72096
# Velocity P-wave (km/s) = 2.13690 6.22322 4.65268
#
# Compressibility (1/GPa) = 0.16830560
#
# Stress axis : x y z
#
# Youngs Moduli (GPa) = 72.54423 1.07955 3.08467
#
# Poissons Ratio (x) = 0.08851 -0.11722
# Poissons Ratio (y) = 5.94778 1.55467
# Poissons Ratio (z) = -2.75664 0.54409
#
# Static dielectric constant tensor:
#      x y z
#    x 1.656970 0.000000 0.000000 
#    y 0.000000 1.641730 0.000000 
#    z 0.000000 0.000000 1.672110 
# 
# From -- ./inp_files/24777.got.cif
#   From: 2010.05.17/outbox.ucp.g08.bks.cvg/sg62_13_cif.got.tgz:24777.got - 2010.06.11 16:29:25.
