data_PCOD9467108
_publ_section_title
;
Structure prediction by ZEFSAII (Michael W. Deem and Ramdas Pophale) SiO2 
 PCOD9467108
Probable space group: P N M A
;
_chemical_formula_sum "Si O2"
_cell_formula_units_Z 40
_cell_length_a 26.947272
_cell_length_b 12.700054
_cell_length_c 5.419375
_cell_angle_alpha 90.000000
_cell_angle_beta 90.000000
_cell_angle_gamma 90.000000
_cell_volume 1854.682513
_symmetry_space_group_name_H-M "P N M A"
_symmetry_group_IT_number 62
_symmetry_cell_setting 'orthorhombic'
loop_
_space_group_symop_operation_xyz
x,y,z
1/2-x,-y,1/2+z
1/2+x,1/2-y,1/2-z
-x,1/2+y,-z
-x,-y,-z
1/2+x,y,1/2-z
1/2-x,1/2+y,1/2+z
x,1/2-y,z
loop_
_atom_site_type_symbol
_atom_site_label
_atom_site_fract_x
_atom_site_fract_y
_atom_site_fract_z
Si Si1 0.840745 0.250000 0.119980
Si Si2 0.451441 0.872193 0.425836
Si Si3 0.724975 0.750000 0.128136
Si Si4 0.042230 0.968907 0.308069
Si Si5 0.880770 0.456833 0.327502
Si Si6 0.271460 0.538335 0.200358
O O1 0.803179 0.250000 0.362595
O O2 0.872586 0.356617 0.152689
O O3 0.813836 0.250000 0.855995
O O4 0.441282 0.750000 0.392262
O O5 0.509976 0.896664 0.376262
O O6 0.415771 0.949916 0.272846
O O7 0.441847 0.919235 0.695273
O O8 0.759607 0.850718 0.171830
O O9 0.089824 0.917314 0.431673
O O10 0.000000 0.000000 0.500000
O O11 0.827307 0.507832 0.369427
O O12 0.256566 0.464408 0.435269
#
# Coordination Sequence:
#
# PCOD9467108 Si02
#       6
#     4   8   4   8   8   8
#     4  12  26  44  76  99 146 186 249 284 352 418
#     4  10  23  45  69 101 138 178 231 297 359 433
#     4  12  24  48  66 105 138 198 229 302 344 414
#     4   9  22  45  66  97 135 177 232 287 363 419
#     4  11  25  43  69 105 133 188 230 297 348 429
#     4  12  25  45  70 101 145 184 238 291 351 416
#
# _framework density 21.567032000000001
#
# number of rings (size 3 to 8) (size 9 to 14) (size 15 to 20)
#    0.000    1.200    4.000    0.000    8.400    3.200 
#   14.400    0.000    0.000    0.000    0.000    0.000 
#    0.000    0.000    0.000    0.000    0.000    0.000 
#
# Total GULP energy -222947.514650 kJ/mol
# GULP energy per Si atom -5573.687866 kJ/mol
# Density = 2.151794 g / cm^3
# Si number density = 21.567032 Si / 1000 Ang^3
#
#
#
# Elastic Constant Matrix: (Units=GPa)
#
#
# Indices 1 2 3 4 5 6 
#
# 1 100.5685 6.1706 19.7509 0.0000 0.0000 0.0000
# 2 6.1706 94.6199 -20.5015 0.0000 0.0000 0.0000
# 3 19.7509 -20.5015 75.8664 0.0000 0.0000 0.0000
# 4 0.0000 0.0000 0.0000 27.7176 0.0000 0.0000
# 5 0.0000 0.0000 0.0000 0.0000 26.6306 0.0000
# 6 0.0000 0.0000 0.0000 0.0000 0.0000 27.3853
#
#
#
# Elastic Compliance Matrix: (Units=1/GPa)
#
#
# Indices 1 2 3 4 5 6 
#
# 1 0.010645 -0.001375 -0.003143 0.000000 0.000000 0.000000
# 2 -0.001375 0.011404 0.003440 0.000000 0.000000 0.000000
# 3 -0.003143 0.003440 0.014929 0.000000 0.000000 0.000000
# 4 0.000000 0.000000 0.000000 0.036078 0.000000 0.000000
# 5 0.000000 0.000000 0.000000 0.000000 0.037551 0.000000
# 6 0.000000 0.000000 0.000000 0.000000 0.000000 0.036516
#
#
# Mechanical properties :
#
#
# Convention : Reuss Voigt Hill
#
# Bulk Modulus (GPa) = 28.71882 31.32164 30.02023
# Shear Modulus (GPa) = 31.07787 34.05569 32.56678
#
# Velocity S-wave (km/s) = 3.80016 3.97805 3.89012
# Velocity P-wave (km/s) = 5.70963 5.97112 5.84184
#
# Compressibility (1/GPa) = 0.03482037
#
# Stress axis : x y z
#
# Youngs Moduli (GPa) = 93.93993 87.69201 66.98471
#
# Poissons Ratio (x) = 0.12059 0.21053
# Poissons Ratio (y) = 0.12919 -0.23040
# Poissons Ratio (z) = 0.29525 -0.30163
#
# Static dielectric constant tensor:
#      x y z
#    x 1.789580 0.000000 0.000000 
#    y 0.000000 1.828840 0.000000 
#    z 0.000000 0.000000 1.989580 
# 
# From -- ./inp_files/3062.got.cif
#   From: 2010.05.17/outbox.cif.g08.bks.cpg/sg62_2_cif.got.tgz:3062.got - 2010.06.03 15:25:27.
