data_PCOD9467613
_publ_section_title
;
Structure prediction by ZEFSAII (Michael W. Deem and Ramdas Pophale) SiO2 
 PCOD9467613
Probable space group: P N M A
;
_chemical_formula_sum "Si O2"
_cell_formula_units_Z 32
_cell_length_a 26.706264
_cell_length_b 10.438070
_cell_length_c 5.065214
_cell_angle_alpha 90.000000
_cell_angle_beta 90.000000
_cell_angle_gamma 90.000000
_cell_volume 1411.988441
_symmetry_space_group_name_H-M "P N M A"
_symmetry_group_IT_number 62
_symmetry_cell_setting 'orthorhombic'
loop_
_space_group_symop_operation_xyz
x,y,z
1/2-x,-y,1/2+z
1/2+x,1/2-y,1/2-z
-x,1/2+y,-z
-x,-y,-z
1/2+x,y,1/2-z
1/2-x,1/2+y,1/2+z
x,1/2-y,z
loop_
_atom_site_type_symbol
_atom_site_label
_atom_site_fract_x
_atom_site_fract_y
_atom_site_fract_z
Si Si1 0.348973 0.968809 0.968458
Si Si2 0.585603 0.462299 0.547020
Si Si3 0.506392 0.614844 0.792835
Si Si4 0.733489 0.250000 0.996537
Si Si5 0.194435 0.750000 0.508141
O O1 0.460581 0.888787 0.587309
O O2 0.301428 0.876238 0.999387
O O3 0.372006 0.965479 0.675609
O O4 0.336334 0.117432 0.024230
O O5 0.557505 0.592944 0.631100
O O6 0.500000 0.500000 0.000000
O O7 0.610602 0.417756 0.818872
O O8 0.507395 0.750000 0.935639
O O9 0.766435 0.250000 0.256193
O O10 0.772148 0.250000 0.755801
#
# Coordination Sequence:
#
# PCOD9467613 Si02
#       5
#     8   8   8   4   4
#     4  12  26  44  76 103 142 181 246 288 350 442
#     4  11  26  45  68 111 140 193 234 289 350 417
#     4  11  26  47  74 104 157 191 240 300 358 427
#     4  12  26  48  72 103 140 183 230 302 370 420
#     4  12  26  48  72 103 140 183 230 302 370 420
#
# _framework density 22.663077000000001
#
# number of rings (size 3 to 8) (size 9 to 14) (size 15 to 20)
#    0.000    0.500    2.500    4.500    7.000    4.000 
#    0.000    0.000    0.000    0.000    0.000    0.000 
#    0.000    0.000    0.000    0.000    0.000    0.000 
#
# Total GULP energy -178964.033213 kJ/mol
# GULP energy per Si atom -5592.626038 kJ/mol
# Density = 2.261149 g / cm^3
# Si number density = 22.663077 Si / 1000 Ang^3
#
#
#
# Elastic Constant Matrix: (Units=GPa)
#
#
# Indices 1 2 3 4 5 6 
#
# 1 61.0011 2.0750 23.8747 0.0000 0.0000 0.0000
# 2 2.0750 140.0568 20.7001 0.0000 0.0000 0.0000
# 3 23.8747 20.7001 141.8525 0.0000 0.0000 0.0000
# 4 0.0000 0.0000 0.0000 18.6603 0.0000 0.0000
# 5 0.0000 0.0000 0.0000 0.0000 55.4592 0.0000
# 6 0.0000 0.0000 0.0000 0.0000 0.0000 -30.7812
#
#
#
# Elastic Compliance Matrix: (Units=1/GPa)
#
#
# Indices 1 2 3 4 5 6 
#
# 1 0.017554 0.000180 -0.002981 0.000000 0.000000 0.000000
# 2 0.000180 0.007299 -0.001096 0.000000 0.000000 0.000000
# 3 -0.002981 -0.001096 0.007711 0.000000 0.000000 0.000000
# 4 0.000000 0.000000 0.000000 0.053590 0.000000 0.000000
# 5 0.000000 0.000000 0.000000 0.000000 0.018031 0.000000
# 6 0.000000 0.000000 0.000000 0.000000 0.000000 -0.032487
#
#
# Mechanical properties :
#
#
# Convention : Reuss Voigt Hill
#
# Bulk Modulus (GPa) = 40.36755 48.46779 44.41767
# Shear Modulus (GPa) = 56.98237 28.41838 42.70038
#
# Velocity S-wave (km/s) = 5.01975 3.54496 4.34538
# Velocity P-wave (km/s) = 7.17271 6.17967 6.69463
#
# Compressibility (1/GPa) = 0.02477237
#
# Stress axis : x y z
#
# Youngs Moduli (GPa) = 56.96838 137.00125 129.68290
#
# Poissons Ratio (x) = -0.02473 0.38655
# Poissons Ratio (y) = -0.01028 0.14207
# Poissons Ratio (z) = 0.16981 0.15009
#
# Static dielectric constant tensor:
#      x y z
#    x 1.826230 0.000000 0.000000 
#    y 0.000000 1.865440 0.000000 
#    z 0.000000 0.000000 1.788030 
# 
# From -- ./inp_files/1983.got.cif
#   From: 2010.05.17/outbox.cif.g08.bks.cpg/sg62_1_cif.got.tgz:1983.got - 2010.06.03 15:25:27.
