data_PCOD9467138
_publ_section_title
;
Structure prediction by ZEFSAII (Michael W. Deem and Ramdas Pophale) SiO2 
 PCOD9467138
Probable space group: P N M A
;
_chemical_formula_sum "Si O2"
_cell_formula_units_Z 36
_cell_length_a 19.699786
_cell_length_b 9.527062
_cell_length_c 9.055509
_cell_angle_alpha 90.000000
_cell_angle_beta 90.000000
_cell_angle_gamma 90.000000
_cell_volume 1699.547733
_symmetry_space_group_name_H-M "P N M A"
_symmetry_group_IT_number 62
_symmetry_cell_setting 'orthorhombic'
loop_
_space_group_symop_operation_xyz
x,y,z
1/2-x,-y,1/2+z
1/2+x,1/2-y,1/2-z
-x,1/2+y,-z
-x,-y,-z
1/2+x,y,1/2-z
1/2-x,1/2+y,1/2+z
x,1/2-y,z
loop_
_atom_site_type_symbol
_atom_site_label
_atom_site_fract_x
_atom_site_fract_y
_atom_site_fract_z
Si Si1 0.192175 0.405733 0.447147
Si Si2 0.936046 0.537276 0.350486
Si Si3 0.819890 0.087308 0.835574
Si Si4 0.930489 0.585671 0.014629
Si Si5 0.028860 0.750000 0.507191
O O1 0.197276 0.250000 0.377803
O O2 0.121133 0.415506 0.532792
O O3 0.252636 0.419538 0.564241
O O4 0.195207 0.525877 0.325405
O O5 0.910620 0.571137 0.186657
O O6 0.002503 0.627572 0.389759
O O7 0.950113 0.374387 0.375822
O O8 0.841803 0.250000 0.826171
O O9 0.876141 0.989926 0.910758
O O10 0.937854 0.750000 0.977491
O O11 0.000000 0.500000 0.000000
#
# Coordination Sequence:
#
# PCOD9467138 Si02
#       5
#     8   8   8   8   4
#     4  11  24  46  71  96 135 176 225 275 333 403
#     4  11  24  43  68  98 134 176 221 279 328 402
#     4  11  27  45  69 101 133 178 226 276 339 398
#     4  12  27  45  68  99 140 178 223 280 336 399
#     4  10  24  40  70  98 134 170 228 266 342 390
#
# _framework density 21.182105
#
# number of rings (size 3 to 8) (size 9 to 14) (size 15 to 20)
#    0.000    0.889    2.222    2.667   10.889    3.556 
#    0.000    0.000    0.000    0.000    0.000    0.000 
#    0.000    0.000    0.000    0.000    0.000    0.000 
#
# Total GULP energy -200460.061659 kJ/mol
# GULP energy per Si atom -5568.335046 kJ/mol
# Density = 2.113389 g / cm^3
# Si number density = 21.182105 Si / 1000 Ang^3
#
#
#
# Elastic Constant Matrix: (Units=GPa)
#
#
# Indices 1 2 3 4 5 6 
#
# 1 41.2859 27.7120 14.5448 0.0000 0.0000 0.0000
# 2 27.7120 222.8193 45.1253 0.0000 0.0000 0.0000
# 3 14.5448 45.1253 89.0374 0.0000 0.0000 0.0000
# 4 0.0000 0.0000 0.0000 30.3481 0.0000 0.0000
# 5 0.0000 0.0000 0.0000 0.0000 28.1197 0.0000
# 6 0.0000 0.0000 0.0000 0.0000 0.0000 21.1132
#
#
#
# Elastic Compliance Matrix: (Units=1/GPa)
#
#
# Indices 1 2 3 4 5 6 
#
# 1 0.027144 -0.002761 -0.003035 0.000000 0.000000 0.000000
# 2 -0.002761 0.005282 -0.002226 0.000000 0.000000 0.000000
# 3 -0.003035 -0.002226 0.012855 0.000000 0.000000 0.000000
# 4 0.000000 0.000000 0.000000 0.032951 0.000000 0.000000
# 5 0.000000 0.000000 0.000000 0.000000 0.035562 0.000000
# 6 0.000000 0.000000 0.000000 0.000000 0.000000 0.047364
#
#
# Mechanical properties :
#
#
# Convention : Reuss Voigt Hill
#
# Bulk Modulus (GPa) = 34.20289 58.65630 46.42959
# Shear Modulus (GPa) = 26.74543 33.63357 30.18950
#
# Velocity S-wave (km/s) = 3.55722 3.98908 3.77933
# Velocity P-wave (km/s) = 5.74925 6.99775 6.40400
#
# Compressibility (1/GPa) = 0.02923730
#
# Stress axis : x y z
#
# Youngs Moduli (GPa) = 36.84067 189.31607 77.78992
#
# Poissons Ratio (x) = 0.52276 0.23607
# Poissons Ratio (y) = 0.10173 0.17316
# Poissons Ratio (z) = 0.11180 0.42142
#
# Static dielectric constant tensor:
#      x y z
#    x 1.791660 0.000000 0.000000 
#    y 0.000000 1.748900 0.000000 
#    z 0.000000 0.000000 1.762620 
# 
# From -- ./inp_files/8316.got.cif
#   From: 2010.05.17/outbox.cif.g08.bks.cpg/sg62_5_cif.got.tgz:8316.got - 2010.06.03 15:25:27.
