data_PCOD9467024
_publ_section_title
;
Structure prediction by ZEFSAII (Michael W. Deem and Ramdas Pophale) SiO2 
 PCOD9467024
Probable space group: P N M A
;
_chemical_formula_sum "Si O2"
_cell_formula_units_Z 60
_cell_length_a 5.175609
_cell_length_b 26.470472
_cell_length_c 20.046474
_cell_angle_alpha 90.000000
_cell_angle_beta 90.000000
_cell_angle_gamma 90.000000
_cell_volume 2746.383238
_symmetry_space_group_name_H-M "P N M A"
_symmetry_group_IT_number 62
_symmetry_cell_setting 'orthorhombic'
loop_
_space_group_symop_operation_xyz
x,y,z
1/2-x,-y,1/2+z
1/2+x,1/2-y,1/2-z
-x,1/2+y,-z
-x,-y,-z
1/2+x,y,1/2-z
1/2-x,1/2+y,1/2+z
x,1/2-y,z
loop_
_atom_site_type_symbol
_atom_site_label
_atom_site_fract_x
_atom_site_fract_y
_atom_site_fract_z
Si Si1 0.429920 0.882989 0.025315
Si Si2 0.044391 0.900464 0.906438
Si Si3 0.757220 0.250000 0.792326
Si Si4 0.189467 0.308181 0.022770
Si Si5 0.259973 0.918935 0.296395
Si Si6 0.756222 0.532507 0.705340
Si Si7 0.449505 0.158637 0.617476
Si Si8 0.750078 0.967053 0.987161
O O1 0.528033 0.829597 0.996635
O O2 0.273012 0.879507 0.092919
O O3 0.684589 0.917414 0.030347
O O4 0.241364 0.905040 0.968803
O O5 0.195919 0.920569 0.842910
O O6 0.926292 0.844913 0.919716
O O7 0.810066 0.940535 0.916496
O O8 0.960307 0.250000 0.730784
O O9 0.827653 0.299108 0.835383
O O10 0.188543 0.250000 0.041433
O O11 0.042175 0.316273 0.952068
O O12 0.985409 0.915600 0.259800
O O13 0.330497 0.872257 0.344055
O O14 0.275536 0.976089 0.326738
O O15 0.038872 0.534768 0.737183
O O16 0.500000 0.000000 0.000000
O O17 0.000000 0.000000 0.000000
#
# Coordination Sequence:
#
# PCOD9467024 Si02
#       8
#     8   8   4   8   8   8   8   8
#     4  10  24  39  64  98 132 176 217 278 349 399
#     4  10  23  42  66  98 133 173 223 272 345 415
#     4  12  28  44  68  96 130 188 240 296 338 384
#     4  10  23  42  67 100 132 174 224 287 357 404
#     4  10  23  43  61  91 131 180 225 271 324 390
#     4  10  24  42  68  96 130 175 221 265 327 406
#     4  11  24  41  65  94 135 175 235 287 338 403
#     4  11  22  39  60  97 137 172 213 265 336 404
#
# _framework density 21.846914999999999
#
# number of rings (size 3 to 8) (size 9 to 14) (size 15 to 20)
#    0.000    1.600    2.000    0.800   10.267    0.533 
#    2.400    0.000    0.000    0.800    0.000    0.000 
#    0.000    0.000    0.000    0.000    0.000    0.000 
#
# Total GULP energy -335130.835990 kJ/mol
# GULP energy per Si atom -5585.513933 kJ/mol
# Density = 2.179719 g / cm^3
# Si number density = 21.846915 Si / 1000 Ang^3
#
#
#
# Elastic Constant Matrix: (Units=GPa)
#
#
# Indices 1 2 3 4 5 6 
#
# 1 90.9771 9.7582 4.9665 0.0000 0.0000 0.0000
# 2 9.7582 119.1038 25.2643 0.0000 0.0000 0.0000
# 3 4.9665 25.2643 50.7191 0.0000 0.0000 0.0000
# 4 0.0000 0.0000 0.0000 26.4511 0.0000 0.0000
# 5 0.0000 0.0000 0.0000 0.0000 27.5778 0.0000
# 6 0.0000 0.0000 0.0000 0.0000 0.0000 29.4996
#
#
#
# Elastic Compliance Matrix: (Units=1/GPa)
#
#
# Indices 1 2 3 4 5 6 
#
# 1 0.011112 -0.000760 -0.000710 0.000000 0.000000 0.000000
# 2 -0.000760 0.009440 -0.004628 0.000000 0.000000 0.000000
# 3 -0.000710 -0.004628 0.022091 0.000000 0.000000 0.000000
# 4 0.000000 0.000000 0.000000 0.037806 0.000000 0.000000
# 5 0.000000 0.000000 0.000000 0.000000 0.036261 0.000000
# 6 0.000000 0.000000 0.000000 0.000000 0.000000 0.033899
#
#
# Mechanical properties :
#
#
# Convention : Reuss Voigt Hill
#
# Bulk Modulus (GPa) = 32.84233 37.86420 35.35327
# Shear Modulus (GPa) = 28.90963 31.42643 30.16803
#
# Velocity S-wave (km/s) = 3.64164 3.79685 3.72005
# Velocity P-wave (km/s) = 5.72256 6.04902 5.88805
#
# Compressibility (1/GPa) = 0.03044851
#
# Stress axis : x y z
#
# Youngs Moduli (GPa) = 89.99267 105.93274 45.26698
#
# Poissons Ratio (x) = 0.08050 0.03212
# Poissons Ratio (y) = 0.06838 0.20949
# Poissons Ratio (z) = 0.06386 0.49024
#
# Static dielectric constant tensor:
#      x y z
#    x 1.810990 0.000000 0.000000 
#    y 0.000000 1.717530 0.000000 
#    z 0.000000 0.000000 1.816170 
# 
# From -- ./inp_files/21658.got.cif
#   From: 2010.05.17/outbox.cif.g08.bks.cpg/sg62_11_cif.got.tgz:21658.got - 2010.06.03 15:25:27.
