data_PCOD9467986
_publ_section_title
;
Structure prediction by ZEFSAII (Michael W. Deem and Ramdas Pophale) SiO2 
 PCOD9467986
Probable space group: P N M A
;
_chemical_formula_sum "Si O2"
_cell_formula_units_Z 64
_cell_length_a 18.000000
_cell_length_b 9.000000
_cell_length_c 21.000000
_cell_angle_alpha 90.000000
_cell_angle_beta 90.000000
_cell_angle_gamma 90.000000
_cell_volume 3402.000000
_symmetry_space_group_name_H-M "P N M A"
_symmetry_group_IT_number 62
_symmetry_cell_setting 'orthorhombic'
loop_
_space_group_symop_operation_xyz
x,y,z
1/2-x,-y,1/2+z
1/2+x,1/2-y,1/2-z
-x,1/2+y,-z
-x,-y,-z
1/2+x,y,1/2-z
1/2-x,1/2+y,1/2+z
x,1/2-y,z
loop_
_atom_site_type_symbol
_atom_site_label
_atom_site_fract_x
_atom_site_fract_y
_atom_site_fract_z
Si Si1 0.679124 0.429831 0.562743
Si Si2 0.405477 0.071888 0.686888
Si Si3 0.088628 0.918914 0.324787
Si Si4 0.589047 0.418462 0.814589
Si Si5 0.574550 0.431258 0.676145
Si Si6 0.645741 0.582560 0.935780
Si Si7 0.176184 0.419376 0.076019
Si Si8 0.660114 0.076279 0.061100
O O1 0.685077 0.250000 0.563485
O O2 0.624468 0.480273 0.617890
O O3 0.648766 0.471243 0.493099
O O4 0.760850 0.495674 0.570367
O O5 0.408629 0.250000 0.689493
O O6 0.380572 0.024856 0.757329
O O7 0.489279 0.017801 0.672691
O O8 0.351354 0.019652 0.632537
O O9 0.115269 0.750000 0.337914
O O10 0.000273 0.910810 0.315225
O O11 0.108630 0.025015 0.381725
O O12 0.617531 0.250000 0.824443
O O13 0.609188 0.472852 0.744126
O O14 0.614192 0.523714 0.870290
O O15 0.572998 0.250000 0.675970
O O16 0.621802 0.750000 0.949737
O O17 0.734920 0.580463 0.929475
O O18 0.626030 0.478458 0.994649
O O19 0.151707 0.250000 0.087144
O O20 0.671774 0.250000 0.059595
#
# Coordination Sequence:
#
# PCOD9467986 Si02
#       8
#     8   8   8   8   8   8   8   8
#     4   9  18  35  55  74 103 139 169 204 256 306
#     4   9  18  33  54  77 101 134 174 210 245 296
#     4   9  19  36  54  74 103 136 168 205 254 305
#     4   9  18  34  56  79 101 129 171 215 248 293
#     4   8  16  33  55  77 102 134 171 209 251 300
#     4  10  21  37  54  73 103 138 168 204 256 309
#     4   9  19  33  49  73 105 138 168 205 254 301
#     4  11  22  35  53  77 102 130 171 215 250 295
#
# _framework density 18.812463000000001
#
# number of rings (size 3 to 8) (size 9 to 14) (size 15 to 20)
#    0.000    2.750    0.000    3.750    0.000    5.500 
#    0.000    6.875    0.000    0.000    0.000    0.000 
#    0.000    0.000    0.000    0.000    0.000    0.000 
#
# Total GULP energy -356636.144645 kJ/mol
# GULP energy per Si atom -5572.439760 kJ/mol
# Density = 1.876965 g / cm^3
# Si number density = 18.812463 Si / 1000 Ang^3
#
#
#
# Elastic Constant Matrix: (Units=GPa)
#
#
# Indices 1 2 3 4 5 6 
#
# 1 -3.1996 11.5376 23.3778 0.0000 0.0000 0.0000
# 2 11.5376 23.0541 32.5267 0.0000 0.0000 0.0000
# 3 23.3778 32.5267 122.5691 0.0000 0.0000 0.0000
# 4 0.0000 0.0000 0.0000 -4.0469 0.0000 0.0000
# 5 0.0000 0.0000 0.0000 0.0000 24.9217 0.0000
# 6 0.0000 0.0000 0.0000 0.0000 0.0000 13.2791
#
#
#
# Elastic Compliance Matrix: (Units=1/GPa)
#
#
# Indices 1 2 3 4 5 6 
#
# 1 -0.103831 0.038399 0.009614 0.000000 0.000000 0.000000
# 2 0.038399 0.055136 -0.021956 0.000000 0.000000 0.000000
# 3 0.009614 -0.021956 0.012151 0.000000 0.000000 0.000000
# 4 0.000000 0.000000 0.000000 -0.247103 0.000000 0.000000
# 5 0.000000 0.000000 0.000000 0.000000 0.040126 0.000000
# 6 0.000000 0.000000 0.000000 0.000000 0.000000 0.075306
#
#
# Mechanical properties :
#
#
# Convention : Reuss Voigt Hill
#
# Bulk Modulus (GPa) = 64.22253 30.81195 47.51724
# Shear Modulus (GPa) = -23.24072 11.82956 -5.70558
#
# Velocity S-wave (km/s) = -3.51862 2.51034 -1.74340
# Velocity P-wave (km/s) = 4.20770 4.98161 4.61092
#
# Compressibility (1/GPa) = 0.01557086
#
# Stress axis : x y z
#
# Youngs Moduli (GPa) = -9.63100 18.13700 82.29454
#
# Poissons Ratio (x) = -0.69645 -0.79116
# Poissons Ratio (y) = 0.36982 1.80683
# Poissons Ratio (z) = 0.09259 0.39821
#
# Static dielectric constant tensor:
#      x y z
#    x 1.635080 0.000000 0.000000 
#    y 0.000000 1.640900 0.000000 
#    z 0.000000 0.000000 1.673160 
# 
# From -- ./inp_files/27734.got.cif
#   From: 2010.05.17/outbox.ucp.g08.bks.cvg/sg62_14_cif.got.tgz:27734.got - 2010.06.11 16:29:25.
