data_PCOD9467030
_publ_section_title
;
Structure prediction by ZEFSAII (Michael W. Deem and Ramdas Pophale) SiO2 
 PCOD9467030
Probable space group: P N M A
;
_chemical_formula_sum "Si O2"
_cell_formula_units_Z 48
_cell_length_a 21.056571
_cell_length_b 18.125194
_cell_length_c 5.345482
_cell_angle_alpha 90.000000
_cell_angle_beta 90.000000
_cell_angle_gamma 90.000000
_cell_volume 2040.126909
_symmetry_space_group_name_H-M "P N M A"
_symmetry_group_IT_number 62
_symmetry_cell_setting 'orthorhombic'
loop_
_space_group_symop_operation_xyz
x,y,z
1/2-x,-y,1/2+z
1/2+x,1/2-y,1/2-z
-x,1/2+y,-z
-x,-y,-z
1/2+x,y,1/2-z
1/2-x,1/2+y,1/2+z
x,1/2-y,z
loop_
_atom_site_type_symbol
_atom_site_label
_atom_site_fract_x
_atom_site_fract_y
_atom_site_fract_z
Si Si1 0.664482 0.055471 0.219787
Si Si2 0.729455 0.172445 0.488609
Si Si3 0.344816 0.115859 0.755382
Si Si4 0.892839 0.667439 0.323569
Si Si5 0.032049 0.079354 0.025393
Si Si6 0.920067 0.161688 0.247144
O O1 0.725410 0.100233 0.317973
O O2 0.603140 0.059356 0.397856
O O3 0.675205 0.969020 0.199708
O O4 0.638829 0.104388 0.991603
O O5 0.742922 0.250000 0.352683
O O6 0.780912 0.162450 0.704604
O O7 0.659659 0.177509 0.606463
O O8 0.379219 0.131053 0.491252
O O9 0.389334 0.138157 0.989802
O O10 0.901739 0.750000 0.436017
O O11 0.957299 0.633268 0.210950
O O12 0.989604 0.125768 0.217042
O O13 0.000000 0.000000 0.000000
O O14 0.922478 0.250000 0.230867
#
# Coordination Sequence:
#
# PCOD9467030 Si02
#       6
#     8   8   8   8   8   8
#     4  11  25  42  73 101 138 183 240 296 358 418
#     4  10  24  45  68 100 140 183 233 290 350 422
#     4  12  28  46  74 106 147 188 239 294 360 427
#     4  10  23  42  68 100 136 182 236 292 357 420
#     4  11  23  45  67  98 140 183 238 298 352 422
#     4  12  27  47  72 106 145 193 240 291 360 432
#
# _framework density 23.527947000000001
#
# number of rings (size 3 to 8) (size 9 to 14) (size 15 to 20)
#    0.000    1.000    1.667    3.500    9.333    3.333 
#    0.000    0.000    0.000    0.000    0.000    0.000 
#    0.000    0.000    0.000    0.000    0.000    0.000 
#
# Total GULP energy -268115.646007 kJ/mol
# GULP energy per Si atom -5585.742625 kJ/mol
# Density = 2.347440 g / cm^3
# Si number density = 23.527947 Si / 1000 Ang^3
#
#
#
# Elastic Constant Matrix: (Units=GPa)
#
#
# Indices 1 2 3 4 5 6 
#
# 1 62.4924 12.6304 3.4561 0.0000 0.0000 0.0000
# 2 12.6304 187.4874 5.7930 0.0000 0.0000 0.0000
# 3 3.4561 5.7930 58.4584 0.0000 0.0000 0.0000
# 4 0.0000 0.0000 0.0000 18.2108 0.0000 0.0000
# 5 0.0000 0.0000 0.0000 0.0000 15.7559 0.0000
# 6 0.0000 0.0000 0.0000 0.0000 0.0000 50.0636
#
#
#
# Elastic Compliance Matrix: (Units=1/GPa)
#
#
# Indices 1 2 3 4 5 6 
#
# 1 0.016265 -0.001069 -0.000856 0.000000 0.000000 0.000000
# 2 -0.001069 0.005420 -0.000474 0.000000 0.000000 0.000000
# 3 -0.000856 -0.000474 0.017204 0.000000 0.000000 0.000000
# 4 0.000000 0.000000 0.000000 0.054913 0.000000 0.000000
# 5 0.000000 0.000000 0.000000 0.000000 0.063468 0.000000
# 6 0.000000 0.000000 0.000000 0.000000 0.000000 0.019975
#
#
# Mechanical properties :
#
#
# Convention : Reuss Voigt Hill
#
# Bulk Modulus (GPa) = 29.33261 39.13300 34.23281
# Shear Modulus (GPa) = 25.85229 35.90998 30.88114
#
# Velocity S-wave (km/s) = 3.31840 3.91099 3.62682
# Velocity P-wave (km/s) = 5.21311 6.08795 5.66744
#
# Compressibility (1/GPa) = 0.03409175
#
# Stress axis : x y z
#
# Youngs Moduli (GPa) = 61.48027 184.48923 58.12689
#
# Poissons Ratio (x) = 0.19728 0.04974
# Poissons Ratio (y) = 0.06574 0.02755
# Poissons Ratio (z) = 0.05261 0.08743
#
# Static dielectric constant tensor:
#      x y z
#    x 1.888710 0.000000 0.000000 
#    y 0.000000 2.047790 0.000000 
#    z 0.000000 0.000000 2.384290 
# 
# From -- ./inp_files/2737.got.cif
#   From: 2010.05.17/outbox.cif.g08.bks.cpg/sg62_2_cif.got.tgz:2737.got - 2010.06.03 15:25:27.
