data_PCOD9467019
_publ_section_title
;
Structure prediction by ZEFSAII (Michael W. Deem and Ramdas Pophale) SiO2 
 PCOD9467019
Probable space group: P N M A
;
_chemical_formula_sum "Si O2"
_cell_formula_units_Z 48
_cell_length_a 15.140960
_cell_length_b 8.763651
_cell_length_c 18.871923
_cell_angle_alpha 90.000000
_cell_angle_beta 90.000000
_cell_angle_gamma 90.000000
_cell_volume 2504.117147
_symmetry_space_group_name_H-M "P N M A"
_symmetry_group_IT_number 62
_symmetry_cell_setting 'orthorhombic'
loop_
_space_group_symop_operation_xyz
x,y,z
1/2-x,-y,1/2+z
1/2+x,1/2-y,1/2-z
-x,1/2+y,-z
-x,-y,-z
1/2+x,y,1/2-z
1/2-x,1/2+y,1/2+z
x,1/2-y,z
loop_
_atom_site_type_symbol
_atom_site_label
_atom_site_fract_x
_atom_site_fract_y
_atom_site_fract_z
Si Si1 0.560477 0.066791 0.937872
Si Si2 0.904260 0.068310 0.017358
Si Si3 0.253263 0.567127 0.582932
Si Si4 0.010688 0.567402 0.281534
Si Si5 0.699240 0.068370 0.254523
Si Si6 0.143129 0.431517 0.831572
O O1 0.564112 0.250000 0.943249
O O2 0.519301 0.027195 0.861054
O O3 0.659171 0.000199 0.940191
O O4 0.500000 0.000000 0.000000
O O5 0.907152 0.250000 0.011091
O O6 0.877948 0.018550 0.096359
O O7 0.831600 0.001391 0.963959
O O8 0.000000 0.000000 0.000000
O O9 0.252188 0.750000 0.575565
O O10 0.271569 0.529578 0.665317
O O11 0.026354 0.750000 0.279253
O O12 0.931697 0.533237 0.226995
O O13 0.099136 0.481971 0.258906
O O14 0.708251 0.250000 0.245415
O O15 0.763776 0.982798 0.200583
O O16 0.142513 0.250000 0.844533
#
# Coordination Sequence:
#
# PCOD9467019 Si02
#       6
#     8   8   8   8   8   8
#     4  11  24  43  65  94 129 173 220 269 325 388
#     4  12  26  44  67  97 132 171 216 267 324 388
#     4  11  24  44  68  97 132 174 218 268 324 385
#     4  10  23  42  66  93 126 170 215 262 320 385
#     4  11  24  40  65  97 129 167 212 265 321 380
#     4  11  23  43  68  95 129 169 215 266 320 382
#
# _framework density 19.168431999999999
#
# number of rings (size 3 to 8) (size 9 to 14) (size 15 to 20)
#    0.000    1.000    1.667    4.500    2.333    7.333 
#    0.000    0.000    0.000    0.000    0.000    0.000 
#    0.000    0.000    0.000    0.000    0.000    0.000 
#
# Total GULP energy -268651.126631 kJ/mol
# GULP energy per Si atom -5596.898471 kJ/mol
# Density = 1.912480 g / cm^3
# Si number density = 19.168432 Si / 1000 Ang^3
#
#
#
# Elastic Constant Matrix: (Units=GPa)
#
#
# Indices 1 2 3 4 5 6 
#
# 1 122.9129 39.2502 24.4279 0.0000 0.0000 0.0000
# 2 39.2502 65.7259 38.2275 0.0000 0.0000 0.0000
# 3 24.4279 38.2275 86.5014 0.0000 0.0000 0.0000
# 4 0.0000 0.0000 0.0000 31.7772 0.0000 0.0000
# 5 0.0000 0.0000 0.0000 0.0000 41.1481 0.0000
# 6 0.0000 0.0000 0.0000 0.0000 0.0000 40.4052
#
#
#
# Elastic Compliance Matrix: (Units=1/GPa)
#
#
# Indices 1 2 3 4 5 6 
#
# 1 0.010057 -0.005860 -0.000250 0.000000 0.000000 0.000000
# 2 -0.005860 0.023893 -0.008904 0.000000 0.000000 0.000000
# 3 -0.000250 -0.008904 0.015566 0.000000 0.000000 0.000000
# 4 0.000000 0.000000 0.000000 0.031469 0.000000 0.000000
# 5 0.000000 0.000000 0.000000 0.000000 0.024302 0.000000
# 6 0.000000 0.000000 0.000000 0.000000 0.000000 0.024749
#
#
# Mechanical properties :
#
#
# Convention : Reuss Voigt Hill
#
# Bulk Modulus (GPa) = 51.31636 53.21683 52.26660
# Shear Modulus (GPa) = 30.01881 34.21507 32.11694
#
# Velocity S-wave (km/s) = 3.96163 4.22947 4.09774
# Velocity P-wave (km/s) = 6.91053 7.18848 7.05088
#
# Compressibility (1/GPa) = 0.01948696
#
# Stress axis : x y z
#
# Youngs Moduli (GPa) = 99.43366 41.85295 64.24176
#
# Poissons Ratio (x) = 0.24527 0.01608
# Poissons Ratio (y) = 0.58271 0.57202
# Poissons Ratio (z) = 0.02488 0.37267
#
# Static dielectric constant tensor:
#      x y z
#    x 1.617320 0.000000 0.000000 
#    y 0.000000 1.636340 0.000000 
#    z 0.000000 0.000000 1.641880 
# 
# From -- ./inp_files/23724.got.cif
#   From: 2010.05.17/outbox.cif.g08.bks.cpg/sg62_12_cif.got.tgz:23724.got - 2010.06.03 15:25:27.
