data_PCOD9467239
_publ_section_title
;
Structure prediction by ZEFSAII (Michael W. Deem and Ramdas Pophale) SiO2 
 PCOD9467239
Probable space group: P N M A
;
_chemical_formula_sum "Si O2"
_cell_formula_units_Z 40
_cell_length_a 9.172443
_cell_length_b 20.156034
_cell_length_c 7.916132
_cell_angle_alpha 90.000000
_cell_angle_beta 90.000000
_cell_angle_gamma 90.000000
_cell_volume 1463.535062
_symmetry_space_group_name_H-M "P N M A"
_symmetry_group_IT_number 62
_symmetry_cell_setting 'orthorhombic'
loop_
_space_group_symop_operation_xyz
x,y,z
1/2-x,-y,1/2+z
1/2+x,1/2-y,1/2-z
-x,1/2+y,-z
-x,-y,-z
1/2+x,y,1/2-z
1/2-x,1/2+y,1/2+z
x,1/2-y,z
loop_
_atom_site_type_symbol
_atom_site_label
_atom_site_fract_x
_atom_site_fract_y
_atom_site_fract_z
Si Si1 0.401566 0.617958 0.588782
Si Si2 0.537171 0.322081 0.076532
Si Si3 0.839567 0.031052 0.211812
Si Si4 0.757930 0.826164 0.254169
Si Si5 0.916937 0.437421 0.624133
O O1 0.424984 0.675049 0.727781
O O2 0.548685 0.572922 0.595254
O O3 0.349530 0.649490 0.411506
O O4 0.278574 0.575149 0.688215
O O5 0.465239 0.250000 0.049928
O O6 0.457339 0.391384 0.035782
O O7 0.662164 0.327071 0.934395
O O8 0.726019 0.983355 0.113160
O O9 0.945840 0.980813 0.316270
O O10 0.713538 0.750000 0.232798
O O11 0.628276 0.879048 0.253223
#
# Coordination Sequence:
#
# PCOD9467239 Si02
#       5
#     8   8   8   8   8
#     4  11  25  49  74 110 145 198 248 309 377 440
#     4  11  25  47  75 106 147 194 248 309 368 443
#     4  10  25  45  78 107 152 195 246 311 372 455
#     4  11  25  46  75 107 144 193 251 307 368 444
#     4  11  22  50  72 112 149 195 249 304 381 445
#
# _framework density 27.331085000000002
#
# number of rings (size 3 to 8) (size 9 to 14) (size 15 to 20)
#    0.000    1.200    2.000    2.400    0.000    9.600 
#    3.600    5.000    0.000    0.000    0.000    0.000 
#    0.000    0.000    0.000    0.000    0.000    0.000 
#
# Total GULP energy -223724.319124 kJ/mol
# GULP energy per Si atom -5593.107978 kJ/mol
# Density = 2.726888 g / cm^3
# Si number density = 27.331085 Si / 1000 Ang^3
#
#
#
# Elastic Constant Matrix: (Units=GPa)
#
#
# Indices 1 2 3 4 5 6 
#
# 1 161.0771 77.3944 32.4426 0.0000 0.0000 0.0000
# 2 77.3944 209.3060 34.4600 0.0000 0.0000 0.0000
# 3 32.4426 34.4600 105.8328 0.0000 0.0000 0.0000
# 4 0.0000 0.0000 0.0000 37.8513 0.0000 0.0000
# 5 0.0000 0.0000 0.0000 0.0000 47.4850 0.0000
# 6 0.0000 0.0000 0.0000 0.0000 0.0000 -2.2805
#
#
#
# Elastic Compliance Matrix: (Units=1/GPa)
#
#
# Indices 1 2 3 4 5 6 
#
# 1 0.007777 -0.002624 -0.001530 0.000000 0.000000 0.000000
# 2 -0.002624 0.005934 -0.001128 0.000000 0.000000 0.000000
# 3 -0.001530 -0.001128 0.010285 0.000000 0.000000 0.000000
# 4 0.000000 0.000000 0.000000 0.026419 0.000000 0.000000
# 5 0.000000 0.000000 0.000000 0.000000 0.021059 0.000000
# 6 0.000000 0.000000 0.000000 0.000000 0.000000 -0.438497
#
#
# Mechanical properties :
#
#
# Convention : Reuss Voigt Hill
#
# Bulk Modulus (GPa) = 74.44271 84.97888 79.71080
# Shear Modulus (GPa) = -14.20525 38.73907 12.26691
#
# Velocity S-wave (km/s) = -2.28227 3.76892 2.12085
# Velocity P-wave (km/s) = 4.51126 7.07811 5.93511
#
# Compressibility (1/GPa) = 0.01343315
#
# Stress axis : x y z
#
# Youngs Moduli (GPa) = 128.58434 168.53286 97.22927
#
# Poissons Ratio (x) = 0.44220 0.14873
# Poissons Ratio (y) = 0.33738 0.10964
# Poissons Ratio (z) = 0.19669 0.19005
#
# Static dielectric constant tensor:
#      x y z
#    x 2.194050 0.000000 0.000000 
#    y 0.000000 2.601220 0.000000 
#    z 0.000000 0.000000 2.319960 
# 
# From -- ./inp_files/6591.got.cif
#   From: 2010.05.17/outbox.cif.g08.bks.cpg/sg62_4_cif.got.tgz:6591.got - 2010.06.03 15:25:27.
