data_PCOD9467128
_publ_section_title
;
Structure prediction by ZEFSAII (Michael W. Deem and Ramdas Pophale) SiO2 
 PCOD9467128
Probable space group: P N M A
;
_chemical_formula_sum "Si O2"
_cell_formula_units_Z 60
_cell_length_a 9.030663
_cell_length_b 19.294372
_cell_length_c 16.370524
_cell_angle_alpha 90.000000
_cell_angle_beta 90.000000
_cell_angle_gamma 90.000000
_cell_volume 2852.416003
_symmetry_space_group_name_H-M "P N M A"
_symmetry_group_IT_number 62
_symmetry_cell_setting 'orthorhombic'
loop_
_space_group_symop_operation_xyz
x,y,z
1/2-x,-y,1/2+z
1/2+x,1/2-y,1/2-z
-x,1/2+y,-z
-x,-y,-z
1/2+x,y,1/2-z
1/2-x,1/2+y,1/2+z
x,1/2-y,z
loop_
_atom_site_type_symbol
_atom_site_label
_atom_site_fract_x
_atom_site_fract_y
_atom_site_fract_z
Si Si1 0.168500 0.934511 0.908904
Si Si2 1.000000 0.250000 0.300331
Si Si3 0.176871 0.329761 0.530804
Si Si4 0.331500 0.934511 0.591096
Si Si5 0.822035 0.080871 0.839100
Si Si6 0.323130 0.329761 0.969196
Si Si7 0.250000 0.357176 0.250000
Si Si8 0.177965 0.419129 0.839101
O O1 0.172163 0.903495 0.818035
O O2 1.000000 0.932199 0.940833
O O3 0.215541 0.014018 0.895967
O O4 0.267212 0.884165 0.963539
O O5 0.129222 0.309697 0.294172
O O6 0.870777 0.190303 0.294172
O O7 0.213304 0.250000 0.508276
O O8 0.256227 0.352794 0.614331
O O9 0.000000 0.334200 0.539028
O O10 0.232788 0.884165 0.536461
O O11 0.327838 0.903495 0.681965
O O12 0.284459 0.014018 0.604033
O O13 0.750000 0.073221 0.750000
O O14 0.000000 0.083640 0.832408
O O15 0.286697 0.250000 0.991724
O O16 0.243772 0.352794 0.885669
#
# Coordination Sequence:
#
# PCOD9467128 Si02
#       8
#     8   4   8   8   8   8   8   8
#     4  11  24  41  65  97 134 172 216 269 326 387
#     4  10  24  34  56  90 136 178 216 258 324 382
#     4  11  27  45  67  97 132 174 220 274 331 389
#     4  11  24  41  65  97 134 172 216 269 326 387
#     4  11  24  45  71  99 131 171 221 272 328 391
#     4  11  27  45  67  97 132 174 220 274 331 389
#     4  11  22  38  58  92 133 176 218 264 317 394
#     4  11  24  45  71  99 131 171 221 272 328 391
#
# _framework density 21.034799
#
# number of rings (size 3 to 8) (size 9 to 14) (size 15 to 20)
#    0.000    1.067    2.667    2.400    5.600    8.000 
#    0.000    0.000    0.000    0.000    0.000    0.000 
#    0.000    0.000    0.000    0.000    0.000    0.000 
#
# Total GULP energy -334454.414574 kJ/mol
# GULP energy per Si atom -5574.240243 kJ/mol
# Density = 2.098692 g / cm^3
# Si number density = 21.034799 Si / 1000 Ang^3
#
#
#
# Elastic Constant Matrix: (Units=GPa)
#
#
# Indices 1 2 3 4 5 6 
#
# 1 101.9279 47.6315 42.0116 0.0000 0.0000 0.0000
# 2 47.6315 100.9735 49.8033 0.0000 0.0000 0.0000
# 3 42.0116 49.8033 94.9844 0.0000 0.0000 0.0000
# 4 0.0000 0.0000 0.0000 3.9283 0.0000 0.0000
# 5 0.0000 0.0000 0.0000 0.0000 32.6366 0.0000
# 6 0.0000 0.0000 0.0000 0.0000 0.0000 27.6268
#
#
#
# Elastic Compliance Matrix: (Units=1/GPa)
#
#
# Indices 1 2 3 4 5 6 
#
# 1 0.013407 -0.004585 -0.003526 0.000000 0.000000 0.000000
# 2 -0.004585 0.014927 -0.005798 0.000000 0.000000 0.000000
# 3 -0.003526 -0.005798 0.015128 0.000000 0.000000 0.000000
# 4 0.000000 0.000000 0.000000 0.254563 0.000000 0.000000
# 5 0.000000 0.000000 0.000000 0.000000 0.030640 0.000000
# 6 0.000000 0.000000 0.000000 0.000000 0.000000 0.036197
#
#
# Mechanical properties :
#
#
# Convention : Reuss Voigt Hill
#
# Bulk Modulus (GPa) = 63.92876 64.08652 64.00764
# Shear Modulus (GPa) = 12.56618 23.40097 17.98357
#
# Velocity S-wave (km/s) = 2.44683 3.33902 2.92711
# Velocity P-wave (km/s) = 6.20004 6.73784 6.47452
#
# Compressibility (1/GPa) = 0.01564241
#
# Stress axis : x y z
#
# Youngs Moduli (GPa) = 74.58924 66.99479 66.10402
#
# Poissons Ratio (x) = 0.30719 0.23305
# Poissons Ratio (y) = 0.34202 0.38329
# Poissons Ratio (z) = 0.26297 0.38846
#
# Static dielectric constant tensor:
#      x y z
#    x 1.708280 0.000000 0.000000 
#    y 0.000000 1.753520 0.000000 
#    z 0.000000 0.000000 1.784580 
# 
# From -- ./inp_files/22454.got.cif
#   From: 2010.05.17/outbox.cif.g08.bks.cpg/sg62_12_cif.got.tgz:22454.got - 2010.06.03 15:25:27.
