data_PCOD9467491
_publ_section_title
;
Structure prediction by ZEFSAII (Michael W. Deem and Ramdas Pophale) SiO2 
 PCOD9467491
Probable space group: P N M A
;
_chemical_formula_sum "Si O2"
_cell_formula_units_Z 40
_cell_length_a 14.072826
_cell_length_b 8.852693
_cell_length_c 14.568311
_cell_angle_alpha 90.000000
_cell_angle_beta 90.000000
_cell_angle_gamma 90.000000
_cell_volume 1814.955268
_symmetry_space_group_name_H-M "P N M A"
_symmetry_group_IT_number 62
_symmetry_cell_setting 'orthorhombic'
loop_
_space_group_symop_operation_xyz
x,y,z
1/2-x,-y,1/2+z
1/2+x,1/2-y,1/2-z
-x,1/2+y,-z
-x,-y,-z
1/2+x,y,1/2-z
1/2-x,1/2+y,1/2+z
x,1/2-y,z
loop_
_atom_site_type_symbol
_atom_site_label
_atom_site_fract_x
_atom_site_fract_y
_atom_site_fract_z
Si Si1 0.919629 0.427526 0.562442
Si Si2 0.788213 0.429227 0.264089
Si Si3 0.495976 0.928211 0.761386
Si Si4 0.704836 0.427834 0.562541
Si Si5 0.878164 0.429452 0.887536
O O1 0.938141 0.250000 0.574482
O O2 0.927040 0.508535 0.660522
O O3 0.813061 0.443229 0.524812
O O4 0.000000 0.500000 0.500000
O O5 0.767333 0.250000 0.267759
O O6 0.793009 0.486672 0.159294
O O7 0.711208 0.516259 0.324895
O O8 0.896861 0.453319 0.295990
O O9 0.482632 0.750000 0.748419
O O10 0.470216 0.011924 0.667319
O O11 0.686416 0.250000 0.576809
O O12 0.635439 0.496764 0.486966
O O13 0.879087 0.250000 0.894417
#
# Coordination Sequence:
#
# PCOD9467491 Si02
#       5
#     8   8   8   8   8
#     4  11  23  39  63  96 129 167 217 268 326 386
#     4  11  24  43  67  96 130 171 218 270 329 389
#     4  11  24  42  66  94 129 171 216 270 327 387
#     4  11  24  42  65  94 129 172 218 268 324 387
#     4  12  25  42  66  96 131 174 218 268 328 391
#
# _framework density 22.039111999999999
#
# number of rings (size 3 to 8) (size 9 to 14) (size 15 to 20)
#    0.000    0.800    2.000    5.400    0.000   11.200 
#    0.000    0.000    0.000    0.000    0.000    0.000 
#    0.000    0.000    0.000    0.000    0.000    0.000 
#
# Total GULP energy -223982.416229 kJ/mol
# GULP energy per Si atom -5599.560406 kJ/mol
# Density = 2.198895 g / cm^3
# Si number density = 22.039112 Si / 1000 Ang^3
#
#
#
# Elastic Constant Matrix: (Units=GPa)
#
#
# Indices 1 2 3 4 5 6 
#
# 1 45.9192 12.3364 -14.6473 0.0000 0.0000 0.0000
# 2 12.3364 84.0429 -9.0419 0.0000 0.0000 0.0000
# 3 -14.6473 -9.0419 67.0266 0.0000 0.0000 0.0000
# 4 0.0000 0.0000 0.0000 35.2955 0.0000 0.0000
# 5 0.0000 0.0000 0.0000 0.0000 41.7069 0.0000
# 6 0.0000 0.0000 0.0000 0.0000 0.0000 27.6969
#
#
#
# Elastic Compliance Matrix: (Units=1/GPa)
#
#
# Indices 1 2 3 4 5 6 
#
# 1 0.024142 -0.003020 0.004868 0.000000 0.000000 0.000000
# 2 -0.003020 0.012452 0.001020 0.000000 0.000000 0.000000
# 3 0.004868 0.001020 0.016121 0.000000 0.000000 0.000000
# 4 0.000000 0.000000 0.000000 0.028332 0.000000 0.000000
# 5 0.000000 0.000000 0.000000 0.000000 0.023977 0.000000
# 6 0.000000 0.000000 0.000000 0.000000 0.000000 0.036105
#
#
# Mechanical properties :
#
#
# Convention : Reuss Voigt Hill
#
# Bulk Modulus (GPa) = 17.10851 19.36479 18.23665
# Shear Modulus (GPa) = 32.28401 34.82931 33.55666
#
# Velocity S-wave (km/s) = 3.83149 3.97966 3.90628
# Velocity P-wave (km/s) = 5.23005 5.47015 5.35145
#
# Compressibility (1/GPa) = 0.05845045
#
# Stress axis : x y z
#
# Youngs Moduli (GPa) = 41.42232 80.31044 62.03130
#
# Poissons Ratio (x) = 0.24253 -0.30199
# Poissons Ratio (y) = 0.12509 -0.06326
# Poissons Ratio (z) = -0.20165 -0.08190
#
# Static dielectric constant tensor:
#      x y z
#    x 1.833180 0.000000 0.000000 
#    y 0.000000 1.720230 0.000000 
#    z 0.000000 0.000000 1.798190 
# 
# From -- ./inp_files/18640.got.cif
#   From: 2010.05.17/outbox.cif.g08.bks.cpg/sg62_10_cif.got.tgz:18640.got - 2010.06.03 15:25:27.
