data_PCOD9467761
_publ_section_title
;
Structure prediction by ZEFSAII (Michael W. Deem and Ramdas Pophale) SiO2 
 PCOD9467761
Probable space group: P N M A
;
_chemical_formula_sum "Si O2"
_cell_formula_units_Z 64
_cell_length_a 15.000000
_cell_length_b 9.000000
_cell_length_c 24.000000
_cell_angle_alpha 90.000000
_cell_angle_beta 90.000000
_cell_angle_gamma 90.000000
_cell_volume 3240.000000
_symmetry_space_group_name_H-M "P N M A"
_symmetry_group_IT_number 62
_symmetry_cell_setting 'orthorhombic'
loop_
_space_group_symop_operation_xyz
x,y,z
1/2-x,-y,1/2+z
1/2+x,1/2-y,1/2-z
-x,1/2+y,-z
-x,-y,-z
1/2+x,y,1/2-z
1/2-x,1/2+y,1/2+z
x,1/2-y,z
loop_
_atom_site_type_symbol
_atom_site_label
_atom_site_fract_x
_atom_site_fract_y
_atom_site_fract_z
Si Si1 0.126331 0.426597 0.522091
Si Si2 0.185322 0.423792 0.342741
Si Si3 0.043185 0.574719 0.413276
Si Si4 0.362612 0.426040 0.410918
Si Si5 0.288221 0.929392 0.240729
Si Si6 0.335253 0.429123 0.533490
Si Si7 0.956824 0.570790 0.194671
Si Si8 0.644245 0.568581 0.343240
O O1 0.117729 0.250000 0.507998
O O2 0.090480 0.522444 0.470596
O O3 0.229195 0.457274 0.533430
O O4 0.061234 0.453174 0.574683
O O5 0.179635 0.250000 0.328858
O O6 0.091954 0.486982 0.364294
O O7 0.258484 0.438226 0.392728
O O8 0.226655 0.514501 0.291569
O O9 0.055970 0.750000 0.404601
O O10 0.384544 0.250000 0.408190
O O11 0.373950 0.482595 0.474259
O O12 0.416476 0.513178 0.363787
O O13 0.289191 0.750000 0.240246
O O14 0.388608 0.979423 0.256710
O O15 0.237522 0.978545 0.184680
O O16 0.346650 0.250000 0.532240
O O17 0.370046 0.483699 0.593198
O O18 0.955520 0.750000 0.194587
O O19 0.059992 0.523871 0.194822
O O20 0.645738 0.750000 0.345145
#
# Coordination Sequence:
#
# PCOD9467761 Si02
#       8
#     8   8   8   8   8   8   8   8
#     4   9  17  30  45  68 101 139 173 203 247 308
#     4  10  18  31  51  72  98 133 170 211 256 306
#     4  10  18  27  45  73 102 132 169 215 258 296
#     4   9  17  30  51  75  99 133 171 204 247 311
#     4   9  18  34  53  75 100 128 167 213 257 300
#     4   9  16  30  50  72 102 138 174 206 250 314
#     4   9  18  33  53  78 104 129 165 215 260 299
#     4   9  18  33  53  76 103 134 168 214 262 304
#
# _framework density 19.753086
#
# number of rings (size 3 to 8) (size 9 to 14) (size 15 to 20)
#    0.000    2.750    1.250    0.750    0.000    1.500 
#    2.250    0.625    0.000    2.250    0.000    0.000 
#    0.000    0.000    0.000    0.000    0.000    0.000 
#
# Total GULP energy -356757.023400 kJ/mol
# GULP energy per Si atom -5574.328491 kJ/mol
# Density = 1.970813 g / cm^3
# Si number density = 19.753086 Si / 1000 Ang^3
#
#
#
# Elastic Constant Matrix: (Units=GPa)
#
#
# Indices 1 2 3 4 5 6 
#
# 1 50.2443 1.4646 0.5223 0.0000 0.0000 0.0000
# 2 1.4646 0.8095 -11.9841 0.0000 0.0000 0.0000
# 3 0.5223 -11.9841 43.4978 0.0000 0.0000 0.0000
# 4 0.0000 0.0000 0.0000 18.8476 0.0000 0.0000
# 5 0.0000 0.0000 0.0000 0.0000 22.5547 0.0000
# 6 0.0000 0.0000 0.0000 0.0000 0.0000 10.8179
#
#
#
# Elastic Compliance Matrix: (Units=1/GPa)
#
#
# Indices 1 2 3 4 5 6 
#
# 1 0.019502 0.012587 0.003234 0.000000 0.000000 0.000000
# 2 0.012587 -0.393118 -0.108460 0.000000 0.000000 0.000000
# 3 0.003234 -0.108460 -0.006931 0.000000 0.000000 0.000000
# 4 0.000000 0.000000 0.000000 0.053057 0.000000 0.000000
# 5 0.000000 0.000000 0.000000 0.000000 0.044337 0.000000
# 6 0.000000 0.000000 0.000000 0.000000 0.000000 0.092440
#
#
# Mechanical properties :
#
#
# Convention : Reuss Voigt Hill
#
# Bulk Modulus (GPa) = -1.76733 8.28414 3.25840
# Shear Modulus (GPa) = -25.76741 17.41396 -4.17673
#
# Velocity S-wave (km/s) = -3.61567 2.97237 -1.45570
# Velocity P-wave (km/s) = 4.28105 3.99786 1.08271
#
# Compressibility (1/GPa) = -0.56582582
#
# Stress axis : x y z
#
# Youngs Moduli (GPa) = 51.27616 -2.54376 -144.27990
#
# Poissons Ratio (x) = 0.03202 0.46654
# Poissons Ratio (y) = -0.64540 -15.64853
# Poissons Ratio (z) = -0.16581 -0.27590
#
# Static dielectric constant tensor:
#      x y z
#    x 1.729910 0.000000 0.000000 
#    y 0.000000 1.651060 0.000000 
#    z 0.000000 0.000000 1.719250 
# 
# From -- ./inp_files/29831.got.cif
#   From: 2010.05.17/outbox.ucp.g08.bks.cvg/sg62_15_cif.got.tgz:29831.got - 2010.06.11 16:29:25.
