data_PCOD9467466
_publ_section_title
;
Structure prediction by ZEFSAII (Michael W. Deem and Ramdas Pophale) SiO2 
 PCOD9467466
Probable space group: P N M A
;
_chemical_formula_sum "Si O2"
_cell_formula_units_Z 40
_cell_length_a 13.581374
_cell_length_b 21.378770
_cell_length_c 5.169313
_cell_angle_alpha 90.000000
_cell_angle_beta 90.000000
_cell_angle_gamma 90.000000
_cell_volume 1500.925905
_symmetry_space_group_name_H-M "P N M A"
_symmetry_group_IT_number 62
_symmetry_cell_setting 'orthorhombic'
loop_
_space_group_symop_operation_xyz
x,y,z
1/2-x,-y,1/2+z
1/2+x,1/2-y,1/2-z
-x,1/2+y,-z
-x,-y,-z
1/2+x,y,1/2-z
1/2-x,1/2+y,1/2+z
x,1/2-y,z
loop_
_atom_site_type_symbol
_atom_site_label
_atom_site_fract_x
_atom_site_fract_y
_atom_site_fract_z
Si Si1 0.819774 0.853050 0.175845
Si Si2 0.984371 0.858612 0.816098
Si Si3 0.360499 0.961420 0.959305
Si Si4 0.709924 0.750000 0.475234
Si Si5 0.574016 0.750000 0.980017
Si Si6 0.669531 0.583322 0.802684
O O1 0.858245 0.918544 0.286928
O O2 0.778240 0.809570 0.403904
O O3 0.729918 0.869034 0.982723
O O4 0.911741 0.825851 0.017160
O O5 0.008792 0.811083 0.583179
O O6 0.093176 0.882843 0.887562
O O7 0.927166 0.921003 0.731320
O O8 0.385512 0.032805 0.015830
O O9 0.249705 0.956670 0.850745
O O10 0.659424 0.750000 0.755009
O O11 0.623203 0.750000 0.259654
#
# Coordination Sequence:
#
# PCOD9467466 Si02
#       6
#     8   8   8   4   4   8
#     4  11  25  44  70 103 141 194 238 312 363 451
#     4  11  26  43  71 106 140 190 252 305 369 444
#     4  11  24  42  71 100 148 186 246 303 374 450
#     4  12  27  49  78 103 144 198 242 302 373 442
#     4  12  27  49  76 105 146 192 244 306 371 440
#     4  11  22  45  66 103 143 191 241 297 382 437
#
# _framework density 26.650216
#
# number of rings (size 3 to 8) (size 9 to 14) (size 15 to 20)
#    0.000    0.800    4.000    2.400    5.600    3.200 
#    0.000    0.000    0.000    0.000    0.000    0.000 
#    0.000    0.000    0.000    0.000    0.000    0.000 
#
# Total GULP energy -224192.238381 kJ/mol
# GULP energy per Si atom -5604.805960 kJ/mol
# Density = 2.658956 g / cm^3
# Si number density = 26.650216 Si / 1000 Ang^3
#
#
#
# Elastic Constant Matrix: (Units=GPa)
#
#
# Indices 1 2 3 4 5 6 
#
# 1 111.5596 20.0207 21.0481 0.0000 0.0000 0.0000
# 2 20.0207 95.2547 12.4406 0.0000 0.0000 0.0000
# 3 21.0481 12.4406 88.5847 0.0000 0.0000 0.0000
# 4 0.0000 0.0000 0.0000 39.0638 0.0000 0.0000
# 5 0.0000 0.0000 0.0000 0.0000 47.4311 0.0000
# 6 0.0000 0.0000 0.0000 0.0000 0.0000 -132.0532
#
#
#
# Elastic Compliance Matrix: (Units=1/GPa)
#
#
# Indices 1 2 3 4 5 6 
#
# 1 0.009667 -0.001764 -0.002049 0.000000 0.000000 0.000000
# 2 -0.001764 0.011016 -0.001128 0.000000 0.000000 0.000000
# 3 -0.002049 -0.001128 0.011934 0.000000 0.000000 0.000000
# 4 0.000000 0.000000 0.000000 0.025599 0.000000 0.000000
# 5 0.000000 0.000000 0.000000 0.000000 0.021083 0.000000
# 6 0.000000 0.000000 0.000000 0.000000 0.000000 -0.007573
#
#
# Mechanical properties :
#
#
# Convention : Reuss Voigt Hill
#
# Bulk Modulus (GPa) = 43.98568 44.71310 44.34939
# Shear Modulus (GPa) = 56.06154 7.01432 31.53793
#
# Velocity S-wave (km/s) = 4.59148 1.62410 3.44379
# Velocity P-wave (km/s) = 6.68204 4.50901 5.70003
#
# Compressibility (1/GPa) = 0.02273467
#
# Stress axis : x y z
#
# Youngs Moduli (GPa) = 103.44425 90.77471 83.79478
#
# Poissons Ratio (x) = 0.16014 0.17171
# Poissons Ratio (y) = 0.18250 0.09451
# Poissons Ratio (z) = 0.21197 0.10239
#
# Static dielectric constant tensor:
#      x y z
#    x 2.113300 0.000000 0.000000 
#    y 0.000000 2.099240 0.000000 
#    z 0.000000 0.000000 2.091670 
# 
# From -- ./inp_files/640.got.cif
#   From: 2010.05.17/outbox.cif.g08.bks.cpg/sg62_1_cif.got.tgz:640.got - 2010.06.03 15:25:27.
