data_PCOD9467241
_publ_section_title
;
Structure prediction by ZEFSAII (Michael W. Deem and Ramdas Pophale) SiO2 
 PCOD9467241
Probable space group: P N M A
;
_chemical_formula_sum "Si O2"
_cell_formula_units_Z 32
_cell_length_a 9.030451
_cell_length_b 27.049462
_cell_length_c 5.253897
_cell_angle_alpha 90.000000
_cell_angle_beta 90.000000
_cell_angle_gamma 90.000000
_cell_volume 1283.363332
_symmetry_space_group_name_H-M "P N M A"
_symmetry_group_IT_number 62
_symmetry_cell_setting 'orthorhombic'
loop_
_space_group_symop_operation_xyz
x,y,z
1/2-x,-y,1/2+z
1/2+x,1/2-y,1/2-z
-x,1/2+y,-z
-x,-y,-z
1/2+x,y,1/2-z
1/2-x,1/2+y,1/2+z
x,1/2-y,z
loop_
_atom_site_type_symbol
_atom_site_label
_atom_site_fract_x
_atom_site_fract_y
_atom_site_fract_z
Si Si1 0.580465 0.133721 0.751346
Si Si2 0.334153 0.391491 0.402394
Si Si3 0.664581 0.517430 0.930939
Si Si4 0.168270 0.691510 0.551139
O O1 0.475992 0.099381 0.577982
O O2 0.689246 0.166774 0.580318
O O3 0.682483 0.102982 0.944650
O O4 0.474448 0.170836 0.904032
O O5 0.340732 0.333843 0.327098
O O6 0.338322 0.424901 0.152230
O O7 0.768114 0.506532 0.172983
O O8 0.500000 0.500000 0.000000
O O9 0.175386 0.750000 0.557247
#
# Coordination Sequence:
#
# PCOD9467241 Si02
#       4
#     8   8   8   8
#     4  10  25  46  72 106 160 203 262 324 414 474
#     4  11  27  47  77 108 156 207 265 336 402 490
#     4  12  32  56  87 123 165 215 279 340 416 489
#     4  11  24  43  74 111 153 203 264 328 407 491
#
# _framework density 24.934483
#
# number of rings (size 3 to 8) (size 9 to 14) (size 15 to 20)
#    0.000    1.000    0.000    3.000   14.000    8.000 
#    0.000    0.000    0.000    0.000    0.000    0.000 
#    0.000    0.000    0.000    0.000    0.000    0.000 
#
# Total GULP energy -179661.750920 kJ/mol
# GULP energy per Si atom -5614.429716 kJ/mol
# Density = 2.487773 g / cm^3
# Si number density = 24.934483 Si / 1000 Ang^3
#
#
#
# Elastic Constant Matrix: (Units=GPa)
#
#
# Indices 1 2 3 4 5 6 
#
# 1 195.4703 51.1111 81.4294 0.0000 0.0000 0.0000
# 2 51.1111 143.0346 47.5891 0.0000 0.0000 0.0000
# 3 81.4294 47.5891 153.0603 0.0000 0.0000 0.0000
# 4 0.0000 0.0000 0.0000 35.6588 0.0000 0.0000
# 5 0.0000 0.0000 0.0000 0.0000 46.6621 0.0000
# 6 0.0000 0.0000 0.0000 0.0000 0.0000 16.5124
#
#
#
# Elastic Compliance Matrix: (Units=1/GPa)
#
#
# Indices 1 2 3 4 5 6 
#
# 1 0.006805 -0.001369 -0.003195 0.000000 0.000000 0.000000
# 2 -0.001369 0.008073 -0.001782 0.000000 0.000000 0.000000
# 3 -0.003195 -0.001782 0.008787 0.000000 0.000000 0.000000
# 4 0.000000 0.000000 0.000000 0.028044 0.000000 0.000000
# 5 0.000000 0.000000 0.000000 0.000000 0.021431 0.000000
# 6 0.000000 0.000000 0.000000 0.000000 0.000000 0.060560
#
#
# Mechanical properties :
#
#
# Convention : Reuss Voigt Hill
#
# Bulk Modulus (GPa) = 91.12106 94.64716 92.88411
# Shear Modulus (GPa) = 33.32271 40.52904 36.92588
#
# Velocity S-wave (km/s) = 3.65966 4.03603 3.85244
# Velocity P-wave (km/s) = 7.38113 7.73046 7.55781
#
# Compressibility (1/GPa) = 0.01097441
#
# Stress axis : x y z
#
# Youngs Moduli (GPa) = 146.96117 123.86567 113.80519
#
# Poissons Ratio (x) = 0.16953 0.36355
# Poissons Ratio (y) = 0.20114 0.20280
# Poissons Ratio (z) = 0.46947 0.22073
#
# Static dielectric constant tensor:
#      x y z
#    x 1.940820 0.000000 0.000000 
#    y 0.000000 1.969720 0.000000 
#    z 0.000000 0.000000 1.985260 
# 
# From -- ./inp_files/198.got.cif
#   From: 2010.05.17/outbox.cif.g08.bks.cpg/sg62_1_cif.got.tgz:198.got - 2010.06.03 15:25:27.
