data_PCOD9467576
_publ_section_title
;
Structure prediction by ZEFSAII (Michael W. Deem and Ramdas Pophale) SiO2 
 PCOD9467576
Probable space group: P N M A
;
_chemical_formula_sum "Si O2"
_cell_formula_units_Z 48
_cell_length_a 13.827488
_cell_length_b 26.409388
_cell_length_c 4.912374
_cell_angle_alpha 90.000000
_cell_angle_beta 90.000000
_cell_angle_gamma 90.000000
_cell_volume 1793.878610
_symmetry_space_group_name_H-M "P N M A"
_symmetry_group_IT_number 62
_symmetry_cell_setting 'orthorhombic'
loop_
_space_group_symop_operation_xyz
x,y,z
1/2-x,-y,1/2+z
1/2+x,1/2-y,1/2-z
-x,1/2+y,-z
-x,-y,-z
1/2+x,y,1/2-z
1/2-x,1/2+y,1/2+z
x,1/2-y,z
loop_
_atom_site_type_symbol
_atom_site_label
_atom_site_fract_x
_atom_site_fract_y
_atom_site_fract_z
Si Si1 0.985890 0.651247 0.328890
Si Si2 0.724324 0.750000 0.886617
Si Si3 0.872895 0.011027 0.502548
Si Si4 0.349388 0.952009 0.492073
Si Si5 0.086419 0.750000 0.113254
Si Si6 0.800777 0.854703 0.668893
Si Si7 0.085186 0.892187 0.838296
O O1 0.021428 0.701812 0.180866
O O2 0.025305 0.609210 0.116609
O O3 0.874652 0.652142 0.420024
O O4 0.043908 0.646179 0.612511
O O5 0.631739 0.750000 0.684829
O O6 0.783184 0.801030 0.816329
O O7 0.680516 0.750000 0.188478
O O8 0.762728 0.030262 0.519623
O O9 0.919629 0.055818 0.329566
O O10 0.881431 0.961258 0.315164
O O11 0.897892 0.992621 0.803390
O O12 0.345341 0.897328 0.631973
O O13 0.695270 0.876670 0.588269
#
# Coordination Sequence:
#
# PCOD9467576 Si02
#       7
#     8   4   8   8   4   8   8
#     4  12  25  43  68 101 133 175 224 275 334 394
#     4  12  25  46  71  98 128 180 217 274 345 390
#     4   9  18  37  62  92 131 174 213 268 320 383
#     4   9  19  35  62  94 127 172 220 259 327 388
#     4  12  23  46  67  96 132 172 221 276 331 410
#     4  11  25  45  71  99 136 177 221 278 333 396
#     4  11  24  44  70  99 139 177 223 272 330 393
#
# _framework density 26.757660999999999
#
# number of rings (size 3 to 8) (size 9 to 14) (size 15 to 20)
#    0.000    1.333    3.333    1.500    0.000    9.333 
#    0.000    6.667    0.000    0.000    0.000    0.000 
#    0.000    0.000    0.000    0.000    0.000    0.000 
#
# Total GULP energy -269221.187740 kJ/mol
# GULP energy per Si atom -5608.774745 kJ/mol
# Density = 2.669676 g / cm^3
# Si number density = 26.757661 Si / 1000 Ang^3
#
#
#
# Elastic Constant Matrix: (Units=GPa)
#
#
# Indices 1 2 3 4 5 6 
#
# 1 147.6005 14.5367 33.7604 0.0000 0.0000 0.0000
# 2 14.5367 104.7224 -8.1017 0.0000 0.0000 0.0000
# 3 33.7604 -8.1017 131.1773 0.0000 0.0000 0.0000
# 4 0.0000 0.0000 0.0000 -23.3920 0.0000 0.0000
# 5 0.0000 0.0000 0.0000 0.0000 30.7003 0.0000
# 6 0.0000 0.0000 0.0000 0.0000 0.0000 12.3848
#
#
#
# Elastic Compliance Matrix: (Units=1/GPa)
#
#
# Indices 1 2 3 4 5 6 
#
# 1 0.007339 -0.001170 -0.001961 0.000000 0.000000 0.000000
# 2 -0.001170 0.009782 0.000905 0.000000 0.000000 0.000000
# 3 -0.001961 0.000905 0.008184 0.000000 0.000000 0.000000
# 4 0.000000 0.000000 0.000000 -0.042750 0.000000 0.000000
# 5 0.000000 0.000000 0.000000 0.000000 0.032573 0.000000
# 6 0.000000 0.000000 0.000000 0.000000 0.000000 0.080744
#
#
# Mechanical properties :
#
#
# Convention : Reuss Voigt Hill
#
# Bulk Modulus (GPa) = 47.95690 51.54345 49.75017
# Shear Modulus (GPa) = 46.60935 26.82560 36.71747
#
# Velocity S-wave (km/s) = 4.17814 3.16972 3.70837
# Velocity P-wave (km/s) = 6.42164 5.71849 6.08024
#
# Compressibility (1/GPa) = 0.02085206
#
# Stress axis : x y z
#
# Youngs Moduli (GPa) = 136.26082 102.23305 122.19122
#
# Poissons Ratio (x) = 0.11966 0.23962
# Poissons Ratio (y) = 0.15948 -0.11063
# Poissons Ratio (z) = 0.26721 -0.09256
#
# Static dielectric constant tensor:
#      x y z
#    x 2.154560 0.000000 0.000000 
#    y 0.000000 2.132900 0.000000 
#    z 0.000000 0.000000 1.985980 
# 
# From -- ./inp_files/1205.got.cif
#   From: 2010.05.17/outbox.cif.g08.bks.cpg/sg62_1_cif.got.tgz:1205.got - 2010.06.03 15:25:27.
