data_PCOD9467856
_publ_section_title
;
Structure prediction by ZEFSAII (Michael W. Deem and Ramdas Pophale) SiO2 
 PCOD9467856
Probable space group: P N M A
;
_chemical_formula_sum "Si O2"
_cell_formula_units_Z 48
_cell_length_a 9.000000
_cell_length_b 9.000000
_cell_length_c 30.000000
_cell_angle_alpha 90.000000
_cell_angle_beta 90.000000
_cell_angle_gamma 90.000000
_cell_volume 2430.000000
_symmetry_space_group_name_H-M "P N M A"
_symmetry_group_IT_number 62
_symmetry_cell_setting 'orthorhombic'
loop_
_space_group_symop_operation_xyz
x,y,z
1/2-x,-y,1/2+z
1/2+x,1/2-y,1/2-z
-x,1/2+y,-z
-x,-y,-z
1/2+x,y,1/2-z
1/2-x,1/2+y,1/2+z
x,1/2-y,z
loop_
_atom_site_type_symbol
_atom_site_label
_atom_site_fract_x
_atom_site_fract_y
_atom_site_fract_z
Si Si1 0.281322 0.926217 0.467502
Si Si2 0.385277 0.069813 0.723236
Si Si3 0.121055 0.924329 0.054867
Si Si4 0.315181 0.926324 0.141804
Si Si5 0.119608 0.073208 0.389679
Si Si6 0.288058 0.930055 0.310202
O O1 0.257924 0.750000 0.464628
O O2 0.446325 0.961257 0.447882
O O3 0.291557 0.979986 0.518367
O O4 0.159802 0.010448 0.438340
O O5 0.386222 0.250000 0.722215
O O6 0.259915 0.023008 0.687816
O O7 0.333688 0.028577 0.772663
O O8 0.549435 0.024598 0.707792
O O9 0.134195 0.750000 0.042558
O O10 0.191104 0.942564 0.103384
O O11 0.351675 0.750000 0.145700
O O12 0.461680 0.012496 0.127352
O O13 0.122580 0.250000 0.389490
O O14 0.242106 0.006252 0.355939
O O15 0.287542 0.750000 0.315686
#
# Coordination Sequence:
#
# PCOD9467856 Si02
#       6
#     8   8   8   8   8   8
#     4  10  20  37  61  85 111 146 185 227 278 335
#     4   9  18  34  62  91 112 141 184 229 272 330
#     4   9  19  36  60  88 114 141 180 230 281 333
#     4  10  20  37  59  83 112 147 186 228 275 327
#     4  12  25  38  53  79 114 151 191 233 277 325
#     4  10  19  36  61  87 113 144 184 228 277 331
#
# _framework density 19.753086
#
# number of rings (size 3 to 8) (size 9 to 14) (size 15 to 20)
#    0.000    2.000    0.000    4.000    0.000    7.333 
#    0.000    5.833    0.000    0.000    0.000    0.000 
#    0.000    0.000    0.000    0.000    0.000    0.000 
#
# Total GULP energy -268242.127218 kJ/mol
# GULP energy per Si atom -5588.377650 kJ/mol
# Density = 1.970813 g / cm^3
# Si number density = 19.753086 Si / 1000 Ang^3
#
#
#
# Elastic Constant Matrix: (Units=GPa)
#
#
# Indices 1 2 3 4 5 6 
#
# 1 20.1798 1.2819 -24.7750 0.0000 0.0000 0.0000
# 2 1.2819 44.4791 14.7986 0.0000 0.0000 0.0000
# 3 -24.7750 14.7986 40.8857 0.0000 0.0000 0.0000
# 4 0.0000 0.0000 0.0000 21.7742 0.0000 0.0000
# 5 0.0000 0.0000 0.0000 0.0000 26.3337 0.0000
# 6 0.0000 0.0000 0.0000 0.0000 0.0000 16.1201
#
#
#
# Elastic Compliance Matrix: (Units=1/GPa)
#
#
# Indices 1 2 3 4 5 6 
#
# 1 0.402869 -0.105541 0.282322 0.000000 0.000000 0.000000
# 2 -0.105541 0.053210 -0.083213 0.000000 0.000000 0.000000
# 3 0.282322 -0.083213 0.225652 0.000000 0.000000 0.000000
# 4 0.000000 0.000000 0.000000 0.045926 0.000000 0.000000
# 5 0.000000 0.000000 0.000000 0.000000 0.037974 0.000000
# 6 0.000000 0.000000 0.000000 0.000000 0.000000 0.062034
#
#
# Mechanical properties :
#
#
# Convention : Reuss Voigt Hill
#
# Bulk Modulus (GPa) = 1.15093 9.79507 5.47300
# Shear Modulus (GPa) = 5.37547 20.46156 12.91851
#
# Velocity S-wave (km/s) = 1.65144 3.22198 2.56012
# Velocity P-wave (km/s) = 2.05432 4.33717 3.39347
#
# Compressibility (1/GPa) = 0.86886608
#
# Stress axis : x y z
#
# Youngs Moduli (GPa) = 2.48220 18.79356 4.43160
#
# Poissons Ratio (x) = 1.98350 -1.25114
# Poissons Ratio (y) = 0.26197 0.36877
# Poissons Ratio (z) = -0.70078 1.56386
#
# Static dielectric constant tensor:
#      x y z
#    x 1.691160 0.000000 0.000000 
#    y 0.000000 1.658360 0.000000 
#    z 0.000000 0.000000 1.683650 
# 
# From -- ./inp_files/32005.got.cif
#   From: 2010.05.17/outbox.ucp.g08.bks.cvg/sg62_17_cif.got.tgz:32005.got - 2010.06.11 16:29:25.
