data_PCOD9467881
_publ_section_title
;
Structure prediction by ZEFSAII (Michael W. Deem and Ramdas Pophale) SiO2 
 PCOD9467881
Probable space group: P N M A
;
_chemical_formula_sum "Si O2"
_cell_formula_units_Z 64
_cell_length_a 21.000000
_cell_length_b 9.000000
_cell_length_c 18.000000
_cell_angle_alpha 90.000000
_cell_angle_beta 90.000000
_cell_angle_gamma 90.000000
_cell_volume 3402.000000
_symmetry_space_group_name_H-M "P N M A"
_symmetry_group_IT_number 62
_symmetry_cell_setting 'orthorhombic'
loop_
_space_group_symop_operation_xyz
x,y,z
1/2-x,-y,1/2+z
1/2+x,1/2-y,1/2-z
-x,1/2+y,-z
-x,-y,-z
1/2+x,y,1/2-z
1/2-x,1/2+y,1/2+z
x,1/2-y,z
loop_
_atom_site_type_symbol
_atom_site_label
_atom_site_fract_x
_atom_site_fract_y
_atom_site_fract_z
Si Si1 0.347566 0.427528 0.531868
Si Si2 0.431235 0.421024 0.084783
Si Si3 0.858285 0.572345 0.286102
Si Si4 0.915764 0.577643 0.566572
Si Si5 0.109666 0.071271 0.883549
Si Si6 0.109900 0.428052 0.268483
Si Si7 0.728373 0.072784 0.339537
Si Si8 0.465373 0.427724 0.639343
O O1 0.339887 0.250000 0.530802
O O2 0.352641 0.491673 0.449336
O O3 0.294066 0.503114 0.582652
O O4 0.412958 0.463597 0.576789
O O5 0.411521 0.250000 0.093268
O O6 0.411297 0.511525 0.157433
O O7 0.507615 0.425522 0.076406
O O8 0.401990 0.488231 0.008792
O O9 0.856397 0.750000 0.290997
O O10 0.869194 0.532862 0.199971
O O11 0.793177 0.500583 0.313723
O O12 0.896399 0.750000 0.556375
O O13 0.888779 0.521253 0.645697
O O14 0.114603 0.250000 0.892741
O O15 0.035241 0.027947 0.887246
O O16 0.100332 0.250000 0.270586
O O17 0.174331 0.459589 0.222735
O O18 0.055009 0.498647 0.217172
O O19 0.733744 0.250000 0.346151
O O20 0.465259 0.250000 0.650206
#
# Coordination Sequence:
#
# PCOD9467881 Si02
#       8
#     8   8   8   8   8   8   8   8
#     4  10  20  35  57  84 112 145 183 224 272 328
#     4  10  20  34  55  82 111 145 181 224 278 333
#     4  11  23  39  57  78 108 147 187 230 279 325
#     4   9  18  34  55  82 114 143 180 226 276 333
#     4  10  21  36  55  82 114 147 182 225 275 327
#     4   9  18  33  55  81 107 142 182 226 275 323
#     4  10  21  39  59  77 105 143 185 229 276 327
#     4   9  18  32  53  83 117 148 179 220 274 330
#
# _framework density 18.812463000000001
#
# number of rings (size 3 to 8) (size 9 to 14) (size 15 to 20)
#    0.000    2.250    0.000    2.625    0.000    3.500 
#    2.250    0.000    0.000    0.000    0.000    0.000 
#    0.000    0.000    0.000    0.000    0.000    0.000 
#
# Total GULP energy -357277.499741 kJ/mol
# GULP energy per Si atom -5582.460933 kJ/mol
# Density = 1.876965 g / cm^3
# Si number density = 18.812463 Si / 1000 Ang^3
#
#
#
# Elastic Constant Matrix: (Units=GPa)
#
#
# Indices 1 2 3 4 5 6 
#
# 1 32.7922 24.8673 21.6666 0.0000 0.0000 0.0000
# 2 24.8673 51.2372 53.6388 0.0000 0.0000 0.0000
# 3 21.6666 53.6388 138.6394 0.0000 0.0000 0.0000
# 4 0.0000 0.0000 0.0000 35.8549 0.0000 0.0000
# 5 0.0000 0.0000 0.0000 0.0000 4.3635 0.0000
# 6 0.0000 0.0000 0.0000 0.0000 0.0000 21.5609
#
#
#
# Elastic Compliance Matrix: (Units=1/GPa)
#
#
# Indices 1 2 3 4 5 6 
#
# 1 0.048799 -0.026388 0.002583 0.000000 0.000000 0.000000
# 2 -0.026388 0.047073 -0.014088 0.000000 0.000000 0.000000
# 3 0.002583 -0.014088 0.012260 0.000000 0.000000 0.000000
# 4 0.000000 0.000000 0.000000 0.027890 0.000000 0.000000
# 5 0.000000 0.000000 0.000000 0.000000 0.229173 0.000000
# 6 0.000000 0.000000 0.000000 0.000000 0.000000 0.046380
#
#
# Mechanical properties :
#
#
# Convention : Reuss Voigt Hill
#
# Bulk Modulus (GPa) = 30.91643 47.00157 38.95900
# Shear Modulus (GPa) = 10.03725 20.52228 15.27976
#
# Velocity S-wave (km/s) = 2.31236 3.30644 2.85303
# Velocity P-wave (km/s) = 4.85788 6.29406 5.62202
#
# Compressibility (1/GPa) = 0.03234526
#
# Stress axis : x y z
#
# Youngs Moduli (GPa) = 20.49211 21.24362 81.56638
#
# Poissons Ratio (x) = 0.56058 -0.21070
# Poissons Ratio (y) = 0.54075 1.14913
# Poissons Ratio (z) = -0.05293 0.29929
#
# Static dielectric constant tensor:
#      x y z
#    x 1.671510 0.000000 0.000000 
#    y 0.000000 1.632150 0.000000 
#    z 0.000000 0.000000 1.633480 
# 
# From -- ./inp_files/24827.got.cif
#   From: 2010.05.17/outbox.ucp.g08.bks.cvg/sg62_13_cif.got.tgz:24827.got - 2010.06.11 16:29:25.
