data_PCOD9467476
_publ_section_title
;
Structure prediction by ZEFSAII (Michael W. Deem and Ramdas Pophale) SiO2 
 PCOD9467476
Probable space group: P N M A
;
_chemical_formula_sum "Si O2"
_cell_formula_units_Z 64
_cell_length_a 7.495813
_cell_length_b 23.861923
_cell_length_c 18.493038
_cell_angle_alpha 90.000000
_cell_angle_beta 90.000000
_cell_angle_gamma 90.000000
_cell_volume 3307.748229
_symmetry_space_group_name_H-M "P N M A"
_symmetry_group_IT_number 62
_symmetry_cell_setting 'orthorhombic'
loop_
_space_group_symop_operation_xyz
x,y,z
1/2-x,-y,1/2+z
1/2+x,1/2-y,1/2-z
-x,1/2+y,-z
-x,-y,-z
1/2+x,y,1/2-z
1/2-x,1/2+y,1/2+z
x,1/2-y,z
loop_
_atom_site_type_symbol
_atom_site_label
_atom_site_fract_x
_atom_site_fract_y
_atom_site_fract_z
Si Si1 0.694565 0.589380 0.042855
Si Si2 0.200359 0.018048 0.080297
Si Si3 0.172893 0.119042 0.709924
Si Si4 0.569852 0.972854 0.288038
Si Si5 0.270679 0.186348 0.587859
Si Si6 0.711490 0.089648 0.013070
Si Si7 0.671141 0.185819 0.644379
Si Si8 0.889401 0.981231 0.637774
O O1 0.495113 0.593090 0.012215
O O2 0.758160 0.644902 0.082233
O O3 0.683225 0.538608 0.100938
O O4 0.813435 0.569726 0.974873
O O5 0.396645 0.020945 0.119575
O O6 0.051873 0.012073 0.142336
O O7 0.206846 0.963791 0.028621
O O8 0.320168 0.078277 0.675881
O O9 0.126452 0.159428 0.643771
O O10 0.218416 0.157576 0.778511
O O11 0.057094 0.068714 0.743127
O O12 0.644295 0.011437 0.222986
O O13 0.225161 0.250000 0.569237
O O14 0.291895 0.146827 0.518081
O O15 0.456247 0.187137 0.633038
O O16 0.697830 0.071364 0.096578
O O17 0.733924 0.250000 0.641018
#
# Coordination Sequence:
#
# PCOD9467476 Si02
#       8
#     8   8   8   8   8   8   8   8
#     4   9  18  33  53  72  95 130 170 210 248 303
#     4   9  17  32  51  74 102 128 161 208 260 296
#     4  12  21  34  48  71 104 137 172 201 239 295
#     4  12  19  32  53  73 104 134 164 205 248 302
#     4  11  23  37  49  68 103 140 173 213 251 287
#     4   9  17  34  51  70  95 132 171 206 246 303
#     4  11  23  36  48  70 103 136 172 214 251 287
#     4   9  17  30  51  73 101 130 162 206 257 297
#
# _framework density 19.348510999999998
#
# number of rings (size 3 to 8) (size 9 to 14) (size 15 to 20)
#    0.000    1.750    5.000    2.625    0.000    0.500 
#    2.250    1.875    0.000    0.000    0.000    0.875 
#    0.000    0.000    0.000    0.000    0.000    0.000 
#
# Total GULP energy -356643.640811 kJ/mol
# GULP energy per Si atom -5572.556888 kJ/mol
# Density = 1.930447 g / cm^3
# Si number density = 19.348511 Si / 1000 Ang^3
#
#
#
# Elastic Constant Matrix: (Units=GPa)
#
#
# Indices 1 2 3 4 5 6 
#
# 1 25.5693 14.0775 20.2298 0.0000 0.0000 0.0000
# 2 14.0775 119.6507 76.5543 0.0000 0.0000 0.0000
# 3 20.2298 76.5543 107.9557 0.0000 0.0000 0.0000
# 4 0.0000 0.0000 0.0000 22.1867 0.0000 0.0000
# 5 0.0000 0.0000 0.0000 0.0000 74.6684 0.0000
# 6 0.0000 0.0000 0.0000 0.0000 0.0000 21.5674
#
#
#
# Elastic Compliance Matrix: (Units=1/GPa)
#
#
# Indices 1 2 3 4 5 6 
#
# 1 0.045919 0.000188 -0.008738 0.000000 0.000000 0.000000
# 2 0.000188 0.015300 -0.010885 0.000000 0.000000 0.000000
# 3 -0.008738 -0.010885 0.018619 0.000000 0.000000 0.000000
# 4 0.000000 0.000000 0.000000 0.045072 0.000000 0.000000
# 5 0.000000 0.000000 0.000000 0.000000 0.013393 0.000000
# 6 0.000000 0.000000 0.000000 0.000000 0.000000 0.046366
#
#
# Mechanical properties :
#
#
# Convention : Reuss Voigt Hill
#
# Bulk Modulus (GPa) = 24.40887 52.76654 38.58770
# Shear Modulus (GPa) = 21.07971 33.17211 27.12591
#
# Velocity S-wave (km/s) = 3.30430 4.14509 3.74834
# Velocity P-wave (km/s) = 5.21542 7.08801 6.22256
#
# Compressibility (1/GPa) = 0.04096871
#
# Stress axis : x y z
#
# Youngs Moduli (GPa) = 21.77730 65.36072 53.70809
#
# Poissons Ratio (x) = -0.01231 0.46932
# Poissons Ratio (y) = -0.00410 0.58460
# Poissons Ratio (z) = 0.19030 0.71143
#
# Static dielectric constant tensor:
#      x y z
#    x 1.931400 0.000000 0.000000 
#    y 0.000000 1.666000 0.000000 
#    z 0.000000 0.000000 1.856220 
# 
# From -- ./inp_files/22657.got.cif
#   From: 2010.05.17/outbox.cif.g08.bks.cpg/sg62_12_cif.got.tgz:22657.got - 2010.06.03 15:25:27.
