data_PCOD9467766
_publ_section_title
;
Structure prediction by ZEFSAII (Michael W. Deem and Ramdas Pophale) SiO2 
 PCOD9467766
Probable space group: P N M A
;
_chemical_formula_sum "Si O2"
_cell_formula_units_Z 64
_cell_length_a 15.000000
_cell_length_b 9.000000
_cell_length_c 24.000000
_cell_angle_alpha 90.000000
_cell_angle_beta 90.000000
_cell_angle_gamma 90.000000
_cell_volume 3240.000000
_symmetry_space_group_name_H-M "P N M A"
_symmetry_group_IT_number 62
_symmetry_cell_setting 'orthorhombic'
loop_
_space_group_symop_operation_xyz
x,y,z
1/2-x,-y,1/2+z
1/2+x,1/2-y,1/2-z
-x,1/2+y,-z
-x,-y,-z
1/2+x,y,1/2-z
1/2-x,1/2+y,1/2+z
x,1/2-y,z
loop_
_atom_site_type_symbol
_atom_site_label
_atom_site_fract_x
_atom_site_fract_y
_atom_site_fract_z
Si Si1 0.431859 0.070285 0.643571
Si Si2 0.124397 0.431583 0.890383
Si Si3 0.441080 0.428694 0.887262
Si Si4 0.222632 0.929640 0.464900
Si Si5 0.740567 0.424286 0.336050
Si Si6 0.018871 0.576906 0.265562
Si Si7 0.884413 0.426589 0.427996
Si Si8 0.186474 0.078267 0.768426
O O1 0.428190 0.250000 0.642962
O O2 0.520893 0.024019 0.610926
O O3 0.446257 0.015343 0.707305
O O4 0.337435 0.002464 0.628748
O O5 0.124921 0.250000 0.888720
O O6 0.181814 0.482925 0.942968
O O7 0.171455 0.475879 0.831756
O O8 0.450670 0.250000 0.885655
O O9 0.347792 0.462412 0.916006
O O10 0.449660 0.487888 0.824093
O O11 0.521610 0.492917 0.923543
O O12 0.229245 0.750000 0.469977
O O13 0.178518 0.982654 0.522021
O O14 0.723233 0.250000 0.333183
O O15 0.831384 0.447735 0.370467
O O16 0.751823 0.490577 0.274247
O O17 0.046361 0.750000 0.266021
O O18 0.912161 0.575073 0.258818
O O19 0.898943 0.250000 0.436068
O O20 0.216672 0.250000 0.771030
#
# Coordination Sequence:
#
# PCOD9467766 Si02
#       8
#     8   8   8   8   8   8   8   8
#     4   9  18  33  54  77 102 130 167 216 263 303
#     4   8  16  32  55  80 100 124 167 220 264 300
#     4  10  18  30  53  81 104 130 167 210 255 303
#     4   9  18  32  53  77 100 132 173 215 256 300
#     4  11  22  33  47  72 106 143 175 202 246 303
#     4   8  15  28  48  78 104 123 155 204 257 299
#     4  10  21  36  50  70 106 144 174 205 246 301
#     4   9  16  30  53  76 100 128 162 209 257 300
#
# _framework density 19.753086
#
# number of rings (size 3 to 8) (size 9 to 14) (size 15 to 20)
#    0.000    2.750    1.250    2.250    1.750    0.500 
#    0.000    3.750    0.000    2.250    0.000    0.000 
#    0.000    0.000    0.000    0.000    0.000    0.000 
#
# Total GULP energy -356611.861503 kJ/mol
# GULP energy per Si atom -5572.060336 kJ/mol
# Density = 1.970813 g / cm^3
# Si number density = 19.753086 Si / 1000 Ang^3
#
#
#
# Elastic Constant Matrix: (Units=GPa)
#
#
# Indices 1 2 3 4 5 6 
#
# 1 55.5493 20.2757 -31.1045 0.0000 0.0000 0.0000
# 2 20.2757 4.6168 -0.1798 0.0000 0.0000 0.0000
# 3 -31.1045 -0.1798 1.1868 0.0000 0.0000 0.0000
# 4 0.0000 0.0000 0.0000 10.2225 0.0000 0.0000
# 5 0.0000 0.0000 0.0000 0.0000 12.8824 0.0000
# 6 0.0000 0.0000 0.0000 0.0000 0.0000 16.0574
#
#
#
# Elastic Compliance Matrix: (Units=1/GPa)
#
#
# Indices 1 2 3 4 5 6 
#
# 1 -0.001231 0.004174 -0.031627 0.000000 0.000000 0.000000
# 2 0.004174 0.203733 0.140259 0.000000 0.000000 0.000000
# 3 -0.031627 0.140259 0.034947 0.000000 0.000000 0.000000
# 4 0.000000 0.000000 0.000000 0.097824 0.000000 0.000000
# 5 0.000000 0.000000 0.000000 0.000000 0.077625 0.000000
# 6 0.000000 0.000000 0.000000 0.000000 0.000000 0.062276
#
#
# Mechanical properties :
#
#
# Convention : Reuss Voigt Hill
#
# Bulk Modulus (GPa) = 2.15954 4.37063 3.26509
# Shear Modulus (GPa) = 12.37884 12.65656 12.51770
#
# Velocity S-wave (km/s) = 2.50607 2.53403 2.52009
# Velocity P-wave (km/s) = 3.07725 3.28316 3.18187
#
# Compressibility (1/GPa) = 0.46306084
#
# Stress axis : x y z
#
# Youngs Moduli (GPa) = -812.45151 4.90839 28.61509
#
# Poissons Ratio (x) = -0.02049 0.90501
# Poissons Ratio (y) = 3.39120 -4.01353
# Poissons Ratio (z) = -25.69536 -0.68845
#
# Static dielectric constant tensor:
#      x y z
#    x 1.721260 0.000000 0.000000 
#    y 0.000000 1.664540 0.000000 
#    z 0.000000 0.000000 1.723820 
# 
# From -- ./inp_files/29810.got.cif
#   From: 2010.05.17/outbox.ucp.g08.bks.cvg/sg62_15_cif.got.tgz:29810.got - 2010.06.11 16:29:25.
