data_PCOD9467429
_publ_section_title
;
Structure prediction by ZEFSAII (Michael W. Deem and Ramdas Pophale) SiO2 
 PCOD9467429
Probable space group: P N M A
;
_chemical_formula_sum "Si O2"
_cell_formula_units_Z 48
_cell_length_a 7.749487
_cell_length_b 10.203574
_cell_length_c 26.603104
_cell_angle_alpha 90.000000
_cell_angle_beta 90.000000
_cell_angle_gamma 90.000000
_cell_volume 2103.572985
_symmetry_space_group_name_H-M "P N M A"
_symmetry_group_IT_number 62
_symmetry_cell_setting 'orthorhombic'
loop_
_space_group_symop_operation_xyz
x,y,z
1/2-x,-y,1/2+z
1/2+x,1/2-y,1/2-z
-x,1/2+y,-z
-x,-y,-z
1/2+x,y,1/2-z
1/2-x,1/2+y,1/2+z
x,1/2-y,z
loop_
_atom_site_type_symbol
_atom_site_label
_atom_site_fract_x
_atom_site_fract_y
_atom_site_fract_z
Si Si1 0.442471 0.905351 0.569198
Si Si2 0.573750 0.250000 0.825134
Si Si3 0.941253 0.750000 0.768616
Si Si4 0.037182 0.750000 0.213854
Si Si5 0.582203 0.519851 0.670096
Si Si6 0.754622 0.593510 0.027279
Si Si7 0.589887 0.750000 0.833808
Si Si8 0.451357 0.997796 0.884256
O O1 0.494324 0.750000 0.566738
O O2 0.441613 0.946405 0.627080
O O3 0.277208 0.917760 0.532835
O O4 0.584434 0.006952 0.547398
O O5 0.463109 0.250000 0.774002
O O6 0.769769 0.250000 0.806858
O O7 0.532600 0.376242 0.858025
O O8 0.047417 0.877083 0.786168
O O9 0.762692 0.750000 0.799863
O O10 0.939132 0.750000 0.708589
O O11 0.943309 0.622605 0.192656
O O12 0.766609 0.528615 0.643143
O O13 0.769123 0.750000 0.039539
O O14 0.595168 0.533465 0.058125
O O15 0.565210 0.873693 0.869844
#
# Coordination Sequence:
#
# PCOD9467429 Si02
#       8
#     8   4   4   4   8   8   4   8
#     4   9  18  33  58  91 124 157 199 251 300 353
#     4  12  24  44  61  88 121 163 200 253 303 368
#     4  12  24  44  61  88 121 163 200 253 303 368
#     4  12  26  40  63  86 123 159 206 249 307 364
#     4  11  22  39  63  92 121 159 202 251 301 355
#     4   9  18  33  58  91 124 157 199 251 300 353
#     4  12  26  40  63  86 123 159 206 249 307 364
#     4  11  22  39  63  92 121 159 202 251 301 355
#
# _framework density 22.81832
#
# number of rings (size 3 to 8) (size 9 to 14) (size 15 to 20)
#    0.000    1.333    1.667    5.000    7.000    0.000 
#    0.000    0.000    0.000    6.000    0.000    0.000 
#    0.000    0.000    0.000    0.000    0.000    0.000 
#
# Total GULP energy -268341.919016 kJ/mol
# GULP energy per Si atom -5590.456646 kJ/mol
# Density = 2.276638 g / cm^3
# Si number density = 22.818320 Si / 1000 Ang^3
#
#
#
# Elastic Constant Matrix: (Units=GPa)
#
#
# Indices 1 2 3 4 5 6 
#
# 1 73.9090 27.1251 -12.7993 0.0000 0.0000 0.0000
# 2 27.1251 170.8872 36.7283 0.0000 0.0000 0.0000
# 3 -12.7993 36.7283 86.5596 0.0000 0.0000 0.0000
# 4 0.0000 0.0000 0.0000 54.4125 0.0000 0.0000
# 5 0.0000 0.0000 0.0000 0.0000 20.9678 0.0000
# 6 0.0000 0.0000 0.0000 0.0000 0.0000 -100.3148
#
#
#
# Elastic Compliance Matrix: (Units=1/GPa)
#
#
# Indices 1 2 3 4 5 6 
#
# 1 0.015339 -0.003216 0.003633 0.000000 0.000000 0.000000
# 2 -0.003216 0.007113 -0.003494 0.000000 0.000000 0.000000
# 3 0.003633 -0.003494 0.013572 0.000000 0.000000 0.000000
# 4 0.000000 0.000000 0.000000 0.018378 0.000000 0.000000
# 5 0.000000 0.000000 0.000000 0.000000 0.047692 0.000000
# 6 0.000000 0.000000 0.000000 0.000000 0.000000 -0.009969
#
#
# Mechanical properties :
#
#
# Convention : Reuss Voigt Hill
#
# Bulk Modulus (GPa) = 33.47674 48.16267 40.81971
# Shear Modulus (GPa) = 46.19495 13.69988 29.94742
#
# Velocity S-wave (km/s) = 4.50429 2.45294 3.62668
# Velocity P-wave (km/s) = 6.46176 5.40143 5.95524
#
# Compressibility (1/GPa) = 0.02987149
#
# Stress axis : x y z
#
# Youngs Moduli (GPa) = 65.19171 140.58547 73.67957
#
# Poissons Ratio (x) = 0.45206 -0.26765
# Poissons Ratio (y) = 0.20963 0.25741
# Poissons Ratio (z) = -0.23682 0.49116
#
# Static dielectric constant tensor:
#      x y z
#    x 1.902830 0.000000 0.000000 
#    y 0.000000 1.811160 0.000000 
#    z 0.000000 0.000000 1.860990 
# 
# From -- ./inp_files/32124.got.cif
#   From: 2010.05.17/outbox.cif.g08.bks.cpg/sg62_17_cif.got.tgz:32124.got - 2010.06.03 15:25:27.
