data_PCOD9467458
_publ_section_title
;
Structure prediction by ZEFSAII (Michael W. Deem and Ramdas Pophale) SiO2 
 PCOD9467458
Probable space group: P N M A
;
_chemical_formula_sum "Si O2"
_cell_formula_units_Z 48
_cell_length_a 8.841066
_cell_length_b 16.110346
_cell_length_c 17.569667
_cell_angle_alpha 90.000000
_cell_angle_beta 90.000000
_cell_angle_gamma 90.000000
_cell_volume 2502.493919
_symmetry_space_group_name_H-M "P N M A"
_symmetry_group_IT_number 62
_symmetry_cell_setting 'orthorhombic'
loop_
_space_group_symop_operation_xyz
x,y,z
1/2-x,-y,1/2+z
1/2+x,1/2-y,1/2-z
-x,1/2+y,-z
-x,-y,-z
1/2+x,y,1/2-z
1/2-x,1/2+y,1/2+z
x,1/2-y,z
loop_
_atom_site_type_symbol
_atom_site_label
_atom_site_fract_x
_atom_site_fract_y
_atom_site_fract_z
Si Si1 0.651614 0.022285 0.455399
Si Si2 0.871544 0.604231 0.523824
Si Si3 0.661103 0.250000 0.135584
Si Si4 0.988848 0.062153 0.197164
Si Si5 0.654953 0.990675 0.159363
Si Si6 0.825773 0.345451 0.555836
Si Si7 0.432560 0.250000 0.255712
O O1 0.605691 0.042579 0.370054
O O2 0.723520 0.101467 0.497632
O O3 0.500000 0.000000 0.500000
O O4 0.758728 0.942575 0.467222
O O5 0.804188 0.672237 0.581782
O O6 0.917874 0.532364 0.583649
O O7 0.006790 0.646971 0.479409
O O8 0.488022 0.250000 0.167345
O O9 0.760238 0.250000 0.212751
O O10 0.988951 0.160910 0.213092
O O11 0.047570 0.013903 0.271349
O O12 0.820875 0.030322 0.174863
O O13 0.676106 0.895261 0.135574
O O14 0.780674 0.250000 0.562025
#
# Coordination Sequence:
#
# PCOD9467458 Si02
#       7
#     8   8   4   8   8   8   4
#     4  11  22  43  65  96 130 173 213 269 331 387
#     4  11  22  43  65  92 136 171 216 261 321 397
#     4  12  22  40  62 102 132 166 213 265 321 391
#     4  12  24  39  66  95 133 171 211 266 335 395
#     4  11  24  43  63  95 131 173 213 264 330 397
#     4  11  25  44  69  94 128 174 228 273 316 388
#     4  12  22  38  62  98 140 162 207 269 325 401
#
# _framework density 19.180866999999999
#
# number of rings (size 3 to 8) (size 9 to 14) (size 15 to 20)
#    0.000    0.667    7.500    2.000    5.833    1.333 
#    1.500    0.833    1.833    0.000    0.000    0.000 
#    0.000    0.000    0.000    0.000    0.000    0.000 
#
# Total GULP energy -267895.943858 kJ/mol
# GULP energy per Si atom -5581.165497 kJ/mol
# Density = 1.913721 g / cm^3
# Si number density = 19.180867 Si / 1000 Ang^3
#
#
#
# Elastic Constant Matrix: (Units=GPa)
#
#
# Indices 1 2 3 4 5 6 
#
# 1 75.5488 34.5434 27.5923 0.0000 0.0000 0.0000
# 2 34.5434 126.5114 29.7115 0.0000 0.0000 0.0000
# 3 27.5923 29.7115 78.2836 0.0000 0.0000 0.0000
# 4 0.0000 0.0000 0.0000 23.7866 0.0000 0.0000
# 5 0.0000 0.0000 0.0000 0.0000 34.8761 0.0000
# 6 0.0000 0.0000 0.0000 0.0000 0.0000 19.5696
#
#
#
# Elastic Compliance Matrix: (Units=1/GPa)
#
#
# Indices 1 2 3 4 5 6 
#
# 1 0.016449 -0.003436 -0.004494 0.000000 0.000000 0.000000
# 2 -0.003436 0.009396 -0.002355 0.000000 0.000000 0.000000
# 3 -0.004494 -0.002355 0.015252 0.000000 0.000000 0.000000
# 4 0.000000 0.000000 0.000000 0.042040 0.000000 0.000000
# 5 0.000000 0.000000 0.000000 0.000000 0.028673 0.000000
# 6 0.000000 0.000000 0.000000 0.000000 0.000000 0.051100
#
#
# Mechanical properties :
#
#
# Convention : Reuss Voigt Hill
#
# Bulk Modulus (GPa) = 48.71591 51.55980 50.13785
# Shear Modulus (GPa) = 26.27150 28.21289 27.24219
#
# Velocity S-wave (km/s) = 3.70492 3.83938 3.77275
# Velocity P-wave (km/s) = 6.61478 6.82595 6.72119
#
# Compressibility (1/GPa) = 0.02052718
#
# Stress axis : x y z
#
# Youngs Moduli (GPa) = 60.79527 106.43213 65.56656
#
# Poissons Ratio (x) = 0.36569 0.29463
# Poissons Ratio (y) = 0.20889 0.15441
# Poissons Ratio (z) = 0.27319 0.25064
#
# Static dielectric constant tensor:
#      x y z
#    x 1.720000 0.000000 0.000000 
#    y 0.000000 1.705760 0.000000 
#    z 0.000000 0.000000 1.756770 
# 
# From -- ./inp_files/22239.got.cif
#   From: 2010.05.17/outbox.cif.g08.bks.cpg/sg62_12_cif.got.tgz:22239.got - 2010.06.03 15:25:27.
