data_PCOD9467799
_publ_section_title
;
Structure prediction by ZEFSAII (Michael W. Deem and Ramdas Pophale) SiO2 
 PCOD9467799
Probable space group: P N M A
;
_chemical_formula_sum "Si O2"
_cell_formula_units_Z 64
_cell_length_a 30.000000
_cell_length_b 9.000000
_cell_length_c 15.000000
_cell_angle_alpha 90.000000
_cell_angle_beta 90.000000
_cell_angle_gamma 90.000000
_cell_volume 4050.000000
_symmetry_space_group_name_H-M "P N M A"
_symmetry_group_IT_number 62
_symmetry_cell_setting 'orthorhombic'
loop_
_space_group_symop_operation_xyz
x,y,z
1/2-x,-y,1/2+z
1/2+x,1/2-y,1/2-z
-x,1/2+y,-z
-x,-y,-z
1/2+x,y,1/2-z
1/2-x,1/2+y,1/2+z
x,1/2-y,z
loop_
_atom_site_type_symbol
_atom_site_label
_atom_site_fract_x
_atom_site_fract_y
_atom_site_fract_z
Si Si1 0.126998 0.078109 0.685998
Si Si2 0.866677 0.425642 0.662825
Si Si3 0.709032 0.068725 0.696337
Si Si4 0.551596 0.577926 0.906386
Si Si5 0.775305 0.573128 0.993690
Si Si6 0.818255 0.921170 0.497704
Si Si7 0.795423 0.427393 0.812609
Si Si8 0.447465 0.577186 0.902660
O O1 0.115753 0.250000 0.705472
O O2 0.163034 0.023150 0.757354
O O3 0.152235 0.075113 0.590958
O O4 0.083201 0.982277 0.670851
O O5 0.864201 0.250000 0.644204
O O6 0.844319 0.515532 0.582043
O O7 0.838250 0.454663 0.751108
O O8 0.917117 0.481936 0.663115
O O9 0.710264 0.250000 0.697653
O O10 0.711540 0.021951 0.593397
O O11 0.751777 0.021581 0.755704
O O12 0.561575 0.750000 0.926116
O O13 0.499709 0.564998 0.882465
O O14 0.558626 0.484566 0.996936
O O15 0.779681 0.750000 0.990861
O O16 0.724301 0.523500 0.983184
O O17 0.799188 0.502310 0.908583
O O18 0.804693 0.750000 0.512502
O O19 0.790311 0.250000 0.825184
O O20 0.434346 0.750000 0.900596
#
# Coordination Sequence:
#
# PCOD9467799 Si02
#       8
#     8   8   8   8   8   8   8   8
#     4  10  19  32  50  69  95 135 170 200 243 293
#     4  11  21  33  51  72  98 135 171 206 245 292
#     4   9  18  34  50  67  97 133 165 200 244 290
#     4  10  20  32  48  71 101 131 162 203 247 295
#     4  11  21  34  51  72  98 132 173 210 243 287
#     4  11  20  30  48  72 101 135 168 204 247 289
#     4  10  20  36  51  69 101 134 165 204 251 293
#     4  10  20  33  48  70 101 133 162 200 249 298
#
# _framework density 15.802469
#
# number of rings (size 3 to 8) (size 9 to 14) (size 15 to 20)
#    0.000    1.750    3.750    1.875    0.000    3.000 
#    0.000    1.250    0.000    0.000    0.000    0.875 
#    0.000    0.000    0.000    0.000    0.000    0.000 
#
# Total GULP energy -356958.329011 kJ/mol
# GULP energy per Si atom -5577.473891 kJ/mol
# Density = 1.576650 g / cm^3
# Si number density = 15.802469 Si / 1000 Ang^3
#
#
#
# Elastic Constant Matrix: (Units=GPa)
#
#
# Indices 1 2 3 4 5 6 
#
# 1 61.5304 23.3572 29.5207 0.0000 0.0000 0.0000
# 2 23.3572 28.1884 35.8099 0.0000 0.0000 0.0000
# 3 29.5207 35.8099 79.1808 0.0000 0.0000 0.0000
# 4 0.0000 0.0000 0.0000 23.1655 0.0000 0.0000
# 5 0.0000 0.0000 0.0000 0.0000 17.9668 0.0000
# 6 0.0000 0.0000 0.0000 0.0000 0.0000 25.1228
#
#
#
# Elastic Compliance Matrix: (Units=1/GPa)
#
#
# Indices 1 2 3 4 5 6 
#
# 1 0.023710 -0.019782 0.000107 0.000000 0.000000 0.000000
# 2 -0.019782 0.099885 -0.037798 0.000000 0.000000 0.000000
# 3 0.000107 -0.037798 0.029684 0.000000 0.000000 0.000000
# 4 0.000000 0.000000 0.000000 0.043168 0.000000 0.000000
# 5 0.000000 0.000000 0.000000 0.000000 0.055658 0.000000
# 6 0.000000 0.000000 0.000000 0.000000 0.000000 0.039805
#
#
# Mechanical properties :
#
#
# Convention : Reuss Voigt Hill
#
# Bulk Modulus (GPa) = 26.08776 38.47503 32.28140
# Shear Modulus (GPa) = 11.91512 18.59846 15.25679
#
# Velocity S-wave (km/s) = 2.74889 3.43437 3.11057
# Velocity P-wave (km/s) = 5.15943 6.33458 5.77696
#
# Compressibility (1/GPa) = 0.03833215
#
# Stress axis : x y z
#
# Youngs Moduli (GPa) = 42.17579 10.01148 33.68810
#
# Poissons Ratio (x) = 0.19805 -0.00360
# Poissons Ratio (y) = 0.83433 1.27336
# Poissons Ratio (z) = -0.00450 0.37842
#
# Static dielectric constant tensor:
#      x y z
#    x 1.565100 0.000000 0.000000 
#    y 0.000000 1.534320 0.000000 
#    z 0.000000 0.000000 1.525980 
# 
# From -- ./inp_files/21222.got.cif
#   From: 2010.05.17/outbox.ucp.g08.bks.cvg/sg62_11_cif.got.tgz:21222.got - 2010.06.11 16:29:25.
