data_PCOD9467462
_publ_section_title
;
Structure prediction by ZEFSAII (Michael W. Deem and Ramdas Pophale) SiO2 
 PCOD9467462
Probable space group: P N M A
;
_chemical_formula_sum "Si O2"
_cell_formula_units_Z 48
_cell_length_a 21.637399
_cell_length_b 17.216882
_cell_length_c 5.419000
_cell_angle_alpha 90.000000
_cell_angle_beta 90.000000
_cell_angle_gamma 90.000000
_cell_volume 2018.732187
_symmetry_space_group_name_H-M "P N M A"
_symmetry_group_IT_number 62
_symmetry_cell_setting 'orthorhombic'
loop_
_space_group_symop_operation_xyz
x,y,z
1/2-x,-y,1/2+z
1/2+x,1/2-y,1/2-z
-x,1/2+y,-z
-x,-y,-z
1/2+x,y,1/2-z
1/2-x,1/2+y,1/2+z
x,1/2-y,z
loop_
_atom_site_type_symbol
_atom_site_label
_atom_site_fract_x
_atom_site_fract_y
_atom_site_fract_z
Si Si1 0.641109 0.032827 0.448148
Si Si2 0.562667 0.160771 0.744009
Si Si3 0.452976 0.062476 0.893863
Si Si4 0.830926 0.664710 0.602038
Si Si5 0.789713 0.118502 0.913003
Si Si6 0.856609 0.163350 0.400503
O O1 0.599796 0.089556 0.617686
O O2 0.591566 0.982022 0.294360
O O3 0.693902 0.969122 0.502359
O O4 0.676813 0.095989 0.288585
O O5 0.567090 0.250000 0.642765
O O6 0.492841 0.131447 0.771503
O O7 0.599062 0.164422 0.004130
O O8 0.411269 0.100155 0.108257
O O9 0.500000 0.000000 0.000000
O O10 0.817262 0.750000 0.701072
O O11 0.781569 0.643434 0.391699
O O12 0.819696 0.139456 0.649414
O O13 0.818354 0.163343 0.147941
O O14 0.881383 0.250000 0.439584
#
# Coordination Sequence:
#
# PCOD9467462 Si02
#       6
#     8   8   8   8   8   8
#     4  11  25  42  72  97 139 183 235 287 354 413
#     4  11  24  43  67 101 138 180 233 288 355 419
#     4  11  22  44  67  97 136 179 234 291 348 418
#     4  11  25  44  67 101 140 182 228 287 351 418
#     4  11  27  44  74 104 141 182 237 289 348 421
#     4  11  24  46  71 103 138 185 234 291 352 413
#
# _framework density 23.777298999999999
#
# number of rings (size 3 to 8) (size 9 to 14) (size 15 to 20)
#    0.000    1.000    1.667    4.000    7.000    1.333 
#    0.000    3.333    0.000    0.000    0.000    0.000 
#    0.000    0.000    0.000    0.000    0.000    0.000 
#
# Total GULP energy -268029.939938 kJ/mol
# GULP energy per Si atom -5583.957082 kJ/mol
# Density = 2.372318 g / cm^3
# Si number density = 23.777299 Si / 1000 Ang^3
#
#
#
# Elastic Constant Matrix: (Units=GPa)
#
#
# Indices 1 2 3 4 5 6 
#
# 1 77.8599 23.9400 7.1874 0.0000 0.0000 0.0000
# 2 23.9400 178.1186 16.6630 0.0000 0.0000 0.0000
# 3 7.1874 16.6630 55.8701 0.0000 0.0000 0.0000
# 4 0.0000 0.0000 0.0000 89.0152 0.0000 0.0000
# 5 0.0000 0.0000 0.0000 0.0000 28.8631 0.0000
# 6 0.0000 0.0000 0.0000 0.0000 0.0000 22.6053
#
#
#
# Elastic Compliance Matrix: (Units=1/GPa)
#
#
# Indices 1 2 3 4 5 6 
#
# 1 0.013479 -0.001697 -0.001228 0.000000 0.000000 0.000000
# 2 -0.001697 0.005989 -0.001568 0.000000 0.000000 0.000000
# 3 -0.001228 -0.001568 0.018524 0.000000 0.000000 0.000000
# 4 0.000000 0.000000 0.000000 0.011234 0.000000 0.000000
# 5 0.000000 0.000000 0.000000 0.000000 0.034646 0.000000
# 6 0.000000 0.000000 0.000000 0.000000 0.000000 0.044237
#
#
# Mechanical properties :
#
#
# Convention : Reuss Voigt Hill
#
# Bulk Modulus (GPa) = 34.47472 45.26994 39.87233
# Shear Modulus (GPa) = 34.06836 45.70058 39.88447
#
# Velocity S-wave (km/s) = 3.78935 4.38885 4.10007
# Velocity P-wave (km/s) = 5.80311 6.69052 6.26256
#
# Compressibility (1/GPa) = 0.02900676
#
# Stress axis : x y z
#
# Youngs Moduli (GPa) = 74.19149 166.97379 53.98326
#
# Poissons Ratio (x) = 0.28331 0.06629
# Poissons Ratio (y) = 0.12588 0.08464
# Poissons Ratio (z) = 0.09110 0.26180
#
# Static dielectric constant tensor:
#      x y z
#    x 1.996470 0.000000 0.000000 
#    y 0.000000 1.918930 0.000000 
#    z 0.000000 0.000000 1.983290 
# 
# From -- ./inp_files/2736.got.cif
#   From: 2010.05.17/outbox.cif.g08.bks.cpg/sg62_2_cif.got.tgz:2736.got - 2010.06.03 15:25:27.
