data_PCOD9467852
_publ_section_title
;
Structure prediction by ZEFSAII (Michael W. Deem and Ramdas Pophale) SiO2 
 PCOD9467852
Probable space group: P N M A
;
_chemical_formula_sum "Si O2"
_cell_formula_units_Z 64
_cell_length_a 30.000000
_cell_length_b 9.000000
_cell_length_c 12.000000
_cell_angle_alpha 90.000000
_cell_angle_beta 90.000000
_cell_angle_gamma 90.000000
_cell_volume 3240.000000
_symmetry_space_group_name_H-M "P N M A"
_symmetry_group_IT_number 62
_symmetry_cell_setting 'orthorhombic'
loop_
_space_group_symop_operation_xyz
x,y,z
1/2-x,-y,1/2+z
1/2+x,1/2-y,1/2-z
-x,1/2+y,-z
-x,-y,-z
1/2+x,y,1/2-z
1/2-x,1/2+y,1/2+z
x,1/2-y,z
loop_
_atom_site_type_symbol
_atom_site_label
_atom_site_fract_x
_atom_site_fract_y
_atom_site_fract_z
Si Si1 0.693474 0.078084 0.737003
Si Si2 0.837799 0.077809 0.018069
Si Si3 0.070831 0.071628 0.987025
Si Si4 0.872572 0.569453 0.423331
Si Si5 0.871476 0.572598 0.671356
Si Si6 0.795180 0.082049 0.795874
Si Si7 0.037894 0.428974 0.214869
Si Si8 0.548970 0.070983 0.762875
O O1 0.679804 0.250000 0.713923
O O2 0.670517 0.031865 0.851620
O O3 0.745784 0.071582 0.751557
O O4 0.677034 0.977838 0.637453
O O5 0.850564 0.250000 0.021083
O O6 0.880061 0.982313 0.981103
O O7 0.798800 0.058094 0.928020
O O8 0.069907 0.250000 0.985892
O O9 0.062260 0.019612 0.861625
O O10 0.038106 0.021913 0.085510
O O11 0.874376 0.750000 0.429113
O O12 0.871375 0.510462 0.547040
O O13 0.914983 0.521234 0.352076
O O14 0.874266 0.750000 0.665957
O O15 0.827290 0.529047 0.734481
O O16 0.915135 0.522422 0.735843
O O17 0.811868 0.250000 0.775771
O O18 0.034091 0.250000 0.218946
O O19 0.998902 0.503152 0.283539
O O20 0.547579 0.250000 0.762558
#
# Coordination Sequence:
#
# PCOD9467852 Si02
#       8
#     8   8   8   8   8   8   8   8
#     4  10  21  40  61  81 115 155 187 226 281 341
#     4  11  22  36  59  90 118 144 187 239 283 327
#     4  10  19  36  58  82 113 152 190 226 284 346
#     4   9  19  37  60  82 108 149 195 230 274 339
#     4  10  21  38  61  83 111 152 194 234 278 338
#     4  10  23  39  58  87 118 149 186 233 285 333
#     4  10  21  35  54  84 115 145 188 236 284 336
#     4  10  20  35  57  81 109 149 191 230 282 342
#
# _framework density 19.753086
#
# number of rings (size 3 to 8) (size 9 to 14) (size 15 to 20)
#    0.000    2.000    2.500    0.750    1.750    3.000 
#    0.000    1.250    0.000    0.000    0.000    0.000 
#    0.000    0.000    0.000    0.000    0.000    0.000 
#
# Total GULP energy -356815.195599 kJ/mol
# GULP energy per Si atom -5575.237431 kJ/mol
# Density = 1.970813 g / cm^3
# Si number density = 19.753086 Si / 1000 Ang^3
#
#
#
# Elastic Constant Matrix: (Units=GPa)
#
#
# Indices 1 2 3 4 5 6 
#
# 1 40.0524 7.5915 25.0469 0.0000 0.0000 0.0000
# 2 7.5915 -33.0355 13.2108 0.0000 0.0000 0.0000
# 3 25.0469 13.2108 115.0411 0.0000 0.0000 0.0000
# 4 0.0000 0.0000 0.0000 -2.7755 0.0000 0.0000
# 5 0.0000 0.0000 0.0000 0.0000 39.2333 0.0000
# 6 0.0000 0.0000 0.0000 0.0000 0.0000 42.9671
#
#
#
# Elastic Compliance Matrix: (Units=1/GPa)
#
#
# Indices 1 2 3 4 5 6 
#
# 1 0.028375 0.003872 -0.006622 0.000000 0.000000 0.000000
# 2 0.003872 -0.028413 0.002420 0.000000 0.000000 0.000000
# 3 -0.006622 0.002420 0.009857 0.000000 0.000000 0.000000
# 4 0.000000 0.000000 0.000000 -0.360292 0.000000 0.000000
# 5 0.000000 0.000000 0.000000 0.000000 0.025489 0.000000
# 6 0.000000 0.000000 0.000000 0.000000 0.000000 0.023274
#
#
# Mechanical properties :
#
#
# Convention : Reuss Voigt Hill
#
# Bulk Modulus (GPa) = 109.20383 23.75069 66.47726
# Shear Modulus (GPa) = -16.77865 20.96556 2.09346
#
# Velocity S-wave (km/s) = -2.91764 3.26142 1.03059
# Velocity P-wave (km/s) = 6.63734 5.12175 5.92818
#
# Compressibility (1/GPa) = 0.00915719
#
# Stress axis : x y z
#
# Youngs Moduli (GPa) = 35.24265 -35.19515 101.45573
#
# Poissons Ratio (x) = 0.13628 0.67188
# Poissons Ratio (y) = -0.13646 -0.24550
# Poissons Ratio (z) = 0.23339 0.08516
#
# Static dielectric constant tensor:
#      x y z
#    x 1.685390 0.000000 0.000000 
#    y 0.000000 1.671260 0.000000 
#    z 0.000000 0.000000 1.701650 
# 
# From -- ./inp_files/15856.got.cif
#   From: 2010.05.17/outbox.ucp.g08.bks.cvg/sg62_8_cif.got.tgz:15856.got - 2010.06.11 16:29:25.
