data_PCOD9467591
_publ_section_title
;
Structure prediction by ZEFSAII (Michael W. Deem and Ramdas Pophale) SiO2 
 PCOD9467591
Probable space group: P N M A
;
_chemical_formula_sum "Si O2"
_cell_formula_units_Z 32
_cell_length_a 16.595258
_cell_length_b 8.425866
_cell_length_c 9.672639
_cell_angle_alpha 90.000000
_cell_angle_beta 90.000000
_cell_angle_gamma 90.000000
_cell_volume 1352.519503
_symmetry_space_group_name_H-M "P N M A"
_symmetry_group_IT_number 62
_symmetry_cell_setting 'orthorhombic'
loop_
_space_group_symop_operation_xyz
x,y,z
1/2-x,-y,1/2+z
1/2+x,1/2-y,1/2-z
-x,1/2+y,-z
-x,-y,-z
1/2+x,y,1/2-z
1/2-x,1/2+y,1/2+z
x,1/2-y,z
loop_
_atom_site_type_symbol
_atom_site_label
_atom_site_fract_x
_atom_site_fract_y
_atom_site_fract_z
Si Si1 0.256577 0.434685 0.449902
Si Si2 0.079760 0.437562 0.078613
Si Si3 0.991275 0.066915 0.654393
Si Si4 0.842691 0.433141 0.319693
O O1 0.235636 0.250000 0.468522
O O2 0.065485 0.471911 0.241040
O O3 0.190604 0.538503 0.527479
O O4 0.271446 0.466094 0.288642
O O5 0.089617 0.250000 0.056464
O O6 0.157271 0.528633 0.020350
O O7 0.000000 0.500000 0.000000
O O8 0.968129 0.250000 0.652156
O O9 0.082245 0.044833 0.711154
O O10 0.000000 0.000000 0.500000
O O11 0.867866 0.250000 0.300334
#
# Coordination Sequence:
#
# PCOD9467591 Si02
#       4
#     8   8   8   8
#     4  11  25  44  68  97 134 177 223 272 332 397
#     4  12  24  43  70  99 132 173 222 272 329 393
#     4  12  26  45  70  99 135 176 222 277 334 394
#     4  11  25  45  68  97 135 176 223 273 329 397
#
# _framework density 23.659545000000001
#
# number of rings (size 3 to 8) (size 9 to 14) (size 15 to 20)
#    0.000    0.500    2.500    6.000    3.500    3.000 
#    0.000    0.000    0.000    0.000    0.000    0.000 
#    0.000    0.000    0.000    0.000    0.000    0.000 
#
# Total GULP energy -179364.501385 kJ/mol
# GULP energy per Si atom -5605.140668 kJ/mol
# Density = 2.360570 g / cm^3
# Si number density = 23.659545 Si / 1000 Ang^3
#
#
#
# Elastic Constant Matrix: (Units=GPa)
#
#
# Indices 1 2 3 4 5 6 
#
# 1 45.8115 -9.8103 -13.8975 0.0000 0.0000 0.0000
# 2 -9.8103 81.4437 22.1634 0.0000 0.0000 0.0000
# 3 -13.8975 22.1634 102.7190 0.0000 0.0000 0.0000
# 4 0.0000 0.0000 0.0000 40.4051 0.0000 0.0000
# 5 0.0000 0.0000 0.0000 0.0000 39.2405 0.0000
# 6 0.0000 0.0000 0.0000 0.0000 0.0000 31.1028
#
#
#
# Elastic Compliance Matrix: (Units=1/GPa)
#
#
# Indices 1 2 3 4 5 6 
#
# 1 0.023081 0.002051 0.002680 0.000000 0.000000 0.000000
# 2 0.002051 0.013227 -0.002576 0.000000 0.000000 0.000000
# 3 0.002680 -0.002576 0.010654 0.000000 0.000000 0.000000
# 4 0.000000 0.000000 0.000000 0.024749 0.000000 0.000000
# 5 0.000000 0.000000 0.000000 0.000000 0.025484 0.000000
# 6 0.000000 0.000000 0.000000 0.000000 0.000000 0.032151
#
#
# Mechanical properties :
#
#
# Convention : Reuss Voigt Hill
#
# Bulk Modulus (GPa) = 19.50437 25.20950 22.35694
# Shear Modulus (GPa) = 35.17987 37.58425 36.38206
#
# Velocity S-wave (km/s) = 3.86024 3.98998 3.92565
# Velocity P-wave (km/s) = 5.30380 5.64844 5.47883
#
# Compressibility (1/GPa) = 0.05127056
#
# Stress axis : x y z
#
# Youngs Moduli (GPa) = 43.32599 75.60539 93.86298
#
# Poissons Ratio (x) = -0.15505 -0.25158
# Poissons Ratio (y) = -0.08885 0.24183
# Poissons Ratio (z) = -0.11612 0.19479
#
# Static dielectric constant tensor:
#      x y z
#    x 1.908640 0.000000 0.000000 
#    y 0.000000 1.811960 0.000000 
#    z 0.000000 0.000000 1.937410 
# 
# From -- ./inp_files/12752.got.cif
#   From: 2010.05.17/outbox.cif.g08.bks.cpg/sg62_7_cif.got.tgz:12752.got - 2010.06.03 15:25:27.
