data_PCOD9467551
_publ_section_title
;
Structure prediction by ZEFSAII (Michael W. Deem and Ramdas Pophale) SiO2 
 PCOD9467551
Probable space group: P N M A
;
_chemical_formula_sum "Si O2"
_cell_formula_units_Z 36
_cell_length_a 12.928739
_cell_length_b 13.136260
_cell_length_c 11.167716
_cell_angle_alpha 90.000000
_cell_angle_beta 90.000000
_cell_angle_gamma 90.000000
_cell_volume 1896.672140
_symmetry_space_group_name_H-M "P N M A"
_symmetry_group_IT_number 62
_symmetry_cell_setting 'orthorhombic'
loop_
_space_group_symop_operation_xyz
x,y,z
1/2-x,-y,1/2+z
1/2+x,1/2-y,1/2-z
-x,1/2+y,-z
-x,-y,-z
1/2+x,y,1/2-z
1/2-x,1/2+y,1/2+z
x,1/2-y,z
loop_
_atom_site_type_symbol
_atom_site_label
_atom_site_fract_x
_atom_site_fract_y
_atom_site_fract_z
Si Si1 0.229039 0.750000 0.812731
Si Si2 0.103032 0.957127 0.435318
Si Si3 0.333585 0.455310 0.438056
Si Si4 0.055305 0.250000 0.237350
Si Si5 0.958859 0.514700 0.830041
Si Si6 0.869517 0.250000 0.425009
O O1 0.178904 0.653263 0.874810
O O2 0.351139 0.750000 0.832219
O O3 0.227233 0.750000 0.666532
O O4 0.119630 0.846528 0.491172
O O5 0.216211 0.007205 0.452419
O O6 0.078075 0.970651 0.295714
O O7 0.000000 0.000000 0.500000
O O8 0.419730 0.509460 0.353252
O O9 0.390374 0.464442 0.565615
O O10 0.055599 0.139264 0.170840
O O11 0.955642 0.250000 0.321713
#
# Coordination Sequence:
#
# PCOD9467551 Si02
#       6
#     4   8   8   4   8   4
#     4  12  20  41  69  94 134 176 224 268 336 407
#     4  12  24  42  68  97 133 173 228 280 334 403
#     4  11  24  41  67 101 135 176 221 283 334 405
#     4  12  20  42  69  97 123 182 228 265 331 410
#     4  11  24  41  68  99 138 174 225 280 338 400
#     4  12  24  41  66  97 125 176 232 267 329 415
#
# _framework density 18.980613000000002
#
# number of rings (size 3 to 8) (size 9 to 14) (size 15 to 20)
#    0.000    0.444    6.667    1.333    3.111    0.889 
#    0.000    2.222    0.000    0.000    0.000    0.000 
#    0.000    0.000    0.000    0.000    0.000    0.000 
#
# Total GULP energy -200544.017047 kJ/mol
# GULP energy per Si atom -5570.667140 kJ/mol
# Density = 1.893741 g / cm^3
# Si number density = 18.980613 Si / 1000 Ang^3
#
#
#
# Elastic Constant Matrix: (Units=GPa)
#
#
# Indices 1 2 3 4 5 6 
#
# 1 150.3974 35.3808 34.5343 0.0000 0.0000 0.0000
# 2 35.3808 115.7192 50.3280 0.0000 0.0000 0.0000
# 3 34.5343 50.3280 89.6429 0.0000 0.0000 0.0000
# 4 0.0000 0.0000 0.0000 26.9949 0.0000 0.0000
# 5 0.0000 0.0000 0.0000 0.0000 33.3469 0.0000
# 6 0.0000 0.0000 0.0000 0.0000 0.0000 0.7527
#
#
#
# Elastic Compliance Matrix: (Units=1/GPa)
#
#
# Indices 1 2 3 4 5 6 
#
# 1 0.007453 -0.001363 -0.002106 0.000000 0.000000 0.000000
# 2 -0.001363 0.011683 -0.006034 0.000000 0.000000 0.000000
# 3 -0.002106 -0.006034 0.015354 0.000000 0.000000 0.000000
# 4 0.000000 0.000000 0.000000 0.037044 0.000000 0.000000
# 5 0.000000 0.000000 0.000000 0.000000 0.029988 0.000000
# 6 0.000000 0.000000 0.000000 0.000000 0.000000 1.328588
#
#
# Mechanical properties :
#
#
# Convention : Reuss Voigt Hill
#
# Bulk Modulus (GPa) = 64.58122 66.24953 65.41537
# Shear Modulus (GPa) = 3.43813 27.91999 15.67906
#
# Velocity S-wave (km/s) = 1.34734 3.83949 2.87724
# Velocity P-wave (km/s) = 6.04311 7.39156 6.75108
#
# Compressibility (1/GPa) = 0.01548438
#
# Stress axis : x y z
#
# Youngs Moduli (GPa) = 134.16922 85.59809 65.12805
#
# Poissons Ratio (x) = 0.11665 0.13717
# Poissons Ratio (y) = 0.18285 0.39297
# Poissons Ratio (z) = 0.28259 0.51649
#
# Static dielectric constant tensor:
#      x y z
#    x 1.725720 0.000000 0.000000 
#    y 0.000000 1.738270 0.000000 
#    z 0.000000 0.000000 1.654110 
# 
# From -- ./inp_files/11906.got.cif
#   From: 2010.05.17/outbox.cif.g08.bks.cpg/sg62_6_cif.got.tgz:11906.got - 2010.06.03 15:25:27.
