data_PCOD9467329
_publ_section_title
;
Structure prediction by ZEFSAII (Michael W. Deem and Ramdas Pophale) SiO2 
 PCOD9467329
Probable space group: P N M A
;
_chemical_formula_sum "Si O2"
_cell_formula_units_Z 48
_cell_length_a 13.871817
_cell_length_b 9.022433
_cell_length_c 24.624582
_cell_angle_alpha 90.000000
_cell_angle_beta 90.000000
_cell_angle_gamma 90.000000
_cell_volume 3081.952094
_symmetry_space_group_name_H-M "P N M A"
_symmetry_group_IT_number 62
_symmetry_cell_setting 'orthorhombic'
loop_
_space_group_symop_operation_xyz
x,y,z
1/2-x,-y,1/2+z
1/2+x,1/2-y,1/2-z
-x,1/2+y,-z
-x,-y,-z
1/2+x,y,1/2-z
1/2-x,1/2+y,1/2+z
x,1/2-y,z
loop_
_atom_site_type_symbol
_atom_site_label
_atom_site_fract_x
_atom_site_fract_y
_atom_site_fract_z
Si Si1 0.606717 0.926376 0.273344
Si Si2 0.403439 0.425861 0.274058
Si Si3 0.295808 0.927906 0.830084
Si Si4 0.886993 0.428158 0.443244
Si Si5 0.887857 0.572042 0.556592
Si Si6 0.218212 0.571881 0.666742
O O1 0.611198 0.750000 0.272799
O O2 0.499413 0.983361 0.284805
O O3 0.639849 0.991346 0.215028
O O4 0.683826 0.991943 0.315933
O O5 0.424913 0.250000 0.276156
O O6 0.315472 0.457283 0.315200
O O7 0.359882 0.458406 0.214241
O O8 0.310822 0.750000 0.824023
O O9 0.326869 0.970852 0.890553
O O10 0.882524 0.250000 0.447186
O O11 0.856301 0.498645 0.500257
O O12 0.823993 0.473204 0.391401
O O13 0.999572 0.468201 0.434259
O O14 0.882979 0.750000 0.551165
O O15 0.233605 0.750000 0.667124
#
# Coordination Sequence:
#
# PCOD9467329 Si02
#       6
#     8   8   8   8   8   8
#     4  11  21  30  45  71  99 122 148 191 240 277
#     4   9  17  31  50  68  89 121 158 191 225 272
#     4   9  18  33  51  68  90 125 162 190 222 273
#     4   9  17  29  47  71  96 122 151 185 227 273
#     4   9  17  30  48  70  95 121 151 187 227 272
#     4   9  18  33  51  68  91 126 162 190 221 273
#
# _framework density 15.574543999999999
#
# number of rings (size 3 to 8) (size 9 to 14) (size 15 to 20)
#    0.000    2.667    0.000    3.500    0.000    6.667 
#    0.000    3.333    0.000    1.000    0.000    0.000 
#    0.000    0.000    0.000    0.000    0.000    0.000 
#
# Total GULP energy -267641.712168 kJ/mol
# GULP energy per Si atom -5575.869003 kJ/mol
# Density = 1.553910 g / cm^3
# Si number density = 15.574544 Si / 1000 Ang^3
#
#
#
# Elastic Constant Matrix: (Units=GPa)
#
#
# Indices 1 2 3 4 5 6 
#
# 1 98.1563 49.7229 78.7544 0.0000 0.0000 0.0000
# 2 49.7229 38.2294 47.3100 0.0000 0.0000 0.0000
# 3 78.7544 47.3100 159.3732 0.0000 0.0000 0.0000
# 4 0.0000 0.0000 0.0000 25.8454 0.0000 0.0000
# 5 0.0000 0.0000 0.0000 0.0000 19.8892 0.0000
# 6 0.0000 0.0000 0.0000 0.0000 0.0000 11.3010
#
#
#
# Elastic Compliance Matrix: (Units=1/GPa)
#
#
# Indices 1 2 3 4 5 6 
#
# 1 0.032740 -0.035663 -0.005592 0.000000 0.000000 0.000000
# 2 -0.035663 0.080194 -0.006183 0.000000 0.000000 0.000000
# 3 -0.005592 -0.006183 0.010873 0.000000 0.000000 0.000000
# 4 0.000000 0.000000 0.000000 0.038692 0.000000 0.000000
# 5 0.000000 0.000000 0.000000 0.000000 0.050279 0.000000
# 6 0.000000 0.000000 0.000000 0.000000 0.000000 0.088488
#
#
# Mechanical properties :
#
#
# Convention : Reuss Voigt Hill
#
# Bulk Modulus (GPa) = 34.56387 71.92594 53.24491
# Shear Modulus (GPa) = 12.32176 19.40523 15.86349
#
# Velocity S-wave (km/s) = 2.81579 3.53364 3.19494
# Velocity P-wave (km/s) = 5.72820 7.93290 6.91893
#
# Compressibility (1/GPa) = 0.02893194
#
# Stress axis : x y z
#
# Youngs Moduli (GPa) = 30.54324 12.46971 91.96912
#
# Poissons Ratio (x) = 0.44471 0.51430
# Poissons Ratio (y) = 1.08927 0.56861
# Poissons Ratio (z) = 0.17080 0.07710
#
# Static dielectric constant tensor:
#      x y z
#    x 1.505060 0.000000 0.000000 
#    y 0.000000 1.518660 0.000000 
#    z 0.000000 0.000000 1.506710 
# 
# From -- ./inp_files/29237.got.cif
#   From: 2010.05.17/outbox.cif.g08.bks.cpg/sg62_15_cif.got.tgz:29237.got - 2010.06.03 15:25:27.
