data_PCOD9467763
_publ_section_title
;
Structure prediction by ZEFSAII (Michael W. Deem and Ramdas Pophale) SiO2 
 PCOD9467763
Probable space group: P N M A
;
_chemical_formula_sum "Si O2"
_cell_formula_units_Z 64
_cell_length_a 18.000000
_cell_length_b 9.000000
_cell_length_c 24.000000
_cell_angle_alpha 90.000000
_cell_angle_beta 90.000000
_cell_angle_gamma 90.000000
_cell_volume 3888.000000
_symmetry_space_group_name_H-M "P N M A"
_symmetry_group_IT_number 62
_symmetry_cell_setting 'orthorhombic'
loop_
_space_group_symop_operation_xyz
x,y,z
1/2-x,-y,1/2+z
1/2+x,1/2-y,1/2-z
-x,1/2+y,-z
-x,-y,-z
1/2+x,y,1/2-z
1/2-x,1/2+y,1/2+z
x,1/2-y,z
loop_
_atom_site_type_symbol
_atom_site_label
_atom_site_fract_x
_atom_site_fract_y
_atom_site_fract_z
Si Si1 0.799538 0.072571 0.865492
Si Si2 0.035641 0.575914 0.600415
Si Si3 0.179860 0.429568 0.550605
Si Si4 0.186027 0.071456 0.314225
Si Si5 0.446095 0.080281 0.228394
Si Si6 0.876319 0.931433 0.567961
Si Si7 0.202402 0.422986 0.743173
Si Si8 0.091396 0.424534 0.207683
O O1 0.806761 0.250000 0.867904
O O2 0.756333 0.020605 0.920458
O O3 0.744908 0.034291 0.813812
O O4 0.877165 0.003625 0.846688
O O5 0.047841 0.750000 0.587433
O O6 0.109397 0.487546 0.585329
O O7 0.019048 0.567757 0.666566
O O8 0.962494 0.521601 0.568240
O O9 0.179039 0.250000 0.552330
O O10 0.166691 0.478289 0.487248
O O11 0.182783 0.250000 0.315048
O O12 0.160864 0.017943 0.374586
O O13 0.133154 0.018825 0.263623
O O14 0.265760 0.015832 0.294553
O O15 0.416294 0.250000 0.231315
O O16 0.505927 0.060464 0.276709
O O17 0.382354 0.961341 0.233857
O O18 0.877402 0.750000 0.568865
O O19 0.215612 0.250000 0.752618
O O20 0.108585 0.250000 0.202726
#
# Coordination Sequence:
#
# PCOD9467763 Si02
#       8
#     8   8   8   8   8   8   8   8
#     4   9  18  30  42  62  91 120 150 182 220 268
#     4  10  18  29  44  65  92 122 157 190 216 253
#     4  10  19  31  45  64  93 127 157 185 220 265
#     4   9  16  30  48  66  86 116 155 192 225 260
#     4  10  18  29  46  68  91 118 151 187 225 267
#     4   9  17  30  48  66  89 123 160 192 221 258
#     4  10  19  30  44  65  93 121 148 182 227 275
#     4   9  17  29  47  66  86 113 150 191 228 263
#
# _framework density 16.460905
#
# number of rings (size 3 to 8) (size 9 to 14) (size 15 to 20)
#    0.000    2.500    2.500    0.750    0.000    1.500 
#    0.000    1.250    0.000    0.000    0.000    0.875 
#    0.000    0.000    0.000    0.000    0.000    0.000 
#
# Total GULP energy -356285.883216 kJ/mol
# GULP energy per Si atom -5566.966925 kJ/mol
# Density = 1.642344 g / cm^3
# Si number density = 16.460905 Si / 1000 Ang^3
#
#
#
# Elastic Constant Matrix: (Units=GPa)
#
#
# Indices 1 2 3 4 5 6 
#
# 1 1.6428 4.5184 6.5946 0.0000 0.0000 0.0000
# 2 4.5184 -9.9071 0.6878 0.0000 0.0000 0.0000
# 3 6.5946 0.6878 22.9100 0.0000 0.0000 0.0000
# 4 0.0000 0.0000 0.0000 12.8652 0.0000 0.0000
# 5 0.0000 0.0000 0.0000 0.0000 26.0633 0.0000
# 6 0.0000 0.0000 0.0000 0.0000 0.0000 17.9004
#
#
#
# Elastic Compliance Matrix: (Units=1/GPa)
#
#
# Indices 1 2 3 4 5 6 
#
# 1 0.615512 0.267860 -0.185216 0.000000 0.000000 0.000000
# 2 0.267860 0.015841 -0.077579 0.000000 0.000000 0.000000
# 3 -0.185216 -0.077579 0.099293 0.000000 0.000000 0.000000
# 4 0.000000 0.000000 0.000000 0.077729 0.000000 0.000000
# 5 0.000000 0.000000 0.000000 0.000000 0.038368 0.000000
# 6 0.000000 0.000000 0.000000 0.000000 0.000000 0.055865
#
#
# Mechanical properties :
#
#
# Convention : Reuss Voigt Hill
#
# Bulk Modulus (GPa) = 1.34994 4.24968 2.79981
# Shear Modulus (GPa) = 4.38826 11.55544 7.97185
#
# Velocity S-wave (km/s) = 1.63452 2.65239 2.20305
# Velocity P-wave (km/s) = 2.09382 3.45941 2.85933
#
# Compressibility (1/GPa) = 0.74077477
#
# Stress axis : x y z
#
# Youngs Moduli (GPa) = 1.62466 63.12920 10.07125
#
# Poissons Ratio (x) = -16.90979 1.86536
# Poissons Ratio (y) = -0.43518 0.78132
# Poissons Ratio (z) = 0.30091 4.89750
#
# Static dielectric constant tensor:
#      x y z
#    x 1.578040 0.000000 0.000000 
#    y 0.000000 1.555880 0.000000 
#    z 0.000000 0.000000 1.565100 
# 
# From -- ./inp_files/30033.got.cif
#   From: 2010.05.17/outbox.ucp.g08.bks.cvg/sg62_16_cif.got.tgz:30033.got - 2010.06.11 16:29:25.
