data_PCOD9467818
_publ_section_title
;
Structure prediction by ZEFSAII (Michael W. Deem and Ramdas Pophale) SiO2 
 PCOD9467818
Probable space group: P N M A
;
_chemical_formula_sum "Si O2"
_cell_formula_units_Z 64
_cell_length_a 18.000000
_cell_length_b 9.000000
_cell_length_c 21.000000
_cell_angle_alpha 90.000000
_cell_angle_beta 90.000000
_cell_angle_gamma 90.000000
_cell_volume 3402.000000
_symmetry_space_group_name_H-M "P N M A"
_symmetry_group_IT_number 62
_symmetry_cell_setting 'orthorhombic'
loop_
_space_group_symop_operation_xyz
x,y,z
1/2-x,-y,1/2+z
1/2+x,1/2-y,1/2-z
-x,1/2+y,-z
-x,-y,-z
1/2+x,y,1/2-z
1/2-x,1/2+y,1/2+z
x,1/2-y,z
loop_
_atom_site_type_symbol
_atom_site_label
_atom_site_fract_x
_atom_site_fract_y
_atom_site_fract_z
Si Si1 0.712835 0.431223 0.945934
Si Si2 0.532743 0.580696 0.323472
Si Si3 0.536279 0.574737 0.560376
Si Si4 0.543030 0.928106 0.184187
Si Si5 0.211330 0.921035 0.182175
Si Si6 0.296090 0.068468 0.428747
Si Si7 0.456717 0.571040 0.057985
Si Si8 0.296406 0.926752 0.809162
O O1 0.715182 0.250000 0.946426
O O2 0.755975 0.478934 0.883342
O O3 0.628128 0.477324 0.943951
O O4 0.751977 0.483065 0.009648
O O5 0.509432 0.750000 0.338600
O O6 0.506345 0.468801 0.376227
O O7 0.507048 0.539178 0.252623
O O8 0.622146 0.579877 0.321510
O O9 0.500000 0.500000 0.500000
O O10 0.537365 0.750000 0.550822
O O11 0.619913 0.519251 0.567616
O O12 0.555440 0.750000 0.183477
O O13 0.493418 0.970628 0.124751
O O14 0.621907 0.007509 0.180615
O O15 0.235349 0.750000 0.191560
O O16 0.233488 0.017787 0.242003
O O17 0.295518 0.250000 0.428697
O O18 0.255837 0.018785 0.365359
O O19 0.459194 0.750000 0.052752
O O20 0.500000 0.500000 0.000000
O O21 0.300925 0.750000 0.810444
#
# Coordination Sequence:
#
# PCOD9467818 Si02
#       8
#     8   8   8   8   8   8   8   8
#     4   9  17  32  54  75  97 133 176 208 245 304
#     4   9  18  34  54  76 104 137 170 209 258 308
#     4  11  22  36  54  76 103 136 174 216 262 310
#     4   9  19  35  53  76 108 140 169 207 256 307
#     4   9  18  34  56  78 103 136 170 209 256 304
#     4   9  19  34  51  73 102 134 168 209 255 300
#     4  10  20  34  54  79 105 136 175 216 258 307
#     4  10  19  33  55  79 103 134 171 210 253 304
#
# _framework density 18.812463000000001
#
# number of rings (size 3 to 8) (size 9 to 14) (size 15 to 20)
#    0.000    2.500    0.000    3.000    0.000    6.500 
#    0.000    4.375    0.000    4.500    0.000    0.000 
#    0.000    0.000    0.000    0.000    0.000    0.000 
#
# Total GULP energy -356830.974230 kJ/mol
# GULP energy per Si atom -5575.483972 kJ/mol
# Density = 1.876965 g / cm^3
# Si number density = 18.812463 Si / 1000 Ang^3
#
#
#
# Elastic Constant Matrix: (Units=GPa)
#
#
# Indices 1 2 3 4 5 6 
#
# 1 43.6282 24.6117 62.8718 0.0000 0.0000 0.0000
# 2 24.6117 14.0439 39.0134 0.0000 0.0000 0.0000
# 3 62.8718 39.0134 153.5562 0.0000 0.0000 0.0000
# 4 0.0000 0.0000 0.0000 19.9653 0.0000 0.0000
# 5 0.0000 0.0000 0.0000 0.0000 29.0298 0.0000
# 6 0.0000 0.0000 0.0000 0.0000 0.0000 29.9952
#
#
#
# Elastic Compliance Matrix: (Units=1/GPa)
#
#
# Indices 1 2 3 4 5 6 
#
# 1 -5.789153 12.102699 -0.704580 0.000000 0.000000 0.000000
# 2 12.102699-25.059670 1.411494 0.000000 0.000000 0.000000
# 3 -0.704580 1.411494 -0.063618 0.000000 0.000000 0.000000
# 4 0.000000 0.000000 0.000000 0.050087 0.000000 0.000000
# 5 0.000000 0.000000 0.000000 0.000000 0.034447 0.000000
# 6 0.000000 0.000000 0.000000 0.000000 0.000000 0.033339
#
#
# Mechanical properties :
#
#
# Convention : Reuss Voigt Hill
#
# Bulk Modulus (GPa) = -0.18892 51.58023 25.69565
# Shear Modulus (GPa) = -0.08594 21.44681 10.68043
#
# Velocity S-wave (km/s) = -0.21397 3.38010 2.38530
# Velocity P-wave (km/s) = 0.40210 6.53537 4.61245
#
# Compressibility (1/GPa) = -5.29321396
#
# Stress axis : x y z
#
# Youngs Moduli (GPa) = -0.17274 -0.03990 -15.71884
#
# Poissons Ratio (x) = 0.48296 -11.07518
# Poissons Ratio (y) = 2.09058 22.18704
# Poissons Ratio (z) = -0.12171 0.05633
#
# Static dielectric constant tensor:
#      x y z
#    x 1.630000 0.000000 0.000000 
#    y 0.000000 1.637360 0.000000 
#    z 0.000000 0.000000 1.649200 
# 
# From -- ./inp_files/27763.got.cif
#   From: 2010.05.17/outbox.ucp.g08.bks.cvg/sg62_14_cif.got.tgz:27763.got - 2010.06.11 16:29:25.
