data_PCOD9467294
_publ_section_title
;
Structure prediction by ZEFSAII (Michael W. Deem and Ramdas Pophale) SiO2 
 PCOD9467294
Probable space group: P N M A
;
_chemical_formula_sum "Si O2"
_cell_formula_units_Z 48
_cell_length_a 9.846938
_cell_length_b 16.124733
_cell_length_c 17.276871
_cell_angle_alpha 90.000000
_cell_angle_beta 90.000000
_cell_angle_gamma 90.000000
_cell_volume 2743.208553
_symmetry_space_group_name_H-M "P N M A"
_symmetry_group_IT_number 62
_symmetry_cell_setting 'orthorhombic'
loop_
_space_group_symop_operation_xyz
x,y,z
1/2-x,-y,1/2+z
1/2+x,1/2-y,1/2-z
-x,1/2+y,-z
-x,-y,-z
1/2+x,y,1/2-z
1/2-x,1/2+y,1/2+z
x,1/2-y,z
loop_
_atom_site_type_symbol
_atom_site_label
_atom_site_fract_x
_atom_site_fract_y
_atom_site_fract_z
Si Si1 0.746455 0.997308 0.567171
Si Si2 0.606875 0.156656 0.983087
Si Si3 0.190241 0.156145 0.215746
Si Si4 0.168784 0.608636 0.563691
Si Si5 0.022123 0.455078 0.648920
Si Si6 0.920738 0.452172 0.203651
O O1 0.802196 0.912611 0.527009
O O2 0.613804 0.980896 0.617449
O O3 0.736821 0.067574 0.501607
O O4 0.865548 0.030203 0.625064
O O5 0.660742 0.250000 0.987024
O O6 0.579064 0.125324 0.895312
O O7 0.458542 0.153474 0.023863
O O8 0.174912 0.250000 0.245167
O O9 0.253163 0.157506 0.129611
O O10 0.292015 0.101834 0.267725
O O11 0.048981 0.107944 0.211602
O O12 0.100248 0.530765 0.607308
O O13 0.051771 0.470443 0.738800
#
# Coordination Sequence:
#
# PCOD9467294 Si02
#       6
#     8   8   8   8   8   8
#     4   9  17  32  51  74  98 128 177 206 244 302
#     4   9  16  29  54  77  99 129 169 218 251 287
#     4  11  22  33  48  75 106 133 163 203 259 304
#     4   8  17  32  50  72  99 130 166 207 247 304
#     4   8  16  32  48  72 100 133 173 201 240 307
#     4  11  20  34  51  73 104 140 165 206 245 301
#
# _framework density 17.497758000000001
#
# number of rings (size 3 to 8) (size 9 to 14) (size 15 to 20)
#    0.000    2.667    1.667    3.000    0.000    2.000 
#    0.000    0.000    0.000    5.000    0.000    0.000 
#    0.000    0.000    0.000    0.000    0.000    0.000 
#
# Total GULP energy -267402.202665 kJ/mol
# GULP energy per Si atom -5570.879222 kJ/mol
# Density = 1.745793 g / cm^3
# Si number density = 17.497758 Si / 1000 Ang^3
#
#
#
# Elastic Constant Matrix: (Units=GPa)
#
#
# Indices 1 2 3 4 5 6 
#
# 1 32.3021 -17.5072 -10.8735 0.0000 0.0000 0.0000
# 2 -17.5072 38.1581 6.1902 0.0000 0.0000 0.0000
# 3 -10.8735 6.1902 40.3726 0.0000 0.0000 0.0000
# 4 0.0000 0.0000 0.0000 12.9693 0.0000 0.0000
# 5 0.0000 0.0000 0.0000 0.0000 19.2442 0.0000
# 6 0.0000 0.0000 0.0000 0.0000 0.0000 14.1288
#
#
#
# Elastic Compliance Matrix: (Units=1/GPa)
#
#
# Indices 1 2 3 4 5 6 
#
# 1 0.044188 0.018811 0.009017 0.000000 0.000000 0.000000
# 2 0.018811 0.034883 -0.000282 0.000000 0.000000 0.000000
# 3 0.009017 -0.000282 0.027241 0.000000 0.000000 0.000000
# 4 0.000000 0.000000 0.000000 0.077105 0.000000 0.000000
# 5 0.000000 0.000000 0.000000 0.000000 0.051964 0.000000
# 6 0.000000 0.000000 0.000000 0.000000 0.000000 0.070777
#
#
# Mechanical properties :
#
#
# Convention : Reuss Voigt Hill
#
# Bulk Modulus (GPa) = 6.19559 7.38351 6.78955
# Shear Modulus (GPa) = 16.40052 18.13669 17.26860
#
# Velocity S-wave (km/s) = 3.06484 3.22299 3.14491
# Velocity P-wave (km/s) = 4.00909 4.25195 4.13231
#
# Compressibility (1/GPa) = 0.16140501
#
# Stress axis : x y z
#
# Youngs Moduli (GPa) = 22.63035 28.66700 36.70925
#
# Poissons Ratio (x) = -0.53926 -0.33101
# Poissons Ratio (y) = -0.42571 0.01036
# Poissons Ratio (z) = -0.20406 0.00809
#
# Static dielectric constant tensor:
#      x y z
#    x 1.594850 0.000000 0.000000 
#    y 0.000000 1.591910 0.000000 
#    z 0.000000 0.000000 1.635610 
# 
# From -- ./inp_files/22197.got.cif
#   From: 2010.05.17/outbox.cif.g08.bks.cpg/sg62_12_cif.got.tgz:22197.got - 2010.06.03 15:25:27.
