data_PCOD9467653
_publ_section_title
;
Structure prediction by ZEFSAII (Michael W. Deem and Ramdas Pophale) SiO2 
 PCOD9467653
Probable space group: P N M A
;
_chemical_formula_sum "Si O2"
_cell_formula_units_Z 48
_cell_length_a 15.189861
_cell_length_b 8.858113
_cell_length_c 20.259413
_cell_angle_alpha 90.000000
_cell_angle_beta 90.000000
_cell_angle_gamma 90.000000
_cell_volume 2725.975032
_symmetry_space_group_name_H-M "P N M A"
_symmetry_group_IT_number 62
_symmetry_cell_setting 'orthorhombic'
loop_
_space_group_symop_operation_xyz
x,y,z
1/2-x,-y,1/2+z
1/2+x,1/2-y,1/2-z
-x,1/2+y,-z
-x,-y,-z
1/2+x,y,1/2-z
1/2-x,1/2+y,1/2+z
x,1/2-y,z
loop_
_atom_site_type_symbol
_atom_site_label
_atom_site_fract_x
_atom_site_fract_y
_atom_site_fract_z
Si Si1 0.812661 0.069940 0.667598
Si Si2 0.612052 0.432192 0.690955
Si Si3 0.919576 0.568542 0.039685
Si Si4 0.004378 0.429582 0.306488
Si Si5 0.221605 0.569428 0.487228
Si Si6 0.061748 0.429728 0.556659
O O1 0.825479 0.250000 0.675906
O O2 0.716145 0.030644 0.695488
O O3 0.808782 0.041491 0.588538
O O4 0.894268 0.982690 0.698496
O O5 0.604801 0.250000 0.696942
O O6 0.581897 0.474759 0.616921
O O7 0.553160 0.511060 0.745600
O O8 0.924351 0.750000 0.037699
O O9 0.824234 0.526886 0.009932
O O10 0.000000 0.500000 0.000000
O O11 0.999920 0.250000 0.311256
O O12 0.966673 0.503575 0.373301
O O13 0.213061 0.750000 0.498401
O O14 0.159950 0.479274 0.536732
O O15 0.052038 0.250000 0.557140
O O16 0.000000 0.500000 0.500000
#
# Coordination Sequence:
#
# PCOD9467653 Si02
#       6
#     8   8   8   8   8   8
#     4   9  18  36  62  82 106 148 192 234 283 340
#     4   9  20  40  61  83 112 153 196 234 284 343
#     4   9  19  37  62  88 115 150 191 235 284 337
#     4  12  24  37  57  86 118 152 190 240 290 340
#     4   9  18  35  58  84 113 147 187 235 283 334
#     4  12  23  36  57  86 117 151 190 234 285 344
#
# _framework density 17.608378999999999
#
# number of rings (size 3 to 8) (size 9 to 14) (size 15 to 20)
#    0.000    2.000    1.667    5.000    0.000    2.000 
#    3.000    3.333    0.000    0.000    0.000    0.000 
#    0.000    0.000    0.000    0.000    0.000    0.000 
#
# Total GULP energy -268031.872853 kJ/mol
# GULP energy per Si atom -5583.997351 kJ/mol
# Density = 1.756830 g / cm^3
# Si number density = 17.608379 Si / 1000 Ang^3
#
#
#
# Elastic Constant Matrix: (Units=GPa)
#
#
# Indices 1 2 3 4 5 6 
#
# 1 166.1397 80.3612 96.4585 0.0000 0.0000 0.0000
# 2 80.3612 88.8232 59.1178 0.0000 0.0000 0.0000
# 3 96.4585 59.1178 100.4386 0.0000 0.0000 0.0000
# 4 0.0000 0.0000 0.0000 28.5060 0.0000 0.0000
# 5 0.0000 0.0000 0.0000 0.0000 34.2698 0.0000
# 6 0.0000 0.0000 0.0000 0.0000 0.0000 34.5728
#
#
#
# Elastic Compliance Matrix: (Units=1/GPa)
#
#
# Indices 1 2 3 4 5 6 
#
# 1 0.015821 -0.006907 -0.011129 0.000000 0.000000 0.000000
# 2 -0.006907 0.021525 -0.006036 0.000000 0.000000 0.000000
# 3 -0.011129 -0.006036 0.024197 0.000000 0.000000 0.000000
# 4 0.000000 0.000000 0.000000 0.035080 0.000000 0.000000
# 5 0.000000 0.000000 0.000000 0.000000 0.029180 0.000000
# 6 0.000000 0.000000 0.000000 0.000000 0.000000 0.028924
#
#
# Mechanical properties :
#
#
# Convention : Reuss Voigt Hill
#
# Bulk Modulus (GPa) = 74.63199 91.91962 83.27580
# Shear Modulus (GPa) = 24.11525 27.43400 25.77463
#
# Velocity S-wave (km/s) = 3.70473 3.95144 3.83008
# Velocity P-wave (km/s) = 7.79593 8.55185 8.18262
#
# Compressibility (1/GPa) = 0.01339908
#
# Stress axis : x y z
#
# Youngs Moduli (GPa) = 63.20678 46.45832 41.32752
#
# Poissons Ratio (x) = 0.32088 0.45992
# Poissons Ratio (y) = 0.43656 0.24946
# Poissons Ratio (z) = 0.70341 0.28043
#
# Static dielectric constant tensor:
#      x y z
#    x 1.608240 0.000000 0.000000 
#    y 0.000000 1.583960 0.000000 
#    z 0.000000 0.000000 1.570810 
# 
# From -- ./inp_files/26868.got.cif
#   From: 2010.05.17/outbox.cif.g08.bks.cpg/sg62_14_cif.got.tgz:26868.got - 2010.06.03 15:25:27.
