data_PCOD9467259
_publ_section_title
;
Structure prediction by ZEFSAII (Michael W. Deem and Ramdas Pophale) SiO2 
 PCOD9467259
Probable space group: P N M A
;
_chemical_formula_sum "Si O2"
_cell_formula_units_Z 40
_cell_length_a 14.331154
_cell_length_b 19.796611
_cell_length_c 4.845011
_cell_angle_alpha 90.000000
_cell_angle_beta 90.000000
_cell_angle_gamma 90.000000
_cell_volume 1374.569742
_symmetry_space_group_name_H-M "P N M A"
_symmetry_group_IT_number 62
_symmetry_cell_setting 'orthorhombic'
loop_
_space_group_symop_operation_xyz
x,y,z
1/2-x,-y,1/2+z
1/2+x,1/2-y,1/2-z
-x,1/2+y,-z
-x,-y,-z
1/2+x,y,1/2-z
1/2-x,1/2+y,1/2+z
x,1/2-y,z
loop_
_atom_site_type_symbol
_atom_site_label
_atom_site_fract_x
_atom_site_fract_y
_atom_site_fract_z
Si Si1 0.875249 0.750000 0.010044
Si Si2 0.471420 0.559395 0.218804
Si Si3 0.998465 0.174737 0.360153
Si Si4 0.276247 0.519558 0.467807
Si Si5 0.156905 0.606642 0.955877
Si Si6 0.747036 0.750000 0.498754
O O1 0.839223 0.750000 0.313822
O O2 0.784864 0.750000 0.811987
O O3 0.940963 0.688810 0.914225
O O4 0.618595 0.458704 0.596614
O O5 0.558964 0.580227 0.400663
O O6 0.500000 0.500000 0.000000
O O7 0.442004 0.622132 0.032747
O O8 0.981516 0.250000 0.476005
O O9 0.900328 0.139914 0.312358
O O10 0.217988 0.547840 0.197004
O O11 0.274832 0.445590 0.241189
O O12 0.197291 0.678851 0.062714
#
# Coordination Sequence:
#
# PCOD9467259 Si02
#       6
#     4   8   8   8   8   4
#     4  10  29  49  74 118 160 198 257 341 386 470
#     4  12  27  51  80 112 157 212 272 317 396 483
#     4  10  26  49  79 113 149 214 266 322 390 479
#     4  12  30  51  78 119 163 206 261 335 404 468
#     4  12  28  48  82 111 159 209 267 325 384 500
#     4  12  29  51  78 122 156 204 261 325 408 444
#
# _framework density 29.100014999999999
#
# number of rings (size 3 to 8) (size 9 to 14) (size 15 to 20)
#    0.600    0.000    3.000    1.800   12.600    0.000 
#    0.000    0.000    0.000    0.000    0.000    0.000 
#    0.000    0.000    0.000    0.000    0.000    0.000 
#
# Total GULP energy -223657.502244 kJ/mol
# GULP energy per Si atom -5591.437556 kJ/mol
# Density = 2.903378 g / cm^3
# Si number density = 29.100015 Si / 1000 Ang^3
#
#
#
# Elastic Constant Matrix: (Units=GPa)
#
#
# Indices 1 2 3 4 5 6 
#
# 1 228.7124 117.4100 71.8533 0.0000 0.0000 0.0000
# 2 117.4100 278.3433 85.0731 0.0000 0.0000 0.0000
# 3 71.8533 85.0731 225.9656 0.0000 0.0000 0.0000
# 4 0.0000 0.0000 0.0000 49.6969 0.0000 0.0000
# 5 0.0000 0.0000 0.0000 0.0000 66.0201 0.0000
# 6 0.0000 0.0000 0.0000 0.0000 0.0000 81.6512
#
#
#
# Elastic Compliance Matrix: (Units=1/GPa)
#
#
# Indices 1 2 3 4 5 6 
#
# 1 0.005790 -0.002124 -0.001041 0.000000 0.000000 0.000000
# 2 -0.002124 0.004839 -0.001146 0.000000 0.000000 0.000000
# 3 -0.001041 -0.001146 0.005188 0.000000 0.000000 0.000000
# 4 0.000000 0.000000 0.000000 0.020122 0.000000 0.000000
# 5 0.000000 0.000000 0.000000 0.000000 0.015147 0.000000
# 6 0.000000 0.000000 0.000000 0.000000 0.000000 0.012247
#
#
# Mechanical properties :
#
#
# Convention : Reuss Voigt Hill
#
# Bulk Modulus (GPa) = 139.01594 142.41047 140.71321
# Shear Modulus (GPa) = 67.24536 70.05263 68.64899
#
# Velocity S-wave (km/s) = 4.81233 4.91175 4.86230
# Velocity P-wave (km/s) = 8.87432 9.01175 8.94330
#
# Compressibility (1/GPa) = 0.00719342
#
# Stress axis : x y z
#
# Youngs Moduli (GPa) = 172.71717 206.65421 192.74398
#
# Poissons Ratio (x) = 0.43892 0.20073
# Poissons Ratio (y) = 0.36684 0.22097
# Poissons Ratio (z) = 0.17987 0.23692
#
# Static dielectric constant tensor:
#      x y z
#    x 2.142300 0.000000 0.000000 
#    y 0.000000 2.520490 0.000000 
#    z 0.000000 0.000000 2.252960 
# 
# From -- ./inp_files/1052.got.cif
#   From: 2010.05.17/outbox.cif.g08.bks.cpg/sg62_1_cif.got.tgz:1052.got - 2010.06.03 15:25:27.
