data_PCOD9467009
_publ_section_title
;
Structure prediction by ZEFSAII (Michael W. Deem and Ramdas Pophale) SiO2 
 PCOD9467009
Probable space group: P N M A
;
_chemical_formula_sum "Si O2"
_cell_formula_units_Z 64
_cell_length_a 23.251084
_cell_length_b 8.367310
_cell_length_c 14.801957
_cell_angle_alpha 90.000000
_cell_angle_beta 90.000000
_cell_angle_gamma 90.000000
_cell_volume 2879.706342
_symmetry_space_group_name_H-M "P N M A"
_symmetry_group_IT_number 62
_symmetry_cell_setting 'orthorhombic'
loop_
_space_group_symop_operation_xyz
x,y,z
1/2-x,-y,1/2+z
1/2+x,1/2-y,1/2-z
-x,1/2+y,-z
-x,-y,-z
1/2+x,y,1/2-z
1/2-x,1/2+y,1/2+z
x,1/2-y,z
loop_
_atom_site_type_symbol
_atom_site_label
_atom_site_fract_x
_atom_site_fract_y
_atom_site_fract_z
Si Si1 0.953432 0.059559 0.218511
Si Si2 0.344165 0.928855 0.631450
Si Si3 0.672431 0.939807 0.665550
Si Si4 0.876818 0.434232 0.686579
Si Si5 0.497636 0.935920 0.101292
Si Si6 0.219678 0.054842 0.447664
Si Si7 0.722278 0.434589 0.851610
Si Si8 0.041470 0.937360 0.077066
O O1 0.958193 0.250000 0.204037
O O2 0.893058 0.000039 0.175631
O O3 0.957352 0.023687 0.325386
O O4 0.006933 0.975537 0.169118
O O5 0.323627 0.750000 0.613524
O O6 0.371072 0.944613 0.731038
O O7 0.290713 0.047429 0.635047
O O8 0.397021 0.978176 0.569294
O O9 0.667540 0.750000 0.652975
O O10 0.716456 0.996251 0.587190
O O11 0.702322 0.972394 0.762845
O O12 0.872261 0.250000 0.718864
O O13 0.825256 0.475344 0.619499
O O14 0.937517 0.451345 0.638012
O O15 0.481018 0.750000 0.100689
O O16 0.500000 0.000000 0.000000
O O17 0.217425 0.250000 0.442042
O O18 0.201850 0.009889 0.549605
O O19 0.706432 0.250000 0.838255
O O20 0.050977 0.750000 0.069844
O O21 0.000000 0.000000 0.000000
#
# Coordination Sequence:
#
# PCOD9467009 Si02
#       8
#     8   8   8   8   8   8   8   8
#     4  11  24  43  67  95 131 174 215 267 326 385
#     4  12  24  42  68  96 128 169 214 265 323 382
#     4  10  23  43  64  90 129 172 213 259 317 381
#     4  11  23  41  66  95 126 165 213 270 321 376
#     4  11  25  43  65  94 130 170 217 271 323 385
#     4  10  23  42  64  93 128 169 210 260 319 380
#     4  11  24  41  65  97 130 168 214 266 320 376
#     4  12  26  45  68  98 132 169 216 268 323 386
#
# _framework density 22.224488999999998
#
# number of rings (size 3 to 8) (size 9 to 14) (size 15 to 20)
#    0.000    1.000    2.500    3.750    3.500    3.500 
#    0.000    0.000    0.000    0.000    0.000    0.000 
#    0.000    0.000    0.000    0.000    0.000    0.000 
#
# Total GULP energy -357907.594080 kJ/mol
# GULP energy per Si atom -5592.306158 kJ/mol
# Density = 2.217390 g / cm^3
# Si number density = 22.224489 Si / 1000 Ang^3
#
#
#
# Elastic Constant Matrix: (Units=GPa)
#
#
# Indices 1 2 3 4 5 6 
#
# 1 43.6984 -9.9413 -18.4024 0.0000 0.0000 0.0000
# 2 -9.9413 38.8888 -5.2298 0.0000 0.0000 0.0000
# 3 -18.4024 -5.2298 51.8883 0.0000 0.0000 0.0000
# 4 0.0000 0.0000 0.0000 28.8753 0.0000 0.0000
# 5 0.0000 0.0000 0.0000 0.0000 28.9067 0.0000
# 6 0.0000 0.0000 0.0000 0.0000 0.0000 28.1462
#
#
#
# Elastic Compliance Matrix: (Units=1/GPa)
#
#
# Indices 1 2 3 4 5 6 
#
# 1 0.029811 0.009167 0.011497 0.000000 0.000000 0.000000
# 2 0.009167 0.028886 0.006162 0.000000 0.000000 0.000000
# 3 0.011497 0.006162 0.023971 0.000000 0.000000 0.000000
# 4 0.000000 0.000000 0.000000 0.034632 0.000000 0.000000
# 5 0.000000 0.000000 0.000000 0.000000 0.034594 0.000000
# 6 0.000000 0.000000 0.000000 0.000000 0.000000 0.035529
#
#
# Mechanical properties :
#
#
# Convention : Reuss Voigt Hill
#
# Bulk Modulus (GPa) = 7.33571 7.48095 7.40833
# Shear Modulus (GPa) = 27.90011 28.38892 28.14451
#
# Velocity S-wave (km/s) = 3.54697 3.57791 3.56248
# Velocity P-wave (km/s) = 4.48136 4.52128 4.50137
#
# Compressibility (1/GPa) = 0.13631941
#
# Stress axis : x y z
#
# Youngs Moduli (GPa) = 33.54465 34.61837 41.71785
#
# Poissons Ratio (x) = -0.31734 -0.47961
# Poissons Ratio (y) = -0.30750 -0.25708
# Poissons Ratio (z) = -0.38565 -0.21333
#
# Static dielectric constant tensor:
#      x y z
#    x 1.824670 0.000000 0.000000 
#    y 0.000000 1.761370 0.000000 
#    z 0.000000 0.000000 1.854140 
# 
# From -- ./inp_files/20900.got.cif
#   From: 2010.05.17/outbox.cif.g08.bks.cpg/sg62_11_cif.got.tgz:20900.got - 2010.06.03 15:25:27.
