data_PCOD9467162
_publ_section_title
;
Structure prediction by ZEFSAII (Michael W. Deem and Ramdas Pophale) SiO2 
 PCOD9467162
Probable space group: P N M A
;
_chemical_formula_sum "Si O2"
_cell_formula_units_Z 32
_cell_length_a 16.878638
_cell_length_b 8.806042
_cell_length_c 9.747135
_cell_angle_alpha 90.000000
_cell_angle_beta 90.000000
_cell_angle_gamma 90.000000
_cell_volume 1448.755616
_symmetry_space_group_name_H-M "P N M A"
_symmetry_group_IT_number 62
_symmetry_cell_setting 'orthorhombic'
loop_
_space_group_symop_operation_xyz
x,y,z
1/2-x,-y,1/2+z
1/2+x,1/2-y,1/2-z
-x,1/2+y,-z
-x,-y,-z
1/2+x,y,1/2-z
1/2-x,1/2+y,1/2+z
x,1/2-y,z
loop_
_atom_site_type_symbol
_atom_site_label
_atom_site_fract_x
_atom_site_fract_y
_atom_site_fract_z
Si Si1 0.339621 0.428179 0.680473
Si Si2 0.429060 0.569366 0.090754
Si Si3 0.502424 0.571559 0.650737
Si Si4 0.266604 0.929486 0.927872
O O1 0.360122 0.250000 0.690580
O O2 0.415496 0.531285 0.709958
O O3 0.306612 0.458696 0.528653
O O4 0.273588 0.470374 0.792412
O O5 0.439628 0.750000 0.098602
O O6 0.436054 0.500227 0.242696
O O7 0.345560 0.538781 0.017530
O O8 0.500000 0.500000 0.000000
O O9 0.500000 0.500000 0.500000
O O10 0.515131 0.750000 0.641538
O O11 0.266132 0.750000 0.892828
#
# Coordination Sequence:
#
# PCOD9467162 Si02
#       4
#     8   8   8   8
#     4  11  24  43  66  96 129 169 216 264 320 384
#     4  11  22  41  67  96 127 165 211 263 318 383
#     4  12  26  44  66  95 130 170 216 272 325 384
#     4  10  24  43  64  94 130 168 213 262 319 384
#
# _framework density 22.087921000000001
#
# number of rings (size 3 to 8) (size 9 to 14) (size 15 to 20)
#    0.000    1.000    2.500    3.750    3.500    3.000 
#    0.000    0.000    0.000    0.000    0.000    0.000 
#    0.000    0.000    0.000    0.000    0.000    0.000 
#
# Total GULP energy -179190.801142 kJ/mol
# GULP energy per Si atom -5599.712536 kJ/mol
# Density = 2.203765 g / cm^3
# Si number density = 22.087921 Si / 1000 Ang^3
#
#
#
# Elastic Constant Matrix: (Units=GPa)
#
#
# Indices 1 2 3 4 5 6 
#
# 1 35.5887 7.5387 -11.7321 0.0000 0.0000 0.0000
# 2 7.5387 61.8999 26.6489 0.0000 0.0000 0.0000
# 3 -11.7321 26.6489 112.0877 0.0000 0.0000 0.0000
# 4 0.0000 0.0000 0.0000 44.7069 0.0000 0.0000
# 5 0.0000 0.0000 0.0000 0.0000 34.9967 0.0000
# 6 0.0000 0.0000 0.0000 0.0000 0.0000 24.0595
#
#
#
# Elastic Compliance Matrix: (Units=1/GPa)
#
#
# Indices 1 2 3 4 5 6 
#
# 1 0.030825 -0.005730 0.004589 0.000000 0.000000 0.000000
# 2 -0.005730 0.019062 -0.005132 0.000000 0.000000 0.000000
# 3 0.004589 -0.005132 0.010622 0.000000 0.000000 0.000000
# 4 0.000000 0.000000 0.000000 0.022368 0.000000 0.000000
# 5 0.000000 0.000000 0.000000 0.000000 0.028574 0.000000
# 6 0.000000 0.000000 0.000000 0.000000 0.000000 0.041564
#
#
# Mechanical properties :
#
#
# Convention : Reuss Voigt Hill
#
# Bulk Modulus (GPa) = 20.84904 28.27637 24.56271
# Shear Modulus (GPa) = 27.54083 33.22733 30.38408
#
# Velocity S-wave (km/s) = 3.53494 3.88277 3.71293
# Velocity P-wave (km/s) = 5.11084 5.73853 5.43375
#
# Compressibility (1/GPa) = 0.04796384
#
# Stress axis : x y z
#
# Youngs Moduli (GPa) = 32.44099 52.45973 94.14460
#
# Poissons Ratio (x) = 0.30058 -0.43200
# Poissons Ratio (y) = 0.18588 0.48313
# Poissons Ratio (z) = -0.14886 0.26921
#
# Static dielectric constant tensor:
#      x y z
#    x 1.871970 0.000000 0.000000 
#    y 0.000000 1.727750 0.000000 
#    z 0.000000 0.000000 1.831540 
# 
# From -- ./inp_files/8230.got.cif
#   From: 2010.05.17/outbox.cif.g08.bks.cpg/sg62_5_cif.got.tgz:8230.got - 2010.06.03 15:25:27.
