data_PCOD9467234
_publ_section_title
;
Structure prediction by ZEFSAII (Michael W. Deem and Ramdas Pophale) SiO2 
 PCOD9467234
Probable space group: P N M A
;
_chemical_formula_sum "Si O2"
_cell_formula_units_Z 40
_cell_length_a 10.568561
_cell_length_b 17.886753
_cell_length_c 8.681306
_cell_angle_alpha 90.000000
_cell_angle_beta 90.000000
_cell_angle_gamma 90.000000
_cell_volume 1641.090127
_symmetry_space_group_name_H-M "P N M A"
_symmetry_group_IT_number 62
_symmetry_cell_setting 'orthorhombic'
loop_
_space_group_symop_operation_xyz
x,y,z
1/2-x,-y,1/2+z
1/2+x,1/2-y,1/2-z
-x,1/2+y,-z
-x,-y,-z
1/2+x,y,1/2-z
1/2-x,1/2+y,1/2+z
x,1/2-y,z
loop_
_atom_site_type_symbol
_atom_site_label
_atom_site_fract_x
_atom_site_fract_y
_atom_site_fract_z
Si Si1 0.426419 0.887571 0.415746
Si Si2 0.662977 0.499490 0.354279
Si Si3 0.332457 0.863856 0.106593
Si Si4 0.119824 0.831308 0.853503
Si Si5 0.001991 0.071973 0.390250
O O1 0.542425 0.942574 0.361463
O O2 0.366335 0.839456 0.279020
O O3 0.489973 0.838775 0.549285
O O4 0.332757 0.946654 0.496377
O O5 0.783068 0.552281 0.352188
O O6 0.624344 0.446386 0.214923
O O7 0.226122 0.835664 0.988016
O O8 0.460471 0.862958 0.008423
O O9 0.130955 0.750000 0.778711
O O10 0.104988 0.897605 0.726780
O O11 0.000000 0.000000 0.500000
#
# Coordination Sequence:
#
# PCOD9467234 Si02
#       5
#     8   8   8   8   8
#     4   9  18  36  59  90 124 167 209 271 322 396
#     4   9  18  33  57  94 131 152 206 273 339 375
#     4  11  21  36  66  94 125 170 216 274 340 397
#     4  10  25  45  60  89 137 181 223 275 334 410
#     4  11  22  37  66  98 131 172 224 283 337 386
#
# _framework density 24.374041999999999
#
# number of rings (size 3 to 8) (size 9 to 14) (size 15 to 20)
#    0.000    2.000    2.000    2.400    2.800    1.600 
#    0.000    0.000    0.000    0.000    0.000    0.000 
#    0.000    0.000    0.000    0.000    0.000    0.000 
#
# Total GULP energy -222839.746952 kJ/mol
# GULP energy per Si atom -5570.993674 kJ/mol
# Density = 2.431857 g / cm^3
# Si number density = 24.374042 Si / 1000 Ang^3
#
#
#
# Elastic Constant Matrix: (Units=GPa)
#
#
# Indices 1 2 3 4 5 6 
#
# 1 58.1928 12.7134 36.9368 0.0000 0.0000 0.0000
# 2 12.7134 93.9320 42.3812 0.0000 0.0000 0.0000
# 3 36.9368 42.3812 144.7348 0.0000 0.0000 0.0000
# 4 0.0000 0.0000 0.0000 10.1185 0.0000 0.0000
# 5 0.0000 0.0000 0.0000 0.0000 33.7904 0.0000
# 6 0.0000 0.0000 0.0000 0.0000 0.0000 0.4505
#
#
#
# Elastic Compliance Matrix: (Units=1/GPa)
#
#
# Indices 1 2 3 4 5 6 
#
# 1 0.020524 -0.000478 -0.005098 0.000000 0.000000 0.000000
# 2 -0.000478 0.012278 -0.003473 0.000000 0.000000 0.000000
# 3 -0.005098 -0.003473 0.009227 0.000000 0.000000 0.000000
# 4 0.000000 0.000000 0.000000 0.098829 0.000000 0.000000
# 5 0.000000 0.000000 0.000000 0.000000 0.029594 0.000000
# 6 0.000000 0.000000 0.000000 0.000000 0.000000 2.219977
#
#
# Mechanical properties :
#
#
# Convention : Reuss Voigt Hill
#
# Bulk Modulus (GPa) = 41.78599 53.43585 47.61092
# Shear Modulus (GPa) = 2.06910 22.52707 12.29809
#
# Velocity S-wave (km/s) = 0.92236 3.04340 2.24867
# Velocity P-wave (km/s) = 4.27962 5.85838 5.13010
#
# Compressibility (1/GPa) = 0.02393146
#
# Stress axis : x y z
#
# Youngs Moduli (GPa) = 48.72226 81.44804 108.37456
#
# Poissons Ratio (x) = 0.03891 0.55250
# Poissons Ratio (y) = 0.02328 0.37641
# Poissons Ratio (z) = 0.24839 0.28289
#
# Static dielectric constant tensor:
#      x y z
#    x 1.962040 0.000000 0.000000 
#    y 0.000000 2.066150 0.000000 
#    z 0.000000 0.000000 1.966170 
# 
# From -- ./inp_files/5168.got.cif
#   From: 2010.05.17/outbox.cif.g08.bks.cpg/sg62_3_cif.got.tgz:5168.got - 2010.06.03 15:25:27.
