data_PCOD9467323
_publ_section_title
;
Structure prediction by ZEFSAII (Michael W. Deem and Ramdas Pophale) SiO2 
 PCOD9467323
Probable space group: P N M A
;
_chemical_formula_sum "Si O2"
_cell_formula_units_Z 48
_cell_length_a 8.949544
_cell_length_b 15.764182
_cell_length_c 17.289154
_cell_angle_alpha 90.000000
_cell_angle_beta 90.000000
_cell_angle_gamma 90.000000
_cell_volume 2439.192582
_symmetry_space_group_name_H-M "P N M A"
_symmetry_group_IT_number 62
_symmetry_cell_setting 'orthorhombic'
loop_
_space_group_symop_operation_xyz
x,y,z
1/2-x,-y,1/2+z
1/2+x,1/2-y,1/2-z
-x,1/2+y,-z
-x,-y,-z
1/2+x,y,1/2-z
1/2-x,1/2+y,1/2+z
x,1/2-y,z
loop_
_atom_site_type_symbol
_atom_site_label
_atom_site_fract_x
_atom_site_fract_y
_atom_site_fract_z
Si Si1 0.233499 0.750000 0.133073
Si Si2 0.348713 0.652699 0.579137
Si Si3 0.746295 0.573418 0.196490
Si Si4 0.156440 0.965778 0.470395
Si Si5 0.875015 0.394914 0.975113
Si Si6 0.585004 0.250000 0.722450
Si Si7 0.453793 0.998214 0.671038
O O1 0.218874 0.829838 0.076618
O O2 0.382074 0.750000 0.185364
O O3 0.083854 0.750000 0.188905
O O4 0.312491 0.750000 0.596487
O O5 0.222695 0.605777 0.527757
O O6 0.498548 0.649008 0.526232
O O7 0.384697 0.593625 0.653268
O O8 0.654529 0.566022 0.117410
O O9 0.830354 0.664201 0.196194
O O10 0.643134 0.554219 0.269749
O O11 0.876901 0.502901 0.199150
O O12 0.268382 0.045696 0.475226
O O13 0.000000 0.000000 0.500000
O O14 0.952990 0.455582 0.912154
#
# Coordination Sequence:
#
# PCOD9467323 Si02
#       7
#     4   8   8   8   8   4   8
#     4  12  22  36  64  98 132 160 211 261 319 390
#     4  11  22  44  72  90 120 173 228 267 313 382
#     4  12  23  39  63  92 131 167 209 257 327 392
#     4  11  25  41  64  95 133 169 211 270 326 381
#     4  11  20  42  65  92 125 172 215 255 319 389
#     4  12  22  36  60 102 130 164 201 261 323 394
#     4  11  23  39  63  92 125 169 207 261 324 391
#
# _framework density 19.678643999999998
#
# number of rings (size 3 to 8) (size 9 to 14) (size 15 to 20)
#    0.000    0.667    7.500    1.000    5.833    1.333 
#    1.500    0.833    1.833    0.000    0.000    0.000 
#    0.000    0.000    0.000    0.000    0.000    0.000 
#
# Total GULP energy -268209.566913 kJ/mol
# GULP energy per Si atom -5587.699311 kJ/mol
# Density = 1.963385 g / cm^3
# Si number density = 19.678644 Si / 1000 Ang^3
#
#
#
# Elastic Constant Matrix: (Units=GPa)
#
#
# Indices 1 2 3 4 5 6 
#
# 1 61.2404 18.8362 27.0706 0.0000 0.0000 0.0000
# 2 18.8362 130.7893 27.0616 0.0000 0.0000 0.0000
# 3 27.0706 27.0616 71.9905 0.0000 0.0000 0.0000
# 4 0.0000 0.0000 0.0000 28.0167 0.0000 0.0000
# 5 0.0000 0.0000 0.0000 0.0000 23.0259 0.0000
# 6 0.0000 0.0000 0.0000 0.0000 0.0000 17.9162
#
#
#
# Elastic Compliance Matrix: (Units=1/GPa)
#
#
# Indices 1 2 3 4 5 6 
#
# 1 0.019826 -0.001423 -0.006920 0.000000 0.000000 0.000000
# 2 -0.001423 0.008393 -0.002620 0.000000 0.000000 0.000000
# 3 -0.006920 -0.002620 0.017478 0.000000 0.000000 0.000000
# 4 0.000000 0.000000 0.000000 0.035693 0.000000 0.000000
# 5 0.000000 0.000000 0.000000 0.000000 0.043429 0.000000
# 6 0.000000 0.000000 0.000000 0.000000 0.000000 0.055815
#
#
# Mechanical properties :
#
#
# Convention : Reuss Voigt Hill
#
# Bulk Modulus (GPa) = 42.06981 45.55079 43.81030
# Shear Modulus (GPa) = 23.75478 26.52853 25.14165
#
# Velocity S-wave (km/s) = 3.47815 3.67561 3.57825
# Velocity P-wave (km/s) = 6.12820 6.41959 6.27559
#
# Compressibility (1/GPa) = 0.02377001
#
# Stress axis : x y z
#
# Youngs Moduli (GPa) = 50.43920 119.14784 57.21600
#
# Poissons Ratio (x) = 0.16961 0.39594
# Poissons Ratio (y) = 0.07180 0.14989
# Poissons Ratio (z) = 0.34904 0.31213
#
# Static dielectric constant tensor:
#      x y z
#    x 1.712480 0.000000 0.000000 
#    y 0.000000 1.727540 0.000000 
#    z 0.000000 0.000000 1.694390 
# 
# From -- ./inp_files/17009.got.cif
#   From: 2010.05.17/outbox.cif.g08.bks.cpg/sg62_9_cif.got.tgz:17009.got - 2010.06.03 15:25:27.
