data_PCOD9467075
_publ_section_title
;
Structure prediction by ZEFSAII (Michael W. Deem and Ramdas Pophale) SiO2 
 PCOD9467075
Probable space group: P N M A
;
_chemical_formula_sum "Si O2"
_cell_formula_units_Z 40
_cell_length_a 22.646365
_cell_length_b 13.436554
_cell_length_c 5.440439
_cell_angle_alpha 90.000000
_cell_angle_beta 90.000000
_cell_angle_gamma 90.000000
_cell_volume 1655.466321
_symmetry_space_group_name_H-M "P N M A"
_symmetry_group_IT_number 62
_symmetry_cell_setting 'orthorhombic'
loop_
_space_group_symop_operation_xyz
x,y,z
1/2-x,-y,1/2+z
1/2+x,1/2-y,1/2-z
-x,1/2+y,-z
-x,-y,-z
1/2+x,y,1/2-z
1/2-x,1/2+y,1/2+z
x,1/2-y,z
loop_
_atom_site_type_symbol
_atom_site_label
_atom_site_fract_x
_atom_site_fract_y
_atom_site_fract_z
Si Si1 0.839041 0.363694 0.342806
Si Si2 0.175107 0.369348 0.418647
Si Si3 0.050849 0.038800 0.317537
Si Si4 0.548700 0.861157 0.555482
Si Si5 0.713314 0.948902 0.343109
O O1 0.819843 0.250000 0.333616
O O2 0.934675 0.446525 0.862273
O O3 0.817409 0.405551 0.600513
O O4 0.909192 0.368120 0.294893
O O5 0.175897 0.250000 0.395564
O O6 0.108174 0.411085 0.440754
O O7 0.202438 0.432840 0.190415
O O8 0.220117 0.406321 0.631186
O O9 0.982152 0.880998 0.856708
O O10 0.000000 0.000000 0.500000
O O11 0.556698 0.750000 0.452838
O O12 0.684492 0.913169 0.594365
#
# Coordination Sequence:
#
# PCOD9467075 Si02
#       5
#     8   8   8   8   8
#     4  11  23  46  79 115 154 208 268 333 405 479
#     4  12  27  50  79 116 162 216 270 339 417 493
#     4  11  24  48  76 112 165 212 270 341 403 493
#     4  10  23  43  76 114 157 216 272 335 407 485
#     4  12  26  49  76 114 160 207 267 335 405 492
#
# _framework density 24.162375000000001
#
# number of rings (size 3 to 8) (size 9 to 14) (size 15 to 20)
#    0.000    0.800    2.000    4.800    0.000    1.600 
#    7.200    8.000    0.000    0.000    0.000    0.000 
#    0.000    0.000    0.000    0.000    0.000    0.000 
#
# Total GULP energy -223687.618117 kJ/mol
# GULP energy per Si atom -5592.190453 kJ/mol
# Density = 2.410738 g / cm^3
# Si number density = 24.162375 Si / 1000 Ang^3
#
#
#
# Elastic Constant Matrix: (Units=GPa)
#
#
# Indices 1 2 3 4 5 6 
#
# 1 174.6188 75.1107 58.9447 0.0000 0.0000 0.0000
# 2 75.1107 221.7322 65.4672 0.0000 0.0000 0.0000
# 3 58.9447 65.4672 132.6453 0.0000 0.0000 0.0000
# 4 0.0000 0.0000 0.0000 32.7852 0.0000 0.0000
# 5 0.0000 0.0000 0.0000 0.0000 54.1153 0.0000
# 6 0.0000 0.0000 0.0000 0.0000 0.0000 17.0361
#
#
#
# Elastic Compliance Matrix: (Units=1/GPa)
#
#
# Indices 1 2 3 4 5 6 
#
# 1 0.007286 -0.001770 -0.002364 0.000000 0.000000 0.000000
# 2 -0.001770 0.005709 -0.002031 0.000000 0.000000 0.000000
# 3 -0.002364 -0.002031 0.009592 0.000000 0.000000 0.000000
# 4 0.000000 0.000000 0.000000 0.030502 0.000000 0.000000
# 5 0.000000 0.000000 0.000000 0.000000 0.018479 0.000000
# 6 0.000000 0.000000 0.000000 0.000000 0.000000 0.058699
#
#
# Mechanical properties :
#
#
# Convention : Reuss Voigt Hill
#
# Bulk Modulus (GPa) = 97.49971 103.11573 100.30772
# Shear Modulus (GPa) = 34.24262 42.75224 38.49743
#
# Velocity S-wave (km/s) = 3.76864 4.21095 3.99592
# Velocity P-wave (km/s) = 7.70560 8.14933 7.93057
#
# Compressibility (1/GPa) = 0.01025644
#
# Stress axis : x y z
#
# Youngs Moduli (GPa) = 137.24519 175.15299 104.25347
#
# Poissons Ratio (x) = 0.31004 0.24647
# Poissons Ratio (y) = 0.24294 0.21176
# Poissons Ratio (z) = 0.32447 0.35577
#
# Static dielectric constant tensor:
#      x y z
#    x 2.080470 0.000000 0.000000 
#    y 0.000000 1.947320 0.000000 
#    z 0.000000 0.000000 1.903390 
# 
# From -- ./inp_files/3502.got.cif
#   From: 2010.05.17/outbox.cif.g08.bks.cpg/sg62_2_cif.got.tgz:3502.got - 2010.06.03 15:25:27.
