data_PCOD9467831
_publ_section_title
;
Structure prediction by ZEFSAII (Michael W. Deem and Ramdas Pophale) SiO2 
 PCOD9467831
Probable space group: P N M A
;
_chemical_formula_sum "Si O2"
_cell_formula_units_Z 48
_cell_length_a 9.000000
_cell_length_b 9.000000
_cell_length_c 30.000000
_cell_angle_alpha 90.000000
_cell_angle_beta 90.000000
_cell_angle_gamma 90.000000
_cell_volume 2430.000000
_symmetry_space_group_name_H-M "P N M A"
_symmetry_group_IT_number 62
_symmetry_cell_setting 'orthorhombic'
loop_
_space_group_symop_operation_xyz
x,y,z
1/2-x,-y,1/2+z
1/2+x,1/2-y,1/2-z
-x,1/2+y,-z
-x,-y,-z
1/2+x,y,1/2-z
1/2-x,1/2+y,1/2+z
x,1/2-y,z
loop_
_atom_site_type_symbol
_atom_site_label
_atom_site_fract_x
_atom_site_fract_y
_atom_site_fract_z
Si Si1 0.487883 0.074385 0.146611
Si Si2 0.678583 0.574160 0.610410
Si Si3 0.501798 0.929458 0.697039
Si Si4 0.616075 0.079792 0.939625
Si Si5 0.687354 0.071648 0.774680
Si Si6 0.775196 0.419863 0.523488
O O1 0.468524 0.250000 0.155687
O O2 0.660639 0.048287 0.134117
O O3 0.392335 0.024195 0.103621
O O4 0.432096 0.977808 0.187921
O O5 0.672274 0.750000 0.600616
O O6 0.551488 0.537763 0.646236
O O7 0.680133 0.486099 0.564080
O O8 0.495447 0.750000 0.702273
O O9 0.627833 0.997447 0.729296
O O10 0.345462 0.002695 0.710646
O O11 0.652745 0.250000 0.928056
O O12 0.446823 0.079556 0.958915
O O13 0.720319 0.016615 0.978617
O O14 0.696441 0.250000 0.770990
O O15 0.734581 0.250000 0.513899
#
# Coordination Sequence:
#
# PCOD9467831 Si02
#       6
#     8   8   8   8   8   8
#     4  10  19  34  56  82 112 147 187 229 276 330
#     4   9  19  34  55  81 109 143 184 228 272 322
#     4  11  23  41  62  83 110 147 187 226 275 335
#     4   9  16  27  45  73 109 145 183 227 271 317
#     4  12  25  40  59  85 114 144 182 230 281 331
#     4   9  16  26  45  74 108 144 181 223 271 321
#
# _framework density 19.753086
#
# number of rings (size 3 to 8) (size 9 to 14) (size 15 to 20)
#    0.000    2.000    0.000    4.500    0.000    7.333 
#    0.000    0.000    0.000    1.000    0.000    0.000 
#    0.000    0.000    0.000    0.000    0.000    0.000 
#
# Total GULP energy -268218.752572 kJ/mol
# GULP energy per Si atom -5587.890679 kJ/mol
# Density = 1.970813 g / cm^3
# Si number density = 19.753086 Si / 1000 Ang^3
#
#
#
# Elastic Constant Matrix: (Units=GPa)
#
#
# Indices 1 2 3 4 5 6 
#
# 1 8.3463 -2.4921 -34.9472 0.0000 0.0000 0.0000
# 2 -2.4921 81.5144 -8.2643 0.0000 0.0000 0.0000
# 3 -34.9472 -8.2643 17.5002 0.0000 0.0000 0.0000
# 4 0.0000 0.0000 0.0000 37.7342 0.0000 0.0000
# 5 0.0000 0.0000 0.0000 0.0000 12.3502 0.0000
# 6 0.0000 0.0000 0.0000 0.0000 0.0000 23.8469
#
#
#
# Elastic Compliance Matrix: (Units=1/GPa)
#
#
# Indices 1 2 3 4 5 6 
#
# 1 -0.015131 -0.003703 -0.031964 0.000000 0.000000 0.000000
# 2 -0.003703 0.011978 -0.001739 0.000000 0.000000 0.000000
# 3 -0.031964 -0.001739 -0.007510 0.000000 0.000000 0.000000
# 4 0.000000 0.000000 0.000000 0.026501 0.000000 0.000000
# 5 0.000000 0.000000 0.000000 0.000000 0.080970 0.000000
# 6 0.000000 0.000000 0.000000 0.000000 0.000000 0.041934
#
#
# Mechanical properties :
#
#
# Convention : Reuss Voigt Hill
#
# Bulk Modulus (GPa) = -11.69946 1.77265 -4.96340
# Shear Modulus (GPa) = 27.01768 24.99056 26.00412
#
# Velocity S-wave (km/s) = 3.70235 3.56075 3.63224
# Velocity P-wave (km/s) = 3.51295 4.21955 3.88236
#
# Compressibility (1/GPa) = -0.08547405
#
# Stress axis : x y z
#
# Youngs Moduli (GPa) = -66.09097 83.48442 -133.15852
#
# Poissons Ratio (x) = 0.30916 -4.25629
# Poissons Ratio (y) = -0.24475 -0.23151
# Poissons Ratio (z) = -2.11254 0.14515
#
# Static dielectric constant tensor:
#      x y z
#    x 1.694500 0.000000 0.000000 
#    y 0.000000 1.659020 0.000000 
#    z 0.000000 0.000000 1.695110 
# 
# From -- ./inp_files/31950.got.cif
#   From: 2010.05.17/outbox.ucp.g08.bks.cvg/sg62_16_cif.got.tgz:31950.got - 2010.06.11 16:29:25.
