data_PCOD9467621
_publ_section_title
;
Structure prediction by ZEFSAII (Michael W. Deem and Ramdas Pophale) SiO2 
 PCOD9467621
Probable space group: P N M A
;
_chemical_formula_sum "Si O2"
_cell_formula_units_Z 40
_cell_length_a 11.484163
_cell_length_b 17.740360
_cell_length_c 9.037295
_cell_angle_alpha 90.000000
_cell_angle_beta 90.000000
_cell_angle_gamma 90.000000
_cell_volume 1841.196902
_symmetry_space_group_name_H-M "P N M A"
_symmetry_group_IT_number 62
_symmetry_cell_setting 'orthorhombic'
loop_
_space_group_symop_operation_xyz
x,y,z
1/2-x,-y,1/2+z
1/2+x,1/2-y,1/2-z
-x,1/2+y,-z
-x,-y,-z
1/2+x,y,1/2-z
1/2-x,1/2+y,1/2+z
x,1/2-y,z
loop_
_atom_site_type_symbol
_atom_site_label
_atom_site_fract_x
_atom_site_fract_y
_atom_site_fract_z
Si Si1 0.110805 0.955471 0.065553
Si Si2 0.518577 0.088766 0.971391
Si Si3 0.219858 0.838454 0.540757
Si Si4 0.558994 0.160737 0.671370
Si Si5 0.702520 0.066317 0.188722
O O1 0.059708 0.872992 0.102105
O O2 0.153703 0.997021 0.214128
O O3 0.212374 0.956903 0.944225
O O4 0.000000 0.000000 0.000000
O O5 0.596845 0.111170 0.111617
O O6 0.395726 0.129928 0.965987
O O7 0.580893 0.111484 0.819004
O O8 0.500000 0.000000 0.000000
O O9 0.208387 0.750000 0.563666
O O10 0.334694 0.851338 0.441887
O O11 0.232447 0.881603 0.694656
O O12 0.550605 0.250000 0.703736
#
# Coordination Sequence:
#
# PCOD9467621 Si02
#       5
#     8   8   8   8   8
#     4  12  26  47  75 111 150 192 252 307 367 442
#     4  12  26  45  76 106 145 194 250 306 368 447
#     4  11  27  49  70 107 154 193 245 315 377 444
#     4  11  27  49  75 107 149 198 250 309 378 443
#     4  12  27  44  76 109 145 194 250 301 370 444
#
# _framework density 21.724999
#
# number of rings (size 3 to 8) (size 9 to 14) (size 15 to 20)
#    0.000    0.400    4.000    3.000    5.600    2.400 
#    0.000    0.000    0.000    0.000    0.000    0.000 
#    0.000    0.000    0.000    0.000    0.000    0.000 
#
# Total GULP energy -224006.798713 kJ/mol
# GULP energy per Si atom -5600.169968 kJ/mol
# Density = 2.167555 g / cm^3
# Si number density = 21.724999 Si / 1000 Ang^3
#
#
#
# Elastic Constant Matrix: (Units=GPa)
#
#
# Indices 1 2 3 4 5 6 
#
# 1 98.7303 26.4842 40.9365 0.0000 0.0000 0.0000
# 2 26.4842 82.5293 25.3172 0.0000 0.0000 0.0000
# 3 40.9365 25.3172 130.8029 0.0000 0.0000 0.0000
# 4 0.0000 0.0000 0.0000 24.5499 0.0000 0.0000
# 5 0.0000 0.0000 0.0000 0.0000 48.1732 0.0000
# 6 0.0000 0.0000 0.0000 0.0000 0.0000 37.1503
#
#
#
# Elastic Compliance Matrix: (Units=1/GPa)
#
#
# Indices 1 2 3 4 5 6 
#
# 1 0.012273 -0.002934 -0.003273 0.000000 0.000000 0.000000
# 2 -0.002934 0.013583 -0.001711 0.000000 0.000000 0.000000
# 3 -0.003273 -0.001711 0.009001 0.000000 0.000000 0.000000
# 4 0.000000 0.000000 0.000000 0.040733 0.000000 0.000000
# 5 0.000000 0.000000 0.000000 0.000000 0.020758 0.000000
# 6 0.000000 0.000000 0.000000 0.000000 0.000000 0.026918
#
#
# Mechanical properties :
#
#
# Convention : Reuss Voigt Hill
#
# Bulk Modulus (GPa) = 52.57485 55.28204 53.92844
# Shear Modulus (GPa) = 34.37781 36.59631 35.48706
#
# Velocity S-wave (km/s) = 3.98226 4.10875 4.04600
# Velocity P-wave (km/s) = 6.73775 6.92897 6.83403
#
# Compressibility (1/GPa) = 0.01902050
#
# Stress axis : x y z
#
# Youngs Moduli (GPa) = 81.48077 73.61940 111.10451
#
# Poissons Ratio (x) = 0.21603 0.36364
# Poissons Ratio (y) = 0.23910 0.19007
# Poissons Ratio (z) = 0.26669 0.12594
#
# Static dielectric constant tensor:
#      x y z
#    x 2.104400 0.000000 0.000000 
#    y 0.000000 1.779400 0.000000 
#    z 0.000000 0.000000 1.774410 
# 
# From -- ./inp_files/5030.got.cif
#   From: 2010.05.17/outbox.cif.g08.bks.cpg/sg62_3_cif.got.tgz:5030.got - 2010.06.03 15:25:27.
