data_PCOD9467775
_publ_section_title
;
Structure prediction by ZEFSAII (Michael W. Deem and Ramdas Pophale) SiO2 
 PCOD9467775
Probable space group: P N M A
;
_chemical_formula_sum "Si O2"
_cell_formula_units_Z 64
_cell_length_a 12.000000
_cell_length_b 9.000000
_cell_length_c 30.000000
_cell_angle_alpha 90.000000
_cell_angle_beta 90.000000
_cell_angle_gamma 90.000000
_cell_volume 3240.000000
_symmetry_space_group_name_H-M "P N M A"
_symmetry_group_IT_number 62
_symmetry_cell_setting 'orthorhombic'
loop_
_space_group_symop_operation_xyz
x,y,z
1/2-x,-y,1/2+z
1/2+x,1/2-y,1/2-z
-x,1/2+y,-z
-x,-y,-z
1/2+x,y,1/2-z
1/2-x,1/2+y,1/2+z
x,1/2-y,z
loop_
_atom_site_type_symbol
_atom_site_label
_atom_site_fract_x
_atom_site_fract_y
_atom_site_fract_z
Si Si1 0.909213 0.068401 0.225412
Si Si2 0.124885 0.926646 0.876034
Si Si3 0.557841 0.927059 0.430924
Si Si4 0.714659 0.079058 0.359699
Si Si5 0.092292 0.427510 0.597071
Si Si6 0.254251 0.570746 0.011138
Si Si7 0.645291 0.428393 0.083325
Si Si8 0.658203 0.421148 0.255905
O O1 0.909218 0.250000 0.228903
O O2 0.027945 0.020453 0.249186
O O3 0.916480 0.027734 0.172900
O O4 0.781700 0.019823 0.239536
O O5 0.107003 0.750000 0.879869
O O6 0.256252 0.954530 0.881332
O O7 0.058019 0.000293 0.916708
O O8 0.546085 0.750000 0.433618
O O9 0.631179 0.981429 0.473323
O O10 0.637723 0.973836 0.389725
O O11 0.708783 0.250000 0.376020
O O12 0.674951 0.079170 0.309152
O O13 0.838788 0.015216 0.365333
O O14 0.096830 0.250000 0.603688
O O15 0.967384 0.486142 0.593801
O O16 0.158414 0.462373 0.550860
O O17 0.246109 0.750000 0.008395
O O18 0.304258 0.521052 0.964322
O O19 0.624190 0.250000 0.081299
O O20 0.654550 0.250000 0.239182
#
# Coordination Sequence:
#
# PCOD9467775 Si02
#       8
#     8   8   8   8   8   8   8   8
#     4   9  17  31  50  79 110 137 170 220 276 323
#     4  10  20  34  53  77 106 137 176 225 270 315
#     4  10  19  33  54  76 103 141 179 217 265 321
#     4  10  18  32  55  81 102 132 178 220 261 315
#     4  10  20  34  52  76 108 143 175 217 269 328
#     4   8  17  33  51  74 103 137 180 224 268 316
#     4  10  20  34  52  75 105 141 181 228 270 313
#     4   9  17  29  51  78 108 136 170 219 269 318
#
# _framework density 19.753086
#
# number of rings (size 3 to 8) (size 9 to 14) (size 15 to 20)
#    0.000    2.500    1.250    2.250    0.000    2.000 
#    0.000    6.875    0.000    1.500    0.000    0.000 
#    0.000    0.000    0.000    0.000    0.000    0.000 
#
# Total GULP energy -356509.501981 kJ/mol
# GULP energy per Si atom -5570.460968 kJ/mol
# Density = 1.970813 g / cm^3
# Si number density = 19.753086 Si / 1000 Ang^3
#
#
#
# Elastic Constant Matrix: (Units=GPa)
#
#
# Indices 1 2 3 4 5 6 
#
# 1 140.2582 18.1051 14.5564 0.0000 0.0000 0.0000
# 2 18.1051 13.2259 1.0330 0.0000 0.0000 0.0000
# 3 14.5564 1.0330 23.3288 0.0000 0.0000 0.0000
# 4 0.0000 0.0000 0.0000 13.0853 0.0000 0.0000
# 5 0.0000 0.0000 0.0000 0.0000 27.5017 0.0000
# 6 0.0000 0.0000 0.0000 0.0000 0.0000 26.3607
#
#
#
# Elastic Compliance Matrix: (Units=1/GPa)
#
#
# Indices 1 2 3 4 5 6 
#
# 1 0.009255 -0.012261 -0.005232 0.000000 0.000000 0.000000
# 2 -0.012261 0.092115 0.003572 0.000000 0.000000 0.000000
# 3 -0.005232 0.003572 0.045972 0.000000 0.000000 0.000000
# 4 0.000000 0.000000 0.000000 0.076421 0.000000 0.000000
# 5 0.000000 0.000000 0.000000 0.000000 0.036361 0.000000
# 6 0.000000 0.000000 0.000000 0.000000 0.000000 0.037935
#
#
# Mechanical properties :
#
#
# Convention : Reuss Voigt Hill
#
# Bulk Modulus (GPa) = 8.36827 27.13356 17.75091
# Shear Modulus (GPa) = 13.67106 22.93079 18.30093
#
# Velocity S-wave (km/s) = 2.63363 3.41085 3.04712
# Velocity P-wave (km/s) = 3.67337 5.41092 4.62448
#
# Compressibility (1/GPa) = 0.11949904
#
# Stress axis : x y z
#
# Youngs Moduli (GPa) = 108.04440 10.85603 21.75240
#
# Poissons Ratio (x) = 0.13311 0.11381
# Poissons Ratio (y) = 1.32476 -0.07770
# Poissons Ratio (z) = 0.56531 -0.03878
#
# Static dielectric constant tensor:
#      x y z
#    x 1.756630 0.000000 0.000000 
#    y 0.000000 1.664400 0.000000 
#    z 0.000000 0.000000 1.714020 
# 
# From -- ./inp_files/32494.got.cif
#   From: 2010.05.17/outbox.ucp.g08.bks.cvg/sg62_17_cif.got.tgz:32494.got - 2010.06.11 16:29:25.
