data_PCOD9467147
_publ_section_title
;
Structure prediction by ZEFSAII (Michael W. Deem and Ramdas Pophale) SiO2 
 PCOD9467147
Probable space group: P N M A
;
_chemical_formula_sum "Si O2"
_cell_formula_units_Z 52
_cell_length_a 14.294126
_cell_length_b 9.380714
_cell_length_c 20.634612
_cell_angle_alpha 90.000000
_cell_angle_beta 90.000000
_cell_angle_gamma 90.000000
_cell_volume 2766.876715
_symmetry_space_group_name_H-M "P N M A"
_symmetry_group_IT_number 62
_symmetry_cell_setting 'orthorhombic'
loop_
_space_group_symop_operation_xyz
x,y,z
1/2-x,-y,1/2+z
1/2+x,1/2-y,1/2-z
-x,1/2+y,-z
-x,-y,-z
1/2+x,y,1/2-z
1/2-x,1/2+y,1/2+z
x,1/2-y,z
loop_
_atom_site_type_symbol
_atom_site_label
_atom_site_fract_x
_atom_site_fract_y
_atom_site_fract_z
Si Si1 0.365815 0.920521 0.180638
Si Si2 0.792588 0.081461 0.634653
Si Si3 0.032979 0.750000 0.018715
Si Si4 0.803337 0.919147 0.769830
Si Si5 0.897551 0.003338 0.069769
Si Si6 0.490664 0.080737 0.932936
Si Si7 0.977108 0.414425 0.209295
O O1 0.355005 0.750000 0.185723
O O2 0.426602 0.954721 0.117243
O O3 0.266547 0.999568 0.182060
O O4 0.423608 0.980467 0.242140
O O5 0.790391 0.250000 0.651624
O O6 0.891699 0.049387 0.601267
O O7 0.785308 0.987735 0.699464
O O8 0.706754 0.046611 0.587473
O O9 0.962299 0.626638 0.047868
O O10 0.097197 0.624762 0.984225
O O11 0.784772 0.750000 0.769230
O O12 0.911838 0.941334 0.787404
O O13 0.941125 0.064894 0.136573
O O14 0.493906 0.250000 0.944408
O O15 0.500000 0.000000 0.000000
O O16 0.960633 0.250000 0.229450
#
# Coordination Sequence:
#
# PCOD9467147 Si02
#       7
#     8   8   4   8   8   8   8
#     4  11  23  41  64  94 130 164 213 270 322 379
#     4  11  22  41  67  93 125 167 215 259 320 388
#     4  10  24  42  62  86 132 162 214 252 310 384
#     4  11  24  39  62  98 130 167 212 265 325 381
#     4  11  22  43  63  94 125 171 208 263 317 381
#     4  10  24  46  65  93 129 172 217 265 319 386
#     4  11  23  40  64  94 130 163 210 269 321 376
#
# _framework density 18.793752999999999
#
# number of rings (size 3 to 8) (size 9 to 14) (size 15 to 20)
#    0.000    1.231    4.615    0.923    2.154    2.462 
#    5.538    0.000    0.000    0.000    0.000    0.000 
#    0.000    0.000    0.000    0.000    0.000    0.000 
#
# Total GULP energy -289512.211465 kJ/mol
# GULP energy per Si atom -5567.542528 kJ/mol
# Density = 1.875098 g / cm^3
# Si number density = 18.793753 Si / 1000 Ang^3
#
#
#
# Elastic Constant Matrix: (Units=GPa)
#
#
# Indices 1 2 3 4 5 6 
#
# 1 72.6028 27.9775 19.3651 0.0000 0.0000 0.0000
# 2 27.9775 85.2164 20.8956 0.0000 0.0000 0.0000
# 3 19.3651 20.8956 29.9876 0.0000 0.0000 0.0000
# 4 0.0000 0.0000 0.0000 32.2427 0.0000 0.0000
# 5 0.0000 0.0000 0.0000 0.0000 16.9042 0.0000
# 6 0.0000 0.0000 0.0000 0.0000 0.0000 32.0856
#
#
#
# Elastic Compliance Matrix: (Units=1/GPa)
#
#
# Indices 1 2 3 4 5 6 
#
# 1 0.017504 -0.003588 -0.008804 0.000000 0.000000 0.000000
# 2 -0.003588 0.014889 -0.008057 0.000000 0.000000 0.000000
# 3 -0.008804 -0.008057 0.044647 0.000000 0.000000 0.000000
# 4 0.000000 0.000000 0.000000 0.031015 0.000000 0.000000
# 5 0.000000 0.000000 0.000000 0.000000 0.059157 0.000000
# 6 0.000000 0.000000 0.000000 0.000000 0.000000 0.031167
#
#
# Mechanical properties :
#
#
# Convention : Reuss Voigt Hill
#
# Bulk Modulus (GPa) = 27.66904 36.03145 31.85025
# Shear Modulus (GPa) = 19.89467 24.21771 22.05619
#
# Velocity S-wave (km/s) = 3.25711 3.59361 3.42949
# Velocity P-wave (km/s) = 5.37582 6.03592 5.71541
#
# Compressibility (1/GPa) = 0.03614148
#
# Stress axis : x y z
#
# Youngs Moduli (GPa) = 57.12836 67.16555 22.39808
#
# Poissons Ratio (x) = 0.24100 0.19718
# Poissons Ratio (y) = 0.20499 0.18047
# Poissons Ratio (z) = 0.50293 0.54118
#
# Static dielectric constant tensor:
#      x y z
#    x 1.654420 0.000000 0.000000 
#    y 0.000000 1.631050 0.000000 
#    z 0.000000 0.000000 1.633890 
# 
# From -- ./inp_files/26948.got.cif
#   From: 2010.05.17/outbox.cif.g08.bks.cpg/sg62_14_cif.got.tgz:26948.got - 2010.06.03 15:25:27.
