data_PCOD9467835
_publ_section_title
;
Structure prediction by ZEFSAII (Michael W. Deem and Ramdas Pophale) SiO2 
 PCOD9467835
Probable space group: P N M A
;
_chemical_formula_sum "Si O2"
_cell_formula_units_Z 64
_cell_length_a 30.000000
_cell_length_b 9.000000
_cell_length_c 12.000000
_cell_angle_alpha 90.000000
_cell_angle_beta 90.000000
_cell_angle_gamma 90.000000
_cell_volume 3240.000000
_symmetry_space_group_name_H-M "P N M A"
_symmetry_group_IT_number 62
_symmetry_cell_setting 'orthorhombic'
loop_
_space_group_symop_operation_xyz
x,y,z
1/2-x,-y,1/2+z
1/2+x,1/2-y,1/2-z
-x,1/2+y,-z
-x,-y,-z
1/2+x,y,1/2-z
1/2-x,1/2+y,1/2+z
x,1/2-y,z
loop_
_atom_site_type_symbol
_atom_site_label
_atom_site_fract_x
_atom_site_fract_y
_atom_site_fract_z
Si Si1 0.584976 0.079827 0.027506
Si Si2 0.224400 0.571488 0.546722
Si Si3 0.973288 0.569981 0.722735
Si Si4 0.683973 0.924769 0.388945
Si Si5 0.323275 0.919688 0.841063
Si Si6 0.363110 0.071989 0.171158
Si Si7 0.564602 0.930829 0.665533
Si Si8 0.081895 0.571295 0.077620
O O1 0.576930 0.250000 0.989943
O O2 0.543515 0.022513 0.100323
O O3 0.626242 0.084492 0.114390
O O4 0.604279 0.982638 0.927548
O O5 0.222129 0.750000 0.532177
O O6 0.274479 0.519469 0.567983
O O7 0.206700 0.482961 0.439996
O O8 0.187881 0.528847 0.642968
O O9 0.971115 0.750000 0.723480
O O10 0.940281 0.507633 0.817229
O O11 0.023032 0.523362 0.757839
O O12 0.692485 0.750000 0.406399
O O13 0.634675 0.959969 0.434648
O O14 0.680428 0.967249 0.259704
O O15 0.310630 0.750000 0.810130
O O16 0.363145 0.250000 0.172219
O O17 0.388114 0.020060 0.282663
O O18 0.564865 0.750000 0.664246
O O19 0.559216 0.977720 0.537923
O O20 0.077463 0.750000 0.091305
#
# Coordination Sequence:
#
# PCOD9467835 Si02
#       8
#     8   8   8   8   8   8   8   8
#     4   9  18  32  53  80 108 140 179 227 276 322
#     4  10  21  36  56  82 110 144 187 232 283 342
#     4  10  19  34  57  82 109 144 185 229 278 333
#     4  11  22  35  55  83 111 143 187 234 281 337
#     4  10  19  35  56  77 108 145 180 227 281 331
#     4   9  19  36  56  78 108 148 186 225 277 338
#     4   9  19  36  56  79 111 148 183 224 280 337
#     4  10  21  36  55  80 112 147 186 232 277 331
#
# _framework density 19.753086
#
# number of rings (size 3 to 8) (size 9 to 14) (size 15 to 20)
#    0.000    2.250    1.250    1.500    0.000    3.500 
#    0.000    3.750    0.000    0.000    0.000    0.000 
#    0.000    0.000    0.000    0.000    0.000    0.000 
#
# Total GULP energy -356910.462317 kJ/mol
# GULP energy per Si atom -5576.725974 kJ/mol
# Density = 1.970813 g / cm^3
# Si number density = 19.753086 Si / 1000 Ang^3
#
#
#
# Elastic Constant Matrix: (Units=GPa)
#
#
# Indices 1 2 3 4 5 6 
#
# 1 65.9503 11.1293 -9.6079 0.0000 0.0000 0.0000
# 2 11.1293 9.2784 -18.9013 0.0000 0.0000 0.0000
# 3 -9.6079 -18.9013 -13.2303 0.0000 0.0000 0.0000
# 4 0.0000 0.0000 0.0000 20.8625 0.0000 0.0000
# 5 0.0000 0.0000 0.0000 0.0000 18.8019 0.0000
# 6 0.0000 0.0000 0.0000 0.0000 0.0000 22.2857
#
#
#
# Elastic Compliance Matrix: (Units=1/GPa)
#
#
# Indices 1 2 3 4 5 6 
#
# 1 0.017889 -0.012255 0.004517 0.000000 0.000000 0.000000
# 2 -0.012255 0.035958 -0.042471 0.000000 0.000000 0.000000
# 3 0.004517 -0.042471 -0.018189 0.000000 0.000000 0.000000
# 4 0.000000 0.000000 0.000000 0.047933 0.000000 0.000000
# 5 0.000000 0.000000 0.000000 0.000000 0.053186 0.000000
# 6 0.000000 0.000000 0.000000 0.000000 0.000000 0.044872
#
#
# Mechanical properties :
#
#
# Convention : Reuss Voigt Hill
#
# Bulk Modulus (GPa) = -15.44167 3.02654 -6.20757
# Shear Modulus (GPa) = 19.19527 17.68192 18.43859
#
# Velocity S-wave (km/s) = 3.12069 2.99515 3.05856
# Velocity P-wave (km/s) = 2.26950 3.67379 3.05347
#
# Compressibility (1/GPa) = -0.06475984
#
# Stress axis : x y z
#
# Youngs Moduli (GPa) = 55.89975 27.81018 -54.97905
#
# Poissons Ratio (x) = 0.34082 0.24836
# Poissons Ratio (y) = 0.68507 -2.33502
# Poissons Ratio (z) = -0.25252 1.18113
#
# Static dielectric constant tensor:
#      x y z
#    x 1.719710 0.000000 0.000000 
#    y 0.000000 1.658180 0.000000 
#    z 0.000000 0.000000 1.721650 
# 
# From -- ./inp_files/15749.got.cif
#   From: 2010.05.17/outbox.ucp.g08.bks.cvg/sg62_8_cif.got.tgz:15749.got - 2010.06.11 16:29:25.
