data_PCOD9467275
_publ_section_title
;
Structure prediction by ZEFSAII (Michael W. Deem and Ramdas Pophale) SiO2 
 PCOD9467275
Probable space group: P N M A
;
_chemical_formula_sum "Si O2"
_cell_formula_units_Z 24
_cell_length_a 11.184385
_cell_length_b 9.254380
_cell_length_c 9.992523
_cell_angle_alpha 90.000000
_cell_angle_beta 90.000000
_cell_angle_gamma 90.000000
_cell_volume 1034.271585
_symmetry_space_group_name_H-M "P N M A"
_symmetry_group_IT_number 62
_symmetry_cell_setting 'orthorhombic'
loop_
_space_group_symop_operation_xyz
x,y,z
1/2-x,-y,1/2+z
1/2+x,1/2-y,1/2-z
-x,1/2+y,-z
-x,-y,-z
1/2+x,y,1/2-z
1/2-x,1/2+y,1/2+z
x,1/2-y,z
loop_
_atom_site_type_symbol
_atom_site_label
_atom_site_fract_x
_atom_site_fract_y
_atom_site_fract_z
Si Si1 0.152964 0.250000 0.488537
Si Si2 0.748138 0.498285 0.370272
Si Si3 0.341243 0.750000 0.274783
Si Si4 0.933703 0.750000 0.935385
Si Si5 0.569976 0.750000 0.805979
O O1 0.230655 0.105836 0.504937
O O2 0.084948 0.250000 0.634488
O O3 0.061582 0.250000 0.369420
O O4 0.757151 0.609515 0.245373
O O5 0.635246 0.395733 0.389006
O O6 0.858448 0.389134 0.354924
O O7 0.422363 0.750000 0.404624
O O8 0.055536 0.750000 0.853763
#
# Coordination Sequence:
#
# PCOD9467275 Si02
#       5
#     4   8   4   4   4
#     4   8  19  36  56  78 112 147 184 237 267 329
#     4   8  21  38  53  82 119 138 198 227 265 345
#     4   8  21  38  52  80 118 145 178 243 279 319
#     4  11  21  34  62  82 113 154 181 234 289 319
#     4  11  19  34  62  82 105 158 187 224 281 333
#
# _framework density 23.204736
#
# number of rings (size 3 to 8) (size 9 to 14) (size 15 to 20)
#    2.000    0.667    0.000    1.000    4.667    1.333 
#    0.000    5.000    0.000    0.000    0.000    0.000 
#    0.000    0.000    0.000    0.000    0.000    0.000 
#
# Total GULP energy -133730.928956 kJ/mol
# GULP energy per Si atom -5572.122040 kJ/mol
# Density = 2.315192 g / cm^3
# Si number density = 23.204736 Si / 1000 Ang^3
#
#
#
# Elastic Constant Matrix: (Units=GPa)
#
#
# Indices 1 2 3 4 5 6 
#
# 1 34.7242 35.5317 20.7398 0.0000 0.0000 0.0000
# 2 35.5317 189.1874 26.5269 0.0000 0.0000 0.0000
# 3 20.7398 26.5269 116.6967 0.0000 0.0000 0.0000
# 4 0.0000 0.0000 0.0000 97.9580 0.0000 0.0000
# 5 0.0000 0.0000 0.0000 0.0000 24.2260 0.0000
# 6 0.0000 0.0000 0.0000 0.0000 0.0000 -13.3947
#
#
#
# Elastic Compliance Matrix: (Units=1/GPa)
#
#
# Indices 1 2 3 4 5 6 
#
# 1 0.038680 -0.006508 -0.005395 0.000000 0.000000 0.000000
# 2 -0.006508 0.006555 -0.000333 0.000000 0.000000 0.000000
# 3 -0.005395 -0.000333 0.009604 0.000000 0.000000 0.000000
# 4 0.000000 0.000000 0.000000 0.010208 0.000000 0.000000
# 5 0.000000 0.000000 0.000000 0.000000 0.041278 0.000000
# 6 0.000000 0.000000 0.000000 0.000000 0.000000 -0.074657
#
#
# Mechanical properties :
#
#
# Convention : Reuss Voigt Hill
#
# Bulk Modulus (GPa) = 32.93181 56.24500 44.58841
# Shear Modulus (GPa) = 75.45651 38.94519 57.20085
#
# Velocity S-wave (km/s) = 5.70862 4.10119 4.97031
# Velocity P-wave (km/s) = 7.59432 6.83502 7.22465
#
# Compressibility (1/GPa) = 0.03036577
#
# Stress axis : x y z
#
# Youngs Moduli (GPa) = 25.85313 152.55970 104.12529
#
# Poissons Ratio (x) = 0.99288 0.56175
# Poissons Ratio (y) = 0.16826 0.03471
# Poissons Ratio (z) = 0.13948 0.05086
#
# Static dielectric constant tensor:
#      x y z
#    x 1.801220 0.000000 0.000000 
#    y 0.000000 1.873990 0.000000 
#    z 0.000000 0.000000 1.921060 
# 
# From -- ./inp_files/4731.got.cif
#   From: 2010.05.17/outbox.cif.g08.bks.cpg/sg62_3_cif.got.tgz:4731.got - 2010.06.03 15:25:27.
