data_PCOD9467980
_publ_section_title
;
Structure prediction by ZEFSAII (Michael W. Deem and Ramdas Pophale) SiO2 
 PCOD9467980
Probable space group: P N M A
;
_chemical_formula_sum "Si O2"
_cell_formula_units_Z 56
_cell_length_a 21.000000
_cell_length_b 9.000000
_cell_length_c 15.000000
_cell_angle_alpha 90.000000
_cell_angle_beta 90.000000
_cell_angle_gamma 90.000000
_cell_volume 2835.000000
_symmetry_space_group_name_H-M "P N M A"
_symmetry_group_IT_number 62
_symmetry_cell_setting 'orthorhombic'
loop_
_space_group_symop_operation_xyz
x,y,z
1/2-x,-y,1/2+z
1/2+x,1/2-y,1/2-z
-x,1/2+y,-z
-x,-y,-z
1/2+x,y,1/2-z
1/2-x,1/2+y,1/2+z
x,1/2-y,z
loop_
_atom_site_type_symbol
_atom_site_label
_atom_site_fract_x
_atom_site_fract_y
_atom_site_fract_z
Si Si1 0.439218 0.070694 0.046680
Si Si2 0.578103 0.071857 0.591487
Si Si3 0.120833 0.573944 0.728165
Si Si4 0.770232 0.920190 0.383024
Si Si5 0.177346 0.072286 0.436615
Si Si6 0.848806 0.422013 0.752439
Si Si7 0.438622 0.928277 0.608820
O O1 0.437130 0.250000 0.037248
O O2 0.433386 0.038175 0.153169
O O3 0.500000 0.000000 0.000000
O O4 0.381368 0.994935 0.992990
O O5 0.577409 0.250000 0.598940
O O6 0.595296 0.036678 0.487403
O O7 0.616347 0.006570 0.676313
O O8 0.507495 0.004555 0.603389
O O9 0.119699 0.750000 0.743970
O O10 0.183263 0.527028 0.672509
O O11 0.795968 0.750000 0.378271
O O12 0.766937 0.954930 0.489150
O O13 0.705435 0.922463 0.328323
O O14 0.171999 0.250000 0.422910
O O15 0.176469 0.994245 0.339923
O O16 0.866894 0.250000 0.734883
O O17 0.904379 0.512305 0.802281
O O18 0.444970 0.750000 0.613437
#
# Coordination Sequence:
#
# PCOD9467980 Si02
#       7
#     8   8   8   8   8   8   8
#     4  10  21  36  55  83 116 152 191 236 290 349
#     4  10  21  38  60  85 117 155 193 239 293 348
#     4  10  21  36  58  85 114 150 193 238 290 349
#     4   9  21  41  60  82 115 153 197 242 288 345
#     4  10  21  39  60  84 116 152 194 244 291 345
#     4  11  23  39  61  88 118 155 196 243 298 354
#     4  10  22  39  58  84 116 151 196 243 289 347
#
# _framework density 19.753086
#
# number of rings (size 3 to 8) (size 9 to 14) (size 15 to 20)
#    0.000    2.000    0.000    2.571    2.000    6.286 
#    0.000    2.857    0.000    0.000    0.000    0.000 
#    0.000    0.000    0.000    0.000    0.000    0.000 
#
# Total GULP energy -312261.415687 kJ/mol
# GULP energy per Si atom -5576.096709 kJ/mol
# Density = 1.970813 g / cm^3
# Si number density = 19.753086 Si / 1000 Ang^3
#
#
#
# Elastic Constant Matrix: (Units=GPa)
#
#
# Indices 1 2 3 4 5 6 
#
# 1 16.9207 3.5604 4.1935 0.0000 0.0000 0.0000
# 2 3.5604 87.1848 47.4297 0.0000 0.0000 0.0000
# 3 4.1935 47.4297 149.2103 0.0000 0.0000 0.0000
# 4 0.0000 0.0000 0.0000 43.6481 0.0000 0.0000
# 5 0.0000 0.0000 0.0000 0.0000 26.9565 0.0000
# 6 0.0000 0.0000 0.0000 0.0000 0.0000 18.5992
#
#
#
# Elastic Compliance Matrix: (Units=1/GPa)
#
#
# Indices 1 2 3 4 5 6 
#
# 1 0.059759 -0.001846 -0.001093 0.000000 0.000000 0.000000
# 2 -0.001846 0.013925 -0.004374 0.000000 0.000000 0.000000
# 3 -0.001093 -0.004374 0.008123 0.000000 0.000000 0.000000
# 4 0.000000 0.000000 0.000000 0.022911 0.000000 0.000000
# 5 0.000000 0.000000 0.000000 0.000000 0.037097 0.000000
# 6 0.000000 0.000000 0.000000 0.000000 0.000000 0.053766
#
#
# Mechanical properties :
#
#
# Convention : Reuss Voigt Hill
#
# Bulk Modulus (GPa) = 14.88529 40.40923 27.64726
# Shear Modulus (GPa) = 21.49616 31.04957 26.27286
#
# Velocity S-wave (km/s) = 3.30243 3.96900 3.65096
# Velocity P-wave (km/s) = 4.70037 6.44248 5.63910
#
# Compressibility (1/GPa) = 0.06718042
#
# Stress axis : x y z
#
# Youngs Moduli (GPa) = 16.73402 71.81306 123.10446
#
# Poissons Ratio (x) = 0.13256 0.13452
# Poissons Ratio (y) = 0.03089 0.53852
# Poissons Ratio (z) = 0.01829 0.31415
#
# Static dielectric constant tensor:
#      x y z
#    x 1.752040 0.000000 0.000000 
#    y 0.000000 1.678390 0.000000 
#    z 0.000000 0.000000 1.698420 
# 
# From -- ./inp_files/20337.got.cif
#   From: 2010.05.17/outbox.ucp.g08.bks.cvg/sg62_11_cif.got.tgz:20337.got - 2010.06.11 16:29:25.
