data_PCOD9467245
_publ_section_title
;
Structure prediction by ZEFSAII (Michael W. Deem and Ramdas Pophale) SiO2 
 PCOD9467245
Probable space group: P N M A
;
_chemical_formula_sum "Si O2"
_cell_formula_units_Z 36
_cell_length_a 5.981886
_cell_length_b 22.489272
_cell_length_c 9.708625
_cell_angle_alpha 90.000000
_cell_angle_beta 90.000000
_cell_angle_gamma 90.000000
_cell_volume 1306.084441
_symmetry_space_group_name_H-M "P N M A"
_symmetry_group_IT_number 62
_symmetry_cell_setting 'orthorhombic'
loop_
_space_group_symop_operation_xyz
x,y,z
1/2-x,-y,1/2+z
1/2+x,1/2-y,1/2-z
-x,1/2+y,-z
-x,-y,-z
1/2+x,y,1/2-z
1/2-x,1/2+y,1/2+z
x,1/2-y,z
loop_
_atom_site_type_symbol
_atom_site_label
_atom_site_fract_x
_atom_site_fract_y
_atom_site_fract_z
Si Si1 0.510231 0.118987 0.420945
Si Si2 0.364911 0.922763 0.088302
Si Si3 0.104150 0.250000 0.173940
Si Si4 0.092427 0.813018 0.319198
Si Si5 0.387075 0.045123 0.164088
O O1 0.356632 0.114416 0.555708
O O2 0.592787 0.186522 0.404884
O O3 0.401364 0.099078 0.272834
O O4 0.675011 0.063055 0.425604
O O5 0.560081 0.875331 0.106950
O O6 0.357657 0.975658 0.198427
O O7 0.404475 0.952228 0.938325
O O8 0.350816 0.250000 0.250998
O O9 0.847881 0.812283 0.238928
O O10 0.075291 0.750000 0.398878
#
# Coordination Sequence:
#
# PCOD9467245 Si02
#       5
#     8   8   4   8   8
#     4  12  24  45  67 104 148 187 243 299 364 431
#     4  11  26  42  74 101 136 196 238 294 367 429
#     4  12  24  44  72 100 146 196 234 292 362 430
#     4  10  25  49  72 103 141 183 241 298 350 419
#     4  11  24  44  66 103 143 183 243 296 356 436
#
# _framework density 27.563303000000001
#
# number of rings (size 3 to 8) (size 9 to 14) (size 15 to 20)
#    0.000    0.889    4.444    0.667    7.778    0.000 
#    4.000    0.000    0.000    0.000    0.000    0.000 
#    0.000    0.000    0.000    0.000    0.000    0.000 
#
# Total GULP energy -200421.156712 kJ/mol
# GULP energy per Si atom -5567.254353 kJ/mol
# Density = 2.750057 g / cm^3
# Si number density = 27.563303 Si / 1000 Ang^3
#
#
#
# Elastic Constant Matrix: (Units=GPa)
#
#
# Indices 1 2 3 4 5 6 
#
# 1 135.2325 32.7677 18.5417 0.0000 0.0000 0.0000
# 2 32.7677 226.6455 43.7506 0.0000 0.0000 0.0000
# 3 18.5417 43.7506 41.7644 0.0000 0.0000 0.0000
# 4 0.0000 0.0000 0.0000 40.9187 0.0000 0.0000
# 5 0.0000 0.0000 0.0000 0.0000 64.5788 0.0000
# 6 0.0000 0.0000 0.0000 0.0000 0.0000 46.1553
#
#
#
# Elastic Compliance Matrix: (Units=1/GPa)
#
#
# Indices 1 2 3 4 5 6 
#
# 1 0.007935 -0.000586 -0.002910 0.000000 0.000000 0.000000
# 2 -0.000586 0.005574 -0.005579 0.000000 0.000000 0.000000
# 3 -0.002910 -0.005579 0.031080 0.000000 0.000000 0.000000
# 4 0.000000 0.000000 0.000000 0.024439 0.000000 0.000000
# 5 0.000000 0.000000 0.000000 0.000000 0.015485 0.000000
# 6 0.000000 0.000000 0.000000 0.000000 0.000000 0.021666
#
#
# Mechanical properties :
#
#
# Convention : Reuss Voigt Hill
#
# Bulk Modulus (GPa) = 37.82014 65.97361 51.89687
# Shear Modulus (GPa) = 37.55438 50.90273 44.22855
#
# Velocity S-wave (km/s) = 3.69518 4.30205 4.01011
# Velocity P-wave (km/s) = 5.65303 6.97597 6.34905
#
# Compressibility (1/GPa) = 0.02644094
#
# Stress axis : x y z
#
# Youngs Moduli (GPa) = 126.01601 179.41212 32.17534
#
# Poissons Ratio (x) = 0.10507 0.09362
# Poissons Ratio (y) = 0.07380 0.17950
# Poissons Ratio (z) = 0.36665 1.00091
#
# Static dielectric constant tensor:
#      x y z
#    x 2.321520 0.000000 0.000000 
#    y 0.000000 2.076160 0.000000 
#    z 0.000000 0.000000 2.269280 
# 
# From -- ./inp_files/10686.got.cif
#   From: 2010.05.17/outbox.cif.g08.bks.cpg/sg62_6_cif.got.tgz:10686.got - 2010.06.03 15:25:27.
