data_PCOD9467589
_publ_section_title
;
Structure prediction by ZEFSAII (Michael W. Deem and Ramdas Pophale) SiO2 
 PCOD9467589
Probable space group: P N M A
;
_chemical_formula_sum "Si O2"
_cell_formula_units_Z 32
_cell_length_a 14.624286
_cell_length_b 10.451560
_cell_length_c 9.781609
_cell_angle_alpha 90.000000
_cell_angle_beta 90.000000
_cell_angle_gamma 90.000000
_cell_volume 1495.085703
_symmetry_space_group_name_H-M "P N M A"
_symmetry_group_IT_number 62
_symmetry_cell_setting 'orthorhombic'
loop_
_space_group_symop_operation_xyz
x,y,z
1/2-x,-y,1/2+z
1/2+x,1/2-y,1/2-z
-x,1/2+y,-z
-x,-y,-z
1/2+x,y,1/2-z
1/2-x,1/2+y,1/2+z
x,1/2-y,z
loop_
_atom_site_type_symbol
_atom_site_label
_atom_site_fract_x
_atom_site_fract_y
_atom_site_fract_z
Si Si1 0.926168 0.519270 0.817328
Si Si2 0.607419 0.393624 0.611431
Si Si3 0.575315 0.106848 0.021374
Si Si4 0.777972 0.396737 0.985896
O O1 0.932055 0.605034 0.954577
O O2 0.903673 0.598200 0.683540
O O3 0.845525 0.421643 0.858617
O O4 0.022207 0.445408 0.801880
O O5 0.635518 0.250000 0.647841
O O6 0.672422 0.419526 0.950060
O O7 0.686461 0.500079 0.597273
O O8 0.544072 0.250000 0.986759
O O9 0.500000 0.000000 0.000000
O O10 0.786775 0.250000 0.032447
#
# Coordination Sequence:
#
# PCOD9467589 Si02
#       4
#     8   8   8   8
#     4   9  20  36  63  87 124 153 199 242 302 351
#     4   9  18  35  63  92 118 154 203 244 296 354
#     4  11  25  43  60  88 124 162 200 249 301 357
#     4   9  20  38  60  85 119 157 201 245 298 352
#
# _framework density 21.403457
#
# number of rings (size 3 to 8) (size 9 to 14) (size 15 to 20)
#    1.500    1.000    0.000    1.500    0.000    6.000 
#    0.000    5.000    0.000    0.000    0.000    0.000 
#    0.000    0.000    0.000    0.000    0.000    0.000 
#
# Total GULP energy -178355.849852 kJ/mol
# GULP energy per Si atom -5573.620308 kJ/mol
# Density = 2.135474 g / cm^3
# Si number density = 21.403457 Si / 1000 Ang^3
#
#
#
# Elastic Constant Matrix: (Units=GPa)
#
#
# Indices 1 2 3 4 5 6 
#
# 1 141.2694 101.3919 -0.7779 0.0000 0.0000 0.0000
# 2 101.3919 181.0831 -0.0416 0.0000 0.0000 0.0000
# 3 -0.7779 -0.0416 42.2338 0.0000 0.0000 0.0000
# 4 0.0000 0.0000 0.0000 17.0873 0.0000 0.0000
# 5 0.0000 0.0000 0.0000 0.0000 17.5622 0.0000
# 6 0.0000 0.0000 0.0000 0.0000 0.0000 32.6600
#
#
#
# Elastic Compliance Matrix: (Units=1/GPa)
#
#
# Indices 1 2 3 4 5 6 
#
# 1 0.011836 -0.006627 0.000212 0.000000 0.000000 0.000000
# 2 -0.006627 0.009233 -0.000113 0.000000 0.000000 0.000000
# 3 0.000212 -0.000113 0.023682 0.000000 0.000000 0.000000
# 4 0.000000 0.000000 0.000000 0.058523 0.000000 0.000000
# 5 0.000000 0.000000 0.000000 0.000000 0.056940 0.000000
# 6 0.000000 0.000000 0.000000 0.000000 0.000000 0.030619
#
#
# Mechanical properties :
#
#
# Convention : Reuss Voigt Hill
#
# Bulk Modulus (GPa) = 31.55241 62.85902 47.20571
# Shear Modulus (GPa) = 23.31489 31.06282 27.18886
#
# Velocity S-wave (km/s) = 3.30404 3.81373 3.56800
# Velocity P-wave (km/s) = 5.41566 6.98749 6.25118
#
# Compressibility (1/GPa) = 0.03169330
#
# Stress axis : x y z
#
# Youngs Moduli (GPa) = 84.48463 108.30569 42.22701
#
# Poissons Ratio (x) = 0.71779 -0.00893
# Poissons Ratio (y) = 0.55992 0.00477
# Poissons Ratio (z) = -0.01787 0.01224
#
# Static dielectric constant tensor:
#      x y z
#    x 1.774360 0.000000 0.000000 
#    y 0.000000 1.731150 0.000000 
#    z 0.000000 0.000000 1.857080 
# 
# From -- ./inp_files/7216.got.cif
#   From: 2010.05.17/outbox.cif.g08.bks.cpg/sg62_4_cif.got.tgz:7216.got - 2010.06.03 15:25:27.
