data_PCOD9467087
_publ_section_title
;
Structure prediction by ZEFSAII (Michael W. Deem and Ramdas Pophale) SiO2 
 PCOD9467087
Probable space group: P N M A
;
_chemical_formula_sum "Si O2"
_cell_formula_units_Z 48
_cell_length_a 15.130179
_cell_length_b 8.828349
_cell_length_c 18.886707
_cell_angle_alpha 90.000000
_cell_angle_beta 90.000000
_cell_angle_gamma 90.000000
_cell_volume 2522.782456
_symmetry_space_group_name_H-M "P N M A"
_symmetry_group_IT_number 62
_symmetry_cell_setting 'orthorhombic'
loop_
_space_group_symop_operation_xyz
x,y,z
1/2-x,-y,1/2+z
1/2+x,1/2-y,1/2-z
-x,1/2+y,-z
-x,-y,-z
1/2+x,y,1/2-z
1/2-x,1/2+y,1/2+z
x,1/2-y,z
loop_
_atom_site_type_symbol
_atom_site_label
_atom_site_fract_x
_atom_site_fract_y
_atom_site_fract_z
Si Si1 0.594052 0.069479 0.478074
Si Si2 0.055084 0.431899 0.435249
Si Si3 0.759789 0.431485 0.080680
Si Si4 0.692327 0.931275 0.743234
Si Si5 0.494092 0.569348 0.213652
Si Si6 0.851997 0.430393 0.828117
O O1 0.587660 0.250000 0.477458
O O2 0.500000 0.000000 0.500000
O O3 0.668720 0.015981 0.533138
O O4 0.620760 0.008276 0.401059
O O5 0.047759 0.250000 0.435023
O O6 0.159280 0.470761 0.439943
O O7 0.018706 0.496845 0.361494
O O8 0.000000 0.500000 0.500000
O O9 0.770919 0.250000 0.071595
O O10 0.775956 0.466444 0.163358
O O11 0.691398 0.750000 0.751231
O O12 0.595748 0.997863 0.756934
O O13 0.761063 0.003574 0.797961
O O14 0.483907 0.750000 0.205876
O O15 0.572767 0.540576 0.269284
O O16 0.844694 0.250000 0.838556
#
# Coordination Sequence:
#
# PCOD9467087 Si02
#       6
#     8   8   8   8   8   8
#     4  12  26  43  67  96 131 172 217 267 323 385
#     4  11  24  43  66  94 130 172 218 268 323 386
#     4  10  23  44  68  95 131 173 216 267 323 383
#     4  11  23  41  67  96 127 168 213 264 323 383
#     4  11  24  42  66  96 129 169 213 266 322 383
#     4  11  24  43  67  96 131 168 214 267 320 382
#
# _framework density 19.026610999999999
#
# number of rings (size 3 to 8) (size 9 to 14) (size 15 to 20)
#    0.000    1.000    1.667    4.500    2.333    7.333 
#    0.000    0.000    0.000    0.000    0.000    0.000 
#    0.000    0.000    0.000    0.000    0.000    0.000 
#
# Total GULP energy -268644.115921 kJ/mol
# GULP energy per Si atom -5596.752415 kJ/mol
# Density = 1.898331 g / cm^3
# Si number density = 19.026611 Si / 1000 Ang^3
#
#
#
# Elastic Constant Matrix: (Units=GPa)
#
#
# Indices 1 2 3 4 5 6 
#
# 1 104.0105 40.3520 16.6408 0.0000 0.0000 0.0000
# 2 40.3520 63.8619 38.2468 0.0000 0.0000 0.0000
# 3 16.6408 38.2468 85.2163 0.0000 0.0000 0.0000
# 4 0.0000 0.0000 0.0000 36.3650 0.0000 0.0000
# 5 0.0000 0.0000 0.0000 0.0000 36.0544 0.0000
# 6 0.0000 0.0000 0.0000 0.0000 0.0000 36.0653
#
#
#
# Elastic Compliance Matrix: (Units=1/GPa)
#
#
# Indices 1 2 3 4 5 6 
#
# 1 0.012886 -0.009074 0.001556 0.000000 0.000000 0.000000
# 2 -0.009074 0.027805 -0.010708 0.000000 0.000000 0.000000
# 3 0.001556 -0.010708 0.016237 0.000000 0.000000 0.000000
# 4 0.000000 0.000000 0.000000 0.027499 0.000000 0.000000
# 5 0.000000 0.000000 0.000000 0.000000 0.027736 0.000000
# 6 0.000000 0.000000 0.000000 0.000000 0.000000 0.027727
#
#
# Mechanical properties :
#
#
# Convention : Reuss Voigt Hill
#
# Bulk Modulus (GPa) = 48.83539 49.28535 49.06037
# Shear Modulus (GPa) = 27.29759 32.22023 29.75891
#
# Velocity S-wave (km/s) = 3.79186 4.11959 3.95912
# Velocity P-wave (km/s) = 6.70027 6.97049 6.83671
#
# Compressibility (1/GPa) = 0.02047695
#
# Stress axis : x y z
#
# Youngs Moduli (GPa) = 77.60456 35.96453 61.58898
#
# Poissons Ratio (x) = 0.32635 -0.09586
# Poissons Ratio (y) = 0.70420 0.65947
# Poissons Ratio (z) = -0.12078 0.38509
#
# Static dielectric constant tensor:
#      x y z
#    x 1.625920 0.000000 0.000000 
#    y 0.000000 1.635030 0.000000 
#    z 0.000000 0.000000 1.622940 
# 
# From -- ./inp_files/23659.got.cif
#   From: 2010.05.17/outbox.cif.g08.bks.cpg/sg62_12_cif.got.tgz:23659.got - 2010.06.03 15:25:27.
