data_PCOD9467104
_publ_section_title
;
Structure prediction by ZEFSAII (Michael W. Deem and Ramdas Pophale) SiO2 
 PCOD9467104
Probable space group: P N M A
;
_chemical_formula_sum "Si O2"
_cell_formula_units_Z 48
_cell_length_a 14.885775
_cell_length_b 14.437741
_cell_length_c 9.765494
_cell_angle_alpha 90.000000
_cell_angle_beta 90.000000
_cell_angle_gamma 90.000000
_cell_volume 2098.770323
_symmetry_space_group_name_H-M "P N M A"
_symmetry_group_IT_number 62
_symmetry_cell_setting 'orthorhombic'
loop_
_space_group_symop_operation_xyz
x,y,z
1/2-x,-y,1/2+z
1/2+x,1/2-y,1/2-z
-x,1/2+y,-z
-x,-y,-z
1/2+x,y,1/2-z
1/2-x,1/2+y,1/2+z
x,1/2-y,z
loop_
_atom_site_type_symbol
_atom_site_label
_atom_site_fract_x
_atom_site_fract_y
_atom_site_fract_z
Si Si1 0.244203 0.750000 0.695466
Si Si2 0.605327 0.440283 0.653328
Si Si3 0.284465 0.385343 0.947837
Si Si4 0.404941 0.750000 0.915427
Si Si5 0.924845 0.110022 0.967884
Si Si6 0.149508 0.750000 0.232010
Si Si7 0.449288 0.250000 0.307778
Si Si8 0.597182 0.044280 0.965324
O O1 0.233854 0.661851 0.594455
O O2 0.330787 0.750000 0.792944
O O3 0.156639 0.750000 0.788228
O O4 0.689608 0.374793 0.629683
O O5 0.507199 0.397070 0.637689
O O6 0.609528 0.514747 0.530317
O O7 0.612535 0.477181 0.805674
O O8 0.352281 0.328847 0.853410
O O9 0.324296 0.488108 0.957529
O O10 0.499415 0.750000 0.834226
O O11 0.398979 0.845963 0.000724
O O12 0.852030 0.169906 0.889318
O O13 0.969268 0.161811 0.098104
O O14 0.500000 0.000000 0.000000
#
# Coordination Sequence:
#
# PCOD9467104 Si02
#       8
#     4   8   8   4   8   4   4   8
#     4  11  25  45  72 105 147 199 252 308 383 454
#     4  11  25  44  69 103 138 191 247 308 373 446
#     4  11  26  44  70 104 151 187 248 315 374 449
#     4  12  28  46  76 108 148 202 258 306 383 465
#     4  10  23  44  73  97 138 188 247 302 373 451
#     4  10  24  42  70 106 140 192 238 302 375 442
#     4  11  23  43  70  99 139 187 244 302 375 435
#     4  12  28  47  72 108 152 200 248 317 383 456
#
# _framework density 22.870535
#
# number of rings (size 3 to 8) (size 9 to 14) (size 15 to 20)
#    0.000    1.000    0.000    5.000    7.000   12.000 
#    0.000    0.000    0.000    0.000    0.000    0.000 
#    0.000    0.000    0.000    0.000    0.000    0.000 
#
# Total GULP energy -267206.312778 kJ/mol
# GULP energy per Si atom -5566.798183 kJ/mol
# Density = 2.281848 g / cm^3
# Si number density = 22.870535 Si / 1000 Ang^3
#
#
#
# Elastic Constant Matrix: (Units=GPa)
#
#
# Indices 1 2 3 4 5 6 
#
# 1 55.5213 20.4185 18.4321 0.0000 0.0000 0.0000
# 2 20.4185 90.8789 1.3365 0.0000 0.0000 0.0000
# 3 18.4321 1.3365 80.4294 0.0000 0.0000 0.0000
# 4 0.0000 0.0000 0.0000 -234.2714 0.0000 0.0000
# 5 0.0000 0.0000 0.0000 0.0000 36.0160 0.0000
# 6 0.0000 0.0000 0.0000 0.0000 0.0000 -26.6083
#
#
#
# Elastic Compliance Matrix: (Units=1/GPa)
#
#
# Indices 1 2 3 4 5 6 
#
# 1 0.021347 -0.004725 -0.004814 0.000000 0.000000 0.000000
# 2 -0.004725 0.012052 0.000883 0.000000 0.000000 0.000000
# 3 -0.004814 0.000883 0.013522 0.000000 0.000000 0.000000
# 4 0.000000 0.000000 0.000000 -0.004269 0.000000 0.000000
# 5 0.000000 0.000000 0.000000 0.000000 0.027765 0.000000
# 6 0.000000 0.000000 0.000000 0.000000 0.000000 -0.037582
#
#
# Mechanical properties :
#
#
# Convention : Reuss Voigt Hill
#
# Bulk Modulus (GPa) = 33.77422 34.13375 33.95398
# Shear Modulus (GPa) = 83.30873 -32.52991 25.38941
#
# Velocity S-wave (km/s) = 6.04196 -3.77550 3.33549
# Velocity P-wave (km/s) = 7.96702 2.01213 5.45090
#
# Compressibility (1/GPa) = 0.02960838
#
# Stress axis : x y z
#
# Youngs Moduli (GPa) = 46.84518 82.97130 73.95503
#
# Poissons Ratio (x) = 0.39207 0.35599
# Poissons Ratio (y) = 0.22136 -0.06528
# Poissons Ratio (z) = 0.22549 -0.07323
#
# Static dielectric constant tensor:
#      x y z
#    x 1.955800 0.000000 0.000000 
#    y 0.000000 1.931720 0.000000 
#    z 0.000000 0.000000 1.835240 
# 
# From -- ./inp_files/6572.got.cif
#   From: 2010.05.17/outbox.cif.g08.bks.cpg/sg62_4_cif.got.tgz:6572.got - 2010.06.03 15:25:27.
