data_PCOD9467728
_publ_section_title
;
Structure prediction by ZEFSAII (Michael W. Deem and Ramdas Pophale) SiO2 
 PCOD9467728
Probable space group: P N M A
;
_chemical_formula_sum "Si O2"
_cell_formula_units_Z 48
_cell_length_a 17.644065
_cell_length_b 7.438634
_cell_length_c 17.076043
_cell_angle_alpha 90.000000
_cell_angle_beta 90.000000
_cell_angle_gamma 90.000000
_cell_volume 2241.192083
_symmetry_space_group_name_H-M "P N M A"
_symmetry_group_IT_number 62
_symmetry_cell_setting 'orthorhombic'
loop_
_space_group_symop_operation_xyz
x,y,z
1/2-x,-y,1/2+z
1/2+x,1/2-y,1/2-z
-x,1/2+y,-z
-x,-y,-z
1/2+x,y,1/2-z
1/2-x,1/2+y,1/2+z
x,1/2-y,z
loop_
_atom_site_type_symbol
_atom_site_label
_atom_site_fract_x
_atom_site_fract_y
_atom_site_fract_z
Si Si1 0.886139 0.968464 0.491599
Si Si2 0.262544 0.529269 0.892760
Si Si3 0.003564 0.043396 0.631542
Si Si4 0.873799 0.956230 0.742325
Si Si5 0.571317 0.030397 0.403317
Si Si6 0.098035 0.958216 0.918483
O O1 0.889860 0.750000 0.490767
O O2 0.804642 0.021629 0.525908
O O3 0.919107 0.029651 0.407788
O O4 0.944499 0.032082 0.558804
O O5 0.262582 0.750000 0.892495
O O6 0.315108 0.466528 0.820758
O O7 0.176675 0.464662 0.887363
O O8 0.015653 0.250000 0.653450
O O9 0.957281 0.956580 0.702219
O O10 0.850477 0.750000 0.752338
O O11 0.881605 0.034110 0.828644
O O12 0.570674 0.250000 0.404273
O O13 0.483973 0.966760 0.395850
O O14 0.601002 0.968813 0.487172
O O15 0.096656 0.750000 0.894322
#
# Coordination Sequence:
#
# PCOD9467728 Si02
#       6
#     8   8   8   8   8   8
#     4   8  14  25  40  59  87 122 152 177 214 264
#     4   8  14  27  47  66  86 117 150 178 215 265
#     4   9  15  23  39  63  88 115 150 185 215 256
#     4   9  17  30  46  64  91 122 148 179 224 273
#     4   9  18  32  49  68  89 115 148 186 225 263
#     4   9  17  31  51  69  85 113 154 189 217 260
#
# _framework density 21.417175
#
# number of rings (size 3 to 8) (size 9 to 14) (size 15 to 20)
#    0.000    3.333    0.000    1.500    0.000    1.333 
#    0.000    5.000    0.000    2.000    0.000    0.000 
#    0.000    0.000    0.000    0.000    0.000    0.000 
#
# Total GULP energy -267272.474810 kJ/mol
# GULP energy per Si atom -5568.176559 kJ/mol
# Density = 2.136843 g / cm^3
# Si number density = 21.417175 Si / 1000 Ang^3
#
#
#
# Elastic Constant Matrix: (Units=GPa)
#
#
# Indices 1 2 3 4 5 6 
#
# 1 73.9849 0.6612 24.3745 0.0000 0.0000 0.0000
# 2 0.6612 66.7718 -10.4504 0.0000 0.0000 0.0000
# 3 24.3745 -10.4504 51.7531 0.0000 0.0000 0.0000
# 4 0.0000 0.0000 0.0000 12.9301 0.0000 0.0000
# 5 0.0000 0.0000 0.0000 0.0000 8.4879 0.0000
# 6 0.0000 0.0000 0.0000 0.0000 0.0000 5.3701
#
#
#
# Elastic Compliance Matrix: (Units=1/GPa)
#
#
# Indices 1 2 3 4 5 6 
#
# 1 0.016123 -0.001392 -0.007875 0.000000 0.000000 0.000000
# 2 -0.001392 0.015585 0.003803 0.000000 0.000000 0.000000
# 3 -0.007875 0.003803 0.023799 0.000000 0.000000 0.000000
# 4 0.000000 0.000000 0.000000 0.077339 0.000000 0.000000
# 5 0.000000 0.000000 0.000000 0.000000 0.117814 0.000000
# 6 0.000000 0.000000 0.000000 0.000000 0.000000 0.186216
#
#
# Mechanical properties :
#
#
# Convention : Reuss Voigt Hill
#
# Bulk Modulus (GPa) = 22.43186 24.63118 23.53152
# Shear Modulus (GPa) = 10.80696 17.21925 14.01311
#
# Velocity S-wave (km/s) = 2.24875 2.83855 2.56069
# Velocity P-wave (km/s) = 4.15199 4.71898 4.44454
#
# Compressibility (1/GPa) = 0.04457945
#
# Stress axis : x y z
#
# Youngs Moduli (GPa) = 62.02296 64.16294 42.01822
#
# Poissons Ratio (x) = 0.08932 0.33088
# Poissons Ratio (y) = 0.08634 -0.15979
# Poissons Ratio (z) = 0.48841 -0.24400
#
# Static dielectric constant tensor:
#      x y z
#    x 1.807090 0.000000 0.000000 
#    y 0.000000 1.805180 0.000000 
#    z 0.000000 0.000000 1.772510 
# 
# From -- ./inp_files/24220.got.cif
#   From: 2010.05.17/outbox.cif.g08.bks.cpg/sg62_13_cif.got.tgz:24220.got - 2010.06.03 15:25:27.
