data_PCOD9467269
_publ_section_title
;
Structure prediction by ZEFSAII (Michael W. Deem and Ramdas Pophale) SiO2 
 PCOD9467269
Probable space group: P N M A
;
_chemical_formula_sum "Si O2"
_cell_formula_units_Z 48
_cell_length_a 14.700967
_cell_length_b 15.107263
_cell_length_c 9.036979
_cell_angle_alpha 90.000000
_cell_angle_beta 90.000000
_cell_angle_gamma 90.000000
_cell_volume 2007.035090
_symmetry_space_group_name_H-M "P N M A"
_symmetry_group_IT_number 62
_symmetry_cell_setting 'orthorhombic'
loop_
_space_group_symop_operation_xyz
x,y,z
1/2-x,-y,1/2+z
1/2+x,1/2-y,1/2-z
-x,1/2+y,-z
-x,-y,-z
1/2+x,y,1/2-z
1/2-x,1/2+y,1/2+z
x,1/2-y,z
loop_
_atom_site_type_symbol
_atom_site_label
_atom_site_fract_x
_atom_site_fract_y
_atom_site_fract_z
Si Si1 0.413736 0.345640 0.748182
Si Si2 0.634523 0.148406 0.948708
Si Si3 0.224802 0.958399 0.885955
Si Si4 0.554224 0.648515 0.605081
Si Si5 0.580965 0.042288 0.211604
Si Si6 0.704592 0.154033 0.636552
O O1 0.452279 0.250000 0.801416
O O2 0.429394 0.349949 0.571349
O O3 0.448507 0.440679 0.802673
O O4 0.307716 0.341549 0.798388
O O5 0.641183 0.250000 0.997380
O O6 0.729333 0.098286 0.984165
O O7 0.567205 0.097408 0.059527
O O8 0.632720 0.148284 0.771958
O O9 0.138921 0.905354 0.827043
O O10 0.309500 0.960882 0.773316
O O11 0.200176 0.057393 0.934425
O O12 0.550207 0.750000 0.655551
O O13 0.467084 0.593845 0.656635
O O14 0.688472 0.250000 0.560161
#
# Coordination Sequence:
#
# PCOD9467269 Si02
#       6
#     8   8   8   8   8   8
#     4   9  16  29  49  73  97 128 160 195 244 295
#     4   9  16  30  50  69  93 126 160 192 233 281
#     4   9  19  30  49  74  97 123 161 203 236 279
#     4  11  19  30  51  73  99 130 163 197 239 290
#     4   9  19  30  48  75  99 123 160 206 239 279
#     4   9  16  31  52  70  92 129 167 196 234 287
#
# _framework density 23.915875
#
# number of rings (size 3 to 8) (size 9 to 14) (size 15 to 20)
#    1.000    1.667    1.667    1.500    0.000    0.000 
#    0.000    1.667    0.000    8.000    0.000    0.000 
#    0.000    0.000    0.000    0.000    0.000    0.000 
#
# Total GULP energy -267612.896858 kJ/mol
# GULP energy per Si atom -5575.268685 kJ/mol
# Density = 2.386144 g / cm^3
# Si number density = 23.915875 Si / 1000 Ang^3
#
#
#
# Elastic Constant Matrix: (Units=GPa)
#
#
# Indices 1 2 3 4 5 6 
#
# 1 83.2127 50.8845 17.0856 0.0000 0.0000 0.0000
# 2 50.8845 260.9306 37.2994 0.0000 0.0000 0.0000
# 3 17.0856 37.2994 37.5136 0.0000 0.0000 0.0000
# 4 0.0000 0.0000 0.0000 2.6040 0.0000 0.0000
# 5 0.0000 0.0000 0.0000 0.0000 21.5708 0.0000
# 6 0.0000 0.0000 0.0000 0.0000 0.0000 28.2771
#
#
#
# Elastic Compliance Matrix: (Units=1/GPa)
#
#
# Indices 1 2 3 4 5 6 
#
# 1 0.014225 -0.002154 -0.004337 0.000000 0.000000 0.000000
# 2 -0.002154 0.004794 -0.003785 0.000000 0.000000 0.000000
# 3 -0.004337 -0.003785 0.032396 0.000000 0.000000 0.000000
# 4 0.000000 0.000000 0.000000 0.384030 0.000000 0.000000
# 5 0.000000 0.000000 0.000000 0.000000 0.046359 0.000000
# 6 0.000000 0.000000 0.000000 0.000000 0.000000 0.035364
#
#
# Mechanical properties :
#
#
# Convention : Reuss Voigt Hill
#
# Bulk Modulus (GPa) = 32.40233 65.79957 49.10095
# Shear Modulus (GPa) = 9.12397 28.91621 19.02009
#
# Velocity S-wave (km/s) = 1.95533 3.48096 2.82315
# Velocity P-wave (km/s) = 4.32153 6.61277 5.58589
#
# Compressibility (1/GPa) = 0.03086198
#
# Stress axis : x y z
#
# Youngs Moduli (GPa) = 70.29818 208.61204 30.86816
#
# Poissons Ratio (x) = 0.44937 0.13388
# Poissons Ratio (y) = 0.15143 0.11684
# Poissons Ratio (z) = 0.30489 0.78963
#
# Static dielectric constant tensor:
#      x y z
#    x 1.999690 0.000000 0.000000 
#    y 0.000000 1.914020 0.000000 
#    z 0.000000 0.000000 1.929540 
# 
# From -- ./inp_files/19749.got.cif
#   From: 2010.05.17/outbox.cif.g08.bks.cpg/sg62_10_cif.got.tgz:19749.got - 2010.06.03 15:25:27.
