data_PCOD9467974
_publ_section_title
;
Structure prediction by ZEFSAII (Michael W. Deem and Ramdas Pophale) SiO2 
 PCOD9467974
Probable space group: P N M A
;
_chemical_formula_sum "Si O2"
_cell_formula_units_Z 64
_cell_length_a 15.000000
_cell_length_b 9.000000
_cell_length_c 24.000000
_cell_angle_alpha 90.000000
_cell_angle_beta 90.000000
_cell_angle_gamma 90.000000
_cell_volume 3240.000000
_symmetry_space_group_name_H-M "P N M A"
_symmetry_group_IT_number 62
_symmetry_cell_setting 'orthorhombic'
loop_
_space_group_symop_operation_xyz
x,y,z
1/2-x,-y,1/2+z
1/2+x,1/2-y,1/2-z
-x,1/2+y,-z
-x,-y,-z
1/2+x,y,1/2-z
1/2-x,1/2+y,1/2+z
x,1/2-y,z
loop_
_atom_site_type_symbol
_atom_site_label
_atom_site_fract_x
_atom_site_fract_y
_atom_site_fract_z
Si Si1 0.133065 0.418245 0.127895
Si Si2 0.092343 0.574396 0.015655
Si Si3 0.254268 0.070446 0.428926
Si Si4 0.843719 0.083334 0.381176
Si Si5 0.387477 0.927382 0.753436
Si Si6 0.937864 0.575739 0.283111
Si Si7 0.195223 0.928460 0.802874
Si Si8 0.596788 0.573627 0.006497
O O1 0.101736 0.250000 0.114204
O O2 0.110908 0.528656 0.078789
O O3 0.239638 0.412811 0.132475
O O4 0.097868 0.460807 0.188329
O O5 0.085512 0.750000 0.009610
O O6 0.172523 0.524692 0.975040
O O7 0.000000 0.500000 0.000000
O O8 0.244414 0.250000 0.429943
O O9 0.290821 0.029730 0.367614
O O10 0.160234 0.998806 0.446730
O O11 0.880391 0.250000 0.370306
O O12 0.856669 0.051231 0.446231
O O13 0.889542 0.968780 0.340234
O O14 0.396621 0.750000 0.760813
O O15 0.287927 0.966602 0.772073
O O16 0.462918 0.011830 0.786598
O O17 0.938721 0.750000 0.275060
O O18 0.884527 0.501293 0.231689
O O19 0.183302 0.750000 0.800491
O O20 0.588509 0.750000 0.016266
O O21 0.500000 0.500000 0.000000
#
# Coordination Sequence:
#
# PCOD9467974 Si02
#       8
#     8   8   8   8   8   8   8   8
#     4  10  20  40  67  91 115 155 211 260 305 361
#     4  11  24  40  61  92 128 164 204 255 309 366
#     4  10  23  42  64  91 124 164 210 255 305 363
#     4  10  21  42  67  89 118 164 212 250 301 369
#     4  10  22  41  66  89 117 160 209 255 300 365
#     4  12  26  40  61  95 130 160 198 256 313 364
#     4  10  22  44  67  88 120 167 214 251 299 370
#     4  11  24  41  65  93 126 164 206 256 308 369
#
# _framework density 19.753086
#
# number of rings (size 3 to 8) (size 9 to 14) (size 15 to 20)
#    0.000    1.500    2.500    1.875    3.500    3.500 
#    0.000    0.000    0.000    0.000    0.000    0.000 
#    0.000    0.000    0.000    0.000    0.000    0.000 
#
# Total GULP energy -357581.579424 kJ/mol
# GULP energy per Si atom -5587.212179 kJ/mol
# Density = 1.970813 g / cm^3
# Si number density = 19.753086 Si / 1000 Ang^3
#
#
#
# Elastic Constant Matrix: (Units=GPa)
#
#
# Indices 1 2 3 4 5 6 
#
# 1 49.9237 19.7447 -7.6141 0.0000 0.0000 0.0000
# 2 19.7447 19.3757 23.5741 0.0000 0.0000 0.0000
# 3 -7.6141 23.5741 36.5563 0.0000 0.0000 0.0000
# 4 0.0000 0.0000 0.0000 31.7964 0.0000 0.0000
# 5 0.0000 0.0000 0.0000 0.0000 26.1931 0.0000
# 6 0.0000 0.0000 0.0000 0.0000 0.0000 23.1643
#
#
#
# Elastic Compliance Matrix: (Units=1/GPa)
#
#
# Indices 1 2 3 4 5 6 
#
# 1 -0.010276 0.060707 -0.041289 0.000000 0.000000 0.000000
# 2 0.060707 -0.119021 0.089398 0.000000 0.000000 0.000000
# 3 -0.041289 0.089398 -0.038895 0.000000 0.000000 0.000000
# 4 0.000000 0.000000 0.000000 0.031450 0.000000 0.000000
# 5 0.000000 0.000000 0.000000 0.000000 0.038178 0.000000
# 6 0.000000 0.000000 0.000000 0.000000 0.000000 0.043170
#
#
# Mechanical properties :
#
#
# Convention : Reuss Voigt Hill
#
# Bulk Modulus (GPa) = 20.22640 19.69613 19.96126
# Shear Modulus (GPa) = -19.48966 20.90750 0.70892
#
# Velocity S-wave (km/s) = -3.14453 3.25690 0.59972
# Velocity P-wave (km/s) = 1.70945 4.91284 3.25682
#
# Compressibility (1/GPa) = 0.04944034
#
# Stress axis : x y z
#
# Youngs Moduli (GPa) = -97.31319 -8.40187 -25.71043
#
# Poissons Ratio (x) = 0.51005 -1.06155
# Poissons Ratio (y) = 5.90760 2.29845
# Poissons Ratio (z) = -4.01793 0.75111
#
# Static dielectric constant tensor:
#      x y z
#    x 1.694330 0.000000 0.000000 
#    y 0.000000 1.674330 0.000000 
#    z 0.000000 0.000000 1.699770 
# 
# From -- ./inp_files/29832.got.cif
#   From: 2010.05.17/outbox.ucp.g08.bks.cvg/sg62_15_cif.got.tgz:29832.got - 2010.06.11 16:29:25.
