data_PCOD9467756
_publ_section_title
;
Structure prediction by ZEFSAII (Michael W. Deem and Ramdas Pophale) SiO2 
 PCOD9467756
Probable space group: P N M A
;
_chemical_formula_sum "Si O2"
_cell_formula_units_Z 64
_cell_length_a 12.000000
_cell_length_b 18.000000
_cell_length_c 18.000000
_cell_angle_alpha 90.000000
_cell_angle_beta 90.000000
_cell_angle_gamma 90.000000
_cell_volume 3888.000000
_symmetry_space_group_name_H-M "P N M A"
_symmetry_group_IT_number 62
_symmetry_cell_setting 'orthorhombic'
loop_
_space_group_symop_operation_xyz
x,y,z
1/2-x,-y,1/2+z
1/2+x,1/2-y,1/2-z
-x,1/2+y,-z
-x,-y,-z
1/2+x,y,1/2-z
1/2-x,1/2+y,1/2+z
x,1/2-y,z
loop_
_atom_site_type_symbol
_atom_site_label
_atom_site_fract_x
_atom_site_fract_y
_atom_site_fract_z
Si Si1 0.319152 0.015270 0.368102
Si Si2 0.994759 0.331391 0.971282
Si Si3 0.786735 0.909774 0.011219
Si Si4 0.294243 0.549959 0.726906
Si Si5 0.331407 0.163959 0.118550
Si Si6 0.533396 0.166467 0.221852
Si Si7 0.921948 0.020134 0.901266
Si Si8 0.386129 0.330566 0.371671
O O1 0.289796 0.009362 0.282075
O O2 0.303280 0.102134 0.385052
O O3 0.250418 0.960180 0.419937
O O4 0.449569 0.001406 0.385705
O O5 0.964881 0.250000 0.943138
O O6 0.925822 0.397516 0.934138
O O7 0.124816 0.348899 0.960888
O O8 0.971513 0.331746 0.059663
O O9 0.693501 0.871586 0.961306
O O10 0.862494 0.964976 0.959774
O O11 0.236289 0.612014 0.675479
O O12 0.383154 0.598432 0.772647
O O13 0.355631 0.491815 0.674245
O O14 0.293396 0.250000 0.120670
O O15 0.456608 0.162539 0.149193
O O16 0.582991 0.250000 0.226649
O O17 0.452676 0.159884 0.294613
O O18 0.331265 0.250000 0.369806
#
# Coordination Sequence:
#
# PCOD9467756 Si02
#       8
#     8   8   8   8   8   8   8   8
#     4  11  18  31  46  68  95 124 150 189 227 272
#     4  10  17  27  47  67  89 117 147 186 235 275
#     4  10  18  30  47  69  94 121 152 187 228 271
#     4  11  19  28  47  69  93 124 156 182 230 279
#     4  10  19  30  46  68  95 123 154 190 227 273
#     4  10  19  30  43  66 100 128 149 181 225 279
#     4  10  18  31  45  67  96 117 146 191 232 270
#     4  10  16  26  43  67  96 121 144 177 224 274
#
# _framework density 16.460905
#
# number of rings (size 3 to 8) (size 9 to 14) (size 15 to 20)
#    0.000    1.750    5.000    2.250    0.000    1.500 
#    0.000    0.625    0.000    3.750    0.000    0.000 
#    0.000    0.000    0.000    0.000    0.000    0.000 
#
# Total GULP energy -356463.730396 kJ/mol
# GULP energy per Si atom -5569.745787 kJ/mol
# Density = 1.642344 g / cm^3
# Si number density = 16.460905 Si / 1000 Ang^3
#
#
#
# Elastic Constant Matrix: (Units=GPa)
#
#
# Indices 1 2 3 4 5 6 
#
# 1 0.4760 4.5493 3.8576 0.0000 0.0000 0.0000
# 2 4.5493 72.8642 30.4681 0.0000 0.0000 0.0000
# 3 3.8576 30.4681 52.1526 0.0000 0.0000 0.0000
# 4 0.0000 0.0000 0.0000 24.2904 0.0000 0.0000
# 5 0.0000 0.0000 0.0000 0.0000 24.4319 0.0000
# 6 0.0000 0.0000 0.0000 0.0000 0.0000 9.1163
#
#
#
# Elastic Compliance Matrix: (Units=1/GPa)
#
#
# Indices 1 2 3 4 5 6 
#
# 1 10.534432 -0.439189 -0.522633 0.000000 0.000000 0.000000
# 2 -0.439189 0.036471 0.011179 0.000000 0.000000 0.000000
# 3 -0.522633 0.011179 0.051302 0.000000 0.000000 0.000000
# 4 0.000000 0.000000 0.000000 0.041169 0.000000 0.000000
# 5 0.000000 0.000000 0.000000 0.000000 0.040930 0.000000
# 6 0.000000 0.000000 0.000000 0.000000 0.000000 0.109693
#
#
# Mechanical properties :
#
#
# Convention : Reuss Voigt Hill
#
# Bulk Modulus (GPa) = 0.11467 22.58253 11.34860
# Shear Modulus (GPa) = 0.32006 17.34222 8.83114
#
# Velocity S-wave (km/s) = 0.44143 3.24935 2.31874
# Velocity P-wave (km/s) = 0.57413 5.27507 3.75207
#
# Compressibility (1/GPa) = 8.72091911
#
# Stress axis : x y z
#
# Youngs Moduli (GPa) = 0.09493 27.41929 19.49260
#
# Poissons Ratio (x) = 12.04225 10.18748
# Poissons Ratio (y) = 0.04169 -0.21792
# Poissons Ratio (z) = 0.04961 -0.30653
#
# Static dielectric constant tensor:
#      x y z
#    x 1.582920 0.000000 0.000000 
#    y 0.000000 1.583210 0.000000 
#    z 0.000000 0.000000 1.589040 
# 
# From -- ./inp_files/23327.got.cif
#   From: 2010.05.17/outbox.ucp.g08.bks.cvg/sg62_12_cif.got.tgz:23327.got - 2010.06.11 16:29:25.
