data_PCOD9467904
_publ_section_title
;
Structure prediction by ZEFSAII (Michael W. Deem and Ramdas Pophale) SiO2 
 PCOD9467904
Probable space group: P N M A
;
_chemical_formula_sum "Si O2"
_cell_formula_units_Z 56
_cell_length_a 21.000000
_cell_length_b 9.000000
_cell_length_c 15.000000
_cell_angle_alpha 90.000000
_cell_angle_beta 90.000000
_cell_angle_gamma 90.000000
_cell_volume 2835.000000
_symmetry_space_group_name_H-M "P N M A"
_symmetry_group_IT_number 62
_symmetry_cell_setting 'orthorhombic'
loop_
_space_group_symop_operation_xyz
x,y,z
1/2-x,-y,1/2+z
1/2+x,1/2-y,1/2-z
-x,1/2+y,-z
-x,-y,-z
1/2+x,y,1/2-z
1/2-x,1/2+y,1/2+z
x,1/2-y,z
loop_
_atom_site_type_symbol
_atom_site_label
_atom_site_fract_x
_atom_site_fract_y
_atom_site_fract_z
Si Si1 0.979453 0.075471 0.146035
Si Si2 0.903094 0.573522 0.293624
Si Si3 0.910103 0.922049 0.986299
Si Si4 0.681017 0.424952 0.074426
Si Si5 0.931539 0.072441 0.483279
Si Si6 0.736198 0.418991 0.435158
Si Si7 0.724121 0.575815 0.733165
O O1 0.973047 0.250000 0.166645
O O2 0.048539 0.047975 0.102397
O O3 0.961454 0.979685 0.231784
O O4 0.932523 0.028335 0.065396
O O5 0.903152 0.750000 0.307037
O O6 0.906496 0.489105 0.388036
O O7 0.839581 0.520985 0.241258
O O8 0.924269 0.750000 0.012343
O O9 0.836222 0.934201 0.965651
O O10 0.666936 0.250000 0.081836
O O11 0.726160 0.469223 0.156912
O O12 0.616701 0.516568 0.059797
O O13 0.722120 0.461478 0.986663
O O14 0.935020 0.250000 0.481018
O O15 0.000000 0.000000 0.500000
O O16 0.758259 0.250000 0.458250
O O17 0.742761 0.433686 0.329514
O O18 0.706899 0.750000 0.717635
#
# Coordination Sequence:
#
# PCOD9467904 Si02
#       7
#     8   8   8   8   8   8   8
#     4  10  20  35  57  85 121 164 205 253 313 372
#     4  12  24  40  63  92 125 165 215 264 315 382
#     4   9  19  35  56  86 121 160 207 257 310 368
#     4  11  23  40  63  95 129 165 212 264 319 381
#     4  12  26  46  69  93 126 167 212 265 325 386
#     4  10  20  37  60  85 118 160 201 251 309 367
#     4  10  22  39  62  91 124 164 208 258 318 380
#
# _framework density 19.753086
#
# number of rings (size 3 to 8) (size 9 to 14) (size 15 to 20)
#    0.000    1.429    1.429    4.286    0.000    5.714 
#    0.000    2.857    0.000    0.000    0.000    0.000 
#    0.000    0.000    0.000    0.000    0.000    0.000 
#
# Total GULP energy -313033.099638 kJ/mol
# GULP energy per Si atom -5589.876779 kJ/mol
# Density = 1.970813 g / cm^3
# Si number density = 19.753086 Si / 1000 Ang^3
#
#
#
# Elastic Constant Matrix: (Units=GPa)
#
#
# Indices 1 2 3 4 5 6 
#
# 1 87.5952 41.3360 19.4894 0.0000 0.0000 0.0000
# 2 41.3360 106.6185 20.7914 0.0000 0.0000 0.0000
# 3 19.4894 20.7914 50.5836 0.0000 0.0000 0.0000
# 4 0.0000 0.0000 0.0000 33.3451 0.0000 0.0000
# 5 0.0000 0.0000 0.0000 0.0000 23.8884 0.0000
# 6 0.0000 0.0000 0.0000 0.0000 0.0000 24.0870
#
#
#
# Elastic Compliance Matrix: (Units=1/GPa)
#
#
# Indices 1 2 3 4 5 6 
#
# 1 0.014543 -0.004942 -0.003572 0.000000 0.000000 0.000000
# 2 -0.004942 0.011876 -0.002977 0.000000 0.000000 0.000000
# 3 -0.003572 -0.002977 0.022369 0.000000 0.000000 0.000000
# 4 0.000000 0.000000 0.000000 0.029989 0.000000 0.000000
# 5 0.000000 0.000000 0.000000 0.000000 0.041861 0.000000
# 6 0.000000 0.000000 0.000000 0.000000 0.000000 0.041516
#
#
# Mechanical properties :
#
#
# Convention : Reuss Voigt Hill
#
# Bulk Modulus (GPa) = 38.75093 45.33675 42.04384
# Shear Modulus (GPa) = 25.80794 27.14281 26.47537
#
# Velocity S-wave (km/s) = 3.61851 3.71091 3.66500
# Velocity P-wave (km/s) = 6.09249 6.43139 6.26423
#
# Compressibility (1/GPa) = 0.02580583
#
# Stress axis : x y z
#
# Youngs Moduli (GPa) = 68.76218 84.20541 44.70413
#
# Poissons Ratio (x) = 0.41612 0.15969
# Poissons Ratio (y) = 0.33980 0.13310
# Poissons Ratio (z) = 0.24562 0.25070
#
# Static dielectric constant tensor:
#      x y z
#    x 1.705110 0.000000 0.000000 
#    y 0.000000 1.681480 0.000000 
#    z 0.000000 0.000000 1.682380 
# 
# From -- ./inp_files/20313.got.cif
#   From: 2010.05.17/outbox.ucp.g08.bks.cvg/sg62_11_cif.got.tgz:20313.got - 2010.06.11 16:29:25.
