data_PCOD9467957
_publ_section_title
;
Structure prediction by ZEFSAII (Michael W. Deem and Ramdas Pophale) SiO2 
 PCOD9467957
Probable space group: P N M A
;
_chemical_formula_sum "Si O2"
_cell_formula_units_Z 56
_cell_length_a 21.000000
_cell_length_b 9.000000
_cell_length_c 15.000000
_cell_angle_alpha 90.000000
_cell_angle_beta 90.000000
_cell_angle_gamma 90.000000
_cell_volume 2835.000000
_symmetry_space_group_name_H-M "P N M A"
_symmetry_group_IT_number 62
_symmetry_cell_setting 'orthorhombic'
loop_
_space_group_symop_operation_xyz
x,y,z
1/2-x,-y,1/2+z
1/2+x,1/2-y,1/2-z
-x,1/2+y,-z
-x,-y,-z
1/2+x,y,1/2-z
1/2-x,1/2+y,1/2+z
x,1/2-y,z
loop_
_atom_site_type_symbol
_atom_site_label
_atom_site_fract_x
_atom_site_fract_y
_atom_site_fract_z
Si Si1 0.009081 0.572631 0.274875
Si Si2 0.222297 0.921519 0.508174
Si Si3 0.136444 0.418883 0.957970
Si Si4 0.853635 0.069043 0.657597
Si Si5 0.245355 0.425608 0.203511
Si Si6 0.453449 0.074035 0.571876
Si Si7 0.111081 0.577632 0.776627
O O1 0.999703 0.750000 0.283144
O O2 0.072230 0.530009 0.329224
O O3 0.028514 0.538913 0.172547
O O4 0.941895 0.491072 0.289047
O O5 0.203098 0.750000 0.527490
O O6 0.287790 0.919045 0.452871
O O7 0.171128 0.984460 0.439247
O O8 0.241362 0.987321 0.603781
O O9 0.113993 0.250000 0.965930
O O10 0.108344 0.490762 0.869656
O O11 0.114476 0.508428 0.044352
O O12 0.848648 0.250000 0.661047
O O13 0.807588 0.005023 0.735294
O O14 0.227275 0.250000 0.196367
O O15 0.315820 0.434057 0.246193
O O16 0.453788 0.250000 0.561155
O O17 0.500000 0.000000 0.500000
O O18 0.096124 0.750000 0.790884
#
# Coordination Sequence:
#
# PCOD9467957 Si02
#       7
#     8   8   8   8   8   8   8
#     4  10  22  37  55  79 112 150 190 233 280 335
#     4   9  19  36  59  83 111 146 186 232 290 342
#     4  11  20  33  55  80 108 144 184 230 282 341
#     4  10  20  38  61  85 112 149 190 236 285 339
#     4  10  21  38  59  86 115 149 189 234 286 342
#     4  11  21  32  48  76 110 145 182 224 278 339
#     4  11  22  35  55  80 112 149 185 228 280 337
#
# _framework density 19.753086
#
# number of rings (size 3 to 8) (size 9 to 14) (size 15 to 20)
#    0.000    1.714    2.857    2.143    0.000    1.714 
#    0.000    2.143    0.000    0.000    0.000    0.000 
#    0.000    0.000    0.000    0.000    0.000    0.000 
#
# Total GULP energy -312302.884487 kJ/mol
# GULP energy per Si atom -5576.837223 kJ/mol
# Density = 1.970813 g / cm^3
# Si number density = 19.753086 Si / 1000 Ang^3
#
#
#
# Elastic Constant Matrix: (Units=GPa)
#
#
# Indices 1 2 3 4 5 6 
#
# 1 33.4020 -0.2724 -23.7107 0.0000 0.0000 0.0000
# 2 -0.2724 -7.4178 -3.1500 0.0000 0.0000 0.0000
# 3 -23.7107 -3.1500 37.3235 0.0000 0.0000 0.0000
# 4 0.0000 0.0000 0.0000 15.4860 0.0000 0.0000
# 5 0.0000 0.0000 0.0000 0.0000 22.7840 0.0000
# 6 0.0000 0.0000 0.0000 0.0000 0.0000 23.3242
#
#
#
# Elastic Compliance Matrix: (Units=1/GPa)
#
#
# Indices 1 2 3 4 5 6 
#
# 1 0.052598 -0.015563 0.032101 0.000000 0.000000 0.000000
# 2 -0.015563 -0.125542 -0.020482 0.000000 0.000000 0.000000
# 3 0.032101 -0.020482 0.045457 0.000000 0.000000 0.000000
# 4 0.000000 0.000000 0.000000 0.064575 0.000000 0.000000
# 5 0.000000 0.000000 0.000000 0.000000 0.043891 0.000000
# 6 0.000000 0.000000 0.000000 0.000000 0.000000 0.042874
#
#
# Mechanical properties :
#
#
# Convention : Reuss Voigt Hill
#
# Bulk Modulus (GPa) = -28.26720 1.00463 -13.63129
# Shear Modulus (GPa) = 41.68396 18.34821 30.01609
#
# Velocity S-wave (km/s) = 4.59873 3.05106 3.90239
# Velocity P-wave (km/s) = 3.72242 3.59467 3.65910
#
# Compressibility (1/GPa) = -0.03537669
#
# Stress axis : x y z
#
# Youngs Moduli (GPa) = 19.01197 -7.96546 21.99883
#
# Poissons Ratio (x) = -0.12397 -0.70618
# Poissons Ratio (y) = 0.29589 0.45059
# Poissons Ratio (z) = -0.61030 -0.16315
#
# Static dielectric constant tensor:
#      x y z
#    x 1.772300 0.000000 0.000000 
#    y 0.000000 1.685870 0.000000 
#    z 0.000000 0.000000 1.718340 
# 
# From -- ./inp_files/20264.got.cif
#   From: 2010.05.17/outbox.ucp.g08.bks.cvg/sg62_11_cif.got.tgz:20264.got - 2010.06.11 16:29:25.
