data_PCOD9467883
_publ_section_title
;
Structure prediction by ZEFSAII (Michael W. Deem and Ramdas Pophale) SiO2 
 PCOD9467883
Probable space group: P N M A
;
_chemical_formula_sum "Si O2"
_cell_formula_units_Z 48
_cell_length_a 15.000000
_cell_length_b 9.000000
_cell_length_c 18.000000
_cell_angle_alpha 90.000000
_cell_angle_beta 90.000000
_cell_angle_gamma 90.000000
_cell_volume 2430.000000
_symmetry_space_group_name_H-M "P N M A"
_symmetry_group_IT_number 62
_symmetry_cell_setting 'orthorhombic'
loop_
_space_group_symop_operation_xyz
x,y,z
1/2-x,-y,1/2+z
1/2+x,1/2-y,1/2-z
-x,1/2+y,-z
-x,-y,-z
1/2+x,y,1/2-z
1/2-x,1/2+y,1/2+z
x,1/2-y,z
loop_
_atom_site_type_symbol
_atom_site_label
_atom_site_fract_x
_atom_site_fract_y
_atom_site_fract_z
Si Si1 0.543601 0.921771 0.609598
Si Si2 0.359415 0.429197 0.847443
Si Si3 0.062400 0.429395 0.634340
Si Si4 0.314601 0.427828 0.018052
Si Si5 0.820186 0.571012 0.223514
Si Si6 0.628409 0.921796 0.443976
O O1 0.534026 0.750000 0.631483
O O2 0.585930 0.925172 0.526844
O O3 0.613140 0.004649 0.662335
O O4 0.446874 0.999847 0.606279
O O5 0.363265 0.250000 0.840136
O O6 0.462490 0.479256 0.842251
O O7 0.281570 0.481052 0.791206
O O8 0.324268 0.463234 0.930548
O O9 0.060203 0.250000 0.624276
O O10 0.100146 0.506363 0.560775
O O11 0.134929 0.464871 0.697887
O O12 0.311729 0.250000 0.025599
O O13 0.223672 0.498002 0.050532
O O14 0.820647 0.750000 0.216073
O O15 0.640478 0.750000 0.421455
#
# Coordination Sequence:
#
# PCOD9467883 Si02
#       6
#     8   8   8   8   8   8
#     4  10  20  34  55  85 118 150 192 241 289 346
#     4   9  19  37  59  83 112 151 196 242 292 347
#     4  10  22  38  58  85 117 154 201 245 291 357
#     4  11  21  36  59  84 117 153 194 250 300 347
#     4  10  20  37  60  83 116 159 198 242 296 354
#     4  10  20  34  56  85 116 151 192 237 288 351
#
# _framework density 19.753086
#
# number of rings (size 3 to 8) (size 9 to 14) (size 15 to 20)
#    0.000    2.000    1.667    2.000    0.000    3.333 
#    0.000    5.000    0.000    0.000    0.000    0.000 
#    0.000    0.000    0.000    0.000    0.000    0.000 
#
# Total GULP energy -268046.455201 kJ/mol
# GULP energy per Si atom -5584.301150 kJ/mol
# Density = 1.970813 g / cm^3
# Si number density = 19.753086 Si / 1000 Ang^3
#
#
#
# Elastic Constant Matrix: (Units=GPa)
#
#
# Indices 1 2 3 4 5 6 
#
# 1 167.3297 30.2073 27.3779 0.0000 0.0000 0.0000
# 2 30.2073 28.9668 19.9716 0.0000 0.0000 0.0000
# 3 27.3779 19.9716 28.3118 0.0000 0.0000 0.0000
# 4 0.0000 0.0000 0.0000 20.1435 0.0000 0.0000
# 5 0.0000 0.0000 0.0000 0.0000 23.4986 0.0000
# 6 0.0000 0.0000 0.0000 0.0000 0.0000 32.5065
#
#
#
# Elastic Compliance Matrix: (Units=1/GPa)
#
#
# Indices 1 2 3 4 5 6 
#
# 1 0.007526 -0.005511 -0.003390 0.000000 0.000000 0.000000
# 2 -0.005511 0.071246 -0.044930 0.000000 0.000000 0.000000
# 3 -0.003390 -0.044930 0.070293 0.000000 0.000000 0.000000
# 4 0.000000 0.000000 0.000000 0.049644 0.000000 0.000000
# 5 0.000000 0.000000 0.000000 0.000000 0.042556 0.000000
# 6 0.000000 0.000000 0.000000 0.000000 0.000000 0.030763
#
#
# Mechanical properties :
#
#
# Convention : Reuss Voigt Hill
#
# Bulk Modulus (GPa) = 24.15183 42.19132 33.17158
# Shear Modulus (GPa) = 12.70680 25.03316 18.86998
#
# Velocity S-wave (km/s) = 2.53905 3.56378 3.09413
# Velocity P-wave (km/s) = 4.56608 6.19191 5.44008
#
# Compressibility (1/GPa) = 0.04140474
#
# Stress axis : x y z
#
# Youngs Moduli (GPa) = 132.87772 14.03582 14.22609
#
# Poissons Ratio (x) = 0.07735 0.04823
# Poissons Ratio (y) = 0.73223 0.63917
# Poissons Ratio (z) = 0.45049 0.63062
#
# Static dielectric constant tensor:
#      x y z
#    x 1.687410 0.000000 0.000000 
#    y 0.000000 1.663920 0.000000 
#    z 0.000000 0.000000 1.711260 
# 
# From -- ./inp_files/23703.got.cif
#   From: 2010.05.17/outbox.ucp.g08.bks.cvg/sg62_12_cif.got.tgz:23703.got - 2010.06.11 16:29:25.
