data_PCOD9467249
_publ_section_title
;
Structure prediction by ZEFSAII (Michael W. Deem and Ramdas Pophale) SiO2 
 PCOD9467249
Probable space group: P N M A
;
_chemical_formula_sum "Si O2"
_cell_formula_units_Z 40
_cell_length_a 10.006619
_cell_length_b 30.645640
_cell_length_c 4.757465
_cell_angle_alpha 90.000000
_cell_angle_beta 90.000000
_cell_angle_gamma 90.000000
_cell_volume 1458.920618
_symmetry_space_group_name_H-M "P N M A"
_symmetry_group_IT_number 62
_symmetry_cell_setting 'orthorhombic'
loop_
_space_group_symop_operation_xyz
x,y,z
1/2-x,-y,1/2+z
1/2+x,1/2-y,1/2-z
-x,1/2+y,-z
-x,-y,-z
1/2+x,y,1/2-z
1/2-x,1/2+y,1/2+z
x,1/2-y,z
loop_
_atom_site_type_symbol
_atom_site_label
_atom_site_fract_x
_atom_site_fract_y
_atom_site_fract_z
Si Si1 0.814894 0.250000 0.902832
Si Si2 0.428358 0.900361 0.201389
Si Si3 0.261619 0.528542 0.509505
Si Si4 0.755382 0.674932 0.036870
Si Si5 0.571760 0.250000 0.260873
Si Si6 0.096768 0.894650 0.797131
O O1 0.654944 0.250000 0.969664
O O2 0.914588 0.250000 0.168516
O O3 0.837264 0.293409 0.722493
O O4 0.368181 0.944661 0.325518
O O5 0.334354 0.860453 0.281779
O O6 0.456982 0.898235 0.872346
O O7 0.566014 0.894640 0.374734
O O8 0.315038 0.497732 0.761209
O O9 0.174087 0.563216 0.683031
O O10 0.669925 0.648504 0.809226
O O11 0.864597 0.706551 0.896825
#
# Coordination Sequence:
#
# PCOD9467249 Si02
#       6
#     4   8   8   8   4   8
#     4  11  26  48  71 114 144 200 248 314 374 445
#     4  11  25  43  71 100 140 189 240 301 369 439
#     4  11  24  43  66 101 141 180 241 300 365 443
#     4  10  26  45  69 101 148 187 251 305 372 446
#     4  11  26  44  77 104 150 194 252 312 374 445
#     4  11  25  43  70 101 139 190 240 300 371 437
#
# _framework density 27.417531
#
# number of rings (size 3 to 8) (size 9 to 14) (size 15 to 20)
#    0.000    1.200    0.000    3.600    8.400   11.200 
#    0.000    0.000    0.000    0.000    0.000    0.000 
#    0.000    0.000    0.000    0.000    0.000    0.000 
#
# Total GULP energy -224528.179472 kJ/mol
# GULP energy per Si atom -5613.204487 kJ/mol
# Density = 2.735513 g / cm^3
# Si number density = 27.417531 Si / 1000 Ang^3
#
#
#
# Elastic Constant Matrix: (Units=GPa)
#
#
# Indices 1 2 3 4 5 6 
#
# 1 72.7579 44.9277 16.1878 0.0000 0.0000 0.0000
# 2 44.9277 143.5281 39.1267 0.0000 0.0000 0.0000
# 3 16.1878 39.1267 122.3377 0.0000 0.0000 0.0000
# 4 0.0000 0.0000 0.0000 16.0349 0.0000 0.0000
# 5 0.0000 0.0000 0.0000 0.0000 58.9000 0.0000
# 6 0.0000 0.0000 0.0000 0.0000 0.0000 25.6621
#
#
#
# Elastic Compliance Matrix: (Units=1/GPa)
#
#
# Indices 1 2 3 4 5 6 
#
# 1 0.017078 -0.005182 -0.000603 0.000000 0.000000 0.000000
# 2 -0.005182 0.009205 -0.002258 0.000000 0.000000 0.000000
# 3 -0.000603 -0.002258 0.008976 0.000000 0.000000 0.000000
# 4 0.000000 0.000000 0.000000 0.062364 0.000000 0.000000
# 5 0.000000 0.000000 0.000000 0.000000 0.016978 0.000000
# 6 0.000000 0.000000 0.000000 0.000000 0.000000 0.038968
#
#
# Mechanical properties :
#
#
# Convention : Reuss Voigt Hill
#
# Bulk Modulus (GPa) = 52.15401 59.90090 56.02745
# Shear Modulus (GPa) = 28.40187 36.01149 32.20668
#
# Velocity S-wave (km/s) = 3.22203 3.62808 3.43107
# Velocity P-wave (km/s) = 5.73633 6.28058 6.01462
#
# Compressibility (1/GPa) = 0.01917398
#
# Stress axis : x y z
#
# Youngs Moduli (GPa) = 58.55540 108.63839 111.40703
#
# Poissons Ratio (x) = 0.56291 0.06713
# Poissons Ratio (y) = 0.30341 0.25159
# Poissons Ratio (z) = 0.03528 0.24534
#
# Static dielectric constant tensor:
#      x y z
#    x 2.170850 0.000000 0.000000 
#    y 0.000000 2.099680 0.000000 
#    z 0.000000 0.000000 2.067690 
# 
# From -- ./inp_files/649.got.cif
#   From: 2010.05.17/outbox.cif.g08.bks.cpg/sg62_1_cif.got.tgz:649.got - 2010.06.03 15:25:27.
