data_PCOD9467517
_publ_section_title
;
Structure prediction by ZEFSAII (Michael W. Deem and Ramdas Pophale) SiO2 
 PCOD9467517
Probable space group: P N M A
;
_chemical_formula_sum "Si O2"
_cell_formula_units_Z 40
_cell_length_a 11.837010
_cell_length_b 23.114202
_cell_length_c 6.428055
_cell_angle_alpha 90.000000
_cell_angle_beta 90.000000
_cell_angle_gamma 90.000000
_cell_volume 1758.735391
_symmetry_space_group_name_H-M "P N M A"
_symmetry_group_IT_number 62
_symmetry_cell_setting 'orthorhombic'
loop_
_space_group_symop_operation_xyz
x,y,z
1/2-x,-y,1/2+z
1/2+x,1/2-y,1/2-z
-x,1/2+y,-z
-x,-y,-z
1/2+x,y,1/2-z
1/2-x,1/2+y,1/2+z
x,1/2-y,z
loop_
_atom_site_type_symbol
_atom_site_label
_atom_site_fract_x
_atom_site_fract_y
_atom_site_fract_z
Si Si1 0.658270 0.560228 0.708518
Si Si2 0.213496 0.363961 0.974076
Si Si3 0.201230 0.750000 0.280690
Si Si4 0.021747 0.359034 0.297257
Si Si5 0.636383 0.440500 0.893675
Si Si6 0.538183 0.250000 0.903690
O O1 0.579308 0.615315 0.657345
O O2 0.605991 0.498371 0.768529
O O3 0.747972 0.550693 0.524256
O O4 0.718557 0.584353 0.916481
O O5 0.285203 0.308948 0.909193
O O6 0.155553 0.390183 0.772307
O O7 0.123465 0.345038 0.144283
O O8 0.063924 0.750000 0.226541
O O9 0.325760 0.750000 0.155963
O O10 0.049809 0.415045 0.439811
O O11 0.013824 0.305387 0.450924
#
# Coordination Sequence:
#
# PCOD9467517 Si02
#       6
#     8   8   4   8   8   4
#     4  11  23  42  68 100 141 190 234 300 366 441
#     4  11  24  45  68 102 141 187 239 295 368 435
#     4  12  25  48  76 105 148 193 240 305 362 435
#     4  11  25  43  69 101 139 191 240 303 365 438
#     4  11  23  42  68 101 142 185 243 294 368 439
#     4  12  25  48  76 109 146 189 250 299 368 439
#
# _framework density 22.743615999999999
#
# number of rings (size 3 to 8) (size 9 to 14) (size 15 to 20)
#    0.000    0.800    6.000    1.200    0.000    4.000 
#    0.000    1.000    0.000    0.000    0.000    0.000 
#    0.000    0.000    0.000    0.000    0.000    0.000 
#
# Total GULP energy -223027.006552 kJ/mol
# GULP energy per Si atom -5575.675164 kJ/mol
# Density = 2.269185 g / cm^3
# Si number density = 22.743616 Si / 1000 Ang^3
#
#
#
# Elastic Constant Matrix: (Units=GPa)
#
#
# Indices 1 2 3 4 5 6 
#
# 1 69.3976 30.5348 6.7675 0.0000 0.0000 0.0000
# 2 30.5348 107.2549 23.1593 0.0000 0.0000 0.0000
# 3 6.7675 23.1593 44.1145 0.0000 0.0000 0.0000
# 4 0.0000 0.0000 0.0000 112.6214 0.0000 0.0000
# 5 0.0000 0.0000 0.0000 0.0000-1107.3535 0.0000
# 6 0.0000 0.0000 0.0000 0.0000 0.0000 13.5858
#
#
#
# Elastic Compliance Matrix: (Units=1/GPa)
#
#
# Indices 1 2 3 4 5 6 
#
# 1 0.016473 -0.004674 -0.000073 0.000000 0.000000 0.000000
# 2 -0.004674 0.011842 -0.005500 0.000000 0.000000 0.000000
# 3 -0.000073 -0.005500 0.025567 0.000000 0.000000 0.000000
# 4 0.000000 0.000000 0.000000 0.008879 0.000000 0.000000
# 5 0.000000 0.000000 0.000000 0.000000 -0.000903 0.000000
# 6 0.000000 0.000000 0.000000 0.000000 0.000000 0.073606
#
#
# Mechanical properties :
#
#
# Convention : Reuss Voigt Hill
#
# Bulk Modulus (GPa) = 29.95102 37.96557 33.95830
# Shear Modulus (GPa) = 29.92433 -185.54224 -77.80895
#
# Velocity S-wave (km/s) = 3.63123 -9.04196 -5.85539
# Velocity P-wave (km/s) = 5.54785 9.60626 5.54534
#
# Compressibility (1/GPa) = 0.03338784
#
# Stress axis : x y z
#
# Youngs Moduli (GPa) = 60.70370 84.44670 39.11325
#
# Poissons Ratio (x) = 0.39471 0.00287
# Poissons Ratio (y) = 0.28373 0.21511
# Poissons Ratio (z) = 0.00445 0.46443
#
# Static dielectric constant tensor:
#      x y z
#    x 1.982890 0.000000 0.000000 
#    y 0.000000 1.811280 0.000000 
#    z 0.000000 0.000000 1.808240 
# 
# From -- ./inp_files/634.got.cif
#   From: 2010.05.17/outbox.cif.g08.bks.cpg/sg62_1_cif.got.tgz:634.got - 2010.06.03 15:25:27.
