data_PCOD9467021
_publ_section_title
;
Structure prediction by ZEFSAII (Michael W. Deem and Ramdas Pophale) SiO2 
 PCOD9467021
Probable space group: P N M A
;
_chemical_formula_sum "Si O2"
_cell_formula_units_Z 32
_cell_length_a 11.831519
_cell_length_b 9.259542
_cell_length_c 13.376940
_cell_angle_alpha 90.000000
_cell_angle_beta 90.000000
_cell_angle_gamma 90.000000
_cell_volume 1465.503266
_symmetry_space_group_name_H-M "P N M A"
_symmetry_group_IT_number 62
_symmetry_cell_setting 'orthorhombic'
loop_
_space_group_symop_operation_xyz
x,y,z
1/2-x,-y,1/2+z
1/2+x,1/2-y,1/2-z
-x,1/2+y,-z
-x,-y,-z
1/2+x,y,1/2-z
1/2-x,1/2+y,1/2+z
x,1/2-y,z
loop_
_atom_site_type_symbol
_atom_site_label
_atom_site_fract_x
_atom_site_fract_y
_atom_site_fract_z
Si Si1 0.165422 0.476336 0.406630
Si Si2 0.430311 0.902088 0.121111
Si Si3 0.235650 0.410635 0.188758
Si Si4 0.618628 0.925522 0.479394
O O1 0.109936 0.402395 0.505035
O O2 0.194151 0.402647 0.302013
O O3 0.065037 0.585386 0.379373
O O4 0.289689 0.505459 0.449640
O O5 0.394493 0.750000 0.167404
O O6 0.364239 0.032233 0.174792
O O7 0.226136 0.250000 0.144083
O O8 0.160798 0.528156 0.130357
O O9 0.620194 0.750000 0.493234
O O10 0.500000 0.000000 0.500000
#
# Coordination Sequence:
#
# PCOD9467021 Si02
#       4
#     8   8   8   8
#     4  10  23  42  66  94 131 171 213 267 325 390
#     4  10  23  43  67  96 129 169 221 276 324 383
#     4  11  23  40  66  97 129 173 217 264 327 394
#     4  11  25  45  66  96 134 173 217 269 321 383
#
# _framework density 21.835502000000002
#
# number of rings (size 3 to 8) (size 9 to 14) (size 15 to 20)
#    0.000    1.500    0.000    5.250    3.500   14.000 
#    0.000    0.000    0.000    0.000    0.000    0.000 
#    0.000    0.000    0.000    0.000    0.000    0.000 
#
# Total GULP energy -178149.150250 kJ/mol
# GULP energy per Si atom -5567.160945 kJ/mol
# Density = 2.178580 g / cm^3
# Si number density = 21.835502 Si / 1000 Ang^3
#
#
#
# Elastic Constant Matrix: (Units=GPa)
#
#
# Indices 1 2 3 4 5 6 
#
# 1 178.6810 48.2025 30.5383 0.0000 0.0000 0.0000
# 2 48.2025 101.2670 18.6237 0.0000 0.0000 0.0000
# 3 30.5383 18.6237 82.8625 0.0000 0.0000 0.0000
# 4 0.0000 0.0000 0.0000 4.9004 0.0000 0.0000
# 5 0.0000 0.0000 0.0000 0.0000 13.5444 0.0000
# 6 0.0000 0.0000 0.0000 0.0000 0.0000 6.9260
#
#
#
# Elastic Compliance Matrix: (Units=1/GPa)
#
#
# Indices 1 2 3 4 5 6 
#
# 1 0.006675 -0.002842 -0.001821 0.000000 0.000000 0.000000
# 2 -0.002842 0.011511 -0.001540 0.000000 0.000000 0.000000
# 3 -0.001821 -0.001540 0.013085 0.000000 0.000000 0.000000
# 4 0.000000 0.000000 0.000000 0.204064 0.000000 0.000000
# 5 0.000000 0.000000 0.000000 0.000000 0.073831 0.000000
# 6 0.000000 0.000000 0.000000 0.000000 0.000000 0.144383
#
#
# Mechanical properties :
#
#
# Convention : Reuss Voigt Hill
#
# Bulk Modulus (GPa) = 53.00811 61.94885 57.47848
# Shear Modulus (GPa) = 10.58777 22.77057 16.67917
#
# Velocity S-wave (km/s) = 2.20441 3.23278 2.76679
# Velocity P-wave (km/s) = 5.55050 6.50898 6.04875
#
# Compressibility (1/GPa) = 0.01886504
#
# Stress axis : x y z
#
# Youngs Moduli (GPa) = 149.82358 86.87434 76.42121
#
# Poissons Ratio (x) = 0.24691 0.13917
# Poissons Ratio (y) = 0.42582 0.11766
# Poissons Ratio (z) = 0.27284 0.13376
#
# Static dielectric constant tensor:
#      x y z
#    x 1.837290 0.000000 0.000000 
#    y 0.000000 1.794840 0.000000 
#    z 0.000000 0.000000 1.822470 
# 
# From -- ./inp_files/14531.got.cif
#   From: 2010.05.17/outbox.cif.g08.bks.cpg/sg62_8_cif.got.tgz:14531.got - 2010.06.03 15:25:27.
