data_PCOD9467923
_publ_section_title
;
Structure prediction by ZEFSAII (Michael W. Deem and Ramdas Pophale) SiO2 
 PCOD9467923
Probable space group: P N M A
;
_chemical_formula_sum "Si O2"
_cell_formula_units_Z 48
_cell_length_a 24.000000
_cell_length_b 9.000000
_cell_length_c 12.000000
_cell_angle_alpha 90.000000
_cell_angle_beta 90.000000
_cell_angle_gamma 90.000000
_cell_volume 2592.000000
_symmetry_space_group_name_H-M "P N M A"
_symmetry_group_IT_number 62
_symmetry_cell_setting 'orthorhombic'
loop_
_space_group_symop_operation_xyz
x,y,z
1/2-x,-y,1/2+z
1/2+x,1/2-y,1/2-z
-x,1/2+y,-z
-x,-y,-z
1/2+x,y,1/2-z
1/2-x,1/2+y,1/2+z
x,1/2-y,z
loop_
_atom_site_type_symbol
_atom_site_label
_atom_site_fract_x
_atom_site_fract_y
_atom_site_fract_z
Si Si1 0.623430 0.571507 0.495723
Si Si2 0.078708 0.573296 0.765883
Si Si3 0.652810 0.428157 0.913572
Si Si4 0.274696 0.070486 0.655253
Si Si5 0.050574 0.072302 0.189922
Si Si6 0.141619 0.571164 0.345997
O O1 0.617388 0.750000 0.479852
O O2 0.615389 0.539529 0.624916
O O3 0.682970 0.526390 0.444030
O O4 0.575586 0.491106 0.424753
O O5 0.082772 0.750000 0.742857
O O6 0.102702 0.481628 0.663908
O O7 0.014524 0.540310 0.794181
O O8 0.653262 0.250000 0.922738
O O9 0.711856 0.480572 0.861359
O O10 0.647305 0.501622 0.033581
O O11 0.273078 0.250000 0.654721
O O12 0.305701 0.026378 0.768731
O O13 0.058263 0.250000 0.194130
O O14 0.087328 0.993308 0.284603
O O15 0.138803 0.750000 0.349567
#
# Coordination Sequence:
#
# PCOD9467923 Si02
#       6
#     8   8   8   8   8   8
#     4   9  18  36  60  84 114 151 186 227 283 336
#     4  10  22  37  56  84 117 153 188 228 281 338
#     4  11  23  37  56  85 115 147 190 237 277 327
#     4   8  18  36  57  81 111 144 182 228 278 334
#     4  10  20  36  58  86 115 145 190 236 278 331
#     4  10  21  40  61  80 110 151 189 226 283 342
#
# _framework density 18.518519000000001
#
# number of rings (size 3 to 8) (size 9 to 14) (size 15 to 20)
#    0.000    2.333    0.000    3.000    2.333    2.667 
#    0.000    7.500    0.000    0.000    0.000    0.000 
#    0.000    0.000    0.000    0.000    0.000    0.000 
#
# Total GULP energy -267890.045732 kJ/mol
# GULP energy per Si atom -5581.042619 kJ/mol
# Density = 1.847637 g / cm^3
# Si number density = 18.518519 Si / 1000 Ang^3
#
#
#
# Elastic Constant Matrix: (Units=GPa)
#
#
# Indices 1 2 3 4 5 6 
#
# 1 11.0399 1.9088 -0.5289 0.0000 0.0000 0.0000
# 2 1.9088 27.6626 23.2412 0.0000 0.0000 0.0000
# 3 -0.5289 23.2412 79.6790 0.0000 0.0000 0.0000
# 4 0.0000 0.0000 0.0000 22.9544 0.0000 0.0000
# 5 0.0000 0.0000 0.0000 0.0000 5.9626 0.0000
# 6 0.0000 0.0000 0.0000 0.0000 0.0000 22.0009
#
#
#
# Elastic Compliance Matrix: (Units=1/GPa)
#
#
# Indices 1 2 3 4 5 6 
#
# 1 0.092314 -0.009120 0.003273 0.000000 0.000000 0.000000
# 2 -0.009120 0.048786 -0.014291 0.000000 0.000000 0.000000
# 3 0.003273 -0.014291 0.016740 0.000000 0.000000 0.000000
# 4 0.000000 0.000000 0.000000 0.043565 0.000000 0.000000
# 5 0.000000 0.000000 0.000000 0.000000 0.167713 0.000000
# 6 0.000000 0.000000 0.000000 0.000000 0.000000 0.045453
#
#
# Mechanical properties :
#
#
# Convention : Reuss Voigt Hill
#
# Bulk Modulus (GPa) = 8.50592 18.62488 13.56540
# Shear Modulus (GPa) = 10.12076 16.43426 13.27751
#
# Velocity S-wave (km/s) = 2.34032 2.98224 2.68056
# Velocity P-wave (km/s) = 3.45050 4.68376 4.11361
#
# Compressibility (1/GPa) = 0.11756524
#
# Stress axis : x y z
#
# Youngs Moduli (GPa) = 10.83257 20.49785 59.73558
#
# Poissons Ratio (x) = 0.18694 -0.19551
# Poissons Ratio (y) = 0.09879 0.85366
# Poissons Ratio (z) = -0.03545 0.29293
#
# Static dielectric constant tensor:
#      x y z
#    x 1.626060 0.000000 0.000000 
#    y 0.000000 1.609450 0.000000 
#    z 0.000000 0.000000 1.630600 
# 
# From -- ./inp_files/15136.got.cif
#   From: 2010.05.17/outbox.ucp.g08.bks.cvg/sg62_8_cif.got.tgz:15136.got - 2010.06.11 16:29:25.
