data_PCOD9467745
_publ_section_title
;
Structure prediction by ZEFSAII (Michael W. Deem and Ramdas Pophale) SiO2 
 PCOD9467745
Probable space group: P N M A
;
_chemical_formula_sum "Si O2"
_cell_formula_units_Z 64
_cell_length_a 15.338539
_cell_length_b 17.194175
_cell_length_c 8.999461
_cell_angle_alpha 90.000000
_cell_angle_beta 90.000000
_cell_angle_gamma 90.000000
_cell_volume 2373.459562
_symmetry_space_group_name_H-M "P N M A"
_symmetry_group_IT_number 62
_symmetry_cell_setting 'orthorhombic'
loop_
_space_group_symop_operation_xyz
x,y,z
1/2-x,-y,1/2+z
1/2+x,1/2-y,1/2-z
-x,1/2+y,-z
-x,-y,-z
1/2+x,y,1/2-z
1/2-x,1/2+y,1/2+z
x,1/2-y,z
loop_
_atom_site_type_symbol
_atom_site_label
_atom_site_fract_x
_atom_site_fract_y
_atom_site_fract_z
Si Si1 0.303186 0.962960 0.970287
Si Si2 0.448544 0.131459 0.151054
Si Si3 0.072368 0.659176 0.176816
Si Si4 0.703415 0.668358 0.658965
Si Si5 0.143268 0.167006 0.089940
Si Si6 0.057836 0.484581 0.203344
Si Si7 0.706977 0.630425 0.079273
Si Si8 0.415640 0.665366 0.087428
O O1 0.223582 0.909142 0.926630
O O2 0.367421 0.985413 0.832429
O O3 0.354751 0.909889 0.086008
O O4 0.269977 0.047848 0.001235
O O5 0.395852 0.165997 0.287850
O O6 0.472553 0.043291 0.201663
O O7 0.376482 0.149953 0.024662
O O8 0.537244 0.161681 0.076621
O O9 0.070494 0.750000 0.117514
O O10 0.057963 0.567964 0.121513
O O11 0.165256 0.648343 0.261576
O O12 0.992022 0.659661 0.293424
O O13 0.718379 0.750000 0.581176
O O14 0.778223 0.666746 0.787348
O O15 0.096257 0.250000 0.105736
O O16 0.083095 0.092308 0.109728
O O17 0.199137 0.168608 0.939049
O O18 0.374758 0.750000 0.101403
#
# Coordination Sequence:
#
# PCOD9467745 Si02
#       8
#     8   8   8   8   8   8   8   8
#     4   9  16  25  39  59  86 114 140 174 214 251
#     4   9  16  25  39  60  86 112 139 175 214 253
#     4   9  16  26  42  64  88 114 142 171 207 253
#     4   9  16  25  38  59  86 115 143 172 210 253
#     4   9  17  28  42  61  85 112 142 175 212 253
#     4   9  17  27  41  63  86 109 138 174 216 255
#     4   9  16  27  42  61  85 113 142 172 211 253
#     4   9  15  23  38  61  88 116 143 172 210 254
#
# _framework density 26.964856999999999
#
# number of rings (size 3 to 8) (size 9 to 14) (size 15 to 20)
#    0.000    3.000    0.000    1.875    0.000    9.500 
#    0.000    0.000    0.000    2.250    0.000   15.750 
#    0.000    0.000    0.000    0.000    0.000    0.000 
#
# Total GULP energy -356412.800868 kJ/mol
# GULP energy per Si atom -5568.950014 kJ/mol
# Density = 2.690348 g / cm^3
# Si number density = 26.964857 Si / 1000 Ang^3
#
#
#
# Elastic Constant Matrix: (Units=GPa)
#
#
# Indices 1 2 3 4 5 6 
#
# 1 60.5743 31.2747 33.0670 0.0000 0.0000 0.0000
# 2 31.2747 245.5520 16.6708 0.0000 0.0000 0.0000
# 3 33.0670 16.6708 32.4655 0.0000 0.0000 0.0000
# 4 0.0000 0.0000 0.0000 18.8332 0.0000 0.0000
# 5 0.0000 0.0000 0.0000 0.0000 31.1391 0.0000
# 6 0.0000 0.0000 0.0000 0.0000 0.0000 22.0923
#
#
#
# Elastic Compliance Matrix: (Units=1/GPa)
#
#
# Indices 1 2 3 4 5 6 
#
# 1 0.038414 -0.002317 -0.037935 0.000000 0.000000 0.000000
# 2 -0.002317 0.004359 0.000122 0.000000 0.000000 0.000000
# 3 -0.037935 0.000122 0.069378 0.000000 0.000000 0.000000
# 4 0.000000 0.000000 0.000000 0.053098 0.000000 0.000000
# 5 0.000000 0.000000 0.000000 0.000000 0.032114 0.000000
# 6 0.000000 0.000000 0.000000 0.000000 0.000000 0.045265
#
#
# Mechanical properties :
#
#
# Convention : Reuss Voigt Hill
#
# Bulk Modulus (GPa) = 31.35909 55.62408 43.49158
# Shear Modulus (GPa) = 14.99168 31.58490 23.28829
#
# Velocity S-wave (km/s) = 2.36046 3.42619 2.94199
# Velocity P-wave (km/s) = 4.36851 6.02701 5.26349
#
# Compressibility (1/GPa) = 0.03188868
#
# Stress axis : x y z
#
# Youngs Moduli (GPa) = 26.03248 229.39366 14.41384
#
# Poissons Ratio (x) = 0.53152 0.54680
# Poissons Ratio (y) = 0.06032 -0.00175
# Poissons Ratio (z) = 0.98755 -0.02787
#
# Static dielectric constant tensor:
#      x y z
#    x 2.083640 0.000000 0.000000 
#    y 0.000000 2.086780 0.000000 
#    z 0.000000 0.000000 2.246820 
# 
# From -- ./inp_files/19241.got.cif
#   From: 2010.05.17/outbox.cif.g08.bks.cpg/sg62_10_cif.got.tgz:19241.got - 2010.06.03 15:25:27.
