data_PCOD9467720
_publ_section_title
;
Structure prediction by ZEFSAII (Michael W. Deem and Ramdas Pophale) SiO2 
 PCOD9467720
Probable space group: P N M A
;
_chemical_formula_sum "Si O2"
_cell_formula_units_Z 48
_cell_length_a 7.365091
_cell_length_b 8.967815
_cell_length_c 33.446984
_cell_angle_alpha 90.000000
_cell_angle_beta 90.000000
_cell_angle_gamma 90.000000
_cell_volume 2209.132272
_symmetry_space_group_name_H-M "P N M A"
_symmetry_group_IT_number 62
_symmetry_cell_setting 'orthorhombic'
loop_
_space_group_symop_operation_xyz
x,y,z
1/2-x,-y,1/2+z
1/2+x,1/2-y,1/2-z
-x,1/2+y,-z
-x,-y,-z
1/2+x,y,1/2-z
1/2-x,1/2+y,1/2+z
x,1/2-y,z
loop_
_atom_site_type_symbol
_atom_site_label
_atom_site_fract_x
_atom_site_fract_y
_atom_site_fract_z
Si Si1 0.281802 0.079090 0.458050
Si Si2 0.201097 0.429763 0.877802
Si Si3 0.225524 0.077541 0.038520
Si Si4 0.209304 0.920838 0.205783
Si Si5 0.298363 0.929066 0.625622
Si Si6 0.274780 0.579960 0.292713
O O1 0.230695 0.250000 0.451878
O O2 0.503588 0.072267 0.459978
O O3 0.220273 0.983976 0.419855
O O4 0.216773 0.019238 0.500763
O O5 0.189033 0.250000 0.876978
O O6 0.291026 0.479473 0.835644
O O7 0.000516 0.501944 0.876927
O O8 0.274944 0.250000 0.031954
O O9 0.289069 0.030155 0.082805
O O10 0.278668 0.750000 0.204972
O O11 0.243269 0.991465 0.249439
O O12 0.991719 0.913218 0.202966
O O13 0.279309 0.007271 0.166963
O O14 0.309107 0.750000 0.627114
O O15 0.204324 0.750000 0.288846
#
# Coordination Sequence:
#
# PCOD9467720 Si02
#       6
#     8   8   8   8   8   8
#     4   9  15  21  31  49  72  98 129 162 194 232
#     4   9  15  24  37  52  73 103 133 161 196 236
#     4   8  14  22  31  45  69  99 128 156 189 233
#     4   9  16  28  43  59  79 105 135 165 197 233
#     4   9  16  25  36  53  75 100 130 163 198 235
#     4   8  15  26  42  60  78 103 135 166 194 230
#
# _framework density 21.727988
#
# number of rings (size 3 to 8) (size 9 to 14) (size 15 to 20)
#    0.000    3.333    0.000    3.500    0.000    4.667 
#    0.000    4.167    0.000    0.000    0.000    0.000 
#    0.000    1.333    0.000    2.667    0.000    7.167 
#
# Total GULP energy -267369.869497 kJ/mol
# GULP energy per Si atom -5570.205615 kJ/mol
# Density = 2.167853 g / cm^3
# Si number density = 21.727988 Si / 1000 Ang^3
#
#
#
# Elastic Constant Matrix: (Units=GPa)
#
#
# Indices 1 2 3 4 5 6 
#
# 1 68.7914 3.8350 2.6918 0.0000 0.0000 0.0000
# 2 3.8350 64.1459 83.2349 0.0000 0.0000 0.0000
# 3 2.6918 83.2349 273.6585 0.0000 0.0000 0.0000
# 4 0.0000 0.0000 0.0000 38.3368 0.0000 0.0000
# 5 0.0000 0.0000 0.0000 0.0000 6.2971 0.0000
# 6 0.0000 0.0000 0.0000 0.0000 0.0000 -8.2705
#
#
#
# Elastic Compliance Matrix: (Units=1/GPa)
#
#
# Indices 1 2 3 4 5 6 
#
# 1 0.014592 -0.001133 0.000201 0.000000 0.000000 0.000000
# 2 -0.001133 0.025842 -0.007849 0.000000 0.000000 0.000000
# 3 0.000201 -0.007849 0.006039 0.000000 0.000000 0.000000
# 4 0.000000 0.000000 0.000000 0.026085 0.000000 0.000000
# 5 0.000000 0.000000 0.000000 0.000000 0.158804 0.000000
# 6 0.000000 0.000000 0.000000 0.000000 0.000000 -0.120912
#
#
# Mechanical properties :
#
#
# Convention : Reuss Voigt Hill
#
# Bulk Modulus (GPa) = 34.58878 65.12434 49.85656
# Shear Modulus (GPa) = 36.32428 28.39495 32.35962
#
# Velocity S-wave (km/s) = 4.09317 3.61894 3.86334
# Velocity P-wave (km/s) = 6.18807 6.89202 6.54951
#
# Compressibility (1/GPa) = 0.02891111
#
# Stress axis : x y z
#
# Youngs Moduli (GPa) = 68.53066 38.69718 165.57778
#
# Poissons Ratio (x) = 0.04386 -0.03332
# Poissons Ratio (y) = 0.07768 1.29958
# Poissons Ratio (z) = -0.01379 0.30372
#
# Static dielectric constant tensor:
#      x y z
#    x 2.089480 0.000000 0.000000 
#    y 0.000000 1.733980 0.000000 
#    z 0.000000 0.000000 1.877200 
# 
# From -- ./inp_files/30999.got.cif
#   From: 2010.05.17/outbox.cif.g08.bks.cpg/sg62_16_cif.got.tgz:30999.got - 2010.06.03 15:25:27.
