data_PCOD9467683
_publ_section_title
;
Structure prediction by ZEFSAII (Michael W. Deem and Ramdas Pophale) SiO2 
 PCOD9467683
Probable space group: P N M A
;
_chemical_formula_sum "Si O2"
_cell_formula_units_Z 28
_cell_length_a 10.061656
_cell_length_b 5.510394
_cell_length_c 17.865525
_cell_angle_alpha 90.000000
_cell_angle_beta 90.000000
_cell_angle_gamma 90.000000
_cell_volume 990.530609
_symmetry_space_group_name_H-M "P N M A"
_symmetry_group_IT_number 62
_symmetry_cell_setting 'orthorhombic'
loop_
_space_group_symop_operation_xyz
x,y,z
1/2-x,-y,1/2+z
1/2+x,1/2-y,1/2-z
-x,1/2+y,-z
-x,-y,-z
1/2+x,y,1/2-z
1/2-x,1/2+y,1/2+z
x,1/2-y,z
loop_
_atom_site_type_symbol
_atom_site_label
_atom_site_fract_x
_atom_site_fract_y
_atom_site_fract_z
Si Si1 0.120388 0.250000 0.707017
Si Si2 0.808547 0.250000 0.935567
Si Si3 0.718895 0.250000 0.641184
Si Si4 0.780389 0.250000 0.105795
Si Si5 0.951735 0.750000 0.726527
Si Si6 0.166088 0.250000 0.107970
Si Si7 0.917942 0.250000 0.501284
O O1 0.837319 0.250000 0.580491
O O2 0.037100 0.499716 0.718666
O O3 0.237469 0.250000 0.769805
O O4 0.753951 0.250000 0.018736
O O5 0.885815 0.498789 0.924723
O O6 0.694390 0.250000 0.872090
O O7 0.647838 0.502756 0.626281
O O8 0.649544 0.250000 0.156935
O O9 0.864115 0.750000 0.803358
O O10 0.315445 0.250000 0.069566
O O11 0.000000 0.500000 0.500000
#
# Coordination Sequence:
#
# PCOD9467683 Si02
#       7
#     4   4   4   4   4   4   4
#     4  12  28  48  75 112 155 208 252 296 376 467
#     4  12  24  46  77 105 152 198 252 321 381 413
#     4  12  25  50  73 113 157 193 246 320 382 442
#     4  12  24  46  77 105 152 198 252 321 381 413
#     4  12  28  48  75 112 155 208 252 296 376 467
#     4  12  25  50  73 113 157 193 246 320 382 442
#     4  12  26  44  76 114 142 182 248 318 382 430
#
# _framework density 28.267678
#
# number of rings (size 3 to 8) (size 9 to 14) (size 15 to 20)
#    0.000    0.000    2.857    6.857    0.000    8.000 
#    0.000    1.429    0.000    0.000    0.000    0.000 
#    0.000    0.000    0.000    0.000    0.000    0.000 
#
# Total GULP energy -157013.490275 kJ/mol
# GULP energy per Si atom -5607.624653 kJ/mol
# Density = 2.820334 g / cm^3
# Si number density = 28.267678 Si / 1000 Ang^3
#
#
#
# Elastic Constant Matrix: (Units=GPa)
#
#
# Indices 1 2 3 4 5 6 
#
# 1 110.0296 23.0282 53.1743 0.0000 0.0000 0.0000
# 2 23.0282 295.6386 38.5836 0.0000 0.0000 0.0000
# 3 53.1743 38.5836 279.3949 0.0000 0.0000 0.0000
# 4 0.0000 0.0000 0.0000 51.6419 0.0000 0.0000
# 5 0.0000 0.0000 0.0000 0.0000 60.3048 0.0000
# 6 0.0000 0.0000 0.0000 0.0000 0.0000 -126.7859
#
#
#
# Elastic Compliance Matrix: (Units=1/GPa)
#
#
# Indices 1 2 3 4 5 6 
#
# 1 0.010095 -0.000545 -0.001846 0.000000 0.000000 0.000000
# 2 -0.000545 0.003474 -0.000376 0.000000 0.000000 0.000000
# 3 -0.001846 -0.000376 0.003982 0.000000 0.000000 0.000000
# 4 0.000000 0.000000 0.000000 0.019364 0.000000 0.000000
# 5 0.000000 0.000000 0.000000 0.000000 0.016582 0.000000
# 6 0.000000 0.000000 0.000000 0.000000 0.000000 -0.007887
#
#
# Mechanical properties :
#
#
# Convention : Reuss Voigt Hill
#
# Bulk Modulus (GPa) = 83.21803 101.62614 92.42209
# Shear Modulus (GPa) = 90.66116 35.05063 62.85590
#
# Velocity S-wave (km/s) = 5.66939 3.52512 4.72062
# Velocity P-wave (km/s) = 8.50642 7.25245 7.90434
#
# Compressibility (1/GPa) = 0.01201663
#
# Stress axis : x y z
#
# Youngs Moduli (GPa) = 99.06200 287.84785 251.10534
#
# Poissons Ratio (x) = 0.15699 0.46351
# Poissons Ratio (y) = 0.05403 0.09440
# Poissons Ratio (z) = 0.18286 0.10822
#
# Static dielectric constant tensor:
#      x y z
#    x 2.203890 0.000000 0.000000 
#    y 0.000000 2.270360 0.000000 
#    z 0.000000 0.000000 2.097680 
# 
# From -- ./inp_files/22684.got.cif
#   From: 2010.05.17/outbox.cif.g08.bks.cpg/sg62_12_cif.got.tgz:22684.got - 2010.06.03 15:25:27.
