data_PCOD9467577
_publ_section_title
;
Structure prediction by ZEFSAII (Michael W. Deem and Ramdas Pophale) SiO2 
 PCOD9467577
Probable space group: P N M A
;
_chemical_formula_sum "Si O2"
_cell_formula_units_Z 48
_cell_length_a 18.821482
_cell_length_b 8.591615
_cell_length_c 14.979042
_cell_angle_alpha 90.000000
_cell_angle_beta 90.000000
_cell_angle_gamma 90.000000
_cell_volume 2422.214852
_symmetry_space_group_name_H-M "P N M A"
_symmetry_group_IT_number 62
_symmetry_cell_setting 'orthorhombic'
loop_
_space_group_symop_operation_xyz
x,y,z
1/2-x,-y,1/2+z
1/2+x,1/2-y,1/2-z
-x,1/2+y,-z
-x,-y,-z
1/2+x,y,1/2-z
1/2-x,1/2+y,1/2+z
x,1/2-y,z
loop_
_atom_site_type_symbol
_atom_site_label
_atom_site_fract_x
_atom_site_fract_y
_atom_site_fract_z
Si Si1 0.172874 0.064851 0.657082
Si Si2 0.778097 0.934209 0.990863
Si Si3 0.520675 0.936288 0.902755
Si Si4 0.590060 0.936056 0.241873
Si Si5 0.931891 0.064087 0.948469
Si Si6 0.759091 0.565057 0.682619
O O1 0.167568 0.250000 0.666791
O O2 0.232636 0.022665 0.584123
O O3 0.098568 0.995959 0.623918
O O4 0.197751 0.989956 0.750023
O O5 0.770981 0.750000 0.976560
O O6 0.859871 0.985045 0.983215
O O7 0.749343 0.981584 0.087770
O O8 0.519230 0.750000 0.903917
O O9 0.464907 0.000080 0.830500
O O10 0.500000 0.000000 0.000000
O O11 0.598025 0.750000 0.231799
O O12 0.563817 0.967474 0.342394
O O13 0.666096 0.015239 0.225816
O O14 0.926503 0.250000 0.960664
O O15 0.000000 0.000000 0.000000
O O16 0.756690 0.750000 0.670494
#
# Coordination Sequence:
#
# PCOD9467577 Si02
#       6
#     8   8   8   8   8   8
#     4  12  25  45  69  99 136 174 222 277 332 395
#     4  12  25  44  70  99 135 176 222 275 333 396
#     4  12  26  45  69  99 135 177 224 276 334 399
#     4  11  24  45  70  99 137 179 222 274 336 396
#     4  11  25  44  68  97 136 178 224 276 332 399
#     4  12  25  43  69 100 133 175 223 273 333 397
#
# _framework density 19.816573000000002
#
# number of rings (size 3 to 8) (size 9 to 14) (size 15 to 20)
#    0.000    0.333    1.667    8.000    2.333    2.000 
#    0.000    0.000    0.000    0.000    0.000    0.000 
#    0.000    0.000    0.000    0.000    0.000    0.000 
#
# Total GULP energy -268918.921744 kJ/mol
# GULP energy per Si atom -5602.477536 kJ/mol
# Density = 1.977147 g / cm^3
# Si number density = 19.816573 Si / 1000 Ang^3
#
#
#
# Elastic Constant Matrix: (Units=GPa)
#
#
# Indices 1 2 3 4 5 6 
#
# 1 61.5387 1.3327 -2.9737 0.0000 0.0000 0.0000
# 2 1.3327 80.6798 2.3800 0.0000 0.0000 0.0000
# 3 -2.9737 2.3800 61.0230 0.0000 0.0000 0.0000
# 4 0.0000 0.0000 0.0000 38.9677 0.0000 0.0000
# 5 0.0000 0.0000 0.0000 0.0000 42.9199 0.0000
# 6 0.0000 0.0000 0.0000 0.0000 0.0000 42.7100
#
#
#
# Elastic Compliance Matrix: (Units=1/GPa)
#
#
# Indices 1 2 3 4 5 6 
#
# 1 0.016295 -0.000293 0.000806 0.000000 0.000000 0.000000
# 2 -0.000293 0.012414 -0.000498 0.000000 0.000000 0.000000
# 3 0.000806 -0.000498 0.016446 0.000000 0.000000 0.000000
# 4 0.000000 0.000000 0.000000 0.025662 0.000000 0.000000
# 5 0.000000 0.000000 0.000000 0.000000 0.023299 0.000000
# 6 0.000000 0.000000 0.000000 0.000000 0.000000 0.023414
#
#
# Mechanical properties :
#
#
# Convention : Reuss Voigt Hill
#
# Bulk Modulus (GPa) = 22.13193 22.74662 22.43927
# Shear Modulus (GPa) = 37.71776 38.41969 38.06873
#
# Velocity S-wave (km/s) = 4.36747 4.40792 4.38774
# Velocity P-wave (km/s) = 6.05191 6.11636 6.08422
#
# Compressibility (1/GPa) = 0.04518360
#
# Stress axis : x y z
#
# Youngs Moduli (GPa) = 61.36777 80.55283 60.80524
#
# Poissons Ratio (x) = 0.02360 -0.04898
# Poissons Ratio (y) = 0.01798 0.03031
# Poissons Ratio (z) = -0.04943 0.04015
#
# Static dielectric constant tensor:
#      x y z
#    x 1.663970 0.000000 0.000000 
#    y 0.000000 1.658090 0.000000 
#    z 0.000000 0.000000 1.669930 
# 
# From -- ./inp_files/19632.got.cif
#   From: 2010.05.17/outbox.cif.g08.bks.cpg/sg62_10_cif.got.tgz:19632.got - 2010.06.03 15:25:27.
