data_PCOD9467188
_publ_section_title
;
Structure prediction by ZEFSAII (Michael W. Deem and Ramdas Pophale) SiO2 
 PCOD9467188
Probable space group: P N M A
;
_chemical_formula_sum "Si O2"
_cell_formula_units_Z 28
_cell_length_a 5.012051
_cell_length_b 7.265916
_cell_length_c 29.252361
_cell_angle_alpha 90.000000
_cell_angle_beta 90.000000
_cell_angle_gamma 90.000000
_cell_volume 1065.287371
_symmetry_space_group_name_H-M "P N M A"
_symmetry_group_IT_number 62
_symmetry_cell_setting 'orthorhombic'
loop_
_space_group_symop_operation_xyz
x,y,z
1/2-x,-y,1/2+z
1/2+x,1/2-y,1/2-z
-x,1/2+y,-z
-x,-y,-z
1/2+x,y,1/2-z
1/2-x,1/2+y,1/2+z
x,1/2-y,z
loop_
_atom_site_type_symbol
_atom_site_label
_atom_site_fract_x
_atom_site_fract_y
_atom_site_fract_z
Si Si1 0.198774 0.963367 0.041669
Si Si2 0.164798 0.973458 0.223420
Si Si3 0.479827 0.750000 0.914239
Si Si4 0.857012 0.970014 0.131968
O O1 0.261937 0.750000 0.045381
O O2 0.031634 0.020320 0.087237
O O3 0.452907 0.091478 0.046659
O O4 0.000000 0.000000 0.000000
O O5 0.961853 0.030749 0.263732
O O6 0.172706 0.750000 0.222476
O O7 0.025960 0.025628 0.176175
O O8 0.404562 0.587955 0.876844
O O9 0.807073 0.750000 0.133315
#
# Coordination Sequence:
#
# PCOD9467188 Si02
#       4
#     8   8   4   8
#     4  11  24  45  66  98 139 184 233 292 357 427
#     4   9  19  38  69 101 135 180 235 292 358 429
#     4  12  24  42  70  94 138 174 234 286 352 418
#     4  10  24  44  67  99 133 181 232 288 354 427
#
# _framework density 26.283987
#
# number of rings (size 3 to 8) (size 9 to 14) (size 15 to 20)
#    0.000    1.714    1.429    1.714    4.000    1.143 
#    0.000    1.429    0.000    0.000    0.000    0.000 
#    0.000    0.000    0.000    0.000    0.000    0.000 
#
# Total GULP energy -155945.706906 kJ/mol
# GULP energy per Si atom -5569.489532 kJ/mol
# Density = 2.622416 g / cm^3
# Si number density = 26.283987 Si / 1000 Ang^3
#
#
#
# Elastic Constant Matrix: (Units=GPa)
#
#
# Indices 1 2 3 4 5 6 
#
# 1 82.8760 -1.2837 4.1445 0.0000 0.0000 0.0000
# 2 -1.2837 129.2322 2.1621 0.0000 0.0000 0.0000
# 3 4.1445 2.1621 122.3696 0.0000 0.0000 0.0000
# 4 0.0000 0.0000 0.0000 12.1265 0.0000 0.0000
# 5 0.0000 0.0000 0.0000 0.0000 47.0760 0.0000
# 6 0.0000 0.0000 0.0000 0.0000 0.0000 -182.3652
#
#
#
# Elastic Compliance Matrix: (Units=1/GPa)
#
#
# Indices 1 2 3 4 5 6 
#
# 1 0.012089 0.000127 -0.000412 0.000000 0.000000 0.000000
# 2 0.000127 0.007742 -0.000141 0.000000 0.000000 0.000000
# 3 -0.000412 -0.000141 0.008188 0.000000 0.000000 0.000000
# 4 0.000000 0.000000 0.000000 0.082464 0.000000 0.000000
# 5 0.000000 0.000000 0.000000 0.000000 0.021242 0.000000
# 6 0.000000 0.000000 0.000000 0.000000 0.000000 -0.005484
#
#
# Mechanical properties :
#
#
# Convention : Reuss Voigt Hill
#
# Bulk Modulus (GPa) = 36.80904 38.28039 37.54472
# Shear Modulus (GPa) = 36.72446 -2.66887 17.02779
#
# Velocity S-wave (km/s) = 3.74199 -1.00876 2.54803
# Velocity P-wave (km/s) = 5.71881 3.63854 4.79290
#
# Compressibility (1/GPa) = 0.02716724
#
# Stress axis : x y z
#
# Youngs Moduli (GPa) = 82.72133 129.17172 122.12399
#
# Poissons Ratio (x) = -0.01640 0.05028
# Poissons Ratio (y) = -0.01050 0.01723
# Poissons Ratio (z) = 0.03405 0.01822
#
# Static dielectric constant tensor:
#      x y z
#    x 2.253790 0.000000 0.000000 
#    y 0.000000 2.018330 0.000000 
#    z 0.000000 0.000000 2.097140 
# 
# From -- ./inp_files/30181.got.cif
#   From: 2010.05.17/outbox.cif.g08.bks.cpg/sg62_16_cif.got.tgz:30181.got - 2010.06.03 15:25:27.
