data_PCOD9467918
_publ_section_title
;
Structure prediction by ZEFSAII (Michael W. Deem and Ramdas Pophale) SiO2 
 PCOD9467918
Probable space group: P N M A
;
_chemical_formula_sum "Si O2"
_cell_formula_units_Z 64
_cell_length_a 18.000000
_cell_length_b 12.000000
_cell_length_c 15.000000
_cell_angle_alpha 90.000000
_cell_angle_beta 90.000000
_cell_angle_gamma 90.000000
_cell_volume 3240.000000
_symmetry_space_group_name_H-M "P N M A"
_symmetry_group_IT_number 62
_symmetry_cell_setting 'orthorhombic'
loop_
_space_group_symop_operation_xyz
x,y,z
1/2-x,-y,1/2+z
1/2+x,1/2-y,1/2-z
-x,1/2+y,-z
-x,-y,-z
1/2+x,y,1/2-z
1/2-x,1/2+y,1/2+z
x,1/2-y,z
loop_
_atom_site_type_symbol
_atom_site_label
_atom_site_fract_x
_atom_site_fract_y
_atom_site_fract_z
Si Si1 0.281325 0.374742 0.750430
Si Si2 0.576959 0.508237 0.191247
Si Si3 0.986727 0.122392 0.157596
Si Si4 0.315549 0.118047 0.545381
Si Si5 0.636118 0.046774 0.681085
Si Si6 0.897046 0.621461 0.988266
Si Si7 0.338170 0.881329 0.959872
Si Si8 0.568785 0.381888 0.870227
O O1 0.259778 0.250000 0.777117
O O2 0.366390 0.398759 0.774050
O O3 0.278367 0.382674 0.643672
O O4 0.223910 0.453601 0.801857
O O5 0.540391 0.444759 0.275038
O O6 0.626161 0.431430 0.127955
O O7 0.510369 0.558830 0.133909
O O8 0.985468 0.250000 0.185244
O O9 0.022308 0.115819 0.058882
O O10 0.905358 0.069857 0.164497
O O11 0.345230 0.250000 0.535818
O O12 0.249328 0.103127 0.474780
O O13 0.360759 0.999743 0.540072
O O14 0.610366 0.116952 0.594999
O O15 0.605391 0.095528 0.773996
O O16 0.869695 0.750000 0.961769
O O17 0.350458 0.750000 0.957655
O O18 0.381174 0.924669 0.048134
O O19 0.559353 0.250000 0.879803
#
# Coordination Sequence:
#
# PCOD9467918 Si02
#       8
#     8   8   8   8   8   8   8   8
#     4  11  21  38  61  88 119 154 201 257 304 355
#     4  11  21  36  60  87 117 155 195 243 309 365
#     4  10  23  41  58  85 126 158 200 252 304 369
#     4  10  21  39  61  89 124 163 206 253 298 358
#     4  11  22  38  63  86 117 161 205 251 304 358
#     4  11  22  40  63  91 126 163 202 253 310 363
#     4  10  20  36  59  82 116 159 201 244 298 360
#     4  10  20  36  57  86 115 149 198 252 300 354
#
# _framework density 19.753086
#
# number of rings (size 3 to 8) (size 9 to 14) (size 15 to 20)
#    0.000    1.500    2.500    3.375    0.000    0.500 
#    0.000    3.750    0.000    0.750    0.000    0.000 
#    0.000    0.000    0.000    0.000    0.000    0.000 
#
# Total GULP energy -356624.886311 kJ/mol
# GULP energy per Si atom -5572.263849 kJ/mol
# Density = 1.970813 g / cm^3
# Si number density = 19.753086 Si / 1000 Ang^3
#
#
#
# Elastic Constant Matrix: (Units=GPa)
#
#
# Indices 1 2 3 4 5 6 
#
# 1 67.0785 28.7829 3.0370 0.0000 0.0000 0.0000
# 2 28.7829 70.6316 15.5974 0.0000 0.0000 0.0000
# 3 3.0370 15.5974 62.5682 0.0000 0.0000 0.0000
# 4 0.0000 0.0000 0.0000 21.0541 0.0000 0.0000
# 5 0.0000 0.0000 0.0000 0.0000 20.5249 0.0000
# 6 0.0000 0.0000 0.0000 0.0000 0.0000 30.7695
#
#
#
# Elastic Compliance Matrix: (Units=1/GPa)
#
#
# Indices 1 2 3 4 5 6 
#
# 1 0.018128 -0.007612 0.001018 0.000000 0.000000 0.000000
# 2 -0.007612 0.018179 -0.004162 0.000000 0.000000 0.000000
# 3 0.001018 -0.004162 0.016971 0.000000 0.000000 0.000000
# 4 0.000000 0.000000 0.000000 0.047497 0.000000 0.000000
# 5 0.000000 0.000000 0.000000 0.000000 0.048721 0.000000
# 6 0.000000 0.000000 0.000000 0.000000 0.000000 0.032500
#
#
# Mechanical properties :
#
#
# Convention : Reuss Voigt Hill
#
# Bulk Modulus (GPa) = 31.48164 32.79032 32.13598
# Shear Modulus (GPa) = 23.35389 24.66045 24.00717
#
# Velocity S-wave (km/s) = 3.44218 3.53715 3.48999
# Velocity P-wave (km/s) = 5.63651 5.77218 5.70475
#
# Compressibility (1/GPa) = 0.03176455
#
# Stress axis : x y z
#
# Youngs Moduli (GPa) = 55.16298 55.00825 58.92482
#
# Poissons Ratio (x) = 0.41873 -0.05997
# Poissons Ratio (y) = 0.41990 0.24526
# Poissons Ratio (z) = -0.05614 0.22896
#
# Static dielectric constant tensor:
#      x y z
#    x 1.718270 0.000000 0.000000 
#    y 0.000000 1.711750 0.000000 
#    z 0.000000 0.000000 1.700460 
# 
# From -- ./inp_files/19895.got.cif
#   From: 2010.05.17/outbox.ucp.g08.bks.cvg/sg62_10_cif.got.tgz:19895.got - 2010.06.11 16:29:25.
