data_PCOD9467791
_publ_section_title
;
Structure prediction by ZEFSAII (Michael W. Deem and Ramdas Pophale) SiO2 
 PCOD9467791
Probable space group: P N M A
;
_chemical_formula_sum "Si O2"
_cell_formula_units_Z 48
_cell_length_a 9.000000
_cell_length_b 9.000000
_cell_length_c 30.000000
_cell_angle_alpha 90.000000
_cell_angle_beta 90.000000
_cell_angle_gamma 90.000000
_cell_volume 2430.000000
_symmetry_space_group_name_H-M "P N M A"
_symmetry_group_IT_number 62
_symmetry_cell_setting 'orthorhombic'
loop_
_space_group_symop_operation_xyz
x,y,z
1/2-x,-y,1/2+z
1/2+x,1/2-y,1/2-z
-x,1/2+y,-z
-x,-y,-z
1/2+x,y,1/2-z
1/2-x,1/2+y,1/2+z
x,1/2-y,z
loop_
_atom_site_type_symbol
_atom_site_label
_atom_site_fract_x
_atom_site_fract_y
_atom_site_fract_z
Si Si1 0.389806 0.070625 0.605119
Si Si2 0.293380 0.930360 0.356926
Si Si3 0.281860 0.425533 0.031251
Si Si4 0.213011 0.069029 0.690002
Si Si5 0.892282 0.068761 0.725806
Si Si6 0.913228 0.072652 0.562139
O O1 0.391343 0.250000 0.602476
O O2 0.547060 0.019805 0.625364
O O3 0.262050 0.025197 0.640539
O O4 0.350011 0.005627 0.557226
O O5 0.301212 0.750000 0.355879
O O6 0.237478 0.977176 0.308440
O O7 0.165325 0.969638 0.392106
O O8 0.271080 0.250000 0.037841
O O9 0.436372 0.486572 0.051612
O O10 0.298656 0.453829 0.978515
O O11 0.208517 0.250000 0.689886
O O12 0.341325 0.024348 0.724954
O O13 0.052425 0.018504 0.707736
O O14 0.897759 0.250000 0.725836
O O15 0.946094 0.250000 0.563110
#
# Coordination Sequence:
#
# PCOD9467791 Si02
#       6
#     8   8   8   8   8   8
#     4  10  19  31  48  71  99 130 162 196 239 288
#     4   9  17  29  47  71  98 127 160 200 244 289
#     4  10  20  33  50  72  97 127 164 203 243 290
#     4   9  16  25  41  67  98 128 157 195 241 286
#     4   9  15  24  40  66  98 125 154 196 242 284
#     4   9  18  34  53  72  96 127 163 203 247 292
#
# _framework density 19.753086
#
# number of rings (size 3 to 8) (size 9 to 14) (size 15 to 20)
#    0.000    2.667    0.000    2.500    0.000    8.000 
#    0.000    0.833    0.000    0.000    0.000   10.500 
#    0.000    0.000    0.000    0.000    0.000    0.000 
#
# Total GULP energy -267742.491555 kJ/mol
# GULP energy per Si atom -5577.968574 kJ/mol
# Density = 1.970813 g / cm^3
# Si number density = 19.753086 Si / 1000 Ang^3
#
#
#
# Elastic Constant Matrix: (Units=GPa)
#
#
# Indices 1 2 3 4 5 6 
#
# 1 17.9647 -3.6638 -30.1789 0.0000 0.0000 0.0000
# 2 -3.6638 1.3138 8.1065 0.0000 0.0000 0.0000
# 3 -30.1789 8.1065 48.7262 0.0000 0.0000 0.0000
# 4 0.0000 0.0000 0.0000 7.7359 0.0000 0.0000
# 5 0.0000 0.0000 0.0000 0.0000 27.6859 0.0000
# 6 0.0000 0.0000 0.0000 0.0000 0.0000 9.5829
#
#
#
# Elastic Compliance Matrix: (Units=1/GPa)
#
#
# Indices 1 2 3 4 5 6 
#
# 1 0.019229 0.747200 -0.112401 0.000000 0.000000 0.000000
# 2 0.747200 0.400197 0.396203 0.000000 0.000000 0.000000
# 3 -0.112401 0.396203 -0.115010 0.000000 0.000000 0.000000
# 4 0.000000 0.000000 0.000000 0.129267 0.000000 0.000000
# 5 0.000000 0.000000 0.000000 0.000000 0.036119 0.000000
# 6 0.000000 0.000000 0.000000 0.000000 0.000000 0.104352
#
#
# Mechanical properties :
#
#
# Convention : Reuss Voigt Hill
#
# Bulk Modulus (GPa) = 0.42258 1.83692 1.12975
# Shear Modulus (GPa) = -7.15265 15.25034 4.04885
#
# Velocity S-wave (km/s) = -1.90496 2.78159 1.43324
# Velocity P-wave (km/s) = 2.15038 3.35385 1.81991
#
# Compressibility (1/GPa) = 2.36641861
#
# Stress axis : x y z
#
# Youngs Moduli (GPa) = 52.00557 2.49877 -8.69492
#
# Poissons Ratio (x) = -1.86708 -0.97732
# Poissons Ratio (y) = -38.85855 3.44495
# Poissons Ratio (z) = 5.84550 -0.99002
#
# Static dielectric constant tensor:
#      x y z
#    x 1.701800 0.000000 0.000000 
#    y 0.000000 1.657910 0.000000 
#    z 0.000000 0.000000 1.699830 
# 
# From -- ./inp_files/31951.got.cif
#   From: 2010.05.17/outbox.ucp.g08.bks.cvg/sg62_16_cif.got.tgz:31951.got - 2010.06.11 16:29:25.
