data_PCOD9467825
_publ_section_title
;
Structure prediction by ZEFSAII (Michael W. Deem and Ramdas Pophale) SiO2 
 PCOD9467825
Probable space group: P N M A
;
_chemical_formula_sum "Si O2"
_cell_formula_units_Z 56
_cell_length_a 18.000000
_cell_length_b 9.000000
_cell_length_c 21.000000
_cell_angle_alpha 90.000000
_cell_angle_beta 90.000000
_cell_angle_gamma 90.000000
_cell_volume 3402.000000
_symmetry_space_group_name_H-M "P N M A"
_symmetry_group_IT_number 62
_symmetry_cell_setting 'orthorhombic'
loop_
_space_group_symop_operation_xyz
x,y,z
1/2-x,-y,1/2+z
1/2+x,1/2-y,1/2-z
-x,1/2+y,-z
-x,-y,-z
1/2+x,y,1/2-z
1/2-x,1/2+y,1/2+z
x,1/2-y,z
loop_
_atom_site_type_symbol
_atom_site_label
_atom_site_fract_x
_atom_site_fract_y
_atom_site_fract_z
Si Si1 0.857568 0.570578 0.768237
Si Si2 0.761490 0.569493 0.168669
Si Si3 0.145122 0.428446 0.712209
Si Si4 0.275665 0.430779 0.615741
Si Si5 0.476916 0.429959 0.815563
Si Si6 0.559784 0.071601 0.048175
Si Si7 0.266036 0.928002 0.970379
O O1 0.853650 0.750000 0.767688
O O2 0.803040 0.502332 0.713157
O O3 0.837309 0.506513 0.838365
O O4 0.934985 0.506504 0.743110
O O5 0.753027 0.750000 0.166186
O O6 0.831279 0.530924 0.215377
O O7 0.760603 0.506516 0.096082
O O8 0.148896 0.250000 0.711716
O O9 0.202179 0.475625 0.656571
O O10 0.062994 0.470017 0.692395
O O11 0.282943 0.250000 0.618377
O O12 0.268588 0.470656 0.540233
O O13 0.467640 0.250000 0.814980
O O14 0.448857 0.496112 0.882621
O O15 0.548496 0.250000 0.052324
O O16 0.644830 0.046884 0.025574
O O17 0.500000 0.000000 0.000000
O O18 0.254423 0.750000 0.962943
#
# Coordination Sequence:
#
# PCOD9467825 Si02
#       7
#     8   8   8   8   8   8   8
#     4  11  21  34  51  76 106 136 176 222 261 308
#     4  10  19  34  55  76 101 138 179 216 260 316
#     4   8  17  33  53  76 101 133 175 217 258 310
#     4   9  18  35  55  75 102 139 175 212 262 314
#     4  11  20  34  55  77 103 139 177 217 265 318
#     4  11  22  34  49  75 112 145 174 209 257 318
#     4  10  20  34  53  77 108 139 172 219 265 311
#
# _framework density 16.460905
#
# number of rings (size 3 to 8) (size 9 to 14) (size 15 to 20)
#    0.000    2.000    1.429    4.286    0.000    3.429 
#    0.000   10.000    0.000    0.857    0.000    0.000 
#    0.000    0.000    0.000    0.000    0.000    0.000 
#
# Total GULP energy -311922.099940 kJ/mol
# GULP energy per Si atom -5570.037499 kJ/mol
# Density = 1.642344 g / cm^3
# Si number density = 16.460905 Si / 1000 Ang^3
#
#
#
# Elastic Constant Matrix: (Units=GPa)
#
#
# Indices 1 2 3 4 5 6 
#
# 1 25.3935 6.7991 11.0534 0.0000 0.0000 0.0000
# 2 6.7991 75.9601 33.7077 0.0000 0.0000 0.0000
# 3 11.0534 33.7077 136.1923 0.0000 0.0000 0.0000
# 4 0.0000 0.0000 0.0000 35.7785 0.0000 0.0000
# 5 0.0000 0.0000 0.0000 0.0000 33.0329 0.0000
# 6 0.0000 0.0000 0.0000 0.0000 0.0000 17.6415
#
#
#
# Elastic Compliance Matrix: (Units=1/GPa)
#
#
# Indices 1 2 3 4 5 6 
#
# 1 0.041233 -0.002478 -0.002733 0.000000 0.000000 0.000000
# 2 -0.002478 0.014938 -0.003496 0.000000 0.000000 0.000000
# 3 -0.002733 -0.003496 0.008430 0.000000 0.000000 0.000000
# 4 0.000000 0.000000 0.000000 0.027950 0.000000 0.000000
# 5 0.000000 0.000000 0.000000 0.000000 0.030273 0.000000
# 6 0.000000 0.000000 0.000000 0.000000 0.000000 0.056684
#
#
# Mechanical properties :
#
#
# Convention : Reuss Voigt Hill
#
# Bulk Modulus (GPa) = 21.19245 37.85181 29.52213
# Shear Modulus (GPa) = 23.51268 29.68962 26.60115
#
# Velocity S-wave (km/s) = 3.78351 4.25154 4.02434
# Velocity P-wave (km/s) = 5.65588 6.86627 6.29026
#
# Compressibility (1/GPa) = 0.04718662
#
# Stress axis : x y z
#
# Youngs Moduli (GPa) = 24.25225 66.94340 118.62867
#
# Poissons Ratio (x) = 0.16588 0.32424
# Poissons Ratio (y) = 0.06009 0.41473
# Poissons Ratio (z) = 0.06629 0.23404
#
# Static dielectric constant tensor:
#      x y z
#    x 1.605090 0.000000 0.000000 
#    y 0.000000 1.557040 0.000000 
#    z 0.000000 0.000000 1.543380 
# 
# From -- ./inp_files/27512.got.cif
#   From: 2010.05.17/outbox.ucp.g08.bks.cvg/sg62_14_cif.got.tgz:27512.got - 2010.06.11 16:29:25.
