data_PCOD9467541
_publ_section_title
;
Structure prediction by ZEFSAII (Michael W. Deem and Ramdas Pophale) SiO2 
 PCOD9467541
Probable space group: P N M A
;
_chemical_formula_sum "Si O2"
_cell_formula_units_Z 48
_cell_length_a 11.411086
_cell_length_b 17.687187
_cell_length_c 11.715590
_cell_angle_alpha 90.000000
_cell_angle_beta 90.000000
_cell_angle_gamma 90.000000
_cell_volume 2364.557670
_symmetry_space_group_name_H-M "P N M A"
_symmetry_group_IT_number 62
_symmetry_cell_setting 'orthorhombic'
loop_
_space_group_symop_operation_xyz
x,y,z
1/2-x,-y,1/2+z
1/2+x,1/2-y,1/2-z
-x,1/2+y,-z
-x,-y,-z
1/2+x,y,1/2-z
1/2-x,1/2+y,1/2+z
x,1/2-y,z
loop_
_atom_site_type_symbol
_atom_site_label
_atom_site_fract_x
_atom_site_fract_y
_atom_site_fract_z
Si Si1 0.263745 0.947740 0.039445
Si Si2 0.537558 0.935831 0.307294
Si Si3 0.171081 0.617679 0.577604
Si Si4 0.475051 0.837584 0.092021
Si Si5 0.927612 0.835295 0.996175
Si Si6 0.399792 0.089234 0.325876
O O1 0.195487 0.935590 0.920491
O O2 0.166091 0.947720 0.139697
O O3 0.355504 0.881137 0.061707
O O4 0.325683 0.028984 0.042948
O O5 0.533602 0.883699 0.196299
O O6 0.463487 0.893541 0.405405
O O7 0.475607 0.016131 0.288498
O O8 0.293618 0.652400 0.537596
O O9 0.157973 0.622695 0.713364
O O10 0.063082 0.656085 0.514052
O O11 0.454971 0.750000 0.121605
O O12 0.947831 0.750000 0.035263
O O13 0.011267 0.854712 0.889754
#
# Coordination Sequence:
#
# PCOD9467541 Si02
#       6
#     8   8   8   8   8   8
#     4  11  24  44  72  99 133 179 230 277 334 407
#     4  11  23  46  73  99 131 175 230 283 340 404
#     4  12  25  43  70 100 136 179 226 278 335 403
#     4  12  29  44  66 105 142 174 222 286 349 402
#     4  11  24  44  69  99 137 177 223 280 343 401
#     4  11  24  44  72 100 131 180 232 277 332 404
#
# _framework density 20.299779000000001
#
# number of rings (size 3 to 8) (size 9 to 14) (size 15 to 20)
#    0.000    0.667    5.000    2.500    7.000    4.667 
#    0.000    0.000    0.000    0.000    0.000    0.000 
#    0.000    0.000    0.000    0.000    0.000    0.000 
#
# Total GULP energy -268676.034450 kJ/mol
# GULP energy per Si atom -5597.417384 kJ/mol
# Density = 2.025358 g / cm^3
# Si number density = 20.299779 Si / 1000 Ang^3
#
#
#
# Elastic Constant Matrix: (Units=GPa)
#
#
# Indices 1 2 3 4 5 6 
#
# 1 59.7807 8.1942 5.4294 0.0000 0.0000 0.0000
# 2 8.1942 59.6760 -11.9505 0.0000 0.0000 0.0000
# 3 5.4294 -11.9505 67.0786 0.0000 0.0000 0.0000
# 4 0.0000 0.0000 0.0000 16.3590 0.0000 0.0000
# 5 0.0000 0.0000 0.0000 0.0000 8.7455 0.0000
# 6 0.0000 0.0000 0.0000 0.0000 0.0000 22.3774
#
#
#
# Elastic Compliance Matrix: (Units=1/GPa)
#
#
# Indices 1 2 3 4 5 6 
#
# 1 0.017276 -0.002750 -0.001888 0.000000 0.000000 0.000000
# 2 -0.002750 0.017815 0.003396 0.000000 0.000000 0.000000
# 3 -0.001888 0.003396 0.015666 0.000000 0.000000 0.000000
# 4 0.000000 0.000000 0.000000 0.061128 0.000000 0.000000
# 5 0.000000 0.000000 0.000000 0.000000 0.114345 0.000000
# 6 0.000000 0.000000 0.000000 0.000000 0.000000 0.044688
#
#
# Mechanical properties :
#
#
# Convention : Reuss Voigt Hill
#
# Bulk Modulus (GPa) = 20.71571 21.09796 20.90683
# Shear Modulus (GPa) = 17.27154 21.82053 19.54604
#
# Velocity S-wave (km/s) = 2.92005 3.28215 3.10638
# Velocity P-wave (km/s) = 4.64715 4.97786 4.81534
#
# Compressibility (1/GPa) = 0.04827254
#
# Stress axis : x y z
#
# Youngs Moduli (GPa) = 57.88270 56.13254 63.83319
#
# Poissons Ratio (x) = 0.15439 0.12054
# Poissons Ratio (y) = 0.15920 -0.21681
# Poissons Ratio (z) = 0.10930 -0.19065
#
# Static dielectric constant tensor:
#      x y z
#    x 1.685940 0.000000 0.000000 
#    y 0.000000 1.694210 0.000000 
#    z 0.000000 0.000000 1.707960 
# 
# From -- ./inp_files/12255.got.cif
#   From: 2010.05.17/outbox.cif.g08.bks.cpg/sg62_7_cif.got.tgz:12255.got - 2010.06.03 15:25:27.
