data_PCOD9467880
_publ_section_title
;
Structure prediction by ZEFSAII (Michael W. Deem and Ramdas Pophale) SiO2 
 PCOD9467880
Probable space group: P N M A
;
_chemical_formula_sum "Si O2"
_cell_formula_units_Z 64
_cell_length_a 18.000000
_cell_length_b 9.000000
_cell_length_c 21.000000
_cell_angle_alpha 90.000000
_cell_angle_beta 90.000000
_cell_angle_gamma 90.000000
_cell_volume 3402.000000
_symmetry_space_group_name_H-M "P N M A"
_symmetry_group_IT_number 62
_symmetry_cell_setting 'orthorhombic'
loop_
_space_group_symop_operation_xyz
x,y,z
1/2-x,-y,1/2+z
1/2+x,1/2-y,1/2-z
-x,1/2+y,-z
-x,-y,-z
1/2+x,y,1/2-z
1/2-x,1/2+y,1/2+z
x,1/2-y,z
loop_
_atom_site_type_symbol
_atom_site_label
_atom_site_fract_x
_atom_site_fract_y
_atom_site_fract_z
Si Si1 0.717812 0.428974 0.921333
Si Si2 0.553608 0.571836 0.318671
Si Si3 0.531399 0.571500 0.564026
Si Si4 0.535726 0.927881 0.176734
Si Si5 0.215502 0.072209 0.198391
Si Si6 0.299011 0.069938 0.454913
Si Si7 0.448605 0.572205 0.053138
Si Si8 0.304354 0.928606 0.840834
O O1 0.722149 0.250000 0.912301
O O2 0.729189 0.507596 0.854060
O O3 0.637984 0.464485 0.951712
O O4 0.778543 0.477679 0.973583
O O5 0.557110 0.750000 0.326850
O O6 0.510147 0.496583 0.375789
O O7 0.517147 0.536840 0.249920
O O8 0.636464 0.505527 0.315428
O O9 0.500000 0.500000 0.500000
O O10 0.523600 0.750000 0.562772
O O11 0.618287 0.532494 0.565371
O O12 0.545027 0.750000 0.173636
O O13 0.476848 0.971912 0.123357
O O14 0.614011 0.002807 0.160613
O O15 0.208946 0.250000 0.192147
O O16 0.233267 0.038204 0.272380
O O17 0.293586 0.250000 0.456072
O O18 0.241726 0.016779 0.401371
O O19 0.455220 0.750000 0.047443
O O20 0.500000 0.500000 0.000000
O O21 0.311003 0.750000 0.844988
#
# Coordination Sequence:
#
# PCOD9467880 Si02
#       8
#     8   8   8   8   8   8   8   8
#     4  10  20  35  55  77 105 142 178 213 263 323
#     4  10  20  36  56  77 107 144 177 215 266 321
#     4  11  22  36  55  79 107 140 181 226 271 321
#     4   9  19  35  54  79 110 141 175 217 265 317
#     4  10  20  34  55  82 108 135 173 220 264 313
#     4   9  19  35  54  75 101 136 175 215 260 310
#     4  10  21  36  55  80 109 143 183 225 270 322
#     4   9  18  35  57  79 104 137 177 217 261 315
#
# _framework density 18.812463000000001
#
# number of rings (size 3 to 8) (size 9 to 14) (size 15 to 20)
#    0.000    2.250    0.000    2.625    0.000    5.000 
#    0.000    2.500    0.000    0.000    0.000    0.000 
#    0.000    0.000    0.000    0.000    0.000    0.000 
#
# Total GULP energy -357127.455512 kJ/mol
# GULP energy per Si atom -5580.116492 kJ/mol
# Density = 1.876965 g / cm^3
# Si number density = 18.812463 Si / 1000 Ang^3
#
#
#
# Elastic Constant Matrix: (Units=GPa)
#
#
# Indices 1 2 3 4 5 6 
#
# 1 27.6853 14.2323 14.8480 0.0000 0.0000 0.0000
# 2 14.2323 29.2109 24.0956 0.0000 0.0000 0.0000
# 3 14.8480 24.0956 76.6250 0.0000 0.0000 0.0000
# 4 0.0000 0.0000 0.0000 28.4713 0.0000 0.0000
# 5 0.0000 0.0000 0.0000 0.0000 38.7922 0.0000
# 6 0.0000 0.0000 0.0000 0.0000 0.0000 22.2161
#
#
#
# Elastic Compliance Matrix: (Units=1/GPa)
#
#
# Indices 1 2 3 4 5 6 
#
# 1 0.048589 -0.021479 -0.002661 0.000000 0.000000 0.000000
# 2 -0.021479 0.055719 -0.013359 0.000000 0.000000 0.000000
# 3 -0.002661 -0.013359 0.017767 0.000000 0.000000 0.000000
# 4 0.000000 0.000000 0.000000 0.035123 0.000000 0.000000
# 5 0.000000 0.000000 0.000000 0.000000 0.025778 0.000000
# 6 0.000000 0.000000 0.000000 0.000000 0.000000 0.045012
#
#
# Mechanical properties :
#
#
# Convention : Reuss Voigt Hill
#
# Bulk Modulus (GPa) = 21.24195 26.65255 23.94725
# Shear Modulus (GPa) = 15.68977 23.25231 19.47104
#
# Velocity S-wave (km/s) = 2.89106 3.51950 3.22064
# Velocity P-wave (km/s) = 4.73922 5.54203 5.15627
#
# Compressibility (1/GPa) = 0.04707665
#
# Stress axis : x y z
#
# Youngs Moduli (GPa) = 20.58077 17.94733 56.28349
#
# Poissons Ratio (x) = 0.38549 0.14978
# Poissons Ratio (y) = 0.44205 0.75191
# Poissons Ratio (z) = 0.05477 0.23976
#
# Static dielectric constant tensor:
#      x y z
#    x 1.641690 0.000000 0.000000 
#    y 0.000000 1.625960 0.000000 
#    z 0.000000 0.000000 1.654730 
# 
# From -- ./inp_files/27762.got.cif
#   From: 2010.05.17/outbox.ucp.g08.bks.cvg/sg62_14_cif.got.tgz:27762.got - 2010.06.11 16:29:25.
