data_PCOD9467264
_publ_section_title
;
Structure prediction by ZEFSAII (Michael W. Deem and Ramdas Pophale) SiO2 
 PCOD9467264
Probable space group: P N M A
;
_chemical_formula_sum "Si O2"
_cell_formula_units_Z 32
_cell_length_a 8.162241
_cell_length_b 17.594998
_cell_length_c 9.140665
_cell_angle_alpha 90.000000
_cell_angle_beta 90.000000
_cell_angle_gamma 90.000000
_cell_volume 1312.733076
_symmetry_space_group_name_H-M "P N M A"
_symmetry_group_IT_number 62
_symmetry_cell_setting 'orthorhombic'
loop_
_space_group_symop_operation_xyz
x,y,z
1/2-x,-y,1/2+z
1/2+x,1/2-y,1/2-z
-x,1/2+y,-z
-x,-y,-z
1/2+x,y,1/2-z
1/2-x,1/2+y,1/2+z
x,1/2-y,z
loop_
_atom_site_type_symbol
_atom_site_label
_atom_site_fract_x
_atom_site_fract_y
_atom_site_fract_z
Si Si1 0.844570 0.605185 0.517978
Si Si2 0.505943 0.663608 0.580670
Si Si3 0.697103 0.571073 0.960018
Si Si4 0.677497 0.333251 0.703176
O O1 0.688175 0.634780 0.605763
O O2 0.807551 0.519232 0.464722
O O3 0.858090 0.654570 0.371070
O O4 0.022572 0.602884 0.592932
O O5 0.480408 0.750000 0.633678
O O6 0.356749 0.606676 0.615919
O O7 0.483244 0.665361 0.401755
O O8 0.715909 0.600745 0.127934
O O9 0.752267 0.250000 0.676148
#
# Coordination Sequence:
#
# PCOD9467264 Si02
#       4
#     8   8   8   8
#     4  11  18  31  50  70 106 139 162 203 259 301
#     4   9  19  31  47  71  99 131 166 207 250 293
#     4   9  21  32  45  75 109 128 167 207 251 305
#     4   9  19  33  50  77 106 130 166 211 251 294
#
# _framework density 24.376624
#
# number of rings (size 3 to 8) (size 9 to 14) (size 15 to 20)
#    1.500    1.000    0.000    3.000    0.000    6.000 
#    0.000    0.000    0.000    0.000    0.000    7.000 
#    0.000    0.000    0.000    0.000    0.000    0.000 
#
# Total GULP energy -178608.139567 kJ/mol
# GULP energy per Si atom -5581.504361 kJ/mol
# Density = 2.432114 g / cm^3
# Si number density = 24.376624 Si / 1000 Ang^3
#
#
#
# Elastic Constant Matrix: (Units=GPa)
#
#
# Indices 1 2 3 4 5 6 
#
# 1 48.5277 -15.9414 0.4439 0.0000 0.0000 0.0000
# 2 -15.9414 70.7370 -10.8442 0.0000 0.0000 0.0000
# 3 0.4439 -10.8442 74.8878 0.0000 0.0000 0.0000
# 4 0.0000 0.0000 0.0000 -90.2479 0.0000 0.0000
# 5 0.0000 0.0000 0.0000 0.0000 28.1919 0.0000
# 6 0.0000 0.0000 0.0000 0.0000 0.0000 36.7931
#
#
#
# Elastic Compliance Matrix: (Units=1/GPa)
#
#
# Indices 1 2 3 4 5 6 
#
# 1 0.022281 0.005115 0.000609 0.000000 0.000000 0.000000
# 2 0.005115 0.015632 0.002233 0.000000 0.000000 0.000000
# 3 0.000609 0.002233 0.013673 0.000000 0.000000 0.000000
# 4 0.000000 0.000000 0.000000 -0.011081 0.000000 0.000000
# 5 0.000000 0.000000 0.000000 0.000000 0.035471 0.000000
# 6 0.000000 0.000000 0.000000 0.000000 0.000000 0.027179
#
#
# Mechanical properties :
#
#
# Convention : Reuss Voigt Hill
#
# Bulk Modulus (GPa) = 14.81497 15.71880 15.26688
# Shear Modulus (GPa) = 45.56109 9.64704 27.60407
#
# Velocity S-wave (km/s) = 4.32794 1.99150 3.36876
# Velocity P-wave (km/s) = 5.57364 3.42789 4.62687
#
# Compressibility (1/GPa) = 0.06749931
#
# Stress axis : x y z
#
# Youngs Moduli (GPa) = 44.88052 63.97180 73.13631
#
# Poissons Ratio (x) = -0.32719 -0.04451
# Poissons Ratio (y) = -0.22955 -0.16333
# Poissons Ratio (z) = -0.02731 -0.14287
#
# Static dielectric constant tensor:
#      x y z
#    x 1.968250 0.000000 0.000000 
#    y 0.000000 2.017670 0.000000 
#    z 0.000000 0.000000 1.966170 
# 
# From -- ./inp_files/10930.got.cif
#   From: 2010.05.17/outbox.cif.g08.bks.cpg/sg62_6_cif.got.tgz:10930.got - 2010.06.03 15:25:27.
