data_PCOD9467645
_publ_section_title
;
Structure prediction by ZEFSAII (Michael W. Deem and Ramdas Pophale) SiO2 
 PCOD9467645
Probable space group: P N M A
;
_chemical_formula_sum "Si O2"
_cell_formula_units_Z 32
_cell_length_a 13.369276
_cell_length_b 5.425865
_cell_length_c 17.321770
_cell_angle_alpha 90.000000
_cell_angle_beta 90.000000
_cell_angle_gamma 90.000000
_cell_volume 1256.519234
_symmetry_space_group_name_H-M "P N M A"
_symmetry_group_IT_number 62
_symmetry_cell_setting 'orthorhombic'
loop_
_space_group_symop_operation_xyz
x,y,z
1/2-x,-y,1/2+z
1/2+x,1/2-y,1/2-z
-x,1/2+y,-z
-x,-y,-z
1/2+x,y,1/2-z
1/2-x,1/2+y,1/2+z
x,1/2-y,z
loop_
_atom_site_type_symbol
_atom_site_label
_atom_site_fract_x
_atom_site_fract_y
_atom_site_fract_z
Si Si1 0.454969 0.250000 0.889077
Si Si2 0.762108 0.250000 0.507265
Si Si3 0.202522 0.250000 0.755709
Si Si4 0.246921 0.250000 0.213930
Si Si5 0.442203 0.750000 0.399994
Si Si6 0.832831 0.750000 0.429634
Si Si7 0.481775 0.250000 0.193698
Si Si8 0.546103 0.250000 0.370321
O O1 0.548841 0.250000 0.949008
O O2 0.473941 0.501917 0.842263
O O3 0.346757 0.250000 0.926281
O O4 0.663448 0.250000 0.351693
O O5 0.783378 0.505631 0.463421
O O6 0.262379 0.503318 0.764541
O O7 0.177885 0.250000 0.663710
O O8 0.109725 0.250000 0.814211
O O9 0.999964 0.250000 0.215547
O O10 0.507452 0.502645 0.407580
O O11 0.348873 0.750000 0.457845
O O12 0.361508 0.250000 0.184654
#
# Coordination Sequence:
#
# PCOD9467645 Si02
#       8
#     4   4   4   4   4   4   4   4
#     4  12  24  40  68 102 147 183 232 270 347 436
#     4  12  28  41  72 101 152 183 221 289 368 408
#     4  12  23  45  74  96 140 180 242 276 343 419
#     4  12  23  41  69 103 130 185 229 292 336 411
#     4  12  25  48  64 109 142 184 227 301 345 409
#     4  12  22  46  67 103 141 192 226 280 349 438
#     4  12  22  40  64 107 133 184 227 291 333 418
#     4  12  25  41  70  97 147 177 234 293 351 413
#
# _framework density 25.467178000000001
#
# number of rings (size 3 to 8) (size 9 to 14) (size 15 to 20)
#    0.000    0.000    5.000    5.250    3.500    0.000 
#    0.000    0.000    0.000   15.000    0.000    0.000 
#    0.000    0.000    0.000    0.000    0.000    0.000 
#
# Total GULP energy -179527.223230 kJ/mol
# GULP energy per Si atom -5610.225726 kJ/mol
# Density = 2.540921 g / cm^3
# Si number density = 25.467178 Si / 1000 Ang^3
#
#
#
# Elastic Constant Matrix: (Units=GPa)
#
#
# Indices 1 2 3 4 5 6 
#
# 1 179.1742 69.8487 36.7902 0.0000 0.0000 0.0000
# 2 69.8487 284.9032 55.3583 0.0000 0.0000 0.0000
# 3 36.7902 55.3583 94.1393 0.0000 0.0000 0.0000
# 4 0.0000 0.0000 0.0000 -66.0180 0.0000 0.0000
# 5 0.0000 0.0000 0.0000 0.0000 60.2280 0.0000
# 6 0.0000 0.0000 0.0000 0.0000 0.0000 -10.1720
#
#
#
# Elastic Compliance Matrix: (Units=1/GPa)
#
#
# Indices 1 2 3 4 5 6 
#
# 1 0.006427 -0.001228 -0.001790 0.000000 0.000000 0.000000
# 2 -0.001228 0.004197 -0.001988 0.000000 0.000000 0.000000
# 3 -0.001790 -0.001988 0.012491 0.000000 0.000000 0.000000
# 4 0.000000 0.000000 0.000000 -0.015147 0.000000 0.000000
# 5 0.000000 0.000000 0.000000 0.000000 0.016604 0.000000
# 6 0.000000 0.000000 0.000000 0.000000 0.000000 -0.098309
#
#
# Mechanical properties :
#
#
# Convention : Reuss Voigt Hill
#
# Bulk Modulus (GPa) = 76.31361 98.02344 87.16852
# Shear Modulus (GPa) = -84.23690 23.22222 -30.50734
#
# Velocity S-wave (km/s) = -5.75747 3.02296 -3.46484
# Velocity P-wave (km/s) = 3.76396 7.12447 4.27730
#
# Compressibility (1/GPa) = 0.01310382
#
# Stress axis : x y z
#
# Youngs Moduli (GPa) = 155.58443 238.24389 80.05618
#
# Poissons Ratio (x) = 0.29257 0.14328
# Poissons Ratio (y) = 0.19106 0.15918
# Poissons Ratio (z) = 0.27845 0.47371
#
# Static dielectric constant tensor:
#      x y z
#    x 1.983310 0.000000 0.000000 
#    y 0.000000 2.002350 0.000000 
#    z 0.000000 0.000000 2.092840 
# 
# From -- ./inp_files/19273.got.cif
#   From: 2010.05.17/outbox.cif.g08.bks.cpg/sg62_10_cif.got.tgz:19273.got - 2010.06.03 15:25:27.
