data_PCOD9467454
_publ_section_title
;
Structure prediction by ZEFSAII (Michael W. Deem and Ramdas Pophale) SiO2 
 PCOD9467454
Probable space group: P N M A
;
_chemical_formula_sum "Si O2"
_cell_formula_units_Z 56
_cell_length_a 11.216078
_cell_length_b 16.820825
_cell_length_c 14.552546
_cell_angle_alpha 90.000000
_cell_angle_beta 90.000000
_cell_angle_gamma 90.000000
_cell_volume 2745.536958
_symmetry_space_group_name_H-M "P N M A"
_symmetry_group_IT_number 62
_symmetry_cell_setting 'orthorhombic'
loop_
_space_group_symop_operation_xyz
x,y,z
1/2-x,-y,1/2+z
1/2+x,1/2-y,1/2-z
-x,1/2+y,-z
-x,-y,-z
1/2+x,y,1/2-z
1/2-x,1/2+y,1/2+z
x,1/2-y,z
loop_
_atom_site_type_symbol
_atom_site_label
_atom_site_fract_x
_atom_site_fract_y
_atom_site_fract_z
Si Si1 0.045511 0.343604 0.418627
Si Si2 0.527695 0.552230 0.590704
Si Si3 0.735986 0.588541 0.476238
Si Si4 0.163909 0.945101 0.618154
Si Si5 0.053861 0.071607 0.745155
Si Si6 0.145298 0.154933 0.212342
Si Si7 0.193464 0.843640 0.222304
O O1 0.040492 0.250000 0.430646
O O2 0.138135 0.379936 0.489584
O O3 0.088182 0.358804 0.312977
O O4 0.917397 0.382558 0.433290
O O5 0.500000 0.500000 0.500000
O O6 0.647699 0.596693 0.561190
O O7 0.543112 0.486231 0.668342
O O8 0.439814 0.618325 0.633239
O O9 0.749246 0.496604 0.445518
O O10 0.691531 0.635263 0.386546
O O11 0.235616 0.897316 0.696611
O O12 0.078641 0.012270 0.660988
O O13 0.177095 0.122108 0.753984
O O14 0.927954 0.117624 0.736933
O O15 0.164688 0.250000 0.201914
O O16 0.190666 0.750000 0.237220
#
# Coordination Sequence:
#
# PCOD9467454 Si02
#       7
#     8   8   8   8   8   8   8
#     4  11  24  40  63  96 131 168 213 270 334 394
#     4  12  21  43  67  94 125 166 223 263 320 389
#     4  11  24  40  69  95 128 173 217 270 325 397
#     4  11  22  42  66  92 133 171 219 266 325 404
#     4  11  23  41  71  95 129 178 224 270 326 404
#     4  11  24  42  67 100 133 170 213 276 339 394
#     4  11  24  44  66  98 134 173 223 280 336 387
#
# _framework density 20.396739
#
# number of rings (size 3 to 8) (size 9 to 14) (size 15 to 20)
#    0.000    0.857    4.286    3.429    2.000    1.143 
#    0.000    0.000    0.000    0.000    0.000    0.000 
#    0.000    0.000    0.000    0.000    0.000    0.000 
#
# Total GULP energy -312655.137498 kJ/mol
# GULP energy per Si atom -5583.127455 kJ/mol
# Density = 2.035032 g / cm^3
# Si number density = 20.396739 Si / 1000 Ang^3
#
#
#
# Elastic Constant Matrix: (Units=GPa)
#
#
# Indices 1 2 3 4 5 6 
#
# 1 55.9068 39.1012 2.1398 0.0000 0.0000 0.0000
# 2 39.1012 119.0890 19.9004 0.0000 0.0000 0.0000
# 3 2.1398 19.9004 39.7212 0.0000 0.0000 0.0000
# 4 0.0000 0.0000 0.0000 18.1732 0.0000 0.0000
# 5 0.0000 0.0000 0.0000 0.0000 37.1470 0.0000
# 6 0.0000 0.0000 0.0000 0.0000 0.0000 25.7415
#
#
#
# Elastic Compliance Matrix: (Units=1/GPa)
#
#
# Indices 1 2 3 4 5 6 
#
# 1 0.023508 -0.008193 0.002838 0.000000 0.000000 0.000000
# 2 -0.008193 0.012020 -0.005581 0.000000 0.000000 0.000000
# 3 0.002838 -0.005581 0.027818 0.000000 0.000000 0.000000
# 4 0.000000 0.000000 0.000000 0.055026 0.000000 0.000000
# 5 0.000000 0.000000 0.000000 0.000000 0.026920 0.000000
# 6 0.000000 0.000000 0.000000 0.000000 0.000000 0.038848
#
#
# Mechanical properties :
#
#
# Convention : Reuss Voigt Hill
#
# Bulk Modulus (GPa) = 24.11025 37.44442 30.77734
# Shear Modulus (GPa) = 22.74419 26.45070 24.59745
#
# Velocity S-wave (km/s) = 3.34292 3.60503 3.47645
# Velocity P-wave (km/s) = 5.17170 5.97714 5.58895
#
# Compressibility (1/GPa) = 0.04147613
#
# Stress axis : x y z
#
# Youngs Moduli (GPa) = 42.53789 83.19697 35.94743
#
# Poissons Ratio (x) = 0.68163 -0.10203
# Poissons Ratio (y) = 0.34851 0.20061
# Poissons Ratio (z) = -0.12074 0.46428
#
# Static dielectric constant tensor:
#      x y z
#    x 1.818610 0.000000 0.000000 
#    y 0.000000 1.695800 0.000000 
#    z 0.000000 0.000000 1.719210 
# 
# From -- ./inp_files/18124.got.cif
#   From: 2010.05.17/outbox.cif.g08.bks.cpg/sg62_10_cif.got.tgz:18124.got - 2010.06.03 15:25:27.
