data_PCOD9467668
_publ_section_title
;
Structure prediction by ZEFSAII (Michael W. Deem and Ramdas Pophale) SiO2 
 PCOD9467668
Probable space group: P N M A
;
_chemical_formula_sum "Si O2"
_cell_formula_units_Z 40
_cell_length_a 15.362497
_cell_length_b 9.806588
_cell_length_c 12.275894
_cell_angle_alpha 90.000000
_cell_angle_beta 90.000000
_cell_angle_gamma 90.000000
_cell_volume 1849.408591
_symmetry_space_group_name_H-M "P N M A"
_symmetry_group_IT_number 62
_symmetry_cell_setting 'orthorhombic'
loop_
_space_group_symop_operation_xyz
x,y,z
1/2-x,-y,1/2+z
1/2+x,1/2-y,1/2-z
-x,1/2+y,-z
-x,-y,-z
1/2+x,y,1/2-z
1/2-x,1/2+y,1/2+z
x,1/2-y,z
loop_
_atom_site_type_symbol
_atom_site_label
_atom_site_fract_x
_atom_site_fract_y
_atom_site_fract_z
Si Si1 0.337042 0.980794 0.624404
Si Si2 0.740018 0.250000 0.916109
Si Si3 0.408293 0.750000 0.230356
Si Si4 0.417975 0.250000 0.354025
Si Si5 0.741441 0.250000 0.253188
Si Si6 0.913025 0.750000 0.589321
Si Si7 0.434179 0.750000 0.487662
Si Si8 0.008535 0.018933 0.290741
O O1 0.260128 0.885935 0.674307
O O2 0.387882 0.882716 0.540249
O O3 0.404880 0.018727 0.720838
O O4 0.296251 0.114262 0.572539
O O5 0.693735 0.250000 0.797327
O O6 0.656276 0.250000 0.994122
O O7 0.425092 0.750000 0.359439
O O8 0.454427 0.615170 0.184583
O O9 0.315101 0.250000 0.337713
O O10 0.466676 0.250000 0.469312
O O11 0.453858 0.381485 0.288837
O O12 0.646329 0.250000 0.199058
O O13 0.967932 0.612653 0.605543
#
# Coordination Sequence:
#
# PCOD9467668 Si02
#       8
#     8   4   4   4   4   4   4   8
#     4   9  20  39  58  84 120 151 184 235 295 348
#     4  12  24  35  58  87 111 152 202 235 278 348
#     4  12  24  37  58  91 117 142 194 251 286 328
#     4   9  17  34  62  87 112 154 191 224 280 353
#     4   9  17  36  62  83 110 148 193 236 280 345
#     4   9  22  41  57  76 109 160 195 221 285 357
#     4   9  22  39  57  88 123 150 185 239 299 341
#     4   9  20  39  58  80 117 151 184 237 292 334
#
# _framework density 21.628534999999999
#
# number of rings (size 3 to 8) (size 9 to 14) (size 15 to 20)
#    0.000    2.400    0.000    4.200    0.000   10.400 
#    0.000    3.000    0.000    0.000    0.000    0.000 
#    0.000    0.000    0.000    0.000    0.000    0.000 
#
# Total GULP energy -223545.019363 kJ/mol
# GULP energy per Si atom -5588.625484 kJ/mol
# Density = 2.157931 g / cm^3
# Si number density = 21.628535 Si / 1000 Ang^3
#
#
#
# Elastic Constant Matrix: (Units=GPa)
#
#
# Indices 1 2 3 4 5 6 
#
# 1 87.8195 51.3673 22.0727 0.0000 0.0000 0.0000
# 2 51.3673 163.2790 28.7569 0.0000 0.0000 0.0000
# 3 22.0727 28.7569 53.7175 0.0000 0.0000 0.0000
# 4 0.0000 0.0000 0.0000 0.9543 0.0000 0.0000
# 5 0.0000 0.0000 0.0000 0.0000 32.6241 0.0000
# 6 0.0000 0.0000 0.0000 0.0000 0.0000 14.2473
#
#
#
# Elastic Compliance Matrix: (Units=1/GPa)
#
#
# Indices 1 2 3 4 5 6 
#
# 1 0.014669 -0.003923 -0.003927 0.000000 0.000000 0.000000
# 2 -0.003923 0.007811 -0.002570 0.000000 0.000000 0.000000
# 3 -0.003927 -0.002570 0.021605 0.000000 0.000000 0.000000
# 4 0.000000 0.000000 0.000000 1.047899 0.000000 0.000000
# 5 0.000000 0.000000 0.000000 0.000000 0.030652 0.000000
# 6 0.000000 0.000000 0.000000 0.000000 0.000000 0.070189
#
#
# Mechanical properties :
#
#
# Convention : Reuss Voigt Hill
#
# Bulk Modulus (GPa) = 43.01951 56.57887 49.79919
# Shear Modulus (GPa) = 4.09362 23.07308 13.58335
#
# Velocity S-wave (km/s) = 1.37724 3.26972 2.50877
# Velocity P-wave (km/s) = 4.73945 6.36167 5.60951
#
# Compressibility (1/GPa) = 0.02324527
#
# Stress axis : x y z
#
# Youngs Moduli (GPa) = 68.17200 128.02039 46.28508
#
# Poissons Ratio (x) = 0.50224 0.18177
# Poissons Ratio (y) = 0.26745 0.11894
# Poissons Ratio (z) = 0.26773 0.32897
#
# Static dielectric constant tensor:
#      x y z
#    x 1.773500 0.000000 0.000000 
#    y 0.000000 1.780420 0.000000 
#    z 0.000000 0.000000 1.815060 
# 
# From -- ./inp_files/13941.got.cif
#   From: 2010.05.17/outbox.cif.g08.bks.cpg/sg62_7_cif.got.tgz:13941.got - 2010.06.03 15:25:27.
