data_PCOD9467875
_publ_section_title
;
Structure prediction by ZEFSAII (Michael W. Deem and Ramdas Pophale) SiO2 
 PCOD9467875
Probable space group: P N M A
;
_chemical_formula_sum "Si O2"
_cell_formula_units_Z 64
_cell_length_a 15.000000
_cell_length_b 9.000000
_cell_length_c 24.000000
_cell_angle_alpha 90.000000
_cell_angle_beta 90.000000
_cell_angle_gamma 90.000000
_cell_volume 3240.000000
_symmetry_space_group_name_H-M "P N M A"
_symmetry_group_IT_number 62
_symmetry_cell_setting 'orthorhombic'
loop_
_space_group_symop_operation_xyz
x,y,z
1/2-x,-y,1/2+z
1/2+x,1/2-y,1/2-z
-x,1/2+y,-z
-x,-y,-z
1/2+x,y,1/2-z
1/2-x,1/2+y,1/2+z
x,1/2-y,z
loop_
_atom_site_type_symbol
_atom_site_label
_atom_site_fract_x
_atom_site_fract_y
_atom_site_fract_z
Si Si1 0.628981 0.426597 0.615352
Si Si2 0.875150 0.569736 0.440492
Si Si3 0.555887 0.926623 0.107124
Si Si4 0.239812 0.071874 0.665562
Si Si5 0.779001 0.928040 0.552351
Si Si6 0.057321 0.421246 0.282580
Si Si7 0.273421 0.422303 0.281059
Si Si8 0.448134 0.427206 0.667160
O O1 0.639879 0.250000 0.610645
O O2 0.682806 0.506527 0.566299
O O3 0.678090 0.483890 0.671344
O O4 0.523968 0.460524 0.621693
O O5 0.877649 0.750000 0.442120
O O6 0.820168 0.526785 0.386181
O O7 0.820221 0.520988 0.493918
O O8 0.977514 0.521988 0.434436
O O9 0.568826 0.750000 0.103111
O O10 0.647549 0.010492 0.095192
O O11 0.524175 0.972319 0.168540
O O12 0.232699 0.250000 0.673981
O O13 0.344709 0.040373 0.653681
O O14 0.207468 0.988613 0.720523
O O15 0.775905 0.750000 0.555356
O O16 0.031427 0.250000 0.291248
O O17 0.165543 0.429738 0.284367
O O18 0.029055 0.481492 0.222655
O O19 0.299312 0.250000 0.286468
O O20 0.453593 0.250000 0.678957
#
# Coordination Sequence:
#
# PCOD9467875 Si02
#       8
#     8   8   8   8   8   8   8   8
#     4  11  22  36  56  83 112 149 191 233 280 337
#     4   9  21  38  59  83 109 147 192 237 285 339
#     4  11  21  35  56  83 114 150 189 230 279 341
#     4   9  18  38  61  81 109 147 188 232 280 337
#     4  11  22  39  58  81 113 148 191 239 286 337
#     4  10  20  34  53  81 117 150 182 224 278 335
#     4  10  20  34  53  81 114 146 181 228 280 333
#     4   9  20  36  57  82 112 148 189 232 278 336
#
# _framework density 19.753086
#
# number of rings (size 3 to 8) (size 9 to 14) (size 15 to 20)
#    0.000    2.000    1.250    2.250    1.750    2.000 
#    0.000    4.375    0.000    0.000    0.000    0.000 
#    0.000    0.000    0.000    0.000    0.000    0.000 
#
# Total GULP energy -357288.485747 kJ/mol
# GULP energy per Si atom -5582.632590 kJ/mol
# Density = 1.970813 g / cm^3
# Si number density = 19.753086 Si / 1000 Ang^3
#
#
#
# Elastic Constant Matrix: (Units=GPa)
#
#
# Indices 1 2 3 4 5 6 
#
# 1 25.2959 3.2054 -10.6242 0.0000 0.0000 0.0000
# 2 3.2054 37.2080 -0.0846 0.0000 0.0000 0.0000
# 3 -10.6242 -0.0846 44.2261 0.0000 0.0000 0.0000
# 4 0.0000 0.0000 0.0000 22.6398 0.0000 0.0000
# 5 0.0000 0.0000 0.0000 0.0000 29.0706 0.0000
# 6 0.0000 0.0000 0.0000 0.0000 0.0000 19.2166
#
#
#
# Elastic Compliance Matrix: (Units=1/GPa)
#
#
# Indices 1 2 3 4 5 6 
#
# 1 0.044502 -0.003809 0.010683 0.000000 0.000000 0.000000
# 2 -0.003809 0.027202 -0.000863 0.000000 0.000000 0.000000
# 3 0.010683 -0.000863 0.025176 0.000000 0.000000 0.000000
# 4 0.000000 0.000000 0.000000 0.044170 0.000000 0.000000
# 5 0.000000 0.000000 0.000000 0.000000 0.034399 0.000000
# 6 0.000000 0.000000 0.000000 0.000000 0.000000 0.052038
#
#
# Mechanical properties :
#
#
# Convention : Reuss Voigt Hill
#
# Bulk Modulus (GPa) = 9.18268 10.19147 9.68708
# Shear Modulus (GPa) = 19.85970 21.80096 20.83033
#
# Velocity S-wave (km/s) = 3.17424 3.32576 3.25088
# Velocity P-wave (km/s) = 4.25361 4.46298 4.35956
#
# Compressibility (1/GPa) = 0.10890072
#
# Stress axis : x y z
#
# Youngs Moduli (GPa) = 22.47107 36.76182 39.72067
#
# Poissons Ratio (x) = 0.14004 -0.42434
# Poissons Ratio (y) = 0.08560 0.03428
# Poissons Ratio (z) = -0.24006 0.03173
#
# Static dielectric constant tensor:
#      x y z
#    x 1.706440 0.000000 0.000000 
#    y 0.000000 1.655600 0.000000 
#    z 0.000000 0.000000 1.729900 
# 
# From -- ./inp_files/29747.got.cif
#   From: 2010.05.17/outbox.ucp.g08.bks.cvg/sg62_15_cif.got.tgz:29747.got - 2010.06.11 16:29:25.
