data_PCOD9467127
_publ_section_title
;
Structure prediction by ZEFSAII (Michael W. Deem and Ramdas Pophale) SiO2 
 PCOD9467127
Probable space group: P N M A
;
_chemical_formula_sum "Si O2"
_cell_formula_units_Z 40
_cell_length_a 6.900524
_cell_length_b 10.302126
_cell_length_c 20.339183
_cell_angle_alpha 90.000000
_cell_angle_beta 90.000000
_cell_angle_gamma 90.000000
_cell_volume 1445.913897
_symmetry_space_group_name_H-M "P N M A"
_symmetry_group_IT_number 62
_symmetry_cell_setting 'orthorhombic'
loop_
_space_group_symop_operation_xyz
x,y,z
1/2-x,-y,1/2+z
1/2+x,1/2-y,1/2-z
-x,1/2+y,-z
-x,-y,-z
1/2+x,y,1/2-z
1/2-x,1/2+y,1/2+z
x,1/2-y,z
loop_
_atom_site_type_symbol
_atom_site_label
_atom_site_fract_x
_atom_site_fract_y
_atom_site_fract_z
Si Si1 0.426523 0.750000 0.823181
Si Si2 0.445652 0.250000 0.026392
Si Si3 0.299106 0.472852 0.198813
Si Si4 0.370555 0.250000 0.502206
Si Si5 0.986648 0.750000 0.851200
Si Si6 0.861837 0.570426 0.031003
Si Si7 0.159247 0.597516 0.335612
O O1 0.526496 0.628996 0.789928
O O2 0.488431 0.750000 0.898538
O O3 0.198384 0.750000 0.818623
O O4 0.642627 0.250000 0.986361
O O5 0.958921 0.250000 0.072530
O O6 0.318069 0.124153 0.011049
O O7 0.139605 0.379613 0.164757
O O8 0.235885 0.547557 0.264513
O O9 0.428323 0.571297 0.155419
O O10 0.402189 0.421110 0.507423
O O11 0.933363 0.750000 0.049134
O O12 0.782793 0.536678 0.103920
O O13 0.188183 0.750000 0.335883
#
# Coordination Sequence:
#
# PCOD9467127 Si02
#       7
#     4   4   8   4   4   8   8
#     4  10  25  51  87 128 163 202 283 360 440 485
#     4  10  23  51  79 122 152 208 267 339 424 493
#     4  11  27  49  82 118 162 219 274 348 416 506
#     4  10  23  51  80 117 158 199 264 350 413 493
#     4  10  25  53  86 125 161 201 282 361 431 493
#     4  11  25  49  80 117 160 211 275 342 412 492
#     4  12  28  55  77 116 170 230 281 332 422 521
#
# _framework density 27.664164
#
# number of rings (size 3 to 8) (size 9 to 14) (size 15 to 20)
#    0.000    1.200    2.000    3.000    8.400    5.600 
#    7.200    4.000    0.000    0.000    0.000    0.000 
#    0.000    0.000    0.000    0.000    0.000    0.000 
#
# Total GULP energy -223596.925207 kJ/mol
# GULP energy per Si atom -5589.923130 kJ/mol
# Density = 2.760120 g / cm^3
# Si number density = 27.664164 Si / 1000 Ang^3
#
#
#
# Elastic Constant Matrix: (Units=GPa)
#
#
# Indices 1 2 3 4 5 6 
#
# 1 239.6495 103.3725 84.4759 0.0000 0.0000 0.0000
# 2 103.3725 173.0802 43.5468 0.0000 0.0000 0.0000
# 3 84.4759 43.5468 144.1594 0.0000 0.0000 0.0000
# 4 0.0000 0.0000 0.0000 46.7716 0.0000 0.0000
# 5 0.0000 0.0000 0.0000 0.0000 50.4315 0.0000
# 6 0.0000 0.0000 0.0000 0.0000 0.0000 59.7199
#
#
#
# Elastic Compliance Matrix: (Units=1/GPa)
#
#
# Indices 1 2 3 4 5 6 
#
# 1 0.006568 -0.003198 -0.002883 0.000000 0.000000 0.000000
# 2 -0.003198 0.007810 -0.000485 0.000000 0.000000 0.000000
# 3 -0.002883 -0.000485 0.008773 0.000000 0.000000 0.000000
# 4 0.000000 0.000000 0.000000 0.021380 0.000000 0.000000
# 5 0.000000 0.000000 0.000000 0.000000 0.019829 0.000000
# 6 0.000000 0.000000 0.000000 0.000000 0.000000 0.016745
#
#
# Mechanical properties :
#
#
# Convention : Reuss Voigt Hill
#
# Bulk Modulus (GPa) = 99.81265 113.29771 106.55518
# Shear Modulus (GPa) = 51.24197 53.08419 52.16308
#
# Velocity S-wave (km/s) = 4.30849 4.38525 4.34704
# Velocity P-wave (km/s) = 7.80444 8.16604 7.98728
#
# Compressibility (1/GPa) = 0.01001877
#
# Stress axis : x y z
#
# Youngs Moduli (GPa) = 152.24658 128.04883 113.98857
#
# Poissons Ratio (x) = 0.40944 0.32864
# Poissons Ratio (y) = 0.48682 0.05532
# Poissons Ratio (z) = 0.43894 0.06214
#
# Static dielectric constant tensor:
#      x y z
#    x 2.080850 0.000000 0.000000 
#    y 0.000000 7.143490 0.000000 
#    z 0.000000 0.000000 2.236980 
# 
# From -- ./inp_files/26494.got.cif
#   From: 2010.05.17/outbox.cif.g08.bks.cpg/sg62_14_cif.got.tgz:26494.got - 2010.06.03 15:25:27.
