data_PCOD9467936
_publ_section_title
;
Structure prediction by ZEFSAII (Michael W. Deem and Ramdas Pophale) SiO2 
 PCOD9467936
Probable space group: P N M A
;
_chemical_formula_sum "Si O2"
_cell_formula_units_Z 64
_cell_length_a 15.000000
_cell_length_b 9.000000
_cell_length_c 24.000000
_cell_angle_alpha 90.000000
_cell_angle_beta 90.000000
_cell_angle_gamma 90.000000
_cell_volume 3240.000000
_symmetry_space_group_name_H-M "P N M A"
_symmetry_group_IT_number 62
_symmetry_cell_setting 'orthorhombic'
loop_
_space_group_symop_operation_xyz
x,y,z
1/2-x,-y,1/2+z
1/2+x,1/2-y,1/2-z
-x,1/2+y,-z
-x,-y,-z
1/2+x,y,1/2-z
1/2-x,1/2+y,1/2+z
x,1/2-y,z
loop_
_atom_site_type_symbol
_atom_site_label
_atom_site_fract_x
_atom_site_fract_y
_atom_site_fract_z
Si Si1 0.922060 0.427367 0.243592
Si Si2 0.275968 0.928894 0.756378
Si Si3 0.250150 0.924802 0.020634
Si Si4 0.795024 0.077423 0.861766
Si Si5 0.498363 0.077966 0.643246
Si Si6 0.557824 0.068049 0.168279
Si Si7 0.433918 0.924654 0.957526
Si Si8 0.581281 0.426261 0.531920
O O1 0.916981 0.250000 0.245866
O O2 0.823584 0.483185 0.228696
O O3 0.990169 0.475679 0.196186
O O4 0.966639 0.478755 0.301157
O O5 0.277330 0.750000 0.759040
O O6 0.356169 0.982013 0.795867
O O7 0.287124 0.979862 0.692914
O O8 0.224647 0.750000 0.022105
O O9 0.336405 0.940905 0.983245
O O10 0.172063 0.017921 0.993638
O O11 0.263221 0.968792 0.085206
O O12 0.776819 0.250000 0.847659
O O13 0.898521 0.067794 0.880502
O O14 0.512078 0.250000 0.659305
O O15 0.568849 0.033425 0.596544
O O16 0.560209 0.250000 0.168266
O O17 0.561853 0.015506 0.105111
O O18 0.454955 0.750000 0.954889
O O19 0.500000 0.000000 0.000000
O O20 0.500000 0.500000 0.500000
O O21 0.573048 0.250000 0.527894
#
# Coordination Sequence:
#
# PCOD9467936 Si02
#       8
#     8   8   8   8   8   8   8   8
#     4  10  21  36  59  85 111 149 192 235 287 349
#     4  10  21  36  58  88 113 146 193 237 289 349
#     4  10  22  40  60  85 117 159 202 242 294 354
#     4  10  20  37  57  81 117 152 189 239 291 347
#     4  10  21  37  55  81 118 151 184 233 287 344
#     4   9  19  38  57  83 119 146 187 247 291 333
#     4  10  23  42  64  85 116 159 201 253 300 343
#     4  11  22  37  57  85 121 157 191 237 290 350
#
# _framework density 19.753086
#
# number of rings (size 3 to 8) (size 9 to 14) (size 15 to 20)
#    0.000    2.000    2.500    0.375    3.500    2.500 
#    0.000    1.250    0.000    0.000    0.000    0.000 
#    0.000    0.000    0.000    0.000    0.000    0.000 
#
# Total GULP energy -356891.755833 kJ/mol
# GULP energy per Si atom -5576.433685 kJ/mol
# Density = 1.970813 g / cm^3
# Si number density = 19.753086 Si / 1000 Ang^3
#
#
#
# Elastic Constant Matrix: (Units=GPa)
#
#
# Indices 1 2 3 4 5 6 
#
# 1 29.0901 24.6629 24.2093 0.0000 0.0000 0.0000
# 2 24.6629 -9.4324 23.9225 0.0000 0.0000 0.0000
# 3 24.2093 23.9225 105.3526 0.0000 0.0000 0.0000
# 4 0.0000 0.0000 0.0000 24.7134 0.0000 0.0000
# 5 0.0000 0.0000 0.0000 0.0000 22.6636 0.0000
# 6 0.0000 0.0000 0.0000 0.0000 0.0000 13.2207
#
#
#
# Elastic Compliance Matrix: (Units=1/GPa)
#
#
# Indices 1 2 3 4 5 6 
#
# 1 0.020730 0.026729 -0.010833 0.000000 0.000000 0.000000
# 2 0.026729 -0.032811 0.001308 0.000000 0.000000 0.000000
# 3 -0.010833 0.001308 0.011684 0.000000 0.000000 0.000000
# 4 0.000000 0.000000 0.000000 0.040464 0.000000 0.000000
# 5 0.000000 0.000000 0.000000 0.000000 0.044124 0.000000
# 6 0.000000 0.000000 0.000000 0.000000 0.000000 0.075639
#
#
# Mechanical properties :
#
#
# Convention : Reuss Voigt Hill
#
# Bulk Modulus (GPa) = 29.40158 30.06664 29.73411
# Shear Modulus (GPa) = 36.56088 15.60060 26.08074
#
# Velocity S-wave (km/s) = 4.30687 2.81335 3.63759
# Velocity P-wave (km/s) = 6.29675 5.08011 5.72086
#
# Compressibility (1/GPa) = 0.03401177
#
# Stress axis : x y z
#
# Youngs Moduli (GPa) = 48.23861 -30.47738 85.58571
#
# Poissons Ratio (x) = 0.81463 0.92715
# Poissons Ratio (y) = -1.28937 -0.11198
# Poissons Ratio (z) = 0.52257 0.03987
#
# Static dielectric constant tensor:
#      x y z
#    x 1.746520 0.000000 0.000000 
#    y 0.000000 1.634930 0.000000 
#    z 0.000000 0.000000 1.708980 
# 
# From -- ./inp_files/29919.got.cif
#   From: 2010.05.17/outbox.ucp.g08.bks.cvg/sg62_15_cif.got.tgz:29919.got - 2010.06.11 16:29:25.
