data_PCOD9467463
_publ_section_title
;
Structure prediction by ZEFSAII (Michael W. Deem and Ramdas Pophale) SiO2 
 PCOD9467463
Probable space group: P N M A
;
_chemical_formula_sum "Si O2"
_cell_formula_units_Z 48
_cell_length_a 8.139575
_cell_length_b 16.219931
_cell_length_c 15.804836
_cell_angle_alpha 90.000000
_cell_angle_beta 90.000000
_cell_angle_gamma 90.000000
_cell_volume 2086.607314
_symmetry_space_group_name_H-M "P N M A"
_symmetry_group_IT_number 62
_symmetry_cell_setting 'orthorhombic'
loop_
_space_group_symop_operation_xyz
x,y,z
1/2-x,-y,1/2+z
1/2+x,1/2-y,1/2-z
-x,1/2+y,-z
-x,-y,-z
1/2+x,y,1/2-z
1/2-x,1/2+y,1/2+z
x,1/2-y,z
loop_
_atom_site_type_symbol
_atom_site_label
_atom_site_fract_x
_atom_site_fract_y
_atom_site_fract_z
Si Si1 0.376263 0.160187 0.639450
Si Si2 0.368677 0.515609 0.573153
Si Si3 0.571344 0.342593 0.147333
Si Si4 0.430112 0.091882 0.988653
Si Si5 0.748411 0.115140 0.680376
Si Si6 0.118234 0.566660 0.787580
O O1 0.338877 0.250000 0.601227
O O2 0.306402 0.076908 0.596062
O O3 0.574511 0.148914 0.645839
O O4 0.310355 0.158653 0.735430
O O5 0.500000 0.500000 0.500000
O O6 0.244407 0.581038 0.535058
O O7 0.459340 0.553449 0.653830
O O8 0.538266 0.250000 0.175929
O O9 0.540211 0.350854 0.047463
O O10 0.448308 0.403960 0.197354
O O11 0.754688 0.369303 0.172044
O O12 0.386474 0.115595 0.892875
O O13 0.500000 0.000000 0.000000
O O14 0.709460 0.021086 0.707829
#
# Coordination Sequence:
#
# PCOD9467463 Si02
#       6
#     8   8   8   8   8   8
#     4  11  24  41  66  99 132 167 218 278 333 384
#     4  11  22  44  70  95 126 176 230 272 323 402
#     4  12  25  42  66 101 138 173 220 283 344 393
#     4  12  24  44  70  97 133 176 228 274 327 405
#     4  11  23  43  71  92 131 178 221 266 324 403
#     4  11  22  44  70  95 132 179 229 268 328 414
#
# _framework density 23.003848000000001
#
# number of rings (size 3 to 8) (size 9 to 14) (size 15 to 20)
#    0.000    0.667    5.000    5.000    2.333    1.333 
#    0.000    5.000    0.000    0.000    0.000    0.000 
#    0.000    0.000    0.000    0.000    0.000    0.000 
#
# Total GULP energy -268587.848695 kJ/mol
# GULP energy per Si atom -5595.580181 kJ/mol
# Density = 2.295149 g / cm^3
# Si number density = 23.003848 Si / 1000 Ang^3
#
#
#
# Elastic Constant Matrix: (Units=GPa)
#
#
# Indices 1 2 3 4 5 6 
#
# 1 40.5067 -11.2583 0.3045 0.0000 0.0000 0.0000
# 2 -11.2583 87.9808 28.8257 0.0000 0.0000 0.0000
# 3 0.3045 28.8257 71.3905 0.0000 0.0000 0.0000
# 4 0.0000 0.0000 0.0000 21.8506 0.0000 0.0000
# 5 0.0000 0.0000 0.0000 0.0000 42.3322 0.0000
# 6 0.0000 0.0000 0.0000 0.0000 0.0000 8.1510
#
#
#
# Elastic Compliance Matrix: (Units=1/GPa)
#
#
# Indices 1 2 3 4 5 6 
#
# 1 0.025767 0.003841 -0.001661 0.000000 0.000000 0.000000
# 2 0.003841 0.013672 -0.005537 0.000000 0.000000 0.000000
# 3 -0.001661 -0.005537 0.016250 0.000000 0.000000 0.000000
# 4 0.000000 0.000000 0.000000 0.045765 0.000000 0.000000
# 5 0.000000 0.000000 0.000000 0.000000 0.023623 0.000000
# 6 0.000000 0.000000 0.000000 0.000000 0.000000 0.122684
#
#
# Mechanical properties :
#
#
# Convention : Reuss Voigt Hill
#
# Bulk Modulus (GPa) = 20.41779 26.18019 23.29899
# Shear Modulus (GPa) = 18.46383 26.60050 22.53217
#
# Velocity S-wave (km/s) = 2.83617 3.40420 3.13308
# Velocity P-wave (km/s) = 4.42947 5.18237 4.82064
#
# Compressibility (1/GPa) = 0.04897691
#
# Stress axis : x y z
#
# Youngs Moduli (GPa) = 38.80866 73.14380 61.53802
#
# Poissons Ratio (x) = -0.28098 0.10221
# Poissons Ratio (y) = -0.14908 0.34072
# Poissons Ratio (z) = 0.06446 0.40497
#
# Static dielectric constant tensor:
#      x y z
#    x 1.920000 0.000000 0.000000 
#    y 0.000000 1.828500 0.000000 
#    z 0.000000 0.000000 1.885830 
# 
# From -- ./inp_files/16978.got.cif
#   From: 2010.05.17/outbox.cif.g08.bks.cpg/sg62_9_cif.got.tgz:16978.got - 2010.06.03 15:25:27.
