data_PCOD9467776
_publ_section_title
;
Structure prediction by ZEFSAII (Michael W. Deem and Ramdas Pophale) SiO2 
 PCOD9467776
Probable space group: P N M A
;
_chemical_formula_sum "Si O2"
_cell_formula_units_Z 56
_cell_length_a 15.000000
_cell_length_b 9.000000
_cell_length_c 21.000000
_cell_angle_alpha 90.000000
_cell_angle_beta 90.000000
_cell_angle_gamma 90.000000
_cell_volume 2835.000000
_symmetry_space_group_name_H-M "P N M A"
_symmetry_group_IT_number 62
_symmetry_cell_setting 'orthorhombic'
loop_
_space_group_symop_operation_xyz
x,y,z
1/2-x,-y,1/2+z
1/2+x,1/2-y,1/2-z
-x,1/2+y,-z
-x,-y,-z
1/2+x,y,1/2-z
1/2-x,1/2+y,1/2+z
x,1/2-y,z
loop_
_atom_site_type_symbol
_atom_site_label
_atom_site_fract_x
_atom_site_fract_y
_atom_site_fract_z
Si Si1 0.646017 0.073318 0.506340
Si Si2 0.464260 0.580783 0.719687
Si Si3 0.472890 0.075507 0.590623
Si Si4 0.381324 0.422134 0.175084
Si Si5 0.766128 0.570502 0.733561
Si Si6 0.991139 0.929765 0.568533
Si Si7 0.213243 0.071104 0.406213
O O1 0.655411 0.250000 0.503182
O O2 0.563790 0.034038 0.553708
O O3 0.611263 0.009945 0.439532
O O4 0.734260 0.001649 0.535589
O O5 0.460165 0.750000 0.693796
O O6 0.483574 0.469230 0.663238
O O7 0.540549 0.579228 0.772407
O O8 0.369049 0.546327 0.750561
O O9 0.459441 0.250000 0.581714
O O10 0.358367 0.250000 0.159446
O O11 0.296629 0.490826 0.210653
O O12 0.428687 0.487261 0.113131
O O13 0.752425 0.750000 0.732095
O O14 0.746793 0.519084 0.661723
O O15 0.996808 0.750000 0.566587
O O16 0.891927 0.964036 0.593915
O O17 0.000000 0.000000 0.500000
O O18 0.221967 0.250000 0.410164
#
# Coordination Sequence:
#
# PCOD9467776 Si02
#       7
#     8   8   8   8   8   8   8
#     4  10  21  36  55  79 108 145 189 228 272 340
#     4  10  18  32  55  81 107 140 183 227 274 332
#     4  10  21  36  53  79 114 146 177 225 286 334
#     4   9  17  32  54  80 110 142 184 236 280 328
#     4   9  17  30  54  83 107 141 186 230 279 334
#     4  10  21  37  56  80 113 152 192 237 287 341
#     4  10  19  35  57  82 112 146 188 237 291 343
#
# _framework density 19.753086
#
# number of rings (size 3 to 8) (size 9 to 14) (size 15 to 20)
#    0.000    2.286    1.429    1.714    0.000    4.571 
#    0.000    2.857    0.000    1.714    0.000    0.000 
#    0.000    0.000    0.000    0.000    0.000    0.000 
#
# Total GULP energy -312350.721668 kJ/mol
# GULP energy per Si atom -5577.691458 kJ/mol
# Density = 1.970813 g / cm^3
# Si number density = 19.753086 Si / 1000 Ang^3
#
#
#
# Elastic Constant Matrix: (Units=GPa)
#
#
# Indices 1 2 3 4 5 6 
#
# 1 31.0490 9.3304 -14.0311 0.0000 0.0000 0.0000
# 2 9.3304 -0.2346 3.9215 0.0000 0.0000 0.0000
# 3 -14.0311 3.9215 60.5837 0.0000 0.0000 0.0000
# 4 0.0000 0.0000 0.0000 23.1375 0.0000 0.0000
# 5 0.0000 0.0000 0.0000 0.0000 10.3876 0.0000
# 6 0.0000 0.0000 0.0000 0.0000 0.0000 17.0948
#
#
#
# Elastic Compliance Matrix: (Units=1/GPa)
#
#
# Indices 1 2 3 4 5 6 
#
# 1 0.004125 0.086469 -0.004642 0.000000 0.000000 0.000000
# 2 0.086469 -0.234777 0.035223 0.000000 0.000000 0.000000
# 3 -0.004642 0.035223 0.013151 0.000000 0.000000 0.000000
# 4 0.000000 0.000000 0.000000 0.043220 0.000000 0.000000
# 5 0.000000 0.000000 0.000000 0.000000 0.096269 0.000000
# 6 0.000000 0.000000 0.000000 0.000000 0.000000 0.058497
#
#
# Mechanical properties :
#
#
# Convention : Reuss Voigt Hill
#
# Bulk Modulus (GPa) = 60.24125 9.98218 35.11171
# Shear Modulus (GPa) = -20.15465 16.26912 -1.94276
#
# Velocity S-wave (km/s) = -3.19772 2.87300 -0.99280
# Velocity P-wave (km/s) = 4.11454 4.00873 4.06198
#
# Compressibility (1/GPa) = 0.01659992
#
# Stress axis : x y z
#
# Youngs Moduli (GPa) = 242.41078 -4.25936 76.03876
#
# Poissons Ratio (x) = 0.36830 0.35294
# Poissons Ratio (y) = -20.96103 -2.67830
# Poissons Ratio (z) = 1.12518 0.15003
#
# Static dielectric constant tensor:
#      x y z
#    x 1.709220 0.000000 0.000000 
#    y 0.000000 1.667150 0.000000 
#    z 0.000000 0.000000 1.711900 
# 
# From -- ./inp_files/27167.got.cif
#   From: 2010.05.17/outbox.ucp.g08.bks.cvg/sg62_14_cif.got.tgz:27167.got - 2010.06.11 16:29:25.
