data_PCOD9467092
_publ_section_title
;
Structure prediction by ZEFSAII (Michael W. Deem and Ramdas Pophale) SiO2 
 PCOD9467092
Probable space group: P N M A
;
_chemical_formula_sum "Si O2"
_cell_formula_units_Z 40
_cell_length_a 7.676558
_cell_length_b 17.852134
_cell_length_c 11.991446
_cell_angle_alpha 90.000000
_cell_angle_beta 90.000000
_cell_angle_gamma 90.000000
_cell_volume 1643.343040
_symmetry_space_group_name_H-M "P N M A"
_symmetry_group_IT_number 62
_symmetry_cell_setting 'orthorhombic'
loop_
_space_group_symop_operation_xyz
x,y,z
1/2-x,-y,1/2+z
1/2+x,1/2-y,1/2-z
-x,1/2+y,-z
-x,-y,-z
1/2+x,y,1/2-z
1/2-x,1/2+y,1/2+z
x,1/2-y,z
loop_
_atom_site_type_symbol
_atom_site_label
_atom_site_fract_x
_atom_site_fract_y
_atom_site_fract_z
Si Si1 0.361850 0.933653 0.118179
Si Si2 0.229457 0.370764 0.399586
Si Si3 0.589935 0.331407 0.506204
Si Si4 0.926914 0.338029 0.762706
Si Si5 0.362715 0.397608 0.151595
O O1 0.203623 0.900254 0.189669
O O2 0.504264 0.869556 0.145412
O O3 0.417984 0.015310 0.154988
O O4 0.303186 0.936545 0.990048
O O5 0.389703 0.330289 0.461830
O O6 0.296650 0.381899 0.275370
O O7 0.028612 0.346588 0.380752
O O8 0.667122 0.250000 0.482319
O O9 0.575103 0.340818 0.639189
O O10 0.705192 0.388645 0.435943
O O11 0.872976 0.250000 0.759808
#
# Coordination Sequence:
#
# PCOD9467092 Si02
#       5
#     8   8   8   8   8
#     4  11  25  41  70 102 141 175 234 290 342 421
#     4  11  25  44  66 101 138 179 231 286 345 409
#     4  10  25  46  68  97 136 185 239 286 343 414
#     4  10  23  44  68  98 136 181 231 291 353 408
#     4  12  24  44  70 102 140 184 232 282 354 407
#
# _framework density 24.340627999999999
#
# number of rings (size 3 to 8) (size 9 to 14) (size 15 to 20)
#    0.000    1.200    2.000    2.400    5.600    4.000 
#    0.000    0.000    0.000    0.000    0.000    0.000 
#    0.000    0.000    0.000    0.000    0.000    0.000 
#
# Total GULP energy -223052.085093 kJ/mol
# GULP energy per Si atom -5576.302127 kJ/mol
# Density = 2.428523 g / cm^3
# Si number density = 24.340628 Si / 1000 Ang^3
#
#
#
# Elastic Constant Matrix: (Units=GPa)
#
#
# Indices 1 2 3 4 5 6 
#
# 1 101.7657 24.7051 32.2403 0.0000 0.0000 0.0000
# 2 24.7051 86.8051 21.7846 0.0000 0.0000 0.0000
# 3 32.2403 21.7846 125.3857 0.0000 0.0000 0.0000
# 4 0.0000 0.0000 0.0000 18.6588 0.0000 0.0000
# 5 0.0000 0.0000 0.0000 0.0000 43.9040 0.0000
# 6 0.0000 0.0000 0.0000 0.0000 0.0000 24.2152
#
#
#
# Elastic Compliance Matrix: (Units=1/GPa)
#
#
# Indices 1 2 3 4 5 6 
#
# 1 0.011226 -0.002583 -0.002438 0.000000 0.000000 0.000000
# 2 -0.002583 0.012640 -0.001532 0.000000 0.000000 0.000000
# 3 -0.002438 -0.001532 0.008868 0.000000 0.000000 0.000000
# 4 0.000000 0.000000 0.000000 0.053594 0.000000 0.000000
# 5 0.000000 0.000000 0.000000 0.000000 0.022777 0.000000
# 6 0.000000 0.000000 0.000000 0.000000 0.000000 0.041296
#
#
# Mechanical properties :
#
#
# Convention : Reuss Voigt Hill
#
# Bulk Modulus (GPa) = 50.94630 52.37962 51.66296
# Shear Modulus (GPa) = 29.40325 33.03739 31.22032
#
# Velocity S-wave (km/s) = 3.47939 3.68814 3.58528
# Velocity P-wave (km/s) = 6.09241 6.30101 6.19759
#
# Compressibility (1/GPa) = 0.01962851
#
# Stress axis : x y z
#
# Youngs Moduli (GPa) = 89.07992 79.11603 112.76070
#
# Poissons Ratio (x) = 0.20437 0.27488
# Poissons Ratio (y) = 0.23011 0.17273
# Poissons Ratio (z) = 0.21715 0.12119
#
# Static dielectric constant tensor:
#      x y z
#    x 2.046020 0.000000 0.000000 
#    y 0.000000 1.845530 0.000000 
#    z 0.000000 0.000000 1.909080 
# 
# From -- ./inp_files/11075.got.cif
#   From: 2010.05.17/outbox.cif.g08.bks.cpg/sg62_6_cif.got.tgz:11075.got - 2010.06.03 15:25:27.
