data_PCOD9467950
_publ_section_title
;
Structure prediction by ZEFSAII (Michael W. Deem and Ramdas Pophale) SiO2 
 PCOD9467950
Probable space group: P N M A
;
_chemical_formula_sum "Si O2"
_cell_formula_units_Z 48
_cell_length_a 9.000000
_cell_length_b 9.000000
_cell_length_c 30.000000
_cell_angle_alpha 90.000000
_cell_angle_beta 90.000000
_cell_angle_gamma 90.000000
_cell_volume 2430.000000
_symmetry_space_group_name_H-M "P N M A"
_symmetry_group_IT_number 62
_symmetry_cell_setting 'orthorhombic'
loop_
_space_group_symop_operation_xyz
x,y,z
1/2-x,-y,1/2+z
1/2+x,1/2-y,1/2-z
-x,1/2+y,-z
-x,-y,-z
1/2+x,y,1/2-z
1/2-x,1/2+y,1/2+z
x,1/2-y,z
loop_
_atom_site_type_symbol
_atom_site_label
_atom_site_fract_x
_atom_site_fract_y
_atom_site_fract_z
Si Si1 0.797291 0.414052 0.111768
Si Si2 0.375612 0.579611 0.473927
Si Si3 0.792472 0.425835 0.210948
Si Si4 0.438287 0.421993 0.119616
Si Si5 0.372257 0.927595 0.029012
Si Si6 0.471379 0.572129 0.210370
O O1 0.838021 0.250000 0.095205
O O2 0.849874 0.529852 0.076216
O O3 0.857979 0.435498 0.161225
O O4 0.618307 0.418799 0.115661
O O5 0.500000 0.500000 0.500000
O O6 0.400563 0.750000 0.474017
O O7 0.249144 0.525552 0.505947
O O8 0.762047 0.250000 0.219131
O O9 0.641991 0.520446 0.210865
O O10 0.897663 0.497658 0.247009
O O11 0.388470 0.250000 0.116197
O O12 0.384145 0.527004 0.080232
O O13 0.401075 0.495791 0.166688
O O14 0.360805 0.750000 0.023331
O O15 0.500000 0.000000 0.000000
O O16 0.457950 0.750000 0.209518
#
# Coordination Sequence:
#
# PCOD9467950 Si02
#       6
#     8   8   8   8   8   8
#     4   9  19  37  62  87 116 154 200 243 293 356
#     4  12  25  41  61  86 122 160 199 247 300 356
#     4  10  21  40  64  88 119 159 201 243 298 360
#     4  10  20  37  62  90 120 156 199 245 296 351
#     4  12  23  38  62  91 121 155 200 246 292 347
#     4  11  22  38  61  91 124 155 198 250 299 353
#
# _framework density 19.753086
#
# number of rings (size 3 to 8) (size 9 to 14) (size 15 to 20)
#    0.000    1.333    1.667    6.500    0.000    3.333 
#    3.000    0.000    0.000    0.000    0.000    0.000 
#    0.000    0.000    0.000    0.000    0.000    0.000 
#
# Total GULP energy -267215.532533 kJ/mol
# GULP energy per Si atom -5566.990261 kJ/mol
# Density = 1.970813 g / cm^3
# Si number density = 19.753086 Si / 1000 Ang^3
#
#
#
# Elastic Constant Matrix: (Units=GPa)
#
#
# Indices 1 2 3 4 5 6 
#
# 1 113.7566 118.5211 47.9359 0.0000 0.0000 0.0000
# 2 118.5211 331.9802 121.4248 0.0000 0.0000 0.0000
# 3 47.9359 121.4248 89.3885 0.0000 0.0000 0.0000
# 4 0.0000 0.0000 0.0000 41.0759 0.0000 0.0000
# 5 0.0000 0.0000 0.0000 0.0000 69.8045 0.0000
# 6 0.0000 0.0000 0.0000 0.0000 0.0000 20.7179
#
#
#
# Elastic Compliance Matrix: (Units=1/GPa)
#
#
# Indices 1 2 3 4 5 6 
#
# 1 0.014089 -0.004505 -0.001437 0.000000 0.000000 0.000000
# 2 -0.004505 0.007427 -0.007673 0.000000 0.000000 0.000000
# 3 -0.001437 -0.007673 0.022380 0.000000 0.000000 0.000000
# 4 0.000000 0.000000 0.000000 0.024345 0.000000 0.000000
# 5 0.000000 0.000000 0.000000 0.000000 0.014326 0.000000
# 6 0.000000 0.000000 0.000000 0.000000 0.000000 0.048268
#
#
# Mechanical properties :
#
#
# Convention : Reuss Voigt Hill
#
# Bulk Modulus (GPa) = 59.99394 123.43210 91.71302
# Shear Modulus (GPa) = 30.55870 42.80256 36.68063
#
# Velocity S-wave (km/s) = 3.93750 4.66003 4.31392
# Velocity P-wave (km/s) = 7.14911 9.56962 8.44652
#
# Compressibility (1/GPa) = 0.01666835
#
# Stress axis : x y z
#
# Youngs Moduli (GPa) = 70.97553 134.64552 44.68199
#
# Poissons Ratio (x) = 0.60653 0.06419
# Poissons Ratio (y) = 0.31972 0.34284
# Poissons Ratio (z) = 0.10196 1.03313
#
# Static dielectric constant tensor:
#      x y z
#    x 1.693920 0.000000 0.000000 
#    y 0.000000 1.644090 0.000000 
#    z 0.000000 0.000000 1.697190 
# 
# From -- ./inp_files/32021.got.cif
#   From: 2010.05.17/outbox.ucp.g08.bks.cvg/sg62_17_cif.got.tgz:32021.got - 2010.06.11 16:29:25.
