data_PCOD9467299
_publ_section_title
;
Structure prediction by ZEFSAII (Michael W. Deem and Ramdas Pophale) SiO2 
 PCOD9467299
Probable space group: P N M A
;
_chemical_formula_sum "Si O2"
_cell_formula_units_Z 40
_cell_length_a 17.654638
_cell_length_b 20.887132
_cell_length_c 5.358376
_cell_angle_alpha 90.000000
_cell_angle_beta 90.000000
_cell_angle_gamma 90.000000
_cell_volume 1975.926625
_symmetry_space_group_name_H-M "P N M A"
_symmetry_group_IT_number 62
_symmetry_cell_setting 'orthorhombic'
loop_
_space_group_symop_operation_xyz
x,y,z
1/2-x,-y,1/2+z
1/2+x,1/2-y,1/2-z
-x,1/2+y,-z
-x,-y,-z
1/2+x,y,1/2-z
1/2-x,1/2+y,1/2+z
x,1/2-y,z
loop_
_atom_site_type_symbol
_atom_site_label
_atom_site_fract_x
_atom_site_fract_y
_atom_site_fract_z
Si Si1 0.564506 0.013287 0.200314
Si Si2 0.677056 0.071088 0.827287
Si Si3 0.160779 0.563511 0.971171
Si Si4 0.523365 0.629543 0.686662
Si Si5 0.052338 0.323266 0.707387
O O1 0.523121 0.063886 0.374816
O O2 0.600074 0.950467 0.313113
O O3 0.635250 0.048145 0.076807
O O4 0.500000 0.000000 0.000000
O O5 0.762233 0.087669 0.906243
O O6 0.624874 0.130349 0.742689
O O7 0.675370 0.006967 0.653294
O O8 0.112186 0.610556 0.795369
O O9 0.502204 0.672748 0.449696
O O10 0.489973 0.654382 0.951024
O O11 0.076700 0.250000 0.672742
#
# Coordination Sequence:
#
# PCOD9467299 Si02
#       5
#     8   8   8   8   8
#     4  11  20  35  59  93 134 168 201 255 331 401
#     4  11  23  36  63  96 135 168 200 271 339 400
#     4  12  21  37  60 101 135 156 209 269 355 392
#     4  11  23  39  68  92 126 169 214 273 316 379
#     4  11  25  46  65  89 124 179 233 263 308 384
#
# _framework density 20.243666999999999
#
# number of rings (size 3 to 8) (size 9 to 14) (size 15 to 20)
#    0.000    0.800    6.000    3.600    0.000    0.000 
#    0.000    2.000    0.000    0.000    0.000    0.000 
#    0.000    0.000    0.000    0.000    0.000    0.000 
#
# Total GULP energy -223059.993274 kJ/mol
# GULP energy per Si atom -5576.499832 kJ/mol
# Density = 2.019759 g / cm^3
# Si number density = 20.243667 Si / 1000 Ang^3
#
#
#
# Elastic Constant Matrix: (Units=GPa)
#
#
# Indices 1 2 3 4 5 6 
#
# 1 147.2638 36.3769 56.6879 0.0000 0.0000 0.0000
# 2 36.3769 96.8015 23.9123 0.0000 0.0000 0.0000
# 3 56.6879 23.9123 77.7546 0.0000 0.0000 0.0000
# 4 0.0000 0.0000 0.0000 22.9318 0.0000 0.0000
# 5 0.0000 0.0000 0.0000 0.0000 26.7551 0.0000
# 6 0.0000 0.0000 0.0000 0.0000 0.0000 15.9638
#
#
#
# Elastic Compliance Matrix: (Units=1/GPa)
#
#
# Indices 1 2 3 4 5 6 
#
# 1 0.009811 -0.002078 -0.006514 0.000000 0.000000 0.000000
# 2 -0.002078 0.011620 -0.002059 0.000000 0.000000 0.000000
# 3 -0.006514 -0.002059 0.018243 0.000000 0.000000 0.000000
# 4 0.000000 0.000000 0.000000 0.043608 0.000000 0.000000
# 5 0.000000 0.000000 0.000000 0.000000 0.037376 0.000000
# 6 0.000000 0.000000 0.000000 0.000000 0.000000 0.062642
#
#
# Mechanical properties :
#
#
# Convention : Reuss Voigt Hill
#
# Bulk Modulus (GPa) = 54.42681 61.75266 58.08973
# Shear Modulus (GPa) = 23.72760 26.78633 25.25697
#
# Velocity S-wave (km/s) = 3.42731 3.64152 3.53604
# Velocity P-wave (km/s) = 6.52734 6.94635 6.74010
#
# Compressibility (1/GPa) = 0.01837330
#
# Stress axis : x y z
#
# Youngs Moduli (GPa) = 101.92303 86.06017 54.81493
#
# Poissons Ratio (x) = 0.17882 0.35707
# Poissons Ratio (y) = 0.21178 0.11284
# Poissons Ratio (z) = 0.66393 0.17716
#
# Static dielectric constant tensor:
#      x y z
#    x 1.699670 0.000000 0.000000 
#    y 0.000000 1.765580 0.000000 
#    z 0.000000 0.000000 1.948410 
# 
# From -- ./inp_files/1035.got.cif
#   From: 2010.05.17/outbox.cif.g08.bks.cpg/sg62_1_cif.got.tgz:1035.got - 2010.06.03 15:25:27.
