data_PCOD9467304
_publ_section_title
;
Structure prediction by ZEFSAII (Michael W. Deem and Ramdas Pophale) SiO2 
 PCOD9467304
Probable space group: P N M A
;
_chemical_formula_sum "Si O2"
_cell_formula_units_Z 48
_cell_length_a 13.777639
_cell_length_b 18.859704
_cell_length_c 9.586458
_cell_angle_alpha 90.000000
_cell_angle_beta 90.000000
_cell_angle_gamma 90.000000
_cell_volume 2490.966273
_symmetry_space_group_name_H-M "P N M A"
_symmetry_group_IT_number 62
_symmetry_cell_setting 'orthorhombic'
loop_
_space_group_symop_operation_xyz
x,y,z
1/2-x,-y,1/2+z
1/2+x,1/2-y,1/2-z
-x,1/2+y,-z
-x,-y,-z
1/2+x,y,1/2-z
1/2-x,1/2+y,1/2+z
x,1/2-y,z
loop_
_atom_site_type_symbol
_atom_site_label
_atom_site_fract_x
_atom_site_fract_y
_atom_site_fract_z
Si Si1 0.111948 0.925270 0.259813
Si Si2 0.336528 0.830057 0.647251
Si Si3 0.818732 0.961687 0.339511
Si Si4 0.922355 0.916345 0.613454
Si Si5 0.140658 0.882429 0.562577
Si Si6 0.056950 0.433981 0.928918
O O1 0.210316 0.932873 0.172616
O O2 0.131444 0.879157 0.396197
O O3 0.026167 0.897170 0.163705
O O4 0.082292 0.004110 0.319708
O O5 0.374333 0.750000 0.640368
O O6 0.354647 0.865648 0.796779
O O7 0.221799 0.829680 0.616135
O O8 0.392035 0.881856 0.538250
O O9 0.885481 0.922707 0.454374
O O10 0.864691 0.959967 0.185179
O O11 0.814867 0.041447 0.394904
O O12 0.031352 0.886017 0.620280
O O13 0.000000 0.500000 0.000000
#
# Coordination Sequence:
#
# PCOD9467304 Si02
#       6
#     8   8   8   8   8   8
#     4  11  20  35  66 102 124 158 207 269 322 365
#     4  12  27  43  62  91 131 173 214 270 334 393
#     4  11  20  35  65  98 125 157 208 266 317 374
#     4  11  22  39  62  95 130 164 214 262 319 385
#     4  11  20  39  63  92 128 163 208 262 322 384
#     4  12  21  39  65 101 127 162 217 272 322 377
#
# _framework density 19.269631
#
# number of rings (size 3 to 8) (size 9 to 14) (size 15 to 20)
#    0.000    0.667    8.333    1.000    2.333    2.000 
#    0.000    1.667    0.000    0.000    0.000    0.000 
#    0.000    0.000    0.000    0.000    0.000    0.000 
#
# Total GULP energy -268067.586635 kJ/mol
# GULP energy per Si atom -5584.741388 kJ/mol
# Density = 1.922577 g / cm^3
# Si number density = 19.269631 Si / 1000 Ang^3
#
#
#
# Elastic Constant Matrix: (Units=GPa)
#
#
# Indices 1 2 3 4 5 6 
#
# 1 101.7655 12.8701 12.7774 0.0000 0.0000 0.0000
# 2 12.8701 63.3146 31.2882 0.0000 0.0000 0.0000
# 3 12.7774 31.2882 85.4454 0.0000 0.0000 0.0000
# 4 0.0000 0.0000 0.0000 -1.6330 0.0000 0.0000
# 5 0.0000 0.0000 0.0000 0.0000 32.7391 0.0000
# 6 0.0000 0.0000 0.0000 0.0000 0.0000 15.4157
#
#
#
# Elastic Compliance Matrix: (Units=1/GPa)
#
#
# Indices 1 2 3 4 5 6 
#
# 1 0.010146 -0.001603 -0.000930 0.000000 0.000000 0.000000
# 2 -0.001603 0.019537 -0.006914 0.000000 0.000000 0.000000
# 3 -0.000930 -0.006914 0.014374 0.000000 0.000000 0.000000
# 4 0.000000 0.000000 0.000000 -0.612386 0.000000 0.000000
# 5 0.000000 0.000000 0.000000 0.000000 0.030545 0.000000
# 6 0.000000 0.000000 0.000000 0.000000 0.000000 0.064869
#
#
# Mechanical properties :
#
#
# Convention : Reuss Voigt Hill
#
# Bulk Modulus (GPa) = 39.74156 40.48853 40.11505
# Shear Modulus (GPa) = -11.21999 22.21036 5.49518
#
# Velocity S-wave (km/s) = -2.41563 3.39869 1.69054
# Velocity P-wave (km/s) = 3.59003 6.03810 4.96724
#
# Compressibility (1/GPa) = 0.02516257
#
# Stress axis : x y z
#
# Youngs Moduli (GPa) = 98.56092 51.18565 69.56840
#
# Poissons Ratio (x) = 0.08203 0.06472
# Poissons Ratio (y) = 0.15796 0.48101
# Poissons Ratio (z) = 0.09170 0.35391
#
# Static dielectric constant tensor:
#      x y z
#    x 1.718130 0.000000 0.000000 
#    y 0.000000 1.653360 0.000000 
#    z 0.000000 0.000000 1.694170 
# 
# From -- ./inp_files/6423.got.cif
#   From: 2010.05.17/outbox.cif.g08.bks.cpg/sg62_4_cif.got.tgz:6423.got - 2010.06.03 15:25:27.
