data_PCOD9467412
_publ_section_title
;
Structure prediction by ZEFSAII (Michael W. Deem and Ramdas Pophale) SiO2 
 PCOD9467412
Probable space group: P N M A
;
_chemical_formula_sum "Si O2"
_cell_formula_units_Z 32
_cell_length_a 7.727380
_cell_length_b 17.614534
_cell_length_c 9.841436
_cell_angle_alpha 90.000000
_cell_angle_beta 90.000000
_cell_angle_gamma 90.000000
_cell_volume 1339.559166
_symmetry_space_group_name_H-M "P N M A"
_symmetry_group_IT_number 62
_symmetry_cell_setting 'orthorhombic'
loop_
_space_group_symop_operation_xyz
x,y,z
1/2-x,-y,1/2+z
1/2+x,1/2-y,1/2-z
-x,1/2+y,-z
-x,-y,-z
1/2+x,y,1/2-z
1/2-x,1/2+y,1/2+z
x,1/2-y,z
loop_
_atom_site_type_symbol
_atom_site_label
_atom_site_fract_x
_atom_site_fract_y
_atom_site_fract_z
Si Si1 0.879373 0.569286 0.454169
Si Si2 0.843305 0.389300 0.194410
Si Si3 0.502243 0.059736 0.677967
Si Si4 0.337849 0.665371 0.543784
O O1 0.821120 0.611062 0.592028
O O2 0.690165 0.553524 0.384508
O O3 0.986169 0.600467 0.324723
O O4 0.000000 0.500000 0.500000
O O5 0.922537 0.474561 0.190375
O O6 0.794812 0.366342 0.345741
O O7 0.982998 0.334545 0.128071
O O8 0.621395 0.107164 0.576063
O O9 0.293315 0.750000 0.498046
#
# Coordination Sequence:
#
# PCOD9467412 Si02
#       4
#     8   8   8   8
#     4  11  22  37  63  99 130 167 222 284 338 393
#     4  11  22  39  67  96 128 174 228 284 339 410
#     4  11  23  41  66  96 134 177 229 285 337 409
#     4  11  24  43  64  95 136 180 227 287 356 416
#
# _framework density 23.888456000000001
#
# number of rings (size 3 to 8) (size 9 to 14) (size 15 to 20)
#    0.000    1.000    0.000    9.750    0.000    4.000 
#    0.000    6.250    0.000    0.000    0.000    1.750 
#    0.000    0.000    0.000    0.000    0.000    0.000 
#
# Total GULP energy -179040.113404 kJ/mol
# GULP energy per Si atom -5595.003544 kJ/mol
# Density = 2.383408 g / cm^3
# Si number density = 23.888456 Si / 1000 Ang^3
#
#
#
# Elastic Constant Matrix: (Units=GPa)
#
#
# Indices 1 2 3 4 5 6 
#
# 1 132.0054 21.9267 28.6747 0.0000 0.0000 0.0000
# 2 21.9267 114.4861 13.4355 0.0000 0.0000 0.0000
# 3 28.6747 13.4355 93.6050 0.0000 0.0000 0.0000
# 4 0.0000 0.0000 0.0000 17.0431 0.0000 0.0000
# 5 0.0000 0.0000 0.0000 0.0000 57.6956 0.0000
# 6 0.0000 0.0000 0.0000 0.0000 0.0000 11.8550
#
#
#
# Elastic Compliance Matrix: (Units=1/GPa)
#
#
# Indices 1 2 3 4 5 6 
#
# 1 0.008305 -0.001314 -0.002356 0.000000 0.000000 0.000000
# 2 -0.001314 0.009092 -0.000902 0.000000 0.000000 0.000000
# 3 -0.002356 -0.000902 0.011534 0.000000 0.000000 0.000000
# 4 0.000000 0.000000 0.000000 0.058675 0.000000 0.000000
# 5 0.000000 0.000000 0.000000 0.000000 0.017332 0.000000
# 6 0.000000 0.000000 0.000000 0.000000 0.000000 0.084353
#
#
# Mechanical properties :
#
#
# Convention : Reuss Voigt Hill
#
# Bulk Modulus (GPa) = 50.53710 52.01892 51.27801
# Shear Modulus (GPa) = 24.38639 35.72272 30.05455
#
# Velocity S-wave (km/s) = 3.19853 3.87123 3.55085
# Velocity P-wave (km/s) = 5.90273 6.46567 6.19060
#
# Compressibility (1/GPa) = 0.01978745
#
# Stress axis : x y z
#
# Youngs Moduli (GPa) = 120.40297 109.98321 86.69766
#
# Poissons Ratio (x) = 0.14454 0.20423
# Poissons Ratio (y) = 0.15824 0.07824
# Poissons Ratio (z) = 0.28362 0.09925
#
# Static dielectric constant tensor:
#      x y z
#    x 1.989220 0.000000 0.000000 
#    y 0.000000 1.890740 0.000000 
#    z 0.000000 0.000000 1.983580 
# 
# From -- ./inp_files/11024.got.cif
#   From: 2010.05.17/outbox.cif.g08.bks.cpg/sg62_6_cif.got.tgz:11024.got - 2010.06.03 15:25:27.
