data_PCOD9467318
_publ_section_title
;
Structure prediction by ZEFSAII (Michael W. Deem and Ramdas Pophale) SiO2 
 PCOD9467318
Probable space group: P N M A
;
_chemical_formula_sum "Si O2"
_cell_formula_units_Z 48
_cell_length_a 10.530557
_cell_length_b 15.842030
_cell_length_c 14.571915
_cell_angle_alpha 90.000000
_cell_angle_beta 90.000000
_cell_angle_gamma 90.000000
_cell_volume 2430.965547
_symmetry_space_group_name_H-M "P N M A"
_symmetry_group_IT_number 62
_symmetry_cell_setting 'orthorhombic'
loop_
_space_group_symop_operation_xyz
x,y,z
1/2-x,-y,1/2+z
1/2+x,1/2-y,1/2-z
-x,1/2+y,-z
-x,-y,-z
1/2+x,y,1/2-z
1/2-x,1/2+y,1/2+z
x,1/2-y,z
loop_
_atom_site_type_symbol
_atom_site_label
_atom_site_fract_x
_atom_site_fract_y
_atom_site_fract_z
Si Si1 0.979263 0.025674 0.274254
Si Si2 0.222720 0.913444 0.225865
Si Si3 0.257848 0.842444 0.411214
Si Si4 0.599579 0.981649 0.578623
Si Si5 0.019410 0.597675 0.529083
Si Si6 0.748830 0.154831 0.973731
O O1 0.956260 0.058034 0.171252
O O2 0.979669 0.090175 0.359759
O O3 0.857915 0.962504 0.286913
O O4 0.113483 0.977240 0.262512
O O5 0.218332 0.842761 0.304386
O O6 0.201531 0.873044 0.126376
O O7 0.310971 0.750000 0.434618
O O8 0.146281 0.865744 0.482669
O O9 0.345704 0.924748 0.407628
O O10 0.702226 0.916298 0.542564
O O11 0.500000 0.000000 0.500000
O O12 0.000000 0.500000 0.500000
O O13 0.902939 0.648978 0.485509
O O14 0.790793 0.250000 0.993746
#
# Coordination Sequence:
#
# PCOD9467318 Si02
#       6
#     8   8   8   8   8   8
#     4  11  22  38  71  92 128 175 220 261 329 398
#     4  11  20  39  63 101 130 164 211 273 336 395
#     4  11  23  39  64  98 129 163 214 268 322 386
#     4  11  23  42  64  89 128 172 212 267 330 382
#     4  12  20  41  66  93 129 174 214 255 323 401
#     4  12  24  41  66  96 131 171 217 271 330 389
#
# _framework density 19.745239999999999
#
# number of rings (size 3 to 8) (size 9 to 14) (size 15 to 20)
#    0.000    0.667    6.667    2.000    0.000    0.667 
#    0.000    3.333    0.000    0.000    0.000    0.000 
#    0.000    0.000    0.000    0.000    0.000    0.000 
#
# Total GULP energy -267511.154650 kJ/mol
# GULP energy per Si atom -5573.149055 kJ/mol
# Density = 1.970030 g / cm^3
# Si number density = 19.745240 Si / 1000 Ang^3
#
#
#
# Elastic Constant Matrix: (Units=GPa)
#
#
# Indices 1 2 3 4 5 6 
#
# 1 50.1040 -0.3317 10.5712 0.0000 0.0000 0.0000
# 2 -0.3317 83.3822 19.3416 0.0000 0.0000 0.0000
# 3 10.5712 19.3416 135.6222 0.0000 0.0000 0.0000
# 4 0.0000 0.0000 0.0000 4.0715 0.0000 0.0000
# 5 0.0000 0.0000 0.0000 0.0000 30.9975 0.0000
# 6 0.0000 0.0000 0.0000 0.0000 0.0000 -1.6138
#
#
#
# Elastic Compliance Matrix: (Units=1/GPa)
#
#
# Indices 1 2 3 4 5 6 
#
# 1 0.020309 0.000463 -0.001649 0.000000 0.000000 0.000000
# 2 0.000463 0.012414 -0.001807 0.000000 0.000000 0.000000
# 3 -0.001649 -0.001807 0.007760 0.000000 0.000000 0.000000
# 4 0.000000 0.000000 0.000000 0.245608 0.000000 0.000000
# 5 0.000000 0.000000 0.000000 0.000000 0.032261 0.000000
# 6 0.000000 0.000000 0.000000 0.000000 0.000000 -0.619636
#
#
# Mechanical properties :
#
#
# Convention : Reuss Voigt Hill
#
# Bulk Modulus (GPa) = 28.98688 36.47452 32.73070
# Shear Modulus (GPa) = -17.61799 22.65952 2.52077
#
# Velocity S-wave (km/s) = -2.99032 3.39129 1.13111
# Velocity P-wave (km/s) = 1.67021 5.81783 4.28000
#
# Compressibility (1/GPa) = 0.03449837
#
# Stress axis : x y z
#
# Youngs Moduli (GPa) = 49.23806 80.55516 128.87266
#
# Poissons Ratio (x) = -0.03732 0.21253
# Poissons Ratio (y) = -0.02281 0.23281
# Poissons Ratio (z) = 0.08120 0.14552
#
# Static dielectric constant tensor:
#      x y z
#    x 1.807760 0.000000 0.000000 
#    y 0.000000 1.691080 0.000000 
#    z 0.000000 0.000000 1.875170 
# 
# From -- ./inp_files/17975.got.cif
#   From: 2010.05.17/outbox.cif.g08.bks.cpg/sg62_9_cif.got.tgz:17975.got - 2010.06.03 15:25:27.
