data_PCOD9467961
_publ_section_title
;
Structure prediction by ZEFSAII (Michael W. Deem and Ramdas Pophale) SiO2 
 PCOD9467961
Probable space group: P N M A
;
_chemical_formula_sum "Si O2"
_cell_formula_units_Z 56
_cell_length_a 15.000000
_cell_length_b 9.000000
_cell_length_c 21.000000
_cell_angle_alpha 90.000000
_cell_angle_beta 90.000000
_cell_angle_gamma 90.000000
_cell_volume 2835.000000
_symmetry_space_group_name_H-M "P N M A"
_symmetry_group_IT_number 62
_symmetry_cell_setting 'orthorhombic'
loop_
_space_group_symop_operation_xyz
x,y,z
1/2-x,-y,1/2+z
1/2+x,1/2-y,1/2-z
-x,1/2+y,-z
-x,-y,-z
1/2+x,y,1/2-z
1/2-x,1/2+y,1/2+z
x,1/2-y,z
loop_
_atom_site_type_symbol
_atom_site_label
_atom_site_fract_x
_atom_site_fract_y
_atom_site_fract_z
Si Si1 0.806175 0.573469 0.095637
Si Si2 0.508025 0.926334 0.568764
Si Si3 0.561965 0.578569 0.763736
Si Si4 0.514442 0.576429 0.909983
Si Si5 0.144317 0.927963 0.483826
Si Si6 0.581724 0.925006 0.320473
Si Si7 0.743639 0.424945 0.738748
O O1 0.826696 0.750000 0.088235
O O2 0.897448 0.483068 0.096598
O O3 0.740891 0.519893 0.039248
O O4 0.753201 0.556902 0.162267
O O5 0.506277 0.750000 0.564567
O O6 0.500000 0.000000 0.500000
O O7 0.429448 0.984334 0.614592
O O8 0.551938 0.750000 0.742444
O O9 0.527260 0.565650 0.835410
O O10 0.504218 0.469875 0.720582
O O11 0.663640 0.527858 0.761684
O O12 0.498566 0.750000 0.926351
O O13 0.431620 0.483428 0.935504
O O14 0.604246 0.529146 0.947617
O O15 0.149333 0.750000 0.480964
O O16 0.581880 0.750000 0.334126
O O17 0.666971 0.961214 0.277031
O O18 0.723468 0.250000 0.750135
#
# Coordination Sequence:
#
# PCOD9467961 Si02
#       7
#     8   8   8   8   8   8   8
#     4  10  20  38  62  89 121 160 206 256 309 373
#     4  12  26  44  66  92 123 165 209 261 320 377
#     4  11  22  36  57  87 122 160 199 250 309 366
#     4   9  19  34  52  82 121 155 195 246 299 359
#     4   9  18  34  57  83 114 156 200 243 300 361
#     4  11  23  42  65  92 125 163 210 262 317 379
#     4  10  22  38  61  89 120 160 205 257 314 374
#
# _framework density 19.753086
#
# number of rings (size 3 to 8) (size 9 to 14) (size 15 to 20)
#    0.000    1.714    1.429    3.000    0.000    5.143 
#    0.000    1.429    0.000    0.000    0.000    0.000 
#    0.000    0.000    0.000    0.000    0.000    0.000 
#
# Total GULP energy -312688.133483 kJ/mol
# GULP energy per Si atom -5583.716669 kJ/mol
# Density = 1.970813 g / cm^3
# Si number density = 19.753086 Si / 1000 Ang^3
#
#
#
# Elastic Constant Matrix: (Units=GPa)
#
#
# Indices 1 2 3 4 5 6 
#
# 1 41.5334 12.6846 10.0897 0.0000 0.0000 0.0000
# 2 12.6846 41.9127 27.6386 0.0000 0.0000 0.0000
# 3 10.0897 27.6386 64.7921 0.0000 0.0000 0.0000
# 4 0.0000 0.0000 0.0000 23.7907 0.0000 0.0000
# 5 0.0000 0.0000 0.0000 0.0000 19.3208 0.0000
# 6 0.0000 0.0000 0.0000 0.0000 0.0000 25.1412
#
#
#
# Elastic Compliance Matrix: (Units=1/GPa)
#
#
# Indices 1 2 3 4 5 6 
#
# 1 0.026574 -0.007393 -0.000984 0.000000 0.000000 0.000000
# 2 -0.007393 0.035254 -0.013887 0.000000 0.000000 0.000000
# 3 -0.000984 -0.013887 0.021511 0.000000 0.000000 0.000000
# 4 0.000000 0.000000 0.000000 0.042033 0.000000 0.000000
# 5 0.000000 0.000000 0.000000 0.000000 0.051758 0.000000
# 6 0.000000 0.000000 0.000000 0.000000 0.000000 0.039775
#
#
# Mechanical properties :
#
#
# Convention : Reuss Voigt Hill
#
# Bulk Modulus (GPa) = 25.76676 27.67378 26.72027
# Shear Modulus (GPa) = 18.22339 20.17222 19.19781
#
# Velocity S-wave (km/s) = 3.04066 3.19912 3.12090
# Velocity P-wave (km/s) = 5.03986 5.26176 5.15200
#
# Compressibility (1/GPa) = 0.03880968
#
# Stress axis : x y z
#
# Youngs Moduli (GPa) = 37.63063 28.36524 46.48733
#
# Poissons Ratio (x) = 0.20971 0.04576
# Poissons Ratio (y) = 0.27821 0.64558
# Poissons Ratio (z) = 0.03704 0.39392
#
# Static dielectric constant tensor:
#      x y z
#    x 1.687090 0.000000 0.000000 
#    y 0.000000 1.651850 0.000000 
#    z 0.000000 0.000000 1.727870 
# 
# From -- ./inp_files/27214.got.cif
#   From: 2010.05.17/outbox.ucp.g08.bks.cvg/sg62_14_cif.got.tgz:27214.got - 2010.06.11 16:29:25.
