data_PCOD9467849
_publ_section_title
;
Structure prediction by ZEFSAII (Michael W. Deem and Ramdas Pophale) SiO2 
 PCOD9467849
Probable space group: P N M A
;
_chemical_formula_sum "Si O2"
_cell_formula_units_Z 48
_cell_length_a 30.000000
_cell_length_b 9.000000
_cell_length_c 9.000000
_cell_angle_alpha 90.000000
_cell_angle_beta 90.000000
_cell_angle_gamma 90.000000
_cell_volume 2430.000000
_symmetry_space_group_name_H-M "P N M A"
_symmetry_group_IT_number 62
_symmetry_cell_setting 'orthorhombic'
loop_
_space_group_symop_operation_xyz
x,y,z
1/2-x,-y,1/2+z
1/2+x,1/2-y,1/2-z
-x,1/2+y,-z
-x,-y,-z
1/2+x,y,1/2-z
1/2-x,1/2+y,1/2+z
x,1/2-y,z
loop_
_atom_site_type_symbol
_atom_site_label
_atom_site_fract_x
_atom_site_fract_y
_atom_site_fract_z
Si Si1 0.878157 0.429801 0.252254
Si Si2 0.523769 0.085964 0.130044
Si Si3 0.201486 0.422623 0.355453
Si Si4 0.609960 0.926599 0.100591
Si Si5 0.785394 0.922884 0.290094
Si Si6 0.962334 0.414491 0.088318
O O1 0.876690 0.250000 0.244207
O O2 0.891628 0.466736 0.423477
O O3 0.829666 0.498108 0.228316
O O4 0.914521 0.482067 0.131502
O O5 0.538372 0.250000 0.082433
O O6 0.486510 0.100602 0.253738
O O7 0.567109 0.996076 0.178750
O O8 0.500000 0.000000 0.000000
O O9 0.196823 0.250000 0.316333
O O10 0.155168 0.507666 0.334121
O O11 0.241504 0.496874 0.267218
O O12 0.212025 0.432757 0.531328
O O13 0.609526 0.750000 0.110504
O O14 0.784957 0.750000 0.248009
O O15 0.955511 0.250000 0.022631
O O16 0.000000 0.500000 0.000000
#
# Coordination Sequence:
#
# PCOD9467849 Si02
#       6
#     8   8   8   8   8   8
#     4   9  18  36  58  80 111 149 186 228 277 331
#     4  11  21  36  58  85 114 146 188 233 276 329
#     4  10  21  38  59  85 115 147 185 231 280 334
#     4  10  19  35  59  86 113 145 186 233 281 331
#     4  10  21  37  59  87 112 144 188 230 278 336
#     4  10  22  39  56  81 115 150 188 230 279 333
#
# _framework density 19.753086
#
# number of rings (size 3 to 8) (size 9 to 14) (size 15 to 20)
#    0.000    2.000    1.667    2.000    0.000    4.667 
#    3.000    0.000    0.000    0.000    0.000    0.000 
#    0.000    0.000    0.000    0.000    0.000    0.000 
#
# Total GULP energy -267742.541539 kJ/mol
# GULP energy per Si atom -5577.969615 kJ/mol
# Density = 1.970813 g / cm^3
# Si number density = 19.753086 Si / 1000 Ang^3
#
#
#
# Elastic Constant Matrix: (Units=GPa)
#
#
# Indices 1 2 3 4 5 6 
#
# 1 109.9485 28.4891 -13.9162 0.0000 0.0000 0.0000
# 2 28.4891 55.9904 4.6743 0.0000 0.0000 0.0000
# 3 -13.9162 4.6743 -3.5104 0.0000 0.0000 0.0000
# 4 0.0000 0.0000 0.0000 19.7034 0.0000 0.0000
# 5 0.0000 0.0000 0.0000 0.0000 34.9635 0.0000
# 6 0.0000 0.0000 0.0000 0.0000 0.0000 36.6591
#
#
#
# Elastic Compliance Matrix: (Units=1/GPa)
#
#
# Indices 1 2 3 4 5 6 
#
# 1 0.006115 -0.000979 -0.025547 0.000000 0.000000 0.000000
# 2 -0.000979 0.016230 0.025492 0.000000 0.000000 0.000000
# 3 -0.025547 0.025492 -0.149651 0.000000 0.000000 0.000000
# 4 0.000000 0.000000 0.000000 0.050753 0.000000 0.000000
# 5 0.000000 0.000000 0.000000 0.000000 0.028601 0.000000
# 6 0.000000 0.000000 0.000000 0.000000 0.000000 0.027278
#
#
# Mechanical properties :
#
#
# Convention : Reuss Voigt Hill
#
# Bulk Modulus (GPa) = -7.72960 22.32475 7.29758
# Shear Modulus (GPa) = -80.99704 27.81061 -26.59321
#
# Velocity S-wave (km/s) = -6.41044 3.75629 -3.67315
# Velocity P-wave (km/s) = 7.66246 5.48993 3.77981
#
# Compressibility (1/GPa) = -0.12937283
#
# Stress axis : x y z
#
# Youngs Moduli (GPa) = 163.52282 61.61382 -6.68220
#
# Poissons Ratio (x) = 0.06031 -0.17071
# Poissons Ratio (y) = 0.16007 0.17034
# Poissons Ratio (z) = 4.17747 -1.57067
#
# Static dielectric constant tensor:
#      x y z
#    x 1.389560 0.000000 0.000000 
#    y 0.000000 1.726550 0.000000 
#    z 0.000000 0.000000 1.647860 
# 
# From -- ./inp_files/10192.got.cif
#   From: 2010.05.17/outbox.ucp.g08.bks.cvg/sg62_6_cif.got.tgz:10192.got - 2010.06.11 16:29:25.
