data_PCOD9467578
_publ_section_title
;
Structure prediction by ZEFSAII (Michael W. Deem and Ramdas Pophale) SiO2 
 PCOD9467578
Probable space group: P N M A
;
_chemical_formula_sum "Si O2"
_cell_formula_units_Z 24
_cell_length_a 13.034860
_cell_length_b 11.951623
_cell_length_c 7.345350
_cell_angle_alpha 90.000000
_cell_angle_beta 90.000000
_cell_angle_gamma 90.000000
_cell_volume 1144.315421
_symmetry_space_group_name_H-M "P N M A"
_symmetry_group_IT_number 62
_symmetry_cell_setting 'orthorhombic'
loop_
_space_group_symop_operation_xyz
x,y,z
1/2-x,-y,1/2+z
1/2+x,1/2-y,1/2-z
-x,1/2+y,-z
-x,-y,-z
1/2+x,y,1/2-z
1/2-x,1/2+y,1/2+z
x,1/2-y,z
loop_
_atom_site_type_symbol
_atom_site_label
_atom_site_fract_x
_atom_site_fract_y
_atom_site_fract_z
Si Si1 0.603461 0.545638 0.908219
Si Si2 0.735985 0.875237 0.250384
Si Si3 0.450807 0.374859 0.468382
O O1 0.669823 0.452312 0.804515
O O2 0.571894 0.627687 0.746405
O O3 0.500000 0.500000 0.000000
O O4 0.676407 0.591923 0.066770
O O5 0.774005 0.750000 0.231912
O O6 0.652122 0.879544 0.411473
O O7 0.500000 0.500000 0.500000
O O8 0.498452 0.250000 0.513797
#
# Coordination Sequence:
#
# PCOD9467578 Si02
#       3
#     8   8   8
#     4  12  24  45  71 104 142 189 243 296 364 426
#     4  11  25  44  67 100 143 187 238 297 359 426
#     4  11  24  45  71 104 142 186 237 296 360 429
#
# _framework density 20.973237000000001
#
# number of rings (size 3 to 8) (size 9 to 14) (size 15 to 20)
#    0.000    0.667    6.667    1.000    0.000    4.000 
#    0.000    0.000    0.000    0.000    0.000    0.000 
#    0.000    0.000    0.000    0.000    0.000    0.000 
#
# Total GULP energy -133872.365634 kJ/mol
# GULP energy per Si atom -5578.015235 kJ/mol
# Density = 2.092550 g / cm^3
# Si number density = 20.973237 Si / 1000 Ang^3
#
#
#
# Elastic Constant Matrix: (Units=GPa)
#
#
# Indices 1 2 3 4 5 6 
#
# 1 68.4126 50.6565 30.9318 0.0000 0.0000 0.0000
# 2 50.6565 172.2783 32.3116 0.0000 0.0000 0.0000
# 3 30.9318 32.3116 137.3309 0.0000 0.0000 0.0000
# 4 0.0000 0.0000 0.0000 23.8138 0.0000 0.0000
# 5 0.0000 0.0000 0.0000 0.0000 50.2090 0.0000
# 6 0.0000 0.0000 0.0000 0.0000 0.0000 11.6753
#
#
#
# Elastic Compliance Matrix: (Units=1/GPa)
#
#
# Indices 1 2 3 4 5 6 
#
# 1 0.019992 -0.005266 -0.003264 0.000000 0.000000 0.000000
# 2 -0.005266 0.007460 -0.000569 0.000000 0.000000 0.000000
# 3 -0.003264 -0.000569 0.008151 0.000000 0.000000 0.000000
# 4 0.000000 0.000000 0.000000 0.041993 0.000000 0.000000
# 5 0.000000 0.000000 0.000000 0.000000 0.019917 0.000000
# 6 0.000000 0.000000 0.000000 0.000000 0.000000 0.085651
#
#
# Mechanical properties :
#
#
# Convention : Reuss Voigt Hill
#
# Bulk Modulus (GPa) = 57.45685 67.31350 62.38518
# Shear Modulus (GPa) = 24.13558 34.74774 29.44166
#
# Velocity S-wave (km/s) = 3.39600 4.07475 3.75076
# Velocity P-wave (km/s) = 6.54460 7.36904 6.96903
#
# Compressibility (1/GPa) = 0.01740437
#
# Stress axis : x y z
#
# Youngs Moduli (GPa) = 50.01891 134.05191 122.68872
#
# Poissons Ratio (x) = 0.70597 0.40045
# Poissons Ratio (y) = 0.26342 0.06981
# Poissons Ratio (z) = 0.16326 0.07627
#
# Static dielectric constant tensor:
#      x y z
#    x 1.410780 0.000000 0.000000 
#    y 0.000000 1.821040 0.000000 
#    z 0.000000 0.000000 1.741030 
# 
# From -- ./inp_files/4696.got.cif
#   From: 2010.05.17/outbox.cif.g08.bks.cpg/sg62_3_cif.got.tgz:4696.got - 2010.06.03 15:25:27.
