data_PCOD9467230
_publ_section_title
;
Structure prediction by ZEFSAII (Michael W. Deem and Ramdas Pophale) SiO2 
 PCOD9467230
Probable space group: P N M A
;
_chemical_formula_sum "Si O2"
_cell_formula_units_Z 40
_cell_length_a 12.678846
_cell_length_b 8.830163
_cell_length_c 18.630027
_cell_angle_alpha 90.000000
_cell_angle_beta 90.000000
_cell_angle_gamma 90.000000
_cell_volume 2085.748460
_symmetry_space_group_name_H-M "P N M A"
_symmetry_group_IT_number 62
_symmetry_cell_setting 'orthorhombic'
loop_
_space_group_symop_operation_xyz
x,y,z
1/2-x,-y,1/2+z
1/2+x,1/2-y,1/2-z
-x,1/2+y,-z
-x,-y,-z
1/2+x,y,1/2-z
1/2-x,1/2+y,1/2+z
x,1/2-y,z
loop_
_atom_site_type_symbol
_atom_site_label
_atom_site_fract_x
_atom_site_fract_y
_atom_site_fract_z
Si Si1 0.732319 0.431277 0.956342
Si Si2 0.617809 0.930816 0.698062
Si Si3 0.048450 0.431349 0.072787
Si Si4 0.693472 0.931530 0.112544
Si Si5 0.545746 0.431958 0.848123
O O1 0.742798 0.250000 0.960324
O O2 0.835338 0.500198 0.918652
O O3 0.627549 0.469482 0.911550
O O4 0.724851 0.497737 0.036166
O O5 0.631150 0.750000 0.698702
O O6 0.528106 0.968277 0.639039
O O7 0.725462 0.007870 0.671732
O O8 0.582203 0.989263 0.775274
O O9 0.054347 0.250000 0.066002
O O10 0.000000 0.500000 0.000000
O O11 0.700303 0.750000 0.108058
O O12 0.573414 0.974309 0.131267
O O13 0.548809 0.250000 0.838114
#
# Coordination Sequence:
#
# PCOD9467230 Si02
#       5
#     8   8   8   8   8
#     4  11  23  41  66  95 127 164 211 261 311 375
#     4  11  25  42  63  93 128 165 210 262 315 371
#     4  11  23  40  63  93 125 164 210 259 313 370
#     4  11  23  42  67  93 126 166 209 258 313 375
#     4  10  25  44  64  93 128 168 209 256 318 377
#
# _framework density 19.177768
#
# number of rings (size 3 to 8) (size 9 to 14) (size 15 to 20)
#    0.000    1.200    2.000    3.000    2.800    5.600 
#    0.000    0.000    0.000    0.000    0.000    0.000 
#    0.000    0.000    0.000    0.000    0.000    0.000 
#
# Total GULP energy -223782.139906 kJ/mol
# GULP energy per Si atom -5594.553498 kJ/mol
# Density = 1.913412 g / cm^3
# Si number density = 19.177768 Si / 1000 Ang^3
#
#
#
# Elastic Constant Matrix: (Units=GPa)
#
#
# Indices 1 2 3 4 5 6 
#
# 1 134.5174 32.4549 1.5159 0.0000 0.0000 0.0000
# 2 32.4549 31.4595 9.5757 0.0000 0.0000 0.0000
# 3 1.5159 9.5757 37.7105 0.0000 0.0000 0.0000
# 4 0.0000 0.0000 0.0000 29.0595 0.0000 0.0000
# 5 0.0000 0.0000 0.0000 0.0000 21.0254 0.0000
# 6 0.0000 0.0000 0.0000 0.0000 0.0000 31.8840
#
#
#
# Elastic Compliance Matrix: (Units=1/GPa)
#
#
# Indices 1 2 3 4 5 6 
#
# 1 0.010098 -0.011157 0.002427 0.000000 0.000000 0.000000
# 2 -0.011157 0.046775 -0.011429 0.000000 0.000000 0.000000
# 3 0.002427 -0.011429 0.029322 0.000000 0.000000 0.000000
# 4 0.000000 0.000000 0.000000 0.034412 0.000000 0.000000
# 5 0.000000 0.000000 0.000000 0.000000 0.047562 0.000000
# 6 0.000000 0.000000 0.000000 0.000000 0.000000 0.031364
#
#
# Mechanical properties :
#
#
# Convention : Reuss Voigt Hill
#
# Bulk Modulus (GPa) = 21.79656 32.30894 27.05275
# Shear Modulus (GPa) = 19.59678 27.06982 23.33330
#
# Velocity S-wave (km/s) = 3.20011 3.76110 3.49189
# Velocity P-wave (km/s) = 5.00444 5.97869 5.51313
#
# Compressibility (1/GPa) = 0.04587880
#
# Stress axis : x y z
#
# Youngs Moduli (GPa) = 99.02570 21.37879 34.10362
#
# Poissons Ratio (x) = 0.23852 -0.08277
# Poissons Ratio (y) = 1.10480 0.38977
# Poissons Ratio (z) = -0.24034 0.24434
#
# Static dielectric constant tensor:
#      x y z
#    x 1.661330 0.000000 0.000000 
#    y 0.000000 1.641520 0.000000 
#    z 0.000000 0.000000 1.622930 
# 
# From -- ./inp_files/22765.got.cif
#   From: 2010.05.17/outbox.cif.g08.bks.cpg/sg62_12_cif.got.tgz:22765.got - 2010.06.03 15:25:27.
