data_PCOD9467562
_publ_section_title
;
Structure prediction by ZEFSAII (Michael W. Deem and Ramdas Pophale) SiO2 
 PCOD9467562
Probable space group: P N M A
;
_chemical_formula_sum "Si O2"
_cell_formula_units_Z 40
_cell_length_a 14.358644
_cell_length_b 8.527635
_cell_length_c 14.137689
_cell_angle_alpha 90.000000
_cell_angle_beta 90.000000
_cell_angle_gamma 90.000000
_cell_volume 1731.093219
_symmetry_space_group_name_H-M "P N M A"
_symmetry_group_IT_number 62
_symmetry_cell_setting 'orthorhombic'
loop_
_space_group_symop_operation_xyz
x,y,z
1/2-x,-y,1/2+z
1/2+x,1/2-y,1/2-z
-x,1/2+y,-z
-x,-y,-z
1/2+x,y,1/2-z
1/2-x,1/2+y,1/2+z
x,1/2-y,z
loop_
_atom_site_type_symbol
_atom_site_label
_atom_site_fract_x
_atom_site_fract_y
_atom_site_fract_z
Si Si1 0.548064 0.433753 0.406276
Si Si2 0.447770 0.434196 0.794817
Si Si3 0.227316 0.061424 0.799328
Si Si4 0.120670 0.934268 0.614582
Si Si5 0.721802 0.933827 0.496490
O O1 0.500000 0.500000 0.500000
O O2 0.530168 0.250000 0.395604
O O3 0.519671 0.522627 0.311275
O O4 0.656751 0.467897 0.425896
O O5 0.459228 0.250000 0.811478
O O6 0.338226 0.471173 0.796113
O O7 0.513214 0.524092 0.868039
O O8 0.214442 0.250000 0.800500
O O9 0.173848 0.990821 0.709936
O O10 0.196341 0.984930 0.897842
O O11 0.132055 0.750000 0.600524
O O12 0.172429 0.023647 0.529708
O O13 0.704769 0.750000 0.481846
#
# Coordination Sequence:
#
# PCOD9467562 Si02
#       5
#     8   8   8   8   8
#     4  12  24  41  66  97 133 171 223 277 334 395
#     4  11  24  43  68  96 132 175 221 273 335 397
#     4  11  24  44  69  97 133 175 223 277 336 399
#     4  12  25  43  68  98 135 176 223 276 336 400
#     4  12  25  43  67  96 133 176 223 275 334 398
#
# _framework density 23.106784999999999
#
# number of rings (size 3 to 8) (size 9 to 14) (size 15 to 20)
#    0.000    0.400    2.000    7.800    0.000    3.200 
#    0.000    0.000    0.000    0.000    0.000    0.000 
#    0.000    0.000    0.000    0.000    0.000    0.000 
#
# Total GULP energy -224215.196566 kJ/mol
# GULP energy per Si atom -5605.379914 kJ/mol
# Density = 2.305419 g / cm^3
# Si number density = 23.106785 Si / 1000 Ang^3
#
#
#
# Elastic Constant Matrix: (Units=GPa)
#
#
# Indices 1 2 3 4 5 6 
#
# 1 63.1903 15.2321 -9.8470 0.0000 0.0000 0.0000
# 2 15.2321 57.1764 -13.3902 0.0000 0.0000 0.0000
# 3 -9.8470 -13.3902 54.5693 0.0000 0.0000 0.0000
# 4 0.0000 0.0000 0.0000 31.9135 0.0000 0.0000
# 5 0.0000 0.0000 0.0000 0.0000 39.8486 0.0000
# 6 0.0000 0.0000 0.0000 0.0000 0.0000 36.7837
#
#
#
# Elastic Compliance Matrix: (Units=1/GPa)
#
#
# Indices 1 2 3 4 5 6 
#
# 1 0.017133 -0.004075 0.002092 0.000000 0.000000 0.000000
# 2 -0.004075 0.019525 0.004056 0.000000 0.000000 0.000000
# 3 0.002092 0.004056 0.019698 0.000000 0.000000 0.000000
# 4 0.000000 0.000000 0.000000 0.031335 0.000000 0.000000
# 5 0.000000 0.000000 0.000000 0.000000 0.025095 0.000000
# 6 0.000000 0.000000 0.000000 0.000000 0.000000 0.027186
#
#
# Mechanical properties :
#
#
# Convention : Reuss Voigt Hill
#
# Bulk Modulus (GPa) = 16.52816 17.65842 17.09329
# Shear Modulus (GPa) = 32.05267 33.90524 32.97895
#
# Velocity S-wave (km/s) = 3.72849 3.83473 3.78198
# Velocity P-wave (km/s) = 5.06991 5.22164 5.14634
#
# Compressibility (1/GPa) = 0.06050282
#
# Stress axis : x y z
#
# Youngs Moduli (GPa) = 58.36560 51.21629 50.76654
#
# Poissons Ratio (x) = 0.20868 -0.10620
# Poissons Ratio (y) = 0.23781 -0.20590
# Poissons Ratio (z) = -0.12210 -0.20772
#
# Static dielectric constant tensor:
#      x y z
#    x 1.981120 0.000000 0.000000 
#    y 0.000000 1.758510 0.000000 
#    z 0.000000 0.000000 1.853380 
# 
# From -- ./inp_files/18614.got.cif
#   From: 2010.05.17/outbox.cif.g08.bks.cpg/sg62_10_cif.got.tgz:18614.got - 2010.06.03 15:25:27.
