data_PCOD9467784
_publ_section_title
;
Structure prediction by ZEFSAII (Michael W. Deem and Ramdas Pophale) SiO2 
 PCOD9467784
Probable space group: P N M A
;
_chemical_formula_sum "Si O2"
_cell_formula_units_Z 64
_cell_length_a 15.000000
_cell_length_b 9.000000
_cell_length_c 30.000000
_cell_angle_alpha 90.000000
_cell_angle_beta 90.000000
_cell_angle_gamma 90.000000
_cell_volume 4050.000000
_symmetry_space_group_name_H-M "P N M A"
_symmetry_group_IT_number 62
_symmetry_cell_setting 'orthorhombic'
loop_
_space_group_symop_operation_xyz
x,y,z
1/2-x,-y,1/2+z
1/2+x,1/2-y,1/2-z
-x,1/2+y,-z
-x,-y,-z
1/2+x,y,1/2-z
1/2-x,1/2+y,1/2+z
x,1/2-y,z
loop_
_atom_site_type_symbol
_atom_site_label
_atom_site_fract_x
_atom_site_fract_y
_atom_site_fract_z
Si Si1 0.659358 0.421057 0.363682
Si Si2 0.598060 0.925788 0.548910
Si Si3 0.709036 0.925073 0.630311
Si Si4 0.027328 0.918836 0.814741
Si Si5 0.469686 0.926707 0.223937
Si Si6 0.231900 0.429570 0.714464
Si Si7 0.906580 0.076361 0.945657
Si Si8 0.839456 0.070803 0.696376
O O1 0.687046 0.250000 0.363977
O O2 0.556816 0.427855 0.347120
O O3 0.716693 0.511043 0.328251
O O4 0.657813 0.490566 0.412438
O O5 0.580508 0.750000 0.557814
O O6 0.677735 0.972385 0.581257
O O7 0.619960 0.942571 0.497102
O O8 0.507072 0.013495 0.557974
O O9 0.730553 0.750000 0.629911
O O10 0.619432 0.944392 0.659750
O O11 0.787743 0.013188 0.653465
O O12 0.029119 0.750000 0.796319
O O13 0.015507 0.035411 0.775574
O O14 0.467205 0.750000 0.217511
O O15 0.370572 0.983554 0.213332
O O16 0.558290 0.982974 0.199233
O O17 0.231977 0.250000 0.714726
O O18 0.283899 0.478024 0.759479
O O19 0.907192 0.250000 0.934501
O O20 0.839604 0.250000 0.696795
#
# Coordination Sequence:
#
# PCOD9467784 Si02
#       8
#     8   8   8   8   8   8   8   8
#     4  11  21  33  48  69  99 131 163 200 239 283
#     4   9  18  33  48  69 100 130 161 198 240 286
#     4  10  19  32  48  68  97 131 162 194 234 281
#     4  10  19  29  45  67  95 129 162 196 233 277
#     4  10  20  34  48  66  97 128 158 205 243 273
#     4  10  20  33  49  69  94 126 164 199 237 285
#     4  10  19  30  49  72  97 129 162 197 240 290
#     4  10  20  32  48  71  96 125 163 201 238 283
#
# _framework density 15.802469
#
# number of rings (size 3 to 8) (size 9 to 14) (size 15 to 20)
#    0.000    2.000    3.750    0.750    0.000    3.000 
#    0.000    0.000    0.000    0.000    0.000    0.875 
#    0.000    0.000    0.000    0.000    0.000    0.000 
#
# Total GULP energy -356727.433106 kJ/mol
# GULP energy per Si atom -5573.866142 kJ/mol
# Density = 1.576650 g / cm^3
# Si number density = 15.802469 Si / 1000 Ang^3
#
#
#
# Elastic Constant Matrix: (Units=GPa)
#
#
# Indices 1 2 3 4 5 6 
#
# 1 32.3665 8.5109 -0.4439 0.0000 0.0000 0.0000
# 2 8.5109 -3.0735 10.2450 0.0000 0.0000 0.0000
# 3 -0.4439 10.2450 41.2906 0.0000 0.0000 0.0000
# 4 0.0000 0.0000 0.0000 17.6123 0.0000 0.0000
# 5 0.0000 0.0000 0.0000 0.0000 16.9237 0.0000
# 6 0.0000 0.0000 0.0000 0.0000 0.0000 14.2589
#
#
#
# Elastic Compliance Matrix: (Units=1/GPa)
#
#
# Indices 1 2 3 4 5 6 
#
# 1 0.021931 0.033669 -0.008118 0.000000 0.000000 0.000000
# 2 0.033669 -0.126389 0.031722 0.000000 0.000000 0.000000
# 3 -0.008118 0.031722 0.016261 0.000000 0.000000 0.000000
# 4 0.000000 0.000000 0.000000 0.056778 0.000000 0.000000
# 5 0.000000 0.000000 0.000000 0.000000 0.059089 0.000000
# 6 0.000000 0.000000 0.000000 0.000000 0.000000 0.070131
#
#
# Mechanical properties :
#
#
# Convention : Reuss Voigt Hill
#
# Bulk Modulus (GPa) = 37.95307 11.91196 24.93252
# Shear Modulus (GPa) = -628.08990 13.24376 -307.42307
#
# Velocity S-wave (km/s) = -19.95811 2.89810 -13.96293
# Velocity P-wave (km/s) = 22.51737 4.33048 15.62496
#
# Compressibility (1/GPa) = 0.02634833
#
# Stress axis : x y z
#
# Youngs Moduli (GPa) = 45.59696 -7.91209 61.49841
#
# Poissons Ratio (x) = 0.26640 0.49926
# Poissons Ratio (y) = -1.53522 -1.95082
# Poissons Ratio (z) = 0.37017 0.25098
#
# Static dielectric constant tensor:
#      x y z
#    x 1.535230 0.000000 0.000000 
#    y 0.000000 1.538770 0.000000 
#    z 0.000000 0.000000 1.528530 
# 
# From -- ./inp_files/32684.got.cif
#   From: 2010.05.17/outbox.ucp.g08.bks.cvg/sg62_17_cif.got.tgz:32684.got - 2010.06.11 16:29:25.
