data_PCOD9467182
_publ_section_title
;
Structure prediction by ZEFSAII (Michael W. Deem and Ramdas Pophale) SiO2 
 PCOD9467182
Probable space group: P N M A
;
_chemical_formula_sum "Si O2"
_cell_formula_units_Z 40
_cell_length_a 18.992164
_cell_length_b 8.655332
_cell_length_c 12.547174
_cell_angle_alpha 90.000000
_cell_angle_beta 90.000000
_cell_angle_gamma 90.000000
_cell_volume 2062.548187
_symmetry_space_group_name_H-M "P N M A"
_symmetry_group_IT_number 62
_symmetry_cell_setting 'orthorhombic'
loop_
_space_group_symop_operation_xyz
x,y,z
1/2-x,-y,1/2+z
1/2+x,1/2-y,1/2-z
-x,1/2+y,-z
-x,-y,-z
1/2+x,y,1/2-z
1/2-x,1/2+y,1/2+z
x,1/2-y,z
loop_
_atom_site_type_symbol
_atom_site_label
_atom_site_fract_x
_atom_site_fract_y
_atom_site_fract_z
Si Si1 0.887294 0.065148 0.176802
Si Si2 0.543326 0.566314 0.293926
Si Si3 0.067900 0.433994 0.438000
Si Si4 0.818471 0.064462 0.403698
Si Si5 0.157826 0.065887 0.045917
O O1 0.884201 0.250000 0.164268
O O2 0.849239 0.024085 0.287751
O O3 0.968125 0.011862 0.183412
O O4 0.851388 0.985204 0.075969
O O5 0.534428 0.750000 0.292229
O O6 0.569381 0.507394 0.179036
O O7 0.599186 0.517684 0.383212
O O8 0.061506 0.250000 0.429065
O O9 0.135818 0.480245 0.506587
O O10 0.000000 0.500000 0.500000
O O11 0.826904 0.250000 0.417546
O O12 0.736252 0.027526 0.414171
O O13 0.147873 0.250000 0.055287
#
# Coordination Sequence:
#
# PCOD9467182 Si02
#       5
#     8   8   8   8   8
#     4  11  23  43  68  95 130 173 219 269 324 385
#     4  12  25  43  68  98 130 171 220 269 325 386
#     4  12  24  41  67  97 131 169 215 267 322 383
#     4  10  24  44  66  95 132 172 217 267 323 387
#     4  11  25  44  66  97 134 173 217 269 327 388
#
# _framework density 19.393484999999998
#
# number of rings (size 3 to 8) (size 9 to 14) (size 15 to 20)
#    0.000    0.800    2.000    5.400    2.800    2.400 
#    0.000    0.000    0.000    0.000    0.000    0.000 
#    0.000    0.000    0.000    0.000    0.000    0.000 
#
# Total GULP energy -223928.159143 kJ/mol
# GULP energy per Si atom -5598.203979 kJ/mol
# Density = 1.934934 g / cm^3
# Si number density = 19.393485 Si / 1000 Ang^3
#
#
#
# Elastic Constant Matrix: (Units=GPa)
#
#
# Indices 1 2 3 4 5 6 
#
# 1 95.7627 6.2073 20.3157 0.0000 0.0000 0.0000
# 2 6.2073 31.0763 0.3022 0.0000 0.0000 0.0000
# 3 20.3157 0.3022 14.0987 0.0000 0.0000 0.0000
# 4 0.0000 0.0000 0.0000 37.3024 0.0000 0.0000
# 5 0.0000 0.0000 0.0000 0.0000 27.3310 0.0000
# 6 0.0000 0.0000 0.0000 0.0000 0.0000 22.1871
#
#
#
# Elastic Compliance Matrix: (Units=1/GPa)
#
#
# Indices 1 2 3 4 5 6 
#
# 1 0.015287 -0.002840 -0.021967 0.000000 0.000000 0.000000
# 2 -0.002840 0.032713 0.003391 0.000000 0.000000 0.000000
# 3 -0.021967 0.003391 0.102509 0.000000 0.000000 0.000000
# 4 0.000000 0.000000 0.000000 0.026808 0.000000 0.000000
# 5 0.000000 0.000000 0.000000 0.000000 0.036588 0.000000
# 6 0.000000 0.000000 0.000000 0.000000 0.000000 0.045071
#
#
# Mechanical properties :
#
#
# Convention : Reuss Voigt Hill
#
# Bulk Modulus (GPa) = 9.28699 21.62088 15.45394
# Shear Modulus (GPa) = 14.80606 24.97162 19.88884
#
# Velocity S-wave (km/s) = 2.76607 3.59225 3.20588
# Velocity P-wave (km/s) = 3.87306 5.32714 4.65720
#
# Compressibility (1/GPa) = 0.10767748
#
# Stress axis : x y z
#
# Youngs Moduli (GPa) = 65.41635 30.56875 9.75528
#
# Poissons Ratio (x) = 0.08681 0.21429
# Poissons Ratio (y) = 0.18577 -0.03308
# Poissons Ratio (z) = 1.43698 -0.10366
#
# Static dielectric constant tensor:
#      x y z
#    x 1.649980 0.000000 0.000000 
#    y 0.000000 1.651160 0.000000 
#    z 0.000000 0.000000 1.648060 
# 
# From -- ./inp_files/13838.got.cif
#   From: 2010.05.17/outbox.cif.g08.bks.cpg/sg62_7_cif.got.tgz:13838.got - 2010.06.03 15:25:27.
