data_PCOD9467671
_publ_section_title
;
Structure prediction by ZEFSAII (Michael W. Deem and Ramdas Pophale) SiO2 
 PCOD9467671
Probable space group: P N M A
;
_chemical_formula_sum "Si O2"
_cell_formula_units_Z 40
_cell_length_a 8.245888
_cell_length_b 21.558842
_cell_length_c 9.517805
_cell_angle_alpha 90.000000
_cell_angle_beta 90.000000
_cell_angle_gamma 90.000000
_cell_volume 1691.997294
_symmetry_space_group_name_H-M "P N M A"
_symmetry_group_IT_number 62
_symmetry_cell_setting 'orthorhombic'
loop_
_space_group_symop_operation_xyz
x,y,z
1/2-x,-y,1/2+z
1/2+x,1/2-y,1/2-z
-x,1/2+y,-z
-x,-y,-z
1/2+x,y,1/2-z
1/2-x,1/2+y,1/2+z
x,1/2-y,z
loop_
_atom_site_type_symbol
_atom_site_label
_atom_site_fract_x
_atom_site_fract_y
_atom_site_fract_z
Si Si1 0.930238 0.250000 0.576101
Si Si2 0.796145 0.074685 0.300112
Si Si3 0.458116 0.750000 0.399486
Si Si4 0.996513 0.385747 0.542061
Si Si5 0.187464 0.565138 0.197232
Si Si6 0.514168 0.620527 0.539983
O O1 0.997067 0.250000 0.735504
O O2 0.735822 0.250000 0.583197
O O3 0.989692 0.313298 0.505219
O O4 0.949748 0.074356 0.406235
O O5 0.656580 0.111256 0.382777
O O6 0.851425 0.106914 0.157631
O O7 0.733800 0.005452 0.274985
O O8 0.525571 0.688109 0.471844
O O9 0.861644 0.399724 0.661537
O O10 0.163256 0.403236 0.616848
O O11 0.039165 0.571845 0.087231
#
# Coordination Sequence:
#
# PCOD9467671 Si02
#       6
#     4   8   4   8   8   8
#     4  12  24  47  71 102 140 174 242 294 338 427
#     4  12  25  46  68 104 149 182 236 294 357 427
#     4  12  26  47  73 102 140 182 244 288 356 419
#     4  12  24  42  73 102 136 190 232 296 353 411
#     4  12  24  44  71 107 139 190 239 288 353 426
#     4  12  26  45  70 102 143 193 234 295 357 419
#
# _framework density 23.640699999999999
#
# number of rings (size 3 to 8) (size 9 to 14) (size 15 to 20)
#    0.000    0.000    4.000    7.200    0.000    1.600 
#    0.000    0.000    0.000    0.000    0.000    0.000 
#    0.000    0.000    0.000    0.000    0.000    0.000 
#
# Total GULP energy -224486.316571 kJ/mol
# GULP energy per Si atom -5612.157914 kJ/mol
# Density = 2.358689 g / cm^3
# Si number density = 23.640700 Si / 1000 Ang^3
#
#
#
# Elastic Constant Matrix: (Units=GPa)
#
#
# Indices 1 2 3 4 5 6 
#
# 1 68.4520 7.6589 10.1204 0.0000 0.0000 0.0000
# 2 7.6589 95.1404 -1.6660 0.0000 0.0000 0.0000
# 3 10.1204 -1.6660 65.2544 0.0000 0.0000 0.0000
# 4 0.0000 0.0000 0.0000 -7.1737 0.0000 0.0000
# 5 0.0000 0.0000 0.0000 0.0000 47.4807 0.0000
# 6 0.0000 0.0000 0.0000 0.0000 0.0000 37.7562
#
#
#
# Elastic Compliance Matrix: (Units=1/GPa)
#
#
# Indices 1 2 3 4 5 6 
#
# 1 0.015100 -0.001257 -0.002374 0.000000 0.000000 0.000000
# 2 -0.001257 0.010620 0.000466 0.000000 0.000000 0.000000
# 3 -0.002374 0.000466 0.015705 0.000000 0.000000 0.000000
# 4 0.000000 0.000000 0.000000 -0.139399 0.000000 0.000000
# 5 0.000000 0.000000 0.000000 0.000000 0.021061 0.000000
# 6 0.000000 0.000000 0.000000 0.000000 0.000000 0.026486
#
#
# Mechanical properties :
#
#
# Convention : Reuss Voigt Hill
#
# Bulk Modulus (GPa) = 28.49402 29.00818 28.75110
# Shear Modulus (GPa) = -154.32990 29.79488 -62.26751
#
# Velocity S-wave (km/s) = -8.08846 3.55395 -5.13773
# Velocity P-wave (km/s) = 8.66901 5.39795 4.79656
#
# Compressibility (1/GPa) = 0.03509508
#
# Stress axis : x y z
#
# Youngs Moduli (GPa) = 66.22330 94.16064 63.67510
#
# Poissons Ratio (x) = 0.11838 0.15117
# Poissons Ratio (y) = 0.08325 -0.02968
# Poissons Ratio (z) = 0.15722 -0.04389
#
# Static dielectric constant tensor:
#      x y z
#    x 1.975450 0.000000 0.000000 
#    y 0.000000 1.822800 0.000000 
#    z 0.000000 0.000000 1.851920 
# 
# From -- ./inp_files/4331.got.cif
#   From: 2010.05.17/outbox.cif.g08.bks.cpg/sg62_3_cif.got.tgz:4331.got - 2010.06.03 15:25:27.
