data_PCOD9467919
_publ_section_title
;
Structure prediction by ZEFSAII (Michael W. Deem and Ramdas Pophale) SiO2 
 PCOD9467919
Probable space group: P N M A
;
_chemical_formula_sum "Si O2"
_cell_formula_units_Z 56
_cell_length_a 21.000000
_cell_length_b 9.000000
_cell_length_c 15.000000
_cell_angle_alpha 90.000000
_cell_angle_beta 90.000000
_cell_angle_gamma 90.000000
_cell_volume 2835.000000
_symmetry_space_group_name_H-M "P N M A"
_symmetry_group_IT_number 62
_symmetry_cell_setting 'orthorhombic'
loop_
_space_group_symop_operation_xyz
x,y,z
1/2-x,-y,1/2+z
1/2+x,1/2-y,1/2-z
-x,1/2+y,-z
-x,-y,-z
1/2+x,y,1/2-z
1/2-x,1/2+y,1/2+z
x,1/2-y,z
loop_
_atom_site_type_symbol
_atom_site_label
_atom_site_fract_x
_atom_site_fract_y
_atom_site_fract_z
Si Si1 0.727451 0.929061 0.821360
Si Si2 0.350392 0.427451 0.010439
Si Si3 0.868026 0.925916 0.834256
Si Si4 0.956856 0.926087 0.365457
Si Si5 0.914058 0.923664 0.637754
Si Si6 0.069345 0.572537 0.995534
Si Si7 0.391637 0.429825 0.295820
O O1 0.727376 0.750000 0.814839
O O2 0.707291 0.964192 0.922748
O O3 0.798249 0.982176 0.807365
O O4 0.675318 0.977090 0.749047
O O5 0.353011 0.250000 0.997193
O O6 0.409447 0.484776 0.070173
O O7 0.354062 0.516445 0.918321
O O8 0.865205 0.750000 0.856750
O O9 0.907631 0.938154 0.743671
O O10 0.893227 0.012012 0.919310
O O11 0.946820 0.750000 0.371771
O O12 0.942670 0.986304 0.265866
O O13 0.027736 0.972785 0.390249
O O14 0.925089 0.750000 0.616712
O O15 0.063995 0.750000 0.999804
O O16 0.100894 0.535405 0.899782
O O17 0.000000 0.500000 0.000000
O O18 0.399283 0.250000 0.284878
#
# Coordination Sequence:
#
# PCOD9467919 Si02
#       7
#     8   8   8   8   8   8   8
#     4   8  17  37  60  80 106 143 184 225 276 334
#     4  10  20  36  58  81 110 145 180 221 270 326
#     4  10  22  39  58  80 110 147 185 230 280 331
#     4  11  21  34  55  83 113 142 178 223 271 325
#     4  11  22  35  53  79 111 145 182 223 271 325
#     4  11  23  38  59  86 116 151 192 239 286 336
#     4   9  19  37  59  81 109 147 186 225 276 333
#
# _framework density 19.753086
#
# number of rings (size 3 to 8) (size 9 to 14) (size 15 to 20)
#    0.000    2.000    0.000    4.714    0.000    6.857 
#    0.000    5.000    0.000    0.000    0.000    0.000 
#    0.000    0.000    0.000    0.000    0.000    0.000 
#
# Total GULP energy -312439.936139 kJ/mol
# GULP energy per Si atom -5579.284574 kJ/mol
# Density = 1.970813 g / cm^3
# Si number density = 19.753086 Si / 1000 Ang^3
#
#
#
# Elastic Constant Matrix: (Units=GPa)
#
#
# Indices 1 2 3 4 5 6 
#
# 1 66.9433 2.3259 11.2454 0.0000 0.0000 0.0000
# 2 2.3259 40.1299 30.6602 0.0000 0.0000 0.0000
# 3 11.2454 30.6602 109.2543 0.0000 0.0000 0.0000
# 4 0.0000 0.0000 0.0000 35.3935 0.0000 0.0000
# 5 0.0000 0.0000 0.0000 0.0000 12.9488 0.0000
# 6 0.0000 0.0000 0.0000 0.0000 0.0000 15.7770
#
#
#
# Elastic Compliance Matrix: (Units=1/GPa)
#
#
# Indices 1 2 3 4 5 6 
#
# 1 0.015206 0.000400 -0.001677 0.000000 0.000000 0.000000
# 2 0.000400 0.031731 -0.008946 0.000000 0.000000 0.000000
# 3 -0.001677 -0.008946 0.011836 0.000000 0.000000 0.000000
# 4 0.000000 0.000000 0.000000 0.028254 0.000000 0.000000
# 5 0.000000 0.000000 0.000000 0.000000 0.077228 0.000000
# 6 0.000000 0.000000 0.000000 0.000000 0.000000 0.063383
#
#
# Mechanical properties :
#
#
# Convention : Reuss Voigt Hill
#
# Bulk Modulus (GPa) = 26.09150 33.86563 29.97857
# Shear Modulus (GPa) = 19.16745 24.29692 21.73218
#
# Velocity S-wave (km/s) = 3.11843 3.51099 3.32051
# Velocity P-wave (km/s) = 5.11895 5.79808 5.46906
#
# Compressibility (1/GPa) = 0.03832666
#
# Stress axis : x y z
#
# Youngs Moduli (GPa) = 65.76398 31.51524 84.48731
#
# Poissons Ratio (x) = -0.01262 0.14172
# Poissons Ratio (y) = -0.02632 0.75581
# Poissons Ratio (z) = 0.11032 0.28193
#
# Static dielectric constant tensor:
#      x y z
#    x 1.956460 0.000000 0.000000 
#    y 0.000000 1.652930 0.000000 
#    z 0.000000 0.000000 1.735550 
# 
# From -- ./inp_files/20222.got.cif
#   From: 2010.05.17/outbox.ucp.g08.bks.cvg/sg62_11_cif.got.tgz:20222.got - 2010.06.11 16:29:25.
