data_PCOD9467991
_publ_section_title
;
Structure prediction by ZEFSAII (Michael W. Deem and Ramdas Pophale) SiO2 
 PCOD9467991
Probable space group: P N M A
;
_chemical_formula_sum "Si O2"
_cell_formula_units_Z 56
_cell_length_a 21.000000
_cell_length_b 9.000000
_cell_length_c 15.000000
_cell_angle_alpha 90.000000
_cell_angle_beta 90.000000
_cell_angle_gamma 90.000000
_cell_volume 2835.000000
_symmetry_space_group_name_H-M "P N M A"
_symmetry_group_IT_number 62
_symmetry_cell_setting 'orthorhombic'
loop_
_space_group_symop_operation_xyz
x,y,z
1/2-x,-y,1/2+z
1/2+x,1/2-y,1/2-z
-x,1/2+y,-z
-x,-y,-z
1/2+x,y,1/2-z
1/2-x,1/2+y,1/2+z
x,1/2-y,z
loop_
_atom_site_type_symbol
_atom_site_label
_atom_site_fract_x
_atom_site_fract_y
_atom_site_fract_z
Si Si1 0.857558 0.428993 0.727437
Si Si2 0.942382 0.928368 0.054209
Si Si3 0.332835 0.926978 0.964096
Si Si4 0.003432 0.072549 0.752173
Si Si5 0.895697 0.426730 0.371719
Si Si6 0.781333 0.922787 0.266561
Si Si7 0.798609 0.576092 0.051544
O O1 0.854287 0.250000 0.713542
O O2 0.849821 0.511364 0.633472
O O3 0.928275 0.463755 0.763582
O O4 0.792918 0.465746 0.782331
O O5 0.944053 0.750000 0.043400
O O6 0.870392 0.976517 0.029535
O O7 0.957818 0.960239 0.157557
O O8 0.000000 0.000000 0.000000
O O9 0.334765 0.750000 0.966391
O O10 0.381745 0.997802 0.033677
O O11 0.260900 0.983663 0.985455
O O12 0.007542 0.250000 0.735958
O O13 0.039970 0.987435 0.673851
O O14 0.897673 0.250000 0.379052
O O15 0.834744 0.478016 0.312662
O O16 0.790638 0.750000 0.293998
O O17 0.792035 0.929183 0.159584
O O18 0.791920 0.750000 0.025940
#
# Coordination Sequence:
#
# PCOD9467991 Si02
#       7
#     8   8   8   8   8   8   8
#     4   9  20  39  63  87 118 155 196 245 299 355
#     4  10  21  37  59  88 122 158 196 241 294 353
#     4  11  23  38  59  86 117 154 199 246 297 353
#     4  10  21  41  63  85 117 160 200 239 297 361
#     4  12  24  37  58  88 120 155 201 248 296 352
#     4   9  17  35  60  84 113 152 195 240 296 353
#     4   9  18  37  60  82 115 151 190 240 293 346
#
# _framework density 19.753086
#
# number of rings (size 3 to 8) (size 9 to 14) (size 15 to 20)
#    0.000    2.000    1.429    3.429    0.000    5.714 
#    0.000    1.429    0.000    0.000    0.000    0.000 
#    0.000    0.000    0.000    0.000    0.000    0.000 
#
# Total GULP energy -312788.557747 kJ/mol
# GULP energy per Si atom -5585.509960 kJ/mol
# Density = 1.970813 g / cm^3
# Si number density = 19.753086 Si / 1000 Ang^3
#
#
#
# Elastic Constant Matrix: (Units=GPa)
#
#
# Indices 1 2 3 4 5 6 
#
# 1 101.7058 12.9894 -15.4255 0.0000 0.0000 0.0000
# 2 12.9894 45.2053 1.4374 0.0000 0.0000 0.0000
# 3 -15.4255 1.4374 10.8965 0.0000 0.0000 0.0000
# 4 0.0000 0.0000 0.0000 24.0224 0.0000 0.0000
# 5 0.0000 0.0000 0.0000 0.0000 34.0301 0.0000
# 6 0.0000 0.0000 0.0000 0.0000 0.0000 36.0411
#
#
#
# Elastic Compliance Matrix: (Units=1/GPa)
#
#
# Indices 1 2 3 4 5 6 
#
# 1 0.013359 -0.004459 0.019500 0.000000 0.000000 0.000000
# 2 -0.004459 0.023703 -0.009439 0.000000 0.000000 0.000000
# 3 0.019500 -0.009439 0.120622 0.000000 0.000000 0.000000
# 4 0.000000 0.000000 0.000000 0.041628 0.000000 0.000000
# 5 0.000000 0.000000 0.000000 0.000000 0.029386 0.000000
# 6 0.000000 0.000000 0.000000 0.000000 0.000000 0.027746
#
#
# Mechanical properties :
#
#
# Convention : Reuss Voigt Hill
#
# Bulk Modulus (GPa) = 5.92104 17.31225 11.61664
# Shear Modulus (GPa) = 16.58181 29.40580 22.99381
#
# Velocity S-wave (km/s) = 2.90048 3.86251 3.41554
# Velocity P-wave (km/s) = 3.77108 5.35494 4.63122
#
# Compressibility (1/GPa) = 0.16888928
#
# Stress axis : x y z
#
# Youngs Moduli (GPa) = 74.85449 42.18946 8.29034
#
# Poissons Ratio (x) = 0.18811 -0.16166
# Poissons Ratio (y) = 0.33376 0.07825
# Poissons Ratio (z) = -1.45966 0.39821
#
# Static dielectric constant tensor:
#      x y z
#    x 1.707170 0.000000 0.000000 
#    y 0.000000 1.656040 0.000000 
#    z 0.000000 0.000000 1.711720 
# 
# From -- ./inp_files/20243.got.cif
#   From: 2010.05.17/outbox.ucp.g08.bks.cvg/sg62_11_cif.got.tgz:20243.got - 2010.06.11 16:29:25.
