data_PCOD9467590
_publ_section_title
;
Structure prediction by ZEFSAII (Michael W. Deem and Ramdas Pophale) SiO2 
 PCOD9467590
Probable space group: P N M A
;
_chemical_formula_sum "Si O2"
_cell_formula_units_Z 48
_cell_length_a 7.751933
_cell_length_b 31.257871
_cell_length_c 7.137857
_cell_angle_alpha 90.000000
_cell_angle_beta 90.000000
_cell_angle_gamma 90.000000
_cell_volume 1729.566433
_symmetry_space_group_name_H-M "P N M A"
_symmetry_group_IT_number 62
_symmetry_cell_setting 'orthorhombic'
loop_
_space_group_symop_operation_xyz
x,y,z
1/2-x,-y,1/2+z
1/2+x,1/2-y,1/2-z
-x,1/2+y,-z
-x,-y,-z
1/2+x,y,1/2-z
1/2-x,1/2+y,1/2+z
x,1/2-y,z
loop_
_atom_site_type_symbol
_atom_site_label
_atom_site_fract_x
_atom_site_fract_y
_atom_site_fract_z
Si Si1 0.565288 0.023941 0.803103
Si Si2 0.445384 0.250000 0.398950
Si Si3 0.154081 0.750000 0.470998
Si Si4 0.676303 0.936677 0.609674
Si Si5 0.451699 0.157841 0.392081
Si Si6 0.758621 0.429655 0.531709
Si Si7 0.846827 0.159521 0.525518
O O1 0.388689 0.032209 0.912801
O O2 0.582644 0.056491 0.627936
O O3 0.575951 0.977924 0.702612
O O4 0.289698 0.956908 0.056740
O O5 0.442593 0.250000 0.171636
O O6 0.641555 0.250000 0.476637
O O7 0.363924 0.203516 0.445570
O O8 0.111536 0.704525 0.376518
O O9 0.627857 0.887648 0.555526
O O10 0.771567 0.925122 0.810964
O O11 0.644925 0.160775 0.469273
O O12 0.455335 0.157499 0.165678
O O13 0.853136 0.387483 0.610521
#
# Coordination Sequence:
#
# PCOD9467590 Si02
#       7
#     8   4   4   8   8   8   8
#     4  12  27  45  67  95 132 175 226 284 325 407
#     4   8  14  30  50  93 123 158 211 262 327 387
#     4   8  14  30  56  85 127 166 207 270 323 399
#     4  11  25  43  68  95 131 174 226 274 343 387
#     4   9  19  32  62  90 129 168 212 271 326 397
#     4  11  27  43  65  96 131 173 224 272 339 389
#     4   9  19  35  59  94 128 170 219 267 337 393
#
# _framework density 27.75262
#
# number of rings (size 3 to 8) (size 9 to 14) (size 15 to 20)
#    0.000    2.000    1.667    0.500   11.667    0.667 
#    0.000    0.000    0.000    2.000    0.000    0.000 
#    0.000    0.000    0.000    0.000    0.000    0.000 
#
# Total GULP energy -267953.539676 kJ/mol
# GULP energy per Si atom -5582.365410 kJ/mol
# Density = 2.768945 g / cm^3
# Si number density = 27.752620 Si / 1000 Ang^3
#
#
#
# Elastic Constant Matrix: (Units=GPa)
#
#
# Indices 1 2 3 4 5 6 
#
# 1 52.4811 41.8801 -7.6733 0.0000 0.0000 0.0000
# 2 41.8801 323.4933 35.6202 0.0000 0.0000 0.0000
# 3 -7.6733 35.6202 108.8033 0.0000 0.0000 0.0000
# 4 0.0000 0.0000 0.0000 2.5382 0.0000 0.0000
# 5 0.0000 0.0000 0.0000 0.0000 30.7538 0.0000
# 6 0.0000 0.0000 0.0000 0.0000 0.0000 26.7433
#
#
#
# Elastic Compliance Matrix: (Units=1/GPa)
#
#
# Indices 1 2 3 4 5 6 
#
# 1 0.021920 -0.003121 0.002567 0.000000 0.000000 0.000000
# 2 -0.003121 0.003651 -0.001415 0.000000 0.000000 0.000000
# 3 0.002567 -0.001415 0.009835 0.000000 0.000000 0.000000
# 4 0.000000 0.000000 0.000000 0.393984 0.000000 0.000000
# 5 0.000000 0.000000 0.000000 0.000000 0.032516 0.000000
# 6 0.000000 0.000000 0.000000 0.000000 0.000000 0.037393
#
#
# Mechanical properties :
#
#
# Convention : Reuss Voigt Hill
#
# Bulk Modulus (GPa) = 31.77660 69.38129 50.57895
# Shear Modulus (GPa) = 9.73281 39.67042 24.70162
#
# Velocity S-wave (km/s) = 1.87473 3.78488 2.98663
# Velocity P-wave (km/s) = 4.02007 6.64489 5.49161
#
# Compressibility (1/GPa) = 0.03146970
#
# Stress axis : x y z
#
# Youngs Moduli (GPa) = 45.62030 273.89067 101.67417
#
# Poissons Ratio (x) = 0.85468 -0.26105
# Poissons Ratio (y) = 0.14236 0.14391
# Poissons Ratio (z) = -0.11713 0.38766
#
# Static dielectric constant tensor:
#      x y z
#    x 2.281210 0.000000 0.000000 
#    y 0.000000 2.282060 0.000000 
#    z 0.000000 0.000000 2.389260 
# 
# From -- ./inp_files/4567.got.cif
#   From: 2010.05.17/outbox.cif.g08.bks.cpg/sg62_3_cif.got.tgz:4567.got - 2010.06.03 15:25:27.
