data_PCOD9467764
_publ_section_title
;
Structure prediction by ZEFSAII (Michael W. Deem and Ramdas Pophale) SiO2 
 PCOD9467764
Probable space group: P N M A
;
_chemical_formula_sum "Si O2"
_cell_formula_units_Z 64
_cell_length_a 21.000000
_cell_length_b 9.000000
_cell_length_c 18.000000
_cell_angle_alpha 90.000000
_cell_angle_beta 90.000000
_cell_angle_gamma 90.000000
_cell_volume 3402.000000
_symmetry_space_group_name_H-M "P N M A"
_symmetry_group_IT_number 62
_symmetry_cell_setting 'orthorhombic'
loop_
_space_group_symop_operation_xyz
x,y,z
1/2-x,-y,1/2+z
1/2+x,1/2-y,1/2-z
-x,1/2+y,-z
-x,-y,-z
1/2+x,y,1/2-z
1/2-x,1/2+y,1/2+z
x,1/2-y,z
loop_
_atom_site_type_symbol
_atom_site_label
_atom_site_fract_x
_atom_site_fract_y
_atom_site_fract_z
Si Si1 0.456738 0.427738 0.563606
Si Si2 0.710245 0.074997 0.179935
Si Si3 0.668104 0.073133 0.491226
Si Si4 0.338200 0.928076 0.332585
Si Si5 0.526462 0.427526 0.717007
Si Si6 0.065335 0.082225 0.488585
Si Si7 0.426493 0.581233 0.811042
Si Si8 0.797405 0.926077 0.500282
O O1 0.500000 0.500000 0.500000
O O2 0.457004 0.250000 0.555356
O O3 0.386387 0.491840 0.554568
O O4 0.487663 0.465647 0.642499
O O5 0.714043 0.250000 0.196053
O O6 0.642870 0.018254 0.211273
O O7 0.774252 0.993290 0.202082
O O8 0.707589 0.060186 0.090063
O O9 0.662955 0.250000 0.483818
O O10 0.657610 0.035784 0.579123
O O11 0.738013 0.016212 0.469477
O O12 0.335624 0.750000 0.328725
O O13 0.401777 0.983224 0.292612
O O14 0.529247 0.250000 0.721979
O O15 0.486440 0.490648 0.784266
O O16 0.059419 0.250000 0.517067
O O17 0.074363 0.088396 0.399882
O O18 0.131742 0.019770 0.520582
O O19 0.000000 0.000000 0.500000
O O20 0.431341 0.750000 0.782661
O O21 0.792474 0.750000 0.483546
#
# Coordination Sequence:
#
# PCOD9467764 Si02
#       8
#     8   8   8   8   8   8   8   8
#     4  11  21  34  50  72 104 139 175 214 252 297
#     4   8  15  29  49  72  96 123 162 206 247 294
#     4  10  18  30  48  73 103 132 168 213 252 294
#     4   9  17  30  47  72 102 128 163 210 249 290
#     4  10  21  35  50  73 105 136 170 211 254 303
#     4   9  18  33  55  81 108 132 166 212 259 310
#     4   9  19  35  53  76 104 132 167 212 254 304
#     4   8  15  29  48  73 101 131 163 203 252 300
#
# _framework density 18.812463000000001
#
# number of rings (size 3 to 8) (size 9 to 14) (size 15 to 20)
#    0.000    2.750    1.250    2.250    0.000    3.500 
#    0.000    2.500    2.750    0.000    0.000    0.000 
#    0.000    0.000    0.000    0.000    0.000    0.000 
#
# Total GULP energy -356465.358852 kJ/mol
# GULP energy per Si atom -5569.771232 kJ/mol
# Density = 1.876965 g / cm^3
# Si number density = 18.812463 Si / 1000 Ang^3
#
#
#
# Elastic Constant Matrix: (Units=GPa)
#
#
# Indices 1 2 3 4 5 6 
#
# 1 183.7054 39.4278 7.6146 0.0000 0.0000 0.0000
# 2 39.4278 4.6057 0.9167 0.0000 0.0000 0.0000
# 3 7.6146 0.9167 -10.6142 0.0000 0.0000 0.0000
# 4 0.0000 0.0000 0.0000 17.5900 0.0000 0.0000
# 5 0.0000 0.0000 0.0000 0.0000 19.9046 0.0000
# 6 0.0000 0.0000 0.0000 0.0000 0.0000 33.6794
#
#
#
# Elastic Compliance Matrix: (Units=1/GPa)
#
#
# Indices 1 2 3 4 5 6 
#
# 1 -0.006501 0.055627 0.000140 0.000000 0.000000 0.000000
# 2 0.055627 -0.262513 0.017235 0.000000 0.000000 0.000000
# 3 0.000140 0.017235 -0.092625 0.000000 0.000000 0.000000
# 4 0.000000 0.000000 0.000000 0.056850 0.000000 0.000000
# 5 0.000000 0.000000 0.000000 0.000000 0.050240 0.000000
# 6 0.000000 0.000000 0.000000 0.000000 0.000000 0.029692
#
#
# Mechanical properties :
#
#
# Convention : Reuss Voigt Hill
#
# Bulk Modulus (GPa) = -4.63748 30.40167 12.88209
# Shear Modulus (GPa) = -11.29332 22.88399 5.79533
#
# Velocity S-wave (km/s) = -2.45278 3.49151 1.75706
# Velocity P-wave (km/s) = 3.23913 5.69646 3.31344
#
# Compressibility (1/GPa) = -0.21563420
#
# Stress axis : x y z
#
# Youngs Moduli (GPa) = -153.81376 -3.80934 -10.79626
#
# Poissons Ratio (x) = 0.21190 0.00151
# Poissons Ratio (y) = 8.55627 0.18607
# Poissons Ratio (z) = 0.02158 0.06565
#
# Static dielectric constant tensor:
#      x y z
#    x 1.712580 0.000000 0.000000 
#    y 0.000000 1.638830 0.000000 
#    z 0.000000 0.000000 1.638690 
# 
# From -- ./inp_files/24743.got.cif
#   From: 2010.05.17/outbox.ucp.g08.bks.cvg/sg62_13_cif.got.tgz:24743.got - 2010.06.11 16:29:25.
