data_PCOD9467152
_publ_section_title
;
Structure prediction by ZEFSAII (Michael W. Deem and Ramdas Pophale) SiO2 
 PCOD9467152
Probable space group: P N M A
;
_chemical_formula_sum "Si O2"
_cell_formula_units_Z 40
_cell_length_a 5.237782
_cell_length_b 11.609653
_cell_length_c 26.755888
_cell_angle_alpha 90.000000
_cell_angle_beta 90.000000
_cell_angle_gamma 90.000000
_cell_volume 1626.994285
_symmetry_space_group_name_H-M "P N M A"
_symmetry_group_IT_number 62
_symmetry_cell_setting 'orthorhombic'
loop_
_space_group_symop_operation_xyz
x,y,z
1/2-x,-y,1/2+z
1/2+x,1/2-y,1/2-z
-x,1/2+y,-z
-x,-y,-z
1/2+x,y,1/2-z
1/2-x,1/2+y,1/2+z
x,1/2-y,z
loop_
_atom_site_type_symbol
_atom_site_label
_atom_site_fract_x
_atom_site_fract_y
_atom_site_fract_z
Si Si1 0.194464 0.417173 0.629373
Si Si2 0.947789 0.113676 0.119290
Si Si3 0.312398 0.457541 0.957070
Si Si4 0.561212 0.250000 0.783353
Si Si5 0.676386 0.389754 0.220870
Si Si6 0.962299 0.750000 0.067680
O O1 0.287229 0.548517 0.630251
O O2 0.100453 0.358459 0.679748
O O3 0.440214 0.348815 0.608267
O O4 0.986774 0.398183 0.586029
O O5 0.980146 0.250000 0.119335
O O6 0.759780 0.079161 0.164965
O O7 0.828125 0.064348 0.068766
O O8 0.123967 0.354078 0.970757
O O9 0.500000 0.500000 0.000000
O O10 0.785974 0.250000 0.742445
O O11 0.409022 0.428458 0.243657
O O12 0.668606 0.250000 0.222000
#
# Coordination Sequence:
#
# PCOD9467152 Si02
#       6
#     8   8   8   4   8   4
#     4  10  24  45  71 101 151 187 244 320 377 458
#     4  10  24  42  65 103 146 188 245 302 369 459
#     4  11  25  45  71 102 138 194 249 316 388 454
#     4  11  27  46  84 118 148 200 260 322 395 465
#     4   9  19  36  60  89 129 182 225 274 349 423
#     4   9  21  44  70  94 136 180 240 304 385 441
#
# _framework density 24.585213
#
# number of rings (size 3 to 8) (size 9 to 14) (size 15 to 20)
#    0.000    2.000    0.000    1.200   12.600    5.600 
#    3.600    0.000    0.000    0.000    0.000    0.000 
#    0.000    0.000    0.000    0.000    0.000    0.000 
#
# Total GULP energy -223034.541381 kJ/mol
# GULP energy per Si atom -5575.863535 kJ/mol
# Density = 2.452926 g / cm^3
# Si number density = 24.585213 Si / 1000 Ang^3
#
#
#
# Elastic Constant Matrix: (Units=GPa)
#
#
# Indices 1 2 3 4 5 6 
#
# 1 41.0438 6.0545 26.2740 0.0000 0.0000 0.0000
# 2 6.0545 129.9043 40.2711 0.0000 0.0000 0.0000
# 3 26.2740 40.2711 113.5641 0.0000 0.0000 0.0000
# 4 0.0000 0.0000 0.0000 21.1754 0.0000 0.0000
# 5 0.0000 0.0000 0.0000 0.0000 53.2491 0.0000
# 6 0.0000 0.0000 0.0000 0.0000 0.0000 -127.1717
#
#
#
# Elastic Compliance Matrix: (Units=1/GPa)
#
#
# Indices 1 2 3 4 5 6 
#
# 1 0.028675 0.000809 -0.006921 0.000000 0.000000 0.000000
# 2 0.000809 0.008672 -0.003262 0.000000 0.000000 0.000000
# 3 -0.006921 -0.003262 0.011564 0.000000 0.000000 0.000000
# 4 0.000000 0.000000 0.000000 0.047225 0.000000 0.000000
# 5 0.000000 0.000000 0.000000 0.000000 0.018780 0.000000
# 6 0.000000 0.000000 0.000000 0.000000 0.000000 -0.007863
#
#
# Mechanical properties :
#
#
# Convention : Reuss Voigt Hill
#
# Bulk Modulus (GPa) = 33.15422 47.74570 40.44996
# Shear Modulus (GPa) = 36.80418 3.57807 20.19112
#
# Velocity S-wave (km/s) = 3.87331 1.20770 2.86889
# Velocity P-wave (km/s) = 5.78948 4.62681 5.24049
#
# Compressibility (1/GPa) = 0.03016208
#
# Stress axis : x y z
#
# Youngs Moduli (GPa) = 34.87306 115.31927 86.47752
#
# Poissons Ratio (x) = -0.09331 0.59853
# Poissons Ratio (y) = -0.02822 0.28211
# Poissons Ratio (z) = 0.24136 0.37620
#
# Static dielectric constant tensor:
#      x y z
#    x 2.098900 0.000000 0.000000 
#    y 0.000000 1.911790 0.000000 
#    z 0.000000 0.000000 1.929760 
# 
# From -- ./inp_files/30267.got.cif
#   From: 2010.05.17/outbox.cif.g08.bks.cpg/sg62_16_cif.got.tgz:30267.got - 2010.06.03 15:25:27.
