data_PCOD9467768
_publ_section_title
;
Structure prediction by ZEFSAII (Michael W. Deem and Ramdas Pophale) SiO2 
 PCOD9467768
Probable space group: P N M A
;
_chemical_formula_sum "Si O2"
_cell_formula_units_Z 64
_cell_length_a 15.000000
_cell_length_b 9.000000
_cell_length_c 30.000000
_cell_angle_alpha 90.000000
_cell_angle_beta 90.000000
_cell_angle_gamma 90.000000
_cell_volume 4050.000000
_symmetry_space_group_name_H-M "P N M A"
_symmetry_group_IT_number 62
_symmetry_cell_setting 'orthorhombic'
loop_
_space_group_symop_operation_xyz
x,y,z
1/2-x,-y,1/2+z
1/2+x,1/2-y,1/2-z
-x,1/2+y,-z
-x,-y,-z
1/2+x,y,1/2-z
1/2-x,1/2+y,1/2+z
x,1/2-y,z
loop_
_atom_site_type_symbol
_atom_site_label
_atom_site_fract_x
_atom_site_fract_y
_atom_site_fract_z
Si Si1 0.596766 0.423964 0.053363
Si Si2 0.361579 0.069856 0.691290
Si Si3 0.702693 0.071876 0.866014
Si Si4 0.249262 0.930252 0.279061
Si Si5 0.373644 0.426628 0.862073
Si Si6 0.904690 0.924815 0.452522
Si Si7 0.546234 0.070130 0.724157
Si Si8 0.460847 0.073208 0.181849
O O1 0.600253 0.250000 0.064590
O O2 0.651134 0.520026 0.088785
O O3 0.493901 0.479158 0.053278
O O4 0.628554 0.444808 0.002750
O O5 0.363368 0.250000 0.693735
O O6 0.302231 0.030350 0.648537
O O7 0.305727 0.019401 0.735263
O O8 0.464792 0.022708 0.692206
O O9 0.692069 0.250000 0.858331
O O10 0.669508 0.040569 0.915781
O O11 0.634364 0.985916 0.834305
O O12 0.251663 0.750000 0.276206
O O13 0.195786 0.968428 0.323672
O O14 0.351881 0.980920 0.282718
O O15 0.388226 0.250000 0.860414
O O16 0.464918 0.512128 0.851560
O O17 0.929743 0.750000 0.447240
O O18 0.547884 0.250000 0.725601
O O19 0.518351 0.006282 0.771781
O O20 0.462741 0.250000 0.185081
#
# Coordination Sequence:
#
# PCOD9467768 Si02
#       8
#     8   8   8   8   8   8   8   8
#     4  10  19  30  44  68  95 118 152 191 231 276
#     4   9  16  27  48  72  89 115 154 191 222 264
#     4  10  18  31  49  68  90 123 158 183 222 274
#     4   9  17  28  47  71  89 116 157 194 225 267
#     4  11  20  32  47  65  90 126 162 189 227 272
#     4   9  18  30  46  66  93 125 151 184 228 279
#     4  10  18  33  50  65  91 123 156 194 229 264
#     4  12  22  29  42  68  96 124 155 190 226 267
#
# _framework density 15.802469
#
# number of rings (size 3 to 8) (size 9 to 14) (size 15 to 20)
#    0.000    2.000    3.750    1.875    0.000    0.500 
#    0.000    3.125    0.000    0.000    0.000    0.875 
#    0.000    0.000    0.000    0.000    0.000    0.000 
#
# Total GULP energy -356505.502769 kJ/mol
# GULP energy per Si atom -5570.398481 kJ/mol
# Density = 1.576650 g / cm^3
# Si number density = 15.802469 Si / 1000 Ang^3
#
#
#
# Elastic Constant Matrix: (Units=GPa)
#
#
# Indices 1 2 3 4 5 6 
#
# 1 47.3627 3.4753 2.6254 0.0000 0.0000 0.0000
# 2 3.4753 -1.4551 -2.6996 0.0000 0.0000 0.0000
# 3 2.6254 -2.6996 44.5300 0.0000 0.0000 0.0000
# 4 0.0000 0.0000 0.0000 16.2581 0.0000 0.0000
# 5 0.0000 0.0000 0.0000 0.0000 20.1286 0.0000
# 6 0.0000 0.0000 0.0000 0.0000 0.0000 0.7793
#
#
#
# Elastic Compliance Matrix: (Units=1/GPa)
#
#
# Indices 1 2 3 4 5 6 
#
# 1 0.018061 0.040550 0.001393 0.000000 0.000000 0.000000
# 2 0.040550 -0.526701 -0.034321 0.000000 0.000000 0.000000
# 3 0.001393 -0.034321 0.020294 0.000000 0.000000 0.000000
# 4 0.000000 0.000000 0.000000 0.061508 0.000000 0.000000
# 5 0.000000 0.000000 0.000000 0.000000 0.049680 0.000000
# 6 0.000000 0.000000 0.000000 0.000000 0.000000 1.283195
#
#
# Mechanical properties :
#
#
# Convention : Reuss Voigt Hill
#
# Bulk Modulus (GPa) = -2.11371 10.80444 4.34536
# Shear Modulus (GPa) = 6.82042 13.23563 10.02803
#
# Velocity S-wave (km/s) = 2.07976 2.89722 2.52183
# Velocity P-wave (km/s) = 2.10398 4.24780 3.35191
#
# Compressibility (1/GPa) = -0.47310131
#
# Stress axis : x y z
#
# Youngs Moduli (GPa) = 55.36798 -1.89861 49.27580
#
# Poissons Ratio (x) = 0.07699 -0.06866
# Poissons Ratio (y) = -2.24518 1.69121
# Poissons Ratio (z) = -0.07715 -0.06516
#
# Static dielectric constant tensor:
#      x y z
#    x 1.538820 0.000000 0.000000 
#    y 0.000000 1.525930 0.000000 
#    z 0.000000 0.000000 1.583260 
# 
# From -- ./inp_files/32720.got.cif
#   From: 2010.05.17/outbox.ucp.g08.bks.cvg/sg62_17_cif.got.tgz:32720.got - 2010.06.11 16:29:25.
