data_PCOD9467921
_publ_section_title
;
Structure prediction by ZEFSAII (Michael W. Deem and Ramdas Pophale) SiO2 
 PCOD9467921
Probable space group: P N M A
;
_chemical_formula_sum "Si O2"
_cell_formula_units_Z 64
_cell_length_a 15.000000
_cell_length_b 12.000000
_cell_length_c 18.000000
_cell_angle_alpha 90.000000
_cell_angle_beta 90.000000
_cell_angle_gamma 90.000000
_cell_volume 3240.000000
_symmetry_space_group_name_H-M "P N M A"
_symmetry_group_IT_number 62
_symmetry_cell_setting 'orthorhombic'
loop_
_space_group_symop_operation_xyz
x,y,z
1/2-x,-y,1/2+z
1/2+x,1/2-y,1/2-z
-x,1/2+y,-z
-x,-y,-z
1/2+x,y,1/2-z
1/2-x,1/2+y,1/2+z
x,1/2-y,z
loop_
_atom_site_type_symbol
_atom_site_label
_atom_site_fract_x
_atom_site_fract_y
_atom_site_fract_z
Si Si1 0.855699 0.371507 0.087954
Si Si2 0.562133 0.378820 0.392192
Si Si3 0.946762 0.028522 0.385162
Si Si4 0.600179 0.620701 0.039466
Si Si5 0.348218 0.377729 0.577920
Si Si6 0.813915 0.869937 0.307350
Si Si7 0.410474 0.872046 0.783051
Si Si8 0.265062 0.453658 0.838752
O O1 0.838336 0.250000 0.121830
O O2 0.815563 0.469271 0.135262
O O3 0.961519 0.381418 0.077778
O O4 0.813299 0.375665 0.006302
O O5 0.597230 0.250000 0.411540
O O6 0.604435 0.499755 0.414463
O O7 0.560757 0.380958 0.302503
O O8 0.882499 0.965857 0.328247
O O9 0.018576 0.944361 0.421730
O O10 0.892796 0.078017 0.454845
O O11 0.006166 0.114176 0.338254
O O12 0.578901 0.750000 0.037604
O O13 0.687068 0.600983 0.090317
O O14 0.391806 0.250000 0.587075
O O15 0.268779 0.378985 0.636612
O O16 0.858522 0.750000 0.318684
O O17 0.773669 0.876689 0.225301
O O18 0.369972 0.750000 0.794594
O O19 0.339786 0.967151 0.801886
#
# Coordination Sequence:
#
# PCOD9467921 Si02
#       8
#     8   8   8   8   8   8   8   8
#     4  10  21  37  60  84 113 150 195 243 286 349
#     4  10  20  38  59  86 117 149 194 246 296 345
#     4  10  21  37  60  85 114 154 200 239 290 360
#     4  10  21  38  58  85 118 153 191 245 301 347
#     4  10  21  39  60  85 116 157 198 238 295 357
#     4  11  22  38  58  83 117 154 199 245 293 357
#     4  10  20  36  58  84 117 152 191 239 293 353
#     4  11  21  37  59  83 120 149 196 235 300 348
#
# _framework density 19.753086
#
# number of rings (size 3 to 8) (size 9 to 14) (size 15 to 20)
#    0.000    1.750    1.250    3.375    0.000    0.000 
#    0.000   12.500    0.000    0.000    0.000    0.000 
#    0.000    0.000    0.000    0.000    0.000    0.000 
#
# Total GULP energy -356552.848117 kJ/mol
# GULP energy per Si atom -5571.138252 kJ/mol
# Density = 1.970813 g / cm^3
# Si number density = 19.753086 Si / 1000 Ang^3
#
#
#
# Elastic Constant Matrix: (Units=GPa)
#
#
# Indices 1 2 3 4 5 6 
#
# 1 18.7906 9.2254 -7.3430 0.0000 0.0000 0.0000
# 2 9.2254 106.8516 13.6756 0.0000 0.0000 0.0000
# 3 -7.3430 13.6756 29.5137 0.0000 0.0000 0.0000
# 4 0.0000 0.0000 0.0000 27.1229 0.0000 0.0000
# 5 0.0000 0.0000 0.0000 0.0000 21.1633 0.0000
# 6 0.0000 0.0000 0.0000 0.0000 0.0000 -9.9486
#
#
#
# Elastic Compliance Matrix: (Units=1/GPa)
#
#
# Indices 1 2 3 4 5 6 
#
# 1 0.065031 -0.008170 0.019965 0.000000 0.000000 0.000000
# 2 -0.008170 0.010975 -0.007118 0.000000 0.000000 0.000000
# 3 0.019965 -0.007118 0.042148 0.000000 0.000000 0.000000
# 4 0.000000 0.000000 0.000000 0.036869 0.000000 0.000000
# 5 0.000000 0.000000 0.000000 0.000000 0.047252 0.000000
# 6 0.000000 0.000000 0.000000 0.000000 0.000000 -0.100516
#
#
# Mechanical properties :
#
#
# Convention : Reuss Voigt Hill
#
# Bulk Modulus (GPa) = 7.84257 20.69687 14.26972
# Shear Modulus (GPa) = 37.06233 16.97404 27.01819
#
# Velocity S-wave (km/s) = 4.33630 2.93458 3.70238
# Velocity P-wave (km/s) = 5.38983 4.68859 5.05140
#
# Compressibility (1/GPa) = 0.12750915
#
# Stress axis : x y z
#
# Youngs Moduli (GPa) = 15.37724 91.11453 23.72574
#
# Poissons Ratio (x) = 0.74440 -0.47369
# Poissons Ratio (y) = 0.12563 0.16888
# Poissons Ratio (z) = -0.30701 0.64857
#
# Static dielectric constant tensor:
#      x y z
#    x 1.671080 0.000000 0.000000 
#    y 0.000000 1.799580 0.000000 
#    z 0.000000 0.000000 1.701020 
# 
# From -- ./inp_files/24035.got.cif
#   From: 2010.05.17/outbox.ucp.g08.bks.cvg/sg62_13_cif.got.tgz:24035.got - 2010.06.11 16:29:25.
