data_PCOD9467623
_publ_section_title
;
Structure prediction by ZEFSAII (Michael W. Deem and Ramdas Pophale) SiO2 
 PCOD9467623
Probable space group: P N M A
;
_chemical_formula_sum "Si O2"
_cell_formula_units_Z 48
_cell_length_a 20.054255
_cell_length_b 18.956456
_cell_length_c 5.159090
_cell_angle_alpha 90.000000
_cell_angle_beta 90.000000
_cell_angle_gamma 90.000000
_cell_volume 1961.267286
_symmetry_space_group_name_H-M "P N M A"
_symmetry_group_IT_number 62
_symmetry_cell_setting 'orthorhombic'
loop_
_space_group_symop_operation_xyz
x,y,z
1/2-x,-y,1/2+z
1/2+x,1/2-y,1/2-z
-x,1/2+y,-z
-x,-y,-z
1/2+x,y,1/2-z
1/2-x,1/2+y,1/2+z
x,1/2-y,z
loop_
_atom_site_type_symbol
_atom_site_label
_atom_site_fract_x
_atom_site_fract_y
_atom_site_fract_z
Si Si1 0.884732 0.250000 0.591825
Si Si2 0.695912 0.750000 0.600269
Si Si3 0.583368 0.912102 0.026875
Si Si4 0.546790 0.035721 0.702910
Si Si5 0.312991 0.650978 0.015657
Si Si6 0.609965 0.176378 0.489717
Si Si7 0.207144 0.502458 0.333254
O O1 0.821771 0.250000 0.400378
O O2 0.915709 0.173057 0.518664
O O3 0.864635 0.250000 0.894959
O O4 0.740988 0.818437 0.548446
O O5 0.506542 0.930784 0.096888
O O6 0.591788 0.969624 0.795002
O O7 0.648101 0.939325 0.193869
O O8 0.577522 0.102545 0.558811
O O9 0.500000 0.000000 0.500000
O O10 0.329902 0.674694 0.303697
O O11 0.319339 0.568428 0.969107
O O12 0.364865 0.678299 0.802592
O O13 0.571275 0.250000 0.539568
O O14 0.237138 0.478690 0.053331
#
# Coordination Sequence:
#
# PCOD9467623 Si02
#       7
#     4   4   8   8   8   8   8
#     4  12  28  46  74 107 157 192 254 293 390 464
#     4  12  24  46  70 109 153 206 232 317 368 444
#     4  11  27  50  71 113 147 200 252 312 378 458
#     4  11  27  49  80 102 151 197 252 319 376 440
#     4  12  23  44  71 104 150 186 248 299 365 422
#     4  12  24  45  74 108 139 191 244 311 357 433
#     4  12  25  43  73 106 144 195 246 300 365 446
#
# _framework density 24.473973999999998
#
# number of rings (size 3 to 8) (size 9 to 14) (size 15 to 20)
#    0.000    0.333    3.333    5.000    8.167    0.000 
#    1.500    0.000    0.000    0.000    0.000    0.000 
#    0.000    0.000    0.000    0.000    0.000    0.000 
#
# Total GULP energy -267603.100951 kJ/mol
# GULP energy per Si atom -5575.064603 kJ/mol
# Density = 2.441827 g / cm^3
# Si number density = 24.473974 Si / 1000 Ang^3
#
#
#
# Elastic Constant Matrix: (Units=GPa)
#
#
# Indices 1 2 3 4 5 6 
#
# 1 36.9436 34.6667 12.1322 0.0000 0.0000 0.0000
# 2 34.6667 239.3015 5.0966 0.0000 0.0000 0.0000
# 3 12.1322 5.0966 52.3856 0.0000 0.0000 0.0000
# 4 0.0000 0.0000 0.0000 20.5385 0.0000 0.0000
# 5 0.0000 0.0000 0.0000 0.0000 36.0306 0.0000
# 6 0.0000 0.0000 0.0000 0.0000 0.0000 48.4698
#
#
#
# Elastic Compliance Matrix: (Units=1/GPa)
#
#
# Indices 1 2 3 4 5 6 
#
# 1 0.033969 -0.004763 -0.007404 0.000000 0.000000 0.000000
# 2 -0.004763 0.004855 0.000631 0.000000 0.000000 0.000000
# 3 -0.007404 0.000631 0.020743 0.000000 0.000000 0.000000
# 4 0.000000 0.000000 0.000000 0.048689 0.000000 0.000000
# 5 0.000000 0.000000 0.000000 0.000000 0.027754 0.000000
# 6 0.000000 0.000000 0.000000 0.000000 0.000000 0.020631
#
#
# Mechanical properties :
#
#
# Convention : Reuss Voigt Hill
#
# Bulk Modulus (GPa) = 27.40114 48.04686 37.72400
# Shear Modulus (GPa) = 26.05803 39.45680 32.75742
#
# Velocity S-wave (km/s) = 3.26655 4.01957 3.66246
# Velocity P-wave (km/s) = 5.04455 6.42005 5.77341
#
# Compressibility (1/GPa) = 0.03649483
#
# Stress axis : x y z
#
# Youngs Moduli (GPa) = 29.43826 205.95452 48.21018
#
# Poissons Ratio (x) = 0.98103 0.35693
# Poissons Ratio (y) = 0.14022 -0.03041
# Poissons Ratio (z) = 0.21795 -0.12991
#
# Static dielectric constant tensor:
#      x y z
#    x 2.023680 0.000000 0.000000 
#    y 0.000000 1.956340 0.000000 
#    z 0.000000 0.000000 1.964400 
# 
# From -- ./inp_files/2766.got.cif
#   From: 2010.05.17/outbox.cif.g08.bks.cpg/sg62_2_cif.got.tgz:2766.got - 2010.06.03 15:25:27.
