data_PCOD9467321
_publ_section_title
;
Structure prediction by ZEFSAII (Michael W. Deem and Ramdas Pophale) SiO2 
 PCOD9467321
Probable space group: P N M A
;
_chemical_formula_sum "Si O2"
_cell_formula_units_Z 44
_cell_length_a 21.803769
_cell_length_b 12.919879
_cell_length_c 6.670411
_cell_angle_alpha 90.000000
_cell_angle_beta 90.000000
_cell_angle_gamma 90.000000
_cell_volume 1879.068501
_symmetry_space_group_name_H-M "P N M A"
_symmetry_group_IT_number 62
_symmetry_cell_setting 'orthorhombic'
loop_
_space_group_symop_operation_xyz
x,y,z
1/2-x,-y,1/2+z
1/2+x,1/2-y,1/2-z
-x,1/2+y,-z
-x,-y,-z
1/2+x,y,1/2-z
1/2-x,1/2+y,1/2+z
x,1/2-y,z
loop_
_atom_site_type_symbol
_atom_site_label
_atom_site_fract_x
_atom_site_fract_y
_atom_site_fract_z
Si Si1 0.545383 0.250000 0.800379
Si Si2 0.741388 0.250000 0.438090
Si Si3 0.756572 0.579670 0.596744
Si Si4 0.866432 0.250000 0.637650
Si Si5 0.541366 0.750000 0.820155
Si Si6 0.047243 0.136742 0.087569
Si Si7 0.145265 0.538520 0.170825
Si Si8 0.816604 0.750000 0.326562
O O1 0.496131 0.250000 0.972349
O O2 0.539414 0.348063 0.650194
O O3 0.612897 0.250000 0.890467
O O4 0.794083 0.250000 0.603665
O O5 0.683475 0.250000 0.585773
O O6 0.745587 0.348024 0.293108
O O7 0.806817 0.494397 0.654045
O O8 0.689364 0.544979 0.524695
O O9 0.783950 0.650065 0.419490
O O10 0.891274 0.250000 0.409141
O O11 0.882042 0.148574 0.764813
O O12 0.519227 0.850610 0.694283
O O13 0.073850 0.250000 0.153447
O O14 0.091644 0.045295 0.146524
#
# Coordination Sequence:
#
# PCOD9467321 Si02
#       8
#     4   4   8   4   4   8   8   4
#     4   9  18  37  69  91 119 165 219 273 320 375
#     4  11  22  47  62  98 139 178 219 266 334 416
#     4  11  25  37  65  98 138 174 217 262 335 409
#     4  12  25  44  66  93 141 170 219 274 348 391
#     4   9  21  46  67  93 124 172 227 285 324 389
#     4   8  22  41  63  93 118 166 228 269 318 383
#     4  12  23  43  63 100 135 173 216 272 331 413
#     4  11  20  40  68  99 131 177 216 274 332 393
#
# _framework density 23.415858
#
# number of rings (size 3 to 8) (size 9 to 14) (size 15 to 20)
#    1.091    0.364    1.818    3.818    5.091    0.727 
#   11.455    0.909    0.000    0.000    0.000    0.000 
#    0.000    0.000    0.000    0.000    0.000    0.000 
#
# Total GULP energy -245784.219482 kJ/mol
# GULP energy per Si atom -5586.004988 kJ/mol
# Density = 2.336256 g / cm^3
# Si number density = 23.415858 Si / 1000 Ang^3
#
#
#
# Elastic Constant Matrix: (Units=GPa)
#
#
# Indices 1 2 3 4 5 6 
#
# 1 32.9559 8.4705 -5.0250 0.0000 0.0000 0.0000
# 2 8.4705 119.6288 13.2005 0.0000 0.0000 0.0000
# 3 -5.0250 13.2005 88.6571 0.0000 0.0000 0.0000
# 4 0.0000 0.0000 0.0000 14.3365 0.0000 0.0000
# 5 0.0000 0.0000 0.0000 0.0000 40.8263 0.0000
# 6 0.0000 0.0000 0.0000 0.0000 0.0000 -1.5510
#
#
#
# Elastic Compliance Matrix: (Units=1/GPa)
#
#
# Indices 1 2 3 4 5 6 
#
# 1 0.031300 -0.002452 0.002139 0.000000 0.000000 0.000000
# 2 -0.002452 0.008691 -0.001433 0.000000 0.000000 0.000000
# 3 0.002139 -0.001433 0.011614 0.000000 0.000000 0.000000
# 4 0.000000 0.000000 0.000000 0.069752 0.000000 0.000000
# 5 0.000000 0.000000 0.000000 0.000000 0.024494 0.000000
# 6 0.000000 0.000000 0.000000 0.000000 0.000000 -0.644738
#
#
# Mechanical properties :
#
#
# Convention : Reuss Voigt Hill
#
# Bulk Modulus (GPa) = 20.78448 30.50374 25.64411
# Shear Modulus (GPa) = -10.43064 25.69540 7.63238
#
# Velocity S-wave (km/s) = -2.11286 3.31622 1.80736
# Velocity P-wave (km/s) = 1.71559 5.26482 3.91546
#
# Compressibility (1/GPa) = 0.04811282
#
# Stress axis : x y z
#
# Youngs Moduli (GPa) = 31.94881 115.06209 86.10276
#
# Poissons Ratio (x) = 0.28217 -0.18419
# Poissons Ratio (y) = 0.07835 0.12339
# Poissons Ratio (z) = -0.06834 0.16489
#
# Static dielectric constant tensor:
#      x y z
#    x 1.881960 0.000000 0.000000 
#    y 0.000000 1.912340 0.000000 
#    z 0.000000 0.000000 1.886740 
# 
# From -- ./inp_files/3163.got.cif
#   From: 2010.05.17/outbox.cif.g08.bks.cpg/sg62_2_cif.got.tgz:3163.got - 2010.06.03 15:25:27.
