data_PCOD9467594
_publ_section_title
;
Structure prediction by ZEFSAII (Michael W. Deem and Ramdas Pophale) SiO2 
 PCOD9467594
Probable space group: P N M A
;
_chemical_formula_sum "Si O2"
_cell_formula_units_Z 24
_cell_length_a 9.746961
_cell_length_b 13.623301
_cell_length_c 7.255220
_cell_angle_alpha 90.000000
_cell_angle_beta 90.000000
_cell_angle_gamma 90.000000
_cell_volume 963.390072
_symmetry_space_group_name_H-M "P N M A"
_symmetry_group_IT_number 62
_symmetry_cell_setting 'orthorhombic'
loop_
_space_group_symop_operation_xyz
x,y,z
1/2-x,-y,1/2+z
1/2+x,1/2-y,1/2-z
-x,1/2+y,-z
-x,-y,-z
1/2+x,y,1/2-z
1/2-x,1/2+y,1/2+z
x,1/2-y,z
loop_
_atom_site_type_symbol
_atom_site_label
_atom_site_fract_x
_atom_site_fract_y
_atom_site_fract_z
Si Si1 0.457417 0.863805 0.826945
Si Si2 0.169059 0.949179 0.951606
Si Si3 0.820933 0.136285 0.642070
O O1 0.459978 0.750000 0.771021
O O2 0.303850 0.897860 0.863962
O O3 0.541566 0.925999 0.678519
O O4 0.542848 0.872962 0.017814
O O5 0.208553 0.063707 0.945018
O O6 0.154165 0.901428 0.151651
O O7 0.778376 0.250000 0.642301
#
# Coordination Sequence:
#
# PCOD9467594 Si02
#       3
#     8   8   8
#     4  11  25  46  74 107 143 189 239 291 356 424
#     4  12  25  48  73 105 148 186 236 298 353 421
#     4  11  25  44  71 106 144 187 235 291 356 421
#
# _framework density 24.912030000000001
#
# number of rings (size 3 to 8) (size 9 to 14) (size 15 to 20)
#    0.000    0.667    3.333    4.000    0.000    4.000 
#    0.000    3.333    0.000    0.000    0.000    0.000 
#    0.000    0.000    0.000    0.000    0.000    0.000 
#
# Total GULP energy -134871.054618 kJ/mol
# GULP energy per Si atom -5619.627276 kJ/mol
# Density = 2.485533 g / cm^3
# Si number density = 24.912030 Si / 1000 Ang^3
#
#
#
# Elastic Constant Matrix: (Units=GPa)
#
#
# Indices 1 2 3 4 5 6 
#
# 1 135.7695 35.1490 17.4787 0.0000 0.0000 0.0000
# 2 35.1490 182.6940 23.0797 0.0000 0.0000 0.0000
# 3 17.4787 23.0797 125.5199 0.0000 0.0000 0.0000
# 4 0.0000 0.0000 0.0000 -118.1772 0.0000 0.0000
# 5 0.0000 0.0000 0.0000 0.0000 30.4241 0.0000
# 6 0.0000 0.0000 0.0000 0.0000 0.0000 13.4969
#
#
#
# Elastic Compliance Matrix: (Units=1/GPa)
#
#
# Indices 1 2 3 4 5 6 
#
# 1 0.007836 -0.001402 -0.000833 0.000000 0.000000 0.000000
# 2 -0.001402 0.005855 -0.000881 0.000000 0.000000 0.000000
# 3 -0.000833 -0.000881 0.008245 0.000000 0.000000 0.000000
# 4 0.000000 0.000000 0.000000 -0.008462 0.000000 0.000000
# 5 0.000000 0.000000 0.000000 0.000000 0.032869 0.000000
# 6 0.000000 0.000000 0.000000 0.000000 0.000000 0.074091
#
#
# Mechanical properties :
#
#
# Convention : Reuss Voigt Hill
#
# Bulk Modulus (GPa) = 63.68705 66.15536 64.92121
# Shear Modulus (GPa) = 37.90732 9.70050 23.80391
#
# Velocity S-wave (km/s) = 3.90506 1.97544 3.09450
# Velocity P-wave (km/s) = 6.77886 5.64060 6.23576
#
# Compressibility (1/GPa) = 0.01570178
#
# Stress axis : x y z
#
# Youngs Moduli (GPa) = 127.62054 170.80154 121.28655
#
# Poissons Ratio (x) = 0.23951 0.10107
# Poissons Ratio (y) = 0.17896 0.10689
# Poissons Ratio (z) = 0.10634 0.15052
#
# Static dielectric constant tensor:
#      x y z
#    x 1.914470 0.000000 0.000000 
#    y 0.000000 1.958340 0.000000 
#    z 0.000000 0.000000 1.963590 
# 
# From -- ./inp_files/3987.got.cif
#   From: 2010.05.17/outbox.cif.g08.bks.cpg/sg62_2_cif.got.tgz:3987.got - 2010.06.03 15:25:27.
