data_PCOD9467584
_publ_section_title
;
Structure prediction by ZEFSAII (Michael W. Deem and Ramdas Pophale) SiO2 
 PCOD9467584
Probable space group: P N M A
;
_chemical_formula_sum "Si O2"
_cell_formula_units_Z 20
_cell_length_a 6.145939
_cell_length_b 18.025059
_cell_length_c 7.534162
_cell_angle_alpha 90.000000
_cell_angle_beta 90.000000
_cell_angle_gamma 90.000000
_cell_volume 834.641346
_symmetry_space_group_name_H-M "P N M A"
_symmetry_group_IT_number 62
_symmetry_cell_setting 'orthorhombic'
loop_
_space_group_symop_operation_xyz
x,y,z
1/2-x,-y,1/2+z
1/2+x,1/2-y,1/2-z
-x,1/2+y,-z
-x,-y,-z
1/2+x,y,1/2-z
1/2-x,1/2+y,1/2+z
x,1/2-y,z
loop_
_atom_site_type_symbol
_atom_site_label
_atom_site_fract_x
_atom_site_fract_y
_atom_site_fract_z
Si Si1 0.083397 0.100715 0.500447
Si Si2 0.272725 0.750000 0.836586
Si Si3 0.189049 0.038349 0.888560
O O1 0.203291 0.175017 0.450055
O O2 0.821332 0.100057 0.498695
O O3 0.136054 0.076723 0.703011
O O4 0.154429 0.033561 0.372819
O O5 0.019381 0.750000 0.761712
O O6 0.000000 0.000000 0.000000
#
# Coordination Sequence:
#
# PCOD9467584 Si02
#       3
#     8   4   8
#     4  11  27  46  78 113 161 209 267 333 404 474
#     4  12  34  54  78 118 170 214 268 338 408 482
#     4  11  24  46  79 115 150 201 275 329 393 477
#
# _framework density 23.962389000000002
#
# number of rings (size 3 to 8) (size 9 to 14) (size 15 to 20)
#    0.000    0.800    4.000    0.000   16.800    1.600 
#    0.000    0.000    0.000    0.000    0.000    0.000 
#    0.000    0.000    0.000    0.000    0.000    0.000 
#
# Total GULP energy -111518.106554 kJ/mol
# GULP energy per Si atom -5575.905328 kJ/mol
# Density = 2.390785 g / cm^3
# Si number density = 23.962389 Si / 1000 Ang^3
#
#
#
# Elastic Constant Matrix: (Units=GPa)
#
#
# Indices 1 2 3 4 5 6 
#
# 1 128.4491 8.0362 53.9333 0.0000 0.0000 0.0000
# 2 8.0362 84.5564 24.2425 0.0000 0.0000 0.0000
# 3 53.9333 24.2425 123.9295 0.0000 0.0000 0.0000
# 4 0.0000 0.0000 0.0000 44.9649 0.0000 0.0000
# 5 0.0000 0.0000 0.0000 0.0000 49.2044 0.0000
# 6 0.0000 0.0000 0.0000 0.0000 0.0000 30.1209
#
#
#
# Elastic Compliance Matrix: (Units=1/GPa)
#
#
# Indices 1 2 3 4 5 6 
#
# 1 0.009533 0.000300 -0.004207 0.000000 0.000000 0.000000
# 2 0.000300 0.012539 -0.002583 0.000000 0.000000 0.000000
# 3 -0.004207 -0.002583 0.010406 0.000000 0.000000 0.000000
# 4 0.000000 0.000000 0.000000 0.022240 0.000000 0.000000
# 5 0.000000 0.000000 0.000000 0.000000 0.020323 0.000000
# 6 0.000000 0.000000 0.000000 0.000000 0.000000 0.033200
#
#
# Mechanical properties :
#
#
# Convention : Reuss Voigt Hill
#
# Bulk Modulus (GPa) = 51.29277 56.59545 53.94411
# Shear Modulus (GPa) = 39.14833 41.57291 40.36062
#
# Velocity S-wave (km/s) = 4.04634 4.16976 4.10851
# Velocity P-wave (km/s) = 6.57894 6.84487 6.71322
#
# Compressibility (1/GPa) = 0.01949592
#
# Stress axis : x y z
#
# Youngs Moduli (GPa) = 104.89843 79.75397 96.10292
#
# Poissons Ratio (x) = -0.02395 0.40435
# Poissons Ratio (y) = -0.03150 0.24827
# Poissons Ratio (z) = 0.44135 0.20604
#
# Static dielectric constant tensor:
#      x y z
#    x 2.407400 0.000000 0.000000 
#    y 0.000000 1.863980 0.000000 
#    z 0.000000 0.000000 1.979780 
# 
# From -- ./inp_files/3753.got.cif
#   From: 2010.05.17/outbox.cif.g08.bks.cpg/sg62_2_cif.got.tgz:3753.got - 2010.06.03 15:25:27.
