data_PCOD9467279
_publ_section_title
;
Structure prediction by ZEFSAII (Michael W. Deem and Ramdas Pophale) SiO2 
 PCOD9467279
Probable space group: P N M A
;
_chemical_formula_sum "Si O2"
_cell_formula_units_Z 40
_cell_length_a 8.653341
_cell_length_b 18.131098
_cell_length_c 12.219881
_cell_angle_alpha 90.000000
_cell_angle_beta 90.000000
_cell_angle_gamma 90.000000
_cell_volume 1917.233020
_symmetry_space_group_name_H-M "P N M A"
_symmetry_group_IT_number 62
_symmetry_cell_setting 'orthorhombic'
loop_
_space_group_symop_operation_xyz
x,y,z
1/2-x,-y,1/2+z
1/2+x,1/2-y,1/2-z
-x,1/2+y,-z
-x,-y,-z
1/2+x,y,1/2-z
1/2-x,1/2+y,1/2+z
x,1/2-y,z
loop_
_atom_site_type_symbol
_atom_site_label
_atom_site_fract_x
_atom_site_fract_y
_atom_site_fract_z
Si Si1 0.627629 0.077569 0.191887
Si Si2 0.456157 0.085215 0.719564
Si Si3 0.809935 0.387281 0.402121
Si Si4 0.754370 0.832297 0.133252
Si Si5 0.672513 0.965496 0.489113
O O1 0.484999 0.119737 0.137449
O O2 0.698228 0.116827 0.297844
O O3 0.761322 0.065835 0.101546
O O4 0.563826 0.997434 0.233081
O O5 0.624084 0.107160 0.676403
O O6 0.404446 0.142407 0.811405
O O7 0.345820 0.090049 0.612470
O O8 0.761484 0.337058 0.503000
O O9 0.786991 0.469941 0.450529
O O10 0.799446 0.750000 0.165979
O O11 0.500000 0.000000 0.500000
#
# Coordination Sequence:
#
# PCOD9467279 Si02
#       5
#     8   8   8   8   8
#     4  11  22  38  67  99 124 153 199 275 332 367
#     4  11  22  40  64  94 125 160 205 257 319 366
#     4  11  23  38  62  95 124 157 203 258 321 369
#     4  12  26  43  61  86 128 174 213 247 293 379
#     4  11  19  37  64  97 128 154 195 264 326 370
#
# _framework density 20.863402000000001
#
# number of rings (size 3 to 8) (size 9 to 14) (size 15 to 20)
#    0.000    0.800    4.000    6.000    2.800    0.000 
#    0.000    1.000    0.000    0.000    0.000    0.000 
#    0.000    0.000    0.000    0.000    0.000    0.000 
#
# Total GULP energy -223613.537033 kJ/mol
# GULP energy per Si atom -5590.338426 kJ/mol
# Density = 2.081592 g / cm^3
# Si number density = 20.863402 Si / 1000 Ang^3
#
#
#
# Elastic Constant Matrix: (Units=GPa)
#
#
# Indices 1 2 3 4 5 6 
#
# 1 93.8610 5.8751 35.5594 0.0000 0.0000 0.0000
# 2 5.8751 15.5697 -3.1285 0.0000 0.0000 0.0000
# 3 35.5594 -3.1285 112.9138 0.0000 0.0000 0.0000
# 4 0.0000 0.0000 0.0000 11.3024 0.0000 0.0000
# 5 0.0000 0.0000 0.0000 0.0000 42.4809 0.0000
# 6 0.0000 0.0000 0.0000 0.0000 0.0000 5.2577
#
#
#
# Elastic Compliance Matrix: (Units=1/GPa)
#
#
# Indices 1 2 3 4 5 6 
#
# 1 0.012559 -0.005565 -0.004109 0.000000 0.000000 0.000000
# 2 -0.005565 0.067053 0.003610 0.000000 0.000000 0.000000
# 3 -0.004109 0.003610 0.010250 0.000000 0.000000 0.000000
# 4 0.000000 0.000000 0.000000 0.088477 0.000000 0.000000
# 5 0.000000 0.000000 0.000000 0.000000 0.023540 0.000000
# 6 0.000000 0.000000 0.000000 0.000000 0.000000 0.190198
#
#
# Mechanical properties :
#
#
# Convention : Reuss Voigt Hill
#
# Bulk Modulus (GPa) = 12.86429 33.21740 23.04084
# Shear Modulus (GPa) = 11.62475 24.07743 17.85109
#
# Velocity S-wave (km/s) = 2.36303 3.40082 2.92827
# Velocity P-wave (km/s) = 3.69115 5.60149 4.74348
#
# Compressibility (1/GPa) = 0.07773460
#
# Stress axis : x y z
#
# Youngs Moduli (GPa) = 79.62263 14.91363 97.55623
#
# Poissons Ratio (x) = 0.08299 0.40090
# Poissons Ratio (y) = 0.44309 -0.35221
# Poissons Ratio (z) = 0.32720 -0.05384
#
# Static dielectric constant tensor:
#      x y z
#    x 1.790010 0.000000 0.000000 
#    y 0.000000 1.727890 0.000000 
#    z 0.000000 0.000000 1.791980 
# 
# From -- ./inp_files/11053.got.cif
#   From: 2010.05.17/outbox.cif.g08.bks.cpg/sg62_6_cif.got.tgz:11053.got - 2010.06.03 15:25:27.
