data_PCOD9467113
_publ_section_title
;
Structure prediction by ZEFSAII (Michael W. Deem and Ramdas Pophale) SiO2 
 PCOD9467113
Probable space group: P N M A
;
_chemical_formula_sum "Si O2"
_cell_formula_units_Z 40
_cell_length_a 13.948473
_cell_length_b 22.859719
_cell_length_c 5.012932
_cell_angle_alpha 90.000000
_cell_angle_beta 90.000000
_cell_angle_gamma 90.000000
_cell_volume 1598.414340
_symmetry_space_group_name_H-M "P N M A"
_symmetry_group_IT_number 62
_symmetry_cell_setting 'orthorhombic'
loop_
_space_group_symop_operation_xyz
x,y,z
1/2-x,-y,1/2+z
1/2+x,1/2-y,1/2-z
-x,1/2+y,-z
-x,-y,-z
1/2+x,y,1/2-z
1/2-x,1/2+y,1/2+z
x,1/2-y,z
loop_
_atom_site_type_symbol
_atom_site_label
_atom_site_fract_x
_atom_site_fract_y
_atom_site_fract_z
Si Si1 0.728062 0.419190 0.884581
Si Si2 0.383197 0.020118 0.321688
Si Si3 0.794122 0.315940 0.537601
Si Si4 0.427229 0.315051 0.464662
Si Si5 0.057450 0.083981 0.220849
O O1 0.833862 0.430122 0.000895
O O2 0.644336 0.400078 0.087102
O O3 0.696723 0.487106 0.845625
O O4 0.734572 0.372303 0.644017
O O5 0.416633 0.965743 0.504494
O O6 0.464505 0.051758 0.146620
O O7 0.750364 0.250000 0.562838
O O8 0.837745 0.321700 0.242876
O O9 0.884452 0.316596 0.739304
O O10 0.464942 0.250000 0.412283
O O11 0.511892 0.359988 0.415395
#
# Coordination Sequence:
#
# PCOD9467113 Si02
#       5
#     8   8   8   8   8
#     4  12  24  40  69  96 143 181 235 283 352 415
#     4  11  25  42  62 104 138 183 230 293 346 418
#     4  10  24  45  71 100 136 180 229 289 346 403
#     4  10  23  45  71  99 135 180 230 288 344 404
#     4  11  25  42  67  99 138 187 229 288 349 422
#
# _framework density 25.024801
#
# number of rings (size 3 to 8) (size 9 to 14) (size 15 to 20)
#    0.000    1.200    4.000    0.600    8.400    0.800 
#    0.000    1.000    0.000    0.000    0.000    0.000 
#    0.000    0.000    0.000    0.000    0.000    0.000 
#
# Total GULP energy -223554.364687 kJ/mol
# GULP energy per Si atom -5588.859117 kJ/mol
# Density = 2.496784 g / cm^3
# Si number density = 25.024801 Si / 1000 Ang^3
#
#
#
# Elastic Constant Matrix: (Units=GPa)
#
#
# Indices 1 2 3 4 5 6 
#
# 1 70.0002 36.2254 2.2113 0.0000 0.0000 0.0000
# 2 36.2254 155.7450 1.1832 0.0000 0.0000 0.0000
# 3 2.2113 1.1832 34.1657 0.0000 0.0000 0.0000
# 4 0.0000 0.0000 0.0000 44.8852 0.0000 0.0000
# 5 0.0000 0.0000 0.0000 0.0000 28.1900 0.0000
# 6 0.0000 0.0000 0.0000 0.0000 0.0000 -27.5420
#
#
#
# Elastic Compliance Matrix: (Units=1/GPa)
#
#
# Indices 1 2 3 4 5 6 
#
# 1 0.016270 -0.003777 -0.000922 0.000000 0.000000 0.000000
# 2 -0.003777 0.007299 -0.000008 0.000000 0.000000 0.000000
# 3 -0.000922 -0.000008 0.029329 0.000000 0.000000 0.000000
# 4 0.000000 0.000000 0.000000 0.022279 0.000000 0.000000
# 5 0.000000 0.000000 0.000000 0.000000 0.035474 0.000000
# 6 0.000000 0.000000 0.000000 0.000000 0.000000 -0.036308
#
#
# Mechanical properties :
#
#
# Convention : Reuss Voigt Hill
#
# Bulk Modulus (GPa) = 22.99774 37.68342 30.34058
# Shear Modulus (GPa) = 50.88953 23.79270 37.34111
#
# Velocity S-wave (km/s) = 4.51440 3.08679 3.86704
# Velocity P-wave (km/s) = 6.03183 5.27214 5.66474
#
# Compressibility (1/GPa) = 0.04348254
#
# Stress axis : x y z
#
# Youngs Moduli (GPa) = 61.46457 136.99813 34.09587
#
# Poissons Ratio (x) = 0.51747 0.03144
# Poissons Ratio (y) = 0.23216 0.00028
# Poissons Ratio (z) = 0.05668 0.00114
#
# Static dielectric constant tensor:
#      x y z
#    x 2.164850 0.000000 0.000000 
#    y 0.000000 1.998440 0.000000 
#    z 0.000000 0.000000 2.051620 
# 
# From -- ./inp_files/1044.got.cif
#   From: 2010.05.17/outbox.cif.g08.bks.cpg/sg62_1_cif.got.tgz:1044.got - 2010.06.03 15:25:27.
