data_PCOD9467800
_publ_section_title
;
Structure prediction by ZEFSAII (Michael W. Deem and Ramdas Pophale) SiO2 
 PCOD9467800
Probable space group: P N M A
;
_chemical_formula_sum "Si O2"
_cell_formula_units_Z 64
_cell_length_a 24.000000
_cell_length_b 9.000000
_cell_length_c 18.000000
_cell_angle_alpha 90.000000
_cell_angle_beta 90.000000
_cell_angle_gamma 90.000000
_cell_volume 3888.000000
_symmetry_space_group_name_H-M "P N M A"
_symmetry_group_IT_number 62
_symmetry_cell_setting 'orthorhombic'
loop_
_space_group_symop_operation_xyz
x,y,z
1/2-x,-y,1/2+z
1/2+x,1/2-y,1/2-z
-x,1/2+y,-z
-x,-y,-z
1/2+x,y,1/2-z
1/2-x,1/2+y,1/2+z
x,1/2-y,z
loop_
_atom_site_type_symbol
_atom_site_label
_atom_site_fract_x
_atom_site_fract_y
_atom_site_fract_z
Si Si1 0.291788 0.077960 0.908265
Si Si2 0.184782 0.076037 0.799706
Si Si3 0.399399 0.070940 0.521386
Si Si4 0.432497 0.571786 0.373676
Si Si5 0.756157 0.580604 0.815956
Si Si6 0.727393 0.574854 0.467536
Si Si7 0.864387 0.921139 0.709204
Si Si8 0.948532 0.071436 0.818095
O O1 0.303761 0.250000 0.919044
O O2 0.235254 0.065498 0.858793
O O3 0.274925 0.000244 0.984070
O O4 0.341847 0.002246 0.863858
O O5 0.181574 0.250000 0.777050
O O6 0.125892 0.032200 0.834979
O O7 0.204126 0.971150 0.733198
O O8 0.401866 0.250000 0.517328
O O9 0.335085 0.022309 0.511780
O O10 0.420387 0.027650 0.603147
O O11 0.434213 0.002083 0.454488
O O12 0.433263 0.750000 0.383535
O O13 0.486553 0.531353 0.325675
O O14 0.750239 0.750000 0.842458
O O15 0.811505 0.573081 0.765333
O O16 0.764113 0.467750 0.882675
O O17 0.728766 0.750000 0.479341
O O18 0.876747 0.750000 0.693713
O O19 0.915481 0.997847 0.750942
O O20 0.943740 0.250000 0.811807
#
# Coordination Sequence:
#
# PCOD9467800 Si02
#       8
#     8   8   8   8   8   8   8   8
#     4  10  19  32  51  71  97 129 163 203 248 296
#     4   9  18  32  48  69  95 127 162 203 248 287
#     4  10  20  31  45  68 100 135 170 203 239 283
#     4  10  20  33  50  70  97 133 173 208 241 288
#     4  10  20  32  49  71  95 126 163 204 247 294
#     4  11  20  31  49  73 101 132 163 200 245 295
#     4  10  20  33  49  71  97 127 166 209 249 291
#     4  10  20  34  49  69  98 135 173 206 244 288
#
# _framework density 16.460905
#
# number of rings (size 3 to 8) (size 9 to 14) (size 15 to 20)
#    0.000    2.000    2.500    1.875    0.000    3.500 
#    0.000    0.000    0.000    0.000    0.000    0.875 
#    0.000    0.000    0.000    0.000    0.000    0.000 
#
# Total GULP energy -356953.975027 kJ/mol
# GULP energy per Si atom -5577.405860 kJ/mol
# Density = 1.642344 g / cm^3
# Si number density = 16.460905 Si / 1000 Ang^3
#
#
#
# Elastic Constant Matrix: (Units=GPa)
#
#
# Indices 1 2 3 4 5 6 
#
# 1 38.5907 6.2941 0.4915 0.0000 0.0000 0.0000
# 2 6.2941 16.1489 5.0832 0.0000 0.0000 0.0000
# 3 0.4915 5.0832 6.5044 0.0000 0.0000 0.0000
# 4 0.0000 0.0000 0.0000 25.4769 0.0000 0.0000
# 5 0.0000 0.0000 0.0000 0.0000 25.3769 0.0000
# 6 0.0000 0.0000 0.0000 0.0000 0.0000 18.6386
#
#
#
# Elastic Compliance Matrix: (Units=1/GPa)
#
#
# Indices 1 2 3 4 5 6 
#
# 1 0.028023 -0.013601 0.008512 0.000000 0.000000 0.000000
# 2 -0.013601 0.088728 -0.068314 0.000000 0.000000 0.000000
# 3 0.008512 -0.068314 0.206486 0.000000 0.000000 0.000000
# 4 0.000000 0.000000 0.000000 0.039251 0.000000 0.000000
# 5 0.000000 0.000000 0.000000 0.000000 0.039406 0.000000
# 6 0.000000 0.000000 0.000000 0.000000 0.000000 0.053652
#
#
# Mechanical properties :
#
#
# Convention : Reuss Voigt Hill
#
# Bulk Modulus (GPa) = 5.66792 9.44239 7.55515
# Shear Modulus (GPa) = 7.56243 17.19017 12.37630
#
# Velocity S-wave (km/s) = 2.14573 3.23507 2.74498
# Velocity P-wave (km/s) = 3.09671 4.43880 3.82705
#
# Compressibility (1/GPa) = 0.17643161
#
# Stress axis : x y z
#
# Youngs Moduli (GPa) = 35.68508 11.27038 4.84293
#
# Poissons Ratio (x) = 0.15329 -0.04122
# Poissons Ratio (y) = 0.48537 0.33084
# Poissons Ratio (z) = -0.30375 0.76992
#
# Static dielectric constant tensor:
#      x y z
#    x 1.548220 0.000000 0.000000 
#    y 0.000000 1.550520 0.000000 
#    z 0.000000 0.000000 1.546860 
# 
# From -- ./inp_files/24698.got.cif
#   From: 2010.05.17/outbox.ucp.g08.bks.cvg/sg62_13_cif.got.tgz:24698.got - 2010.06.11 16:29:25.
