data_PCOD9467673
_publ_section_title
;
Structure prediction by ZEFSAII (Michael W. Deem and Ramdas Pophale) SiO2 
 PCOD9467673
Probable space group: P N M A
;
_chemical_formula_sum "Si O2"
_cell_formula_units_Z 40
_cell_length_a 9.194135
_cell_length_b 23.934558
_cell_length_c 7.726991
_cell_angle_alpha 90.000000
_cell_angle_beta 90.000000
_cell_angle_gamma 90.000000
_cell_volume 1700.382766
_symmetry_space_group_name_H-M "P N M A"
_symmetry_group_IT_number 62
_symmetry_cell_setting 'orthorhombic'
loop_
_space_group_symop_operation_xyz
x,y,z
1/2-x,-y,1/2+z
1/2+x,1/2-y,1/2-z
-x,1/2+y,-z
-x,-y,-z
1/2+x,y,1/2-z
1/2-x,1/2+y,1/2+z
x,1/2-y,z
loop_
_atom_site_type_symbol
_atom_site_label
_atom_site_fract_x
_atom_site_fract_y
_atom_site_fract_z
Si Si1 0.573535 0.687015 0.553140
Si Si2 0.546487 0.353205 0.803896
Si Si3 0.208764 0.575298 0.311165
Si Si4 0.127282 0.138278 0.327037
Si Si5 0.124675 0.028960 0.122588
O O1 0.625645 0.750000 0.580091
O O2 0.522258 0.680607 0.353613
O O3 0.702214 0.646312 0.624104
O O4 0.430825 0.673285 0.665363
O O5 0.460605 0.411786 0.805697
O O6 0.709849 0.370362 0.759437
O O7 0.545010 0.336543 0.003769
O O8 0.275635 0.565051 0.496231
O O9 0.223214 0.520312 0.197931
O O10 0.087684 0.073675 0.275385
O O11 0.000000 0.000000 0.000000
#
# Coordination Sequence:
#
# PCOD9467673 Si02
#       5
#     8   8   8   8   8
#     4  12  28  51  77 109 146 199 264 324 388 452
#     4  12  26  48  72 107 150 196 251 313 378 455
#     4  12  24  43  69 106 148 198 243 305 368 460
#     4  12  27  49  77 110 153 198 250 321 386 459
#     4  12  26  42  72 111 155 199 251 304 388 466
#
# _framework density 23.524114000000001
#
# number of rings (size 3 to 8) (size 9 to 14) (size 15 to 20)
#    0.000    0.000    6.000    3.000    5.600    3.200 
#    0.000    0.000    0.000    0.000    0.000    0.000 
#    0.000    0.000    0.000    0.000    0.000    0.000 
#
# Total GULP energy -223189.596560 kJ/mol
# GULP energy per Si atom -5579.739914 kJ/mol
# Density = 2.347057 g / cm^3
# Si number density = 23.524114 Si / 1000 Ang^3
#
#
#
# Elastic Constant Matrix: (Units=GPa)
#
#
# Indices 1 2 3 4 5 6 
#
# 1 77.1896 17.0241 32.4396 0.0000 0.0000 0.0000
# 2 17.0241 69.9288 21.7214 0.0000 0.0000 0.0000
# 3 32.4396 21.7214 127.3140 0.0000 0.0000 0.0000
# 4 0.0000 0.0000 0.0000 28.0851 0.0000 0.0000
# 5 0.0000 0.0000 0.0000 0.0000 37.2573 0.0000
# 6 0.0000 0.0000 0.0000 0.0000 0.0000 20.9755
#
#
#
# Elastic Compliance Matrix: (Units=1/GPa)
#
#
# Indices 1 2 3 4 5 6 
#
# 1 0.014941 -0.002592 -0.003365 0.000000 0.000000 0.000000
# 2 -0.002592 0.015550 -0.001993 0.000000 0.000000 0.000000
# 3 -0.003365 -0.001993 0.009052 0.000000 0.000000 0.000000
# 4 0.000000 0.000000 0.000000 0.035606 0.000000 0.000000
# 5 0.000000 0.000000 0.000000 0.000000 0.026840 0.000000
# 6 0.000000 0.000000 0.000000 0.000000 0.000000 0.047675
#
#
# Mechanical properties :
#
#
# Convention : Reuss Voigt Hill
#
# Bulk Modulus (GPa) = 42.29386 46.31141 44.30264
# Shear Modulus (GPa) = 28.82769 30.81340 29.82054
#
# Velocity S-wave (km/s) = 3.50444 3.62313 3.56428
# Velocity P-wave (km/s) = 5.86454 6.10183 5.98436
#
# Compressibility (1/GPa) = 0.02364409
#
# Stress axis : x y z
#
# Youngs Moduli (GPa) = 66.93057 64.30755 110.47435
#
# Poissons Ratio (x) = 0.16670 0.37171
# Poissons Ratio (y) = 0.17350 0.22013
# Poissons Ratio (z) = 0.22520 0.12814
#
# Static dielectric constant tensor:
#      x y z
#    x 1.873930 0.000000 0.000000 
#    y 0.000000 1.907880 0.000000 
#    z 0.000000 0.000000 1.946780 
# 
# From -- ./inp_files/4289.got.cif
#   From: 2010.05.17/outbox.cif.g08.bks.cpg/sg62_3_cif.got.tgz:4289.got - 2010.06.03 15:25:27.
