data_PCOD9467314
_publ_section_title
;
Structure prediction by ZEFSAII (Michael W. Deem and Ramdas Pophale) SiO2 
 PCOD9467314
Probable space group: P N M A
;
_chemical_formula_sum "Si O2"
_cell_formula_units_Z 64
_cell_length_a 9.745266
_cell_length_b 29.688889
_cell_length_c 10.651907
_cell_angle_alpha 90.000000
_cell_angle_beta 90.000000
_cell_angle_gamma 90.000000
_cell_volume 3081.874929
_symmetry_space_group_name_H-M "P N M A"
_symmetry_group_IT_number 62
_symmetry_cell_setting 'orthorhombic'
loop_
_space_group_symop_operation_xyz
x,y,z
1/2-x,-y,1/2+z
1/2+x,1/2-y,1/2-z
-x,1/2+y,-z
-x,-y,-z
1/2+x,y,1/2-z
1/2-x,1/2+y,1/2+z
x,1/2-y,z
loop_
_atom_site_type_symbol
_atom_site_label
_atom_site_fract_x
_atom_site_fract_y
_atom_site_fract_z
Si Si1 0.082833 0.301904 0.163858
Si Si2 0.583492 0.197664 0.034345
Si Si3 0.048796 0.576378 0.201256
Si Si4 0.621971 0.928896 0.721680
Si Si5 0.733081 0.073393 0.602340
Si Si6 0.645809 0.640835 0.513501
Si Si7 0.332647 0.354718 0.068946
Si Si8 0.151416 0.020187 0.133606
O O1 0.067259 0.250000 0.125696
O O2 0.064905 0.304576 0.313872
O O3 0.237351 0.318960 0.139699
O O4 0.973130 0.331903 0.088234
O O5 0.582909 0.250000 0.997593
O O6 0.723783 0.173123 0.997923
O O7 0.451265 0.169652 0.991071
O O8 0.119141 0.573364 0.335636
O O9 0.102767 0.530850 0.135355
O O10 0.885180 0.574918 0.205336
O O11 0.095212 0.618504 0.116153
O O12 0.683766 0.900477 0.606556
O O13 0.609368 0.892657 0.835505
O O14 0.477147 0.949033 0.677286
O O15 0.724043 0.967408 0.772610
O O16 0.729032 0.118278 0.519866
O O17 0.700360 0.034004 0.504824
#
# Coordination Sequence:
#
# PCOD9467314 Si02
#       8
#     8   8   8   8   8   8   8   8
#     4  11  20  37  65  99 134 167 209 264 336 401
#     4  11  22  36  62 103 136 158 206 267 333 405
#     4  12  26  44  67  88 131 175 230 269 317 382
#     4  11  20  39  66  95 134 169 213 260 332 391
#     4  11  26  45  63  94 125 176 220 270 318 383
#     4  12  22  38  63  93 133 175 208 266 326 387
#     4  11  21  40  63  95 134 171 207 260 331 395
#     4  11  24  43  65  95 132 171 219 275 322 382
#
# _framework density 20.766579
#
# number of rings (size 3 to 8) (size 9 to 14) (size 15 to 20)
#    0.000    0.750    5.000    3.375    3.500    2.000 
#    0.000    1.875    0.000    4.500    0.000    0.000 
#    0.000    0.000    0.000    0.000    0.000    0.000 
#
# Total GULP energy -357811.571707 kJ/mol
# GULP energy per Si atom -5590.805808 kJ/mol
# Density = 2.071931 g / cm^3
# Si number density = 20.766579 Si / 1000 Ang^3
#
#
#
# Elastic Constant Matrix: (Units=GPa)
#
#
# Indices 1 2 3 4 5 6 
#
# 1 35.2653 12.3720 1.8407 0.0000 0.0000 0.0000
# 2 12.3720 93.3065 -0.8747 0.0000 0.0000 0.0000
# 3 1.8407 -0.8747 28.2191 0.0000 0.0000 0.0000
# 4 0.0000 0.0000 0.0000 23.1141 0.0000 0.0000
# 5 0.0000 0.0000 0.0000 0.0000 32.4903 0.0000
# 6 0.0000 0.0000 0.0000 0.0000 0.0000 25.6594
#
#
#
# Elastic Compliance Matrix: (Units=1/GPa)
#
#
# Indices 1 2 3 4 5 6 
#
# 1 0.029860 -0.003979 -0.002071 0.000000 0.000000 0.000000
# 2 -0.003979 0.011251 0.000608 0.000000 0.000000 0.000000
# 3 -0.002071 0.000608 0.035591 0.000000 0.000000 0.000000
# 4 0.000000 0.000000 0.000000 0.043264 0.000000 0.000000
# 5 0.000000 0.000000 0.000000 0.000000 0.030778 0.000000
# 6 0.000000 0.000000 0.000000 0.000000 0.000000 0.038972
#
#
# Mechanical properties :
#
#
# Convention : Reuss Voigt Hill
#
# Bulk Modulus (GPa) = 15.19320 20.38519 17.78920
# Shear Modulus (GPa) = 22.46797 25.81628 24.14213
#
# Velocity S-wave (km/s) = 3.29284 3.52968 3.41331
# Velocity P-wave (km/s) = 4.66788 5.14288 4.91112
#
# Compressibility (1/GPa) = 0.06581891
#
# Stress axis : x y z
#
# Youngs Moduli (GPa) = 33.48915 88.88386 28.09699
#
# Poissons Ratio (x) = 0.35365 0.05819
# Poissons Ratio (y) = 0.13325 -0.01709
# Poissons Ratio (z) = 0.06936 -0.05407
#
# Static dielectric constant tensor:
#      x y z
#    x 1.762120 0.000000 0.000000 
#    y 0.000000 1.753480 0.000000 
#    z 0.000000 0.000000 1.763130 
# 
# From -- ./inp_files/11557.got.cif
#   From: 2010.05.17/outbox.cif.g08.bks.cpg/sg62_6_cif.got.tgz:11557.got - 2010.06.03 15:25:27.
