data_PCOD9467398
_publ_section_title
;
Structure prediction by ZEFSAII (Michael W. Deem and Ramdas Pophale) SiO2 
 PCOD9467398
Probable space group: P N M A
;
_chemical_formula_sum "Si O2"
_cell_formula_units_Z 60
_cell_length_a 16.549535
_cell_length_b 7.742051
_cell_length_c 23.829550
_cell_angle_alpha 90.000000
_cell_angle_beta 90.000000
_cell_angle_gamma 90.000000
_cell_volume 3053.216950
_symmetry_space_group_name_H-M "P N M A"
_symmetry_group_IT_number 62
_symmetry_cell_setting 'orthorhombic'
loop_
_space_group_symop_operation_xyz
x,y,z
1/2-x,-y,1/2+z
1/2+x,1/2-y,1/2-z
-x,1/2+y,-z
-x,-y,-z
1/2+x,y,1/2-z
1/2-x,1/2+y,1/2+z
x,1/2-y,z
loop_
_atom_site_type_symbol
_atom_site_label
_atom_site_fract_x
_atom_site_fract_y
_atom_site_fract_z
Si Si1 0.609624 0.750000 0.181946
Si Si2 0.270217 0.558294 0.789892
Si Si3 0.094683 0.043303 0.003579
Si Si4 0.656670 0.050437 0.615358
Si Si5 0.004825 0.951623 0.680311
Si Si6 0.490895 0.051686 0.310621
Si Si7 0.850239 0.048662 0.873619
Si Si8 0.317027 0.542105 0.179283
O O1 0.666382 0.596826 0.210909
O O2 0.553394 0.594312 0.154063
O O3 0.304499 0.750000 0.780936
O O4 0.223606 0.547641 0.848982
O O5 0.204261 0.522949 0.741676
O O6 0.101740 0.250000 0.004943
O O7 0.131199 0.972009 0.060839
O O8 0.137833 0.982040 0.946629
O O9 0.000000 0.000000 0.000000
O O10 0.683710 0.250000 0.611689
O O11 0.572921 0.045528 0.650220
O O12 0.980788 0.750000 0.676479
O O13 0.006373 0.009561 0.746506
O O14 0.097217 0.968874 0.660579
O O15 0.463623 0.250000 0.309314
O O16 0.578964 0.041580 0.338483
O O17 0.855986 0.250000 0.858388
O O18 0.760693 0.989047 0.857399
O O19 0.322699 0.750000 0.179900
#
# Coordination Sequence:
#
# PCOD9467398 Si02
#       8
#     4   8   8   8   8   8   8   8
#     4  12  24  40  60  84 124 154 204 268 308 362
#     4  12  24  40  62  90 122 166 210 256 311 370
#     4  11  23  38  58  85 122 163 204 249 294 356
#     4  11  22  38  60  83 120 167 205 253 304 361
#     4  11  24  39  60  88 121 165 208 253 314 375
#     4  11  22  34  53  84 119 165 211 243 290 361
#     4  11  24  37  58  86 121 166 205 246 305 361
#     4  11  22  40  60  85 126 166 203 256 312 371
#
# _framework density 19.651403999999999
#
# number of rings (size 3 to 8) (size 9 to 14) (size 15 to 20)
#    0.000    0.800    4.667    3.200    3.733    4.800 
#    0.000    0.000    0.000    0.000    0.000    0.933 
#    0.000    0.000    0.000    0.000    0.000    0.000 
#
# Total GULP energy -334426.823722 kJ/mol
# GULP energy per Si atom -5573.780395 kJ/mol
# Density = 1.960668 g / cm^3
# Si number density = 19.651404 Si / 1000 Ang^3
#
#
#
# Elastic Constant Matrix: (Units=GPa)
#
#
# Indices 1 2 3 4 5 6 
#
# 1 41.7366 24.4471 -7.9023 0.0000 0.0000 0.0000
# 2 24.4471 106.3704 -4.6951 0.0000 0.0000 0.0000
# 3 -7.9023 -4.6951 67.7829 0.0000 0.0000 0.0000
# 4 0.0000 0.0000 0.0000 11.8909 0.0000 0.0000
# 5 0.0000 0.0000 0.0000 0.0000 27.6004 0.0000
# 6 0.0000 0.0000 0.0000 0.0000 0.0000 7.6131
#
#
#
# Elastic Compliance Matrix: (Units=1/GPa)
#
#
# Indices 1 2 3 4 5 6 
#
# 1 0.028225 -0.006361 0.002850 0.000000 0.000000 0.000000
# 2 -0.006361 0.010864 0.000011 0.000000 0.000000 0.000000
# 3 0.002850 0.000011 0.015086 0.000000 0.000000 0.000000
# 4 0.000000 0.000000 0.000000 0.084098 0.000000 0.000000
# 5 0.000000 0.000000 0.000000 0.000000 0.036231 0.000000
# 6 0.000000 0.000000 0.000000 0.000000 0.000000 0.131353
#
#
# Mechanical properties :
#
#
# Convention : Reuss Voigt Hill
#
# Bulk Modulus (GPa) = 21.19799 26.62101 23.90950
# Shear Modulus (GPa) = 15.21687 23.02355 19.12021
#
# Velocity S-wave (km/s) = 2.78572 3.42658 3.12263
# Velocity P-wave (km/s) = 4.59971 5.40659 5.01939
#
# Compressibility (1/GPa) = 0.04717428
#
# Stress axis : x y z
#
# Youngs Moduli (GPa) = 35.42897 92.05053 66.28662
#
# Poissons Ratio (x) = 0.58556 -0.18892
# Poissons Ratio (y) = 0.22537 -0.00072
# Poissons Ratio (z) = -0.10097 -0.00100
#
# Static dielectric constant tensor:
#      x y z
#    x 1.732290 0.000000 0.000000 
#    y 0.000000 1.671800 0.000000 
#    z 0.000000 0.000000 1.665590 
# 
# From -- ./inp_files/29708.got.cif
#   From: 2010.05.17/outbox.cif.g08.bks.cpg/sg62_15_cif.got.tgz:29708.got - 2010.06.03 15:25:27.
