data_PCOD9467228
_publ_section_title
;
Structure prediction by ZEFSAII (Michael W. Deem and Ramdas Pophale) SiO2 
 PCOD9467228
Probable space group: P N M A
;
_chemical_formula_sum "Si O2"
_cell_formula_units_Z 60
_cell_length_a 10.962174
_cell_length_b 27.934270
_cell_length_c 9.171460
_cell_angle_alpha 90.000000
_cell_angle_beta 90.000000
_cell_angle_gamma 90.000000
_cell_volume 2808.487492
_symmetry_space_group_name_H-M "P N M A"
_symmetry_group_IT_number 62
_symmetry_cell_setting 'orthorhombic'
loop_
_space_group_symop_operation_xyz
x,y,z
1/2-x,-y,1/2+z
1/2+x,1/2-y,1/2-z
-x,1/2+y,-z
-x,-y,-z
1/2+x,y,1/2-z
1/2-x,1/2+y,1/2+z
x,1/2-y,z
loop_
_atom_site_type_symbol
_atom_site_label
_atom_site_fract_x
_atom_site_fract_y
_atom_site_fract_z
Si Si1 0.452842 0.536236 0.120431
Si Si2 0.889246 0.841738 0.733900
Si Si3 0.779027 0.750000 0.902323
Si Si4 0.372996 0.005194 0.414878
Si Si5 0.326613 0.595010 0.509132
Si Si6 0.254919 0.104099 0.495675
Si Si7 0.603904 0.835577 0.997463
Si Si8 0.960687 0.381151 0.781636
O O1 0.384072 0.507157 0.245698
O O2 0.366916 0.578384 0.057214
O O3 0.554438 0.566350 0.208317
O O4 0.500000 0.500000 0.000000
O O5 0.857592 0.793222 0.819669
O O6 0.781494 0.856721 0.622964
O O7 0.008461 0.836096 0.634712
O O8 0.895804 0.886495 0.845865
O O9 0.692478 0.790972 0.979979
O O10 0.324632 0.058234 0.431849
O O11 0.500000 0.000000 0.500000
O O12 0.302655 0.961146 0.489673
O O13 0.196873 0.620275 0.511755
O O14 0.416040 0.613363 0.378144
O O15 0.343501 0.126366 0.616665
O O16 0.537467 0.841845 0.153790
#
# Coordination Sequence:
#
# PCOD9467228 Si02
#       8
#     8   8   4   8   8   8   8   8
#     4  11  26  39  61  96 142 198 250 304 359 432
#     4  11  26  46  76 110 137 192 248 306 382 448
#     4  10  26  50  78 108 134 176 238 306 368 456
#     4  11  24  41  61  99 147 196 253 300 348 433
#     4  10  25  43  70 102 150 197 247 302 367 435
#     4  12  26  40  71 101 149 196 254 308 363 436
#     4  11  24  48  77 101 148 187 237 313 382 446
#     4  11  23  46  66 103 146 193 245 302 372 442
#
# _framework density 21.363813
#
# number of rings (size 3 to 8) (size 9 to 14) (size 15 to 20)
#    0.000    1.067    4.000    2.000   11.200    1.067 
#    0.000    3.333    0.000    0.000    0.000    0.000 
#    0.000    0.000    0.000    0.000    0.000    0.000 
#
# Total GULP energy -334248.600818 kJ/mol
# GULP energy per Si atom -5570.810014 kJ/mol
# Density = 2.131519 g / cm^3
# Si number density = 21.363813 Si / 1000 Ang^3
#
#
#
# Elastic Constant Matrix: (Units=GPa)
#
#
# Indices 1 2 3 4 5 6 
#
# 1 53.9787 15.5316 11.9140 0.0000 0.0000 0.0000
# 2 15.5316 61.5721 16.5960 0.0000 0.0000 0.0000
# 3 11.9140 16.5960 96.7287 0.0000 0.0000 0.0000
# 4 0.0000 0.0000 0.0000 19.6145 0.0000 0.0000
# 5 0.0000 0.0000 0.0000 0.0000 48.9985 0.0000
# 6 0.0000 0.0000 0.0000 0.0000 0.0000 43.8345
#
#
#
# Elastic Compliance Matrix: (Units=1/GPa)
#
#
# Indices 1 2 3 4 5 6 
#
# 1 0.020237 -0.004648 -0.001695 0.000000 0.000000 0.000000
# 2 -0.004648 0.018096 -0.002532 0.000000 0.000000 0.000000
# 3 -0.001695 -0.002532 0.010981 0.000000 0.000000 0.000000
# 4 0.000000 0.000000 0.000000 0.050983 0.000000 0.000000
# 5 0.000000 0.000000 0.000000 0.000000 0.020409 0.000000
# 6 0.000000 0.000000 0.000000 0.000000 0.000000 0.022813
#
#
# Mechanical properties :
#
#
# Convention : Reuss Voigt Hill
#
# Bulk Modulus (GPa) = 31.68162 33.37365 32.52764
# Shear Modulus (GPa) = 29.10499 33.70535 31.40517
#
# Velocity S-wave (km/s) = 3.69501 3.97632 3.83824
# Velocity P-wave (km/s) = 5.75029 6.06110 5.90774
#
# Compressibility (1/GPa) = 0.03156404
#
# Stress axis : x y z
#
# Youngs Moduli (GPa) = 49.41356 55.26041 91.06252
#
# Poissons Ratio (x) = 0.25685 0.15437
# Poissons Ratio (y) = 0.22967 0.23060
# Poissons Ratio (z) = 0.08376 0.13994
#
# Static dielectric constant tensor:
#      x y z
#    x 1.860580 0.000000 0.000000 
#    y 0.000000 1.758190 0.000000 
#    z 0.000000 0.000000 1.871780 
# 
# From -- ./inp_files/5438.got.cif
#   From: 2010.05.17/outbox.cif.g08.bks.cpg/sg62_3_cif.got.tgz:5438.got - 2010.06.03 15:25:27.
