data_PCOD9467273
_publ_section_title
;
Structure prediction by ZEFSAII (Michael W. Deem and Ramdas Pophale) SiO2 
 PCOD9467273
Probable space group: P N M A
;
_chemical_formula_sum "Si O2"
_cell_formula_units_Z 48
_cell_length_a 18.097355
_cell_length_b 22.792915
_cell_length_c 5.490541
_cell_angle_alpha 90.000000
_cell_angle_beta 90.000000
_cell_angle_gamma 90.000000
_cell_volume 2264.801351
_symmetry_space_group_name_H-M "P N M A"
_symmetry_group_IT_number 62
_symmetry_cell_setting 'orthorhombic'
loop_
_space_group_symop_operation_xyz
x,y,z
1/2-x,-y,1/2+z
1/2+x,1/2-y,1/2-z
-x,1/2+y,-z
-x,-y,-z
1/2+x,y,1/2-z
1/2-x,1/2+y,1/2+z
x,1/2-y,z
loop_
_atom_site_type_symbol
_atom_site_label
_atom_site_fract_x
_atom_site_fract_y
_atom_site_fract_z
Si Si1 0.318859 0.033932 0.840496
Si Si2 0.670713 0.682373 0.794529
Si Si3 0.903285 0.141336 0.803862
Si Si4 0.542433 0.097062 0.514282
Si Si5 0.443942 0.023023 0.204857
Si Si6 0.201130 0.406935 0.114293
O O1 0.370280 0.074667 0.672547
O O2 0.309756 0.966702 0.768137
O O3 0.364327 0.035369 0.092701
O O4 0.241812 0.067445 0.873301
O O5 0.693082 0.750000 0.816045
O O6 0.624789 0.674866 0.543634
O O7 0.741625 0.639658 0.778760
O O8 0.627791 0.665787 0.047354
O O9 0.992039 0.134929 0.805308
O O10 0.484698 0.080699 0.302221
O O11 0.621177 0.120876 0.433694
O O12 0.561276 0.032257 0.616685
O O13 0.500000 0.000000 0.000000
#
# Coordination Sequence:
#
# PCOD9467273 Si02
#       6
#     8   8   8   8   8   8
#     4  11  20  37  59  99 133 174 201 246 330 388
#     4  11  26  48  67  89 121 172 219 272 329 385
#     4  11  23  42  70  90 125 167 218 263 315 395
#     4  11  21  35  57  97 127 173 213 260 316 375
#     4  11  19  34  56  87 145 176 198 247 304 400
#     4  11  22  35  62  96 133 162 209 261 315 389
#
# _framework density 21.193912999999998
#
# number of rings (size 3 to 8) (size 9 to 14) (size 15 to 20)
#    0.000    1.000    3.333    5.500    0.000    1.333 
#    0.000    1.667    0.000    0.000    0.000    0.000 
#    0.000    0.000    0.000    0.000    0.000    0.000 
#
# Total GULP energy -268065.136619 kJ/mol
# GULP energy per Si atom -5584.690346 kJ/mol
# Density = 2.114568 g / cm^3
# Si number density = 21.193913 Si / 1000 Ang^3
#
#
#
# Elastic Constant Matrix: (Units=GPa)
#
#
# Indices 1 2 3 4 5 6 
#
# 1 131.2239 27.9035 25.1287 0.0000 0.0000 0.0000
# 2 27.9035 102.4037 17.7482 0.0000 0.0000 0.0000
# 3 25.1287 17.7482 77.4079 0.0000 0.0000 0.0000
# 4 0.0000 0.0000 0.0000 26.5880 0.0000 0.0000
# 5 0.0000 0.0000 0.0000 0.0000 32.7587 0.0000
# 6 0.0000 0.0000 0.0000 0.0000 0.0000 15.7180
#
#
#
# Elastic Compliance Matrix: (Units=1/GPa)
#
#
# Indices 1 2 3 4 5 6 
#
# 1 0.008469 -0.001907 -0.002312 0.000000 0.000000 0.000000
# 2 -0.001907 0.010599 -0.001811 0.000000 0.000000 0.000000
# 3 -0.002312 -0.001811 0.014084 0.000000 0.000000 0.000000
# 4 0.000000 0.000000 0.000000 0.037611 0.000000 0.000000
# 5 0.000000 0.000000 0.000000 0.000000 0.030526 0.000000
# 6 0.000000 0.000000 0.000000 0.000000 0.000000 0.063621
#
#
# Mechanical properties :
#
#
# Convention : Reuss Voigt Hill
#
# Bulk Modulus (GPa) = 47.41138 50.28849 48.84994
# Shear Modulus (GPa) = 27.17379 31.02995 29.10187
#
# Velocity S-wave (km/s) = 3.58460 3.83050 3.70959
# Velocity P-wave (km/s) = 6.28898 6.58354 6.43795
#
# Compressibility (1/GPa) = 0.02109198
#
# Stress axis : x y z
#
# Youngs Moduli (GPa) = 118.08066 94.35059 71.00081
#
# Poissons Ratio (x) = 0.17992 0.16415
# Poissons Ratio (y) = 0.22517 0.12859
# Poissons Ratio (z) = 0.27300 0.17087
#
# Static dielectric constant tensor:
#      x y z
#    x 1.805660 0.000000 0.000000 
#    y 0.000000 1.757130 0.000000 
#    z 0.000000 0.000000 1.871250 
# 
# From -- ./inp_files/1706.got.cif
#   From: 2010.05.17/outbox.cif.g08.bks.cpg/sg62_1_cif.got.tgz:1706.got - 2010.06.03 15:25:27.
