data_PCOD9467359
_publ_section_title
;
Structure prediction by ZEFSAII (Michael W. Deem and Ramdas Pophale) SiO2 
 PCOD9467359
Probable space group: P N M A
;
_chemical_formula_sum "Si O2"
_cell_formula_units_Z 48
_cell_length_a 16.704224
_cell_length_b 25.041623
_cell_length_c 5.093907
_cell_angle_alpha 90.000000
_cell_angle_beta 90.000000
_cell_angle_gamma 90.000000
_cell_volume 2130.785780
_symmetry_space_group_name_H-M "P N M A"
_symmetry_group_IT_number 62
_symmetry_cell_setting 'orthorhombic'
loop_
_space_group_symop_operation_xyz
x,y,z
1/2-x,-y,1/2+z
1/2+x,1/2-y,1/2-z
-x,1/2+y,-z
-x,-y,-z
1/2+x,y,1/2-z
1/2-x,1/2+y,1/2+z
x,1/2-y,z
loop_
_atom_site_type_symbol
_atom_site_label
_atom_site_fract_x
_atom_site_fract_y
_atom_site_fract_z
Si Si1 0.875041 0.995526 0.597121
Si Si2 0.527777 0.953663 0.687254
Si Si3 0.576403 0.310605 0.155132
Si Si4 0.483031 0.155615 0.635025
Si Si5 0.281176 0.892688 0.732019
Si Si6 0.676169 0.892010 0.281327
O O1 0.890679 0.028598 0.328836
O O2 0.858841 0.047253 0.779829
O O3 0.809435 0.951738 0.672472
O O4 0.955286 0.958274 0.601582
O O5 0.517034 0.900169 0.526118
O O6 0.500000 0.000000 0.500000
O O7 0.605226 0.250000 0.109287
O O8 0.511029 0.308230 0.391276
O O9 0.646276 0.350703 0.248339
O O10 0.540286 0.333239 0.881987
O O11 0.394721 0.150653 0.764034
O O12 0.244108 0.892638 0.441987
O O13 0.214025 0.877211 0.941451
#
# Coordination Sequence:
#
# PCOD9467359 Si02
#       6
#     8   8   8   8   8   8
#     4  11  23  38  63 106 149 190 229 272 342 437
#     4  11  21  36  68 104 139 187 233 285 333 413
#     4  12  27  50  77 100 130 184 255 311 365 425
#     4  12  24  47  73 104 138 182 245 302 358 424
#     4  12  26  44  67 103 148 193 230 291 356 431
#     4  12  26  42  67 105 149 184 226 284 363 441
#
# _framework density 22.526902
#
# number of rings (size 3 to 8) (size 9 to 14) (size 15 to 20)
#    0.000    0.333    3.333    6.500    2.333    0.000 
#    0.000    5.000    0.000    0.000    0.000    0.000 
#    0.000    0.000    0.000    0.000    0.000    0.000 
#
# Total GULP energy -267585.023023 kJ/mol
# GULP energy per Si atom -5574.687980 kJ/mol
# Density = 2.247563 g / cm^3
# Si number density = 22.526902 Si / 1000 Ang^3
#
#
#
# Elastic Constant Matrix: (Units=GPa)
#
#
# Indices 1 2 3 4 5 6 
#
# 1 66.2632 35.5303 15.4870 0.0000 0.0000 0.0000
# 2 35.5303 128.9853 31.1026 0.0000 0.0000 0.0000
# 3 15.4870 31.1026 116.1543 0.0000 0.0000 0.0000
# 4 0.0000 0.0000 0.0000 8.1625 0.0000 0.0000
# 5 0.0000 0.0000 0.0000 0.0000 55.6002 0.0000
# 6 0.0000 0.0000 0.0000 0.0000 0.0000 14.5589
#
#
#
# Elastic Compliance Matrix: (Units=1/GPa)
#
#
# Indices 1 2 3 4 5 6 
#
# 1 0.017846 -0.004642 -0.001136 0.000000 0.000000 0.000000
# 2 -0.004642 0.009495 -0.001924 0.000000 0.000000 0.000000
# 3 -0.001136 -0.001924 0.009276 0.000000 0.000000 0.000000
# 4 0.000000 0.000000 0.000000 0.122512 0.000000 0.000000
# 5 0.000000 0.000000 0.000000 0.000000 0.017986 0.000000
# 6 0.000000 0.000000 0.000000 0.000000 0.000000 0.068686
#
#
# Mechanical properties :
#
#
# Convention : Reuss Voigt Hill
#
# Bulk Modulus (GPa) = 47.14047 52.84916 49.99482
# Shear Modulus (GPa) = 18.63757 30.94986 24.79372
#
# Velocity S-wave (km/s) = 2.87948 3.71065 3.32117
# Velocity P-wave (km/s) = 5.65924 6.47070 6.07852
#
# Compressibility (1/GPa) = 0.02121320
#
# Stress axis : x y z
#
# Youngs Moduli (GPa) = 56.03534 105.31523 107.80668
#
# Poissons Ratio (x) = 0.48885 0.12252
# Poissons Ratio (y) = 0.26010 0.20738
# Poissons Ratio (z) = 0.06368 0.20259
#
# Static dielectric constant tensor:
#      x y z
#    x 1.515050 0.000000 0.000000 
#    y 0.000000 1.632840 0.000000 
#    z 0.000000 0.000000 2.008920 
# 
# From -- ./inp_files/1240.got.cif
#   From: 2010.05.17/outbox.cif.g08.bks.cpg/sg62_1_cif.got.tgz:1240.got - 2010.06.03 15:25:27.
