data_PCOD9467903
_publ_section_title
;
Structure prediction by ZEFSAII (Michael W. Deem and Ramdas Pophale) SiO2 
 PCOD9467903
Probable space group: P N M A
;
_chemical_formula_sum "Si O2"
_cell_formula_units_Z 64
_cell_length_a 15.000000
_cell_length_b 9.000000
_cell_length_c 24.000000
_cell_angle_alpha 90.000000
_cell_angle_beta 90.000000
_cell_angle_gamma 90.000000
_cell_volume 3240.000000
_symmetry_space_group_name_H-M "P N M A"
_symmetry_group_IT_number 62
_symmetry_cell_setting 'orthorhombic'
loop_
_space_group_symop_operation_xyz
x,y,z
1/2-x,-y,1/2+z
1/2+x,1/2-y,1/2-z
-x,1/2+y,-z
-x,-y,-z
1/2+x,y,1/2-z
1/2-x,1/2+y,1/2+z
x,1/2-y,z
loop_
_atom_site_type_symbol
_atom_site_label
_atom_site_fract_x
_atom_site_fract_y
_atom_site_fract_z
Si Si1 0.904365 0.927308 0.501958
Si Si2 0.992882 0.072125 0.295252
Si Si3 0.820503 0.080661 0.813037
Si Si4 0.814641 0.075780 0.687717
Si Si5 0.858343 0.921761 0.377632
Si Si6 0.001751 0.925707 0.828407
Si Si7 0.441279 0.429279 0.451197
Si Si8 0.250868 0.571475 0.918116
O O1 0.913420 0.750000 0.508348
O O2 0.860975 0.958044 0.442380
O O3 0.840212 0.980713 0.551027
O O4 0.000000 0.000000 0.500000
O O5 0.003609 0.250000 0.294234
O O6 0.964922 0.020613 0.232531
O O7 0.921472 0.023869 0.340699
O O8 0.087520 0.999054 0.311270
O O9 0.857895 0.250000 0.814531
O O10 0.781967 0.059098 0.751098
O O11 0.741626 0.068568 0.856190
O O12 0.897386 0.963848 0.824632
O O13 0.822810 0.250000 0.675084
O O14 0.751669 0.998650 0.642869
O O15 0.888643 0.750000 0.370731
O O16 0.019114 0.750000 0.829689
O O17 0.033623 0.982773 0.888492
O O18 0.500000 0.500000 0.500000
O O19 0.452258 0.250000 0.453628
O O20 0.336082 0.463802 0.454541
O O21 0.253133 0.750000 0.912455
#
# Coordination Sequence:
#
# PCOD9467903 Si02
#       8
#     8   8   8   8   8   8   8   8
#     4  10  22  39  58  82 112 150 191 233 284 338
#     4  10  20  35  57  85 116 151 186 228 286 348
#     4   9  20  36  57  84 113 148 187 231 286 344
#     4  10  20  36  57  85 117 148 187 235 287 342
#     4  10  21  36  56  82 113 145 186 236 281 337
#     4   9  20  38  57  82 115 148 187 233 285 341
#     4  10  23  41  61  85 115 153 198 248 295 347
#     4  10  22  39  61  86 116 155 197 240 290 349
#
# _framework density 19.753086
#
# number of rings (size 3 to 8) (size 9 to 14) (size 15 to 20)
#    0.000    2.250    0.000    1.500    3.500    5.500 
#    0.000    0.000    0.000    0.000    0.000    0.000 
#    0.000    0.000    0.000    0.000    0.000    0.000 
#
# Total GULP energy -357014.167861 kJ/mol
# GULP energy per Si atom -5578.346373 kJ/mol
# Density = 1.970813 g / cm^3
# Si number density = 19.753086 Si / 1000 Ang^3
#
#
#
# Elastic Constant Matrix: (Units=GPa)
#
#
# Indices 1 2 3 4 5 6 
#
# 1 36.4145 5.5871 18.9898 0.0000 0.0000 0.0000
# 2 5.5871 9.9202 19.4174 0.0000 0.0000 0.0000
# 3 18.9898 19.4174 64.2652 0.0000 0.0000 0.0000
# 4 0.0000 0.0000 0.0000 24.7976 0.0000 0.0000
# 5 0.0000 0.0000 0.0000 0.0000 32.7158 0.0000
# 6 0.0000 0.0000 0.0000 0.0000 0.0000 22.2768
#
#
#
# Elastic Compliance Matrix: (Units=1/GPa)
#
#
# Indices 1 2 3 4 5 6 
#
# 1 0.032470 0.001206 -0.009959 0.000000 0.000000 0.000000
# 2 0.001206 0.246756 -0.074913 0.000000 0.000000 0.000000
# 3 -0.009959 -0.074913 0.041138 0.000000 0.000000 0.000000
# 4 0.000000 0.000000 0.000000 0.040327 0.000000 0.000000
# 5 0.000000 0.000000 0.000000 0.000000 0.030566 0.000000
# 6 0.000000 0.000000 0.000000 0.000000 0.000000 0.044890
#
#
# Mechanical properties :
#
#
# Convention : Reuss Voigt Hill
#
# Bulk Modulus (GPa) = 6.53454 22.06540 14.29997
# Shear Modulus (GPa) = 7.63955 20.39840 14.01898
#
# Velocity S-wave (km/s) = 1.96874 3.21700 2.66693
# Velocity P-wave (km/s) = 2.91259 4.99937 4.09126
#
# Compressibility (1/GPa) = 0.15303302
#
# Stress axis : x y z
#
# Youngs Moduli (GPa) = 30.79761 4.05258 24.30851
#
# Poissons Ratio (x) = -0.00489 0.24209
# Poissons Ratio (y) = -0.03715 1.82101
# Poissons Ratio (z) = 0.30672 0.30359
#
# Static dielectric constant tensor:
#      x y z
#    x 1.706430 0.000000 0.000000 
#    y 0.000000 1.686370 0.000000 
#    z 0.000000 0.000000 1.698910 
# 
# From -- ./inp_files/29827.got.cif
#   From: 2010.05.17/outbox.ucp.g08.bks.cvg/sg62_15_cif.got.tgz:29827.got - 2010.06.11 16:29:25.
