data_PCOD9467083
_publ_section_title
;
Structure prediction by ZEFSAII (Michael W. Deem and Ramdas Pophale) SiO2 
 PCOD9467083
Probable space group: P N M A
;
_chemical_formula_sum "Si O2"
_cell_formula_units_Z 56
_cell_length_a 5.585750
_cell_length_b 27.964192
_cell_length_c 16.758193
_cell_angle_alpha 90.000000
_cell_angle_beta 90.000000
_cell_angle_gamma 90.000000
_cell_volume 2617.646261
_symmetry_space_group_name_H-M "P N M A"
_symmetry_group_IT_number 62
_symmetry_cell_setting 'orthorhombic'
loop_
_space_group_symop_operation_xyz
x,y,z
1/2-x,-y,1/2+z
1/2+x,1/2-y,1/2-z
-x,1/2+y,-z
-x,-y,-z
1/2+x,y,1/2-z
1/2-x,1/2+y,1/2+z
x,1/2-y,z
loop_
_atom_site_type_symbol
_atom_site_label
_atom_site_fract_x
_atom_site_fract_y
_atom_site_fract_z
Si Si1 0.677743 0.116938 0.065797
Si Si2 0.435205 0.944138 0.500267
Si Si3 0.868785 0.566389 0.297141
Si Si4 0.048174 0.522841 0.590247
Si Si5 0.131867 0.877324 0.416705
Si Si6 0.846913 0.694072 0.202419
Si Si7 0.739089 0.806368 0.701527
O O1 0.639458 0.064611 0.108284
O O2 0.745934 0.157888 0.126688
O O3 0.465793 0.133133 0.005388
O O4 0.878733 0.098210 0.005424
O O5 0.280724 0.944115 0.580162
O O6 0.274374 0.927680 0.426054
O O7 0.500000 0.000000 0.500000
O O8 0.603896 0.568454 0.259888
O O9 0.896879 0.517625 0.347212
O O10 0.914589 0.609792 0.358027
O O11 0.000000 0.500000 0.500000
O O12 0.295231 0.838515 0.374318
O O13 0.608924 0.685825 0.258125
O O14 0.839603 0.750000 0.181072
O O15 0.486130 0.814493 0.747948
O O16 0.741051 0.750000 0.678789
#
# Coordination Sequence:
#
# PCOD9467083 Si02
#       7
#     8   8   8   8   8   8   8
#     4  11  24  40  72  96 129 183 230 270 345 418
#     4  11  21  39  65  89 132 177 225 270 341 387
#     4  12  27  40  62  95 131 178 228 273 333 404
#     4  11  22  42  60  90 134 182 220 280 341 391
#     4  11  24  40  64  99 132 179 223 283 330 408
#     4  10  23  44  67  94 134 179 221 279 343 395
#     4  10  25  50  74 101 140 176 221 295 362 406
#
# _framework density 21.393266000000001
#
# number of rings (size 3 to 8) (size 9 to 14) (size 15 to 20)
#    0.000    1.143    4.286    0.857   12.000    1.714 
#    0.000    0.714    0.000    0.000    0.000    0.000 
#    0.000    0.000    0.000    0.000    0.000    0.000 
#
# Total GULP energy -311770.949506 kJ/mol
# GULP energy per Si atom -5567.338384 kJ/mol
# Density = 2.134457 g / cm^3
# Si number density = 21.393266 Si / 1000 Ang^3
#
#
#
# Elastic Constant Matrix: (Units=GPa)
#
#
# Indices 1 2 3 4 5 6 
#
# 1 105.7043 26.7948 28.1212 0.0000 0.0000 0.0000
# 2 26.7948 116.1347 53.8034 0.0000 0.0000 0.0000
# 3 28.1212 53.8034 62.1138 0.0000 0.0000 0.0000
# 4 0.0000 0.0000 0.0000 49.2456 0.0000 0.0000
# 5 0.0000 0.0000 0.0000 0.0000 33.5044 0.0000
# 6 0.0000 0.0000 0.0000 0.0000 0.0000 29.8311
#
#
#
# Elastic Compliance Matrix: (Units=1/GPa)
#
#
# Indices 1 2 3 4 5 6 
#
# 1 0.010766 -0.000377 -0.004547 0.000000 0.000000 0.000000
# 2 -0.000377 0.014396 -0.012299 0.000000 0.000000 0.000000
# 3 -0.004547 -0.012299 0.028812 0.000000 0.000000 0.000000
# 4 0.000000 0.000000 0.000000 0.020306 0.000000 0.000000
# 5 0.000000 0.000000 0.000000 0.000000 0.029847 0.000000
# 6 0.000000 0.000000 0.000000 0.000000 0.000000 0.033522
#
#
# Mechanical properties :
#
#
# Convention : Reuss Voigt Hill
#
# Bulk Modulus (GPa) = 51.21314 55.71017 53.46166
# Shear Modulus (GPa) = 27.99500 34.19845 31.09673
#
# Velocity S-wave (km/s) = 3.62137 4.00254 3.81671
# Velocity P-wave (km/s) = 6.44023 6.88897 6.66838
#
# Compressibility (1/GPa) = 0.01952624
#
# Stress axis : x y z
#
# Youngs Moduli (GPa) = 92.88746 69.46594 34.70834
#
# Poissons Ratio (x) = 0.02620 0.15783
# Poissons Ratio (y) = 0.03503 0.42687
# Poissons Ratio (z) = 0.42239 0.85435
#
# Static dielectric constant tensor:
#      x y z
#    x 3.049760 0.000000 0.000000 
#    y 0.000000 1.806690 0.000000 
#    z 0.000000 0.000000 1.834040 
# 
# From -- ./inp_files/16279.got.cif
#   From: 2010.05.17/outbox.cif.g08.bks.cpg/sg62_9_cif.got.tgz:16279.got - 2010.06.03 15:25:27.
