data_PCOD9467474
_publ_section_title
;
Structure prediction by ZEFSAII (Michael W. Deem and Ramdas Pophale) SiO2 
 PCOD9467474
Probable space group: P N M A
;
_chemical_formula_sum "Si O2"
_cell_formula_units_Z 32
_cell_length_a 9.656626
_cell_length_b 20.624392
_cell_length_c 7.216348
_cell_angle_alpha 90.000000
_cell_angle_beta 90.000000
_cell_angle_gamma 90.000000
_cell_volume 1437.222589
_symmetry_space_group_name_H-M "P N M A"
_symmetry_group_IT_number 62
_symmetry_cell_setting 'orthorhombic'
loop_
_space_group_symop_operation_xyz
x,y,z
1/2-x,-y,1/2+z
1/2+x,1/2-y,1/2-z
-x,1/2+y,-z
-x,-y,-z
1/2+x,y,1/2-z
1/2-x,1/2+y,1/2+z
x,1/2-y,z
loop_
_atom_site_type_symbol
_atom_site_label
_atom_site_fract_x
_atom_site_fract_y
_atom_site_fract_z
Si Si1 0.079333 0.141927 0.055830
Si Si2 0.886414 0.250000 0.971467
Si Si3 0.657372 0.250000 0.696245
Si Si4 0.927619 0.530000 0.238746
Si Si5 0.821866 0.943378 0.627516
O O1 0.181837 0.187656 0.934920
O O2 0.053988 0.079747 0.927639
O O3 0.941652 0.186134 0.075349
O O4 0.141083 0.118141 0.248007
O O5 0.735586 0.250000 0.888438
O O6 0.989490 0.250000 0.789664
O O7 0.827854 0.471569 0.175545
O O8 0.851946 0.565121 0.411226
O O9 0.071069 0.500154 0.309234
#
# Coordination Sequence:
#
# PCOD9467474 Si02
#       5
#     8   4   4   8   8
#     4   9  21  38  60  83 129 150 205 246 304 361
#     4   8  20  36  64  87 115 167 200 256 303 355
#     4   8  20  36  64  85 111 167 200 250 301 355
#     4  11  23  35  62  89 123 160 202 243 320 359
#     4  11  23  37  57  95 121 163 196 254 304 376
#
# _framework density 22.265165
#
# number of rings (size 3 to 8) (size 9 to 14) (size 15 to 20)
#    1.500    0.500    2.500    0.750    3.500    0.000 
#    0.000    5.000    0.000    9.000    0.000    0.000 
#    0.000    0.000    0.000    0.000    0.000    0.000 
#
# Total GULP energy -178589.315819 kJ/mol
# GULP energy per Si atom -5580.916119 kJ/mol
# Density = 2.221449 g / cm^3
# Si number density = 22.265165 Si / 1000 Ang^3
#
#
#
# Elastic Constant Matrix: (Units=GPa)
#
#
# Indices 1 2 3 4 5 6 
#
# 1 60.2857 10.7673 16.0132 0.0000 0.0000 0.0000
# 2 10.7673 53.2698 19.9694 0.0000 0.0000 0.0000
# 3 16.0132 19.9694 97.7119 0.0000 0.0000 0.0000
# 4 0.0000 0.0000 0.0000 11.9934 0.0000 0.0000
# 5 0.0000 0.0000 0.0000 0.0000 25.1520 0.0000
# 6 0.0000 0.0000 0.0000 0.0000 0.0000 0.1754
#
#
#
# Elastic Compliance Matrix: (Units=1/GPa)
#
#
# Indices 1 2 3 4 5 6 
#
# 1 0.017693 -0.002696 -0.002349 0.000000 0.000000 0.000000
# 2 -0.002696 0.020741 -0.003797 0.000000 0.000000 0.000000
# 3 -0.002349 -0.003797 0.011395 0.000000 0.000000 0.000000
# 4 0.000000 0.000000 0.000000 0.083379 0.000000 0.000000
# 5 0.000000 0.000000 0.000000 0.000000 0.039758 0.000000
# 6 0.000000 0.000000 0.000000 0.000000 0.000000 5.702327
#
#
# Mechanical properties :
#
#
# Convention : Reuss Voigt Hill
#
# Bulk Modulus (GPa) = 31.10816 33.86301 32.48559
# Shear Modulus (GPa) = 0.84693 18.43198 9.63945
#
# Velocity S-wave (km/s) = 0.61742 2.88034 2.08298
# Velocity P-wave (km/s) = 3.80924 5.12872 4.51742
#
# Compressibility (1/GPa) = 0.03214590
#
# Stress axis : x y z
#
# Youngs Moduli (GPa) = 56.51955 48.21449 87.75736
#
# Poissons Ratio (x) = 0.12998 0.20611
# Poissons Ratio (y) = 0.15237 0.33321
# Poissons Ratio (z) = 0.13274 0.18307
#
# Static dielectric constant tensor:
#      x y z
#    x 1.829400 0.000000 0.000000 
#    y 0.000000 1.844260 0.000000 
#    z 0.000000 0.000000 1.779640 
# 
# From -- ./inp_files/4989.got.cif
#   From: 2010.05.17/outbox.cif.g08.bks.cpg/sg62_3_cif.got.tgz:4989.got - 2010.06.03 15:25:27.
