data_PCOD9467666
_publ_section_title
;
Structure prediction by ZEFSAII (Michael W. Deem and Ramdas Pophale) SiO2 
 PCOD9467666
Probable space group: P N M A
;
_chemical_formula_sum "Si O2"
_cell_formula_units_Z 32
_cell_length_a 8.329382
_cell_length_b 14.139275
_cell_length_c 11.737299
_cell_angle_alpha 90.000000
_cell_angle_beta 90.000000
_cell_angle_gamma 90.000000
_cell_volume 1382.318402
_symmetry_space_group_name_H-M "P N M A"
_symmetry_group_IT_number 62
_symmetry_cell_setting 'orthorhombic'
loop_
_space_group_symop_operation_xyz
x,y,z
1/2-x,-y,1/2+z
1/2+x,1/2-y,1/2-z
-x,1/2+y,-z
-x,-y,-z
1/2+x,y,1/2-z
1/2-x,1/2+y,1/2+z
x,1/2-y,z
loop_
_atom_site_type_symbol
_atom_site_label
_atom_site_fract_x
_atom_site_fract_y
_atom_site_fract_z
Si Si1 0.812697 0.250000 0.156405
Si Si2 0.669120 0.141908 0.798497
Si Si3 0.862818 0.416018 0.586372
Si Si4 0.434991 0.250000 0.090648
Si Si5 0.641743 0.924463 0.507171
O O1 0.624804 0.250000 0.120496
O O2 0.838814 0.250000 0.291037
O O3 0.889294 0.157193 0.098756
O O4 0.614212 0.250000 0.812796
O O5 0.522485 0.077045 0.837543
O O6 0.728636 0.124784 0.671887
O O7 0.813792 0.122835 0.886772
O O8 0.893184 0.342068 0.484920
O O9 0.798101 0.516013 0.544886
O O10 0.500000 0.000000 0.500000
#
# Coordination Sequence:
#
# PCOD9467666 Si02
#       5
#     4   8   8   4   8
#     4  12  30  53  75 110 162 205 252 326 390 453
#     4  12  23  50  76 109 154 196 255 326 379 448
#     4  12  26  46  80 111 151 206 252 317 383 459
#     4  12  28  51  79 112 164 203 254 318 388 469
#     4  12  28  48  78 112 156 202 262 314 386 466
#
# _framework density 23.149515999999998
#
# number of rings (size 3 to 8) (size 9 to 14) (size 15 to 20)
#    0.000    0.000    6.250    2.250    7.000    0.000 
#    0.000    0.000    0.000    0.000    0.000    0.000 
#    0.000    0.000    0.000    0.000    0.000    0.000 
#
# Total GULP energy -179425.702700 kJ/mol
# GULP energy per Si atom -5607.053209 kJ/mol
# Density = 2.309683 g / cm^3
# Si number density = 23.149516 Si / 1000 Ang^3
#
#
#
# Elastic Constant Matrix: (Units=GPa)
#
#
# Indices 1 2 3 4 5 6 
#
# 1 91.9123 30.9332 39.5930 0.0000 0.0000 0.0000
# 2 30.9332 110.7578 54.0272 0.0000 0.0000 0.0000
# 3 39.5930 54.0272 159.2174 0.0000 0.0000 0.0000
# 4 0.0000 0.0000 0.0000 30.4838 0.0000 0.0000
# 5 0.0000 0.0000 0.0000 0.0000 49.3001 0.0000
# 6 0.0000 0.0000 0.0000 0.0000 0.0000 38.2355
#
#
#
# Elastic Compliance Matrix: (Units=1/GPa)
#
#
# Indices 1 2 3 4 5 6 
#
# 1 0.012698 -0.002404 -0.002342 0.000000 0.000000 0.000000
# 2 -0.002404 0.011275 -0.003228 0.000000 0.000000 0.000000
# 3 -0.002342 -0.003228 0.007958 0.000000 0.000000 0.000000
# 4 0.000000 0.000000 0.000000 0.032804 0.000000 0.000000
# 5 0.000000 0.000000 0.000000 0.000000 0.020284 0.000000
# 6 0.000000 0.000000 0.000000 0.000000 0.000000 0.026154
#
#
# Mechanical properties :
#
#
# Convention : Reuss Voigt Hill
#
# Bulk Modulus (GPa) = 62.56564 67.88826 65.22695
# Shear Modulus (GPa) = 37.75056 39.42617 38.58837
#
# Velocity S-wave (km/s) = 4.04261 4.13135 4.08722
# Velocity P-wave (km/s) = 6.99111 7.22129 7.10714
#
# Compressibility (1/GPa) = 0.01598321
#
# Stress axis : x y z
#
# Youngs Moduli (GPa) = 78.75383 88.69386 125.65262
#
# Poissons Ratio (x) = 0.21322 0.29426
# Poissons Ratio (y) = 0.18932 0.40561
# Poissons Ratio (z) = 0.18443 0.28631
#
# Static dielectric constant tensor:
#      x y z
#    x 1.925880 0.000000 0.000000 
#    y 0.000000 1.834050 0.000000 
#    z 0.000000 0.000000 1.852190 
# 
# From -- ./inp_files/10998.got.cif
#   From: 2010.05.17/outbox.cif.g08.bks.cpg/sg62_6_cif.got.tgz:10998.got - 2010.06.03 15:25:27.
