data_PCOD9467210
_publ_section_title
;
Structure prediction by ZEFSAII (Michael W. Deem and Ramdas Pophale) SiO2 
 PCOD9467210
Probable space group: P N M A
;
_chemical_formula_sum "Si O2"
_cell_formula_units_Z 40
_cell_length_a 14.503595
_cell_length_b 22.370899
_cell_length_c 5.069226
_cell_angle_alpha 90.000000
_cell_angle_beta 90.000000
_cell_angle_gamma 90.000000
_cell_volume 1644.753256
_symmetry_space_group_name_H-M "P N M A"
_symmetry_group_IT_number 62
_symmetry_cell_setting 'orthorhombic'
loop_
_space_group_symop_operation_xyz
x,y,z
1/2-x,-y,1/2+z
1/2+x,1/2-y,1/2-z
-x,1/2+y,-z
-x,-y,-z
1/2+x,y,1/2-z
1/2-x,1/2+y,1/2+z
x,1/2-y,z
loop_
_atom_site_type_symbol
_atom_site_label
_atom_site_fract_x
_atom_site_fract_y
_atom_site_fract_z
Si Si1 0.744164 0.164222 0.155305
Si Si2 0.539563 0.441403 0.354112
Si Si3 0.787008 0.969824 0.565418
Si Si4 0.454904 0.314309 0.343394
Si Si5 0.123797 0.337650 0.850775
O O1 0.754605 0.093088 0.153181
O O2 0.846327 0.186887 0.105374
O O3 0.696522 0.183166 0.426907
O O4 0.669579 0.175257 0.926242
O O5 0.500000 0.500000 0.500000
O O6 0.604114 0.464765 0.118631
O O7 0.480098 0.383135 0.248706
O O8 0.604136 0.406652 0.567812
O O9 0.752032 0.983830 0.276710
O O10 0.475403 0.250000 0.202375
O O11 0.522208 0.312428 0.597208
#
# Coordination Sequence:
#
# PCOD9467210 Si02
#       5
#     8   8   8   8   8
#     4  11  22  46  67 101 137 190 224 291 350 416
#     4   9  20  42  66 100 141 180 229 294 352 414
#     4  11  22  40  68 102 140 182 236 287 350 423
#     4  10  24  45  72 105 140 186 241 294 354 428
#     4   9  24  43  69  98 141 177 237 284 350 415
#
# _framework density 24.319758
#
# number of rings (size 3 to 8) (size 9 to 14) (size 15 to 20)
#    1.200    0.800    0.000    3.600    0.000    3.200 
#    3.600    6.000    0.000    0.000    0.000    0.000 
#    0.000    0.000    0.000    0.000    0.000    0.000 
#
# Total GULP energy -222813.446865 kJ/mol
# GULP energy per Si atom -5570.336172 kJ/mol
# Density = 2.426441 g / cm^3
# Si number density = 24.319758 Si / 1000 Ang^3
#
#
#
# Elastic Constant Matrix: (Units=GPa)
#
#
# Indices 1 2 3 4 5 6 
#
# 1 153.5653 43.1631 14.0886 0.0000 0.0000 0.0000
# 2 43.1631 162.5750 1.3088 0.0000 0.0000 0.0000
# 3 14.0886 1.3088 55.3325 0.0000 0.0000 0.0000
# 4 0.0000 0.0000 0.0000 -19.3789 0.0000 0.0000
# 5 0.0000 0.0000 0.0000 0.0000 18.2418 0.0000
# 6 0.0000 0.0000 0.0000 0.0000 0.0000 226.2300
#
#
#
# Elastic Compliance Matrix: (Units=1/GPa)
#
#
# Indices 1 2 3 4 5 6 
#
# 1 0.007210 -0.001900 -0.001791 0.000000 0.000000 0.000000
# 2 -0.001900 0.006653 0.000326 0.000000 0.000000 0.000000
# 3 -0.001791 0.000326 0.018521 0.000000 0.000000 0.000000
# 4 0.000000 0.000000 0.000000 -0.051602 0.000000 0.000000
# 5 0.000000 0.000000 0.000000 0.000000 0.054819 0.000000
# 6 0.000000 0.000000 0.000000 0.000000 0.000000 0.004420
#
#
# Mechanical properties :
#
#
# Convention : Reuss Voigt Hill
#
# Bulk Modulus (GPa) = 38.97868 54.28820 46.63344
# Shear Modulus (GPa) = 90.41405 65.87940 78.14672
#
# Velocity S-wave (km/s) = 6.10393 5.21034 5.67475
# Velocity P-wave (km/s) = 8.10799 7.65297 7.88377
#
# Compressibility (1/GPa) = 0.02565505
#
# Stress axis : x y z
#
# Youngs Moduli (GPa) = 138.69255 150.31295 53.99322
#
# Poissons Ratio (x) = 0.28557 0.09670
# Poissons Ratio (y) = 0.26350 -0.01762
# Poissons Ratio (z) = 0.24838 -0.04906
#
# Static dielectric constant tensor:
#      x y z
#    x 1.941380 0.000000 0.000000 
#    y 0.000000 2.045380 0.000000 
#    z 0.000000 0.000000 1.915730 
# 
# From -- ./inp_files/1049.got.cif
#   From: 2010.05.17/outbox.cif.g08.bks.cpg/sg62_1_cif.got.tgz:1049.got - 2010.06.03 15:25:27.
