data_PCOD9467805
_publ_section_title
;
Structure prediction by ZEFSAII (Michael W. Deem and Ramdas Pophale) SiO2 
 PCOD9467805
Probable space group: P N M A
;
_chemical_formula_sum "Si O2"
_cell_formula_units_Z 64
_cell_length_a 15.000000
_cell_length_b 9.000000
_cell_length_c 24.000000
_cell_angle_alpha 90.000000
_cell_angle_beta 90.000000
_cell_angle_gamma 90.000000
_cell_volume 3240.000000
_symmetry_space_group_name_H-M "P N M A"
_symmetry_group_IT_number 62
_symmetry_cell_setting 'orthorhombic'
loop_
_space_group_symop_operation_xyz
x,y,z
1/2-x,-y,1/2+z
1/2+x,1/2-y,1/2-z
-x,1/2+y,-z
-x,-y,-z
1/2+x,y,1/2-z
1/2-x,1/2+y,1/2+z
x,1/2-y,z
loop_
_atom_site_type_symbol
_atom_site_label
_atom_site_fract_x
_atom_site_fract_y
_atom_site_fract_z
Si Si1 0.219225 0.079124 0.651699
Si Si2 0.623418 0.081347 0.402467
Si Si3 0.552739 0.072298 0.139918
Si Si4 0.083913 0.423235 0.553025
Si Si5 0.655086 0.579220 0.055263
Si Si6 0.861166 0.919978 0.027475
Si Si7 0.920570 0.429726 0.265665
Si Si8 0.075734 0.582162 0.861117
O O1 0.223887 0.250000 0.669353
O O2 0.172106 0.073566 0.591123
O O3 0.313662 0.008778 0.638552
O O4 0.159520 0.990761 0.696179
O O5 0.660123 0.250000 0.409348
O O6 0.613897 0.019321 0.465880
O O7 0.529105 0.090550 0.372854
O O8 0.554641 0.250000 0.137000
O O9 0.511671 0.029299 0.200172
O O10 0.484653 0.003989 0.094478
O O11 0.643501 0.006375 0.114091
O O12 0.063104 0.250000 0.542668
O O13 0.099523 0.506710 0.495269
O O14 0.629908 0.750000 0.064607
O O15 0.754796 0.577355 0.032317
O O16 0.894539 0.750000 0.029034
O O17 0.890387 0.998995 0.084096
O O18 0.918278 0.250000 0.265050
O O19 0.912460 0.480820 0.201518
O O20 0.113297 0.750000 0.861249
#
# Coordination Sequence:
#
# PCOD9467805 Si02
#       8
#     8   8   8   8   8   8   8   8
#     4  10  20  34  58  89 116 149 192 237 283 338
#     4  10  20  38  62  88 118 151 191 236 289 345
#     4  10  20  34  54  78 109 149 190 234 283 338
#     4  10  19  32  52  80 113 146 187 235 282 338
#     4  11  21  34  52  78 115 152 187 227 284 345
#     4  10  22  38  58  85 119 155 186 234 296 346
#     4   9  20  40  60  81 112 151 192 234 286 339
#     4  10  22  40  63  87 112 148 194 241 285 339
#
# _framework density 19.753086
#
# number of rings (size 3 to 8) (size 9 to 14) (size 15 to 20)
#    0.000    2.000    1.250    2.250    0.000    4.000 
#    2.250    0.000    0.000    0.000    0.000    0.000 
#    0.000    0.000    0.000    0.000    0.000    0.000 
#
# Total GULP energy -356616.116073 kJ/mol
# GULP energy per Si atom -5572.126814 kJ/mol
# Density = 1.970813 g / cm^3
# Si number density = 19.753086 Si / 1000 Ang^3
#
#
#
# Elastic Constant Matrix: (Units=GPa)
#
#
# Indices 1 2 3 4 5 6 
#
# 1 31.1188 7.9551 17.6245 0.0000 0.0000 0.0000
# 2 7.9551 42.2266 23.4754 0.0000 0.0000 0.0000
# 3 17.6245 23.4754 130.5860 0.0000 0.0000 0.0000
# 4 0.0000 0.0000 0.0000 24.8533 0.0000 0.0000
# 5 0.0000 0.0000 0.0000 0.0000 15.6005 0.0000
# 6 0.0000 0.0000 0.0000 0.0000 0.0000 16.7128
#
#
#
# Elastic Compliance Matrix: (Units=1/GPa)
#
#
# Indices 1 2 3 4 5 6 
#
# 1 0.035540 -0.004476 -0.003992 0.000000 0.000000 0.000000
# 2 -0.004476 0.026875 -0.004227 0.000000 0.000000 0.000000
# 3 -0.003992 -0.004227 0.008956 0.000000 0.000000 0.000000
# 4 0.000000 0.000000 0.000000 0.040236 0.000000 0.000000
# 5 0.000000 0.000000 0.000000 0.000000 0.064100 0.000000
# 6 0.000000 0.000000 0.000000 0.000000 0.000000 0.059834
#
#
# Mechanical properties :
#
#
# Convention : Reuss Voigt Hill
#
# Bulk Modulus (GPa) = 21.74811 33.56016 27.65414
# Shear Modulus (GPa) = 18.09889 21.75843 19.92866
#
# Velocity S-wave (km/s) = 3.03026 3.32252 3.17975
# Velocity P-wave (km/s) = 4.82464 5.63432 5.24513
#
# Compressibility (1/GPa) = 0.04598100
#
# Stress axis : x y z
#
# Youngs Moduli (GPa) = 28.13728 37.20919 111.65097
#
# Poissons Ratio (x) = 0.16655 0.44571
# Poissons Ratio (y) = 0.12595 0.47197
# Poissons Ratio (z) = 0.11232 0.15729
#
# Static dielectric constant tensor:
#      x y z
#    x 1.802130 0.000000 0.000000 
#    y 0.000000 1.716030 0.000000 
#    z 0.000000 0.000000 1.667280 
# 
# From -- ./inp_files/29795.got.cif
#   From: 2010.05.17/outbox.ucp.g08.bks.cvg/sg62_15_cif.got.tgz:29795.got - 2010.06.11 16:29:25.
