data_PCOD9467676
_publ_section_title
;
Structure prediction by ZEFSAII (Michael W. Deem and Ramdas Pophale) SiO2 
 PCOD9467676
Probable space group: P N M A
;
_chemical_formula_sum "Si O2"
_cell_formula_units_Z 64
_cell_length_a 31.130419
_cell_length_b 16.779275
_cell_length_c 5.137595
_cell_angle_alpha 90.000000
_cell_angle_beta 90.000000
_cell_angle_gamma 90.000000
_cell_volume 2683.601485
_symmetry_space_group_name_H-M "P N M A"
_symmetry_group_IT_number 62
_symmetry_cell_setting 'orthorhombic'
loop_
_space_group_symop_operation_xyz
x,y,z
1/2-x,-y,1/2+z
1/2+x,1/2-y,1/2-z
-x,1/2+y,-z
-x,-y,-z
1/2+x,y,1/2-z
1/2-x,1/2+y,1/2+z
x,1/2-y,z
loop_
_atom_site_type_symbol
_atom_site_label
_atom_site_fract_x
_atom_site_fract_y
_atom_site_fract_z
Si Si1 0.950501 0.087302 0.793668
Si Si2 0.273061 0.617866 0.484805
Si Si3 0.504460 0.656529 0.781563
Si Si4 0.364281 0.844054 0.259466
Si Si5 0.141648 0.866218 0.199111
Si Si6 0.300715 0.493650 0.874597
Si Si7 0.812210 0.142722 0.301549
Si Si8 0.587480 0.408746 0.229190
O O1 0.970509 0.119568 0.526865
O O2 0.907703 0.137268 0.863179
O O3 0.066528 0.003011 0.243131
O O4 0.982973 0.104612 0.028026
O O5 0.313303 0.648589 0.323382
O O6 0.291617 0.576878 0.745770
O O7 0.243042 0.557788 0.312546
O O8 0.234225 0.669370 0.602475
O O9 0.514892 0.750000 0.745459
O O10 0.453787 0.646764 0.827733
O O11 0.373590 0.750000 0.220052
O O12 0.379675 0.895296 0.010861
O O13 0.390058 0.878333 0.507295
O O14 0.158557 0.957430 0.221419
O O15 0.152998 0.834467 0.482516
O O16 0.172347 0.833761 0.977466
O O17 0.310357 0.455102 0.159118
#
# Coordination Sequence:
#
# PCOD9467676 Si02
#       8
#     8   8   8   8   8   8   8   8
#     4  12  24  43  76 108 137 179 241 289 342 429
#     4   9  19  34  57  94 128 175 229 273 327 415
#     4  12  26  47  73 103 143 181 222 288 370 436
#     4  12  26  45  69  99 142 192 239 292 361 424
#     4   9  18  34  54  92 131 163 212 279 331 383
#     4   8  18  29  54  84 129 166 208 273 336 373
#     4   8  19  30  53  83 136 171 206 268 343 377
#     4  12  27  48  72 103 138 183 237 297 351 422
#
# _framework density 23.848549999999999
#
# number of rings (size 3 to 8) (size 9 to 14) (size 15 to 20)
#    1.500    0.000    0.000    6.000    0.000    6.000 
#    0.000    0.000    0.000   10.500    0.000    0.000 
#    0.000    0.000    0.000    0.000    0.000    0.000 
#
# Total GULP energy -356902.680600 kJ/mol
# GULP energy per Si atom -5576.604384 kJ/mol
# Density = 2.379427 g / cm^3
# Si number density = 23.848550 Si / 1000 Ang^3
#
#
#
# Elastic Constant Matrix: (Units=GPa)
#
#
# Indices 1 2 3 4 5 6 
#
# 1 101.0422 21.7224 15.8050 0.0000 0.0000 0.0000
# 2 21.7224 96.7987 40.0292 0.0000 0.0000 0.0000
# 3 15.8050 40.0292 119.0685 0.0000 0.0000 0.0000
# 4 0.0000 0.0000 0.0000 94.3457 0.0000 0.0000
# 5 0.0000 0.0000 0.0000 0.0000 41.0194 0.0000
# 6 0.0000 0.0000 0.0000 0.0000 0.0000 623.5798
#
#
#
# Elastic Compliance Matrix: (Units=1/GPa)
#
#
# Indices 1 2 3 4 5 6 
#
# 1 0.010448 -0.002057 -0.000695 0.000000 0.000000 0.000000
# 2 -0.002057 0.012404 -0.003897 0.000000 0.000000 0.000000
# 3 -0.000695 -0.003897 0.009801 0.000000 0.000000 0.000000
# 4 0.000000 0.000000 0.000000 0.010599 0.000000 0.000000
# 5 0.000000 0.000000 0.000000 0.000000 0.024379 0.000000
# 6 0.000000 0.000000 0.000000 0.000000 0.000000 0.001604
#
#
# Mechanical properties :
#
#
# Convention : Reuss Voigt Hill
#
# Bulk Modulus (GPa) = 51.66882 52.44694 52.05788
# Shear Modulus (GPa) = 56.18977 167.74584 111.96780
#
# Velocity S-wave (km/s) = 4.85924 8.39587 6.85941
# Velocity P-wave (km/s) = 7.29352 10.77158 9.19843
#
# Compressibility (1/GPa) = 0.01935403
#
# Stress axis : x y z
#
# Youngs Moduli (GPa) = 95.71348 80.62023 102.03124
#
# Poissons Ratio (x) = 0.16584 0.07094
# Poissons Ratio (y) = 0.19689 0.39761
# Poissons Ratio (z) = 0.06655 0.31417
#
# Static dielectric constant tensor:
#      x y z
#    x 1.887700 0.000000 0.000000 
#    y 0.000000 1.983800 0.000000 
#    z 0.000000 0.000000 1.878480 
# 
# From -- ./inp_files/3367.got.cif
#   From: 2010.05.17/outbox.cif.g08.bks.cpg/sg62_2_cif.got.tgz:3367.got - 2010.06.03 15:25:27.
