data_PCOD9467535
_publ_section_title
;
Structure prediction by ZEFSAII (Michael W. Deem and Ramdas Pophale) SiO2 
 PCOD9467535
Probable space group: P N M A
;
_chemical_formula_sum "Si O2"
_cell_formula_units_Z 40
_cell_length_a 12.345381
_cell_length_b 13.353816
_cell_length_c 9.759271
_cell_angle_alpha 90.000000
_cell_angle_beta 90.000000
_cell_angle_gamma 90.000000
_cell_volume 1608.893375
_symmetry_space_group_name_H-M "P N M A"
_symmetry_group_IT_number 62
_symmetry_cell_setting 'orthorhombic'
loop_
_space_group_symop_operation_xyz
x,y,z
1/2-x,-y,1/2+z
1/2+x,1/2-y,1/2-z
-x,1/2+y,-z
-x,-y,-z
1/2+x,y,1/2-z
1/2-x,1/2+y,1/2+z
x,1/2-y,z
loop_
_atom_site_type_symbol
_atom_site_label
_atom_site_fract_x
_atom_site_fract_y
_atom_site_fract_z
Si Si1 0.354772 0.915301 0.896096
Si Si2 0.672437 0.453840 0.540231
Si Si3 0.974373 0.464683 0.814905
Si Si4 0.972997 0.250000 0.459095
Si Si5 0.274290 0.250000 0.860367
Si Si6 0.299061 0.250000 0.290035
Si Si7 0.612561 0.750000 0.401316
O O1 0.446665 0.844197 0.955276
O O2 0.281887 0.845634 0.794559
O O3 0.266136 0.966966 0.992501
O O4 0.416451 0.006965 0.824467
O O5 0.585575 0.460266 0.420185
O O6 0.601625 0.485266 0.673645
O O7 0.719323 0.346746 0.574901
O O8 0.950839 0.351615 0.863106
O O9 0.898487 0.250000 0.591427
O O10 0.888636 0.250000 0.329898
O O11 0.280107 0.250000 0.695565
O O12 0.357697 0.250000 0.438738
#
# Coordination Sequence:
#
# PCOD9467535 Si02
#       7
#     8   8   8   4   4   4   4
#     4  11  23  45  71 104 140 187 238 299 354 420
#     4  11  24  44  71 102 142 187 240 292 359 427
#     4  11  24  44  73 104 140 191 238 293 354 432
#     4  11  27  45  73 102 144 189 242 296 355 428
#     4  12  26  51  68 109 145 189 234 301 365 422
#     4  11  23  47  74 103 143 192 239 293 351 434
#     4  12  24  45  71 102 146 180 237 292 355 420
#
# _framework density 24.861808
#
# number of rings (size 3 to 8) (size 9 to 14) (size 15 to 20)
#    0.000    0.800    4.000    3.000    2.800    1.600 
#   10.800    0.000    0.000    0.000    0.000    0.000 
#    0.000    0.000    0.000    0.000    0.000    0.000 
#
# Total GULP energy -223979.374469 kJ/mol
# GULP energy per Si atom -5599.484362 kJ/mol
# Density = 2.480522 g / cm^3
# Si number density = 24.861808 Si / 1000 Ang^3
#
#
#
# Elastic Constant Matrix: (Units=GPa)
#
#
# Indices 1 2 3 4 5 6 
#
# 1 144.7130 61.0472 25.3096 0.0000 0.0000 0.0000
# 2 61.0472 130.3357 25.0661 0.0000 0.0000 0.0000
# 3 25.3096 25.0661 61.2675 0.0000 0.0000 0.0000
# 4 0.0000 0.0000 0.0000 27.3119 0.0000 0.0000
# 5 0.0000 0.0000 0.0000 0.0000 23.3240 0.0000
# 6 0.0000 0.0000 0.0000 0.0000 0.0000 40.6384
#
#
#
# Elastic Compliance Matrix: (Units=1/GPa)
#
#
# Indices 1 2 3 4 5 6 
#
# 1 0.008861 -0.003741 -0.002130 0.000000 0.000000 0.000000
# 2 -0.003741 0.009907 -0.002508 0.000000 0.000000 0.000000
# 3 -0.002130 -0.002508 0.018228 0.000000 0.000000 0.000000
# 4 0.000000 0.000000 0.000000 0.036614 0.000000 0.000000
# 5 0.000000 0.000000 0.000000 0.000000 0.042874 0.000000
# 6 0.000000 0.000000 0.000000 0.000000 0.000000 0.024607
#
#
# Mechanical properties :
#
#
# Convention : Reuss Voigt Hill
#
# Bulk Modulus (GPa) = 49.41101 62.12912 55.77007
# Shear Modulus (GPa) = 30.37776 33.24774 31.81275
#
# Velocity S-wave (km/s) = 3.49931 3.66088 3.58101
# Velocity P-wave (km/s) = 6.02032 6.55083 6.29117
#
# Compressibility (1/GPa) = 0.02023841
#
# Stress axis : x y z
#
# Youngs Moduli (GPa) = 112.85766 100.94027 54.86118
#
# Poissons Ratio (x) = 0.37758 0.11685
# Poissons Ratio (y) = 0.42215 0.13759
# Poissons Ratio (z) = 0.24039 0.25315
#
# Static dielectric constant tensor:
#      x y z
#    x 1.968620 0.000000 0.000000 
#    y 0.000000 1.945330 0.000000 
#    z 0.000000 0.000000 2.028130 
# 
# From -- ./inp_files/12118.got.cif
#   From: 2010.05.17/outbox.cif.g08.bks.cpg/sg62_7_cif.got.tgz:12118.got - 2010.06.03 15:25:27.
