data_PCOD9467168
_publ_section_title
;
Structure prediction by ZEFSAII (Michael W. Deem and Ramdas Pophale) SiO2 
 PCOD9467168
Probable space group: P N M A
;
_chemical_formula_sum "Si O2"
_cell_formula_units_Z 64
_cell_length_a 15.203217
_cell_length_b 8.779064
_cell_length_c 23.969704
_cell_angle_alpha 90.000000
_cell_angle_beta 90.000000
_cell_angle_gamma 90.000000
_cell_volume 3199.236754
_symmetry_space_group_name_H-M "P N M A"
_symmetry_group_IT_number 62
_symmetry_cell_setting 'orthorhombic'
loop_
_space_group_symop_operation_xyz
x,y,z
1/2-x,-y,1/2+z
1/2+x,1/2-y,1/2-z
-x,1/2+y,-z
-x,-y,-z
1/2+x,y,1/2-z
1/2-x,1/2+y,1/2+z
x,1/2-y,z
loop_
_atom_site_type_symbol
_atom_site_label
_atom_site_fract_x
_atom_site_fract_y
_atom_site_fract_z
Si Si1 0.923264 0.568302 0.252627
Si Si2 0.278204 0.070151 0.757543
Si Si3 0.261548 0.071956 0.028928
Si Si4 0.828803 0.071882 0.871997
Si Si5 0.511355 0.928793 0.640855
Si Si6 0.566252 0.067465 0.167472
Si Si7 0.422229 0.932766 0.962477
Si Si8 0.578086 0.428042 0.536131
O O1 0.920968 0.750000 0.260239
O O2 0.822988 0.514617 0.242146
O O3 0.975461 0.523567 0.196938
O O4 0.978055 0.496460 0.303302
O O5 0.278355 0.250000 0.771968
O O6 0.306954 0.055895 0.693129
O O7 0.348476 0.989850 0.797796
O O8 0.282477 0.250000 0.037460
O O9 0.247897 0.988701 0.088015
O O10 0.168788 0.060311 0.996877
O O11 0.333712 0.993507 0.990644
O O12 0.845849 0.250000 0.883802
O O13 0.915418 0.971847 0.882537
O O14 0.517511 0.750000 0.651812
O O15 0.580213 0.983130 0.594484
O O16 0.564249 0.250000 0.170414
O O17 0.571399 0.020694 0.102583
O O18 0.425032 0.750000 0.964282
O O19 0.500000 0.000000 0.000000
O O20 0.500000 0.500000 0.500000
O O21 0.559514 0.250000 0.546658
#
# Coordination Sequence:
#
# PCOD9467168 Si02
#       8
#     8   8   8   8   8   8   8   8
#     4  11  24  43  67  96 129 170 218 265 327 397
#     4  10  24  43  67  98 130 172 217 264 328 396
#     4  11  25  43  66  97 130 174 222 271 330 391
#     4  11  22  40  66  96 130 169 217 271 328 395
#     4  12  24  39  61  93 131 172 215 264 324 389
#     4  11  25  45  69 101 135 170 219 278 335 391
#     4  11  27  49  71  98 131 175 229 283 338 394
#     4  11  23  39  61  92 131 172 214 261 319 390
#
# _framework density 20.004773
#
# number of rings (size 3 to 8) (size 9 to 14) (size 15 to 20)
#    0.000    1.000    2.500    3.375    3.500    5.000 
#    0.000    0.000    0.000    0.000    0.000    0.000 
#    0.000    0.000    0.000    0.000    0.000    0.000 
#
# Total GULP energy -357897.201839 kJ/mol
# GULP energy per Si atom -5592.143779 kJ/mol
# Density = 1.995924 g / cm^3
# Si number density = 20.004773 Si / 1000 Ang^3
#
#
#
# Elastic Constant Matrix: (Units=GPa)
#
#
# Indices 1 2 3 4 5 6 
#
# 1 97.4379 38.6564 44.4323 0.0000 0.0000 0.0000
# 2 38.6564 62.0893 33.0245 0.0000 0.0000 0.0000
# 3 44.4323 33.0245 117.1009 0.0000 0.0000 0.0000
# 4 0.0000 0.0000 0.0000 29.9966 0.0000 0.0000
# 5 0.0000 0.0000 0.0000 0.0000 28.3088 0.0000
# 6 0.0000 0.0000 0.0000 0.0000 0.0000 27.3452
#
#
#
# Elastic Compliance Matrix: (Units=1/GPa)
#
#
# Indices 1 2 3 4 5 6 
#
# 1 0.014783 -0.007318 -0.003545 0.000000 0.000000 0.000000
# 2 -0.007318 0.022571 -0.003589 0.000000 0.000000 0.000000
# 3 -0.003545 -0.003589 0.010897 0.000000 0.000000 0.000000
# 4 0.000000 0.000000 0.000000 0.033337 0.000000 0.000000
# 5 0.000000 0.000000 0.000000 0.000000 0.035325 0.000000
# 6 0.000000 0.000000 0.000000 0.000000 0.000000 0.036570
#
#
# Mechanical properties :
#
#
# Convention : Reuss Voigt Hill
#
# Bulk Modulus (GPa) = 51.68871 56.53940 54.11405
# Shear Modulus (GPa) = 26.47816 27.83110 27.15463
#
# Velocity S-wave (km/s) = 3.64207 3.73396 3.68830
# Velocity P-wave (km/s) = 6.60155 6.84940 6.72662
#
# Compressibility (1/GPa) = 0.01934658
#
# Stress axis : x y z
#
# Youngs Moduli (GPa) = 67.64554 44.30512 91.76886
#
# Poissons Ratio (x) = 0.32423 0.32535
# Poissons Ratio (y) = 0.49503 0.32932
# Poissons Ratio (z) = 0.23983 0.15899
#
# Static dielectric constant tensor:
#      x y z
#    x 1.726980 0.000000 0.000000 
#    y 0.000000 1.676740 0.000000 
#    z 0.000000 0.000000 1.721270 
# 
# From -- ./inp_files/29914.got.cif
#   From: 2010.05.17/outbox.cif.g08.bks.cpg/sg62_15_cif.got.tgz:29914.got - 2010.06.03 15:25:27.
