data_PCOD9467097
_publ_section_title
;
Structure prediction by ZEFSAII (Michael W. Deem and Ramdas Pophale) SiO2 
 PCOD9467097
Probable space group: P N M A
;
_chemical_formula_sum "Si O2"
_cell_formula_units_Z 40
_cell_length_a 12.542812
_cell_length_b 8.504365
_cell_length_c 18.199661
_cell_angle_alpha 90.000000
_cell_angle_beta 90.000000
_cell_angle_gamma 90.000000
_cell_volume 1941.333294
_symmetry_space_group_name_H-M "P N M A"
_symmetry_group_IT_number 62
_symmetry_cell_setting 'orthorhombic'
loop_
_space_group_symop_operation_xyz
x,y,z
1/2-x,-y,1/2+z
1/2+x,1/2-y,1/2-z
-x,1/2+y,-z
-x,-y,-z
1/2+x,y,1/2-z
1/2-x,1/2+y,1/2+z
x,1/2-y,z
loop_
_atom_site_type_symbol
_atom_site_label
_atom_site_fract_x
_atom_site_fract_y
_atom_site_fract_z
Si Si1 0.255094 0.935301 0.452513
Si Si2 0.611671 0.065775 0.791083
Si Si3 0.034434 0.064883 0.420342
Si Si4 0.549327 0.564431 0.635184
Si Si5 0.803355 0.939025 0.879556
O O1 0.232379 0.750000 0.445342
O O2 0.259941 0.974417 0.538930
O O3 0.160248 0.030830 0.414377
O O4 0.368423 0.974453 0.416900
O O5 0.604711 0.250000 0.774530
O O6 0.530881 0.020559 0.856487
O O7 0.582704 0.968903 0.718728
O O8 0.728906 0.022126 0.820363
O O9 0.011849 0.250000 0.416667
O O10 0.000000 0.000000 0.500000
O O11 0.555897 0.750000 0.618962
O O12 0.426839 0.514339 0.624833
O O13 0.796939 0.750000 0.869056
#
# Coordination Sequence:
#
# PCOD9467097 Si02
#       5
#     8   8   8   8   8
#     4  11  23  42  69 100 132 170 221 272 327 392
#     4  12  26  43  66  96 132 174 221 275 331 387
#     4  12  24  42  67  97 131 172 220 270 328 391
#     4  11  25  44  67  96 134 177 219 269 332 393
#     4  10  23  44  69  95 130 173 219 270 326 393
#
# _framework density 20.604396000000001
#
# number of rings (size 3 to 8) (size 9 to 14) (size 15 to 20)
#    0.000    0.800    2.000    5.400    2.800    2.400 
#    0.000    0.000    0.000    0.000    0.000    0.000 
#    0.000    0.000    0.000    0.000    0.000    0.000 
#
# Total GULP energy -223973.972443 kJ/mol
# GULP energy per Si atom -5599.349311 kJ/mol
# Density = 2.055750 g / cm^3
# Si number density = 20.604396 Si / 1000 Ang^3
#
#
#
# Elastic Constant Matrix: (Units=GPa)
#
#
# Indices 1 2 3 4 5 6 
#
# 1 98.9890 3.3458 -13.2693 0.0000 0.0000 0.0000
# 2 3.3458 28.6825 -11.2087 0.0000 0.0000 0.0000
# 3 -13.2693 -11.2087 30.1660 0.0000 0.0000 0.0000
# 4 0.0000 0.0000 0.0000 21.4717 0.0000 0.0000
# 5 0.0000 0.0000 0.0000 0.0000 9.5137 0.0000
# 6 0.0000 0.0000 0.0000 0.0000 0.0000 37.7264
#
#
#
# Elastic Compliance Matrix: (Units=1/GPa)
#
#
# Indices 1 2 3 4 5 6 
#
# 1 0.010747 0.000695 0.004985 0.000000 0.000000 0.000000
# 2 0.000695 0.040832 0.015477 0.000000 0.000000 0.000000
# 3 0.004985 0.015477 0.041094 0.000000 0.000000 0.000000
# 4 0.000000 0.000000 0.000000 0.046573 0.000000 0.000000
# 5 0.000000 0.000000 0.000000 0.000000 0.105111 0.000000
# 6 0.000000 0.000000 0.000000 0.000000 0.000000 0.026507
#
#
# Mechanical properties :
#
#
# Convention : Reuss Voigt Hill
#
# Bulk Modulus (GPa) = 7.40812 12.84144 10.12478
# Shear Modulus (GPa) = 18.27857 25.67368 21.97613
#
# Velocity S-wave (km/s) = 2.98169 3.53374 3.26939
# Velocity P-wave (km/s) = 3.93156 4.78495 4.37909
#
# Compressibility (1/GPa) = 0.13498710
#
# Stress axis : x y z
#
# Youngs Moduli (GPa) = 93.04973 24.49073 24.33463
#
# Poissons Ratio (x) = -0.01701 -0.12132
# Poissons Ratio (y) = -0.06463 -0.37663
# Poissons Ratio (z) = -0.46389 -0.37905
#
# Static dielectric constant tensor:
#      x y z
#    x 1.733860 0.000000 0.000000 
#    y 0.000000 1.693920 0.000000 
#    z 0.000000 0.000000 1.693430 
# 
# From -- ./inp_files/22774.got.cif
#   From: 2010.05.17/outbox.cif.g08.bks.cpg/sg62_12_cif.got.tgz:22774.got - 2010.06.03 15:25:27.
