data_PCOD9467033
_publ_section_title
;
Structure prediction by ZEFSAII (Michael W. Deem and Ramdas Pophale) SiO2 
 PCOD9467033
Probable space group: P N M A
;
_chemical_formula_sum "Si O2"
_cell_formula_units_Z 40
_cell_length_a 21.917781
_cell_length_b 13.935696
_cell_length_c 5.118146
_cell_angle_alpha 90.000000
_cell_angle_beta 90.000000
_cell_angle_gamma 90.000000
_cell_volume 1563.284124
_symmetry_space_group_name_H-M "P N M A"
_symmetry_group_IT_number 62
_symmetry_cell_setting 'orthorhombic'
loop_
_space_group_symop_operation_xyz
x,y,z
1/2-x,-y,1/2+z
1/2+x,1/2-y,1/2-z
-x,1/2+y,-z
-x,-y,-z
1/2+x,y,1/2-z
1/2-x,1/2+y,1/2+z
x,1/2-y,z
loop_
_atom_site_type_symbol
_atom_site_label
_atom_site_fract_x
_atom_site_fract_y
_atom_site_fract_z
Si Si1 0.065699 0.250000 0.849146
Si Si2 0.043856 0.750000 0.849557
Si Si3 0.704740 0.250000 0.503802
Si Si4 0.628251 0.899414 0.843282
Si Si5 0.249122 0.568343 0.802963
Si Si6 0.535363 0.460467 0.755976
Si Si7 0.663718 0.750000 0.266633
O O1 0.137977 0.250000 0.869982
O O2 0.038616 0.153366 0.733983
O O3 0.028189 0.250000 0.121456
O O4 0.097699 0.750000 0.073796
O O5 0.066024 0.656261 0.705174
O O6 0.710476 0.153682 0.321206
O O7 0.759899 0.250000 0.721175
O O8 0.684191 0.877991 0.647040
O O9 0.605697 0.005684 0.786568
O O10 0.651970 0.850006 0.103514
O O11 0.236421 0.492307 0.563522
O O12 0.500000 0.500000 0.500000
O O13 0.500000 0.500000 0.000000
#
# Coordination Sequence:
#
# PCOD9467033 Si02
#       7
#     4   4   4   8   8   8   4
#     4  12  25  48  79 110 158 194 261 327 399 448
#     4  11  21  42  75 100 141 196 252 304 371 458
#     4  10  25  48  74 120 153 202 250 335 385 452
#     4  10  23  42  69 105 141 195 253 299 369 456
#     4  11  26  47  75 110 153 201 252 315 386 463
#     4  12  27  47  74 108 152 198 250 310 381 456
#     4   9  21  42  76 104 150 200 259 300 373 468
#
# _framework density 25.587160000000001
#
# number of rings (size 3 to 8) (size 9 to 14) (size 15 to 20)
#    0.000    1.200    2.000    3.000    5.600    4.000 
#    0.000    3.000    0.000    0.000    0.000    0.000 
#    0.000    0.000    0.000    0.000    0.000    0.000 
#
# Total GULP energy -222776.393609 kJ/mol
# GULP energy per Si atom -5569.409840 kJ/mol
# Density = 2.552892 g / cm^3
# Si number density = 25.587160 Si / 1000 Ang^3
#
#
#
# Elastic Constant Matrix: (Units=GPa)
#
#
# Indices 1 2 3 4 5 6 
#
# 1 159.3008 26.4059 50.8162 0.0000 0.0000 0.0000
# 2 26.4059 144.3913 27.6699 0.0000 0.0000 0.0000
# 3 50.8162 27.6699 125.0845 0.0000 0.0000 0.0000
# 4 0.0000 0.0000 0.0000 -1.2997 0.0000 0.0000
# 5 0.0000 0.0000 0.0000 0.0000 38.0769 0.0000
# 6 0.0000 0.0000 0.0000 0.0000 0.0000 48.6988
#
#
#
# Elastic Compliance Matrix: (Units=1/GPa)
#
#
# Indices 1 2 3 4 5 6 
#
# 1 0.007300 -0.000801 -0.002788 0.000000 0.000000 0.000000
# 2 -0.000801 0.007320 -0.001294 0.000000 0.000000 0.000000
# 3 -0.002788 -0.001294 0.009414 0.000000 0.000000 0.000000
# 4 0.000000 0.000000 0.000000 -0.769402 0.000000 0.000000
# 5 0.000000 0.000000 0.000000 0.000000 0.026263 0.000000
# 6 0.000000 0.000000 0.000000 0.000000 0.000000 0.020534
#
#
# Mechanical properties :
#
#
# Convention : Reuss Voigt Hill
#
# Bulk Modulus (GPa) = 70.09057 70.95119 70.52088
# Shear Modulus (GPa) = -7.30940 38.68750 15.68905
#
# Velocity S-wave (km/s) = -1.69200 3.89265 2.47890
# Velocity P-wave (km/s) = 4.86160 6.92770 5.98449
#
# Compressibility (1/GPa) = 0.01426725
#
# Stress axis : x y z
#
# Youngs Moduli (GPa) = 136.99326 136.61182 106.22869
#
# Poissons Ratio (x) = 0.10937 0.29621
# Poissons Ratio (y) = 0.10968 0.13746
# Poissons Ratio (z) = 0.38199 0.17678
#
# Static dielectric constant tensor:
#      x y z
#    x 1.985590 0.000000 0.000000 
#    y 0.000000 2.313840 0.000000 
#    z 0.000000 0.000000 2.174450 
# 
# From -- ./inp_files/2699.got.cif
#   From: 2010.05.17/outbox.cif.g08.bks.cpg/sg62_2_cif.got.tgz:2699.got - 2010.06.03 15:25:27.
