data_PCOD9467500
_publ_section_title
;
Structure prediction by ZEFSAII (Michael W. Deem and Ramdas Pophale) SiO2 
 PCOD9467500
Probable space group: P N M A
;
_chemical_formula_sum "Si O2"
_cell_formula_units_Z 48
_cell_length_a 14.090628
_cell_length_b 17.150298
_cell_length_c 9.958869
_cell_angle_alpha 90.000000
_cell_angle_beta 90.000000
_cell_angle_gamma 90.000000
_cell_volume 2406.645038
_symmetry_space_group_name_H-M "P N M A"
_symmetry_group_IT_number 62
_symmetry_cell_setting 'orthorhombic'
loop_
_space_group_symop_operation_xyz
x,y,z
1/2-x,-y,1/2+z
1/2+x,1/2-y,1/2-z
-x,1/2+y,-z
-x,-y,-z
1/2+x,y,1/2-z
1/2-x,1/2+y,1/2+z
x,1/2-y,z
loop_
_atom_site_type_symbol
_atom_site_label
_atom_site_fract_x
_atom_site_fract_y
_atom_site_fract_z
Si Si1 0.967049 0.842984 0.222415
Si Si2 0.733894 0.109428 0.657085
Si Si3 0.479739 0.591189 0.975711
Si Si4 0.174305 0.660280 0.615500
Si Si5 0.225295 0.427463 0.352073
Si Si6 0.834378 0.339982 0.920200
O O1 0.951104 0.750000 0.218213
O O2 0.879303 0.886335 0.153532
O O3 0.975602 0.868951 0.377514
O O4 0.063345 0.859586 0.141782
O O5 0.782472 0.152719 0.533342
O O6 0.763173 0.149982 0.795680
O O7 0.770011 0.020708 0.656560
O O8 0.567518 0.627204 0.893606
O O9 0.379455 0.598355 0.899514
O O10 0.500000 0.500000 0.000000
O O11 0.173427 0.750000 0.658459
O O12 0.240040 0.609552 0.713108
O O13 0.298965 0.396253 0.463288
O O14 0.834363 0.250000 0.965954
#
# Coordination Sequence:
#
# PCOD9467500 Si02
#       6
#     8   8   8   8   8   8
#     4  11  23  40  70  99 126 173 231 282 328 395
#     4  12  23  42  69  97 132 177 229 277 333 403
#     4  12  23  44  69  97 134 183 231 274 343 413
#     4  12  26  42  66 104 143 177 224 289 347 406
#     4  12  26  43  69 100 139 180 221 281 349 409
#     4  11  23  42  67  98 130 171 230 279 324 399
#
# _framework density 19.944777999999999
#
# number of rings (size 3 to 8) (size 9 to 14) (size 15 to 20)
#    0.000    0.333    5.000    4.500    0.000    4.000 
#    0.000    0.000    0.000    0.000    0.000    0.000 
#    0.000    0.000    0.000    0.000    0.000    0.000 
#
# Total GULP energy -268636.684514 kJ/mol
# GULP energy per Si atom -5596.597594 kJ/mol
# Density = 1.989938 g / cm^3
# Si number density = 19.944778 Si / 1000 Ang^3
#
#
#
# Elastic Constant Matrix: (Units=GPa)
#
#
# Indices 1 2 3 4 5 6 
#
# 1 90.0593 15.8598 -10.9540 0.0000 0.0000 0.0000
# 2 15.8598 55.4730 7.2990 0.0000 0.0000 0.0000
# 3 -10.9540 7.2990 34.1692 0.0000 0.0000 0.0000
# 4 0.0000 0.0000 0.0000 -7.5838 0.0000 0.0000
# 5 0.0000 0.0000 0.0000 0.0000 33.3558 0.0000
# 6 0.0000 0.0000 0.0000 0.0000 0.0000 29.4548
#
#
#
# Elastic Compliance Matrix: (Units=1/GPa)
#
#
# Indices 1 2 3 4 5 6 
#
# 1 0.012437 -0.004198 0.004884 0.000000 0.000000 0.000000
# 2 -0.004198 0.019965 -0.005611 0.000000 0.000000 0.000000
# 3 0.004884 -0.005611 0.032030 0.000000 0.000000 0.000000
# 4 0.000000 0.000000 0.000000 -0.131860 0.000000 0.000000
# 5 0.000000 0.000000 0.000000 0.000000 0.029980 0.000000
# 6 0.000000 0.000000 0.000000 0.000000 0.000000 0.033950
#
#
# Mechanical properties :
#
#
# Convention : Reuss Voigt Hill
#
# Bulk Modulus (GPa) = 18.32092 22.67900 20.49996
# Shear Modulus (GPa) = 203.68210 22.21180 112.94695
#
# Velocity S-wave (km/s) = 10.11656 3.34078 7.53344
# Velocity P-wave (km/s) = 12.06919 5.12608 9.27206
#
# Compressibility (1/GPa) = 0.05458240
#
# Stress axis : x y z
#
# Youngs Moduli (GPa) = 80.40395 50.08666 31.22040
#
# Poissons Ratio (x) = 0.21029 -0.15248
# Poissons Ratio (y) = 0.33757 0.17517
# Poissons Ratio (z) = -0.39269 0.28103
#
# Static dielectric constant tensor:
#      x y z
#    x 1.705850 0.000000 0.000000 
#    y 0.000000 1.672480 0.000000 
#    z 0.000000 0.000000 1.675410 
# 
# From -- ./inp_files/6448.got.cif
#   From: 2010.05.17/outbox.cif.g08.bks.cpg/sg62_4_cif.got.tgz:6448.got - 2010.06.03 15:25:27.
