data_PCOD9467206
_publ_section_title
;
Structure prediction by ZEFSAII (Michael W. Deem and Ramdas Pophale) SiO2 
 PCOD9467206
Probable space group: P N M A
;
_chemical_formula_sum "Si O2"
_cell_formula_units_Z 48
_cell_length_a 8.917288
_cell_length_b 23.086609
_cell_length_c 11.115113
_cell_angle_alpha 90.000000
_cell_angle_beta 90.000000
_cell_angle_gamma 90.000000
_cell_volume 2288.267662
_symmetry_space_group_name_H-M "P N M A"
_symmetry_group_IT_number 62
_symmetry_cell_setting 'orthorhombic'
loop_
_space_group_symop_operation_xyz
x,y,z
1/2-x,-y,1/2+z
1/2+x,1/2-y,1/2-z
-x,1/2+y,-z
-x,-y,-z
1/2+x,y,1/2-z
1/2-x,1/2+y,1/2+z
x,1/2-y,z
loop_
_atom_site_type_symbol
_atom_site_label
_atom_site_fract_x
_atom_site_fract_y
_atom_site_fract_z
Si Si1 0.839877 0.448254 0.605835
Si Si2 0.338869 0.150708 0.578384
Si Si3 0.606812 0.877643 0.872107
Si Si4 0.591467 0.118011 0.760799
Si Si5 0.728956 0.417113 0.127978
Si Si6 0.424815 0.250000 0.397549
Si Si7 0.281093 0.250000 0.136870
O O1 0.836856 0.424499 0.469956
O O2 0.998468 0.427281 0.659207
O O3 0.712470 0.415124 0.680540
O O4 0.816525 0.515796 0.627578
O O5 0.472819 0.147772 0.673182
O O6 0.314351 0.093221 0.498432
O O7 0.377106 0.196259 0.477440
O O8 0.185557 0.159792 0.651979
O O9 0.426357 0.880980 0.868944
O O10 0.673703 0.896417 0.742520
O O11 0.658145 0.812486 0.909758
O O12 0.335712 0.250000 0.274117
O O13 0.602075 0.250000 0.373923
#
# Coordination Sequence:
#
# PCOD9467206 Si02
#       7
#     8   8   8   8   8   4   4
#     4  11  24  44  69 101 143 183 239 290 359 424
#     4  11  25  45  68  99 138 180 237 286 354 417
#     4  12  26  44  70 104 141 188 237 294 364 415
#     4  10  24  45  67  98 136 188 227 290 347 426
#     4  12  26  42  68 106 140 184 234 298 358 426
#     4  12  26  46  70 101 141 177 237 293 345 428
#     4  12  26  46  72 105 145 185 237 291 355 424
#
# _framework density 20.976565999999998
#
# number of rings (size 3 to 8) (size 9 to 14) (size 15 to 20)
#    0.000    0.667    3.333    3.500    7.000    1.333 
#    0.000    3.333    0.000    0.000    0.000    0.000 
#    0.000    0.000    0.000    0.000    0.000    0.000 
#
# Total GULP energy -268386.316984 kJ/mol
# GULP energy per Si atom -5591.381604 kJ/mol
# Density = 2.092882 g / cm^3
# Si number density = 20.976566 Si / 1000 Ang^3
#
#
#
# Elastic Constant Matrix: (Units=GPa)
#
#
# Indices 1 2 3 4 5 6 
#
# 1 97.7865 7.8108 35.9831 0.0000 0.0000 0.0000
# 2 7.8108 49.1994 -6.3406 0.0000 0.0000 0.0000
# 3 35.9831 -6.3406 81.9541 0.0000 0.0000 0.0000
# 4 0.0000 0.0000 0.0000 27.8129 0.0000 0.0000
# 5 0.0000 0.0000 0.0000 0.0000 13.9211 0.0000
# 6 0.0000 0.0000 0.0000 0.0000 0.0000 33.1016
#
#
#
# Elastic Compliance Matrix: (Units=1/GPa)
#
#
# Indices 1 2 3 4 5 6 
#
# 1 0.012550 -0.002730 -0.005721 0.000000 0.000000 0.000000
# 2 -0.002730 0.021124 0.002833 0.000000 0.000000 0.000000
# 3 -0.005721 0.002833 0.014933 0.000000 0.000000 0.000000
# 4 0.000000 0.000000 0.000000 0.035955 0.000000 0.000000
# 5 0.000000 0.000000 0.000000 0.000000 0.071834 0.000000
# 6 0.000000 0.000000 0.000000 0.000000 0.000000 0.030210
#
#
# Mechanical properties :
#
#
# Convention : Reuss Voigt Hill
#
# Bulk Modulus (GPa) = 26.75920 33.76075 30.25998
# Shear Modulus (GPa) = 23.77578 27.73290 25.75434
#
# Velocity S-wave (km/s) = 3.37032 3.64000 3.50775
# Velocity P-wave (km/s) = 5.28487 5.81340 5.55542
#
# Compressibility (1/GPa) = 0.03737032
#
# Stress axis : x y z
#
# Youngs Moduli (GPa) = 79.68311 47.33980 66.96509
#
# Poissons Ratio (x) = 0.12922 0.38313
# Poissons Ratio (y) = 0.21751 -0.18970
# Poissons Ratio (z) = 0.45589 -0.13410
#
# Static dielectric constant tensor:
#      x y z
#    x 1.740870 0.000000 0.000000 
#    y 0.000000 1.800890 0.000000 
#    z 0.000000 0.000000 1.765400 
# 
# From -- ./inp_files/11342.got.cif
#   From: 2010.05.17/outbox.cif.g08.bks.cpg/sg62_6_cif.got.tgz:11342.got - 2010.06.03 15:25:27.
