data_PCOD9467944
_publ_section_title
;
Structure prediction by ZEFSAII (Michael W. Deem and Ramdas Pophale) SiO2 
 PCOD9467944
Probable space group: P N M A
;
_chemical_formula_sum "Si O2"
_cell_formula_units_Z 48
_cell_length_a 30.000000
_cell_length_b 9.000000
_cell_length_c 9.000000
_cell_angle_alpha 90.000000
_cell_angle_beta 90.000000
_cell_angle_gamma 90.000000
_cell_volume 2430.000000
_symmetry_space_group_name_H-M "P N M A"
_symmetry_group_IT_number 62
_symmetry_cell_setting 'orthorhombic'
loop_
_space_group_symop_operation_xyz
x,y,z
1/2-x,-y,1/2+z
1/2+x,1/2-y,1/2-z
-x,1/2+y,-z
-x,-y,-z
1/2+x,y,1/2-z
1/2-x,1/2+y,1/2+z
x,1/2-y,z
loop_
_atom_site_type_symbol
_atom_site_label
_atom_site_fract_x
_atom_site_fract_y
_atom_site_fract_z
Si Si1 0.861230 0.570396 0.512656
Si Si2 0.539801 0.417897 0.082513
Si Si3 0.980126 0.417513 0.136890
Si Si4 0.305686 0.925442 0.457334
Si Si5 0.119017 0.928042 0.794464
Si Si6 0.724469 0.426963 0.205703
O O1 0.860671 0.750000 0.507092
O O2 0.910035 0.522126 0.573711
O O3 0.859075 0.501509 0.350001
O O4 0.819021 0.525986 0.611303
O O5 0.541569 0.250000 0.022809
O O6 0.520112 0.414427 0.246411
O O7 0.500000 0.500000 0.000000
O O8 0.969231 0.250000 0.092404
O O9 0.932892 0.477053 0.197920
O O10 0.000000 0.500000 0.000000
O O11 0.313237 0.750000 0.435619
O O12 0.286980 0.949582 0.622371
O O13 0.351720 0.012464 0.430595
O O14 0.267929 0.985738 0.346416
O O15 0.121212 0.750000 0.782615
O O16 0.731800 0.250000 0.181866
#
# Coordination Sequence:
#
# PCOD9467944 Si02
#       6
#     8   8   8   8   8   8
#     4  10  21  38  63  90 119 158 200 243 294 351
#     4  10  20  37  60  87 120 159 201 245 289 343
#     4  10  23  39  58  86 122 160 200 247 296 346
#     4  11  24  41  64  90 118 156 196 240 297 355
#     4  11  23  40  60  88 123 158 197 247 297 349
#     4  10  23  42  63  90 121 153 194 245 295 351
#
# _framework density 19.753086
#
# number of rings (size 3 to 8) (size 9 to 14) (size 15 to 20)
#    0.000    1.667    1.667    2.000    2.333    6.667 
#    0.000    0.000    0.000    0.000    0.000    0.000 
#    0.000    0.000    0.000    0.000    0.000    0.000 
#
# Total GULP energy -267776.625260 kJ/mol
# GULP energy per Si atom -5578.679693 kJ/mol
# Density = 1.970813 g / cm^3
# Si number density = 19.753086 Si / 1000 Ang^3
#
#
#
# Elastic Constant Matrix: (Units=GPa)
#
#
# Indices 1 2 3 4 5 6 
#
# 1 75.1977 9.6526 19.7175 0.0000 0.0000 0.0000
# 2 9.6526 2.7785 24.0490 0.0000 0.0000 0.0000
# 3 19.7175 24.0490 48.4424 0.0000 0.0000 0.0000
# 4 0.0000 0.0000 0.0000 28.9032 0.0000 0.0000
# 5 0.0000 0.0000 0.0000 0.0000 33.3733 0.0000
# 6 0.0000 0.0000 0.0000 0.0000 0.0000 30.5935
#
#
#
# Elastic Compliance Matrix: (Units=1/GPa)
#
#
# Indices 1 2 3 4 5 6 
#
# 1 0.014887 -0.000221 -0.005950 0.000000 0.000000 0.000000
# 2 -0.000221 -0.109161 0.054282 0.000000 0.000000 0.000000
# 3 -0.005950 0.054282 -0.003883 0.000000 0.000000 0.000000
# 4 0.000000 0.000000 0.000000 0.034598 0.000000 0.000000
# 5 0.000000 0.000000 0.000000 0.000000 0.029964 0.000000
# 6 0.000000 0.000000 0.000000 0.000000 0.000000 0.032687
#
#
# Mechanical properties :
#
#
# Convention : Reuss Voigt Hill
#
# Bulk Modulus (GPa) = -516.99285 25.91741 -245.53772
# Shear Modulus (GPa) = -51.13723 23.44062 -13.84830
#
# Velocity S-wave (km/s) = -5.09357 3.44856 -2.65065
# Velocity P-wave (km/s) = 17.23045 5.38572 11.57330
#
# Compressibility (1/GPa) = -0.00193426
#
# Stress axis : x y z
#
# Youngs Moduli (GPa) = 67.17414 -9.16081 -257.50588
#
# Poissons Ratio (x) = -0.00203 -1.53204
# Poissons Ratio (y) = 0.01485 13.97798
# Poissons Ratio (z) = 0.39966 0.49727
#
# Static dielectric constant tensor:
#      x y z
#    x 1.689480 0.000000 0.000000 
#    y 0.000000 1.633610 0.000000 
#    z 0.000000 0.000000 1.692460 
# 
# From -- ./inp_files/10221.got.cif
#   From: 2010.05.17/outbox.ucp.g08.bks.cvg/sg62_6_cif.got.tgz:10221.got - 2010.06.11 16:29:25.
