data_PCOD9467337
_publ_section_title
;
Structure prediction by ZEFSAII (Michael W. Deem and Ramdas Pophale) SiO2 
 PCOD9467337
Probable space group: P N M A
;
_chemical_formula_sum "Si O2"
_cell_formula_units_Z 40
_cell_length_a 21.566161
_cell_length_b 8.573794
_cell_length_c 13.084683
_cell_angle_alpha 90.000000
_cell_angle_beta 90.000000
_cell_angle_gamma 90.000000
_cell_volume 2419.407894
_symmetry_space_group_name_H-M "P N M A"
_symmetry_group_IT_number 62
_symmetry_cell_setting 'orthorhombic'
loop_
_space_group_symop_operation_xyz
x,y,z
1/2-x,-y,1/2+z
1/2+x,1/2-y,1/2-z
-x,1/2+y,-z
-x,-y,-z
1/2+x,y,1/2-z
1/2-x,1/2+y,1/2+z
x,1/2-y,z
loop_
_atom_site_type_symbol
_atom_site_label
_atom_site_fract_x
_atom_site_fract_y
_atom_site_fract_z
Si Si1 0.338548 0.438387 0.166949
Si Si2 0.337181 0.559966 0.825425
Si Si3 0.301639 0.937557 0.605324
Si Si4 0.069324 0.436714 0.499020
Si Si5 0.198475 0.562358 0.888171
O O1 0.342388 0.250000 0.162395
O O2 0.270474 0.483384 0.123750
O O3 0.391785 0.509935 0.097688
O O4 0.338638 0.485368 0.286339
O O5 0.337321 0.750000 0.825629
O O6 0.338450 0.510589 0.706890
O O7 0.270100 0.511957 0.870116
O O8 0.391878 0.507067 0.899552
O O9 0.303140 0.750000 0.602728
O O10 0.323596 0.000730 0.496892
O O11 0.067712 0.250000 0.496123
O O12 0.000000 0.500000 0.500000
O O13 0.198474 0.750000 0.890590
#
# Coordination Sequence:
#
# PCOD9467337 Si02
#       5
#     8   8   8   8   8
#     4   9  18  31  47  70 100 129 160 196 239 289
#     4   8  16  30  46  67  97 130 156 188 241 291
#     4   9  16  28  48  72  98 125 156 195 237 287
#     4  11  21  34  52  70  97 131 167 202 237 286
#     4   9  16  29  48  71 100 128 154 193 245 293
#
# _framework density 16.532969999999999
#
# number of rings (size 3 to 8) (size 9 to 14) (size 15 to 20)
#    0.000    2.800    2.000    3.000    0.000    0.800 
#    0.000    5.000    0.000    1.200    0.000    0.000 
#    0.000    0.000    0.000    0.000    0.000    0.000 
#
# Total GULP energy -222845.037984 kJ/mol
# GULP energy per Si atom -5571.125950 kJ/mol
# Density = 1.649534 g / cm^3
# Si number density = 16.532970 Si / 1000 Ang^3
#
#
#
# Elastic Constant Matrix: (Units=GPa)
#
#
# Indices 1 2 3 4 5 6 
#
# 1 98.4435 23.8484 75.7041 0.0000 0.0000 0.0000
# 2 23.8484 13.5546 29.9169 0.0000 0.0000 0.0000
# 3 75.7041 29.9169 191.3898 0.0000 0.0000 0.0000
# 4 0.0000 0.0000 0.0000 28.7886 0.0000 0.0000
# 5 0.0000 0.0000 0.0000 0.0000 19.5305 0.0000
# 6 0.0000 0.0000 0.0000 0.0000 0.0000 -10.7374
#
#
#
# Elastic Compliance Matrix: (Units=1/GPa)
#
#
# Indices 1 2 3 4 5 6 
#
# 1 0.019143 -0.025906 -0.003522 0.000000 0.000000 0.000000
# 2 -0.025906 0.147693 -0.012840 0.000000 0.000000 0.000000
# 3 -0.003522 -0.012840 0.008625 0.000000 0.000000 0.000000
# 4 0.000000 0.000000 0.000000 0.034736 0.000000 0.000000
# 5 0.000000 0.000000 0.000000 0.000000 0.051202 0.000000
# 6 0.000000 0.000000 0.000000 0.000000 0.000000 -0.093132
#
#
# Mechanical properties :
#
#
# Convention : Reuss Voigt Hill
#
# Bulk Modulus (GPa) = 10.99798 62.48075 36.73936
# Shear Modulus (GPa) = 17.66093 19.11089 18.38591
#
# Velocity S-wave (km/s) = 3.27192 3.40358 3.33840
# Velocity P-wave (km/s) = 4.57608 7.30202 6.09344
#
# Compressibility (1/GPa) = 0.09092579
#
# Stress axis : x y z
#
# Youngs Moduli (GPa) = 52.23927 6.77080 115.93861
#
# Poissons Ratio (x) = 0.17540 0.40839
# Poissons Ratio (y) = 1.35329 1.48860
# Poissons Ratio (z) = 0.18401 0.08693
#
# Static dielectric constant tensor:
#      x y z
#    x 1.524790 0.000000 0.000000 
#    y 0.000000 1.568770 0.000000 
#    z 0.000000 0.000000 1.583650 
# 
# From -- ./inp_files/8471.got.cif
#   From: 2010.05.17/outbox.cif.g08.bks.cpg/sg62_5_cif.got.tgz:8471.got - 2010.06.03 15:25:27.
