data_PCOD9467145
_publ_section_title
;
Structure prediction by ZEFSAII (Michael W. Deem and Ramdas Pophale) SiO2 
 PCOD9467145
Probable space group: P N M A
;
_chemical_formula_sum "Si O2"
_cell_formula_units_Z 60
_cell_length_a 14.986047
_cell_length_b 9.514886
_cell_length_c 18.426395
_cell_angle_alpha 90.000000
_cell_angle_beta 90.000000
_cell_angle_gamma 90.000000
_cell_volume 2627.429407
_symmetry_space_group_name_H-M "P N M A"
_symmetry_group_IT_number 62
_symmetry_cell_setting 'orthorhombic'
loop_
_space_group_symop_operation_xyz
x,y,z
1/2-x,-y,1/2+z
1/2+x,1/2-y,1/2-z
-x,1/2+y,-z
-x,-y,-z
1/2+x,y,1/2-z
1/2-x,1/2+y,1/2+z
x,1/2-y,z
loop_
_atom_site_type_symbol
_atom_site_label
_atom_site_fract_x
_atom_site_fract_y
_atom_site_fract_z
Si Si1 0.058304 0.912047 0.210326
Si Si2 0.130045 0.413657 0.847834
Si Si3 0.130181 0.485122 0.011197
Si Si4 0.512101 0.750000 0.527038
Si Si5 0.205626 0.080393 0.292664
Si Si6 0.381140 0.090747 0.921717
Si Si7 0.061681 0.095095 0.644702
Si Si8 0.798724 0.088932 0.418524
O O1 0.086214 0.750000 0.195589
O O2 0.976415 0.949275 0.155443
O O3 0.998787 0.911792 0.283896
O O4 0.142272 0.011627 0.229883
O O5 0.137677 0.250000 0.825573
O O6 0.159210 0.425763 0.931852
O O7 0.195371 0.511964 0.800828
O O8 0.062699 0.371301 0.041280
O O9 0.084061 0.629462 0.994731
O O10 0.210229 0.498299 0.067101
O O11 0.208231 0.250000 0.288067
O O12 0.159562 0.025465 0.367827
O O13 0.358919 0.250000 0.893300
O O14 0.487919 0.079764 0.918030
O O15 0.347575 0.083267 0.003327
O O16 0.102846 0.250000 0.639970
O O17 0.135351 0.977435 0.639071
O O18 0.777207 0.250000 0.401741
#
# Coordination Sequence:
#
# PCOD9467145 Si02
#       8
#     8   8   8   4   8   8   8   8
#     4   9  21  42  64  85 118 164 210 261 303 364
#     4  11  21  40  70  91 116 162 217 252 304 370
#     4  11  22  41  65  93 118 163 200 261 304 365
#     4  10  24  42  60  86 128 148 194 250 320 346
#     4  11  22  35  59  94 124 153 195 259 312 366
#     4   9  18  34  55  83 118 152 194 243 282 356
#     4   9  19  34  53  82 121 155 188 239 306 352
#     4  11  20  32  56  87 117 155 200 238 297 360
#
# _framework density 22.836008
#
# number of rings (size 3 to 8) (size 9 to 14) (size 15 to 20)
#    0.000    1.867    2.667    2.400    1.867    3.200 
#    0.000    2.667    2.933    0.000    0.000    0.000 
#    0.000    0.000    0.000    0.000    0.000    0.000 
#
# Total GULP energy -334126.431820 kJ/mol
# GULP energy per Si atom -5568.773864 kJ/mol
# Density = 2.278403 g / cm^3
# Si number density = 22.836008 Si / 1000 Ang^3
#
#
#
# Elastic Constant Matrix: (Units=GPa)
#
#
# Indices 1 2 3 4 5 6 
#
# 1 83.5835 61.4190 16.1669 0.0000 0.0000 0.0000
# 2 61.4190 124.3402 20.8516 0.0000 0.0000 0.0000
# 3 16.1669 20.8516 68.8921 0.0000 0.0000 0.0000
# 4 0.0000 0.0000 0.0000 -3.8685 0.0000 0.0000
# 5 0.0000 0.0000 0.0000 0.0000 22.0121 0.0000
# 6 0.0000 0.0000 0.0000 0.0000 0.0000 172.2344
#
#
#
# Elastic Compliance Matrix: (Units=1/GPa)
#
#
# Indices 1 2 3 4 5 6 
#
# 1 0.018969 -0.009084 -0.001702 0.000000 0.000000 0.000000
# 2 -0.009084 0.012823 -0.001749 0.000000 0.000000 0.000000
# 3 -0.001702 -0.001749 0.015444 0.000000 0.000000 0.000000
# 4 0.000000 0.000000 0.000000 -0.258497 0.000000 0.000000
# 5 0.000000 0.000000 0.000000 0.000000 0.045430 0.000000
# 6 0.000000 0.000000 0.000000 0.000000 0.000000 0.005806
#
#
# Mechanical properties :
#
#
# Convention : Reuss Voigt Hill
#
# Bulk Modulus (GPa) = 45.11610 52.63231 48.87421
# Shear Modulus (GPa) = -39.19550 49.96748 5.38599
#
# Velocity S-wave (km/s) = -4.14743 4.68279 1.53742
# Velocity P-wave (km/s) = 1.77072 7.23436 4.95987
#
# Compressibility (1/GPa) = 0.02216504
#
# Stress axis : x y z
#
# Youngs Moduli (GPa) = 52.71858 77.98412 64.74881
#
# Poissons Ratio (x) = 0.70844 0.11019
# Poissons Ratio (y) = 0.47891 0.11327
# Poissons Ratio (z) = 0.08972 0.13642
#
# Static dielectric constant tensor:
#      x y z
#    x 1.881440 0.000000 0.000000 
#    y 0.000000 1.794340 0.000000 
#    z 0.000000 0.000000 1.969390 
# 
# From -- ./inp_files/29673.got.cif
#   From: 2010.05.17/outbox.cif.g08.bks.cpg/sg62_15_cif.got.tgz:29673.got - 2010.06.03 15:25:27.
