data_PCOD9467054
_publ_section_title
;
Structure prediction by ZEFSAII (Michael W. Deem and Ramdas Pophale) SiO2 
 PCOD9467054
Probable space group: P N M A
;
_chemical_formula_sum "Si O2"
_cell_formula_units_Z 40
_cell_length_a 18.614657
_cell_length_b 16.849447
_cell_length_c 5.953425
_cell_angle_alpha 90.000000
_cell_angle_beta 90.000000
_cell_angle_gamma 90.000000
_cell_volume 1867.271965
_symmetry_space_group_name_H-M "P N M A"
_symmetry_group_IT_number 62
_symmetry_cell_setting 'orthorhombic'
loop_
_space_group_symop_operation_xyz
x,y,z
1/2-x,-y,1/2+z
1/2+x,1/2-y,1/2-z
-x,1/2+y,-z
-x,-y,-z
1/2+x,y,1/2-z
1/2-x,1/2+y,1/2+z
x,1/2-y,z
loop_
_atom_site_type_symbol
_atom_site_label
_atom_site_fract_x
_atom_site_fract_y
_atom_site_fract_z
Si Si1 0.981571 0.416780 0.392360
Si Si2 0.384540 0.661193 0.122700
Si Si3 0.753164 0.956452 0.347822
Si Si4 0.367217 0.340108 0.838419
Si Si5 0.497028 0.835540 0.487664
O O1 0.046849 0.359506 0.469600
O O2 0.000000 0.500000 0.500000
O O3 0.901684 0.385860 0.449324
O O4 0.989710 0.413382 0.128818
O O5 0.357422 0.750000 0.072332
O O6 0.325359 0.593895 0.111114
O O7 0.420393 0.661722 0.369011
O O8 0.690341 0.893271 0.290153
O O9 0.739933 0.998283 0.597758
O O10 0.342096 0.250000 0.887611
O O11 0.439066 0.334038 0.690549
O O12 0.503733 0.750000 0.609505
#
# Coordination Sequence:
#
# PCOD9467054 Si02
#       5
#     8   8   8   8   8
#     4  11  22  36  67 101 134 171 224 285 342 397
#     4  10  23  43  66  96 135 180 227 275 341 414
#     4  12  29  48  69 100 140 178 232 286 341 398
#     4  10  23  43  66  96 135 180 227 275 341 414
#     4   9  20  39  66  97 129 169 222 276 337 409
#
# _framework density 21.421624999999999
#
# number of rings (size 3 to 8) (size 9 to 14) (size 15 to 20)
#    0.000    1.600    0.000    4.800   11.200    1.600 
#    0.000    2.000    0.000    0.000    0.000    0.000 
#    0.000    0.000    0.000    0.000    0.000    0.000 
#
# Total GULP energy -222668.966455 kJ/mol
# GULP energy per Si atom -5566.724161 kJ/mol
# Density = 2.137287 g / cm^3
# Si number density = 21.421625 Si / 1000 Ang^3
#
#
#
# Elastic Constant Matrix: (Units=GPa)
#
#
# Indices 1 2 3 4 5 6 
#
# 1 74.3441 8.6660 -3.3602 0.0000 0.0000 0.0000
# 2 8.6660 88.5364 26.6400 0.0000 0.0000 0.0000
# 3 -3.3602 26.6400 50.1427 0.0000 0.0000 0.0000
# 4 0.0000 0.0000 0.0000 34.1388 0.0000 0.0000
# 5 0.0000 0.0000 0.0000 0.0000 16.8985 0.0000
# 6 0.0000 0.0000 0.0000 0.0000 0.0000 31.1558
#
#
#
# Elastic Compliance Matrix: (Units=1/GPa)
#
#
# Indices 1 2 3 4 5 6 
#
# 1 0.013765 -0.001934 0.001950 0.000000 0.000000 0.000000
# 2 -0.001934 0.013716 -0.007417 0.000000 0.000000 0.000000
# 3 0.001950 -0.007417 0.024014 0.000000 0.000000 0.000000
# 4 0.000000 0.000000 0.000000 0.029292 0.000000 0.000000
# 5 0.000000 0.000000 0.000000 0.000000 0.059177 0.000000
# 6 0.000000 0.000000 0.000000 0.000000 0.000000 0.032097
#
#
# Mechanical properties :
#
#
# Convention : Reuss Voigt Hill
#
# Bulk Modulus (GPa) = 27.25315 30.76831 29.01073
# Shear Modulus (GPa) = 25.11399 28.51045 26.81222
#
# Velocity S-wave (km/s) = 3.42770 3.65213 3.54169
# Velocity P-wave (km/s) = 5.33061 5.67261 5.50426
#
# Compressibility (1/GPa) = 0.03669301
#
# Stress axis : x y z
#
# Youngs Moduli (GPa) = 72.65047 72.90926 41.64232
#
# Poissons Ratio (x) = 0.14101 -0.08120
# Poissons Ratio (y) = 0.14051 0.30884
# Poissons Ratio (z) = -0.14166 0.54073
#
# Static dielectric constant tensor:
#      x y z
#    x 1.747560 0.000000 0.000000 
#    y 0.000000 1.251960 0.000000 
#    z 0.000000 0.000000 1.950430 
# 
# From -- ./inp_files/1546.got.cif
#   From: 2010.05.17/outbox.cif.g08.bks.cpg/sg62_1_cif.got.tgz:1546.got - 2010.06.03 15:25:27.
