data_PCOD9467026
_publ_section_title
;
Structure prediction by ZEFSAII (Michael W. Deem and Ramdas Pophale) SiO2 
 PCOD9467026
Probable space group: P N M A
;
_chemical_formula_sum "Si O2"
_cell_formula_units_Z 64
_cell_length_a 9.095284
_cell_length_b 27.871177
_cell_length_c 10.964176
_cell_angle_alpha 90.000000
_cell_angle_beta 90.000000
_cell_angle_gamma 90.000000
_cell_volume 2779.377722
_symmetry_space_group_name_H-M "P N M A"
_symmetry_group_IT_number 62
_symmetry_cell_setting 'orthorhombic'
loop_
_space_group_symop_operation_xyz
x,y,z
1/2-x,-y,1/2+z
1/2+x,1/2-y,1/2-z
-x,1/2+y,-z
-x,-y,-z
1/2+x,y,1/2-z
1/2-x,1/2+y,1/2+z
x,1/2-y,z
loop_
_atom_site_type_symbol
_atom_site_label
_atom_site_fract_x
_atom_site_fract_y
_atom_site_fract_z
Si Si1 0.253542 0.576218 0.576468
Si Si2 0.013390 0.950535 0.752356
Si Si3 0.699950 0.111506 0.915720
Si Si4 0.075050 0.304521 0.163090
Si Si5 0.213374 0.331117 0.920342
Si Si6 0.272093 0.981900 0.919782
Si Si7 0.249864 0.691881 0.900076
Si Si8 0.955971 0.144335 0.747342
O O1 0.399059 0.576747 0.660083
O O2 0.267738 0.614519 0.469475
O O3 0.238182 0.524280 0.515859
O O4 0.112533 0.582643 0.663958
O O5 0.913415 0.984337 0.667556
O O6 0.128165 0.979389 0.835265
O O7 0.841495 0.114964 0.829232
O O8 0.554986 0.109228 0.834070
O O9 0.715054 0.068514 0.009717
O O10 0.692378 0.162367 0.985544
O O11 0.038553 0.250000 0.196992
O O12 0.157165 0.323377 0.281696
O O13 0.918369 0.324834 0.122260
O O14 0.182849 0.304517 0.046822
O O15 0.356800 0.321762 0.839297
O O16 0.070345 0.328031 0.834514
O O17 0.254653 0.750000 0.916400
#
# Coordination Sequence:
#
# PCOD9467026 Si02
#       8
#     8   8   8   8   8   8   8   8
#     4  11  24  39  60  90 122 165 208 258 311 363
#     4  10  24  39  58  90 120 158 214 262 314 357
#     4  11  23  42  64  89 129 162 213 255 314 363
#     4  10  23  42  67  96 125 159 202 259 318 371
#     4  11  23  42  64  89 129 162 213 255 314 363
#     4  11  24  39  60  90 122 165 208 258 311 363
#     4  10  23  42  67  96 125 159 202 259 318 371
#     4  10  24  41  63  92 119 176 205 248 309 377
#
# _framework density 23.026737000000001
#
# number of rings (size 3 to 8) (size 9 to 14) (size 15 to 20)
#    0.000    1.500    1.250    2.250    5.250    6.000 
#    0.000    3.750    0.000    0.000    0.000    0.000 
#    0.000    0.000    0.000    0.000    0.000    0.000 
#
# Total GULP energy -358192.799553 kJ/mol
# GULP energy per Si atom -5596.762493 kJ/mol
# Density = 2.297433 g / cm^3
# Si number density = 23.026737 Si / 1000 Ang^3
#
#
#
# Elastic Constant Matrix: (Units=GPa)
#
#
# Indices 1 2 3 4 5 6 
#
# 1 131.4613 14.7428 68.8963 0.0000 0.0000 0.0000
# 2 14.7428 69.9842 30.2037 0.0000 0.0000 0.0000
# 3 68.8963 30.2037 134.4301 0.0000 0.0000 0.0000
# 4 0.0000 0.0000 0.0000 16.3593 0.0000 0.0000
# 5 0.0000 0.0000 0.0000 0.0000 50.9590 0.0000
# 6 0.0000 0.0000 0.0000 0.0000 0.0000 5.7799
#
#
#
# Elastic Compliance Matrix: (Units=1/GPa)
#
#
# Indices 1 2 3 4 5 6 
#
# 1 0.010401 0.000121 -0.005358 0.000000 0.000000 0.000000
# 2 0.000121 0.015825 -0.003618 0.000000 0.000000 0.000000
# 3 -0.005358 -0.003618 0.010998 0.000000 0.000000 0.000000
# 4 0.000000 0.000000 0.000000 0.061127 0.000000 0.000000
# 5 0.000000 0.000000 0.000000 0.000000 0.019624 0.000000
# 6 0.000000 0.000000 0.000000 0.000000 0.000000 0.173013
#
#
# Mechanical properties :
#
#
# Convention : Reuss Voigt Hill
#
# Bulk Modulus (GPa) = 51.24296 62.61793 56.93044
# Shear Modulus (GPa) = 15.86291 29.42181 22.64236
#
# Velocity S-wave (km/s) = 2.62752 3.57840 3.13918
# Velocity P-wave (km/s) = 5.61312 6.65777 6.15764
#
# Compressibility (1/GPa) = 0.01951488
#
# Stress axis : x y z
#
# Youngs Moduli (GPa) = 96.14293 63.19235 90.92908
#
# Poissons Ratio (x) = -0.00766 0.48719
# Poissons Ratio (y) = -0.01166 0.32895
# Poissons Ratio (z) = 0.51513 0.22861
#
# Static dielectric constant tensor:
#      x y z
#    x 1.861410 0.000000 0.000000 
#    y 0.000000 1.870230 0.000000 
#    z 0.000000 0.000000 1.841080 
# 
# From -- ./inp_files/11576.got.cif
#   From: 2010.05.17/outbox.cif.g08.bks.cpg/sg62_6_cif.got.tgz:11576.got - 2010.06.03 15:25:27.
