data_PCOD9467353
_publ_section_title
;
Structure prediction by ZEFSAII (Michael W. Deem and Ramdas Pophale) SiO2 
 PCOD9467353
Probable space group: P N M A
;
_chemical_formula_sum "Si O2"
_cell_formula_units_Z 64
_cell_length_a 8.803484
_cell_length_b 30.754148
_cell_length_c 13.798753
_cell_angle_alpha 90.000000
_cell_angle_beta 90.000000
_cell_angle_gamma 90.000000
_cell_volume 3735.924751
_symmetry_space_group_name_H-M "P N M A"
_symmetry_group_IT_number 62
_symmetry_cell_setting 'orthorhombic'
loop_
_space_group_symop_operation_xyz
x,y,z
1/2-x,-y,1/2+z
1/2+x,1/2-y,1/2-z
-x,1/2+y,-z
-x,-y,-z
1/2+x,y,1/2-z
1/2-x,1/2+y,1/2+z
x,1/2-y,z
loop_
_atom_site_type_symbol
_atom_site_label
_atom_site_fract_x
_atom_site_fract_y
_atom_site_fract_z
Si Si1 0.239275 0.472522 0.655793
Si Si2 0.941778 0.700822 0.708319
Si Si3 0.907877 0.608489 0.648360
Si Si4 0.794642 0.112995 0.484456
Si Si5 0.734075 0.201194 0.395150
Si Si6 0.295149 0.466959 0.433822
Si Si7 0.398281 0.558182 0.653189
Si Si8 0.384441 0.050025 0.851628
O O1 0.309458 0.465865 0.549519
O O2 0.267349 0.523496 0.678935
O O3 0.321186 0.447661 0.742900
O O4 0.063351 0.459786 0.650251
O O5 0.888712 0.750000 0.683336
O O6 0.865226 0.659293 0.657093
O O7 0.907829 0.695304 0.822437
O O8 0.117714 0.698362 0.675802
O O9 0.786722 0.577364 0.598364
O O10 0.929398 0.589266 0.756101
O O11 0.062761 0.605607 0.587654
O O12 0.752231 0.163554 0.473927
O O13 0.657257 0.085902 0.437975
O O14 0.841916 0.092443 0.586250
O O15 0.730809 0.250000 0.435334
O O16 0.453568 0.468361 0.377669
O O17 0.194390 0.508597 0.404339
#
# Coordination Sequence:
#
# PCOD9467353 Si02
#       8
#     8   8   8   8   8   8   8   8
#     4  12  25  40  56  76 108 148 188 234 277 318
#     4   9  18  31  51  79 111 141 178 218 262 328
#     4  11  21  36  54  80 113 154 183 218 277 323
#     4  11  22  37  55  80 115 147 186 226 272 330
#     4   9  18  33  55  83 112 144 178 218 273 331
#     4  12  24  37  56  80 113 147 190 227 273 332
#     4  12  23  33  56  83 112 150 186 223 267 333
#     4  12  25  40  57  76 107 147 190 239 277 322
#
# _framework density 17.130966000000001
#
# number of rings (size 3 to 8) (size 9 to 14) (size 15 to 20)
#    0.000    1.000    5.000    3.000    3.500    0.000 
#    0.000    0.000    0.000    0.000    0.000    1.750 
#    0.000    0.000    0.000    0.000    0.000    0.000 
#
# Total GULP energy -357335.277855 kJ/mol
# GULP energy per Si atom -5583.363716 kJ/mol
# Density = 1.709198 g / cm^3
# Si number density = 17.130966 Si / 1000 Ang^3
#
#
#
# Elastic Constant Matrix: (Units=GPa)
#
#
# Indices 1 2 3 4 5 6 
#
# 1 29.7061 21.5243 6.3145 0.0000 0.0000 0.0000
# 2 21.5243 99.1759 27.4604 0.0000 0.0000 0.0000
# 3 6.3145 27.4604 82.1358 0.0000 0.0000 0.0000
# 4 0.0000 0.0000 0.0000 21.0388 0.0000 0.0000
# 5 0.0000 0.0000 0.0000 0.0000 22.0290 0.0000
# 6 0.0000 0.0000 0.0000 0.0000 0.0000 14.6430
#
#
#
# Elastic Compliance Matrix: (Units=1/GPa)
#
#
# Indices 1 2 3 4 5 6 
#
# 1 0.039947 -0.008617 -0.000190 0.000000 0.000000 0.000000
# 2 -0.008617 0.012971 -0.003674 0.000000 0.000000 0.000000
# 3 -0.000190 -0.003674 0.013418 0.000000 0.000000 0.000000
# 4 0.000000 0.000000 0.000000 0.047531 0.000000 0.000000
# 5 0.000000 0.000000 0.000000 0.000000 0.045395 0.000000
# 6 0.000000 0.000000 0.000000 0.000000 0.000000 0.068292
#
#
# Mechanical properties :
#
#
# Convention : Reuss Voigt Hill
#
# Bulk Modulus (GPa) = 24.17021 35.73515 29.95268
# Shear Modulus (GPa) = 18.77526 21.92337 20.34932
#
# Velocity S-wave (km/s) = 3.31416 3.58124 3.45028
# Velocity P-wave (km/s) = 5.36512 6.16487 5.77885
#
# Compressibility (1/GPa) = 0.04137325
#
# Stress axis : x y z
#
# Youngs Moduli (GPa) = 25.03293 77.09763 74.52733
#
# Poissons Ratio (x) = 0.66437 0.01417
# Poissons Ratio (y) = 0.21571 0.27381
# Poissons Ratio (z) = 0.00476 0.28325
#
# Static dielectric constant tensor:
#      x y z
#    x 1.620560 0.000000 0.000000 
#    y 0.000000 1.598890 0.000000 
#    z 0.000000 0.000000 1.572880 
# 
# From -- ./inp_files/17434.got.cif
#   From: 2010.05.17/outbox.cif.g08.bks.cpg/sg62_9_cif.got.tgz:17434.got - 2010.06.03 15:25:27.
