data_PCOD9467646
_publ_section_title
;
Structure prediction by ZEFSAII (Michael W. Deem and Ramdas Pophale) SiO2 
 PCOD9467646
Probable space group: P N M A
;
_chemical_formula_sum "Si O2"
_cell_formula_units_Z 40
_cell_length_a 22.140946
_cell_length_b 16.085477
_cell_length_c 4.972775
_cell_angle_alpha 90.000000
_cell_angle_beta 90.000000
_cell_angle_gamma 90.000000
_cell_volume 1771.042268
_symmetry_space_group_name_H-M "P N M A"
_symmetry_group_IT_number 62
_symmetry_cell_setting 'orthorhombic'
loop_
_space_group_symop_operation_xyz
x,y,z
1/2-x,-y,1/2+z
1/2+x,1/2-y,1/2-z
-x,1/2+y,-z
-x,-y,-z
1/2+x,y,1/2-z
1/2-x,1/2+y,1/2+z
x,1/2-y,z
loop_
_atom_site_type_symbol
_atom_site_label
_atom_site_fract_x
_atom_site_fract_y
_atom_site_fract_z
Si Si1 0.623503 0.928058 0.062035
Si Si2 0.893982 0.750000 0.565949
Si Si3 0.692030 0.403105 0.919779
Si Si4 0.957480 0.078984 0.061454
Si Si5 0.973691 0.750000 0.067392
Si Si6 0.259793 0.346798 0.093118
O O1 0.566019 0.921804 0.866085
O O2 0.671638 0.856230 0.002640
O O3 0.659788 0.011064 0.984355
O O4 0.599956 0.928722 0.364604
O O5 0.855166 0.669406 0.491708
O O6 0.952643 0.750000 0.375446
O O7 0.915032 0.750000 0.873688
O O8 0.716083 0.392205 0.619224
O O9 0.748335 0.387931 0.118643
O O10 0.990249 0.165835 0.997515
O O11 0.000000 0.000000 0.000000
O O12 0.243343 0.250000 0.104565
#
# Coordination Sequence:
#
# PCOD9467646 Si02
#       6
#     8   4   8   8   4   8
#     4  12  26  43  72  94 140 176 220 274 342 393
#     4  12  22  42  67  96 127 178 222 278 332 384
#     4  12  23  44  67 101 133 176 220 272 331 405
#     4  12  26  47  67 101 132 180 232 280 330 394
#     4  12  26  42  69  94 135 172 232 284 336 388
#     4  12  24  42  66 103 138 172 220 270 331 410
#
# _framework density 22.585570000000001
#
# number of rings (size 3 to 8) (size 9 to 14) (size 15 to 20)
#    0.000    0.000    2.000    9.000    2.800    0.000 
#    0.000    0.000    0.000    0.000    0.000    0.000 
#    0.000    0.000    0.000    0.000    0.000    0.000 
#
# Total GULP energy -224284.885689 kJ/mol
# GULP energy per Si atom -5607.122142 kJ/mol
# Density = 2.253416 g / cm^3
# Si number density = 22.585570 Si / 1000 Ang^3
#
#
#
# Elastic Constant Matrix: (Units=GPa)
#
#
# Indices 1 2 3 4 5 6 
#
# 1 59.3233 23.5266 -14.3168 0.0000 0.0000 0.0000
# 2 23.5266 122.1236 -2.6969 0.0000 0.0000 0.0000
# 3 -14.3168 -2.6969 59.3155 0.0000 0.0000 0.0000
# 4 0.0000 0.0000 0.0000 21.3561 0.0000 0.0000
# 5 0.0000 0.0000 0.0000 0.0000 60.9270 0.0000
# 6 0.0000 0.0000 0.0000 0.0000 0.0000 32.3301
#
#
#
# Elastic Compliance Matrix: (Units=1/GPa)
#
#
# Indices 1 2 3 4 5 6 
#
# 1 0.019388 -0.003635 0.004514 0.000000 0.000000 0.000000
# 2 -0.003635 0.008878 -0.000474 0.000000 0.000000 0.000000
# 3 0.004514 -0.000474 0.017927 0.000000 0.000000 0.000000
# 4 0.000000 0.000000 0.000000 0.046825 0.000000 0.000000
# 5 0.000000 0.000000 0.000000 0.000000 0.016413 0.000000
# 6 0.000000 0.000000 0.000000 0.000000 0.000000 0.030931
#
#
# Mechanical properties :
#
#
# Convention : Reuss Voigt Hill
#
# Bulk Modulus (GPa) = 21.27491 28.19871 24.73681
# Shear Modulus (GPa) = 32.21236 38.53926 35.37581
#
# Velocity S-wave (km/s) = 3.78065 4.13530 3.96195
# Velocity P-wave (km/s) = 5.33834 5.94250 5.64851
#
# Compressibility (1/GPa) = 0.04700373
#
# Stress axis : x y z
#
# Youngs Moduli (GPa) = 51.57838 112.63426 55.78163
#
# Poissons Ratio (x) = 0.40946 -0.25182
# Poissons Ratio (y) = 0.18750 0.02643
# Poissons Ratio (z) = -0.23284 0.05336
#
# Static dielectric constant tensor:
#      x y z
#    x 1.826970 0.000000 0.000000 
#    y 0.000000 1.834300 0.000000 
#    z 0.000000 0.000000 1.775730 
# 
# From -- ./inp_files/1579.got.cif
#   From: 2010.05.17/outbox.cif.g08.bks.cpg/sg62_1_cif.got.tgz:1579.got - 2010.06.03 15:25:27.
