data_PCOD9467956
_publ_section_title
;
Structure prediction by ZEFSAII (Michael W. Deem and Ramdas Pophale) SiO2 
 PCOD9467956
Probable space group: P N M A
;
_chemical_formula_sum "Si O2"
_cell_formula_units_Z 48
_cell_length_a 24.000000
_cell_length_b 9.000000
_cell_length_c 12.000000
_cell_angle_alpha 90.000000
_cell_angle_beta 90.000000
_cell_angle_gamma 90.000000
_cell_volume 2592.000000
_symmetry_space_group_name_H-M "P N M A"
_symmetry_group_IT_number 62
_symmetry_cell_setting 'orthorhombic'
loop_
_space_group_symop_operation_xyz
x,y,z
1/2-x,-y,1/2+z
1/2+x,1/2-y,1/2-z
-x,1/2+y,-z
-x,-y,-z
1/2+x,y,1/2-z
1/2-x,1/2+y,1/2+z
x,1/2-y,z
loop_
_atom_site_type_symbol
_atom_site_label
_atom_site_fract_x
_atom_site_fract_y
_atom_site_fract_z
Si Si1 0.967777 0.571399 0.741883
Si Si2 0.299838 0.571864 0.680476
Si Si3 0.418565 0.571732 0.283044
Si Si4 0.171695 0.572920 0.630395
Si Si5 0.595827 0.070637 0.463858
Si Si6 0.364895 0.072422 0.878559
O O1 0.968660 0.750000 0.735606
O O2 0.922177 0.506613 0.657492
O O3 0.028137 0.502479 0.725335
O O4 0.946946 0.525876 0.866503
O O5 0.306205 0.750000 0.698231
O O6 0.236923 0.541514 0.646165
O O7 0.343395 0.528940 0.583276
O O8 0.319082 0.488414 0.791738
O O9 0.423362 0.750000 0.281427
O O10 0.364139 0.518888 0.218151
O O11 0.415980 0.517862 0.411772
O O12 0.163184 0.750000 0.648555
O O13 0.152340 0.538866 0.504855
O O14 0.594105 0.250000 0.468431
O O15 0.370306 0.250000 0.866582
#
# Coordination Sequence:
#
# PCOD9467956 Si02
#       6
#     8   8   8   8   8   8
#     4  10  20  38  61  82 114 152 187 229 286 340
#     4   9  19  38  60  81 112 149 186 228 283 339
#     4  11  22  35  57  87 117 146 190 237 278 331
#     4  10  23  39  56  81 116 154 187 228 283 337
#     4   8  17  34  58  85 111 146 183 230 284 330
#     4  10  21  38  60  84 111 146 191 235 279 331
#
# _framework density 18.518519000000001
#
# number of rings (size 3 to 8) (size 9 to 14) (size 15 to 20)
#    0.000    2.333    0.000    3.000    2.333    2.667 
#    0.000    7.500    0.000    0.000    0.000    0.000 
#    0.000    0.000    0.000    0.000    0.000    0.000 
#
# Total GULP energy -267932.564119 kJ/mol
# GULP energy per Si atom -5581.928419 kJ/mol
# Density = 1.847637 g / cm^3
# Si number density = 18.518519 Si / 1000 Ang^3
#
#
#
# Elastic Constant Matrix: (Units=GPa)
#
#
# Indices 1 2 3 4 5 6 
#
# 1 85.8741 22.7987 -4.6709 0.0000 0.0000 0.0000
# 2 22.7987 31.9638 -1.7773 0.0000 0.0000 0.0000
# 3 -4.6709 -1.7773 -10.4972 0.0000 0.0000 0.0000
# 4 0.0000 0.0000 0.0000 25.9449 0.0000 0.0000
# 5 0.0000 0.0000 0.0000 0.0000 4.6261 0.0000
# 6 0.0000 0.0000 0.0000 0.0000 0.0000 28.6399
#
#
#
# Elastic Compliance Matrix: (Units=1/GPa)
#
#
# Indices 1 2 3 4 5 6 
#
# 1 0.014143 -0.010340 -0.004542 0.000000 0.000000 0.000000
# 2 -0.010340 0.038554 -0.001926 0.000000 0.000000 0.000000
# 3 -0.004542 -0.001926 -0.092916 0.000000 0.000000 0.000000
# 4 0.000000 0.000000 0.000000 0.038543 0.000000 0.000000
# 5 0.000000 0.000000 0.000000 0.000000 0.216167 0.000000
# 6 0.000000 0.000000 0.000000 0.000000 0.000000 0.034916
#
#
# Mechanical properties :
#
#
# Convention : Reuss Voigt Hill
#
# Bulk Modulus (GPa) = -13.54323 15.56020 1.00848
# Shear Modulus (GPa) = 19.34883 17.90818 18.62851
#
# Velocity S-wave (km/s) = 3.23590 3.11310 3.17510
# Velocity P-wave (km/s) = 2.57530 4.61981 3.73997
#
# Compressibility (1/GPa) = -0.07383761
#
# Stress axis : x y z
#
# Youngs Moduli (GPa) = 70.70554 25.93779 -10.76241
#
# Poissons Ratio (x) = 0.26821 -0.04889
# Poissons Ratio (y) = 0.73113 -0.02073
# Poissons Ratio (z) = 0.32117 0.04997
#
# Static dielectric constant tensor:
#      x y z
#    x 1.630740 0.000000 0.000000 
#    y 0.000000 1.615160 0.000000 
#    z 0.000000 0.000000 1.624460 
# 
# From -- ./inp_files/15085.got.cif
#   From: 2010.05.17/outbox.ucp.g08.bks.cvg/sg62_8_cif.got.tgz:15085.got - 2010.06.11 16:29:25.
