data_PCOD9467450
_publ_section_title
;
Structure prediction by ZEFSAII (Michael W. Deem and Ramdas Pophale) SiO2 
 PCOD9467450
Probable space group: P N M A
;
_chemical_formula_sum "Si O2"
_cell_formula_units_Z 48
_cell_length_a 27.589070
_cell_length_b 10.264867
_cell_length_c 8.981990
_cell_angle_alpha 90.000000
_cell_angle_beta 90.000000
_cell_angle_gamma 90.000000
_cell_volume 2543.682809
_symmetry_space_group_name_H-M "P N M A"
_symmetry_group_IT_number 62
_symmetry_cell_setting 'orthorhombic'
loop_
_space_group_symop_operation_xyz
x,y,z
1/2-x,-y,1/2+z
1/2+x,1/2-y,1/2-z
-x,1/2+y,-z
-x,-y,-z
1/2+x,y,1/2-z
1/2-x,1/2+y,1/2+z
x,1/2-y,z
loop_
_atom_site_type_symbol
_atom_site_label
_atom_site_fract_x
_atom_site_fract_y
_atom_site_fract_z
Si Si1 0.195580 0.750000 0.301607
Si Si2 0.189321 0.250000 0.445475
Si Si3 0.468568 0.599727 0.403389
Si Si4 0.193828 0.250000 0.805244
Si Si5 0.864774 0.997807 0.693469
Si Si6 0.803637 0.250000 0.058217
Si Si7 0.029541 0.900521 0.397797
Si Si8 0.138358 0.009717 0.945771
O O1 0.250405 0.750000 0.351336
O O2 0.167604 0.621821 0.349005
O O3 0.196746 0.750000 0.121746
O O4 0.188927 0.250000 0.625776
O O5 0.160165 0.373781 0.382197
O O6 0.246596 0.250000 0.396947
O O7 0.500000 0.500000 0.500000
O O8 0.463463 0.750000 0.462170
O O9 0.497285 0.609927 0.250073
O O10 0.416016 0.533928 0.388783
O O11 0.169198 0.125180 0.876605
O O12 0.864015 0.983810 0.873608
O O13 0.918968 0.033460 0.641819
O O14 0.834703 0.376914 0.100882
O O15 0.036062 0.750000 0.453429
O O16 0.000000 0.000000 0.500000
#
# Coordination Sequence:
#
# PCOD9467450 Si02
#       8
#     4   4   8   4   8   4   8   8
#     4   9  20  41  67  87 123 167 214 261 312 375
#     4  11  25  39  63  95 132 165 207 259 318 377
#     4  11  24  40  65  96 125 161 212 263 308 369
#     4  11  23  41  61  93 129 163 208 267 318 363
#     4  11  22  41  68  92 123 169 213 253 315 381
#     4   9  22  41  63  95 126 165 209 265 314 369
#     4  11  26  44  65  93 130 166 208 258 318 378
#     4  11  22  41  67  93 124 165 215 260 314 371
#
# _framework density 18.870276
#
# number of rings (size 3 to 8) (size 9 to 14) (size 15 to 20)
#    0.000    1.333    3.333    1.500    4.667    0.667 
#    0.000    2.500    0.000    0.000    0.000    0.000 
#    0.000    0.000    0.000    0.000    0.000    0.000 
#
# Total GULP energy -267887.220427 kJ/mol
# GULP energy per Si atom -5580.983759 kJ/mol
# Density = 1.882733 g / cm^3
# Si number density = 18.870276 Si / 1000 Ang^3
#
#
#
# Elastic Constant Matrix: (Units=GPa)
#
#
# Indices 1 2 3 4 5 6 
#
# 1 223.0793 112.1585 41.9498 0.0000 0.0000 0.0000
# 2 112.1585 206.7018 47.0321 0.0000 0.0000 0.0000
# 3 41.9498 47.0321 38.7833 0.0000 0.0000 0.0000
# 4 0.0000 0.0000 0.0000 -44.9388 0.0000 0.0000
# 5 0.0000 0.0000 0.0000 0.0000 29.4077 0.0000
# 6 0.0000 0.0000 0.0000 0.0000 0.0000 40.0208
#
#
#
# Elastic Compliance Matrix: (Units=1/GPa)
#
#
# Indices 1 2 3 4 5 6 
#
# 1 0.006553 -0.002683 -0.003834 0.000000 0.000000 0.000000
# 2 -0.002683 0.007780 -0.006533 0.000000 0.000000 0.000000
# 3 -0.003834 -0.006533 0.037853 0.000000 0.000000 0.000000
# 4 0.000000 0.000000 0.000000 -0.022252 0.000000 0.000000
# 5 0.000000 0.000000 0.000000 0.000000 0.034005 0.000000
# 6 0.000000 0.000000 0.000000 0.000000 0.000000 0.024987
#
#
# Mechanical properties :
#
#
# Convention : Reuss Voigt Hill
#
# Bulk Modulus (GPa) = 38.33368 96.76058 67.54713
# Shear Modulus (GPa) = 40.41365 22.72620 31.56992
#
# Velocity S-wave (km/s) = 4.63282 3.47412 4.09467
# Velocity P-wave (km/s) = 6.99827 8.21467 7.63075
#
# Compressibility (1/GPa) = 0.02608672
#
# Stress axis : x y z
#
# Youngs Moduli (GPa) = 152.60847 128.53010 26.41782
#
# Poissons Ratio (x) = 0.34488 0.10128
# Poissons Ratio (y) = 0.40949 0.17258
# Poissons Ratio (z) = 0.58507 0.83965
#
# Static dielectric constant tensor:
#      x y z
#    x 1.669150 0.000000 0.000000 
#    y 0.000000 1.643430 0.000000 
#    z 0.000000 0.000000 1.638300 
# 
# From -- ./inp_files/10336.got.cif
#   From: 2010.05.17/outbox.cif.g08.bks.cpg/sg62_6_cif.got.tgz:10336.got - 2010.06.03 15:25:27.
