data_PCOD9467149
_publ_section_title
;
Structure prediction by ZEFSAII (Michael W. Deem and Ramdas Pophale) SiO2 
 PCOD9467149
Probable space group: P N M A
;
_chemical_formula_sum "Si O2"
_cell_formula_units_Z 48
_cell_length_a 15.056725
_cell_length_b 8.733812
_cell_length_c 18.977122
_cell_angle_alpha 90.000000
_cell_angle_beta 90.000000
_cell_angle_gamma 90.000000
_cell_volume 2495.540988
_symmetry_space_group_name_H-M "P N M A"
_symmetry_group_IT_number 62
_symmetry_cell_setting 'orthorhombic'
loop_
_space_group_symop_operation_xyz
x,y,z
1/2-x,-y,1/2+z
1/2+x,1/2-y,1/2-z
-x,1/2+y,-z
-x,-y,-z
1/2+x,y,1/2-z
1/2-x,1/2+y,1/2+z
x,1/2-y,z
loop_
_atom_site_type_symbol
_atom_site_label
_atom_site_fract_x
_atom_site_fract_y
_atom_site_fract_z
Si Si1 0.260188 0.065900 0.080690
Si Si2 0.962387 0.066061 0.211905
Si Si3 0.398248 0.432429 0.819751
Si Si4 0.783712 0.932194 0.264321
Si Si5 0.054977 0.065541 0.065097
Si Si6 0.405916 0.932883 0.974816
O O1 0.265821 0.250000 0.077669
O O2 0.158401 0.019235 0.064390
O O3 0.283001 0.010266 0.159265
O O4 0.328660 0.994249 0.025702
O O5 0.960529 0.250000 0.215113
O O6 0.010024 0.019099 0.139080
O O7 0.863960 0.999775 0.218691
O O8 0.019597 0.001446 0.276678
O O9 0.409675 0.250000 0.828026
O O10 0.309693 0.460657 0.774179
O O11 0.389965 0.509461 0.895610
O O12 0.795163 0.750000 0.272457
O O13 0.052522 0.250000 0.061950
O O14 0.000000 0.000000 0.000000
O O15 0.408820 0.750000 0.977234
O O16 0.500000 0.000000 0.000000
#
# Coordination Sequence:
#
# PCOD9467149 Si02
#       6
#     8   8   8   8   8   8
#     4  11  23  44  68  95 131 170 213 264 316 379
#     4  11  23  42  66  95 128 168 212 261 319 380
#     4  11  24  43  66  95 129 166 213 264 316 376
#     4  11  24  41  65  96 127 167 211 261 318 376
#     4  10  24  42  64  93 128 169 214 260 317 378
#     4  12  26  44  67  95 129 169 213 263 321 382
#
# _framework density 19.234306
#
# number of rings (size 3 to 8) (size 9 to 14) (size 15 to 20)
#    0.000    1.000    1.667    4.500    2.333    4.667 
#    0.000    0.000    0.000    0.000    0.000    0.000 
#    0.000    0.000    0.000    0.000    0.000    0.000 
#
# Total GULP energy -268625.620038 kJ/mol
# GULP energy per Si atom -5596.367084 kJ/mol
# Density = 1.919053 g / cm^3
# Si number density = 19.234306 Si / 1000 Ang^3
#
#
#
# Elastic Constant Matrix: (Units=GPa)
#
#
# Indices 1 2 3 4 5 6 
#
# 1 66.3619 14.4673 0.0931 0.0000 0.0000 0.0000
# 2 14.4673 64.4966 21.4976 0.0000 0.0000 0.0000
# 3 0.0931 21.4976 99.0266 0.0000 0.0000 0.0000
# 4 0.0000 0.0000 0.0000 39.7392 0.0000 0.0000
# 5 0.0000 0.0000 0.0000 0.0000 36.8216 0.0000
# 6 0.0000 0.0000 0.0000 0.0000 0.0000 35.3135
#
#
#
# Elastic Compliance Matrix: (Units=1/GPa)
#
#
# Indices 1 2 3 4 5 6 
#
# 1 0.015905 -0.003841 0.000819 0.000000 0.000000 0.000000
# 2 -0.003841 0.017641 -0.003826 0.000000 0.000000 0.000000
# 3 0.000819 -0.003826 0.010928 0.000000 0.000000 0.000000
# 4 0.000000 0.000000 0.000000 0.025164 0.000000 0.000000
# 5 0.000000 0.000000 0.000000 0.000000 0.027158 0.000000
# 6 0.000000 0.000000 0.000000 0.000000 0.000000 0.028318
#
#
# Mechanical properties :
#
#
# Convention : Reuss Voigt Hill
#
# Bulk Modulus (GPa) = 32.48997 33.55569 33.02283
# Shear Modulus (GPa) = 33.54128 35.29665 34.41896
#
# Velocity S-wave (km/s) = 4.18044 4.28844 4.23479
# Velocity P-wave (km/s) = 6.34270 6.48109 6.41227
#
# Compressibility (1/GPa) = 0.03077873
#
# Stress axis : x y z
#
# Youngs Moduli (GPa) = 62.87326 56.68455 91.50683
#
# Poissons Ratio (x) = 0.21770 -0.07492
# Poissons Ratio (y) = 0.24147 0.35012
# Poissons Ratio (z) = -0.05148 0.21688
#
# Static dielectric constant tensor:
#      x y z
#    x 1.649040 0.000000 0.000000 
#    y 0.000000 1.645330 0.000000 
#    z 0.000000 0.000000 1.631960 
# 
# From -- ./inp_files/23769.got.cif
#   From: 2010.05.17/outbox.cif.g08.bks.cpg/sg62_12_cif.got.tgz:23769.got - 2010.06.03 15:25:27.
