data_PCOD9467887
_publ_section_title
;
Structure prediction by ZEFSAII (Michael W. Deem and Ramdas Pophale) SiO2 
 PCOD9467887
Probable space group: P N M A
;
_chemical_formula_sum "Si O2"
_cell_formula_units_Z 48
_cell_length_a 9.000000
_cell_length_b 12.000000
_cell_length_c 24.000000
_cell_angle_alpha 90.000000
_cell_angle_beta 90.000000
_cell_angle_gamma 90.000000
_cell_volume 2592.000000
_symmetry_space_group_name_H-M "P N M A"
_symmetry_group_IT_number 62
_symmetry_cell_setting 'orthorhombic'
loop_
_space_group_symop_operation_xyz
x,y,z
1/2-x,-y,1/2+z
1/2+x,1/2-y,1/2-z
-x,1/2+y,-z
-x,-y,-z
1/2+x,y,1/2-z
1/2-x,1/2+y,1/2+z
x,1/2-y,z
loop_
_atom_site_type_symbol
_atom_site_label
_atom_site_fract_x
_atom_site_fract_y
_atom_site_fract_z
Si Si1 0.330418 0.875211 0.575311
Si Si2 0.013791 0.382303 0.188396
Si Si3 0.197451 0.250000 0.793685
Si Si4 0.147793 0.433727 0.621665
Si Si5 0.091445 0.750000 0.401113
Si Si6 0.597001 0.750000 0.366726
Si Si7 0.383490 0.750000 0.472726
Si Si8 0.706217 0.489277 0.761068
O O1 0.269939 0.750000 0.588917
O O2 0.453517 0.897882 0.622678
O O3 0.396814 0.856152 0.514057
O O4 0.205161 0.968017 0.581941
O O5 0.013024 0.250000 0.199894
O O6 0.147159 0.446130 0.219600
O O7 0.868405 0.441754 0.211492
O O8 0.314463 0.250000 0.844060
O O9 0.223080 0.137838 0.758817
O O10 0.028589 0.250000 0.818496
O O11 0.292112 0.355248 0.633311
O O12 0.107758 0.483777 0.682302
O O13 0.016678 0.357040 0.598548
O O14 0.216847 0.750000 0.448338
O O15 0.501765 0.750000 0.423661
#
# Coordination Sequence:
#
# PCOD9467887 Si02
#       8
#     8   8   4   8   4   4   4   8
#     4   8  18  36  55  77 104 141 180 226 266 314
#     4  10  20  36  56  81 109 146 183 218 263 330
#     4  11  20  34  50  82 116 138 180 217 260 342
#     4  10  20  35  53  81 109 137 177 219 271 334
#     4  10  21  33  53  80 108 138 179 225 269 326
#     4  10  21  35  57  80 106 144 181 219 273 322
#     4   9  20  38  56  78 100 144 182 229 278 296
#     4  11  21  33  57  81 113 150 170 216 280 321
#
# _framework density 18.518519000000001
#
# number of rings (size 3 to 8) (size 9 to 14) (size 15 to 20)
#    0.500    1.667    0.000    4.500    0.000    4.000 
#    0.000    0.000    0.000    8.000    0.000    0.000 
#    0.000    0.000    0.000    0.000    0.000    0.000 
#
# Total GULP energy -267648.776669 kJ/mol
# GULP energy per Si atom -5576.016181 kJ/mol
# Density = 1.847637 g / cm^3
# Si number density = 18.518519 Si / 1000 Ang^3
#
#
#
# Elastic Constant Matrix: (Units=GPa)
#
#
# Indices 1 2 3 4 5 6 
#
# 1 53.3879 9.6033 25.8140 0.0000 0.0000 0.0000
# 2 9.6033 78.5771 14.0984 0.0000 0.0000 0.0000
# 3 25.8140 14.0984 95.8397 0.0000 0.0000 0.0000
# 4 0.0000 0.0000 0.0000 25.2760 0.0000 0.0000
# 5 0.0000 0.0000 0.0000 0.0000 18.5306 0.0000
# 6 0.0000 0.0000 0.0000 0.0000 0.0000 6.1035
#
#
#
# Elastic Compliance Matrix: (Units=1/GPa)
#
#
# Indices 1 2 3 4 5 6 
#
# 1 0.021742 -0.001650 -0.005613 0.000000 0.000000 0.000000
# 2 -0.001650 0.013197 -0.001497 0.000000 0.000000 0.000000
# 3 -0.005613 -0.001497 0.012166 0.000000 0.000000 0.000000
# 4 0.000000 0.000000 0.000000 0.039563 0.000000 0.000000
# 5 0.000000 0.000000 0.000000 0.000000 0.053965 0.000000
# 6 0.000000 0.000000 0.000000 0.000000 0.000000 0.163841
#
#
# Mechanical properties :
#
#
# Convention : Reuss Voigt Hill
#
# Bulk Modulus (GPa) = 33.80183 36.31510 35.05846
# Shear Modulus (GPa) = 15.06683 21.86796 18.46739
#
# Velocity S-wave (km/s) = 2.85548 3.44011 3.16134
# Velocity P-wave (km/s) = 5.40040 5.95246 5.68314
#
# Compressibility (1/GPa) = 0.02958420
#
# Stress axis : x y z
#
# Youngs Moduli (GPa) = 45.99439 75.77724 82.19490
#
# Poissons Ratio (x) = 0.12503 0.46139
# Poissons Ratio (y) = 0.07589 0.12303
# Poissons Ratio (z) = 0.25818 0.11343
#
# Static dielectric constant tensor:
#      x y z
#    x 1.628120 0.000000 0.000000 
#    y 0.000000 1.651820 0.000000 
#    z 0.000000 0.000000 1.669330 
# 
# From -- ./inp_files/28853.got.cif
#   From: 2010.05.17/outbox.ucp.g08.bks.cvg/sg62_15_cif.got.tgz:28853.got - 2010.06.11 16:29:25.
