data_PCOD9467946
_publ_section_title
;
Structure prediction by ZEFSAII (Michael W. Deem and Ramdas Pophale) SiO2 
 PCOD9467946
Probable space group: P N M A
;
_chemical_formula_sum "Si O2"
_cell_formula_units_Z 56
_cell_length_a 21.000000
_cell_length_b 9.000000
_cell_length_c 18.000000
_cell_angle_alpha 90.000000
_cell_angle_beta 90.000000
_cell_angle_gamma 90.000000
_cell_volume 3402.000000
_symmetry_space_group_name_H-M "P N M A"
_symmetry_group_IT_number 62
_symmetry_cell_setting 'orthorhombic'
loop_
_space_group_symop_operation_xyz
x,y,z
1/2-x,-y,1/2+z
1/2+x,1/2-y,1/2-z
-x,1/2+y,-z
-x,-y,-z
1/2+x,y,1/2-z
1/2-x,1/2+y,1/2+z
x,1/2-y,z
loop_
_atom_site_type_symbol
_atom_site_label
_atom_site_fract_x
_atom_site_fract_y
_atom_site_fract_z
Si Si1 0.167839 0.069142 0.028015
Si Si2 0.529268 0.569097 0.192347
Si Si3 0.403679 0.428553 0.383607
Si Si4 0.552416 0.070678 0.352907
Si Si5 0.689823 0.431163 0.929493
Si Si6 0.388127 0.069330 0.207914
Si Si7 0.435019 0.569513 0.963194
O O1 0.174361 0.250000 0.024552
O O2 0.112223 0.036865 0.091298
O O3 0.239195 0.998575 0.047220
O O4 0.137214 0.008175 0.949471
O O5 0.528893 0.750000 0.189734
O O6 0.556092 0.510912 0.272349
O O7 0.456746 0.504582 0.188592
O O8 0.565636 0.500953 0.120208
O O9 0.398479 0.250000 0.394482
O O10 0.480518 0.465472 0.384699
O O11 0.380310 0.459737 0.297743
O O12 0.552542 0.250000 0.340881
O O13 0.695418 0.250000 0.923886
O O14 0.663520 0.500953 0.850702
O O15 0.630561 0.460843 0.988763
O O16 0.390709 0.250000 0.199120
O O17 0.441572 0.750000 0.959791
O O18 0.500000 0.500000 0.000000
#
# Coordination Sequence:
#
# PCOD9467946 Si02
#       7
#     8   8   8   8   8   8   8
#     4  11  23  39  60  87 119 157 198 241 296 354
#     4  11  21  34  58  91 119 148 191 241 293 345
#     4   9  19  37  62  89 117 151 194 242 292 346
#     4   9  20  39  61  87 118 155 196 242 296 349
#     4  11  24  40  59  84 117 157 198 241 295 353
#     4  10  20  37  61  86 116 153 191 237 291 347
#     4  11  22  37  60  86 115 153 195 244 292 345
#
# _framework density 16.460905
#
# number of rings (size 3 to 8) (size 9 to 14) (size 15 to 20)
#    0.000    1.714    1.429    4.286    0.000    5.714 
#    2.571    0.000    0.000    0.000    0.000    0.000 
#    0.000    0.000    0.000    0.000    0.000    0.000 
#
# Total GULP energy -312095.306562 kJ/mol
# GULP energy per Si atom -5573.130474 kJ/mol
# Density = 1.642344 g / cm^3
# Si number density = 16.460905 Si / 1000 Ang^3
#
#
#
# Elastic Constant Matrix: (Units=GPa)
#
#
# Indices 1 2 3 4 5 6 
#
# 1 146.5584 54.4121 81.0893 0.0000 0.0000 0.0000
# 2 54.4121 119.6801 61.7063 0.0000 0.0000 0.0000
# 3 81.0893 61.7063 160.0155 0.0000 0.0000 0.0000
# 4 0.0000 0.0000 0.0000 40.8671 0.0000 0.0000
# 5 0.0000 0.0000 0.0000 0.0000 40.1795 0.0000
# 6 0.0000 0.0000 0.0000 0.0000 0.0000 37.2198
#
#
#
# Elastic Compliance Matrix: (Units=1/GPa)
#
#
# Indices 1 2 3 4 5 6 
#
# 1 0.010012 -0.002416 -0.004142 0.000000 0.000000 0.000000
# 2 -0.002416 0.011012 -0.003022 0.000000 0.000000 0.000000
# 3 -0.004142 -0.003022 0.009514 0.000000 0.000000 0.000000
# 4 0.000000 0.000000 0.000000 0.024470 0.000000 0.000000
# 5 0.000000 0.000000 0.000000 0.000000 0.024888 0.000000
# 6 0.000000 0.000000 0.000000 0.000000 0.000000 0.026867
#
#
# Mechanical properties :
#
#
# Convention : Reuss Voigt Hill
#
# Bulk Modulus (GPa) = 87.89391 91.18549 89.53970
# Shear Modulus (GPa) = 38.54556 38.92304 38.73430
#
# Velocity S-wave (km/s) = 4.84430 4.86796 4.85615
# Velocity P-wave (km/s) = 9.20875 9.33336 9.27126
#
# Compressibility (1/GPa) = 0.01137735
#
# Stress axis : x y z
#
# Youngs Moduli (GPa) = 99.88031 90.80655 105.11132
#
# Poissons Ratio (x) = 0.21943 0.43535
# Poissons Ratio (y) = 0.24135 0.31766
# Poissons Ratio (z) = 0.41369 0.27443
#
# Static dielectric constant tensor:
#      x y z
#    x 1.557480 0.000000 0.000000 
#    y 0.000000 1.561010 0.000000 
#    z 0.000000 0.000000 1.581820 
# 
# From -- ./inp_files/24608.got.cif
#   From: 2010.05.17/outbox.ucp.g08.bks.cvg/sg62_13_cif.got.tgz:24608.got - 2010.06.11 16:29:25.
