data_PCOD9467221
_publ_section_title
;
Structure prediction by ZEFSAII (Michael W. Deem and Ramdas Pophale) SiO2 
 PCOD9467221
Probable space group: P N M A
;
_chemical_formula_sum "Si O2"
_cell_formula_units_Z 36
_cell_length_a 4.929534
_cell_length_b 20.668094
_cell_length_c 13.168092
_cell_angle_alpha 90.000000
_cell_angle_beta 90.000000
_cell_angle_gamma 90.000000
_cell_volume 1341.618835
_symmetry_space_group_name_H-M "P N M A"
_symmetry_group_IT_number 62
_symmetry_cell_setting 'orthorhombic'
loop_
_space_group_symop_operation_xyz
x,y,z
1/2-x,-y,1/2+z
1/2+x,1/2-y,1/2-z
-x,1/2+y,-z
-x,-y,-z
1/2+x,y,1/2-z
1/2-x,1/2+y,1/2+z
x,1/2-y,z
loop_
_atom_site_type_symbol
_atom_site_label
_atom_site_fract_x
_atom_site_fract_y
_atom_site_fract_z
Si Si1 0.221365 0.055959 0.466129
Si Si2 0.102801 0.975489 0.174527
Si Si3 0.465380 0.327436 0.813325
Si Si4 0.111862 0.675795 0.542809
Si Si5 0.027973 0.250000 0.175392
O O1 0.361319 0.071037 0.574793
O O2 0.063608 0.116577 0.417024
O O3 0.456317 0.033163 0.389886
O O4 0.000000 0.000000 0.500000
O O5 0.897174 0.975441 0.271320
O O6 0.249479 0.349037 0.730990
O O7 0.476448 0.250000 0.811697
O O8 0.366482 0.343174 0.925077
O O9 0.988874 0.750000 0.541842
O O10 0.387834 0.689482 0.603841
O O11 0.748599 0.250000 0.233656
#
# Coordination Sequence:
#
# PCOD9467221 Si02
#       5
#     8   8   8   8   4
#     4  11  24  46  74 110 147 195 257 309 374 452
#     4  11  24  47  72 108 145 191 242 310 373 444
#     4   9  18  36  60  92 129 171 217 272 347 420
#     4   9  23  46  69 105 144 193 241 310 362 436
#     4  10  24  48  66 100 136 188 244 298 356 424
#
# _framework density 26.833257
#
# number of rings (size 3 to 8) (size 9 to 14) (size 15 to 20)
#    0.667    1.333    2.222    0.000    0.000    5.333 
#   16.000    0.000    0.000    0.000    0.000    0.000 
#    0.000    0.000    0.000    0.000    0.000    0.000 
#
# Total GULP energy -200840.225764 kJ/mol
# GULP energy per Si atom -5578.895160 kJ/mol
# Density = 2.677218 g / cm^3
# Si number density = 26.833257 Si / 1000 Ang^3
#
#
#
# Elastic Constant Matrix: (Units=GPa)
#
#
# Indices 1 2 3 4 5 6 
#
# 1 211.1112 42.7515 117.1949 0.0000 0.0000 0.0000
# 2 42.7515 97.2056 6.8186 0.0000 0.0000 0.0000
# 3 117.1949 6.8186 294.2655 0.0000 0.0000 0.0000
# 4 0.0000 0.0000 0.0000 40.6104 0.0000 0.0000
# 5 0.0000 0.0000 0.0000 0.0000 29.9730 0.0000
# 6 0.0000 0.0000 0.0000 0.0000 0.0000 25.5085
#
#
#
# Elastic Compliance Matrix: (Units=1/GPa)
#
#
# Indices 1 2 3 4 5 6 
#
# 1 0.006760 -0.002789 -0.002628 0.000000 0.000000 0.000000
# 2 -0.002789 0.011455 0.000845 0.000000 0.000000 0.000000
# 3 -0.002628 0.000845 0.004425 0.000000 0.000000 0.000000
# 4 0.000000 0.000000 0.000000 0.024624 0.000000 0.000000
# 5 0.000000 0.000000 0.000000 0.000000 0.033363 0.000000
# 6 0.000000 0.000000 0.000000 0.000000 0.000000 0.039203
#
#
# Mechanical properties :
#
#
# Convention : Reuss Voigt Hill
#
# Bulk Modulus (GPa) = 74.08732 104.01247 89.04989
# Shear Modulus (GPa) = 37.46087 48.27286 42.86686
#
# Velocity S-wave (km/s) = 3.74044 4.24606 4.00124
# Velocity P-wave (km/s) = 6.80623 7.93003 7.38952
#
# Compressibility (1/GPa) = 0.01349759
#
# Stress axis : x y z
#
# Youngs Moduli (GPa) = 147.92056 87.29990 225.97581
#
# Poissons Ratio (x) = 0.24347 0.59382
# Poissons Ratio (y) = 0.41254 -0.19102
# Poissons Ratio (z) = 0.38870 -0.07379
#
# Static dielectric constant tensor:
#      x y z
#    x 2.127100 0.000000 0.000000 
#    y 0.000000 2.311520 0.000000 
#    z 0.000000 0.000000 2.085470 
# 
# From -- ./inp_files/10679.got.cif
#   From: 2010.05.17/outbox.cif.g08.bks.cpg/sg62_6_cif.got.tgz:10679.got - 2010.06.03 15:25:27.
