data_PCOD9467201
_publ_section_title
;
Structure prediction by ZEFSAII (Michael W. Deem and Ramdas Pophale) SiO2 
 PCOD9467201
Probable space group: P N M A
;
_chemical_formula_sum "Si O2"
_cell_formula_units_Z 40
_cell_length_a 19.287216
_cell_length_b 9.230871
_cell_length_c 10.860637
_cell_angle_alpha 90.000000
_cell_angle_beta 90.000000
_cell_angle_gamma 90.000000
_cell_volume 1933.603949
_symmetry_space_group_name_H-M "P N M A"
_symmetry_group_IT_number 62
_symmetry_cell_setting 'orthorhombic'
loop_
_space_group_symop_operation_xyz
x,y,z
1/2-x,-y,1/2+z
1/2+x,1/2-y,1/2-z
-x,1/2+y,-z
-x,-y,-z
1/2+x,y,1/2-z
1/2-x,1/2+y,1/2+z
x,1/2-y,z
loop_
_atom_site_type_symbol
_atom_site_label
_atom_site_fract_x
_atom_site_fract_y
_atom_site_fract_z
Si Si1 0.417673 0.081447 0.740574
Si Si2 0.724583 0.580546 0.138494
Si Si3 0.794629 0.076433 0.367657
Si Si4 0.576660 0.078317 0.777689
Si Si5 0.425777 0.578690 0.502442
O O1 0.424392 0.250000 0.702094
O O2 0.358667 0.072790 0.842718
O O3 0.495170 0.036547 0.781437
O O4 0.392193 0.990676 0.622692
O O5 0.744847 0.750000 0.152929
O O6 0.757184 0.489526 0.248669
O O7 0.739320 0.534165 0.998684
O O8 0.794796 0.250000 0.362631
O O9 0.872713 0.014471 0.361248
O O10 0.581710 0.250000 0.805015
O O11 0.601874 0.056883 0.635532
O O12 0.500000 0.500000 0.500000
O O13 0.432746 0.750000 0.520077
#
# Coordination Sequence:
#
# PCOD9467201 Si02
#       5
#     8   8   8   8   8
#     4   9  19  37  61  88 120 160 201 248 307 362
#     4  10  24  45  64  88 125 162 203 257 308 364
#     4  11  25  42  63  91 122 162 208 252 307 370
#     4   9  19  36  59  88 123 159 198 250 306 360
#     4   9  17  30  52  85 122 157 195 241 293 353
#
# _framework density 20.686758999999999
#
# number of rings (size 3 to 8) (size 9 to 14) (size 15 to 20)
#    0.000    2.400    0.000    2.400    2.800    7.200 
#    0.000    0.000    0.000    0.000    0.000    0.000 
#    0.000    0.000    0.000    0.000    0.000    0.000 
#
# Total GULP energy -223234.106173 kJ/mol
# GULP energy per Si atom -5580.852654 kJ/mol
# Density = 2.063968 g / cm^3
# Si number density = 20.686759 Si / 1000 Ang^3
#
#
#
# Elastic Constant Matrix: (Units=GPa)
#
#
# Indices 1 2 3 4 5 6 
#
# 1 87.6903 20.4344 38.6818 0.0000 0.0000 0.0000
# 2 20.4344 49.3604 54.1037 0.0000 0.0000 0.0000
# 3 38.6818 54.1037 115.4133 0.0000 0.0000 0.0000
# 4 0.0000 0.0000 0.0000 28.4783 0.0000 0.0000
# 5 0.0000 0.0000 0.0000 0.0000 31.9389 0.0000
# 6 0.0000 0.0000 0.0000 0.0000 0.0000 26.0186
#
#
#
# Elastic Compliance Matrix: (Units=1/GPa)
#
#
# Indices 1 2 3 4 5 6 
#
# 1 0.013422 -0.001287 -0.003895 0.000000 0.000000 0.000000
# 2 -0.001287 0.041794 -0.019161 0.000000 0.000000 0.000000
# 3 -0.003895 -0.019161 0.018952 0.000000 0.000000 0.000000
# 4 0.000000 0.000000 0.000000 0.035114 0.000000 0.000000
# 5 0.000000 0.000000 0.000000 0.000000 0.031310 0.000000
# 6 0.000000 0.000000 0.000000 0.000000 0.000000 0.038434
#
#
# Mechanical properties :
#
#
# Convention : Reuss Voigt Hill
#
# Bulk Modulus (GPa) = 39.24315 53.21154 46.22734
# Shear Modulus (GPa) = 21.16782 26.57009 23.86896
#
# Velocity S-wave (km/s) = 3.20231 3.58774 3.40049
# Velocity P-wave (km/s) = 5.71702 6.55293 6.14920
#
# Compressibility (1/GPa) = 0.02548216
#
# Stress axis : x y z
#
# Youngs Moduli (GPa) = 74.50510 23.92667 52.76380
#
# Poissons Ratio (x) = 0.03079 0.20552
# Poissons Ratio (y) = 0.09589 1.01101
# Poissons Ratio (z) = 0.29021 0.45846
#
# Static dielectric constant tensor:
#      x y z
#    x 1.796900 0.000000 0.000000 
#    y 0.000000 1.683550 0.000000 
#    z 0.000000 0.000000 1.761790 
# 
# From -- ./inp_files/14605.got.cif
#   From: 2010.05.17/outbox.cif.g08.bks.cpg/sg62_8_cif.got.tgz:14605.got - 2010.06.03 15:25:27.
