data_PCOD9467276
_publ_section_title
;
Structure prediction by ZEFSAII (Michael W. Deem and Ramdas Pophale) SiO2 
 PCOD9467276
Probable space group: P N M A
;
_chemical_formula_sum "Si O2"
_cell_formula_units_Z 64
_cell_length_a 15.305825
_cell_length_b 21.043682
_cell_length_c 8.955726
_cell_angle_alpha 90.000000
_cell_angle_beta 90.000000
_cell_angle_gamma 90.000000
_cell_volume 2884.557973
_symmetry_space_group_name_H-M "P N M A"
_symmetry_group_IT_number 62
_symmetry_cell_setting 'orthorhombic'
loop_
_space_group_symop_operation_xyz
x,y,z
1/2-x,-y,1/2+z
1/2+x,1/2-y,1/2-z
-x,1/2+y,-z
-x,-y,-z
1/2+x,y,1/2-z
1/2-x,1/2+y,1/2+z
x,1/2-y,z
loop_
_atom_site_type_symbol
_atom_site_label
_atom_site_fract_x
_atom_site_fract_y
_atom_site_fract_z
Si Si1 0.339772 0.678299 0.033542
Si Si2 0.479634 0.178977 0.139720
Si Si3 0.985660 0.460924 0.351527
Si Si4 0.255045 0.440525 0.015777
Si Si5 0.776247 0.819824 0.129021
Si Si6 0.038800 0.181972 0.013558
Si Si7 0.443528 0.548648 0.405985
Si Si8 0.185623 0.439376 0.338241
O O1 0.308698 0.750000 0.000477
O O2 0.441440 0.676931 0.982153
O O3 0.297292 0.624351 0.932032
O O4 0.319737 0.666382 0.208412
O O5 0.437277 0.250000 0.121881
O O6 0.439012 0.107733 0.130290
O O7 0.515628 0.179533 0.311533
O O8 0.083258 0.442999 0.292001
O O9 0.000000 0.500000 0.500000
O O10 0.940117 0.513588 0.250734
O O11 0.283485 0.375964 0.931623
O O12 0.154181 0.447169 0.964303
O O13 0.301454 0.501017 0.946391
O O14 0.247074 0.440544 0.193887
O O15 0.735175 0.750000 0.138478
O O16 0.856748 0.815910 0.012008
O O17 0.004521 0.250000 0.954098
O O18 0.012832 0.118225 0.925297
O O19 0.500000 0.500000 0.500000
#
# Coordination Sequence:
#
# PCOD9467276 Si02
#       8
#     8   8   8   8   8   8   8   8
#     4   9  17  30  51  77 108 140 180 227 270 320
#     4   9  17  31  49  75 108 142 183 228 270 322
#     4  11  23  35  56  85 113 147 185 229 277 331
#     4  11  23  36  58  82 113 147 183 231 277 331
#     4   9  17  30  51  79 107 140 180 225 271 320
#     4   9  17  29  50  77 106 142 185 227 271 322
#     4  11  19  37  56  81 112 145 183 227 276 327
#     4  11  23  38  55  85 111 146 187 226 281 328
#
# _framework density 22.187107999999998
#
# number of rings (size 3 to 8) (size 9 to 14) (size 15 to 20)
#    0.000    2.000    2.500    3.000    8.750    1.500 
#    0.000    0.000    0.000    3.000    0.000    0.000 
#    0.000    0.000    0.000    0.000    0.000    0.000 
#
# Total GULP energy -356773.746611 kJ/mol
# GULP energy per Si atom -5574.589791 kJ/mol
# Density = 2.213661 g / cm^3
# Si number density = 22.187108 Si / 1000 Ang^3
#
#
#
# Elastic Constant Matrix: (Units=GPa)
#
#
# Indices 1 2 3 4 5 6 
#
# 1 32.8954 17.3333 18.9584 0.0000 0.0000 0.0000
# 2 17.3333 205.5986 38.7081 0.0000 0.0000 0.0000
# 3 18.9584 38.7081 89.8438 0.0000 0.0000 0.0000
# 4 0.0000 0.0000 0.0000 37.3555 0.0000 0.0000
# 5 0.0000 0.0000 0.0000 0.0000 23.9805 0.0000
# 6 0.0000 0.0000 0.0000 0.0000 0.0000 16.1702
#
#
#
# Elastic Compliance Matrix: (Units=1/GPa)
#
#
# Indices 1 2 3 4 5 6 
#
# 1 0.035149 -0.001705 -0.006682 0.000000 0.000000 0.000000
# 2 -0.001705 0.005376 -0.001956 0.000000 0.000000 0.000000
# 3 -0.006682 -0.001956 0.013383 0.000000 0.000000 0.000000
# 4 0.000000 0.000000 0.000000 0.026770 0.000000 0.000000
# 5 0.000000 0.000000 0.000000 0.000000 0.041700 0.000000
# 6 0.000000 0.000000 0.000000 0.000000 0.000000 0.061842
#
#
# Mechanical properties :
#
#
# Convention : Reuss Voigt Hill
#
# Bulk Modulus (GPa) = 30.10173 53.14859 41.62516
# Shear Modulus (GPa) = 23.15006 32.39044 27.77025
#
# Velocity S-wave (km/s) = 3.23368 3.82498 3.54169
# Velocity P-wave (km/s) = 5.24775 6.59651 5.96041
#
# Compressibility (1/GPa) = 0.03322068
#
# Stress axis : x y z
#
# Youngs Moduli (GPa) = 28.45023 186.01450 74.71966
#
# Poissons Ratio (x) = 0.31720 0.49930
# Poissons Ratio (y) = 0.04851 0.14618
# Poissons Ratio (z) = 0.19011 0.36391
#
# Static dielectric constant tensor:
#      x y z
#    x 1.864560 0.000000 0.000000 
#    y 0.000000 2.160420 0.000000 
#    z 0.000000 0.000000 8.596020 
# 
# From -- ./inp_files/8984.got.cif
#   From: 2010.05.17/outbox.cif.g08.bks.cpg/sg62_5_cif.got.tgz:8984.got - 2010.06.03 15:25:27.
