data_PCOD9467358
_publ_section_title
;
Structure prediction by ZEFSAII (Michael W. Deem and Ramdas Pophale) SiO2 
 PCOD9467358
Probable space group: P N M A
;
_chemical_formula_sum "Si O2"
_cell_formula_units_Z 56
_cell_length_a 19.920205
_cell_length_b 8.023006
_cell_length_c 14.199698
_cell_angle_alpha 90.000000
_cell_angle_beta 90.000000
_cell_angle_gamma 90.000000
_cell_volume 2269.394659
_symmetry_space_group_name_H-M "P N M A"
_symmetry_group_IT_number 62
_symmetry_cell_setting 'orthorhombic'
loop_
_space_group_symop_operation_xyz
x,y,z
1/2-x,-y,1/2+z
1/2+x,1/2-y,1/2-z
-x,1/2+y,-z
-x,-y,-z
1/2+x,y,1/2-z
1/2-x,1/2+y,1/2+z
x,1/2-y,z
loop_
_atom_site_type_symbol
_atom_site_label
_atom_site_fract_x
_atom_site_fract_y
_atom_site_fract_z
Si Si1 0.360809 0.450762 0.781483
Si Si2 0.858833 0.049663 0.940458
Si Si3 0.214126 0.047921 0.784713
Si Si4 0.287860 0.546361 0.062073
Si Si5 0.070862 0.438139 0.537037
Si Si6 0.993440 0.061130 0.291713
Si Si7 0.923206 0.947281 0.118855
O O1 0.363931 0.250000 0.790650
O O2 0.363123 0.491256 0.669650
O O3 0.288139 0.510933 0.817711
O O4 0.429903 0.523917 0.819750
O O5 0.860144 0.250000 0.946493
O O6 0.784701 0.987840 0.973240
O O7 0.916046 0.982866 0.008674
O O8 0.214774 0.250000 0.791883
O O9 0.210099 0.007775 0.673721
O O10 0.147825 0.988244 0.837642
O O11 0.288130 0.750000 0.055561
O O12 0.357111 0.478393 0.018424
O O13 0.077132 0.250000 0.505966
O O14 0.057421 0.446574 0.649620
O O15 0.000000 0.500000 0.500000
O O16 0.976669 0.250000 0.315648
O O17 0.980685 0.029649 0.181659
O O18 0.929141 0.750000 0.132628
#
# Coordination Sequence:
#
# PCOD9467358 Si02
#       7
#     8   8   8   8   8   8   8
#     4   9  19  38  62  84 114 155 197 244 299 354
#     4   9  19  36  59  87 115 148 193 243 297 350
#     4   8  15  32  59  84 104 143 196 241 292 351
#     4   8  15  33  59  81 109 146 185 233 288 344
#     4  11  22  39  62  88 121 157 196 240 295 353
#     4  12  25  40  58  85 120 158 201 245 294 352
#     4  11  21  36  60  87 117 154 198 243 296 355
#
# _framework density 24.676185
#
# number of rings (size 3 to 8) (size 9 to 14) (size 15 to 20)
#    0.000    2.286    1.429    3.857    0.000    2.286 
#    0.000    5.714    0.000    0.000    0.000    0.000 
#    0.000    0.000    0.000    0.000    0.000    0.000 
#
# Total GULP energy -312996.983818 kJ/mol
# GULP energy per Si atom -5589.231854 kJ/mol
# Density = 2.462002 g / cm^3
# Si number density = 24.676185 Si / 1000 Ang^3
#
#
#
# Elastic Constant Matrix: (Units=GPa)
#
#
# Indices 1 2 3 4 5 6 
#
# 1 136.7764 12.1410 8.9976 0.0000 0.0000 0.0000
# 2 12.1410 21.0349 1.9322 0.0000 0.0000 0.0000
# 3 8.9976 1.9322 51.7656 0.0000 0.0000 0.0000
# 4 0.0000 0.0000 0.0000 20.0668 0.0000 0.0000
# 5 0.0000 0.0000 0.0000 0.0000 43.3188 0.0000
# 6 0.0000 0.0000 0.0000 0.0000 0.0000 18.1263
#
#
#
# Elastic Compliance Matrix: (Units=1/GPa)
#
#
# Indices 1 2 3 4 5 6 
#
# 1 0.007778 -0.004380 -0.001188 0.000000 0.000000 0.000000
# 2 -0.004380 0.050170 -0.001111 0.000000 0.000000 0.000000
# 3 -0.001188 -0.001111 0.019566 0.000000 0.000000 0.000000
# 4 0.000000 0.000000 0.000000 0.049834 0.000000 0.000000
# 5 0.000000 0.000000 0.000000 0.000000 0.023085 0.000000
# 6 0.000000 0.000000 0.000000 0.000000 0.000000 0.055168
#
#
# Mechanical properties :
#
#
# Convention : Reuss Voigt Hill
#
# Bulk Modulus (GPa) = 15.58741 28.41315 22.00028
# Shear Modulus (GPa) = 20.80337 28.73613 24.76975
#
# Velocity S-wave (km/s) = 2.90669 3.41622 3.17170
# Velocity P-wave (km/s) = 4.19471 5.20578 4.72736
#
# Compressibility (1/GPa) = 0.06415435
#
# Stress axis : x y z
#
# Youngs Moduli (GPa) = 128.56451 19.93212 51.10935
#
# Poissons Ratio (x) = 0.08731 0.06074
# Poissons Ratio (y) = 0.56315 0.05680
# Poissons Ratio (z) = 0.15279 0.02215
#
# Static dielectric constant tensor:
#      x y z
#    x 1.988420 0.000000 0.000000 
#    y 0.000000 1.865150 0.000000 
#    z 0.000000 0.000000 2.047800 
# 
# From -- ./inp_files/20416.got.cif
#   From: 2010.05.17/outbox.cif.g08.bks.cpg/sg62_11_cif.got.tgz:20416.got - 2010.06.03 15:25:27.
