data_PCOD9467522
_publ_section_title
;
Structure prediction by ZEFSAII (Michael W. Deem and Ramdas Pophale) SiO2 
 PCOD9467522
Probable space group: P N M A
;
_chemical_formula_sum "Si O2"
_cell_formula_units_Z 40
_cell_length_a 8.189800
_cell_length_b 10.858197
_cell_length_c 18.549890
_cell_angle_alpha 90.000000
_cell_angle_beta 90.000000
_cell_angle_gamma 90.000000
_cell_volume 1649.576084
_symmetry_space_group_name_H-M "P N M A"
_symmetry_group_IT_number 62
_symmetry_cell_setting 'orthorhombic'
loop_
_space_group_symop_operation_xyz
x,y,z
1/2-x,-y,1/2+z
1/2+x,1/2-y,1/2-z
-x,1/2+y,-z
-x,-y,-z
1/2+x,y,1/2-z
1/2-x,1/2+y,1/2+z
x,1/2-y,z
loop_
_atom_site_type_symbol
_atom_site_label
_atom_site_fract_x
_atom_site_fract_y
_atom_site_fract_z
Si Si1 0.061423 0.250000 0.323781
Si Si2 0.562774 0.513020 0.399674
Si Si3 0.251202 0.389276 0.733015
Si Si4 0.051586 0.750000 0.841686
Si Si5 0.052436 0.983865 0.354239
Si Si6 0.252451 0.607385 0.484637
O O1 0.254145 0.250000 0.336756
O O2 0.021596 0.250000 0.238967
O O3 0.995798 0.124734 0.357886
O O4 0.613923 0.582051 0.327559
O O5 0.503993 0.374598 0.381235
O O6 0.423207 0.587677 0.441096
O O7 0.720135 0.488978 0.450519
O O8 0.259810 0.250000 0.759529
O O9 0.289533 0.477236 0.800348
O O10 0.083593 0.411305 0.690570
O O11 0.109632 0.929658 0.429655
O O12 0.235975 0.750000 0.505631
#
# Coordination Sequence:
#
# PCOD9467522 Si02
#       6
#     4   8   8   4   8   8
#     4  12  24  42  68  98 134 165 221 280 320 400
#     4  11  24  41  69  96 133 174 222 270 335 392
#     4  12  25  44  67  97 132 171 220 275 324 400
#     4  12  22  44  66 102 132 171 225 272 336 398
#     4  12  25  43  68  96 130 174 220 271 338 384
#     4  11  23  43  67  96 132 177 220 274 327 401
#
# _framework density 24.248653999999998
#
# number of rings (size 3 to 8) (size 9 to 14) (size 15 to 20)
#    0.000    0.400    5.000    4.800    0.000    0.800 
#    1.800    0.000    0.000    0.000    0.000    0.000 
#    0.000    0.000    0.000    0.000    0.000    0.000 
#
# Total GULP energy -224233.966493 kJ/mol
# GULP energy per Si atom -5605.849162 kJ/mol
# Density = 2.419346 g / cm^3
# Si number density = 24.248654 Si / 1000 Ang^3
#
#
#
# Elastic Constant Matrix: (Units=GPa)
#
#
# Indices 1 2 3 4 5 6 
#
# 1 61.8356 -3.4606 10.1454 0.0000 0.0000 0.0000
# 2 -3.4606 124.9805 1.7791 0.0000 0.0000 0.0000
# 3 10.1454 1.7791 57.9303 0.0000 0.0000 0.0000
# 4 0.0000 0.0000 0.0000 41.6587 0.0000 0.0000
# 5 0.0000 0.0000 0.0000 0.0000 47.6703 0.0000
# 6 0.0000 0.0000 0.0000 0.0000 0.0000 31.4060
#
#
#
# Elastic Compliance Matrix: (Units=1/GPa)
#
#
# Indices 1 2 3 4 5 6 
#
# 1 0.016682 0.000504 -0.002937 0.000000 0.000000 0.000000
# 2 0.000504 0.008020 -0.000335 0.000000 0.000000 0.000000
# 3 -0.002937 -0.000335 0.017787 0.000000 0.000000 0.000000
# 4 0.000000 0.000000 0.000000 0.024005 0.000000 0.000000
# 5 0.000000 0.000000 0.000000 0.000000 0.020977 0.000000
# 6 0.000000 0.000000 0.000000 0.000000 0.000000 0.031841
#
#
# Mechanical properties :
#
#
# Convention : Reuss Voigt Hill
#
# Bulk Modulus (GPa) = 27.06134 29.07491 28.06812
# Shear Modulus (GPa) = 36.45245 39.89917 38.17581
#
# Velocity S-wave (km/s) = 3.88142 4.06078 3.97211
# Velocity P-wave (km/s) = 5.59208 5.83120 5.71289
#
# Compressibility (1/GPa) = 0.03695309
#
# Stress axis : x y z
#
# Youngs Moduli (GPa) = 59.94494 124.68893 56.22164
#
# Poissons Ratio (x) = -0.06281 0.16512
# Poissons Ratio (y) = -0.03020 0.01881
# Poissons Ratio (z) = 0.17606 0.04171
#
# Static dielectric constant tensor:
#      x y z
#    x 1.995430 0.000000 0.000000 
#    y 0.000000 1.837580 0.000000 
#    z 0.000000 0.000000 1.905190 
# 
# From -- ./inp_files/21922.got.cif
#   From: 2010.05.17/outbox.cif.g08.bks.cpg/sg62_11_cif.got.tgz:21922.got - 2010.06.03 15:25:27.
