data_PCOD9467139
_publ_section_title
;
Structure prediction by ZEFSAII (Michael W. Deem and Ramdas Pophale) SiO2 
 PCOD9467139
Probable space group: P N M A
;
_chemical_formula_sum "Si O2"
_cell_formula_units_Z 64
_cell_length_a 14.617696
_cell_length_b 8.976758
_cell_length_c 25.420015
_cell_angle_alpha 90.000000
_cell_angle_beta 90.000000
_cell_angle_gamma 90.000000
_cell_volume 3335.602154
_symmetry_space_group_name_H-M "P N M A"
_symmetry_group_IT_number 62
_symmetry_cell_setting 'orthorhombic'
loop_
_space_group_symop_operation_xyz
x,y,z
1/2-x,-y,1/2+z
1/2+x,1/2-y,1/2-z
-x,1/2+y,-z
-x,-y,-z
1/2+x,y,1/2-z
1/2-x,1/2+y,1/2+z
x,1/2-y,z
loop_
_atom_site_type_symbol
_atom_site_label
_atom_site_fract_x
_atom_site_fract_y
_atom_site_fract_z
Si Si1 0.717135 0.928572 0.051476
Si Si2 0.042491 0.426613 0.395695
Si Si3 0.456151 0.078333 0.788094
Si Si4 0.137049 0.926606 0.877021
Si Si5 0.247348 0.570658 0.161959
Si Si6 0.349066 0.071340 0.063757
Si Si7 0.765252 0.577131 0.220658
Si Si8 0.534229 0.570874 0.330956
O O1 0.722082 0.750000 0.055042
O O2 0.632276 0.985879 0.086380
O O3 0.808485 0.000054 0.074806
O O4 0.695339 0.973199 0.991554
O O5 0.059620 0.250000 0.397781
O O6 0.016890 0.475541 0.336536
O O7 0.956667 0.465172 0.432718
O O8 0.483959 0.250000 0.798327
O O9 0.345163 0.076134 0.784425
O O10 0.489595 0.034446 0.730018
O O11 0.137246 0.750000 0.881613
O O12 0.190951 0.978205 0.824434
O O13 0.035523 0.990356 0.869375
O O14 0.252095 0.750000 0.160076
O O15 0.299949 0.501754 0.113345
O O16 0.285496 0.528052 0.219604
O O17 0.139909 0.529548 0.159972
O O18 0.341924 0.250000 0.068184
O O19 0.794836 0.750000 0.213555
O O20 0.526975 0.750000 0.335817
#
# Coordination Sequence:
#
# PCOD9467139 Si02
#       8
#     8   8   8   8   8   8   8   8
#     4  11  23  42  62  81 114 160 203 242 291 353
#     4  11  22  36  56  88 123 152 191 243 295 347
#     4   9  18  34  57  83 115 157 195 227 277 345
#     4  12  24  36  57  90 119 152 196 247 301 344
#     4   9  20  39  63  88 114 152 200 242 285 344
#     4  10  24  41  59  85 118 155 194 245 303 350
#     4   9  18  35  57  83 116 154 192 232 283 348
#     4   9  20  39  60  85 119 157 198 239 284 352
#
# _framework density 19.18694
#
# number of rings (size 3 to 8) (size 9 to 14) (size 15 to 20)
#    0.000    2.000    1.250    3.750    1.750    3.500 
#    0.000    3.125    0.000    0.000    0.000    0.000 
#    0.000    0.000    0.000    0.000    0.000    0.000 
#
# Total GULP energy -357633.968505 kJ/mol
# GULP energy per Si atom -5588.030758 kJ/mol
# Density = 1.914327 g / cm^3
# Si number density = 19.186940 Si / 1000 Ang^3
#
#
#
# Elastic Constant Matrix: (Units=GPa)
#
#
# Indices 1 2 3 4 5 6 
#
# 1 34.7069 6.8356 1.3019 0.0000 0.0000 0.0000
# 2 6.8356 34.9362 13.5860 0.0000 0.0000 0.0000
# 3 1.3019 13.5860 64.8278 0.0000 0.0000 0.0000
# 4 0.0000 0.0000 0.0000 26.9369 0.0000 0.0000
# 5 0.0000 0.0000 0.0000 0.0000 32.1300 0.0000
# 6 0.0000 0.0000 0.0000 0.0000 0.0000 22.7663
#
#
#
# Elastic Compliance Matrix: (Units=1/GPa)
#
#
# Indices 1 2 3 4 5 6 
#
# 1 0.029995 -0.006135 0.000683 0.000000 0.000000 0.000000
# 2 -0.006135 0.032418 -0.006671 0.000000 0.000000 0.000000
# 3 0.000683 -0.006671 0.016810 0.000000 0.000000 0.000000
# 4 0.000000 0.000000 0.000000 0.037124 0.000000 0.000000
# 5 0.000000 0.000000 0.000000 0.000000 0.031124 0.000000
# 6 0.000000 0.000000 0.000000 0.000000 0.000000 0.043925
#
#
# Mechanical properties :
#
#
# Convention : Reuss Voigt Hill
#
# Bulk Modulus (GPa) = 18.18874 19.76865 18.97869
# Shear Modulus (GPa) = 21.37067 23.88313 22.62690
#
# Velocity S-wave (km/s) = 3.34101 3.53194 3.43780
# Velocity P-wave (km/s) = 4.93796 5.19215 5.06665
#
# Compressibility (1/GPa) = 0.05497908
#
# Stress axis : x y z
#
# Youngs Moduli (GPa) = 33.33851 30.84702 59.48933
#
# Poissons Ratio (x) = 0.18923 -0.04065
# Poissons Ratio (y) = 0.20452 0.39683
# Poissons Ratio (z) = -0.02278 0.20577
#
# Static dielectric constant tensor:
#      x y z
#    x 1.687260 0.000000 0.000000 
#    y 0.000000 1.633410 0.000000 
#    z 0.000000 0.000000 1.660900 
# 
# From -- ./inp_files/29742.got.cif
#   From: 2010.05.17/outbox.cif.g08.bks.cpg/sg62_15_cif.got.tgz:29742.got - 2010.06.03 15:25:27.
