data_PCOD9467349
_publ_section_title
;
Structure prediction by ZEFSAII (Michael W. Deem and Ramdas Pophale) SiO2 
 PCOD9467349
Probable space group: P N M A
;
_chemical_formula_sum "Si O2"
_cell_formula_units_Z 56
_cell_length_a 9.454085
_cell_length_b 14.006290
_cell_length_c 21.680636
_cell_angle_alpha 90.000000
_cell_angle_beta 90.000000
_cell_angle_gamma 90.000000
_cell_volume 2870.877323
_symmetry_space_group_name_H-M "P N M A"
_symmetry_group_IT_number 62
_symmetry_cell_setting 'orthorhombic'
loop_
_space_group_symop_operation_xyz
x,y,z
1/2-x,-y,1/2+z
1/2+x,1/2-y,1/2-z
-x,1/2+y,-z
-x,-y,-z
1/2+x,y,1/2-z
1/2-x,1/2+y,1/2+z
x,1/2-y,z
loop_
_atom_site_type_symbol
_atom_site_label
_atom_site_fract_x
_atom_site_fract_y
_atom_site_fract_z
Si Si1 0.181933 0.853596 0.576947
Si Si2 0.061825 0.394097 0.500816
Si Si3 0.954747 0.518746 0.930016
Si Si4 0.714999 0.640426 0.609918
Si Si5 0.253170 0.861808 0.122311
Si Si6 0.642564 0.533801 0.809189
Si Si7 0.116004 0.361989 0.260783
O O1 0.198864 0.750000 0.606156
O O2 0.102102 0.922666 0.624451
O O3 0.082953 0.843035 0.517957
O O4 0.329846 0.903535 0.565319
O O5 0.178771 0.376472 0.447616
O O6 0.136807 0.368056 0.564867
O O7 0.000000 0.500000 0.500000
O O8 0.883312 0.424685 0.899374
O O9 0.087229 0.565311 0.894741
O O10 0.000000 0.500000 0.000000
O O11 0.661688 0.750000 0.605197
O O12 0.800343 0.633386 0.673995
O O13 0.224960 0.750000 0.134869
O O14 0.320366 0.923459 0.178763
O O15 0.518918 0.568794 0.764833
O O16 0.780922 0.592846 0.789562
O O17 0.079338 0.250000 0.249944
#
# Coordination Sequence:
#
# PCOD9467349 Si02
#       7
#     8   8   8   8   8   8   8
#     4  11  21  35  58  88 122 156 199 251 309 375
#     4  12  19  38  62  92 124 163 206 254 310 378
#     4  11  22  36  56  90 128 161 199 251 304 369
#     4  11  22  37  60  90 127 163 197 248 323 384
#     4  11  24  42  65  89 126 175 218 259 312 376
#     4  11  24  41  62  91 126 160 209 259 310 380
#     4  11  23  40  65  95 126 158 199 259 327 385
#
# _framework density 19.506233000000002
#
# number of rings (size 3 to 8) (size 9 to 14) (size 15 to 20)
#    0.000    0.857    5.714    3.000    4.000    0.571 
#    0.000    0.714    0.000    0.857    0.000    0.000 
#    0.000    0.000    0.000    0.000    0.000    0.000 
#
# Total GULP energy -312420.494638 kJ/mol
# GULP energy per Si atom -5578.937404 kJ/mol
# Density = 1.946184 g / cm^3
# Si number density = 19.506233 Si / 1000 Ang^3
#
#
#
# Elastic Constant Matrix: (Units=GPa)
#
#
# Indices 1 2 3 4 5 6 
#
# 1 91.3796 40.5469 11.0840 0.0000 0.0000 0.0000
# 2 40.5469 176.1708 19.3903 0.0000 0.0000 0.0000
# 3 11.0840 19.3903 47.5283 0.0000 0.0000 0.0000
# 4 0.0000 0.0000 0.0000 42.3600 0.0000 0.0000
# 5 0.0000 0.0000 0.0000 0.0000 33.2079 0.0000
# 6 0.0000 0.0000 0.0000 0.0000 0.0000 91.2461
#
#
#
# Elastic Compliance Matrix: (Units=1/GPa)
#
#
# Indices 1 2 3 4 5 6 
#
# 1 0.012333 -0.002641 -0.001799 0.000000 0.000000 0.000000
# 2 -0.002641 0.006509 -0.002040 0.000000 0.000000 0.000000
# 3 -0.001799 -0.002040 0.022292 0.000000 0.000000 0.000000
# 4 0.000000 0.000000 0.000000 0.023607 0.000000 0.000000
# 5 0.000000 0.000000 0.000000 0.000000 0.030113 0.000000
# 6 0.000000 0.000000 0.000000 0.000000 0.000000 0.010959
#
#
# Mechanical properties :
#
#
# Convention : Reuss Voigt Hill
#
# Bulk Modulus (GPa) = 35.49191 50.79123 43.14157
# Shear Modulus (GPa) = 39.01278 49.63330 44.32304
#
# Velocity S-wave (km/s) = 4.47701 5.04976 4.77198
# Velocity P-wave (km/s) = 6.70518 7.75210 7.24757
#
# Compressibility (1/GPa) = 0.02817543
#
# Stress axis : x y z
#
# Youngs Moduli (GPa) = 81.08164 153.64434 44.85980
#
# Poissons Ratio (x) = 0.40571 0.08070
# Poissons Ratio (y) = 0.21410 0.09149
# Poissons Ratio (z) = 0.14586 0.31336
#
# Static dielectric constant tensor:
#      x y z
#    x 1.680100 0.000000 0.000000 
#    y 0.000000 1.706830 0.000000 
#    z 0.000000 0.000000 1.740520 
# 
# From -- ./inp_files/26028.got.cif
#   From: 2010.05.17/outbox.cif.g08.bks.cpg/sg62_14_cif.got.tgz:26028.got - 2010.06.03 15:25:27.
