data_PCOD9467538
_publ_section_title
;
Structure prediction by ZEFSAII (Michael W. Deem and Ramdas Pophale) SiO2 
 PCOD9467538
Probable space group: P N M A
;
_chemical_formula_sum "Si O2"
_cell_formula_units_Z 32
_cell_length_a 9.281848
_cell_length_b 22.682975
_cell_length_c 6.823448
_cell_angle_alpha 90.000000
_cell_angle_beta 90.000000
_cell_angle_gamma 90.000000
_cell_volume 1436.608238
_symmetry_space_group_name_H-M "P N M A"
_symmetry_group_IT_number 62
_symmetry_cell_setting 'orthorhombic'
loop_
_space_group_symop_operation_xyz
x,y,z
1/2-x,-y,1/2+z
1/2+x,1/2-y,1/2-z
-x,1/2+y,-z
-x,-y,-z
1/2+x,y,1/2-z
1/2-x,1/2+y,1/2+z
x,1/2-y,z
loop_
_atom_site_type_symbol
_atom_site_label
_atom_site_fract_x
_atom_site_fract_y
_atom_site_fract_z
Si Si1 0.442897 0.250000 0.996075
Si Si2 0.272331 0.250000 0.609905
Si Si3 0.079278 0.973893 0.309861
Si Si4 0.650964 0.072951 0.496557
Si Si5 0.988693 0.313485 0.137422
O O1 0.328534 0.250000 0.827752
O O2 0.602655 0.250000 0.905720
O O3 0.590802 0.133461 0.410444
O O4 0.347612 0.194367 0.498736
O O5 0.197781 0.928834 0.391906
O O6 0.154816 0.025711 0.181773
O O7 0.000000 0.000000 0.500000
O O8 0.966155 0.946374 0.159015
O O9 0.935899 0.193343 0.360388
O O10 0.067347 0.250000 0.109596
#
# Coordination Sequence:
#
# PCOD9467538 Si02
#       5
#     4   4   8   8   8
#     4   9  20  40  65  93 135 175 223 271 336 404
#     4   9  20  38  61  97 125 177 227 261 346 392
#     4  11  24  42  70 101 132 178 229 280 341 394
#     4  11  23  46  68 100 137 176 230 282 339 409
#     4   8  23  42  62  97 136 176 215 276 341 400
#
# _framework density 22.274687
#
# number of rings (size 3 to 8) (size 9 to 14) (size 15 to 20)
#    1.500    0.500    2.500    0.000    0.000   10.000 
#    0.000    0.000    0.000    0.000    0.000    0.000 
#    0.000    0.000    0.000    0.000    0.000    0.000 
#
# Total GULP energy -178694.578267 kJ/mol
# GULP energy per Si atom -5584.205571 kJ/mol
# Density = 2.222399 g / cm^3
# Si number density = 22.274687 Si / 1000 Ang^3
#
#
#
# Elastic Constant Matrix: (Units=GPa)
#
#
# Indices 1 2 3 4 5 6 
#
# 1 54.7527 -4.0264 41.2395 0.0000 0.0000 0.0000
# 2 -4.0264 53.6305 23.0033 0.0000 0.0000 0.0000
# 3 41.2395 23.0033 165.7466 0.0000 0.0000 0.0000
# 4 0.0000 0.0000 0.0000 9.8189 0.0000 0.0000
# 5 0.0000 0.0000 0.0000 0.0000 19.9220 0.0000
# 6 0.0000 0.0000 0.0000 0.0000 0.0000 8.2324
#
#
#
# Elastic Compliance Matrix: (Units=1/GPa)
#
#
# Indices 1 2 3 4 5 6 
#
# 1 0.023470 0.004537 -0.006469 0.000000 0.000000 0.000000
# 2 0.004537 0.020703 -0.004002 0.000000 0.000000 0.000000
# 3 -0.006469 -0.004002 0.008198 0.000000 0.000000 0.000000
# 4 0.000000 0.000000 0.000000 0.101844 0.000000 0.000000
# 5 0.000000 0.000000 0.000000 0.000000 0.050196 0.000000
# 6 0.000000 0.000000 0.000000 0.000000 0.000000 0.121472
#
#
# Mechanical properties :
#
#
# Convention : Reuss Voigt Hill
#
# Bulk Modulus (GPa) = 24.68969 43.84029 34.26499
# Shear Modulus (GPa) = 14.23472 21.85555 18.04513
#
# Velocity S-wave (km/s) = 2.53069 3.13578 2.84935
# Velocity P-wave (km/s) = 4.43255 5.73020 5.12263
#
# Compressibility (1/GPa) = 0.04050274
#
# Stress axis : x y z
#
# Youngs Moduli (GPa) = 42.60726 48.30146 121.97545
#
# Poissons Ratio (x) = -0.21914 0.78909
# Poissons Ratio (y) = -0.19330 0.48816
# Poissons Ratio (z) = 0.27564 0.19331
#
# Static dielectric constant tensor:
#      x y z
#    x 1.793960 0.000000 0.000000 
#    y 0.000000 1.853070 0.000000 
#    z 0.000000 0.000000 1.831560 
# 
# From -- ./inp_files/207.got.cif
#   From: 2010.05.17/outbox.cif.g08.bks.cpg/sg62_1_cif.got.tgz:207.got - 2010.06.03 15:25:27.
