data_PCOD9467143
_publ_section_title
;
Structure prediction by ZEFSAII (Michael W. Deem and Ramdas Pophale) SiO2 
 PCOD9467143
Probable space group: P N M A
;
_chemical_formula_sum "Si O2"
_cell_formula_units_Z 32
_cell_length_a 9.413179
_cell_length_b 28.728066
_cell_length_c 5.153917
_cell_angle_alpha 90.000000
_cell_angle_beta 90.000000
_cell_angle_gamma 90.000000
_cell_volume 1393.734747
_symmetry_space_group_name_H-M "P N M A"
_symmetry_group_IT_number 62
_symmetry_cell_setting 'orthorhombic'
loop_
_space_group_symop_operation_xyz
x,y,z
1/2-x,-y,1/2+z
1/2+x,1/2-y,1/2-z
-x,1/2+y,-z
-x,-y,-z
1/2+x,y,1/2-z
1/2-x,1/2+y,1/2+z
x,1/2-y,z
loop_
_atom_site_type_symbol
_atom_site_label
_atom_site_fract_x
_atom_site_fract_y
_atom_site_fract_z
Si Si1 0.994087 0.160574 0.669800
Si Si2 0.663129 0.516646 0.531081
Si Si3 0.244785 0.619471 0.001698
Si Si4 0.132918 0.198101 0.188049
O O1 0.093589 0.115679 0.604082
O O2 0.016204 0.192434 0.418449
O O3 0.063455 0.187340 0.913073
O O4 0.844928 0.143382 0.771457
O O5 0.752991 0.507038 0.269194
O O6 0.500000 0.500000 0.500000
O O7 0.672214 0.572042 0.579268
O O8 0.260359 0.657061 0.772791
O O9 0.192557 0.250000 0.194464
#
# Coordination Sequence:
#
# PCOD9467143 Si02
#       4
#     8   8   8   8
#     4  10  24  42  66  97 134 177 221 277 342 403
#     4  12  28  47  76 108 144 187 245 300 366 434
#     4  10  26  44  73  94 144 172 233 277 356 402
#     4  10  24  41  66  97 135 176 228 278 339 409
#
# _framework density 22.959893999999998
#
# number of rings (size 3 to 8) (size 9 to 14) (size 15 to 20)
#    1.500    0.000    0.000    3.000   10.500    2.000 
#    0.000    0.000    0.000    0.000    0.000    0.000 
#    0.000    0.000    0.000    0.000    0.000    0.000 
#
# Total GULP energy -178644.951157 kJ/mol
# GULP energy per Si atom -5582.654724 kJ/mol
# Density = 2.290764 g / cm^3
# Si number density = 22.959894 Si / 1000 Ang^3
#
#
#
# Elastic Constant Matrix: (Units=GPa)
#
#
# Indices 1 2 3 4 5 6 
#
# 1 105.9252 10.7223 35.3448 0.0000 0.0000 0.0000
# 2 10.7223 98.7393 7.2381 0.0000 0.0000 0.0000
# 3 35.3448 7.2381 107.2820 0.0000 0.0000 0.0000
# 4 0.0000 0.0000 0.0000 5.6991 0.0000 0.0000
# 5 0.0000 0.0000 0.0000 0.0000 -38.2579 0.0000
# 6 0.0000 0.0000 0.0000 0.0000 0.0000 12.9053
#
#
#
# Elastic Compliance Matrix: (Units=1/GPa)
#
#
# Indices 1 2 3 4 5 6 
#
# 1 0.010687 -0.000907 -0.003460 0.000000 0.000000 0.000000
# 2 -0.000907 0.010255 -0.000393 0.000000 0.000000 0.000000
# 3 -0.003460 -0.000393 0.010488 0.000000 0.000000 0.000000
# 4 0.000000 0.000000 0.000000 0.175466 0.000000 0.000000
# 5 0.000000 0.000000 0.000000 0.000000 -0.026138 0.000000
# 6 0.000000 0.000000 0.000000 0.000000 0.000000 0.077487
#
#
# Mechanical properties :
#
#
# Convention : Reuss Voigt Hill
#
# Bulk Modulus (GPa) = 45.64115 46.50632 46.07374
# Shear Modulus (GPa) = 18.17737 13.31206 15.74471
#
# Velocity S-wave (km/s) = 2.81677 2.41051 2.62152
# Velocity P-wave (km/s) = 5.52275 5.29593 5.41052
#
# Compressibility (1/GPa) = 0.02191005
#
# Stress axis : x y z
#
# Youngs Moduli (GPa) = 93.57310 97.51365 95.35106
#
# Poissons Ratio (x) = 0.08843 0.32988
# Poissons Ratio (y) = 0.08486 0.03748
# Poissons Ratio (z) = 0.32373 0.03833
#
# Static dielectric constant tensor:
#      x y z
#    x 1.934680 0.000000 0.000000 
#    y 0.000000 1.852300 0.000000 
#    z 0.000000 0.000000 1.854350 
# 
# From -- ./inp_files/199.got.cif
#   From: 2010.05.17/outbox.cif.g08.bks.cpg/sg62_1_cif.got.tgz:199.got - 2010.06.03 15:25:27.
