data_PCOD9467648
_publ_section_title
;
Structure prediction by ZEFSAII (Michael W. Deem and Ramdas Pophale) SiO2 
 PCOD9467648
Probable space group: P N M A
;
_chemical_formula_sum "Si O2"
_cell_formula_units_Z 48
_cell_length_a 8.819615
_cell_length_b 17.380877
_cell_length_c 16.584635
_cell_angle_alpha 90.000000
_cell_angle_beta 90.000000
_cell_angle_gamma 90.000000
_cell_volume 2542.302541
_symmetry_space_group_name_H-M "P N M A"
_symmetry_group_IT_number 62
_symmetry_cell_setting 'orthorhombic'
loop_
_space_group_symop_operation_xyz
x,y,z
1/2-x,-y,1/2+z
1/2+x,1/2-y,1/2-z
-x,1/2+y,-z
-x,-y,-z
1/2+x,y,1/2-z
1/2-x,1/2+y,1/2+z
x,1/2-y,z
loop_
_atom_site_type_symbol
_atom_site_label
_atom_site_fract_x
_atom_site_fract_y
_atom_site_fract_z
Si Si1 0.063352 0.159315 0.655201
Si Si2 0.577042 0.841126 0.846110
Si Si3 0.364443 0.424658 0.714495
Si Si4 0.902826 0.422152 0.512465
Si Si5 0.738017 0.415326 0.201280
Si Si6 0.593057 0.014239 0.581399
O O1 0.089316 0.250000 0.659623
O O2 0.939070 0.131886 0.720380
O O3 0.001356 0.134183 0.568143
O O4 0.214823 0.112178 0.676287
O O5 0.586426 0.750000 0.855577
O O6 0.405267 0.868516 0.830567
O O7 0.674739 0.869306 0.770255
O O8 0.630703 0.884575 0.926433
O O9 0.320919 0.504380 0.759363
O O10 0.487150 0.441929 0.645231
O O11 0.746539 0.441638 0.557423
O O12 0.000000 0.500000 0.500000
O O13 0.849738 0.438179 0.128367
O O14 0.500000 0.000000 0.500000
#
# Coordination Sequence:
#
# PCOD9467648 Si02
#       6
#     8   8   8   8   8   8
#     4  12  24  41  65 100 137 176 221 285 350 397
#     4  12  26  43  66  99 137 176 220 285 345 391
#     4  12  22  43  68  97 131 177 231 277 329 419
#     4  12  23  44  69  96 133 178 228 280 333 419
#     4  12  22  44  70  96 130 177 231 273 326 414
#     4  12  24  40  69 102 125 171 236 282 326 396
#
# _framework density 18.880521999999999
#
# number of rings (size 3 to 8) (size 9 to 14) (size 15 to 20)
#    0.000    0.000    6.667    4.500    0.000    0.000 
#    0.000    2.500    0.000    0.000    0.000    0.000 
#    0.000    0.000    0.000    0.000    0.000    0.000 
#
# Total GULP energy -268645.668758 kJ/mol
# GULP energy per Si atom -5596.784766 kJ/mol
# Density = 1.883755 g / cm^3
# Si number density = 18.880522 Si / 1000 Ang^3
#
#
#
# Elastic Constant Matrix: (Units=GPa)
#
#
# Indices 1 2 3 4 5 6 
#
# 1 72.7451 7.8376 12.7468 0.0000 0.0000 0.0000
# 2 7.8376 103.7953 21.0597 0.0000 0.0000 0.0000
# 3 12.7468 21.0597 103.6266 0.0000 0.0000 0.0000
# 4 0.0000 0.0000 0.0000 32.3971 0.0000 0.0000
# 5 0.0000 0.0000 0.0000 0.0000 52.6556 0.0000
# 6 0.0000 0.0000 0.0000 0.0000 0.0000 28.0516
#
#
#
# Elastic Compliance Matrix: (Units=1/GPa)
#
#
# Indices 1 2 3 4 5 6 
#
# 1 0.014104 -0.000744 -0.001584 0.000000 0.000000 0.000000
# 2 -0.000744 0.010088 -0.001959 0.000000 0.000000 0.000000
# 3 -0.001584 -0.001959 0.010243 0.000000 0.000000 0.000000
# 4 0.000000 0.000000 0.000000 0.030867 0.000000 0.000000
# 5 0.000000 0.000000 0.000000 0.000000 0.018991 0.000000
# 6 0.000000 0.000000 0.000000 0.000000 0.000000 0.035649
#
#
# Mechanical properties :
#
#
# Convention : Reuss Voigt Hill
#
# Bulk Modulus (GPa) = 38.66551 40.38392 39.52471
# Shear Modulus (GPa) = 36.46037 38.52238 37.49138
#
# Velocity S-wave (km/s) = 4.39921 4.52189 4.46097
# Velocity P-wave (km/s) = 6.80643 6.97847 6.89299
#
# Compressibility (1/GPa) = 0.02586284
#
# Stress axis : x y z
#
# Youngs Moduli (GPa) = 70.90047 99.12864 97.62860
#
# Poissons Ratio (x) = 0.07372 0.15462
# Poissons Ratio (y) = 0.05273 0.19122
# Poissons Ratio (z) = 0.11229 0.19416
#
# Static dielectric constant tensor:
#      x y z
#    x 1.641790 0.000000 0.000000 
#    y 0.000000 1.616610 0.000000 
#    z 0.000000 0.000000 1.647610 
# 
# From -- ./inp_files/16940.got.cif
#   From: 2010.05.17/outbox.cif.g08.bks.cpg/sg62_9_cif.got.tgz:16940.got - 2010.06.03 15:25:27.
