data_PCOD9467106
_publ_section_title
;
Structure prediction by ZEFSAII (Michael W. Deem and Ramdas Pophale) SiO2 
 PCOD9467106
Probable space group: P N M A
;
_chemical_formula_sum "Si O2"
_cell_formula_units_Z 48
_cell_length_a 16.245235
_cell_length_b 15.969630
_cell_length_c 8.371823
_cell_angle_alpha 90.000000
_cell_angle_beta 90.000000
_cell_angle_gamma 90.000000
_cell_volume 2171.905324
_symmetry_space_group_name_H-M "P N M A"
_symmetry_group_IT_number 62
_symmetry_cell_setting 'orthorhombic'
loop_
_space_group_symop_operation_xyz
x,y,z
1/2-x,-y,1/2+z
1/2+x,1/2-y,1/2-z
-x,1/2+y,-z
-x,-y,-z
1/2+x,y,1/2-z
1/2-x,1/2+y,1/2+z
x,1/2-y,z
loop_
_atom_site_type_symbol
_atom_site_label
_atom_site_fract_x
_atom_site_fract_y
_atom_site_fract_z
Si Si1 0.435122 0.750000 0.170716
Si Si2 0.061109 0.911559 0.822381
Si Si3 0.251693 0.413995 0.386097
Si Si4 0.471159 0.589021 0.355665
Si Si5 0.796352 0.912668 0.957864
Si Si6 0.520233 0.750000 0.865151
Si Si7 0.754348 0.750000 0.391572
Si Si8 0.191031 0.750000 0.439325
O O1 0.475342 0.667566 0.241945
O O2 0.338923 0.750000 0.208304
O O3 0.443454 0.750000 0.981753
O O4 0.158551 0.908108 0.803646
O O5 0.021381 0.832117 0.741575
O O6 0.027970 0.000894 0.764512
O O7 0.041462 0.909672 0.011122
O O8 0.252866 0.500795 0.484629
O O9 0.191560 0.414141 0.233772
O O10 0.245465 0.333418 0.500494
O O11 0.384067 0.591843 0.451484
O O12 0.741544 0.832648 0.006636
O O13 0.602674 0.750000 0.974294
O O14 0.685291 0.750000 0.253964
#
# Coordination Sequence:
#
# PCOD9467106 Si02
#       8
#     4   8   8   8   8   4   4   4
#     4  12  27  41  63  95 134 171 213 265 314 391
#     4  10  23  45  66  92 127 172 216 263 318 387
#     4  11  24  41  69  96 126 167 219 266 324 380
#     4  10  23  45  67  91 131 174 213 258 327 385
#     4  11  22  43  68  94 126 168 212 271 320 379
#     4  12  26  40  67  97 133 169 215 266 318 375
#     4  12  26  41  63  97 130 171 217 264 320 384
#     4  12  23  42  65  93 131 171 207 273 316 372
#
# _framework density 22.100411000000001
#
# number of rings (size 3 to 8) (size 9 to 14) (size 15 to 20)
#    0.000    1.000    3.333    2.500    7.000    0.667 
#    3.000    0.000    0.000    0.000    0.000    0.000 
#    0.000    0.000    0.000    0.000    0.000    0.000 
#
# Total GULP energy -268564.974152 kJ/mol
# GULP energy per Si atom -5595.103628 kJ/mol
# Density = 2.205011 g / cm^3
# Si number density = 22.100411 Si / 1000 Ang^3
#
#
#
# Elastic Constant Matrix: (Units=GPa)
#
#
# Indices 1 2 3 4 5 6 
#
# 1 35.6110 6.2178 -9.0346 0.0000 0.0000 0.0000
# 2 6.2178 211.4970 64.4945 0.0000 0.0000 0.0000
# 3 -9.0346 64.4945 74.6014 0.0000 0.0000 0.0000
# 4 0.0000 0.0000 0.0000 326.9630 0.0000 0.0000
# 5 0.0000 0.0000 0.0000 0.0000 22.6335 0.0000
# 6 0.0000 0.0000 0.0000 0.0000 0.0000 41.8407
#
#
#
# Elastic Compliance Matrix: (Units=1/GPa)
#
#
# Indices 1 2 3 4 5 6 
#
# 1 0.030072 -0.002709 0.005984 0.000000 0.000000 0.000000
# 2 -0.002709 0.006665 -0.006090 0.000000 0.000000 0.000000
# 3 0.005984 -0.006090 0.019394 0.000000 0.000000 0.000000
# 4 0.000000 0.000000 0.000000 0.003058 0.000000 0.000000
# 5 0.000000 0.000000 0.000000 0.000000 0.044182 0.000000
# 6 0.000000 0.000000 0.000000 0.000000 0.000000 0.023900
#
#
# Mechanical properties :
#
#
# Convention : Reuss Voigt Hill
#
# Bulk Modulus (GPa) = 19.80156 49.45165 34.62660
# Shear Modulus (GPa) = 33.39207 95.62290 64.50748
#
# Velocity S-wave (km/s) = 3.89128 6.58494 5.40849
# Velocity P-wave (km/s) = 5.40080 8.95766 7.39623
#
# Compressibility (1/GPa) = 0.05050108
#
# Stress axis : x y z
#
# Youngs Moduli (GPa) = 33.25330 150.03870 51.56181
#
# Poissons Ratio (x) = 0.40642 -0.30853
# Poissons Ratio (y) = 0.09008 0.31401
# Poissons Ratio (z) = -0.19898 0.91374
#
# Static dielectric constant tensor:
#      x y z
#    x 1.799800 0.000000 0.000000 
#    y 0.000000 1.801920 0.000000 
#    z 0.000000 0.000000 1.805740 
# 
# From -- ./inp_files/7725.got.cif
#   From: 2010.05.17/outbox.cif.g08.bks.cpg/sg62_4_cif.got.tgz:7725.got - 2010.06.03 15:25:27.
