data_PCOD9467902
_publ_section_title
;
Structure prediction by ZEFSAII (Michael W. Deem and Ramdas Pophale) SiO2 
 PCOD9467902
Probable space group: P N M A
;
_chemical_formula_sum "Si O2"
_cell_formula_units_Z 40
_cell_length_a 24.000000
_cell_length_b 9.000000
_cell_length_c 9.000000
_cell_angle_alpha 90.000000
_cell_angle_beta 90.000000
_cell_angle_gamma 90.000000
_cell_volume 1944.000000
_symmetry_space_group_name_H-M "P N M A"
_symmetry_group_IT_number 62
_symmetry_cell_setting 'orthorhombic'
loop_
_space_group_symop_operation_xyz
x,y,z
1/2-x,-y,1/2+z
1/2+x,1/2-y,1/2-z
-x,1/2+y,-z
-x,-y,-z
1/2+x,y,1/2-z
1/2-x,1/2+y,1/2+z
x,1/2-y,z
loop_
_atom_site_type_symbol
_atom_site_label
_atom_site_fract_x
_atom_site_fract_y
_atom_site_fract_z
Si Si1 0.226241 0.071716 0.710905
Si Si2 0.915503 0.426482 0.799070
Si Si3 0.474125 0.571236 0.149315
Si Si4 0.322093 0.927664 0.535969
Si Si5 0.869761 0.427653 0.464942
O O1 0.229532 0.250000 0.706933
O O2 0.285084 0.001884 0.665864
O O3 0.186256 0.008724 0.582201
O O4 0.201750 0.029135 0.873140
O O5 0.908415 0.250000 0.823591
O O6 0.884068 0.516665 0.926107
O O7 0.889355 0.458883 0.634214
O O8 0.981185 0.458296 0.778277
O O9 0.468860 0.750000 0.133582
O O10 0.414779 0.492709 0.151677
O O11 0.500000 0.500000 0.000000
O O12 0.318928 0.750000 0.545429
O O13 0.864808 0.250000 0.451420
#
# Coordination Sequence:
#
# PCOD9467902 Si02
#       5
#     8   8   8   8   8
#     4  11  24  40  57  80 110 142 180 226 274 327
#     4   9  19  35  56  83 113 144 181 224 267 318
#     4   9  17  31  53  82 114 147 184 225 269 319
#     4  11  24  39  57  82 109 141 183 226 272 329
#     4  10  20  35  57  85 113 144 185 227 270 323
#
# _framework density 20.576132000000001
#
# number of rings (size 3 to 8) (size 9 to 14) (size 15 to 20)
#    0.000    2.000    0.000    4.800    0.000   12.800 
#    0.000    1.000    0.000    0.000    0.000    0.000 
#    0.000    0.000    0.000    0.000    0.000    0.000 
#
# Total GULP energy -223324.612736 kJ/mol
# GULP energy per Si atom -5583.115318 kJ/mol
# Density = 2.052930 g / cm^3
# Si number density = 20.576132 Si / 1000 Ang^3
#
#
#
# Elastic Constant Matrix: (Units=GPa)
#
#
# Indices 1 2 3 4 5 6 
#
# 1 43.4219 -8.6348 -26.8878 0.0000 0.0000 0.0000
# 2 -8.6348 40.3479 1.2653 0.0000 0.0000 0.0000
# 3 -26.8878 1.2653 23.4886 0.0000 0.0000 0.0000
# 4 0.0000 0.0000 0.0000 26.2555 0.0000 0.0000
# 5 0.0000 0.0000 0.0000 0.0000 26.1416 0.0000
# 6 0.0000 0.0000 0.0000 0.0000 0.0000 31.4514
#
#
#
# Elastic Compliance Matrix: (Units=1/GPa)
#
#
# Indices 1 2 3 4 5 6 
#
# 1 0.088021 0.015704 0.099914 0.000000 0.000000 0.000000
# 2 0.015704 0.027628 0.016488 0.000000 0.000000 0.000000
# 3 0.099914 0.016488 0.156058 0.000000 0.000000 0.000000
# 4 0.000000 0.000000 0.000000 0.038087 0.000000 0.000000
# 5 0.000000 0.000000 0.000000 0.000000 0.038253 0.000000
# 6 0.000000 0.000000 0.000000 0.000000 0.000000 0.031795
#
#
# Mechanical properties :
#
#
# Convention : Reuss Voigt Hill
#
# Bulk Modulus (GPa) = 1.86595 4.30489 3.08542
# Shear Modulus (GPa) = 16.99109 26.20409 21.59759
#
# Velocity S-wave (km/s) = 2.87673 3.57251 3.24333
# Velocity P-wave (km/s) = 3.45586 4.37194 3.94061
#
# Compressibility (1/GPa) = 0.53591903
#
# Stress axis : x y z
#
# Youngs Moduli (GPa) = 11.36087 36.19507 6.40786
#
# Poissons Ratio (x) = -0.56840 -0.64023
# Poissons Ratio (y) = -0.17841 -0.10565
# Poissons Ratio (z) = -1.13511 -0.59679
#
# Static dielectric constant tensor:
#      x y z
#    x 1.715290 0.000000 0.000000 
#    y 0.000000 1.672140 0.000000 
#    z 0.000000 0.000000 1.694620 
# 
# From -- ./inp_files/9065.got.cif
#   From: 2010.05.17/outbox.ucp.g08.bks.cvg/sg62_5_cif.got.tgz:9065.got - 2010.06.11 16:29:25.
