data_PCOD9467052
_publ_section_title
;
Structure prediction by ZEFSAII (Michael W. Deem and Ramdas Pophale) SiO2 
 PCOD9467052
Probable space group: P N M A
;
_chemical_formula_sum "Si O2"
_cell_formula_units_Z 40
_cell_length_a 14.329855
_cell_length_b 8.734529
_cell_length_c 13.991393
_cell_angle_alpha 90.000000
_cell_angle_beta 90.000000
_cell_angle_gamma 90.000000
_cell_volume 1751.226186
_symmetry_space_group_name_H-M "P N M A"
_symmetry_group_IT_number 62
_symmetry_cell_setting 'orthorhombic'
loop_
_space_group_symop_operation_xyz
x,y,z
1/2-x,-y,1/2+z
1/2+x,1/2-y,1/2-z
-x,1/2+y,-z
-x,-y,-z
1/2+x,y,1/2-z
1/2-x,1/2+y,1/2+z
x,1/2-y,z
loop_
_atom_site_type_symbol
_atom_site_label
_atom_site_fract_x
_atom_site_fract_y
_atom_site_fract_z
Si Si1 0.555261 0.929435 0.706465
Si Si2 0.113184 0.930994 0.110152
Si Si3 0.757554 0.071552 0.706414
Si Si4 0.451101 0.929347 0.092310
Si Si5 0.223618 0.927351 0.510916
O O1 0.542039 0.750000 0.694985
O O2 0.491769 0.015769 0.629246
O O3 0.664225 0.971713 0.704916
O O4 0.522235 0.985242 0.810989
O O5 0.116769 0.750000 0.090876
O O6 0.170859 0.963522 0.208732
O O7 0.170245 0.023878 0.030623
O O8 0.729081 0.250000 0.717572
O O9 0.800688 0.057049 0.600657
O O10 0.470138 0.750000 0.101115
O O11 0.341812 0.962135 0.072622
O O12 0.500000 0.000000 0.000000
O O13 0.208550 0.750000 0.538791
#
# Coordination Sequence:
#
# PCOD9467052 Si02
#       5
#     8   8   8   8   8
#     4  12  25  41  66  96 130 172 220 273 328 391
#     4  11  23  42  67  94 131 176 220 271 331 393
#     4  10  23  43  66  93 130 173 216 269 331 393
#     4  12  24  41  65  96 132 170 219 272 332 393
#     4  11  23  41  66  97 131 170 218 272 330 392
#
# _framework density 22.841138999999998
#
# number of rings (size 3 to 8) (size 9 to 14) (size 15 to 20)
#    0.000    0.800    2.000    6.000    0.000    4.800 
#    0.000    0.000    0.000    0.000    0.000    0.000 
#    0.000    0.000    0.000    0.000    0.000    0.000 
#
# Total GULP energy -224077.580659 kJ/mol
# GULP energy per Si atom -5601.939516 kJ/mol
# Density = 2.278915 g / cm^3
# Si number density = 22.841139 Si / 1000 Ang^3
#
#
#
# Elastic Constant Matrix: (Units=GPa)
#
#
# Indices 1 2 3 4 5 6 
#
# 1 66.6353 10.7077 -11.6305 0.0000 0.0000 0.0000
# 2 10.7077 76.8501 9.1968 0.0000 0.0000 0.0000
# 3 -11.6305 9.1968 49.7911 0.0000 0.0000 0.0000
# 4 0.0000 0.0000 0.0000 26.1281 0.0000 0.0000
# 5 0.0000 0.0000 0.0000 0.0000 36.1286 0.0000
# 6 0.0000 0.0000 0.0000 0.0000 0.0000 38.0951
#
#
#
# Elastic Compliance Matrix: (Units=1/GPa)
#
#
# Indices 1 2 3 4 5 6 
#
# 1 0.016202 -0.002772 0.004297 0.000000 0.000000 0.000000
# 2 -0.002772 0.013781 -0.003193 0.000000 0.000000 0.000000
# 3 0.004297 -0.003193 0.021677 0.000000 0.000000 0.000000
# 4 0.000000 0.000000 0.000000 0.038273 0.000000 0.000000
# 5 0.000000 0.000000 0.000000 0.000000 0.027679 0.000000
# 6 0.000000 0.000000 0.000000 0.000000 0.000000 0.026250
#
#
# Mechanical properties :
#
#
# Convention : Reuss Voigt Hill
#
# Bulk Modulus (GPa) = 20.69345 23.31382 22.00364
# Shear Modulus (GPa) = 30.61732 32.40384 31.51058
#
# Velocity S-wave (km/s) = 3.66518 3.77060 3.71826
# Velocity P-wave (km/s) = 5.19527 5.40237 5.29983
#
# Compressibility (1/GPa) = 0.04832446
#
# Stress axis : x y z
#
# Youngs Moduli (GPa) = 61.71942 72.56568 46.13126
#
# Poissons Ratio (x) = 0.20113 -0.19821
# Poissons Ratio (y) = 0.17107 0.14729
# Poissons Ratio (z) = -0.26518 0.23169
#
# Static dielectric constant tensor:
#      x y z
#    x 1.923560 0.000000 0.000000 
#    y 0.000000 1.789470 0.000000 
#    z 0.000000 0.000000 1.813240 
# 
# From -- ./inp_files/18610.got.cif
#   From: 2010.05.17/outbox.cif.g08.bks.cpg/sg62_10_cif.got.tgz:18610.got - 2010.06.03 15:25:27.
