data_PCOD9467243
_publ_section_title
;
Structure prediction by ZEFSAII (Michael W. Deem and Ramdas Pophale) SiO2 
 PCOD9467243
Probable space group: P N M A
;
_chemical_formula_sum "Si O2"
_cell_formula_units_Z 64
_cell_length_a 8.304047
_cell_length_b 18.303420
_cell_length_c 18.428772
_cell_angle_alpha 90.000000
_cell_angle_beta 90.000000
_cell_angle_gamma 90.000000
_cell_volume 2801.034390
_symmetry_space_group_name_H-M "P N M A"
_symmetry_group_IT_number 62
_symmetry_cell_setting 'orthorhombic'
loop_
_space_group_symop_operation_xyz
x,y,z
1/2-x,-y,1/2+z
1/2+x,1/2-y,1/2-z
-x,1/2+y,-z
-x,-y,-z
1/2+x,y,1/2-z
1/2-x,1/2+y,1/2+z
x,1/2-y,z
loop_
_atom_site_type_symbol
_atom_site_label
_atom_site_fract_x
_atom_site_fract_y
_atom_site_fract_z
Si Si1 0.693883 0.834259 0.666309
Si Si2 0.844582 0.666752 0.071777
Si Si3 0.831368 0.959176 0.290191
Si Si4 0.783904 0.162341 0.888249
Si Si5 0.346354 0.599386 0.964637
Si Si6 0.325650 0.167344 0.069403
Si Si7 0.348550 0.604021 0.698001
Si Si8 0.183471 0.534931 0.360252
O O1 0.675192 0.750000 0.686683
O O2 0.754027 0.841335 0.584564
O O3 0.822064 0.874201 0.718406
O O4 0.528070 0.876673 0.676720
O O5 0.804763 0.750000 0.089544
O O6 0.714222 0.614109 0.106740
O O7 0.025231 0.652924 0.098210
O O8 0.824944 0.658104 0.984951
O O9 0.770081 0.879728 0.315486
O O10 0.815982 0.969737 0.203821
O O11 0.009739 0.971529 0.321564
O O12 0.712021 0.022609 0.318923
O O13 0.748862 0.250000 0.889428
O O14 0.698071 0.116884 0.953002
O O15 0.535160 0.611910 0.952307
O O16 0.300838 0.523168 0.925663
O O17 0.386728 0.250000 0.060068
O O18 0.268489 0.154937 0.150639
#
# Coordination Sequence:
#
# PCOD9467243 Si02
#       8
#     8   8   8   8   8   8   8   8
#     4  12  24  40  63  94 139 184 234 284 344 413
#     4  10  25  47  73 104 137 179 233 291 355 420
#     4  12  26  47  71 102 141 184 235 290 350 415
#     4  11  26  48  75 105 139 183 237 293 354 421
#     4  12  25  42  70 103 139 181 228 284 349 415
#     4  11  22  41  66  97 139 179 225 280 339 412
#     4  12  24  41  61  97 135 187 231 283 339 413
#     4  12  26  46  72 102 139 186 232 292 350 422
#
# _framework density 22.848700999999998
#
# number of rings (size 3 to 8) (size 9 to 14) (size 15 to 20)
#    0.000    0.500    2.500    6.000    3.500    4.500 
#    0.000    0.000    0.000    0.000    0.000    0.000 
#    0.000    0.000    0.000    0.000    0.000    0.000 
#
# Total GULP energy -358208.093607 kJ/mol
# GULP energy per Si atom -5597.001463 kJ/mol
# Density = 2.279670 g / cm^3
# Si number density = 22.848701 Si / 1000 Ang^3
#
#
#
# Elastic Constant Matrix: (Units=GPa)
#
#
# Indices 1 2 3 4 5 6 
#
# 1 73.9445 33.3481 4.1469 0.0000 0.0000 0.0000
# 2 33.3481 115.2302 32.3183 0.0000 0.0000 0.0000
# 3 4.1469 32.3183 48.9583 0.0000 0.0000 0.0000
# 4 0.0000 0.0000 0.0000 36.5071 0.0000 0.0000
# 5 0.0000 0.0000 0.0000 0.0000 36.5782 0.0000
# 6 0.0000 0.0000 0.0000 0.0000 0.0000 30.8412
#
#
#
# Elastic Compliance Matrix: (Units=1/GPa)
#
#
# Indices 1 2 3 4 5 6 
#
# 1 0.015720 -0.005125 0.002051 0.000000 0.000000 0.000000
# 2 -0.005125 0.012321 -0.007699 0.000000 0.000000 0.000000
# 3 0.002051 -0.007699 0.025334 0.000000 0.000000 0.000000
# 4 0.000000 0.000000 0.000000 0.027392 0.000000 0.000000
# 5 0.000000 0.000000 0.000000 0.000000 0.027339 0.000000
# 6 0.000000 0.000000 0.000000 0.000000 0.000000 0.032424
#
#
# Mechanical properties :
#
#
# Convention : Reuss Voigt Hill
#
# Bulk Modulus (GPa) = 31.41700 41.97329 36.69514
# Shear Modulus (GPa) = 28.95457 32.00659 30.48058
#
# Velocity S-wave (km/s) = 3.56368 3.74679 3.65638
# Velocity P-wave (km/s) = 5.54193 6.09327 5.82413
#
# Compressibility (1/GPa) = 0.03182990
#
# Stress axis : x y z
#
# Youngs Moduli (GPa) = 63.61398 81.16382 39.47245
#
# Poissons Ratio (x) = 0.41594 -0.08098
# Poissons Ratio (y) = 0.32601 0.30390
# Poissons Ratio (z) = -0.13050 0.62489
#
# Static dielectric constant tensor:
#      x y z
#    x 1.818150 0.000000 0.000000 
#    y 0.000000 1.858360 0.000000 
#    z 0.000000 0.000000 1.867460 
# 
# From -- ./inp_files/26157.got.cif
#   From: 2010.05.17/outbox.cif.g08.bks.cpg/sg62_14_cif.got.tgz:26157.got - 2010.06.03 15:25:27.
