data_PCOD9467038
_publ_section_title
;
Structure prediction by ZEFSAII (Michael W. Deem and Ramdas Pophale) SiO2 
 PCOD9467038
Probable space group: P N M A
;
_chemical_formula_sum "Si O2"
_cell_formula_units_Z 32
_cell_length_a 9.636370
_cell_length_b 23.711472
_cell_length_c 5.013355
_cell_angle_alpha 90.000000
_cell_angle_beta 90.000000
_cell_angle_gamma 90.000000
_cell_volume 1145.514105
_symmetry_space_group_name_H-M "P N M A"
_symmetry_group_IT_number 62
_symmetry_cell_setting 'orthorhombic'
loop_
_space_group_symop_operation_xyz
x,y,z
1/2-x,-y,1/2+z
1/2+x,1/2-y,1/2-z
-x,1/2+y,-z
-x,-y,-z
1/2+x,y,1/2-z
1/2-x,1/2+y,1/2+z
x,1/2-y,z
loop_
_atom_site_type_symbol
_atom_site_label
_atom_site_fract_x
_atom_site_fract_y
_atom_site_fract_z
Si Si1 0.494030 0.905155 0.965069
Si Si2 0.562387 0.187606 0.403414
Si Si3 0.659643 0.004185 0.701772
Si Si4 0.318228 0.186315 0.760670
O O1 0.400923 0.863198 0.790056
O O2 0.414006 0.939477 0.193166
O O3 0.612474 0.865557 0.086909
O O4 0.563717 0.951457 0.774307
O O5 0.590334 0.250000 0.290542
O O6 0.399357 0.183557 0.479409
O O7 0.655369 0.183623 0.671659
O O8 0.791758 0.997320 0.898596
O O9 0.357659 0.250000 0.855176
#
# Coordination Sequence:
#
# PCOD9467038 Si02
#       4
#     8   8   8   8
#     4  11  25  42  75 100 147 197 247 306 376 446
#     4  10  23  44  71 110 149 192 244 302 374 448
#     4  11  28  47  71 108 147 194 255 311 372 437
#     4  10  23  42  71 108 147 191 242 304 372 449
#
# _framework density 27.935054999999998
#
# number of rings (size 3 to 8) (size 9 to 14) (size 15 to 20)
#    0.000    1.500    0.000    2.250   10.500    4.000 
#    0.000    5.000    0.000    0.000    0.000    0.000 
#    0.000    0.000    0.000    0.000    0.000    0.000 
#
# Total GULP energy -179522.917968 kJ/mol
# GULP energy per Si atom -5610.091186 kJ/mol
# Density = 2.787147 g / cm^3
# Si number density = 27.935055 Si / 1000 Ang^3
#
#
#
# Elastic Constant Matrix: (Units=GPa)
#
#
# Indices 1 2 3 4 5 6 
#
# 1 97.2503 44.7445 7.8877 0.0000 0.0000 0.0000
# 2 44.7445 215.0905 33.6951 0.0000 0.0000 0.0000
# 3 7.8877 33.6951 62.5247 0.0000 0.0000 0.0000
# 4 0.0000 0.0000 0.0000 23.5069 0.0000 0.0000
# 5 0.0000 0.0000 0.0000 0.0000 50.5224 0.0000
# 6 0.0000 0.0000 0.0000 0.0000 0.0000 36.7586
#
#
#
# Elastic Compliance Matrix: (Units=1/GPa)
#
#
# Indices 1 2 3 4 5 6 
#
# 1 0.011373 -0.002339 -0.000174 0.000000 0.000000 0.000000
# 2 -0.002339 0.005559 -0.002701 0.000000 0.000000 0.000000
# 3 -0.000174 -0.002701 0.017471 0.000000 0.000000 0.000000
# 4 0.000000 0.000000 0.000000 0.042541 0.000000 0.000000
# 5 0.000000 0.000000 0.000000 0.000000 0.019793 0.000000
# 6 0.000000 0.000000 0.000000 0.000000 0.000000 0.027205
#
#
# Mechanical properties :
#
#
# Convention : Reuss Voigt Hill
#
# Bulk Modulus (GPa) = 41.70942 60.83555 51.27249
# Shear Modulus (GPa) = 35.12215 41.39344 38.25779
#
# Velocity S-wave (km/s) = 3.54966 3.85356 3.70473
# Velocity P-wave (km/s) = 5.63590 6.45172 6.05756
#
# Compressibility (1/GPa) = 0.02397540
#
# Stress axis : x y z
#
# Youngs Moduli (GPa) = 87.92877 179.89662 57.23741
#
# Poissons Ratio (x) = 0.42069 0.00999
# Poissons Ratio (y) = 0.20562 0.15458
# Poissons Ratio (z) = 0.01534 0.48584
#
# Static dielectric constant tensor:
#      x y z
#    x 2.193360 0.000000 0.000000 
#    y 0.000000 2.099650 0.000000 
#    z 0.000000 0.000000 2.165550 
# 
# From -- ./inp_files/440.got.cif
#   From: 2010.05.17/outbox.cif.g08.bks.cpg/sg62_1_cif.got.tgz:440.got - 2010.06.03 15:25:27.
