data_PCOD9467315
_publ_section_title
;
Structure prediction by ZEFSAII (Michael W. Deem and Ramdas Pophale) SiO2 
 PCOD9467315
Probable space group: P N M A
;
_chemical_formula_sum "Si O2"
_cell_formula_units_Z 64
_cell_length_a 9.258244
_cell_length_b 22.239351
_cell_length_c 16.801805
_cell_angle_alpha 90.000000
_cell_angle_beta 90.000000
_cell_angle_gamma 90.000000
_cell_volume 3459.446922
_symmetry_space_group_name_H-M "P N M A"
_symmetry_group_IT_number 62
_symmetry_cell_setting 'orthorhombic'
loop_
_space_group_symop_operation_xyz
x,y,z
1/2-x,-y,1/2+z
1/2+x,1/2-y,1/2-z
-x,1/2+y,-z
-x,-y,-z
1/2+x,y,1/2-z
1/2-x,1/2+y,1/2+z
x,1/2-y,z
loop_
_atom_site_type_symbol
_atom_site_label
_atom_site_fract_x
_atom_site_fract_y
_atom_site_fract_z
Si Si1 0.330797 0.381186 0.551277
Si Si2 0.874737 0.819831 0.008277
Si Si3 0.462567 0.009856 0.182307
Si Si4 0.212979 0.012358 0.442396
Si Si5 0.011892 0.513935 0.134797
Si Si6 0.219800 0.678910 0.320964
Si Si7 0.246967 0.571877 0.578815
Si Si8 0.394387 0.628872 0.171865
O O1 0.459029 0.341526 0.515075
O O2 0.261673 0.426869 0.487119
O O3 0.409362 0.423321 0.617683
O O4 0.202643 0.347859 0.598215
O O5 0.868298 0.750000 0.987220
O O6 0.786369 0.861707 0.947487
O O7 0.800449 0.827883 0.094758
O O8 0.505463 0.005481 0.273998
O O9 0.403075 0.943267 0.162462
O O10 0.597687 0.022435 0.125968
O O11 0.341798 0.058663 0.158760
O O12 0.352992 0.983729 0.400829
O O13 0.163218 0.963794 0.508389
O O14 0.103068 0.464298 0.087062
O O15 0.213726 0.750000 0.301849
O O16 0.311606 0.645790 0.252825
O O17 0.057189 0.653568 0.326074
#
# Coordination Sequence:
#
# PCOD9467315 Si02
#       8
#     8   8   8   8   8   8   8   8
#     4  11  22  39  58  88 121 165 197 253 298 371
#     4  11  23  41  64  85 113 163 213 252 298 366
#     4  12  24  33  58  97 123 155 196 254 315 373
#     4  11  21  36  59  85 128 156 195 246 317 368
#     4  11  20  38  58  87 124 156 194 243 314 372
#     4  11  25  41  59  84 125 171 211 252 290 355
#     4  11  21  38  59  87 120 157 198 251 313 362
#     4  12  24  37  60  88 127 162 208 240 303 359
#
# _framework density 18.500066
#
# number of rings (size 3 to 8) (size 9 to 14) (size 15 to 20)
#    0.000    0.750    5.000    5.250    3.500    2.000 
#    0.000    0.000    0.000    0.750    0.000    0.000 
#    0.000    0.000    0.000    0.000    0.000    0.000 
#
# Total GULP energy -357801.367260 kJ/mol
# GULP energy per Si atom -5590.646363 kJ/mol
# Density = 1.845796 g / cm^3
# Si number density = 18.500066 Si / 1000 Ang^3
#
#
#
# Elastic Constant Matrix: (Units=GPa)
#
#
# Indices 1 2 3 4 5 6 
#
# 1 83.6118 28.0268 17.7069 0.0000 0.0000 0.0000
# 2 28.0268 96.3179 27.0070 0.0000 0.0000 0.0000
# 3 17.7069 27.0070 74.3204 0.0000 0.0000 0.0000
# 4 0.0000 0.0000 0.0000 20.6189 0.0000 0.0000
# 5 0.0000 0.0000 0.0000 0.0000 30.7498 0.0000
# 6 0.0000 0.0000 0.0000 0.0000 0.0000 15.7364
#
#
#
# Elastic Compliance Matrix: (Units=1/GPa)
#
#
# Indices 1 2 3 4 5 6 
#
# 1 0.013513 -0.003373 -0.001994 0.000000 0.000000 0.000000
# 2 -0.003373 0.012402 -0.003703 0.000000 0.000000 0.000000
# 3 -0.001994 -0.003703 0.015276 0.000000 0.000000 0.000000
# 4 0.000000 0.000000 0.000000 0.048499 0.000000 0.000000
# 5 0.000000 0.000000 0.000000 0.000000 0.032521 0.000000
# 6 0.000000 0.000000 0.000000 0.000000 0.000000 0.063547
#
#
# Mechanical properties :
#
#
# Convention : Reuss Voigt Hill
#
# Bulk Modulus (GPa) = 43.38172 44.41460 43.89816
# Shear Modulus (GPa) = 23.63159 25.52164 24.57661
#
# Velocity S-wave (km/s) = 3.57792 3.71825 3.64876
# Velocity P-wave (km/s) = 6.36939 6.51872 6.44449
#
# Compressibility (1/GPa) = 0.02305119
#
# Stress axis : x y z
#
# Youngs Moduli (GPa) = 74.00340 80.63152 65.46246
#
# Poissons Ratio (x) = 0.27197 0.13052
# Poissons Ratio (y) = 0.24961 0.24242
# Poissons Ratio (z) = 0.14755 0.29859
#
# Static dielectric constant tensor:
#      x y z
#    x 1.677260 0.000000 0.000000 
#    y 0.000000 1.623880 0.000000 
#    z 0.000000 0.000000 1.647650 
# 
# From -- ./inp_files/17378.got.cif
#   From: 2010.05.17/outbox.cif.g08.bks.cpg/sg62_9_cif.got.tgz:17378.got - 2010.06.03 15:25:27.
