data_PCOD9467928
_publ_section_title
;
Structure prediction by ZEFSAII (Michael W. Deem and Ramdas Pophale) SiO2 
 PCOD9467928
Probable space group: P N M A
;
_chemical_formula_sum "Si O2"
_cell_formula_units_Z 56
_cell_length_a 21.000000
_cell_length_b 9.000000
_cell_length_c 15.000000
_cell_angle_alpha 90.000000
_cell_angle_beta 90.000000
_cell_angle_gamma 90.000000
_cell_volume 2835.000000
_symmetry_space_group_name_H-M "P N M A"
_symmetry_group_IT_number 62
_symmetry_cell_setting 'orthorhombic'
loop_
_space_group_symop_operation_xyz
x,y,z
1/2-x,-y,1/2+z
1/2+x,1/2-y,1/2-z
-x,1/2+y,-z
-x,-y,-z
1/2+x,y,1/2-z
1/2-x,1/2+y,1/2+z
x,1/2-y,z
loop_
_atom_site_type_symbol
_atom_site_label
_atom_site_fract_x
_atom_site_fract_y
_atom_site_fract_z
Si Si1 0.816543 0.425133 0.444837
Si Si2 0.876515 0.430136 0.728695
Si Si3 0.660462 0.427736 0.749087
Si Si4 0.238887 0.070975 0.384137
Si Si5 0.552495 0.578798 0.058485
Si Si6 0.418521 0.925827 0.590247
Si Si7 0.054584 0.425864 0.891802
O O1 0.800087 0.250000 0.433138
O O2 0.826978 0.501120 0.347352
O O3 0.768333 0.504462 0.515199
O O4 0.882424 0.432509 0.501114
O O5 0.869110 0.250000 0.726878
O O6 0.819165 0.510001 0.676912
O O7 0.934979 0.469340 0.661015
O O8 0.882817 0.486695 0.830101
O O9 0.673892 0.250000 0.753815
O O10 0.702932 0.507291 0.673491
O O11 0.591225 0.444507 0.702006
O O12 0.238917 0.250000 0.388438
O O13 0.534284 0.750000 0.064421
O O14 0.500000 0.500000 0.000000
O O15 0.408901 0.750000 0.603576
O O16 0.406356 0.957818 0.484431
O O17 0.492156 0.973027 0.604015
O O18 0.036865 0.250000 0.898289
#
# Coordination Sequence:
#
# PCOD9467928 Si02
#       7
#     8   8   8   8   8   8   8
#     4  10  22  41  60  86 121 155 196 248 298 355
#     4  10  21  38  58  83 116 155 196 243 298 357
#     4  11  23  40  63  88 118 160 202 249 305 359
#     4  11  23  41  62  87 118 155 201 249 299 357
#     4   9  20  35  54  81 115 151 188 236 292 350
#     4  10  20  36  59  86 118 156 198 245 296 353
#     4   9  21  39  57  83 118 154 196 244 296 353
#
# _framework density 19.753086
#
# number of rings (size 3 to 8) (size 9 to 14) (size 15 to 20)
#    0.000    2.000    0.000    3.857    2.000    6.286 
#    0.000    4.286    0.000    0.000    0.000    0.000 
#    0.000    0.000    0.000    0.000    0.000    0.000 
#
# Total GULP energy -312288.473989 kJ/mol
# GULP energy per Si atom -5576.579893 kJ/mol
# Density = 1.970813 g / cm^3
# Si number density = 19.753086 Si / 1000 Ang^3
#
#
#
# Elastic Constant Matrix: (Units=GPa)
#
#
# Indices 1 2 3 4 5 6 
#
# 1 19.8300 15.8230 1.6740 0.0000 0.0000 0.0000
# 2 15.8230 108.1140 53.6030 0.0000 0.0000 0.0000
# 3 1.6740 53.6030 147.5900 0.0000 0.0000 0.0000
# 4 0.0000 0.0000 0.0000 46.7349 0.0000 0.0000
# 5 0.0000 0.0000 0.0000 0.0000 24.3989 0.0000
# 6 0.0000 0.0000 0.0000 0.0000 0.0000 26.3243
#
#
#
# Elastic Compliance Matrix: (Units=1/GPa)
#
#
# Indices 1 2 3 4 5 6 
#
# 1 0.058141 -0.009979 0.002965 0.000000 0.000000 0.000000
# 2 -0.009979 0.012994 -0.004606 0.000000 0.000000 0.000000
# 3 0.002965 -0.004606 0.008415 0.000000 0.000000 0.000000
# 4 0.000000 0.000000 0.000000 0.021397 0.000000 0.000000
# 5 0.000000 0.000000 0.000000 0.000000 0.040985 0.000000
# 6 0.000000 0.000000 0.000000 0.000000 0.000000 0.037988
#
#
# Mechanical properties :
#
#
# Convention : Reuss Voigt Hill
#
# Bulk Modulus (GPa) = 17.75920 46.41489 32.08705
# Shear Modulus (GPa) = 22.52963 33.12056 27.82509
#
# Velocity S-wave (km/s) = 3.38089 4.09923 3.75726
# Velocity P-wave (km/s) = 4.92449 6.77890 5.92470
#
# Compressibility (1/GPa) = 0.05630883
#
# Stress axis : x y z
#
# Youngs Moduli (GPa) = 17.19956 76.96071 118.83917
#
# Poissons Ratio (x) = 0.76801 -0.35234
# Poissons Ratio (y) = 0.17164 0.54737
# Poissons Ratio (z) = -0.05099 0.35448
#
# Static dielectric constant tensor:
#      x y z
#    x 1.801040 0.000000 0.000000 
#    y 0.000000 1.667290 0.000000 
#    z 0.000000 0.000000 1.689540 
# 
# From -- ./inp_files/20427.got.cif
#   From: 2010.05.17/outbox.ucp.g08.bks.cvg/sg62_11_cif.got.tgz:20427.got - 2010.06.11 16:29:25.
