data_PCOD9467268
_publ_section_title
;
Structure prediction by ZEFSAII (Michael W. Deem and Ramdas Pophale) SiO2 
 PCOD9467268
Probable space group: P N M A
;
_chemical_formula_sum "Si O2"
_cell_formula_units_Z 32
_cell_length_a 12.204534
_cell_length_b 15.272099
_cell_length_c 7.099906
_cell_angle_alpha 90.000000
_cell_angle_beta 90.000000
_cell_angle_gamma 90.000000
_cell_volume 1323.343325
_symmetry_space_group_name_H-M "P N M A"
_symmetry_group_IT_number 62
_symmetry_cell_setting 'orthorhombic'
loop_
_space_group_symop_operation_xyz
x,y,z
1/2-x,-y,1/2+z
1/2+x,1/2-y,1/2-z
-x,1/2+y,-z
-x,-y,-z
1/2+x,y,1/2-z
1/2-x,1/2+y,1/2+z
x,1/2-y,z
loop_
_atom_site_type_symbol
_atom_site_label
_atom_site_fract_x
_atom_site_fract_y
_atom_site_fract_z
Si Si1 0.231859 0.347632 0.946402
Si Si2 0.463200 0.149633 0.061748
Si Si3 0.607502 0.982646 0.618938
Si Si4 0.286492 0.650935 0.905430
O O1 0.195368 0.250000 0.892956
O O2 0.363117 0.354338 0.914806
O O3 0.211248 0.355902 0.174467
O O4 0.166964 0.425417 0.852052
O O5 0.454244 0.250000 0.141698
O O6 0.433096 0.072280 0.203094
O O7 0.590627 0.139032 0.019068
O O8 0.699604 0.920024 0.527199
O O9 0.500000 0.000000 0.500000
O O10 0.250916 0.750000 0.948485
#
# Coordination Sequence:
#
# PCOD9467268 Si02
#       4
#     8   8   8   8
#     4   9  18  31  49  73 102 134 169 212 254 297
#     4   9  18  35  55  76 101 131 173 218 252 294
#     4  11  19  28  51  80 102 131 170 210 254 304
#     4   9  18  33  52  75 101 131 172 216 253 294
#
# _framework density 24.181177000000002
#
# number of rings (size 3 to 8) (size 9 to 14) (size 15 to 20)
#    0.000    2.500    2.500    2.250    0.000    2.000 
#    0.000    0.000    0.000   13.500    0.000    0.000 
#    0.000    0.000    0.000    0.000    0.000    0.000 
#
# Total GULP energy -178896.683917 kJ/mol
# GULP energy per Si atom -5590.521372 kJ/mol
# Density = 2.412614 g / cm^3
# Si number density = 24.181177 Si / 1000 Ang^3
#
#
#
# Elastic Constant Matrix: (Units=GPa)
#
#
# Indices 1 2 3 4 5 6 
#
# 1 198.5990 126.5152 17.5916 0.0000 0.0000 0.0000
# 2 126.5152 238.5438 49.7959 0.0000 0.0000 0.0000
# 3 17.5916 49.7959 72.5373 0.0000 0.0000 0.0000
# 4 0.0000 0.0000 0.0000 14.0958 0.0000 0.0000
# 5 0.0000 0.0000 0.0000 0.0000 11.2511 0.0000
# 6 0.0000 0.0000 0.0000 0.0000 0.0000 51.9576
#
#
#
# Elastic Compliance Matrix: (Units=1/GPa)
#
#
# Indices 1 2 3 4 5 6 
#
# 1 0.007678 -0.004299 0.001090 0.000000 0.000000 0.000000
# 2 -0.004299 0.007301 -0.003969 0.000000 0.000000 0.000000
# 3 0.001090 -0.003969 0.016247 0.000000 0.000000 0.000000
# 4 0.000000 0.000000 0.000000 0.070943 0.000000 0.000000
# 5 0.000000 0.000000 0.000000 0.000000 0.088880 0.000000
# 6 0.000000 0.000000 0.000000 0.000000 0.000000 0.019246
#
#
# Mechanical properties :
#
#
# Convention : Reuss Voigt Hill
#
# Bulk Modulus (GPa) = 59.28788 99.72060 79.50424
# Shear Modulus (GPa) = 21.71308 36.51271 29.11289
#
# Velocity S-wave (km/s) = 2.99980 3.89004 3.47356
# Velocity P-wave (km/s) = 6.04730 7.84251 7.00267
#
# Compressibility (1/GPa) = 0.01686685
#
# Stress axis : x y z
#
# Youngs Moduli (GPa) = 130.24840 136.96880 61.55109
#
# Poissons Ratio (x) = 0.58888 -0.06706
# Poissons Ratio (y) = 0.55999 0.24432
# Poissons Ratio (z) = -0.14191 0.54367
#
# Static dielectric constant tensor:
#      x y z
#    x 1.920140 0.000000 0.000000 
#    y 0.000000 1.902440 0.000000 
#    z 0.000000 0.000000 2.028170 
# 
# From -- ./inp_files/4889.got.cif
#   From: 2010.05.17/outbox.cif.g08.bks.cpg/sg62_3_cif.got.tgz:4889.got - 2010.06.03 15:25:27.
