data_PCOD9467624
_publ_section_title
;
Structure prediction by ZEFSAII (Michael W. Deem and Ramdas Pophale) SiO2 
 PCOD9467624
Probable space group: P N M A
;
_chemical_formula_sum "Si O2"
_cell_formula_units_Z 36
_cell_length_a 10.253373
_cell_length_b 15.419534
_cell_length_c 8.864481
_cell_angle_alpha 90.000000
_cell_angle_beta 90.000000
_cell_angle_gamma 90.000000
_cell_volume 1401.494246
_symmetry_space_group_name_H-M "P N M A"
_symmetry_group_IT_number 62
_symmetry_cell_setting 'orthorhombic'
loop_
_space_group_symop_operation_xyz
x,y,z
1/2-x,-y,1/2+z
1/2+x,1/2-y,1/2-z
-x,1/2+y,-z
-x,-y,-z
1/2+x,y,1/2-z
1/2-x,1/2+y,1/2+z
x,1/2-y,z
loop_
_atom_site_type_symbol
_atom_site_label
_atom_site_fract_x
_atom_site_fract_y
_atom_site_fract_z
Si Si1 0.710898 0.353617 0.331368
Si Si2 0.001410 0.596148 0.580940
Si Si3 0.873783 0.080476 0.835417
Si Si4 0.847743 0.525052 0.107376
Si Si5 0.044980 0.750000 0.332960
O O1 0.716398 0.250000 0.344547
O O2 0.859740 0.388961 0.333052
O O3 0.615169 0.379528 0.195449
O O4 0.656207 0.395414 0.486393
O O5 0.009219 0.471397 0.823857
O O6 0.000000 0.500000 0.500000
O O7 0.003131 0.671239 0.451334
O O8 0.762476 0.045848 0.726097
O O9 0.904371 0.176144 0.787212
O O10 0.828351 0.059282 0.004306
#
# Coordination Sequence:
#
# PCOD9467624 Si02
#       5
#     8   8   8   8   4
#     4  12  25  53  86 123 173 235 302 371 451 544
#     4  12  27  54  89 130 180 235 299 382 452 546
#     4  11  27  52  87 120 170 221 292 366 435 536
#     4  11  27  53  81 123 165 230 289 365 447 528
#     4  12  24  56  88 130 172 234 300 356 452 538
#
# _framework density 25.686869999999999
#
# number of rings (size 3 to 8) (size 9 to 14) (size 15 to 20)
#    0.000    0.444    4.444    1.333    1.556    6.222 
#    4.000    0.000    2.444    0.000    0.000    0.000 
#    0.000    0.000    0.000    0.000    0.000    0.000 
#
# Total GULP energy -200891.206346 kJ/mol
# GULP energy per Si atom -5580.311287 kJ/mol
# Density = 2.562841 g / cm^3
# Si number density = 25.686870 Si / 1000 Ang^3
#
#
#
# Elastic Constant Matrix: (Units=GPa)
#
#
# Indices 1 2 3 4 5 6 
#
# 1 197.1676 72.5318 106.8376 0.0000 0.0000 0.0000
# 2 72.5318 248.8696 85.7145 0.0000 0.0000 0.0000
# 3 106.8376 85.7145 193.6830 0.0000 0.0000 0.0000
# 4 0.0000 0.0000 0.0000 57.2382 0.0000 0.0000
# 5 0.0000 0.0000 0.0000 0.0000 59.4575 0.0000
# 6 0.0000 0.0000 0.0000 0.0000 0.0000 32.2978
#
#
#
# Elastic Compliance Matrix: (Units=1/GPa)
#
#
# Indices 1 2 3 4 5 6 
#
# 1 0.007396 -0.000885 -0.003688 0.000000 0.000000 0.000000
# 2 -0.000885 0.004847 -0.001657 0.000000 0.000000 0.000000
# 3 -0.003688 -0.001657 0.007930 0.000000 0.000000 0.000000
# 4 0.000000 0.000000 0.000000 0.017471 0.000000 0.000000
# 5 0.000000 0.000000 0.000000 0.000000 0.016819 0.000000
# 6 0.000000 0.000000 0.000000 0.000000 0.000000 0.030962
#
#
# Mechanical properties :
#
#
# Convention : Reuss Voigt Hill
#
# Bulk Modulus (GPa) = 129.64185 129.98757 129.81471
# Shear Modulus (GPa) = 49.77355 54.77445 52.27400
#
# Velocity S-wave (km/s) = 4.40671 4.62279 4.51604
# Velocity P-wave (km/s) = 8.74482 8.89990 8.82270
#
# Compressibility (1/GPa) = 0.00771356
#
# Stress axis : x y z
#
# Youngs Moduli (GPa) = 135.21206 206.32417 126.09674
#
# Poissons Ratio (x) = 0.18267 0.46502
# Poissons Ratio (y) = 0.11971 0.20889
# Poissons Ratio (z) = 0.49863 0.34179
#
# Static dielectric constant tensor:
#      x y z
#    x 2.054910 0.000000 0.000000 
#    y 0.000000 2.007040 0.000000 
#    z 0.000000 0.000000 2.134020 
# 
# From -- ./inp_files/7391.got.cif
#   From: 2010.05.17/outbox.cif.g08.bks.cpg/sg62_4_cif.got.tgz:7391.got - 2010.06.03 15:25:27.
