data_PCOD9467774
_publ_section_title
;
Structure prediction by ZEFSAII (Michael W. Deem and Ramdas Pophale) SiO2 
 PCOD9467774
Probable space group: P N M A
;
_chemical_formula_sum "Si O2"
_cell_formula_units_Z 56
_cell_length_a 21.000000
_cell_length_b 9.000000
_cell_length_c 18.000000
_cell_angle_alpha 90.000000
_cell_angle_beta 90.000000
_cell_angle_gamma 90.000000
_cell_volume 3402.000000
_symmetry_space_group_name_H-M "P N M A"
_symmetry_group_IT_number 62
_symmetry_cell_setting 'orthorhombic'
loop_
_space_group_symop_operation_xyz
x,y,z
1/2-x,-y,1/2+z
1/2+x,1/2-y,1/2-z
-x,1/2+y,-z
-x,-y,-z
1/2+x,y,1/2-z
1/2-x,1/2+y,1/2+z
x,1/2-y,z
loop_
_atom_site_type_symbol
_atom_site_label
_atom_site_fract_x
_atom_site_fract_y
_atom_site_fract_z
Si Si1 0.309547 0.570036 0.930808
Si Si2 0.339524 0.068432 0.470250
Si Si3 0.409133 0.569139 0.614383
Si Si4 0.433628 0.570459 0.030773
Si Si5 0.888290 0.571394 0.713249
Si Si6 0.474469 0.572465 0.193473
Si Si7 0.449797 0.569434 0.364468
O O1 0.308654 0.750000 0.932414
O O2 0.235660 0.527353 0.951972
O O3 0.334369 0.525168 0.847451
O O4 0.368187 0.524857 0.987106
O O5 0.343396 0.250000 0.471131
O O6 0.365292 0.001849 0.549236
O O7 0.390574 0.002377 0.409896
O O8 0.412242 0.750000 0.606305
O O9 0.382474 0.534989 0.698259
O O10 0.481327 0.500450 0.611074
O O11 0.438254 0.750000 0.022520
O O12 0.433821 0.535345 0.119538
O O13 0.500000 0.500000 0.000000
O O14 0.891973 0.750000 0.709148
O O15 0.956523 0.505214 0.688865
O O16 0.484654 0.750000 0.192318
O O17 0.445561 0.538078 0.275213
O O18 0.450789 0.750000 0.375066
#
# Coordination Sequence:
#
# PCOD9467774 Si02
#       7
#     8   8   8   8   8   8   8
#     4   9  19  35  54  75 106 145 178 211 259 319
#     4  11  22  37  54  76 107 145 184 218 264 321
#     4  10  20  35  58  83 106 135 177 225 269 316
#     4  10  18  32  55  80 106 138 175 216 259 311
#     4   9  17  33  56  78 102 136 174 212 259 314
#     4   9  18  31  52  82 109 131 167 217 266 311
#     4  10  20  36  56  80 109 139 175 224 272 316
#
# _framework density 16.460905
#
# number of rings (size 3 to 8) (size 9 to 14) (size 15 to 20)
#    0.000    2.286    1.429    1.714    0.000    1.143 
#    2.571    2.857    0.000    0.000    0.000    0.000 
#    0.000    0.000    0.000    0.000    0.000    0.000 
#
# Total GULP energy -311915.471965 kJ/mol
# GULP energy per Si atom -5569.919142 kJ/mol
# Density = 1.642344 g / cm^3
# Si number density = 16.460905 Si / 1000 Ang^3
#
#
#
# Elastic Constant Matrix: (Units=GPa)
#
#
# Indices 1 2 3 4 5 6 
#
# 1 156.2210 34.3790 91.2483 0.0000 0.0000 0.0000
# 2 34.3790 53.1069 35.6159 0.0000 0.0000 0.0000
# 3 91.2483 35.6159 157.8023 0.0000 0.0000 0.0000
# 4 0.0000 0.0000 0.0000 24.6527 0.0000 0.0000
# 5 0.0000 0.0000 0.0000 0.0000 35.6651 0.0000
# 6 0.0000 0.0000 0.0000 0.0000 0.0000 30.5017
#
#
#
# Elastic Compliance Matrix: (Units=1/GPa)
#
#
# Indices 1 2 3 4 5 6 
#
# 1 0.010076 -0.003082 -0.005131 0.000000 0.000000 0.000000
# 2 -0.003082 0.023131 -0.003439 0.000000 0.000000 0.000000
# 3 -0.005131 -0.003439 0.010080 0.000000 0.000000 0.000000
# 4 0.000000 0.000000 0.000000 0.040563 0.000000 0.000000
# 5 0.000000 0.000000 0.000000 0.000000 0.028039 0.000000
# 6 0.000000 0.000000 0.000000 0.000000 0.000000 0.032785
#
#
# Mechanical properties :
#
#
# Convention : Reuss Voigt Hill
#
# Bulk Modulus (GPa) = 50.03855 76.62406 63.33131
# Shear Modulus (GPa) = 28.63041 31.88971 30.26006
#
# Velocity S-wave (km/s) = 4.17501 4.40625 4.29219
# Velocity P-wave (km/s) = 7.32840 8.51686 7.94488
#
# Compressibility (1/GPa) = 0.01998459
#
# Stress axis : x y z
#
# Youngs Moduli (GPa) = 99.24121 43.23181 99.20503
#
# Poissons Ratio (x) = 0.13324 0.50903
# Poissons Ratio (y) = 0.30585 0.34112
# Poissons Ratio (z) = 0.50921 0.14866
#
# Static dielectric constant tensor:
#      x y z
#    x 1.533750 0.000000 0.000000 
#    y 0.000000 1.554380 0.000000 
#    z 0.000000 0.000000 1.603270 
# 
# From -- ./inp_files/24658.got.cif
#   From: 2010.05.17/outbox.ucp.g08.bks.cvg/sg62_13_cif.got.tgz:24658.got - 2010.06.11 16:29:25.
