data_PCOD9467851
_publ_section_title
;
Structure prediction by ZEFSAII (Michael W. Deem and Ramdas Pophale) SiO2 
 PCOD9467851
Probable space group: P N M A
;
_chemical_formula_sum "Si O2"
_cell_formula_units_Z 48
_cell_length_a 15.000000
_cell_length_b 9.000000
_cell_length_c 21.000000
_cell_angle_alpha 90.000000
_cell_angle_beta 90.000000
_cell_angle_gamma 90.000000
_cell_volume 2835.000000
_symmetry_space_group_name_H-M "P N M A"
_symmetry_group_IT_number 62
_symmetry_cell_setting 'orthorhombic'
loop_
_space_group_symop_operation_xyz
x,y,z
1/2-x,-y,1/2+z
1/2+x,1/2-y,1/2-z
-x,1/2+y,-z
-x,-y,-z
1/2+x,y,1/2-z
1/2-x,1/2+y,1/2+z
x,1/2-y,z
loop_
_atom_site_type_symbol
_atom_site_label
_atom_site_fract_x
_atom_site_fract_y
_atom_site_fract_z
Si Si1 0.938809 0.929075 0.189662
Si Si2 0.755018 0.931020 0.890073
Si Si3 0.952254 0.069777 0.435948
Si Si4 0.554795 0.929562 0.185811
Si Si5 0.052607 0.567028 0.062566
Si Si6 0.747565 0.930564 0.246124
O O1 0.936498 0.750000 0.186707
O O2 0.836775 0.974900 0.206324
O O3 0.997510 0.969721 0.251386
O O4 0.990485 0.973325 0.124580
O O5 0.763660 0.750000 0.889789
O O6 0.655507 0.964477 0.922370
O O7 0.845599 0.001670 0.923973
O O8 0.753350 0.994044 0.816751
O O9 0.957977 0.250000 0.439629
O O10 0.000000 0.000000 0.500000
O O11 0.009998 0.008871 0.375393
O O12 0.549126 0.750000 0.176274
O O13 0.657647 0.964137 0.205420
O O14 0.057824 0.750000 0.058179
O O15 0.000000 0.500000 0.000000
O O16 0.749304 0.750000 0.255694
#
# Coordination Sequence:
#
# PCOD9467851 Si02
#       6
#     8   8   8   8   8   8
#     4   9  18  34  59  88 118 153 198 241 289 356
#     4  11  23  39  60  88 119 156 200 251 307 362
#     4  11  25  42  61  88 122 160 201 253 308 364
#     4  10  19  35  61  90 117 155 200 243 295 358
#     4  11  23  41  62  90 125 164 205 248 302 363
#     4  10  19  35  61  90 119 157 200 245 298 359
#
# _framework density 16.931217
#
# number of rings (size 3 to 8) (size 9 to 14) (size 15 to 20)
#    0.000    1.667    3.333    1.500    0.000    4.000 
#    0.000    5.000    0.000    0.000    0.000    0.000 
#    0.000    0.000    0.000    0.000    0.000    0.000 
#
# Total GULP energy -267421.345912 kJ/mol
# GULP energy per Si atom -5571.278040 kJ/mol
# Density = 1.689268 g / cm^3
# Si number density = 16.931217 Si / 1000 Ang^3
#
#
#
# Elastic Constant Matrix: (Units=GPa)
#
#
# Indices 1 2 3 4 5 6 
#
# 1 207.4617 47.6486 90.2179 0.0000 0.0000 0.0000
# 2 47.6486 79.2565 44.7512 0.0000 0.0000 0.0000
# 3 90.2179 44.7512 168.0831 0.0000 0.0000 0.0000
# 4 0.0000 0.0000 0.0000 38.1065 0.0000 0.0000
# 5 0.0000 0.0000 0.0000 0.0000 43.0455 0.0000
# 6 0.0000 0.0000 0.0000 0.0000 0.0000 33.0780
#
#
#
# Elastic Compliance Matrix: (Units=1/GPa)
#
#
# Indices 1 2 3 4 5 6 
#
# 1 0.006634 -0.002328 -0.002941 0.000000 0.000000 0.000000
# 2 -0.002328 0.015666 -0.002922 0.000000 0.000000 0.000000
# 3 -0.002941 -0.002922 0.008306 0.000000 0.000000 0.000000
# 4 0.000000 0.000000 0.000000 0.026242 0.000000 0.000000
# 5 0.000000 0.000000 0.000000 0.000000 0.023231 0.000000
# 6 0.000000 0.000000 0.000000 0.000000 0.000000 0.030232
#
#
# Mechanical properties :
#
#
# Convention : Reuss Voigt Hill
#
# Bulk Modulus (GPa) = 70.29682 91.11519 80.70601
# Shear Modulus (GPa) = 38.04218 40.99158 39.51688
#
# Velocity S-wave (km/s) = 4.74525 4.92577 4.83635
# Velocity P-wave (km/s) = 8.46360 9.28885 8.88581
#
# Compressibility (1/GPa) = 0.01422539
#
# Stress axis : x y z
#
# Youngs Moduli (GPa) = 150.74692 63.83115 120.39727
#
# Poissons Ratio (x) = 0.14857 0.35407
# Poissons Ratio (y) = 0.35088 0.35177
# Poissons Ratio (z) = 0.44333 0.18650
#
# Static dielectric constant tensor:
#      x y z
#    x 1.604770 0.000000 0.000000 
#    y 0.000000 1.580750 0.000000 
#    z 0.000000 0.000000 1.567430 
# 
# From -- ./inp_files/26888.got.cif
#   From: 2010.05.17/outbox.ucp.g08.bks.cvg/sg62_14_cif.got.tgz:26888.got - 2010.06.11 16:29:25.
