data_PCOD9467107
_publ_section_title
;
Structure prediction by ZEFSAII (Michael W. Deem and Ramdas Pophale) SiO2 
 PCOD9467107
Probable space group: P N M A
;
_chemical_formula_sum "Si O2"
_cell_formula_units_Z 36
_cell_length_a 13.597524
_cell_length_b 14.700814
_cell_length_c 8.237820
_cell_angle_alpha 90.000000
_cell_angle_beta 90.000000
_cell_angle_gamma 90.000000
_cell_volume 1646.696320
_symmetry_space_group_name_H-M "P N M A"
_symmetry_group_IT_number 62
_symmetry_cell_setting 'orthorhombic'
loop_
_space_group_symop_operation_xyz
x,y,z
1/2-x,-y,1/2+z
1/2+x,1/2-y,1/2-z
-x,1/2+y,-z
-x,-y,-z
1/2+x,y,1/2-z
1/2-x,1/2+y,1/2+z
x,1/2-y,z
loop_
_atom_site_type_symbol
_atom_site_label
_atom_site_fract_x
_atom_site_fract_y
_atom_site_fract_z
Si Si1 0.801362 0.750000 0.596488
Si Si2 0.853354 0.557118 0.659345
Si Si3 0.959467 0.436726 0.141309
Si Si4 0.582053 0.750000 0.469220
Si Si5 0.197681 0.060816 0.718308
Si Si6 0.403077 0.750000 0.230662
O O1 0.809276 0.657770 0.700700
O O2 0.702426 0.750000 0.481761
O O3 0.891890 0.750000 0.466277
O O4 0.966946 0.560775 0.707170
O O5 0.809565 0.468098 0.749599
O O6 0.830105 0.551183 0.469434
O O7 0.949103 0.337623 0.069826
O O8 0.857125 0.480253 0.189453
O O9 0.000000 0.500000 0.000000
O O10 0.513391 0.750000 0.306228
O O11 0.155521 0.157556 0.779159
#
# Coordination Sequence:
#
# PCOD9467107 Si02
#       6
#     4   8   8   4   8   4
#     4  10  23  45  67  98 138 177 222 276 338 398
#     4  11  24  43  68  97 138 174 225 279 334 405
#     4  12  24  42  69  97 133 180 223 280 334 400
#     4  12  23  43  69 100 132 175 232 270 344 394
#     4  11  23  43  63 100 130 180 222 276 339 395
#     4  10  24  38  68  96 136 174 220 278 326 400
#
# _framework density 21.861954999999998
#
# number of rings (size 3 to 8) (size 9 to 14) (size 15 to 20)
#    0.000    0.889    4.444    2.667    3.111    0.000 
#    0.000    1.111    0.000    0.000    0.000    0.000 
#    0.000    0.000    0.000    0.000    0.000    0.000 
#
# Total GULP energy -200942.135087 kJ/mol
# GULP energy per Si atom -5581.725975 kJ/mol
# Density = 2.181220 g / cm^3
# Si number density = 21.861955 Si / 1000 Ang^3
#
#
#
# Elastic Constant Matrix: (Units=GPa)
#
#
# Indices 1 2 3 4 5 6 
#
# 1 67.7012 -2.2668 0.0452 0.0000 0.0000 0.0000
# 2 -2.2668 131.6804 9.1697 0.0000 0.0000 0.0000
# 3 0.0452 9.1697 47.1357 0.0000 0.0000 0.0000
# 4 0.0000 0.0000 0.0000 13.4109 0.0000 0.0000
# 5 0.0000 0.0000 0.0000 0.0000 36.5587 0.0000
# 6 0.0000 0.0000 0.0000 0.0000 0.0000 17.6130
#
#
#
# Elastic Compliance Matrix: (Units=1/GPa)
#
#
# Indices 1 2 3 4 5 6 
#
# 1 0.014779 0.000259 -0.000065 0.000000 0.000000 0.000000
# 2 0.000259 0.007703 -0.001499 0.000000 0.000000 0.000000
# 3 -0.000065 -0.001499 0.021507 0.000000 0.000000 0.000000
# 4 0.000000 0.000000 0.000000 0.074566 0.000000 0.000000
# 5 0.000000 0.000000 0.000000 0.000000 0.027353 0.000000
# 6 0.000000 0.000000 0.000000 0.000000 0.000000 0.056776
#
#
# Mechanical properties :
#
#
# Convention : Reuss Voigt Hill
#
# Bulk Modulus (GPa) = 24.16589 28.93485 26.55037
# Shear Modulus (GPa) = 22.82194 29.48780 26.15487
#
# Velocity S-wave (km/s) = 3.23447 3.67661 3.46260
# Velocity P-wave (km/s) = 5.00269 5.59350 5.30632
#
# Compressibility (1/GPa) = 0.04138065
#
# Stress axis : x y z
#
# Youngs Moduli (GPa) = 67.66131 129.82006 46.49654
#
# Poissons Ratio (x) = -0.03361 0.00300
# Poissons Ratio (y) = -0.01752 0.06969
# Poissons Ratio (z) = 0.00437 0.19457
#
# Static dielectric constant tensor:
#      x y z
#    x 1.847960 0.000000 0.000000 
#    y 0.000000 1.818930 0.000000 
#    z 0.000000 0.000000 1.779830 
# 
# From -- ./inp_files/6039.got.cif
#   From: 2010.05.17/outbox.cif.g08.bks.cpg/sg62_4_cif.got.tgz:6039.got - 2010.06.03 15:25:27.
