data_PCOD9467055
_publ_section_title
;
Structure prediction by ZEFSAII (Michael W. Deem and Ramdas Pophale) SiO2 
 PCOD9467055
Probable space group: P N M A
;
_chemical_formula_sum "Si O2"
_cell_formula_units_Z 44
_cell_length_a 11.496366
_cell_length_b 18.897110
_cell_length_c 8.391717
_cell_angle_alpha 90.000000
_cell_angle_beta 90.000000
_cell_angle_gamma 90.000000
_cell_volume 1823.084514
_symmetry_space_group_name_H-M "P N M A"
_symmetry_group_IT_number 62
_symmetry_cell_setting 'orthorhombic'
loop_
_space_group_symop_operation_xyz
x,y,z
1/2-x,-y,1/2+z
1/2+x,1/2-y,1/2-z
-x,1/2+y,-z
-x,-y,-z
1/2+x,y,1/2-z
1/2-x,1/2+y,1/2+z
x,1/2-y,z
loop_
_atom_site_type_symbol
_atom_site_label
_atom_site_fract_x
_atom_site_fract_y
_atom_site_fract_z
Si Si1 0.395023 0.029942 0.893498
Si Si2 0.210861 0.532743 0.702764
Si Si3 0.805877 0.750000 0.145267
Si Si4 0.976434 0.371538 0.119507
Si Si5 0.854428 0.750000 0.776117
Si Si6 0.321186 0.250000 0.525663
Si Si7 0.073154 0.100845 0.808902
O O1 0.454125 0.090190 0.789645
O O2 0.702968 0.947234 0.981364
O O3 0.664420 0.030320 0.214034
O O4 0.500000 0.000000 0.000000
O O5 0.115204 0.582430 0.783442
O O6 0.165046 0.452122 0.726535
O O7 0.712039 0.750000 0.288146
O O8 0.879049 0.679579 0.182373
O O9 0.785739 0.750000 0.950296
O O10 0.898280 0.317879 0.015506
O O11 0.063405 0.319694 0.215401
O O12 0.042902 0.418697 0.990151
O O13 0.779642 0.750000 0.613330
#
# Coordination Sequence:
#
# PCOD9467055 Si02
#       7
#     8   8   4   8   4   4   8
#     4  10  24  40  64  98 134 177 232 281 354 421
#     4  11  23  40  68  96 139 181 227 290 353 418
#     4  10  24  42  72  93 138 181 225 288 342 422
#     4  10  23  43  66  99 134 177 226 292 343 420
#     4   9  23  47  64 106 134 176 237 279 357 409
#     4  11  25  41  74  93 140 177 234 285 347 419
#     4  10  23  44  65  99 133 181 230 288 354 420
#
# _framework density 24.134920000000001
#
# number of rings (size 3 to 8) (size 9 to 14) (size 15 to 20)
#    0.000    1.818    0.000    2.182   10.182    5.818 
#    0.000    1.818    0.000    0.000    0.000    0.000 
#    0.000    0.000    0.000    0.000    0.000    0.000 
#
# Total GULP energy -245977.929754 kJ/mol
# GULP energy per Si atom -5590.407494 kJ/mol
# Density = 2.407999 g / cm^3
# Si number density = 24.134920 Si / 1000 Ang^3
#
#
#
# Elastic Constant Matrix: (Units=GPa)
#
#
# Indices 1 2 3 4 5 6 
#
# 1 93.0782 5.5918 35.1996 0.0000 0.0000 0.0000
# 2 5.5918 95.1707 7.2048 0.0000 0.0000 0.0000
# 3 35.1996 7.2048 85.9143 0.0000 0.0000 0.0000
# 4 0.0000 0.0000 0.0000 49.5635 0.0000 0.0000
# 5 0.0000 0.0000 0.0000 0.0000 52.1397 0.0000
# 6 0.0000 0.0000 0.0000 0.0000 0.0000 32.3884
#
#
#
# Elastic Compliance Matrix: (Units=1/GPa)
#
#
# Indices 1 2 3 4 5 6 
#
# 1 0.012725 -0.000355 -0.005184 0.000000 0.000000 0.000000
# 2 -0.000355 0.010584 -0.000742 0.000000 0.000000 0.000000
# 3 -0.005184 -0.000742 0.013826 0.000000 0.000000 0.000000
# 4 0.000000 0.000000 0.000000 0.020176 0.000000 0.000000
# 5 0.000000 0.000000 0.000000 0.000000 0.019179 0.000000
# 6 0.000000 0.000000 0.000000 0.000000 0.000000 0.030875
#
#
# Mechanical properties :
#
#
# Convention : Reuss Voigt Hill
#
# Bulk Modulus (GPa) = 40.69492 41.12839 40.91165
# Shear Modulus (GPa) = 39.02605 41.89612 40.46109
#
# Velocity S-wave (km/s) = 4.02555 4.17095 4.09889
# Velocity P-wave (km/s) = 6.20522 6.34616 6.27609
#
# Compressibility (1/GPa) = 0.02457309
#
# Stress axis : x y z
#
# Youngs Moduli (GPa) = 78.58303 94.47786 72.32958
#
# Poissons Ratio (x) = 0.03356 0.37495
# Poissons Ratio (y) = 0.02792 0.05367
# Poissons Ratio (z) = 0.40736 0.07011
#
# Static dielectric constant tensor:
#      x y z
#    x 2.049230 0.000000 0.000000 
#    y 0.000000 1.904630 0.000000 
#    z 0.000000 0.000000 2.005490 
# 
# From -- ./inp_files/5272.got.cif
#   From: 2010.05.17/outbox.cif.g08.bks.cpg/sg62_3_cif.got.tgz:5272.got - 2010.06.03 15:25:27.
