data_PCOD9467688
_publ_section_title
;
Structure prediction by ZEFSAII (Michael W. Deem and Ramdas Pophale) SiO2 
 PCOD9467688
Probable space group: P N M A
;
_chemical_formula_sum "Si O2"
_cell_formula_units_Z 32
_cell_length_a 13.137332
_cell_length_b 19.994706
_cell_length_c 5.127880
_cell_angle_alpha 90.000000
_cell_angle_beta 90.000000
_cell_angle_gamma 90.000000
_cell_volume 1346.976601
_symmetry_space_group_name_H-M "P N M A"
_symmetry_group_IT_number 62
_symmetry_cell_setting 'orthorhombic'
loop_
_space_group_symop_operation_xyz
x,y,z
1/2-x,-y,1/2+z
1/2+x,1/2-y,1/2-z
-x,1/2+y,-z
-x,-y,-z
1/2+x,y,1/2-z
1/2-x,1/2+y,1/2+z
x,1/2-y,z
loop_
_atom_site_type_symbol
_atom_site_label
_atom_site_fract_x
_atom_site_fract_y
_atom_site_fract_z
Si Si1 0.245462 0.890054 0.582014
Si Si2 0.069949 0.871995 0.301948
Si Si3 0.951088 0.672441 0.779064
Si Si4 0.379461 0.483763 0.485593
O O1 0.332275 0.842919 0.702136
O O2 0.173833 0.840682 0.411288
O O3 0.318172 0.947997 0.460036
O O4 0.174413 0.930065 0.792321
O O5 0.991202 0.870440 0.536285
O O6 0.121110 0.944953 0.259801
O O7 0.014008 0.846212 0.043159
O O8 0.969986 0.750000 0.722613
O O9 0.500000 0.500000 0.500000
#
# Coordination Sequence:
#
# PCOD9467688 Si02
#       4
#     8   8   8   8
#     4  12  26  45  80 115 152 201 242 316 390 461
#     4  12  26  50  75 111 150 195 250 314 377 446
#     4  12  30  51  74 106 152 206 262 310 365 452
#     4  12  25  45  78 117 157 184 249 315 394 454
#
# _framework density 23.756907999999999
#
# number of rings (size 3 to 8) (size 9 to 14) (size 15 to 20)
#    0.000    0.000    7.500    0.750    7.000    4.000 
#    0.000    0.000    0.000    0.000    0.000    0.000 
#    0.000    0.000    0.000    0.000    0.000    0.000 
#
# Total GULP energy -178209.231937 kJ/mol
# GULP energy per Si atom -5569.038498 kJ/mol
# Density = 2.370284 g / cm^3
# Si number density = 23.756908 Si / 1000 Ang^3
#
#
#
# Elastic Constant Matrix: (Units=GPa)
#
#
# Indices 1 2 3 4 5 6 
#
# 1 149.9720 17.6548 36.9646 0.0000 0.0000 0.0000
# 2 17.6548 36.9510 2.1759 0.0000 0.0000 0.0000
# 3 36.9646 2.1759 116.4019 0.0000 0.0000 0.0000
# 4 0.0000 0.0000 0.0000 11.7582 0.0000 0.0000
# 5 0.0000 0.0000 0.0000 0.0000 33.1475 0.0000
# 6 0.0000 0.0000 0.0000 0.0000 0.0000 -27.4855
#
#
#
# Elastic Compliance Matrix: (Units=1/GPa)
#
#
# Indices 1 2 3 4 5 6 
#
# 1 0.007667 -0.003524 -0.002369 0.000000 0.000000 0.000000
# 2 -0.003524 0.028712 0.000582 0.000000 0.000000 0.000000
# 3 -0.002369 0.000582 0.009332 0.000000 0.000000 0.000000
# 4 0.000000 0.000000 0.000000 0.085047 0.000000 0.000000
# 5 0.000000 0.000000 0.000000 0.000000 0.030168 0.000000
# 6 0.000000 0.000000 0.000000 0.000000 0.000000 -0.036383
#
#
# Mechanical properties :
#
#
# Convention : Reuss Voigt Hill
#
# Bulk Modulus (GPa) = 28.49747 46.32393 37.41070
# Shear Modulus (GPa) = 34.04594 19.91935 26.98264
#
# Velocity S-wave (km/s) = 3.78973 2.89877 3.37379
# Velocity P-wave (km/s) = 5.58309 5.54484 5.56400
#
# Compressibility (1/GPa) = 0.03509083
#
# Stress axis : x y z
#
# Youngs Moduli (GPa) = 130.43697 34.82857 107.15521
#
# Poissons Ratio (x) = 0.12272 0.25382
# Poissons Ratio (y) = 0.45960 -0.06239
# Poissons Ratio (z) = 0.30897 -0.02028
#
# Static dielectric constant tensor:
#      x y z
#    x 2.527180 0.000000 0.000000 
#    y 0.000000 2.282180 0.000000 
#    z 0.000000 0.000000 2.551700 
# 
# From -- ./inp_files/423.got.cif
#   From: 2010.05.17/outbox.cif.g08.bks.cpg/sg62_1_cif.got.tgz:423.got - 2010.06.03 15:25:27.
