data_PCOD9467906
_publ_section_title
;
Structure prediction by ZEFSAII (Michael W. Deem and Ramdas Pophale) SiO2 
 PCOD9467906
Probable space group: P N M A
;
_chemical_formula_sum "Si O2"
_cell_formula_units_Z 56
_cell_length_a 15.000000
_cell_length_b 9.000000
_cell_length_c 21.000000
_cell_angle_alpha 90.000000
_cell_angle_beta 90.000000
_cell_angle_gamma 90.000000
_cell_volume 2835.000000
_symmetry_space_group_name_H-M "P N M A"
_symmetry_group_IT_number 62
_symmetry_cell_setting 'orthorhombic'
loop_
_space_group_symop_operation_xyz
x,y,z
1/2-x,-y,1/2+z
1/2+x,1/2-y,1/2-z
-x,1/2+y,-z
-x,-y,-z
1/2+x,y,1/2-z
1/2-x,1/2+y,1/2+z
x,1/2-y,z
loop_
_atom_site_type_symbol
_atom_site_label
_atom_site_fract_x
_atom_site_fract_y
_atom_site_fract_z
Si Si1 0.918296 0.430077 0.174522
Si Si2 0.606206 0.429553 0.264646
Si Si3 0.697137 0.928890 0.792550
Si Si4 0.717439 0.428873 0.018194
Si Si5 0.888365 0.072252 0.625751
Si Si6 0.587520 0.571196 0.529041
Si Si7 0.912886 0.571403 0.405887
O O1 0.917048 0.250000 0.174118
O O2 0.842074 0.476492 0.223982
O O3 0.904844 0.477658 0.102485
O O4 0.015973 0.475208 0.199615
O O5 0.604368 0.250000 0.257230
O O6 0.698997 0.468591 0.299108
O O7 0.608827 0.504420 0.195872
O O8 0.689956 0.750000 0.796752
O O9 0.634630 0.000894 0.845085
O O10 0.714692 0.250000 0.025354
O O11 0.690115 0.502018 0.084461
O O12 0.817767 0.469023 0.997584
O O13 0.644191 0.475860 0.966787
O O14 0.881220 0.250000 0.628003
O O15 0.983271 0.030970 0.593334
O O16 0.500000 0.500000 0.500000
O O17 0.578646 0.750000 0.526860
O O18 0.907747 0.750000 0.401439
#
# Coordination Sequence:
#
# PCOD9467906 Si02
#       7
#     8   8   8   8   8   8   8
#     4   9  18  35  56  81 112 144 185 232 277 336
#     4  10  20  35  58  84 112 149 189 233 289 347
#     4  10  20  35  59  86 110 149 196 236 282 342
#     4  10  22  40  60  81 116 162 197 234 290 351
#     4  11  22  37  58  88 118 148 192 244 293 344
#     4  10  22  40  61  86 116 153 197 242 288 344
#     4  10  22  38  56  84 120 153 189 240 298 347
#
# _framework density 19.753086
#
# number of rings (size 3 to 8) (size 9 to 14) (size 15 to 20)
#    0.000    2.000    1.429    1.714    2.000    4.571 
#    0.000    1.429    0.000    0.000    0.000    0.000 
#    0.000    0.000    0.000    0.000    0.000    0.000 
#
# Total GULP energy -312656.041106 kJ/mol
# GULP energy per Si atom -5583.143591 kJ/mol
# Density = 1.970813 g / cm^3
# Si number density = 19.753086 Si / 1000 Ang^3
#
#
#
# Elastic Constant Matrix: (Units=GPa)
#
#
# Indices 1 2 3 4 5 6 
#
# 1 111.8789 18.8129 10.1245 0.0000 0.0000 0.0000
# 2 18.8129 -3.8292 5.5932 0.0000 0.0000 0.0000
# 3 10.1245 5.5932 53.3839 0.0000 0.0000 0.0000
# 4 0.0000 0.0000 0.0000 19.0654 0.0000 0.0000
# 5 0.0000 0.0000 0.0000 0.0000 28.1332 0.0000
# 6 0.0000 0.0000 0.0000 0.0000 0.0000 22.0953
#
#
#
# Elastic Compliance Matrix: (Units=1/GPa)
#
#
# Indices 1 2 3 4 5 6 
#
# 1 0.005515 0.022173 -0.003369 0.000000 0.000000 0.000000
# 2 0.022173 -0.137341 0.010184 0.000000 0.000000 0.000000
# 3 -0.003369 0.010184 0.018304 0.000000 0.000000 0.000000
# 4 0.000000 0.000000 0.000000 0.052451 0.000000 0.000000
# 5 0.000000 0.000000 0.000000 0.000000 0.035545 0.000000
# 6 0.000000 0.000000 0.000000 0.000000 0.000000 0.045258
#
#
# Mechanical properties :
#
#
# Convention : Reuss Voigt Hill
#
# Bulk Modulus (GPa) = -18.00318 25.61052 3.80367
# Shear Modulus (GPa) = -88.09184 22.31899 -32.88642
#
# Velocity S-wave (km/s) = -6.68531 3.36504 -4.08471
# Velocity P-wave (km/s) = 8.29005 5.30014 4.50741
#
# Compressibility (1/GPa) = -0.05554575
#
# Stress axis : x y z
#
# Youngs Moduli (GPa) = 181.33412 -7.28116 54.63246
#
# Poissons Ratio (x) = 0.16144 0.18406
# Poissons Ratio (y) = -4.02068 -0.55640
# Poissons Ratio (z) = 0.61091 0.07415
#
# Static dielectric constant tensor:
#      x y z
#    x 1.697880 0.000000 0.000000 
#    y 0.000000 1.652750 0.000000 
#    z 0.000000 0.000000 1.685330 
# 
# From -- ./inp_files/27088.got.cif
#   From: 2010.05.17/outbox.ucp.g08.bks.cvg/sg62_14_cif.got.tgz:27088.got - 2010.06.11 16:29:25.
