data_PCOD9467333
_publ_section_title
;
Structure prediction by ZEFSAII (Michael W. Deem and Ramdas Pophale) SiO2 
 PCOD9467333
Probable space group: P N M A
;
_chemical_formula_sum "Si O2"
_cell_formula_units_Z 48
_cell_length_a 8.041092
_cell_length_b 15.576534
_cell_length_c 17.206862
_cell_angle_alpha 90.000000
_cell_angle_beta 90.000000
_cell_angle_gamma 90.000000
_cell_volume 2155.199780
_symmetry_space_group_name_H-M "P N M A"
_symmetry_group_IT_number 62
_symmetry_cell_setting 'orthorhombic'
loop_
_space_group_symop_operation_xyz
x,y,z
1/2-x,-y,1/2+z
1/2+x,1/2-y,1/2-z
-x,1/2+y,-z
-x,-y,-z
1/2+x,y,1/2-z
1/2-x,1/2+y,1/2+z
x,1/2-y,z
loop_
_atom_site_type_symbol
_atom_site_label
_atom_site_fract_x
_atom_site_fract_y
_atom_site_fract_z
Si Si1 0.880674 0.155004 0.843410
Si Si2 0.382750 0.598126 0.568376
Si Si3 0.401934 0.520219 0.868547
Si Si4 0.744751 0.474647 0.285785
Si Si5 0.746156 0.842715 0.084318
Si Si6 0.271168 0.409640 0.504551
O O1 0.864611 0.250000 0.807556
O O2 0.832532 0.071295 0.793910
O O3 0.070480 0.145616 0.875527
O O4 0.764034 0.149499 0.920219
O O5 0.352079 0.592868 0.659654
O O6 0.277671 0.654596 0.508391
O O7 0.330284 0.501695 0.539876
O O8 0.572668 0.617353 0.547872
O O9 0.574271 0.525439 0.823857
O O10 0.265067 0.546426 0.804547
O O11 0.364776 0.422662 0.892345
O O12 0.382044 0.575028 0.947209
O O13 0.680780 0.750000 0.107743
#
# Coordination Sequence:
#
# PCOD9467333 Si02
#       6
#     8   8   8   8   8   8
#     4   9  18  33  52  73  98 127 156 189 234 286
#     4   8  15  30  50  70  93 122 157 194 232 278
#     4  11  21  32  48  70  97 128 161 198 237 278
#     4  11  21  32  48  70  97 128 161 198 237 278
#     4   9  18  33  52  73  98 127 156 189 234 286
#     4   8  15  30  50  70  93 122 157 194 232 278
#
# _framework density 22.271716999999999
#
# number of rings (size 3 to 8) (size 9 to 14) (size 15 to 20)
#    0.000    2.667    0.000    5.000    0.000    7.333 
#    0.000    0.000    0.000    1.000    0.000    0.000 
#    0.000    0.000    0.000    0.000    0.000    0.000 
#
# Total GULP energy -267889.446598 kJ/mol
# GULP energy per Si atom -5581.030137 kJ/mol
# Density = 2.222103 g / cm^3
# Si number density = 22.271717 Si / 1000 Ang^3
#
#
#
# Elastic Constant Matrix: (Units=GPa)
#
#
# Indices 1 2 3 4 5 6 
#
# 1 54.1762 1.2167 1.2540 0.0000 0.0000 0.0000
# 2 1.2167 19.2870 1.1958 0.0000 0.0000 0.0000
# 3 1.2540 1.1958 80.3047 0.0000 0.0000 0.0000
# 4 0.0000 0.0000 0.0000 7.1490 0.0000 0.0000
# 5 0.0000 0.0000 0.0000 0.0000 37.7120 0.0000
# 6 0.0000 0.0000 0.0000 0.0000 0.0000 9.4148
#
#
#
# Elastic Compliance Matrix: (Units=1/GPa)
#
#
# Indices 1 2 3 4 5 6 
#
# 1 0.018490 -0.001150 -0.000272 0.000000 0.000000 0.000000
# 2 -0.001150 0.051968 -0.000756 0.000000 0.000000 0.000000
# 3 -0.000272 -0.000756 0.012468 0.000000 0.000000 0.000000
# 4 0.000000 0.000000 0.000000 0.139880 0.000000 0.000000
# 5 0.000000 0.000000 0.000000 0.000000 0.026517 0.000000
# 6 0.000000 0.000000 0.000000 0.000000 0.000000 0.106216
#
#
# Mechanical properties :
#
#
# Convention : Reuss Voigt Hill
#
# Bulk Modulus (GPa) = 12.72719 17.90010 15.31364
# Shear Modulus (GPa) = 12.95055 20.86191 16.90623
#
# Velocity S-wave (km/s) = 2.41401 3.06388 2.75815
# Velocity P-wave (km/s) = 3.67380 4.53553 4.12722
#
# Compressibility (1/GPa) = 0.07857191
#
# Stress axis : x y z
#
# Youngs Moduli (GPa) = 54.08213 19.24274 80.20484
#
# Poissons Ratio (x) = 0.02212 0.02178
# Poissons Ratio (y) = 0.06217 0.06063
# Poissons Ratio (z) = 0.01469 0.01455
#
# Static dielectric constant tensor:
#      x y z
#    x 1.896140 0.000000 0.000000 
#    y 0.000000 1.804910 0.000000 
#    z 0.000000 0.000000 1.856390 
# 
# From -- ./inp_files/26060.got.cif
#   From: 2010.05.17/outbox.cif.g08.bks.cpg/sg62_14_cif.got.tgz:26060.got - 2010.06.03 15:25:27.
