data_PCOD9467723
_publ_section_title
;
Structure prediction by ZEFSAII (Michael W. Deem and Ramdas Pophale) SiO2 
 PCOD9467723
Probable space group: P N M A
;
_chemical_formula_sum "Si O2"
_cell_formula_units_Z 48
_cell_length_a 10.403001
_cell_length_b 11.262449
_cell_length_c 16.622665
_cell_angle_alpha 90.000000
_cell_angle_beta 90.000000
_cell_angle_gamma 90.000000
_cell_volume 1947.565758
_symmetry_space_group_name_H-M "P N M A"
_symmetry_group_IT_number 62
_symmetry_cell_setting 'orthorhombic'
loop_
_space_group_symop_operation_xyz
x,y,z
1/2-x,-y,1/2+z
1/2+x,1/2-y,1/2-z
-x,1/2+y,-z
-x,-y,-z
1/2+x,y,1/2-z
1/2-x,1/2+y,1/2+z
x,1/2-y,z
loop_
_atom_site_type_symbol
_atom_site_label
_atom_site_fract_x
_atom_site_fract_y
_atom_site_fract_z
Si Si1 0.865851 0.876729 0.567467
Si Si2 0.433458 0.118730 0.385760
Si Si3 0.104161 0.381252 0.792308
Si Si4 0.297970 0.619682 0.557115
Si Si5 0.819156 0.618469 0.386200
Si Si6 0.859353 0.119872 0.611316
O O1 0.911747 0.750000 0.598811
O O2 0.710590 0.882366 0.578528
O O3 0.891303 0.881269 0.472529
O O4 0.922494 0.990234 0.610606
O O5 0.445684 0.250000 0.345368
O O6 0.547570 0.115947 0.451219
O O7 0.450033 0.001387 0.331494
O O8 0.053609 0.250000 0.818152
O O9 0.103170 0.385794 0.696549
O O10 0.254140 0.382044 0.817997
O O11 0.267523 0.750000 0.593872
O O12 0.260451 0.503632 0.607558
O O13 0.223334 0.617318 0.472520
O O14 0.752798 0.750000 0.385532
O O15 0.920031 0.250000 0.613725
#
# Coordination Sequence:
#
# PCOD9467723 Si02
#       6
#     8   8   8   8   8   8
#     4   8  14  24  37  53  75 102 131 162 193 227
#     4   9  17  28  42  61  83 107 137 169 199 237
#     4   9  17  27  38  55  81 111 139 165 196 238
#     4   9  17  28  42  61  83 107 137 169 199 237
#     4   9  17  27  38  55  81 111 139 165 196 238
#     4   8  14  24  37  53  75 102 131 162 193 227
#
# _framework density 24.646149999999999
#
# number of rings (size 3 to 8) (size 9 to 14) (size 15 to 20)
#    0.000    3.333    0.000    0.000    0.000    7.333 
#    0.000    6.667    0.000    0.000    0.000    0.000 
#    0.000   12.000    0.000   40.333    0.000   47.000 
#
# Total GULP energy -267708.523685 kJ/mol
# GULP energy per Si atom -5577.260910 kJ/mol
# Density = 2.459005 g / cm^3
# Si number density = 24.646150 Si / 1000 Ang^3
#
#
#
# Elastic Constant Matrix: (Units=GPa)
#
#
# Indices 1 2 3 4 5 6 
#
# 1 62.8743 51.0875 24.6481 0.0000 0.0000 0.0000
# 2 51.0875 306.5837 44.6172 0.0000 0.0000 0.0000
# 3 24.6481 44.6172 54.1330 0.0000 0.0000 0.0000
# 4 0.0000 0.0000 0.0000 27.2054 0.0000 0.0000
# 5 0.0000 0.0000 0.0000 0.0000 21.3355 0.0000
# 6 0.0000 0.0000 0.0000 0.0000 0.0000 9.9603
#
#
#
# Elastic Compliance Matrix: (Units=1/GPa)
#
#
# Indices 1 2 3 4 5 6 
#
# 1 0.020772 -0.002369 -0.007505 0.000000 0.000000 0.000000
# 2 -0.002369 0.003977 -0.002199 0.000000 0.000000 0.000000
# 3 -0.007505 -0.002199 0.023703 0.000000 0.000000 0.000000
# 4 0.000000 0.000000 0.000000 0.036757 0.000000 0.000000
# 5 0.000000 0.000000 0.000000 0.000000 0.046870 0.000000
# 6 0.000000 0.000000 0.000000 0.000000 0.000000 0.100398
#
#
# Mechanical properties :
#
#
# Convention : Reuss Voigt Hill
#
# Bulk Modulus (GPa) = 41.14433 73.81074 57.47754
# Shear Modulus (GPa) = 18.88751 31.91611 25.40181
#
# Velocity S-wave (km/s) = 2.77130 3.60248 3.21387
# Velocity P-wave (km/s) = 5.19330 6.87874 6.09456
#
# Compressibility (1/GPa) = 0.02430469
#
# Stress axis : x y z
#
# Youngs Moduli (GPa) = 48.14176 251.47648 42.18935
#
# Poissons Ratio (x) = 0.59577 0.31665
# Poissons Ratio (y) = 0.11405 0.09277
# Poissons Ratio (z) = 0.36132 0.55295
#
# Static dielectric constant tensor:
#      x y z
#    x 2.041880 0.000000 0.000000 
#    y 0.000000 2.008490 0.000000 
#    z 0.000000 0.000000 1.883870 
# 
# From -- ./inp_files/12264.got.cif
#   From: 2010.05.17/outbox.cif.g08.bks.cpg/sg62_7_cif.got.tgz:12264.got - 2010.06.03 15:25:27.
