data_PCOD9467077
_publ_section_title
;
Structure prediction by ZEFSAII (Michael W. Deem and Ramdas Pophale) SiO2 
 PCOD9467077
Probable space group: P N M A
;
_chemical_formula_sum "Si O2"
_cell_formula_units_Z 52
_cell_length_a 15.790338
_cell_length_b 18.785300
_cell_length_c 9.043635
_cell_angle_alpha 90.000000
_cell_angle_beta 90.000000
_cell_angle_gamma 90.000000
_cell_volume 2682.579414
_symmetry_space_group_name_H-M "P N M A"
_symmetry_group_IT_number 62
_symmetry_cell_setting 'orthorhombic'
loop_
_space_group_symop_operation_xyz
x,y,z
1/2-x,-y,1/2+z
1/2+x,1/2-y,1/2-z
-x,1/2+y,-z
-x,-y,-z
1/2+x,y,1/2-z
1/2-x,1/2+y,1/2+z
x,1/2-y,z
loop_
_atom_site_type_symbol
_atom_site_label
_atom_site_fract_x
_atom_site_fract_y
_atom_site_fract_z
Si Si1 0.851321 0.750000 0.638004
Si Si2 0.619187 0.250000 0.806548
Si Si3 0.712627 0.390518 0.293985
Si Si4 0.979759 0.509687 0.171666
Si Si5 0.029074 0.750000 0.524334
Si Si6 0.098893 0.899875 0.630324
Si Si7 0.644165 0.960989 0.174709
Si Si8 0.320332 0.891589 0.354479
O O1 0.831036 0.750000 0.463123
O O2 0.818765 0.679883 0.715291
O O3 0.952833 0.750000 0.642237
O O4 0.644815 0.318917 0.713932
O O5 0.521662 0.250000 0.867409
O O6 0.813948 0.392223 0.281729
O O7 0.673487 0.460373 0.220041
O O8 0.688434 0.388814 0.467616
O O9 0.970810 0.436053 0.264149
O O10 0.889772 0.548943 0.186044
O O11 0.057960 0.554330 0.237524
O O12 0.000000 0.500000 0.000000
O O13 0.077497 0.823707 0.555414
O O14 0.118916 0.953800 0.496355
O O15 0.726152 0.911519 0.202271
#
# Coordination Sequence:
#
# PCOD9467077 Si02
#       8
#     4   4   8   8   4   8   8   8
#     4  10  24  38  66  90 131 169 236 269 335 411
#     4  10  25  40  69  90 132 181 223 280 340 405
#     4  11  22  42  66  99 131 184 220 285 344 409
#     4  12  24  40  67 105 134 174 223 288 341 396
#     4  10  23  44  63  98 125 184 235 273 339 414
#     4  11  24  42  70  94 141 179 234 280 337 431
#     4  11  24  41  69  97 132 181 223 279 347 409
#     4  11  24  44  64  98 139 172 227 284 342 407
#
# _framework density 19.384329000000001
#
# number of rings (size 3 to 8) (size 9 to 14) (size 15 to 20)
#    0.462    0.615    3.077    3.231    2.154    3.077 
#    0.000    0.769    0.000    0.000    0.000    0.000 
#    0.000    0.000    0.000    0.000    0.000    0.000 
#
# Total GULP energy -290262.082158 kJ/mol
# GULP energy per Si atom -5581.963118 kJ/mol
# Density = 1.934021 g / cm^3
# Si number density = 19.384329 Si / 1000 Ang^3
#
#
#
# Elastic Constant Matrix: (Units=GPa)
#
#
# Indices 1 2 3 4 5 6 
#
# 1 105.6034 20.5461 29.8395 0.0000 0.0000 0.0000
# 2 20.5461 112.1269 50.3789 0.0000 0.0000 0.0000
# 3 29.8395 50.3789 65.3189 0.0000 0.0000 0.0000
# 4 0.0000 0.0000 0.0000 65.0403 0.0000 0.0000
# 5 0.0000 0.0000 0.0000 0.0000 35.9004 0.0000
# 6 0.0000 0.0000 0.0000 0.0000 0.0000 41.3007
#
#
#
# Elastic Compliance Matrix: (Units=1/GPa)
#
#
# Indices 1 2 3 4 5 6 
#
# 1 0.010883 0.000367 -0.005254 0.000000 0.000000 0.000000
# 2 0.000367 0.013660 -0.010703 0.000000 0.000000 0.000000
# 3 -0.005254 -0.010703 0.025965 0.000000 0.000000 0.000000
# 4 0.000000 0.000000 0.000000 0.015375 0.000000 0.000000
# 5 0.000000 0.000000 0.000000 0.000000 0.027855 0.000000
# 6 0.000000 0.000000 0.000000 0.000000 0.000000 0.024213
#
#
# Mechanical properties :
#
#
# Convention : Reuss Voigt Hill
#
# Bulk Modulus (GPa) = 51.74366 53.84200 52.79283
# Shear Modulus (GPa) = 32.13885 40.60058 36.36972
#
# Velocity S-wave (km/s) = 4.07625 4.58154 4.33626
# Velocity P-wave (km/s) = 6.99328 7.47153 7.23635
#
# Compressibility (1/GPa) = 0.01932604
#
# Stress axis : x y z
#
# Youngs Moduli (GPa) = 91.88874 73.20461 38.51326
#
# Poissons Ratio (x) = -0.02684 0.20236
# Poissons Ratio (y) = -0.03369 0.41222
# Poissons Ratio (z) = 0.48281 0.78354
#
# Static dielectric constant tensor:
#      x y z
#    x 1.708440 0.000000 0.000000 
#    y 0.000000 7.057140 0.000000 
#    z 0.000000 0.000000 1.673190 
# 
# From -- ./inp_files/7945.got.cif
#   From: 2010.05.17/outbox.cif.g08.bks.cpg/sg62_4_cif.got.tgz:7945.got - 2010.06.03 15:25:27.
