data_PCOD9467658
_publ_section_title
;
Structure prediction by ZEFSAII (Michael W. Deem and Ramdas Pophale) SiO2 
 PCOD9467658
Probable space group: P N M A
;
_chemical_formula_sum "Si O2"
_cell_formula_units_Z 32
_cell_length_a 9.275328
_cell_length_b 21.278290
_cell_length_c 7.664640
_cell_angle_alpha 90.000000
_cell_angle_beta 90.000000
_cell_angle_gamma 90.000000
_cell_volume 1512.717257
_symmetry_space_group_name_H-M "P N M A"
_symmetry_group_IT_number 62
_symmetry_cell_setting 'orthorhombic'
loop_
_space_group_symop_operation_xyz
x,y,z
1/2-x,-y,1/2+z
1/2+x,1/2-y,1/2-z
-x,1/2+y,-z
-x,-y,-z
1/2+x,y,1/2-z
1/2-x,1/2+y,1/2+z
x,1/2-y,z
loop_
_atom_site_type_symbol
_atom_site_label
_atom_site_fract_x
_atom_site_fract_y
_atom_site_fract_z
Si Si1 0.256945 0.403179 0.714449
Si Si2 0.276591 0.175203 0.053268
Si Si3 0.411092 0.882533 0.864261
Si Si4 0.012744 0.487443 0.795571
O O1 0.199189 0.381474 0.527282
O O2 0.422374 0.423695 0.730533
O O3 0.174490 0.468987 0.748698
O O4 0.230470 0.353899 0.867561
O O5 0.267302 0.250000 0.052037
O O6 0.171838 0.146567 0.199872
O O7 0.440821 0.153903 0.094086
O O8 0.458075 0.953776 0.815815
O O9 0.000000 0.500000 0.000000
#
# Coordination Sequence:
#
# PCOD9467658 Si02
#       4
#     8   8   8   8
#     4  12  25  45  69 107 140 183 227 296 355 422
#     4  12  28  48  69 100 141 192 242 282 343 421
#     4  12  26  47  73 105 141 184 234 296 355 417
#     4  12  23  43  72 107 142 174 230 290 364 416
#
# _framework density 21.153987000000001
#
# number of rings (size 3 to 8) (size 9 to 14) (size 15 to 20)
#    0.000    0.000    5.000    6.000    0.000    2.000 
#    0.000    0.000    0.000    0.000    0.000    0.000 
#    0.000    0.000    0.000    0.000    0.000    0.000 
#
# Total GULP energy -179140.780641 kJ/mol
# GULP energy per Si atom -5598.149395 kJ/mol
# Density = 2.110584 g / cm^3
# Si number density = 21.153987 Si / 1000 Ang^3
#
#
#
# Elastic Constant Matrix: (Units=GPa)
#
#
# Indices 1 2 3 4 5 6 
#
# 1 54.3564 21.3407 -7.0412 0.0000 0.0000 0.0000
# 2 21.3407 99.7923 30.2402 0.0000 0.0000 0.0000
# 3 -7.0412 30.2402 112.2830 0.0000 0.0000 0.0000
# 4 0.0000 0.0000 0.0000 14.6271 0.0000 0.0000
# 5 0.0000 0.0000 0.0000 0.0000 37.3572 0.0000
# 6 0.0000 0.0000 0.0000 0.0000 0.0000 26.9525
#
#
#
# Elastic Compliance Matrix: (Units=1/GPa)
#
#
# Indices 1 2 3 4 5 6 
#
# 1 0.020823 -0.005280 0.002728 0.000000 0.000000 0.000000
# 2 -0.005280 0.012250 -0.003630 0.000000 0.000000 0.000000
# 3 0.002728 -0.003630 0.010055 0.000000 0.000000 0.000000
# 4 0.000000 0.000000 0.000000 0.068366 0.000000 0.000000
# 5 0.000000 0.000000 0.000000 0.000000 0.026769 0.000000
# 6 0.000000 0.000000 0.000000 0.000000 0.000000 0.037102
#
#
# Mechanical properties :
#
#
# Convention : Reuss Voigt Hill
#
# Bulk Modulus (GPa) = 32.50584 39.50121 36.00352
# Shear Modulus (GPa) = 25.25454 30.58016 27.91735
#
# Velocity S-wave (km/s) = 3.45895 3.80623 3.63674
# Velocity P-wave (km/s) = 5.59930 6.16686 5.88992
#
# Compressibility (1/GPa) = 0.03076371
#
# Stress axis : x y z
#
# Youngs Moduli (GPa) = 48.02321 81.63296 99.45468
#
# Poissons Ratio (x) = 0.43099 -0.27129
# Poissons Ratio (y) = 0.25355 0.36105
# Poissons Ratio (z) = -0.13100 0.29635
#
# Static dielectric constant tensor:
#      x y z
#    x 1.727480 0.000000 0.000000 
#    y 0.000000 1.739540 0.000000 
#    z 0.000000 0.000000 1.755570 
# 
# From -- ./inp_files/4125.got.cif
#   From: 2010.05.17/outbox.cif.g08.bks.cpg/sg62_3_cif.got.tgz:4125.got - 2010.06.03 15:25:27.
