data_PCOD9467920
_publ_section_title
;
Structure prediction by ZEFSAII (Michael W. Deem and Ramdas Pophale) SiO2 
 PCOD9467920
Probable space group: P N M A
;
_chemical_formula_sum "Si O2"
_cell_formula_units_Z 48
_cell_length_a 24.000000
_cell_length_b 9.000000
_cell_length_c 12.000000
_cell_angle_alpha 90.000000
_cell_angle_beta 90.000000
_cell_angle_gamma 90.000000
_cell_volume 2592.000000
_symmetry_space_group_name_H-M "P N M A"
_symmetry_group_IT_number 62
_symmetry_cell_setting 'orthorhombic'
loop_
_space_group_symop_operation_xyz
x,y,z
1/2-x,-y,1/2+z
1/2+x,1/2-y,1/2-z
-x,1/2+y,-z
-x,-y,-z
1/2+x,y,1/2-z
1/2-x,1/2+y,1/2+z
x,1/2-y,z
loop_
_atom_site_type_symbol
_atom_site_label
_atom_site_fract_x
_atom_site_fract_y
_atom_site_fract_z
Si Si1 0.466101 0.427173 0.267095
Si Si2 0.422362 0.427709 0.792567
Si Si3 0.399381 0.428315 0.043902
Si Si4 0.300889 0.571516 0.172812
Si Si5 0.633032 0.072091 0.604565
Si Si6 0.824956 0.072108 0.877370
O O1 0.464575 0.250000 0.280128
O O2 0.527937 0.489870 0.269893
O O3 0.425500 0.502895 0.356214
O O4 0.442107 0.465251 0.143548
O O5 0.432798 0.250000 0.791554
O O6 0.418066 0.477043 0.921314
O O7 0.365498 0.456327 0.726600
O O8 0.393484 0.250000 0.041067
O O9 0.341463 0.499594 0.082027
O O10 0.304429 0.750000 0.164159
O O11 0.324047 0.531475 0.295418
O O12 0.237613 0.525691 0.152746
O O13 0.628948 0.250000 0.599693
O O14 0.653179 0.007805 0.487727
O O15 0.825161 0.250000 0.897092
#
# Coordination Sequence:
#
# PCOD9467920 Si02
#       6
#     8   8   8   8   8   8
#     4  10  20  36  58  84 114 145 184 232 279 327
#     4  10  21  36  56  82 114 149 185 226 276 330
#     4   9  19  35  58  85 111 146 184 228 280 328
#     4   9  20  37  57  81 110 144 182 228 276 327
#     4  10  21  38  60  82 108 146 189 226 274 334
#     4  10  22  38  55  80 113 147 183 227 276 324
#
# _framework density 18.518519000000001
#
# number of rings (size 3 to 8) (size 9 to 14) (size 15 to 20)
#    0.000    2.333    0.000    1.500    2.333    4.000 
#    0.000    0.000    0.000    0.000    0.000    0.000 
#    0.000    0.000    0.000    0.000    0.000    0.000 
#
# Total GULP energy -267977.881896 kJ/mol
# GULP energy per Si atom -5582.872539 kJ/mol
# Density = 1.847637 g / cm^3
# Si number density = 18.518519 Si / 1000 Ang^3
#
#
#
# Elastic Constant Matrix: (Units=GPa)
#
#
# Indices 1 2 3 4 5 6 
#
# 1 80.6372 17.7765 -27.6653 0.0000 0.0000 0.0000
# 2 17.7765 8.6490 -0.3954 0.0000 0.0000 0.0000
# 3 -27.6653 -0.3954 -4.8149 0.0000 0.0000 0.0000
# 4 0.0000 0.0000 0.0000 28.5605 0.0000 0.0000
# 5 0.0000 0.0000 0.0000 0.0000 4.9090 0.0000
# 6 0.0000 0.0000 0.0000 0.0000 0.0000 29.6124
#
#
#
# Elastic Compliance Matrix: (Units=1/GPa)
#
#
# Indices 1 2 3 4 5 6 
#
# 1 0.005173 -0.011947 -0.028744 0.000000 0.000000 0.000000
# 2 -0.011947 0.142779 0.056920 0.000000 0.000000 0.000000
# 3 -0.028744 0.056920 -0.047207 0.000000 0.000000 0.000000
# 4 0.000000 0.000000 0.000000 0.035013 0.000000 0.000000
# 5 0.000000 0.000000 0.000000 0.000000 0.203707 0.000000
# 6 0.000000 0.000000 0.000000 0.000000 0.000000 0.033770
#
#
# Mechanical properties :
#
#
# Convention : Reuss Voigt Hill
#
# Bulk Modulus (GPa) = 7.50733 7.10030 7.30381
# Shear Modulus (GPa) = 12.98101 18.93342 15.95722
#
# Velocity S-wave (km/s) = 2.65046 3.20098 2.93864
# Velocity P-wave (km/s) = 3.66461 4.18380 3.93278
#
# Compressibility (1/GPa) = 0.13320320
#
# Stress axis : x y z
#
# Youngs Moduli (GPa) = 193.29601 7.00385 -21.18341
#
# Poissons Ratio (x) = 0.08368 -0.60889
# Poissons Ratio (y) = 2.30934 1.20576
# Poissons Ratio (z) = 5.55608 -0.39866
#
# Static dielectric constant tensor:
#      x y z
#    x 1.627870 0.000000 0.000000 
#    y 0.000000 1.618980 0.000000 
#    z 0.000000 0.000000 1.613050 
# 
# From -- ./inp_files/15082.got.cif
#   From: 2010.05.17/outbox.ucp.g08.bks.cvg/sg62_8_cif.got.tgz:15082.got - 2010.06.11 16:29:25.
