data_PCOD9467579
_publ_section_title
;
Structure prediction by ZEFSAII (Michael W. Deem and Ramdas Pophale) SiO2 
 PCOD9467579
Probable space group: P N M A
;
_chemical_formula_sum "Si O2"
_cell_formula_units_Z 40
_cell_length_a 12.224431
_cell_length_b 8.556942
_cell_length_c 18.894854
_cell_angle_alpha 90.000000
_cell_angle_beta 90.000000
_cell_angle_gamma 90.000000
_cell_volume 1976.472528
_symmetry_space_group_name_H-M "P N M A"
_symmetry_group_IT_number 62
_symmetry_cell_setting 'orthorhombic'
loop_
_space_group_symop_operation_xyz
x,y,z
1/2-x,-y,1/2+z
1/2+x,1/2-y,1/2-z
-x,1/2+y,-z
-x,-y,-z
1/2+x,y,1/2-z
1/2-x,1/2+y,1/2+z
x,1/2-y,z
loop_
_atom_site_type_symbol
_atom_site_label
_atom_site_fract_x
_atom_site_fract_y
_atom_site_fract_z
Si Si1 0.326256 0.063188 0.886781
Si Si2 0.912312 0.564451 0.174986
Si Si3 0.425480 0.935115 0.563723
Si Si4 0.457377 0.064980 0.173466
Si Si5 0.316159 0.564039 0.044075
O O1 0.340204 0.250000 0.883088
O O2 0.203596 0.025224 0.861307
O O3 0.416570 0.982026 0.838141
O O4 0.341471 0.006620 0.967097
O O5 0.930153 0.750000 0.166465
O O6 0.911742 0.519445 0.256972
O O7 0.008501 0.473249 0.134959
O O8 0.409452 0.750000 0.554860
O O9 0.500000 0.000000 0.500000
O O10 0.308846 0.019196 0.561666
O O11 0.446016 0.250000 0.181196
O O12 0.393009 0.007599 0.104204
O O13 0.329715 0.750000 0.041926
#
# Coordination Sequence:
#
# PCOD9467579 Si02
#       5
#     8   8   8   8   8
#     4  11  24  45  71  98 134 175 225 277 333 399
#     4  11  25  45  69  98 135 177 223 276 335 395
#     4  12  24  42  68 100 135 175 222 273 331 393
#     4  12  27  45  68  98 138 179 224 276 337 402
#     4  12  25  44  71 100 135 176 226 277 333 396
#
# _framework density 20.238076
#
# number of rings (size 3 to 8) (size 9 to 14) (size 15 to 20)
#    0.000    0.400    2.000    7.200    2.800    2.400 
#    0.000    0.000    0.000    0.000    0.000    0.000 
#    0.000    0.000    0.000    0.000    0.000    0.000 
#
# Total GULP energy -224091.243040 kJ/mol
# GULP energy per Si atom -5602.281076 kJ/mol
# Density = 2.019201 g / cm^3
# Si number density = 20.238076 Si / 1000 Ang^3
#
#
#
# Elastic Constant Matrix: (Units=GPa)
#
#
# Indices 1 2 3 4 5 6 
#
# 1 36.9252 -5.4457 -10.8080 0.0000 0.0000 0.0000
# 2 -5.4457 45.1901 -12.4443 0.0000 0.0000 0.0000
# 3 -10.8080 -12.4443 90.1585 0.0000 0.0000 0.0000
# 4 0.0000 0.0000 0.0000 37.2746 0.0000 0.0000
# 5 0.0000 0.0000 0.0000 0.0000 27.2216 0.0000
# 6 0.0000 0.0000 0.0000 0.0000 0.0000 34.3111
#
#
#
# Elastic Compliance Matrix: (Units=1/GPa)
#
#
# Indices 1 2 3 4 5 6 
#
# 1 0.028967 0.004623 0.004111 0.000000 0.000000 0.000000
# 2 0.004623 0.023741 0.003831 0.000000 0.000000 0.000000
# 3 0.004111 0.003831 0.012113 0.000000 0.000000 0.000000
# 4 0.000000 0.000000 0.000000 0.026828 0.000000 0.000000
# 5 0.000000 0.000000 0.000000 0.000000 0.036736 0.000000
# 6 0.000000 0.000000 0.000000 0.000000 0.000000 0.029145
#
#
# Mechanical properties :
#
#
# Convention : Reuss Voigt Hill
#
# Bulk Modulus (GPa) = 11.11743 12.76419 11.94081
# Shear Modulus (GPa) = 30.79125 33.15958 31.97542
#
# Velocity S-wave (km/s) = 3.90481 4.05220 3.97919
# Velocity P-wave (km/s) = 5.08284 5.31173 5.19855
#
# Compressibility (1/GPa) = 0.08994881
#
# Stress axis : x y z
#
# Youngs Moduli (GPa) = 34.52243 42.12168 82.55510
#
# Poissons Ratio (x) = -0.19471 -0.33934
# Poissons Ratio (y) = -0.15958 -0.31627
# Poissons Ratio (z) = -0.14191 -0.16137
#
# Static dielectric constant tensor:
#      x y z
#    x 1.698390 0.000000 0.000000 
#    y 0.000000 1.673400 0.000000 
#    z 0.000000 0.000000 1.693020 
# 
# From -- ./inp_files/22796.got.cif
#   From: 2010.05.17/outbox.cif.g08.bks.cpg/sg62_12_cif.got.tgz:22796.got - 2010.06.03 15:25:27.
