data_PCOD9467440
_publ_section_title
;
Structure prediction by ZEFSAII (Michael W. Deem and Ramdas Pophale) SiO2 
 PCOD9467440
Probable space group: P N M A
;
_chemical_formula_sum "Si O2"
_cell_formula_units_Z 36
_cell_length_a 24.476693
_cell_length_b 10.130941
_cell_length_c 6.563545
_cell_angle_alpha 90.000000
_cell_angle_beta 90.000000
_cell_angle_gamma 90.000000
_cell_volume 1627.574939
_symmetry_space_group_name_H-M "P N M A"
_symmetry_group_IT_number 62
_symmetry_cell_setting 'orthorhombic'
loop_
_space_group_symop_operation_xyz
x,y,z
1/2-x,-y,1/2+z
1/2+x,1/2-y,1/2-z
-x,1/2+y,-z
-x,-y,-z
1/2+x,y,1/2-z
1/2-x,1/2+y,1/2+z
x,1/2-y,z
loop_
_atom_site_type_symbol
_atom_site_label
_atom_site_fract_x
_atom_site_fract_y
_atom_site_fract_z
Si Si1 0.672837 0.750000 0.930495
Si Si2 0.201797 0.250000 0.965024
Si Si3 0.553653 0.542543 0.614196
Si Si4 0.006228 0.750000 0.575604
Si Si5 0.912944 0.250000 0.791791
Si Si6 0.124703 0.250000 0.351757
Si Si7 0.349508 0.546861 0.187020
O O1 0.737827 0.750000 0.947131
O O2 0.657405 0.610322 0.827370
O O3 0.638473 0.750000 0.141272
O O4 0.154047 0.250000 0.134068
O O5 0.194677 0.378383 0.822393
O O6 0.500000 0.500000 0.500000
O O7 0.533149 0.626510 0.807273
O O8 0.585825 0.626648 0.444450
O O9 0.592571 0.430530 0.700699
O O10 0.941414 0.750000 0.623574
O O11 0.031829 0.750000 0.348621
O O12 0.146069 0.379703 0.471916
#
# Coordination Sequence:
#
# PCOD9467440 Si02
#       7
#     4   4   8   4   4   4   8
#     4  12  27  48  76 101 143 190 251 300 362 433
#     4  11  29  48  73  99 140 194 237 313 364 413
#     4  11  23  39  68 102 145 187 236 290 358 436
#     4  11  22  40  64 107 143 191 234 292 360 443
#     4  11  24  41  64 106 141 192 233 296 368 424
#     4  11  26  47  75 105 149 189 241 293 374 423
#     4  11  26  49  67 110 142 181 251 298 351 446
#
# _framework density 22.118796
#
# number of rings (size 3 to 8) (size 9 to 14) (size 15 to 20)
#    0.000    0.889    2.222    3.333    9.333    5.333 
#    4.000    0.000    0.000    0.000    0.000    0.000 
#    0.000    0.000    0.000    0.000    0.000    0.000 
#
# Total GULP energy -201244.751278 kJ/mol
# GULP energy per Si atom -5590.131980 kJ/mol
# Density = 2.206845 g / cm^3
# Si number density = 22.118796 Si / 1000 Ang^3
#
#
#
# Elastic Constant Matrix: (Units=GPa)
#
#
# Indices 1 2 3 4 5 6 
#
# 1 107.3402 20.6288 26.8869 0.0000 0.0000 0.0000
# 2 20.6288 111.3525 39.6422 0.0000 0.0000 0.0000
# 3 26.8869 39.6422 113.9214 0.0000 0.0000 0.0000
# 4 0.0000 0.0000 0.0000 -9.1105 0.0000 0.0000
# 5 0.0000 0.0000 0.0000 0.0000 29.6757 0.0000
# 6 0.0000 0.0000 0.0000 0.0000 0.0000 20.4555
#
#
#
# Elastic Compliance Matrix: (Units=1/GPa)
#
#
# Indices 1 2 3 4 5 6 
#
# 1 0.010031 -0.001159 -0.001964 0.000000 0.000000 0.000000
# 2 -0.001159 0.010384 -0.003340 0.000000 0.000000 0.000000
# 3 -0.001964 -0.003340 0.010404 0.000000 0.000000 0.000000
# 4 0.000000 0.000000 0.000000 -0.109763 0.000000 0.000000
# 5 0.000000 0.000000 0.000000 0.000000 0.033698 0.000000
# 6 0.000000 0.000000 0.000000 0.000000 0.000000 0.048887
#
#
# Mechanical properties :
#
#
# Convention : Reuss Voigt Hill
#
# Bulk Modulus (GPa) = 55.88864 56.32553 56.10708
# Shear Modulus (GPa) = 221.91925 24.56788 123.24356
#
# Velocity S-wave (km/s) = 10.02738 3.33637 7.47261
# Velocity P-wave (km/s) = 12.62485 6.35312 9.99372
#
# Compressibility (1/GPa) = 0.01789272
#
# Stress axis : x y z
#
# Youngs Moduli (GPa) = 99.69194 96.29967 96.11909
#
# Poissons Ratio (x) = 0.11162 0.18879
# Poissons Ratio (y) = 0.11555 0.32103
# Poissons Ratio (z) = 0.19580 0.32164
#
# Static dielectric constant tensor:
#      x y z
#    x 1.835770 0.000000 0.000000 
#    y 0.000000 1.854510 0.000000 
#    z 0.000000 0.000000 1.805320 
# 
# From -- ./inp_files/2595.got.cif
#   From: 2010.05.17/outbox.cif.g08.bks.cpg/sg62_2_cif.got.tgz:2595.got - 2010.06.03 15:25:27.
