data_PCOD9467838
_publ_section_title
;
Structure prediction by ZEFSAII (Michael W. Deem and Ramdas Pophale) SiO2 
 PCOD9467838
Probable space group: P N M A
;
_chemical_formula_sum "Si O2"
_cell_formula_units_Z 56
_cell_length_a 12.000000
_cell_length_b 21.000000
_cell_length_c 12.000000
_cell_angle_alpha 90.000000
_cell_angle_beta 90.000000
_cell_angle_gamma 90.000000
_cell_volume 3024.000000
_symmetry_space_group_name_H-M "P N M A"
_symmetry_group_IT_number 62
_symmetry_cell_setting 'orthorhombic'
loop_
_space_group_symop_operation_xyz
x,y,z
1/2-x,-y,1/2+z
1/2+x,1/2-y,1/2-z
-x,1/2+y,-z
-x,-y,-z
1/2+x,y,1/2-z
1/2-x,1/2+y,1/2+z
x,1/2-y,z
loop_
_atom_site_type_symbol
_atom_site_label
_atom_site_fract_x
_atom_site_fract_y
_atom_site_fract_z
Si Si1 0.381461 0.921101 0.336458
Si Si2 0.736118 0.402405 0.886661
Si Si3 0.764758 0.603515 0.817434
Si Si4 0.912456 0.481038 0.750757
Si Si5 0.311933 0.323770 0.403939
Si Si6 0.673522 0.970130 0.016329
Si Si7 0.933766 0.823240 0.973494
O O1 0.345226 0.890411 0.218264
O O2 0.465724 0.977546 0.303819
O O3 0.280983 0.951305 0.407967
O O4 0.430308 0.868102 0.418347
O O5 0.845810 0.425961 0.818585
O O6 0.691384 0.461601 0.960015
O O7 0.760496 0.349221 0.979194
O O8 0.842759 0.544110 0.780302
O O9 0.720311 0.635142 0.704550
O O10 0.674937 0.577479 0.909453
O O11 0.842075 0.651915 0.886437
O O12 0.916967 0.471052 0.616430
O O13 0.280414 0.250000 0.386760
O O14 0.444723 0.327925 0.419352
O O15 0.912238 0.750000 0.003491
#
# Coordination Sequence:
#
# PCOD9467838 Si02
#       7
#     8   8   8   8   8   8   8
#     4  10  21  35  59  83 110 151 186 236 284 334
#     4  10  20  35  54  86 112 140 188 230 281 334
#     4  10  21  35  59  84 114 150 182 233 279 345
#     4  10  19  34  58  84 114 143 182 231 286 342
#     4  11  22  39  59  80 113 152 190 235 278 336
#     4   9  20  35  54  85 117 142 180 235 286 336
#     4  10  22  39  60  80 108 152 197 229 275 342
#
# _framework density 18.518519000000001
#
# number of rings (size 3 to 8) (size 9 to 14) (size 15 to 20)
#    0.000    2.000    2.857    0.429    2.000    2.857 
#    2.571    0.000    0.000    0.857    0.000    0.000 
#    0.000    0.000    0.000    0.000    0.000    0.000 
#
# Total GULP energy -312250.476226 kJ/mol
# GULP energy per Si atom -5575.901361 kJ/mol
# Density = 1.847637 g / cm^3
# Si number density = 18.518519 Si / 1000 Ang^3
#
#
#
# Elastic Constant Matrix: (Units=GPa)
#
#
# Indices 1 2 3 4 5 6 
#
# 1 15.6662 12.3543 5.7766 0.0000 0.0000 0.0000
# 2 12.3543 81.1839 32.9274 0.0000 0.0000 0.0000
# 3 5.7766 32.9274 136.5872 0.0000 0.0000 0.0000
# 4 0.0000 0.0000 0.0000 27.6296 0.0000 0.0000
# 5 0.0000 0.0000 0.0000 0.0000 19.9617 0.0000
# 6 0.0000 0.0000 0.0000 0.0000 0.0000 20.8173
#
#
#
# Elastic Compliance Matrix: (Units=1/GPa)
#
#
# Indices 1 2 3 4 5 6 
#
# 1 0.072562 -0.010859 -0.000451 0.000000 0.000000 0.000000
# 2 -0.010859 0.015278 -0.003224 0.000000 0.000000 0.000000
# 3 -0.000451 -0.003224 0.008118 0.000000 0.000000 0.000000
# 4 0.000000 0.000000 0.000000 0.036193 0.000000 0.000000
# 5 0.000000 0.000000 0.000000 0.000000 0.050096 0.000000
# 6 0.000000 0.000000 0.000000 0.000000 0.000000 0.048037
#
#
# Mechanical properties :
#
#
# Convention : Reuss Voigt Hill
#
# Bulk Modulus (GPa) = 14.95014 37.28375 26.11695
# Shear Modulus (GPa) = 17.75270 25.84031 21.79650
#
# Velocity S-wave (km/s) = 3.09956 3.73953 3.43448
# Velocity P-wave (km/s) = 4.57168 6.23076 5.46455
#
# Compressibility (1/GPa) = 0.06688898
#
# Stress axis : x y z
#
# Youngs Moduli (GPa) = 13.78139 65.45454 123.18966
#
# Poissons Ratio (x) = 0.71079 0.05555
# Poissons Ratio (y) = 0.14966 0.39714
# Poissons Ratio (z) = 0.00621 0.21101
#
# Static dielectric constant tensor:
#      x y z
#    x 1.718270 0.000000 0.000000 
#    y 0.000000 1.626500 0.000000 
#    z 0.000000 0.000000 1.617470 
# 
# From -- ./inp_files/12424.got.cif
#   From: 2010.05.17/outbox.ucp.g08.bks.cvg/sg62_7_cif.got.tgz:12424.got - 2010.06.11 16:29:25.
