data_PCOD9467696
_publ_section_title
;
Structure prediction by ZEFSAII (Michael W. Deem and Ramdas Pophale) SiO2 
 PCOD9467696
Probable space group: P N M A
;
_chemical_formula_sum "Si O2"
_cell_formula_units_Z 24
_cell_length_a 9.019894
_cell_length_b 19.542412
_cell_length_c 4.697389
_cell_angle_alpha 90.000000
_cell_angle_beta 90.000000
_cell_angle_gamma 90.000000
_cell_volume 828.011036
_symmetry_space_group_name_H-M "P N M A"
_symmetry_group_IT_number 62
_symmetry_cell_setting 'orthorhombic'
loop_
_space_group_symop_operation_xyz
x,y,z
1/2-x,-y,1/2+z
1/2+x,1/2-y,1/2-z
-x,1/2+y,-z
-x,-y,-z
1/2+x,y,1/2-z
1/2-x,1/2+y,1/2+z
x,1/2-y,z
loop_
_atom_site_type_symbol
_atom_site_label
_atom_site_fract_x
_atom_site_fract_y
_atom_site_fract_z
Si Si1 0.548197 0.369702 0.358469
Si Si2 0.648925 0.750000 0.644831
Si Si3 0.902047 0.750000 0.252475
Si Si4 0.228625 0.953759 0.029037
O O1 0.426198 0.316925 0.224965
O O2 0.635663 0.320535 0.581005
O O3 0.649186 0.405904 0.123109
O O4 0.434226 0.422041 0.506532
O O5 0.818494 0.750000 0.552131
O O6 0.576919 0.750000 0.322743
O O7 0.236073 0.024372 0.848515
#
# Coordination Sequence:
#
# PCOD9467696 Si02
#       4
#     8   4   4   8
#     4   9  24  44  72 108 148 192 250 304 372 433
#     4   8  20  42  74 106 140 188 243 313 370 422
#     4   8  20  42  74 106 140 188 243 313 370 422
#     4  12  26  47  74 111 152 200 246 298 366 448
#
# _framework density 28.985122
#
# number of rings (size 3 to 8) (size 9 to 14) (size 15 to 20)
#    2.000    0.000    0.000    2.000    4.667    5.333 
#    6.000    0.000    0.000    0.000    0.000    0.000 
#    0.000    0.000    0.000    0.000    0.000    0.000 
#
# Total GULP energy -134292.973351 kJ/mol
# GULP energy per Si atom -5595.540556 kJ/mol
# Density = 2.891915 g / cm^3
# Si number density = 28.985122 Si / 1000 Ang^3
#
#
#
# Elastic Constant Matrix: (Units=GPa)
#
#
# Indices 1 2 3 4 5 6 
#
# 1 169.1716 23.5570 27.6063 0.0000 0.0000 0.0000
# 2 23.5570 128.8579 10.0024 0.0000 0.0000 0.0000
# 3 27.6063 10.0024 115.1040 0.0000 0.0000 0.0000
# 4 0.0000 0.0000 0.0000 51.1916 0.0000 0.0000
# 5 0.0000 0.0000 0.0000 0.0000 47.0249 0.0000
# 6 0.0000 0.0000 0.0000 0.0000 0.0000 49.8211
#
#
#
# Elastic Compliance Matrix: (Units=1/GPa)
#
#
# Indices 1 2 3 4 5 6 
#
# 1 0.006287 -0.001039 -0.001418 0.000000 0.000000 0.000000
# 2 -0.001039 0.007985 -0.000445 0.000000 0.000000 0.000000
# 3 -0.001418 -0.000445 0.009066 0.000000 0.000000 0.000000
# 4 0.000000 0.000000 0.000000 0.019534 0.000000 0.000000
# 5 0.000000 0.000000 0.000000 0.000000 0.021265 0.000000
# 6 0.000000 0.000000 0.000000 0.000000 0.000000 0.020072
#
#
# Mechanical properties :
#
#
# Convention : Reuss Voigt Hill
#
# Bulk Modulus (GPa) = 57.02705 59.49608 58.26156
# Shear Modulus (GPa) = 52.16022 53.07207 52.61614
#
# Velocity S-wave (km/s) = 4.24671 4.28367 4.26523
# Velocity P-wave (km/s) = 6.61539 6.71100 6.66337
#
# Compressibility (1/GPa) = 0.01753554
#
# Stress axis : x y z
#
# Youngs Moduli (GPa) = 159.05294 125.23469 110.29710
#
# Poissons Ratio (x) = 0.13016 0.15636
# Poissons Ratio (y) = 0.16531 0.04904
# Poissons Ratio (z) = 0.22547 0.05568
#
# Static dielectric constant tensor:
#      x y z
#    x 2.210280 0.000000 0.000000 
#    y 0.000000 2.412390 0.000000 
#    z 0.000000 0.000000 2.151040 
# 
# From -- ./inp_files/146.got.cif
#   From: 2010.05.17/outbox.cif.g08.bks.cpg/sg62_1_cif.got.tgz:146.got - 2010.06.03 15:25:27.
