data_PCOD9467257
_publ_section_title
;
Structure prediction by ZEFSAII (Michael W. Deem and Ramdas Pophale) SiO2 
 PCOD9467257
Probable space group: P N M A
;
_chemical_formula_sum "Si O2"
_cell_formula_units_Z 36
_cell_length_a 8.002948
_cell_length_b 19.879460
_cell_length_c 9.391233
_cell_angle_alpha 90.000000
_cell_angle_beta 90.000000
_cell_angle_gamma 90.000000
_cell_volume 1494.091496
_symmetry_space_group_name_H-M "P N M A"
_symmetry_group_IT_number 62
_symmetry_cell_setting 'orthorhombic'
loop_
_space_group_symop_operation_xyz
x,y,z
1/2-x,-y,1/2+z
1/2+x,1/2-y,1/2-z
-x,1/2+y,-z
-x,-y,-z
1/2+x,y,1/2-z
1/2-x,1/2+y,1/2+z
x,1/2-y,z
loop_
_atom_site_type_symbol
_atom_site_label
_atom_site_fract_x
_atom_site_fract_y
_atom_site_fract_z
Si Si1 0.305516 0.129056 0.527859
Si Si2 0.014287 0.593657 0.311933
Si Si3 0.977401 0.750000 0.925760
Si Si4 0.256807 0.118559 0.066487
Si Si5 0.947855 0.053037 0.207582
O O1 0.128469 0.134341 0.604871
O O2 0.435927 0.120722 0.657703
O O3 0.375314 0.191821 0.441666
O O4 0.314516 0.066271 0.418842
O O5 0.950692 0.518143 0.285319
O O6 0.176911 0.599052 0.411477
O O7 0.832417 0.690284 0.925988
O O8 0.413065 0.109287 0.172877
O O9 0.122973 0.065759 0.129339
#
# Coordination Sequence:
#
# PCOD9467257 Si02
#       5
#     8   8   4   8   8
#     4  11  25  45  72 103 146 192 237 301 352 434
#     4  12  25  44  73 109 143 190 241 298 369 423
#     4  10  26  48  68 100 138 186 242 282 358 424
#     4  11  25  45  73 102 144 190 232 296 352 430
#     4  11  24  45  70 106 144 184 238 296 362 424
#
# _framework density 24.094909000000001
#
# number of rings (size 3 to 8) (size 9 to 14) (size 15 to 20)
#    0.000    0.889    0.000    6.667    0.000   13.333 
#    0.000    0.000    0.000    0.000    0.000    0.000 
#    0.000    0.000    0.000    0.000    0.000    0.000 
#
# Total GULP energy -200518.824400 kJ/mol
# GULP energy per Si atom -5569.967344 kJ/mol
# Density = 2.404007 g / cm^3
# Si number density = 24.094909 Si / 1000 Ang^3
#
#
#
# Elastic Constant Matrix: (Units=GPa)
#
#
# Indices 1 2 3 4 5 6 
#
# 1 81.8554 7.0701 -14.1776 0.0000 0.0000 0.0000
# 2 7.0701 97.0302 -10.5792 0.0000 0.0000 0.0000
# 3 -14.1776 -10.5792 71.0526 0.0000 0.0000 0.0000
# 4 0.0000 0.0000 0.0000 -1.9496 0.0000 0.0000
# 5 0.0000 0.0000 0.0000 0.0000 49.3685 0.0000
# 6 0.0000 0.0000 0.0000 0.0000 0.0000 22.6323
#
#
#
# Elastic Compliance Matrix: (Units=1/GPa)
#
#
# Indices 1 2 3 4 5 6 
#
# 1 0.012695 -0.000660 0.002435 0.000000 0.000000 0.000000
# 2 -0.000660 0.010510 0.001433 0.000000 0.000000 0.000000
# 3 0.002435 0.001433 0.014773 0.000000 0.000000 0.000000
# 4 0.000000 0.000000 0.000000 -0.512917 0.000000 0.000000
# 5 0.000000 0.000000 0.000000 0.000000 0.020256 0.000000
# 6 0.000000 0.000000 0.000000 0.000000 0.000000 0.044185
#
#
# Mechanical properties :
#
#
# Convention : Reuss Voigt Hill
#
# Bulk Modulus (GPa) = 22.52423 23.84053 23.18238
# Shear Modulus (GPa) = -12.43421 31.85191 9.70885
#
# Velocity S-wave (km/s) = -2.27414 3.63979 2.00952
# Velocity P-wave (km/s) = 1.57251 5.25166 3.87639
#
# Compressibility (1/GPa) = 0.04439664
#
# Stress axis : x y z
#
# Youngs Moduli (GPa) = 78.76879 95.14387 67.68940
#
# Poissons Ratio (x) = 0.06275 -0.16482
# Poissons Ratio (y) = 0.05195 -0.09702
# Poissons Ratio (z) = -0.19180 -0.13637
#
# Static dielectric constant tensor:
#      x y z
#    x 2.015270 0.000000 0.000000 
#    y 0.000000 1.819700 0.000000 
#    z 0.000000 0.000000 1.960810 
# 
# From -- ./inp_files/4189.got.cif
#   From: 2010.05.17/outbox.cif.g08.bks.cpg/sg62_3_cif.got.tgz:4189.got - 2010.06.03 15:25:27.
