data_PCOD9467684
_publ_section_title
;
Structure prediction by ZEFSAII (Michael W. Deem and Ramdas Pophale) SiO2 
 PCOD9467684
Probable space group: P N M A
;
_chemical_formula_sum "Si O2"
_cell_formula_units_Z 36
_cell_length_a 13.933546
_cell_length_b 20.060513
_cell_length_c 4.830524
_cell_angle_alpha 90.000000
_cell_angle_beta 90.000000
_cell_angle_gamma 90.000000
_cell_volume 1350.199475
_symmetry_space_group_name_H-M "P N M A"
_symmetry_group_IT_number 62
_symmetry_cell_setting 'orthorhombic'
loop_
_space_group_symop_operation_xyz
x,y,z
1/2-x,-y,1/2+z
1/2+x,1/2-y,1/2-z
-x,1/2+y,-z
-x,-y,-z
1/2+x,y,1/2-z
1/2-x,1/2+y,1/2+z
x,1/2-y,z
loop_
_atom_site_type_symbol
_atom_site_label
_atom_site_fract_x
_atom_site_fract_y
_atom_site_fract_z
Si Si1 0.211457 0.966428 0.984994
Si Si2 0.382047 0.250000 0.504986
Si Si3 0.000000 0.000000 0.000000
Si Si4 0.746500 0.250000 0.498053
Si Si5 0.513886 0.374205 0.685362
Si Si6 0.139054 0.364840 0.299264
O O1 0.266472 0.899530 0.909146
O O2 0.269574 0.021146 0.806716
O O3 0.104369 0.972486 0.883664
O O4 0.342358 0.250000 0.193030
O O5 0.444305 0.316119 0.576322
O O6 0.286217 0.250000 0.693557
O O7 0.019910 0.946506 0.273112
O O8 0.678217 0.189755 0.411125
O O9 0.569646 0.406350 0.408850
O O10 0.576012 0.344908 0.937344
#
# Coordination Sequence:
#
# PCOD9467684 Si02
#       6
#     8   4   4   4   8   8
#     4  12  25  46  69 107 151 194 257 307 385 459
#     4  12  26  48  70 114 142 202 262 320 378 488
#     4  12  26  46  76 110 150 208 252 328 384 464
#     4  12  26  46  76 104 150 198 256 316 394 458
#     4  12  26  45  75 107 152 196 262 312 393 463
#     4  12  24  48  71 108 149 201 248 319 384 469
#
# _framework density 26.662724999999998
#
# number of rings (size 3 to 8) (size 9 to 14) (size 15 to 20)
#    0.000    0.000    4.444    5.333    0.000    5.333 
#    0.000    0.000    0.000    0.000    0.000    0.000 
#    0.000    0.000    0.000    0.000    0.000    0.000 
#
# Total GULP energy -200568.589697 kJ/mol
# GULP energy per Si atom -5571.349714 kJ/mol
# Density = 2.660204 g / cm^3
# Si number density = 26.662725 Si / 1000 Ang^3
#
#
#
# Elastic Constant Matrix: (Units=GPa)
#
#
# Indices 1 2 3 4 5 6 
#
# 1 145.7270 -3.1522 29.0055 0.0000 0.0000 0.0000
# 2 -3.1522 52.4770 8.4686 0.0000 0.0000 0.0000
# 3 29.0055 8.4686 94.9140 0.0000 0.0000 0.0000
# 4 0.0000 0.0000 0.0000 30.6427 0.0000 0.0000
# 5 0.0000 0.0000 0.0000 0.0000 43.5419 0.0000
# 6 0.0000 0.0000 0.0000 0.0000 0.0000 35.2739
#
#
#
# Elastic Compliance Matrix: (Units=1/GPa)
#
#
# Indices 1 2 3 4 5 6 
#
# 1 0.007341 0.000815 -0.002316 0.000000 0.000000 0.000000
# 2 0.000815 0.019425 -0.001982 0.000000 0.000000 0.000000
# 3 -0.002316 -0.001982 0.011420 0.000000 0.000000 0.000000
# 4 0.000000 0.000000 0.000000 0.032634 0.000000 0.000000
# 5 0.000000 0.000000 0.000000 0.000000 0.022966 0.000000
# 6 0.000000 0.000000 0.000000 0.000000 0.000000 0.028350
#
#
# Mechanical properties :
#
#
# Convention : Reuss Voigt Hill
#
# Bulk Modulus (GPa) = 32.03165 40.19576 36.11370
# Shear Modulus (GPa) = 35.83986 39.14475 37.49231
#
# Velocity S-wave (km/s) = 3.67030 3.83580 3.75396
# Velocity P-wave (km/s) = 5.47734 5.89289 5.68891
#
# Compressibility (1/GPa) = 0.03121913
#
# Stress axis : x y z
#
# Youngs Moduli (GPa) = 136.22585 51.48066 87.56201
#
# Poissons Ratio (x) = -0.04194 0.20279
# Poissons Ratio (y) = -0.11098 0.17356
# Poissons Ratio (z) = 0.31550 0.10204
#
# Static dielectric constant tensor:
#      x y z
#    x 1.649000 0.000000 0.000000 
#    y 0.000000 1.757370 0.000000 
#    z 0.000000 0.000000 1.615880 
# 
# From -- ./inp_files/568.got.cif
#   From: 2010.05.17/outbox.cif.g08.bks.cpg/sg62_1_cif.got.tgz:568.got - 2010.06.03 15:25:27.
