data_PCOD9467678
_publ_section_title
;
Structure prediction by ZEFSAII (Michael W. Deem and Ramdas Pophale) SiO2 
 PCOD9467678
Probable space group: P N M A
;
_chemical_formula_sum "Si O2"
_cell_formula_units_Z 40
_cell_length_a 8.853007
_cell_length_b 21.024570
_cell_length_c 9.940787
_cell_angle_alpha 90.000000
_cell_angle_beta 90.000000
_cell_angle_gamma 90.000000
_cell_volume 1850.285299
_symmetry_space_group_name_H-M "P N M A"
_symmetry_group_IT_number 62
_symmetry_cell_setting 'orthorhombic'
loop_
_space_group_symop_operation_xyz
x,y,z
1/2-x,-y,1/2+z
1/2+x,1/2-y,1/2-z
-x,1/2+y,-z
-x,-y,-z
1/2+x,y,1/2-z
1/2-x,1/2+y,1/2+z
x,1/2-y,z
loop_
_atom_site_type_symbol
_atom_site_label
_atom_site_fract_x
_atom_site_fract_y
_atom_site_fract_z
Si Si1 0.544327 0.966311 0.307881
Si Si2 0.959478 0.115280 0.541509
Si Si3 0.458717 0.250000 0.596276
Si Si4 0.177925 0.750000 0.396740
Si Si5 0.193147 0.945783 0.714530
Si Si6 0.684554 0.624078 0.520790
O O1 0.574609 0.918545 0.183643
O O2 0.592035 0.930232 0.441636
O O3 0.376297 0.990851 0.283019
O O4 0.636445 0.032320 0.306626
O O5 0.884094 0.184998 0.537408
O O6 0.891610 0.071880 0.422366
O O7 0.140478 0.121442 0.525708
O O8 0.388558 0.250000 0.745639
O O9 0.640255 0.250000 0.604633
O O10 0.395187 0.188834 0.520060
O O11 0.182887 0.889546 0.821187
#
# Coordination Sequence:
#
# PCOD9467678 Si02
#       6
#     8   8   4   4   8   8
#     4  12  24  44  73 103 143 187 227 286 343 420
#     4  12  26  48  71 103 144 185 233 291 341 414
#     4  12  28  47  74 103 132 186 236 288 348 409
#     4  12  28  47  74 101 136 182 238 288 344 413
#     4  12  26  44  71 105 147 181 229 284 356 408
#     4  12  26  47  73 102 142 186 235 287 345 413
#
# _framework density 21.618288
#
# number of rings (size 3 to 8) (size 9 to 14) (size 15 to 20)
#    0.000    0.000    6.000    4.200    5.600    0.800 
#    0.000    0.000    0.000    0.000    0.000    0.000 
#    0.000    0.000    0.000    0.000    0.000    0.000 
#
# Total GULP energy -223937.328867 kJ/mol
# GULP energy per Si atom -5598.433222 kJ/mol
# Density = 2.156908 g / cm^3
# Si number density = 21.618288 Si / 1000 Ang^3
#
#
#
# Elastic Constant Matrix: (Units=GPa)
#
#
# Indices 1 2 3 4 5 6 
#
# 1 113.5100 20.0997 5.4237 0.0000 0.0000 0.0000
# 2 20.0997 76.8100 12.7479 0.0000 0.0000 0.0000
# 3 5.4237 12.7479 73.3140 0.0000 0.0000 0.0000
# 4 0.0000 0.0000 0.0000 37.4271 0.0000 0.0000
# 5 0.0000 0.0000 0.0000 0.0000 28.9119 0.0000
# 6 0.0000 0.0000 0.0000 0.0000 0.0000 168.6433
#
#
#
# Elastic Compliance Matrix: (Units=1/GPa)
#
#
# Indices 1 2 3 4 5 6 
#
# 1 0.009243 -0.002374 -0.000271 0.000000 0.000000 0.000000
# 2 -0.002374 0.014016 -0.002261 0.000000 0.000000 0.000000
# 3 -0.000271 -0.002261 0.014053 0.000000 0.000000 0.000000
# 4 0.000000 0.000000 0.000000 0.026719 0.000000 0.000000
# 5 0.000000 0.000000 0.000000 0.000000 0.034588 0.000000
# 6 0.000000 0.000000 0.000000 0.000000 0.000000 0.005930
#
#
# Mechanical properties :
#
#
# Convention : Reuss Voigt Hill
#
# Bulk Modulus (GPa) = 36.36436 37.79741 37.08089
# Shear Modulus (GPa) = 40.47696 62.02064 51.24880
#
# Velocity S-wave (km/s) = 4.33176 5.36202 4.87419
# Velocity P-wave (km/s) = 6.47120 7.47375 6.99047
#
# Compressibility (1/GPa) = 0.02749945
#
# Stress axis : x y z
#
# Youngs Moduli (GPa) = 108.18906 71.34887 71.15802
#
# Poissons Ratio (x) = 0.16936 0.01929
# Poissons Ratio (y) = 0.25681 0.16092
# Poissons Ratio (z) = 0.02932 0.16135
#
# Static dielectric constant tensor:
#      x y z
#    x 1.743100 0.000000 0.000000 
#    y 0.000000 1.802160 0.000000 
#    z 0.000000 0.000000 1.763000 
# 
# From -- ./inp_files/4354.got.cif
#   From: 2010.05.17/outbox.cif.g08.bks.cpg/sg62_3_cif.got.tgz:4354.got - 2010.06.03 15:25:27.
