data_PCOD9467007
_publ_section_title
;
Structure prediction by ZEFSAII (Michael W. Deem and Ramdas Pophale) SiO2 
 PCOD9467007
Probable space group: P N M A
;
_chemical_formula_sum "Si O2"
_cell_formula_units_Z 56
_cell_length_a 21.279440
_cell_length_b 8.933569
_cell_length_c 14.559402
_cell_angle_alpha 90.000000
_cell_angle_beta 90.000000
_cell_angle_gamma 90.000000
_cell_volume 2767.761910
_symmetry_space_group_name_H-M "P N M A"
_symmetry_group_IT_number 62
_symmetry_cell_setting 'orthorhombic'
loop_
_space_group_symop_operation_xyz
x,y,z
1/2-x,-y,1/2+z
1/2+x,1/2-y,1/2-z
-x,1/2+y,-z
-x,-y,-z
1/2+x,y,1/2-z
1/2-x,1/2+y,1/2+z
x,1/2-y,z
loop_
_atom_site_type_symbol
_atom_site_label
_atom_site_fract_x
_atom_site_fract_y
_atom_site_fract_z
Si Si1 0.019414 0.575341 0.280244
Si Si2 0.149358 0.074729 0.324308
Si Si3 0.608237 0.572157 0.743723
Si Si4 0.241059 0.426695 0.700394
Si Si5 0.051254 0.924410 0.065373
Si Si6 0.755537 0.920415 0.519405
Si Si7 0.136012 0.076973 0.941507
O O1 0.014775 0.750000 0.304949
O O2 0.081105 0.500562 0.323290
O O3 0.033316 0.565238 0.171019
O O4 0.952441 0.495420 0.295351
O O5 0.143889 0.250000 0.299755
O O6 0.179510 0.065329 0.426129
O O7 0.199571 0.999107 0.253817
O O8 0.608536 0.750000 0.750679
O O9 0.675202 0.504943 0.773943
O O10 0.603586 0.519382 0.637861
O O11 0.238576 0.250000 0.723524
O O12 0.244106 0.438246 0.589724
O O13 0.058924 0.750000 0.042667
O O14 0.113446 0.015348 0.039488
O O15 0.000000 0.000000 0.000000
O O16 0.731923 0.750000 0.539434
O O17 0.709290 0.042135 0.562670
O O18 0.120450 0.250000 0.929320
#
# Coordination Sequence:
#
# PCOD9467007 Si02
#       7
#     8   8   8   8   8   8   8
#     4  11  24  41  61  89 126 166 209 262 319 378
#     4  11  23  41  65  94 128 168 210 259 316 377
#     4  12  24  40  63  90 124 164 209 259 314 376
#     4  11  23  42  67  95 127 167 213 262 316 374
#     4  11  22  35  55  83 120 160 201 247 306 372
#     4  10  23  42  64  91 126 164 208 260 314 371
#     4  12  23  36  59  89 123 162 205 253 312 376
#
# _framework density 20.232955
#
# number of rings (size 3 to 8) (size 9 to 14) (size 15 to 20)
#    0.000    0.857    2.857    5.143    0.000    6.857 
#    0.000    0.714    0.000    0.000    0.000    0.000 
#    0.000    0.000    0.000    0.000    0.000    0.000 
#
# Total GULP energy -312959.373810 kJ/mol
# GULP energy per Si atom -5588.560247 kJ/mol
# Density = 2.018690 g / cm^3
# Si number density = 20.232955 Si / 1000 Ang^3
#
#
#
# Elastic Constant Matrix: (Units=GPa)
#
#
# Indices 1 2 3 4 5 6 
#
# 1 115.0819 51.4703 0.4756 0.0000 0.0000 0.0000
# 2 51.4703 131.2642 14.7084 0.0000 0.0000 0.0000
# 3 0.4756 14.7084 33.6898 0.0000 0.0000 0.0000
# 4 0.0000 0.0000 0.0000 22.0815 0.0000 0.0000
# 5 0.0000 0.0000 0.0000 0.0000 29.5565 0.0000
# 6 0.0000 0.0000 0.0000 0.0000 0.0000 38.8473
#
#
#
# Elastic Compliance Matrix: (Units=1/GPa)
#
#
# Indices 1 2 3 4 5 6 
#
# 1 0.010635 -0.004367 0.001756 0.000000 0.000000 0.000000
# 2 -0.004367 0.009803 -0.004218 0.000000 0.000000 0.000000
# 3 0.001756 -0.004218 0.031499 0.000000 0.000000 0.000000
# 4 0.000000 0.000000 0.000000 0.045287 0.000000 0.000000
# 5 0.000000 0.000000 0.000000 0.000000 0.033834 0.000000
# 6 0.000000 0.000000 0.000000 0.000000 0.000000 0.025742
#
#
# Mechanical properties :
#
#
# Convention : Reuss Voigt Hill
#
# Bulk Modulus (GPa) = 26.12312 45.92714 36.02513
# Shear Modulus (GPa) = 27.28988 32.32249 29.80618
#
# Velocity S-wave (km/s) = 3.67656 4.00123 3.84233
# Velocity P-wave (km/s) = 5.56435 6.64040 6.12605
#
# Compressibility (1/GPa) = 0.03828027
#
# Stress axis : x y z
#
# Youngs Moduli (GPa) = 94.02586 102.00682 31.74659
#
# Poissons Ratio (x) = 0.44547 -0.05576
# Poissons Ratio (y) = 0.41062 0.13392
# Poissons Ratio (z) = -0.16515 0.43029
#
# Static dielectric constant tensor:
#      x y z
#    x 1.692140 0.000000 0.000000 
#    y 0.000000 1.688460 0.000000 
#    z 0.000000 0.000000 1.732190 
# 
# From -- ./inp_files/20386.got.cif
#   From: 2010.05.17/outbox.cif.g08.bks.cpg/sg62_11_cif.got.tgz:20386.got - 2010.06.03 15:25:27.
