data_PCOD9467518
_publ_section_title
;
Structure prediction by ZEFSAII (Michael W. Deem and Ramdas Pophale) SiO2 
 PCOD9467518
Probable space group: P N M A
;
_chemical_formula_sum "Si O2"
_cell_formula_units_Z 48
_cell_length_a 9.039116
_cell_length_b 22.121303
_cell_length_c 11.053913
_cell_angle_alpha 90.000000
_cell_angle_beta 90.000000
_cell_angle_gamma 90.000000
_cell_volume 2210.307546
_symmetry_space_group_name_H-M "P N M A"
_symmetry_group_IT_number 62
_symmetry_cell_setting 'orthorhombic'
loop_
_space_group_symop_operation_xyz
x,y,z
1/2-x,-y,1/2+z
1/2+x,1/2-y,1/2-z
-x,1/2+y,-z
-x,-y,-z
1/2+x,y,1/2-z
1/2-x,1/2+y,1/2+z
x,1/2-y,z
loop_
_atom_site_type_symbol
_atom_site_label
_atom_site_fract_x
_atom_site_fract_y
_atom_site_fract_z
Si Si1 0.808590 0.001519 0.139989
Si Si2 0.596659 0.391702 0.813482
Si Si3 0.358387 0.416207 0.014667
Si Si4 0.888789 0.319778 0.866589
Si Si5 0.372379 0.819986 0.573386
Si Si6 0.543128 0.077351 0.256568
O O1 0.852834 0.945018 0.224388
O O2 0.676920 0.037767 0.205185
O O3 0.745317 0.973325 0.016553
O O4 0.952079 0.043927 0.136915
O O5 0.741452 0.359728 0.866797
O O6 0.498607 0.345082 0.735927
O O7 0.489675 0.416376 0.917667
O O8 0.258251 0.356143 0.005148
O O9 0.429635 0.417018 0.146018
O O10 0.850720 0.250000 0.842529
O O11 0.981404 0.322776 0.990578
O O12 0.335409 0.750000 0.594398
O O13 0.401665 0.858626 0.693958
#
# Coordination Sequence:
#
# PCOD9467518 Si02
#       6
#     8   8   8   8   8   8
#     4  12  24  44  72 108 145 182 234 297 369 435
#     4  12  23  42  70 109 146 183 233 304 365 435
#     4  12  26  46  73 109 145 191 244 300 367 431
#     4  11  23  42  69 102 141 190 243 296 362 433
#     4  11  27  50  72 100 142 195 249 298 361 438
#     4  12  27  46  70 106 144 194 237 300 364 439
#
# _framework density 21.716435000000001
#
# number of rings (size 3 to 8) (size 9 to 14) (size 15 to 20)
#    0.000    0.333    6.667    1.000    2.333    4.000 
#    0.000    0.000    0.000    0.000    0.000    0.000 
#    0.000    0.000    0.000    0.000    0.000    0.000 
#
# Total GULP energy -268848.213334 kJ/mol
# GULP energy per Si atom -5601.004444 kJ/mol
# Density = 2.166701 g / cm^3
# Si number density = 21.716435 Si / 1000 Ang^3
#
#
#
# Elastic Constant Matrix: (Units=GPa)
#
#
# Indices 1 2 3 4 5 6 
#
# 1 107.2881 27.1242 12.2250 0.0000 0.0000 0.0000
# 2 27.1242 101.2583 9.7807 0.0000 0.0000 0.0000
# 3 12.2250 9.7807 63.3459 0.0000 0.0000 0.0000
# 4 0.0000 0.0000 0.0000 36.7967 0.0000 0.0000
# 5 0.0000 0.0000 0.0000 0.0000 62.7855 0.0000
# 6 0.0000 0.0000 0.0000 0.0000 0.0000 33.1819
#
#
#
# Elastic Compliance Matrix: (Units=1/GPa)
#
#
# Indices 1 2 3 4 5 6 
#
# 1 0.010148 -0.002567 -0.001562 0.000000 0.000000 0.000000
# 2 -0.002567 0.010675 -0.001153 0.000000 0.000000 0.000000
# 3 -0.001562 -0.001153 0.016266 0.000000 0.000000 0.000000
# 4 0.000000 0.000000 0.000000 0.027176 0.000000 0.000000
# 5 0.000000 0.000000 0.000000 0.000000 0.015927 0.000000
# 6 0.000000 0.000000 0.000000 0.000000 0.000000 0.030137
#
#
# Mechanical properties :
#
#
# Convention : Reuss Voigt Hill
#
# Bulk Modulus (GPa) = 37.70159 41.12801 39.41480
# Shear Modulus (GPa) = 38.54025 41.40364 39.97195
#
# Velocity S-wave (km/s) = 4.21729 4.37115 4.29491
# Velocity P-wave (km/s) = 6.41191 6.66751 6.54096
#
# Compressibility (1/GPa) = 0.02652408
#
# Stress axis : x y z
#
# Youngs Moduli (GPa) = 98.54382 93.67839 61.47885
#
# Poissons Ratio (x) = 0.24051 0.09603
# Poissons Ratio (y) = 0.25300 0.07087
# Poissons Ratio (z) = 0.15392 0.10799
#
# Static dielectric constant tensor:
#      x y z
#    x 1.779520 0.000000 0.000000 
#    y 0.000000 1.767130 0.000000 
#    z 0.000000 0.000000 1.799720 
# 
# From -- ./inp_files/11290.got.cif
#   From: 2010.05.17/outbox.cif.g08.bks.cpg/sg62_6_cif.got.tgz:11290.got - 2010.06.03 15:25:27.
