data_PCOD9467622
_publ_section_title
;
Structure prediction by ZEFSAII (Michael W. Deem and Ramdas Pophale) SiO2 
 PCOD9467622
Probable space group: P N M A
;
_chemical_formula_sum "Si O2"
_cell_formula_units_Z 36
_cell_length_a 9.846490
_cell_length_b 17.962081
_cell_length_c 8.695057
_cell_angle_alpha 90.000000
_cell_angle_beta 90.000000
_cell_angle_gamma 90.000000
_cell_volume 1537.837787
_symmetry_space_group_name_H-M "P N M A"
_symmetry_group_IT_number 62
_symmetry_cell_setting 'orthorhombic'
loop_
_space_group_symop_operation_xyz
x,y,z
1/2-x,-y,1/2+z
1/2+x,1/2-y,1/2-z
-x,1/2+y,-z
-x,-y,-z
1/2+x,y,1/2-z
1/2-x,1/2+y,1/2+z
x,1/2-y,z
loop_
_atom_site_type_symbol
_atom_site_label
_atom_site_fract_x
_atom_site_fract_y
_atom_site_fract_z
Si Si1 0.989407 0.980456 0.677576
Si Si2 0.096134 0.250000 0.030173
Si Si3 0.873202 0.750000 0.629965
Si Si4 0.883829 0.250000 0.610047
Si Si5 0.441960 0.377555 0.650232
Si Si6 0.787294 0.402866 0.145456
O O1 0.834489 0.955573 0.699757
O O2 0.089608 0.916339 0.737039
O O3 0.000000 0.000000 0.500000
O O4 0.020929 0.055283 0.770776
O O5 0.052305 0.250000 0.206333
O O6 0.257477 0.250000 0.005416
O O7 0.036639 0.177502 0.947249
O O8 0.976054 0.750000 0.486420
O O9 0.777479 0.678359 0.632920
O O10 0.878096 0.176978 0.720216
O O11 0.340777 0.415388 0.527763
#
# Coordination Sequence:
#
# PCOD9467622 Si02
#       6
#     8   4   4   4   8   8
#     4  12  28  48  80 111 159 207 263 324 397 460
#     4  11  28  46  81 111 158 203 259 326 383 460
#     4  12  28  49  76 116 151 195 271 303 400 460
#     4  11  28  47  83 113 155 214 248 333 385 468
#     4  11  27  49  77 116 155 202 267 317 388 468
#     4  12  28  49  77 115 153 212 252 334 384 471
#
# _framework density 23.409490999999999
#
# number of rings (size 3 to 8) (size 9 to 14) (size 15 to 20)
#    0.000    0.444    0.000    6.000   21.778    0.000 
#    0.000    0.000    0.000    0.000    0.000    0.000 
#    0.000    0.000    0.000    0.000    0.000    0.000 
#
# Total GULP energy -201724.756596 kJ/mol
# GULP energy per Si atom -5603.465461 kJ/mol
# Density = 2.335621 g / cm^3
# Si number density = 23.409491 Si / 1000 Ang^3
#
#
#
# Elastic Constant Matrix: (Units=GPa)
#
#
# Indices 1 2 3 4 5 6 
#
# 1 114.4035 20.7275 47.4417 0.0000 0.0000 0.0000
# 2 20.7275 72.6885 27.3650 0.0000 0.0000 0.0000
# 3 47.4417 27.3650 134.9990 0.0000 0.0000 0.0000
# 4 0.0000 0.0000 0.0000 4.5421 0.0000 0.0000
# 5 0.0000 0.0000 0.0000 0.0000 44.9603 0.0000
# 6 0.0000 0.0000 0.0000 0.0000 0.0000 23.5724
#
#
#
# Elastic Compliance Matrix: (Units=1/GPa)
#
#
# Indices 1 2 3 4 5 6 
#
# 1 0.010428 -0.001726 -0.003315 0.000000 0.000000 0.000000
# 2 -0.001726 0.015180 -0.002471 0.000000 0.000000 0.000000
# 3 -0.003315 -0.002471 0.009073 0.000000 0.000000 0.000000
# 4 0.000000 0.000000 0.000000 0.220162 0.000000 0.000000
# 5 0.000000 0.000000 0.000000 0.000000 0.022242 0.000000
# 6 0.000000 0.000000 0.000000 0.000000 0.000000 0.042422
#
#
# Mechanical properties :
#
#
# Convention : Reuss Voigt Hill
#
# Bulk Modulus (GPa) = 50.86810 57.01773 53.94291
# Shear Modulus (GPa) = 14.65921 29.71874 22.18897
#
# Velocity S-wave (km/s) = 2.50513 3.56689 3.08208
# Velocity P-wave (km/s) = 5.49039 6.43220 5.97987
#
# Compressibility (1/GPa) = 0.01965869
#
# Stress axis : x y z
#
# Youngs Moduli (GPa) = 95.89273 65.87828 110.21476
#
# Poissons Ratio (x) = 0.11369 0.36535
# Poissons Ratio (y) = 0.16548 0.27229
# Poissons Ratio (z) = 0.31788 0.16275
#
# Static dielectric constant tensor:
#      x y z
#    x 1.920790 0.000000 0.000000 
#    y 0.000000 1.874920 0.000000 
#    z 0.000000 0.000000 1.881530 
# 
# From -- ./inp_files/4213.got.cif
#   From: 2010.05.17/outbox.cif.g08.bks.cpg/sg62_3_cif.got.tgz:4213.got - 2010.06.03 15:25:27.
