data_PCOD9467290
_publ_section_title
;
Structure prediction by ZEFSAII (Michael W. Deem and Ramdas Pophale) SiO2 
 PCOD9467290
Probable space group: P N M A
;
_chemical_formula_sum "Si O2"
_cell_formula_units_Z 64
_cell_length_a 19.679890
_cell_length_b 8.667791
_cell_length_c 24.010268
_cell_angle_alpha 90.000000
_cell_angle_beta 90.000000
_cell_angle_gamma 90.000000
_cell_volume 4095.699690
_symmetry_space_group_name_H-M "P N M A"
_symmetry_group_IT_number 62
_symmetry_cell_setting 'orthorhombic'
loop_
_space_group_symop_operation_xyz
x,y,z
1/2-x,-y,1/2+z
1/2+x,1/2-y,1/2-z
-x,1/2+y,-z
-x,-y,-z
1/2+x,y,1/2-z
1/2-x,1/2+y,1/2+z
x,1/2-y,z
loop_
_atom_site_type_symbol
_atom_site_label
_atom_site_fract_x
_atom_site_fract_y
_atom_site_fract_z
Si Si1 0.273309 0.935417 0.339522
Si Si2 0.501945 0.064662 0.621482
Si Si3 0.357861 0.935985 0.228056
Si Si4 0.361525 0.437941 0.562095
Si Si5 0.499459 0.567093 0.746610
Si Si6 0.227296 0.937676 0.163392
Si Si7 0.637892 0.934828 0.565279
Si Si8 0.642017 0.936056 0.227187
O O1 0.275398 0.750000 0.345568
O O2 0.323812 0.973916 0.288019
O O3 0.197752 0.978624 0.319304
O O4 0.300937 0.012880 0.394951
O O5 0.504353 0.250000 0.623336
O O6 0.434378 0.017141 0.587836
O O7 0.498638 0.004318 0.684481
O O8 0.568924 0.002907 0.591230
O O9 0.364133 0.750000 0.225962
O O10 0.302592 0.986171 0.181975
O O11 0.431431 0.010168 0.224590
O O12 0.360222 0.250000 0.562099
O O13 0.303065 0.490637 0.604808
O O14 0.353958 0.488456 0.498487
O O15 0.499608 0.750000 0.742175
O O16 0.431532 0.510077 0.777199
O O17 0.228253 0.750000 0.163032
O O18 0.175783 0.980445 0.213354
O O19 0.633002 0.750000 0.565664
O O20 0.635642 0.750000 0.227252
#
# Coordination Sequence:
#
# PCOD9467290 Si02
#       8
#     8   8   8   8   8   8   8   8
#     4   9  18  32  50  70  91 125 165 196 229 278
#     4  11  20  33  49  63  92 136 174 200 221 267
#     4   9  17  30  51  70  89 122 161 196 232 282
#     4   9  18  31  49  70  93 125 163 201 237 273
#     4  12  22  30  45  73 103 127 152 194 249 291
#     4   8  14  29  51  71  88 117 162 202 231 271
#     4  11  21  31  46  71 100 127 158 198 241 279
#     4   9  17  32  53  70  89 122 164 199 231 281
#
# _framework density 15.626146
#
# number of rings (size 3 to 8) (size 9 to 14) (size 15 to 20)
#    0.000    2.250    2.500    3.750    0.000    0.500 
#    0.000    3.750    0.000    0.000    0.000    0.875 
#    0.000    0.000    0.000    0.000    0.000    0.000 
#
# Total GULP energy -356961.508181 kJ/mol
# GULP energy per Si atom -5577.523565 kJ/mol
# Density = 1.559058 g / cm^3
# Si number density = 15.626146 Si / 1000 Ang^3
#
#
#
# Elastic Constant Matrix: (Units=GPa)
#
#
# Indices 1 2 3 4 5 6 
#
# 1 149.7622 38.2581 69.9333 0.0000 0.0000 0.0000
# 2 38.2581 32.2944 24.4821 0.0000 0.0000 0.0000
# 3 69.9333 24.4821 91.8911 0.0000 0.0000 0.0000
# 4 0.0000 0.0000 0.0000 16.0384 0.0000 0.0000
# 5 0.0000 0.0000 0.0000 0.0000 18.3526 0.0000
# 6 0.0000 0.0000 0.0000 0.0000 0.0000 7.5406
#
#
#
# Elastic Compliance Matrix: (Units=1/GPa)
#
#
# Indices 1 2 3 4 5 6 
#
# 1 0.012256 -0.009333 -0.006841 0.000000 0.000000 0.000000
# 2 -0.009333 0.045910 -0.005128 0.000000 0.000000 0.000000
# 3 -0.006841 -0.005128 0.017455 0.000000 0.000000 0.000000
# 4 0.000000 0.000000 0.000000 0.062350 0.000000 0.000000
# 5 0.000000 0.000000 0.000000 0.000000 0.054488 0.000000
# 6 0.000000 0.000000 0.000000 0.000000 0.000000 0.132615
#
#
# Mechanical properties :
#
#
# Convention : Reuss Voigt Hill
#
# Bulk Modulus (GPa) = 30.28862 59.92163 45.10512
# Shear Modulus (GPa) = 13.20363 17.80461 15.50412
#
# Velocity S-wave (km/s) = 2.90999 3.37918 3.15332
# Velocity P-wave (km/s) = 5.54221 7.32499 6.49506
#
# Compressibility (1/GPa) = 0.03301570
#
# Stress axis : x y z
#
# Youngs Moduli (GPa) = 81.59375 21.78188 57.29074
#
# Poissons Ratio (x) = 0.20330 0.39191
# Poissons Ratio (y) = 0.76154 0.29381
# Poissons Ratio (z) = 0.55815 0.11171
#
# Static dielectric constant tensor:
#      x y z
#    x 1.522180 0.000000 0.000000 
#    y 0.000000 1.525670 0.000000 
#    z 0.000000 0.000000 1.509350 
# 
# From -- ./inp_files/27874.got.cif
#   From: 2010.05.17/outbox.cif.g08.bks.cpg/sg62_14_cif.got.tgz:27874.got - 2010.06.03 15:25:27.
