data_PCOD9467778
_publ_section_title
;
Structure prediction by ZEFSAII (Michael W. Deem and Ramdas Pophale) SiO2 
 PCOD9467778
Probable space group: P N M A
;
_chemical_formula_sum "Si O2"
_cell_formula_units_Z 56
_cell_length_a 12.000000
_cell_length_b 15.000000
_cell_length_c 15.000000
_cell_angle_alpha 90.000000
_cell_angle_beta 90.000000
_cell_angle_gamma 90.000000
_cell_volume 2700.000000
_symmetry_space_group_name_H-M "P N M A"
_symmetry_group_IT_number 62
_symmetry_cell_setting 'orthorhombic'
loop_
_space_group_symop_operation_xyz
x,y,z
1/2-x,-y,1/2+z
1/2+x,1/2-y,1/2-z
-x,1/2+y,-z
-x,-y,-z
1/2+x,y,1/2-z
1/2-x,1/2+y,1/2+z
x,1/2-y,z
loop_
_atom_site_type_symbol
_atom_site_label
_atom_site_fract_x
_atom_site_fract_y
_atom_site_fract_z
Si Si1 0.312471 0.049513 0.916150
Si Si2 0.088241 0.520750 0.112786
Si Si3 0.920408 0.354109 0.411057
Si Si4 0.817848 0.846976 0.548207
Si Si5 0.898857 0.860651 0.026259
Si Si6 0.972820 0.986351 0.290454
Si Si7 0.211817 0.352112 0.662807
O O1 0.202701 0.112028 0.906324
O O2 0.415030 0.040595 0.846257
O O3 0.272150 0.945705 0.927126
O O4 0.369995 0.095703 0.002757
O O5 0.186851 0.577363 0.159273
O O6 0.016572 0.596556 0.059236
O O7 0.009403 0.488025 0.191939
O O8 0.123613 0.431759 0.056738
O O9 0.879825 0.250000 0.401239
O O10 0.909566 0.428384 0.333634
O O11 0.053823 0.347567 0.421841
O O12 0.768142 0.750000 0.578134
O O13 0.818299 0.845371 0.441681
O O14 0.901893 0.750000 0.013471
O O15 0.891991 0.900960 0.291263
O O16 0.235122 0.250000 0.693942
#
# Coordination Sequence:
#
# PCOD9467778 Si02
#       7
#     8   8   8   8   8   8   8
#     4  11  19  38  64  97 130 163 203 261 314 372
#     4  11  26  45  63  91 128 169 213 265 313 379
#     4  10  18  33  59  93 127 160 200 253 315 374
#     4   9  16  30  56  87 120 161 204 243 299 364
#     4  11  25  46  67  88 125 176 217 251 314 391
#     4  11  23  39  64  97 129 158 209 270 323 366
#     4  11  21  38  61  88 127 166 205 255 311 368
#
# _framework density 20.740741
#
# number of rings (size 3 to 8) (size 9 to 14) (size 15 to 20)
#    0.000    1.429    4.286    1.714    2.000    2.286 
#    0.000    0.000    0.000    0.000    0.000    0.000 
#    0.000    0.000    0.000    0.000    0.000    0.000 
#
# Total GULP energy -311934.135541 kJ/mol
# GULP energy per Si atom -5570.252420 kJ/mol
# Density = 2.069353 g / cm^3
# Si number density = 20.740741 Si / 1000 Ang^3
#
#
#
# Elastic Constant Matrix: (Units=GPa)
#
#
# Indices 1 2 3 4 5 6 
#
# 1 57.4588 34.5806 12.9743 0.0000 0.0000 0.0000
# 2 34.5806 203.9945 32.9316 0.0000 0.0000 0.0000
# 3 12.9743 32.9316 55.4295 0.0000 0.0000 0.0000
# 4 0.0000 0.0000 0.0000 14.1109 0.0000 0.0000
# 5 0.0000 0.0000 0.0000 0.0000 3.9165 0.0000
# 6 0.0000 0.0000 0.0000 0.0000 0.0000 36.3280
#
#
#
# Elastic Compliance Matrix: (Units=1/GPa)
#
#
# Indices 1 2 3 4 5 6 
#
# 1 0.019799 -0.002885 -0.002920 0.000000 0.000000 0.000000
# 2 -0.002885 0.005842 -0.002796 0.000000 0.000000 0.000000
# 3 -0.002920 -0.002796 0.020386 0.000000 0.000000 0.000000
# 4 0.000000 0.000000 0.000000 0.070867 0.000000 0.000000
# 5 0.000000 0.000000 0.000000 0.000000 0.255328 0.000000
# 6 0.000000 0.000000 0.000000 0.000000 0.000000 0.027527
#
#
# Mechanical properties :
#
#
# Convention : Reuss Voigt Hill
#
# Bulk Modulus (GPa) = 34.69201 53.09509 43.89355
# Shear Modulus (GPa) = 11.72168 26.63083 19.17626
#
# Velocity S-wave (km/s) = 2.37987 3.58716 3.04397
# Velocity P-wave (km/s) = 4.93098 6.54309 5.79338
#
# Compressibility (1/GPa) = 0.02882509
#
# Stress axis : x y z
#
# Youngs Moduli (GPa) = 50.50648 171.16032 49.05424
#
# Poissons Ratio (x) = 0.49378 0.14326
# Poissons Ratio (y) = 0.14571 0.13715
# Poissons Ratio (z) = 0.14750 0.47854
#
# Static dielectric constant tensor:
#      x y z
#    x 1.786220 0.000000 0.000000 
#    y 0.000000 1.766000 0.000000 
#    z 0.000000 0.000000 1.773650 
# 
# From -- ./inp_files/18071.got.cif
#   From: 2010.05.17/outbox.ucp.g08.bks.cvg/sg62_10_cif.got.tgz:18071.got - 2010.06.11 16:29:25.
