data_PCOD9467990
_publ_section_title
;
Structure prediction by ZEFSAII (Michael W. Deem and Ramdas Pophale) SiO2 
 PCOD9467990
Probable space group: P N M A
;
_chemical_formula_sum "Si O2"
_cell_formula_units_Z 64
_cell_length_a 15.000000
_cell_length_b 9.000000
_cell_length_c 24.000000
_cell_angle_alpha 90.000000
_cell_angle_beta 90.000000
_cell_angle_gamma 90.000000
_cell_volume 3240.000000
_symmetry_space_group_name_H-M "P N M A"
_symmetry_group_IT_number 62
_symmetry_cell_setting 'orthorhombic'
loop_
_space_group_symop_operation_xyz
x,y,z
1/2-x,-y,1/2+z
1/2+x,1/2-y,1/2-z
-x,1/2+y,-z
-x,-y,-z
1/2+x,y,1/2-z
1/2-x,1/2+y,1/2+z
x,1/2-y,z
loop_
_atom_site_type_symbol
_atom_site_label
_atom_site_fract_x
_atom_site_fract_y
_atom_site_fract_z
Si Si1 0.034019 0.917279 0.126869
Si Si2 0.132065 0.921807 0.244425
Si Si3 0.594903 0.575784 0.488250
Si Si4 0.017945 0.071467 0.669970
Si Si5 0.180696 0.579573 0.725574
Si Si6 0.359017 0.417712 0.352466
Si Si7 0.053407 0.928515 0.450578
Si Si8 0.745123 0.073945 0.562119
O O1 0.996135 0.750000 0.118591
O O2 0.078633 0.923231 0.186568
O O3 0.105276 0.940523 0.078282
O O4 0.953481 0.031776 0.123396
O O5 0.153982 0.750000 0.258506
O O6 0.062930 0.981578 0.290308
O O7 0.222372 0.010434 0.234712
O O8 0.500000 0.500000 0.500000
O O9 0.590636 0.750000 0.501487
O O10 0.673375 0.499661 0.521690
O O11 0.021082 0.250000 0.676380
O O12 0.991857 0.032318 0.607651
O O13 0.113588 0.007656 0.686112
O O14 0.188894 0.750000 0.707709
O O15 0.135522 0.574301 0.786417
O O16 0.337053 0.250000 0.368780
O O17 0.283916 0.525706 0.376128
O O18 0.052964 0.750000 0.455062
O O19 0.155746 0.978165 0.450396
O O20 0.000000 0.000000 0.500000
O O21 0.740855 0.250000 0.556983
#
# Coordination Sequence:
#
# PCOD9467990 Si02
#       8
#     8   8   8   8   8   8   8   8
#     4  10  21  37  59  85 117 158 199 244 298 354
#     4  10  21  39  63  90 120 161 206 248 296 358
#     4  11  22  36  57  89 124 158 200 247 300 362
#     4  10  21  41  67  91 119 160 209 254 298 360
#     4  11  24  38  58  92 128 161 196 247 312 366
#     4  11  22  36  58  88 122 158 199 247 305 363
#     4  10  24  44  66  92 120 158 207 259 308 356
#     4  11  23  40  63  89 120 161 209 255 305 364
#
# _framework density 19.753086
#
# number of rings (size 3 to 8) (size 9 to 14) (size 15 to 20)
#    0.000    1.500    2.500    2.250    0.000    6.500 
#    0.000    3.750    0.000    0.000    0.000    0.000 
#    0.000    0.000    0.000    0.000    0.000    0.000 
#
# Total GULP energy -357348.042825 kJ/mol
# GULP energy per Si atom -5583.563169 kJ/mol
# Density = 1.970813 g / cm^3
# Si number density = 19.753086 Si / 1000 Ang^3
#
#
#
# Elastic Constant Matrix: (Units=GPa)
#
#
# Indices 1 2 3 4 5 6 
#
# 1 54.5048 28.4441 27.0658 0.0000 0.0000 0.0000
# 2 28.4441 50.3488 29.0028 0.0000 0.0000 0.0000
# 3 27.0658 29.0028 91.3923 0.0000 0.0000 0.0000
# 4 0.0000 0.0000 0.0000 25.0715 0.0000 0.0000
# 5 0.0000 0.0000 0.0000 0.0000 17.9133 0.0000
# 6 0.0000 0.0000 0.0000 0.0000 0.0000 18.8119
#
#
#
# Elastic Compliance Matrix: (Units=1/GPa)
#
#
# Indices 1 2 3 4 5 6 
#
# 1 0.027094 -0.013075 -0.003875 0.000000 0.000000 0.000000
# 2 -0.013075 0.030614 -0.005843 0.000000 0.000000 0.000000
# 3 -0.003875 -0.005843 0.013944 0.000000 0.000000 0.000000
# 4 0.000000 0.000000 0.000000 0.039886 0.000000 0.000000
# 5 0.000000 0.000000 0.000000 0.000000 0.055824 0.000000
# 6 0.000000 0.000000 0.000000 0.000000 0.000000 0.053158
#
#
# Mechanical properties :
#
#
# Convention : Reuss Voigt Hill
#
# Bulk Modulus (GPa) = 38.36319 40.58569 39.47444
# Shear Modulus (GPa) = 18.19547 19.80822 19.00185
#
# Velocity S-wave (km/s) = 3.03833 3.17012 3.10493
# Velocity P-wave (km/s) = 5.63668 5.83015 5.73423
#
# Compressibility (1/GPa) = 0.02606666
#
# Stress axis : x y z
#
# Youngs Moduli (GPa) = 36.90806 32.66518 71.71750
#
# Poissons Ratio (x) = 0.42709 0.27789
# Poissons Ratio (y) = 0.48256 0.41905
# Poissons Ratio (z) = 0.14301 0.19086
#
# Static dielectric constant tensor:
#      x y z
#    x 1.644320 0.000000 0.000000 
#    y 0.000000 1.682050 0.000000 
#    z 0.000000 0.000000 1.752040 
# 
# From -- ./inp_files/29889.got.cif
#   From: 2010.05.17/outbox.ucp.g08.bks.cvg/sg62_15_cif.got.tgz:29889.got - 2010.06.11 16:29:25.
