data_PCOD9467855
_publ_section_title
;
Structure prediction by ZEFSAII (Michael W. Deem and Ramdas Pophale) SiO2 
 PCOD9467855
Probable space group: P N M A
;
_chemical_formula_sum "Si O2"
_cell_formula_units_Z 64
_cell_length_a 18.000000
_cell_length_b 9.000000
_cell_length_c 21.000000
_cell_angle_alpha 90.000000
_cell_angle_beta 90.000000
_cell_angle_gamma 90.000000
_cell_volume 3402.000000
_symmetry_space_group_name_H-M "P N M A"
_symmetry_group_IT_number 62
_symmetry_cell_setting 'orthorhombic'
loop_
_space_group_symop_operation_xyz
x,y,z
1/2-x,-y,1/2+z
1/2+x,1/2-y,1/2-z
-x,1/2+y,-z
-x,-y,-z
1/2+x,y,1/2-z
1/2-x,1/2+y,1/2+z
x,1/2-y,z
loop_
_atom_site_type_symbol
_atom_site_label
_atom_site_fract_x
_atom_site_fract_y
_atom_site_fract_z
Si Si1 0.090905 0.927036 0.096947
Si Si2 0.520679 0.929969 0.793612
Si Si3 0.836330 0.073176 0.037980
Si Si4 0.282890 0.570184 0.685816
Si Si5 0.136538 0.930477 0.602650
Si Si6 0.321010 0.427617 0.960279
Si Si7 0.649794 0.429445 0.179371
Si Si8 0.056468 0.928718 0.848237
O O1 0.090835 0.750000 0.106177
O O2 0.151994 0.000324 0.143146
O O3 0.110374 0.954739 0.022643
O O4 0.012985 0.995872 0.117354
O O5 0.524574 0.750000 0.794317
O O6 0.565239 0.981345 0.856280
O O7 0.433687 0.968167 0.797016
O O8 0.556864 0.976493 0.725972
O O9 0.817344 0.250000 0.036779
O O10 0.873371 0.040900 0.106413
O O11 0.764326 0.973280 0.029099
O O12 0.288413 0.750000 0.684329
O O13 0.207179 0.529082 0.647862
O O14 0.295337 0.528786 0.760989
O O15 0.136216 0.750000 0.600200
O O16 0.140793 0.977949 0.528006
O O17 0.330551 0.250000 0.955132
O O18 0.340535 0.500383 0.891285
O O19 0.655351 0.250000 0.172240
O O20 0.046275 0.750000 0.848605
#
# Coordination Sequence:
#
# PCOD9467855 Si02
#       8
#     8   8   8   8   8   8   8   8
#     4  11  21  34  55  85 123 155 182 231 291 344
#     4   9  18  35  59  84 107 142 195 245 279 325
#     4  10  22  37  56  85 118 154 193 234 281 339
#     4  10  19  36  61  85 110 151 197 234 279 340
#     4   9  19  35  58  85 111 145 193 240 282 332
#     4  11  23  38  58  84 117 152 188 239 293 344
#     4  10  21  37  60  86 112 146 193 240 284 340
#     4  10  20  36  59  84 112 150 196 236 276 340
#
# _framework density 18.812463000000001
#
# number of rings (size 3 to 8) (size 9 to 14) (size 15 to 20)
#    0.000    2.000    2.500    1.125    1.750    2.000 
#    0.000    0.000    0.000    3.000    0.000    0.000 
#    0.000    0.000    0.000    0.000    0.000    0.000 
#
# Total GULP energy -356838.255712 kJ/mol
# GULP energy per Si atom -5575.597746 kJ/mol
# Density = 1.876965 g / cm^3
# Si number density = 18.812463 Si / 1000 Ang^3
#
#
#
# Elastic Constant Matrix: (Units=GPa)
#
#
# Indices 1 2 3 4 5 6 
#
# 1 19.6461 1.6391 11.4901 0.0000 0.0000 0.0000
# 2 1.6391 9.2931 18.3954 0.0000 0.0000 0.0000
# 3 11.4901 18.3954 165.4690 0.0000 0.0000 0.0000
# 4 0.0000 0.0000 0.0000 33.1426 0.0000 0.0000
# 5 0.0000 0.0000 0.0000 0.0000 37.4021 0.0000
# 6 0.0000 0.0000 0.0000 0.0000 0.0000 19.8659
#
#
#
# Elastic Compliance Matrix: (Units=1/GPa)
#
#
# Indices 1 2 3 4 5 6 
#
# 1 0.053106 -0.002650 -0.003393 0.000000 0.000000 0.000000
# 2 -0.002650 0.138100 -0.015169 0.000000 0.000000 0.000000
# 3 -0.003393 -0.015169 0.007965 0.000000 0.000000 0.000000
# 4 0.000000 0.000000 0.000000 0.030173 0.000000 0.000000
# 5 0.000000 0.000000 0.000000 0.000000 0.026736 0.000000
# 6 0.000000 0.000000 0.000000 0.000000 0.000000 0.050338
#
#
# Mechanical properties :
#
#
# Convention : Reuss Voigt Hill
#
# Bulk Modulus (GPa) = 6.37967 28.60637 17.49302
# Shear Modulus (GPa) = 12.46597 28.94103 20.70350
#
# Velocity S-wave (km/s) = 2.57698 3.92649 3.32101
# Velocity P-wave (km/s) = 3.50043 5.98294 4.90146
#
# Compressibility (1/GPa) = 0.15674789
#
# Stress axis : x y z
#
# Youngs Moduli (GPa) = 18.83013 7.24112 125.54348
#
# Poissons Ratio (x) = 0.01919 0.42598
# Poissons Ratio (y) = 0.04990 1.90433
# Poissons Ratio (z) = 0.06389 0.10984
#
# Static dielectric constant tensor:
#      x y z
#    x 1.675900 0.000000 0.000000 
#    y 0.000000 1.628760 0.000000 
#    z 0.000000 0.000000 1.667990 
# 
# From -- ./inp_files/27757.got.cif
#   From: 2010.05.17/outbox.ucp.g08.bks.cvg/sg62_14_cif.got.tgz:27757.got - 2010.06.11 16:29:25.
