data_PCOD9467155
_publ_section_title
;
Structure prediction by ZEFSAII (Michael W. Deem and Ramdas Pophale) SiO2 
 PCOD9467155
Probable space group: P N M A
;
_chemical_formula_sum "Si O2"
_cell_formula_units_Z 60
_cell_length_a 14.463069
_cell_length_b 9.235460
_cell_length_c 22.732568
_cell_angle_alpha 90.000000
_cell_angle_beta 90.000000
_cell_angle_gamma 90.000000
_cell_volume 3036.459470
_symmetry_space_group_name_H-M "P N M A"
_symmetry_group_IT_number 62
_symmetry_cell_setting 'orthorhombic'
loop_
_space_group_symop_operation_xyz
x,y,z
1/2-x,-y,1/2+z
1/2+x,1/2-y,1/2-z
-x,1/2+y,-z
-x,-y,-z
1/2+x,y,1/2-z
1/2-x,1/2+y,1/2+z
x,1/2-y,z
loop_
_atom_site_type_symbol
_atom_site_label
_atom_site_fract_x
_atom_site_fract_y
_atom_site_fract_z
Si Si1 0.399736 0.978329 0.936187
Si Si2 0.086180 0.076048 0.868709
Si Si3 0.620614 0.924752 0.408320
Si Si4 0.917250 0.420247 0.256424
Si Si5 0.246788 0.575115 0.202054
Si Si6 0.697221 0.583198 0.533278
Si Si7 0.535293 0.750000 0.988352
Si Si8 0.627172 0.421241 0.198480
O O1 0.307925 0.917810 0.968225
O O2 0.375333 0.982325 0.867357
O O3 0.424156 0.126081 0.967324
O O4 0.486374 0.874222 0.946523
O O5 0.091786 0.250000 0.861933
O O6 0.984941 0.036826 0.894616
O O7 0.094886 0.997148 0.806441
O O8 0.161052 0.015689 0.914021
O O9 0.624900 0.750000 0.409652
O O10 0.687107 0.969354 0.354988
O O11 0.655911 0.973850 0.471812
O O12 0.893725 0.250000 0.253506
O O13 0.847873 0.504248 0.299669
O O14 0.023538 0.432898 0.275773
O O15 0.251131 0.750000 0.205338
O O16 0.195137 0.509173 0.258892
O O17 0.666510 0.750000 0.542547
O O18 0.652496 0.250000 0.196565
#
# Coordination Sequence:
#
# PCOD9467155 Si02
#       8
#     8   8   8   8   8   8   4   8
#     4  11  23  44  65  96 127 171 213 267 314 394
#     4  11  22  41  66  94 130 165 217 271 316 379
#     4   9  21  41  62  94 133 165 210 267 318 382
#     4  11  24  41  63  94 129 173 213 262 324 388
#     4  11  23  41  66  96 130 169 217 273 323 384
#     4  11  22  40  67  95 128 173 214 260 328 384
#     4  10  24  42  66  88 130 168 208 262 324 362
#     4  11  23  42  66  94 133 171 217 265 322 383
#
# _framework density 19.759854000000001
#
# number of rings (size 3 to 8) (size 9 to 14) (size 15 to 20)
#    0.000    1.333    2.667    2.400    1.867    2.667 
#    2.400    2.000    0.000    0.000    0.000    0.000 
#    0.000    0.000    0.000    0.000    0.000    0.000 
#
# Total GULP energy -334225.953392 kJ/mol
# GULP energy per Si atom -5570.432557 kJ/mol
# Density = 1.971488 g / cm^3
# Si number density = 19.759854 Si / 1000 Ang^3
#
#
#
# Elastic Constant Matrix: (Units=GPa)
#
#
# Indices 1 2 3 4 5 6 
#
# 1 46.0559 20.8310 13.8629 0.0000 0.0000 0.0000
# 2 20.8310 48.4911 7.4050 0.0000 0.0000 0.0000
# 3 13.8629 7.4050 60.7738 0.0000 0.0000 0.0000
# 4 0.0000 0.0000 0.0000 15.2381 0.0000 0.0000
# 5 0.0000 0.0000 0.0000 0.0000 24.5320 0.0000
# 6 0.0000 0.0000 0.0000 0.0000 0.0000 27.4168
#
#
#
# Elastic Compliance Matrix: (Units=1/GPa)
#
#
# Indices 1 2 3 4 5 6 
#
# 1 0.028414 -0.011429 -0.005089 0.000000 0.000000 0.000000
# 2 -0.011429 0.025610 -0.000513 0.000000 0.000000 0.000000
# 3 -0.005089 -0.000513 0.017678 0.000000 0.000000 0.000000
# 4 0.000000 0.000000 0.000000 0.065625 0.000000 0.000000
# 5 0.000000 0.000000 0.000000 0.000000 0.040763 0.000000
# 6 0.000000 0.000000 0.000000 0.000000 0.000000 0.036474
#
#
# Mechanical properties :
#
#
# Convention : Reuss Voigt Hill
#
# Bulk Modulus (GPa) = 26.56784 26.61319 26.59052
# Shear Modulus (GPa) = 19.14437 20.98549 20.06493
#
# Velocity S-wave (km/s) = 3.11602 3.26241 3.19005
# Velocity P-wave (km/s) = 5.14010 5.26200 5.20141
#
# Compressibility (1/GPa) = 0.03763949
#
# Stress axis : x y z
#
# Youngs Moduli (GPa) = 35.19418 39.04654 56.56808
#
# Poissons Ratio (x) = 0.44626 0.28786
# Poissons Ratio (y) = 0.40223 0.02905
# Poissons Ratio (z) = 0.17910 0.02005
#
# Static dielectric constant tensor:
#      x y z
#    x 1.739220 0.000000 0.000000 
#    y 0.000000 1.665200 0.000000 
#    z 0.000000 0.000000 1.676230 
# 
# From -- ./inp_files/29714.got.cif
#   From: 2010.05.17/outbox.cif.g08.bks.cpg/sg62_15_cif.got.tgz:29714.got - 2010.06.03 15:25:27.
