data_PCOD9467501
_publ_section_title
;
Structure prediction by ZEFSAII (Michael W. Deem and Ramdas Pophale) SiO2 
 PCOD9467501
Probable space group: P N M A
;
_chemical_formula_sum "Si O2"
_cell_formula_units_Z 48
_cell_length_a 8.868527
_cell_length_b 24.655133
_cell_length_c 9.817989
_cell_angle_alpha 90.000000
_cell_angle_beta 90.000000
_cell_angle_gamma 90.000000
_cell_volume 2146.749564
_symmetry_space_group_name_H-M "P N M A"
_symmetry_group_IT_number 62
_symmetry_cell_setting 'orthorhombic'
loop_
_space_group_symop_operation_xyz
x,y,z
1/2-x,-y,1/2+z
1/2+x,1/2-y,1/2-z
-x,1/2+y,-z
-x,-y,-z
1/2+x,y,1/2-z
1/2-x,1/2+y,1/2+z
x,1/2-y,z
loop_
_atom_site_type_symbol
_atom_site_label
_atom_site_fract_x
_atom_site_fract_y
_atom_site_fract_z
Si Si1 0.925612 0.958314 0.603932
Si Si2 0.093261 0.498760 0.861398
Si Si3 0.151951 0.128365 0.809132
Si Si4 0.817732 0.311642 0.299643
Si Si5 0.017444 0.183408 0.061766
Si Si6 0.478119 0.148662 0.949390
O O1 0.969762 0.901637 0.540050
O O2 0.750816 0.971731 0.614394
O O3 0.000000 0.000000 0.500000
O O4 0.000191 0.969304 0.748631
O O5 0.122824 0.436551 0.811493
O O6 0.000000 0.500000 0.000000
O O7 0.322597 0.138529 0.863285
O O8 0.109011 0.154863 0.663537
O O9 0.037250 0.156206 0.916390
O O10 0.779439 0.250000 0.265761
O O11 0.882521 0.334449 0.159728
O O12 0.931878 0.310796 0.428687
O O13 0.665560 0.336745 0.356082
O O14 0.019592 0.250000 0.049885
#
# Coordination Sequence:
#
# PCOD9467501 Si02
#       6
#     8   8   8   8   8   8
#     4  12  24  43  62  90 125 162 205 250 305 361
#     4  12  26  41  64  89 124 165 205 255 303 361
#     4  11  23  41  59  89 121 160 204 250 303 361
#     4   9  20  40  63  91 122 156 200 252 304 365
#     4   9  20  39  63  88 120 154 199 251 304 363
#     4  11  25  40  63  89 126 162 206 253 305 365
#
# _framework density 22.359383999999999
#
# number of rings (size 3 to 8) (size 9 to 14) (size 15 to 20)
#    0.000    1.333    3.333    1.000    4.667    3.333 
#    0.000    0.000    0.000    0.000    0.000    0.000 
#    0.000    0.000    0.000    0.000    0.000    0.000 
#
# Total GULP energy -268195.497164 kJ/mol
# GULP energy per Si atom -5587.406191 kJ/mol
# Density = 2.230849 g / cm^3
# Si number density = 22.359384 Si / 1000 Ang^3
#
#
#
# Elastic Constant Matrix: (Units=GPa)
#
#
# Indices 1 2 3 4 5 6 
#
# 1 82.6812 -1.0760 33.0875 0.0000 0.0000 0.0000
# 2 -1.0760 33.7580 -2.0734 0.0000 0.0000 0.0000
# 3 33.0875 -2.0734 133.1428 0.0000 0.0000 0.0000
# 4 0.0000 0.0000 0.0000 37.0246 0.0000 0.0000
# 5 0.0000 0.0000 0.0000 0.0000 49.8996 0.0000
# 6 0.0000 0.0000 0.0000 0.0000 0.0000 14.7824
#
#
#
# Elastic Compliance Matrix: (Units=1/GPa)
#
#
# Indices 1 2 3 4 5 6 
#
# 1 0.013432 0.000223 -0.003335 0.000000 0.000000 0.000000
# 2 0.000223 0.029655 0.000406 0.000000 0.000000 0.000000
# 3 -0.003335 0.000406 0.008346 0.000000 0.000000 0.000000
# 4 0.000000 0.000000 0.000000 0.027009 0.000000 0.000000
# 5 0.000000 0.000000 0.000000 0.000000 0.020040 0.000000
# 6 0.000000 0.000000 0.000000 0.000000 0.000000 0.067648
#
#
# Mechanical properties :
#
#
# Convention : Reuss Voigt Hill
#
# Bulk Modulus (GPa) = 21.72843 34.38422 28.05632
# Shear Modulus (GPa) = 26.75511 34.98424 30.86968
#
# Velocity S-wave (km/s) = 3.46294 3.95984 3.71969
# Velocity P-wave (km/s) = 5.07229 6.02648 5.56986
#
# Compressibility (1/GPa) = 0.04602266
#
# Stress axis : x y z
#
# Youngs Moduli (GPa) = 74.44928 33.72146 119.82181
#
# Poissons Ratio (x) = -0.00753 0.39955
# Poissons Ratio (y) = -0.01663 -0.04869
# Poissons Ratio (z) = 0.24825 -0.01370
#
# Static dielectric constant tensor:
#      x y z
#    x 1.850610 0.000000 0.000000 
#    y 0.000000 1.805510 0.000000 
#    z 0.000000 0.000000 1.844030 
# 
# From -- ./inp_files/4501.got.cif
#   From: 2010.05.17/outbox.cif.g08.bks.cpg/sg62_3_cif.got.tgz:4501.got - 2010.06.03 15:25:27.
