data_PCOD9467222
_publ_section_title
;
Structure prediction by ZEFSAII (Michael W. Deem and Ramdas Pophale) SiO2 
 PCOD9467222
Probable space group: P N M A
;
_chemical_formula_sum "Si O2"
_cell_formula_units_Z 36
_cell_length_a 19.451017
_cell_length_b 9.645833
_cell_length_c 7.770208
_cell_angle_alpha 90.000000
_cell_angle_beta 90.000000
_cell_angle_gamma 90.000000
_cell_volume 1457.856228
_symmetry_space_group_name_H-M "P N M A"
_symmetry_group_IT_number 62
_symmetry_cell_setting 'orthorhombic'
loop_
_space_group_symop_operation_xyz
x,y,z
1/2-x,-y,1/2+z
1/2+x,1/2-y,1/2-z
-x,1/2+y,-z
-x,-y,-z
1/2+x,y,1/2-z
1/2-x,1/2+y,1/2+z
x,1/2-y,z
loop_
_atom_site_type_symbol
_atom_site_label
_atom_site_fract_x
_atom_site_fract_y
_atom_site_fract_z
Si Si1 0.031003 0.084625 0.657808
Si Si2 0.812113 0.250000 0.938961
Si Si3 0.803465 0.750000 0.702016
Si Si4 0.569536 0.103635 0.324382
Si Si5 0.148118 0.024394 0.865088
Si Si6 0.759184 0.250000 0.581792
O O1 0.033517 0.250000 0.637922
O O2 0.107380 0.022571 0.688236
O O3 0.000000 0.000000 0.500000
O O4 0.975746 0.030128 0.796934
O O5 0.734473 0.250000 0.020415
O O6 0.843193 0.383639 0.031960
O O7 0.817976 0.250000 0.731019
O O8 0.857128 0.878036 0.724580
O O9 0.749876 0.750000 0.868727
O O10 0.531682 0.250000 0.283879
O O11 0.594635 0.108926 0.518883
O O12 0.217393 0.111594 0.864849
#
# Coordination Sequence:
#
# PCOD9467222 Si02
#       6
#     8   4   4   8   8   4
#     4  12  26  44  71 106 141 189 237 308 373 447
#     4  12  28  41  78 100 148 193 247 300 352 442
#     4   8  22  47  69 104 142 192 237 303 349 435
#     4   9  21  44  72  93 140 180 231 297 367 421
#     4  11  25  46  67 105 136 188 242 298 365 441
#     4  10  24  48  67  98 144 189 238 293 375 407
#
# _framework density 24.693792999999999
#
# number of rings (size 3 to 8) (size 9 to 14) (size 15 to 20)
#    0.667    0.889    2.222    1.333   14.000    0.000 
#    4.000    0.000    0.000    0.000    0.000    0.000 
#    0.000    0.000    0.000    0.000    0.000    0.000 
#
# Total GULP energy -200580.921824 kJ/mol
# GULP energy per Si atom -5571.692273 kJ/mol
# Density = 2.463759 g / cm^3
# Si number density = 24.693793 Si / 1000 Ang^3
#
#
#
# Elastic Constant Matrix: (Units=GPa)
#
#
# Indices 1 2 3 4 5 6 
#
# 1 32.6740 21.8767 -4.7025 0.0000 0.0000 0.0000
# 2 21.8767 154.8994 1.2088 0.0000 0.0000 0.0000
# 3 -4.7025 1.2088 58.9239 0.0000 0.0000 0.0000
# 4 0.0000 0.0000 0.0000 29.9676 0.0000 0.0000
# 5 0.0000 0.0000 0.0000 0.0000 42.7282 0.0000
# 6 0.0000 0.0000 0.0000 0.0000 0.0000 43.1446
#
#
#
# Elastic Compliance Matrix: (Units=1/GPa)
#
#
# Indices 1 2 3 4 5 6 
#
# 1 0.034269 -0.004862 0.002835 0.000000 0.000000 0.000000
# 2 -0.004862 0.007147 -0.000535 0.000000 0.000000 0.000000
# 3 0.002835 -0.000535 0.017208 0.000000 0.000000 0.000000
# 4 0.000000 0.000000 0.000000 0.033369 0.000000 0.000000
# 5 0.000000 0.000000 0.000000 0.000000 0.023404 0.000000
# 6 0.000000 0.000000 0.000000 0.000000 0.000000 0.023178
#
#
# Mechanical properties :
#
#
# Convention : Reuss Voigt Hill
#
# Bulk Modulus (GPa) = 18.69172 31.47368 25.08270
# Shear Modulus (GPa) = 30.95370 38.37571 34.66470
#
# Velocity S-wave (km/s) = 3.54432 3.94644 3.75077
# Velocity P-wave (km/s) = 4.93310 5.79129 5.37934
#
# Compressibility (1/GPa) = 0.05349963
#
# Stress axis : x y z
#
# Youngs Moduli (GPa) = 29.18118 139.92602 58.11175
#
# Poissons Ratio (x) = 0.68031 -0.16472
# Poissons Ratio (y) = 0.14188 0.03107
# Poissons Ratio (z) = -0.08272 0.07481
#
# Static dielectric constant tensor:
#      x y z
#    x 2.098380 0.000000 0.000000 
#    y 0.000000 2.266570 0.000000 
#    z 0.000000 0.000000 2.718780 
# 
# From -- ./inp_files/8345.got.cif
#   From: 2010.05.17/outbox.cif.g08.bks.cpg/sg62_5_cif.got.tgz:8345.got - 2010.06.03 15:25:27.
