data_PCOD9467736
_publ_section_title
;
Structure prediction by ZEFSAII (Michael W. Deem and Ramdas Pophale) SiO2 
 PCOD9467736
Probable space group: P N M A
;
_chemical_formula_sum "Si O2"
_cell_formula_units_Z 40
_cell_length_a 16.334795
_cell_length_b 7.611096
_cell_length_c 16.336208
_cell_angle_alpha 90.000000
_cell_angle_beta 90.000000
_cell_angle_gamma 90.000000
_cell_volume 2031.010379
_symmetry_space_group_name_H-M "P N M A"
_symmetry_group_IT_number 62
_symmetry_cell_setting 'orthorhombic'
loop_
_space_group_symop_operation_xyz
x,y,z
1/2-x,-y,1/2+z
1/2+x,1/2-y,1/2-z
-x,1/2+y,-z
-x,-y,-z
1/2+x,y,1/2-z
1/2-x,1/2+y,1/2+z
x,1/2-y,z
loop_
_atom_site_type_symbol
_atom_site_label
_atom_site_fract_x
_atom_site_fract_y
_atom_site_fract_z
Si Si1 0.446428 0.465768 0.808484
Si Si2 0.305686 0.044261 0.931513
Si Si3 0.959006 0.462006 0.876622
Si Si4 0.927563 0.958366 0.435699
Si Si5 0.126161 0.459859 0.958540
O O1 0.446034 0.250000 0.810872
O O2 0.371153 0.527685 0.865702
O O3 0.440026 0.522582 0.714938
O O4 0.532571 0.520122 0.850545
O O5 0.298417 0.250000 0.911718
O O6 0.214590 0.968057 0.933052
O O7 0.346872 0.032063 0.021464
O O8 0.962517 0.250000 0.874252
O O9 0.047559 0.527699 0.908430
O O10 0.893742 0.509997 0.946080
O O11 0.916131 0.750000 0.430649
O O12 0.000000 0.000000 0.500000
O O13 0.128151 0.250000 0.946046
#
# Coordination Sequence:
#
# PCOD9467736 Si02
#       5
#     8   8   8   8   8
#     4   8  15  29  48  71  94 118 154 195 233 274
#     4   9  17  31  48  68  97 128 156 192 239 283
#     4   9  17  32  51  69  91 123 161 197 232 276
#     4   9  16  28  47  71  96 124 154 189 234 280
#     4   9  18  32  49  67  93 128 158 190 238 285
#
# _framework density 19.694633
#
# number of rings (size 3 to 8) (size 9 to 14) (size 15 to 20)
#    0.000    3.200    0.000    1.800    0.000    0.800 
#    3.600    5.000    0.000    0.000    0.000    0.000 
#    0.000    0.000    0.000    0.000    0.000    0.000 
#
# Total GULP energy -222758.544532 kJ/mol
# GULP energy per Si atom -5568.963613 kJ/mol
# Density = 1.964981 g / cm^3
# Si number density = 19.694633 Si / 1000 Ang^3
#
#
#
# Elastic Constant Matrix: (Units=GPa)
#
#
# Indices 1 2 3 4 5 6 
#
# 1 113.0122 1.0723 54.6488 0.0000 0.0000 0.0000
# 2 1.0723 38.5083 -0.2230 0.0000 0.0000 0.0000
# 3 54.6488 -0.2230 124.1352 0.0000 0.0000 0.0000
# 4 0.0000 0.0000 0.0000 17.5039 0.0000 0.0000
# 5 0.0000 0.0000 0.0000 0.0000 11.6230 0.0000
# 6 0.0000 0.0000 0.0000 0.0000 0.0000 14.5200
#
#
#
# Elastic Compliance Matrix: (Units=1/GPa)
#
#
# Indices 1 2 3 4 5 6 
#
# 1 0.011246 -0.000342 -0.004952 0.000000 0.000000 0.000000
# 2 -0.000342 0.025979 0.000197 0.000000 0.000000 0.000000
# 3 -0.004952 0.000197 0.010236 0.000000 0.000000 0.000000
# 4 0.000000 0.000000 0.000000 0.057130 0.000000 0.000000
# 5 0.000000 0.000000 0.000000 0.000000 0.086037 0.000000
# 6 0.000000 0.000000 0.000000 0.000000 0.000000 0.068871
#
#
# Mechanical properties :
#
#
# Convention : Reuss Voigt Hill
#
# Bulk Modulus (GPa) = 26.83219 42.96135 34.89677
# Shear Modulus (GPa) = 17.72332 23.40654 20.56493
#
# Velocity S-wave (km/s) = 3.00310 3.45116 3.23490
# Velocity P-wave (km/s) = 5.06739 6.14344 5.63118
#
# Compressibility (1/GPa) = 0.03726867
#
# Stress axis : x y z
#
# Youngs Moduli (GPa) = 88.91830 38.49254 97.69467
#
# Poissons Ratio (x) = 0.01316 0.48375
# Poissons Ratio (y) = 0.03040 -0.01926
# Poissons Ratio (z) = 0.44029 -0.00759
#
# Static dielectric constant tensor:
#      x y z
#    x 1.705390 0.000000 0.000000 
#    y 0.000000 1.761850 0.000000 
#    z 0.000000 0.000000 1.688520 
# 
# From -- ./inp_files/18608.got.cif
#   From: 2010.05.17/outbox.cif.g08.bks.cpg/sg62_10_cif.got.tgz:18608.got - 2010.06.03 15:25:27.
