data_PCOD9467600
_publ_section_title
;
Structure prediction by ZEFSAII (Michael W. Deem and Ramdas Pophale) SiO2 
 PCOD9467600
Probable space group: P N M A
;
_chemical_formula_sum "Si O2"
_cell_formula_units_Z 28
_cell_length_a 8.316206
_cell_length_b 7.785838
_cell_length_c 18.316941
_cell_angle_alpha 90.000000
_cell_angle_beta 90.000000
_cell_angle_gamma 90.000000
_cell_volume 1185.996885
_symmetry_space_group_name_H-M "P N M A"
_symmetry_group_IT_number 62
_symmetry_cell_setting 'orthorhombic'
loop_
_space_group_symop_operation_xyz
x,y,z
1/2-x,-y,1/2+z
1/2+x,1/2-y,1/2-z
-x,1/2+y,-z
-x,-y,-z
1/2+x,y,1/2-z
1/2-x,1/2+y,1/2+z
x,1/2-y,z
loop_
_atom_site_type_symbol
_atom_site_label
_atom_site_fract_x
_atom_site_fract_y
_atom_site_fract_z
Si Si1 0.350827 0.543888 0.447890
Si Si2 0.025406 0.544423 0.196864
Si Si3 0.614878 0.946049 0.848466
Si Si4 0.500000 0.500000 0.000000
O O1 0.500000 0.500000 0.500000
O O2 0.328338 0.750000 0.449190
O O3 0.400127 0.491048 0.366099
O O4 0.189021 0.465209 0.478956
O O5 0.014483 0.750000 0.205571
O O6 0.203465 0.497885 0.170068
O O7 0.983828 0.460998 0.273983
O O8 0.613901 0.750000 0.878046
O O9 0.536854 0.048967 0.914069
#
# Coordination Sequence:
#
# PCOD9467600 Si02
#       4
#     8   8   8   4
#     4  11  25  46  73 105 143 190 242 301 366 435
#     4  11  25  46  73 105 147 195 246 309 377 442
#     4  12  26  45  73 107 145 195 251 306 369 447
#     4  12  26  44  72 110 150 192 244 306 374 432
#
# _framework density 23.608833000000001
#
# number of rings (size 3 to 8) (size 9 to 14) (size 15 to 20)
#    0.000    0.571    2.857    4.286    0.000   10.286 
#    0.000    0.000    0.000    0.000    0.000    0.000 
#    0.000    0.000    0.000    0.000    0.000    0.000 
#
# Total GULP energy -155877.925141 kJ/mol
# GULP energy per Si atom -5567.068755 kJ/mol
# Density = 2.355510 g / cm^3
# Si number density = 23.608833 Si / 1000 Ang^3
#
#
#
# Elastic Constant Matrix: (Units=GPa)
#
#
# Indices 1 2 3 4 5 6 
#
# 1 178.4869 -12.5085 58.6327 0.0000 0.0000 0.0000
# 2 -12.5085 61.7945 -8.0349 0.0000 0.0000 0.0000
# 3 58.6327 -8.0349 181.6253 0.0000 0.0000 0.0000
# 4 0.0000 0.0000 0.0000 -6.1925 0.0000 0.0000
# 5 0.0000 0.0000 0.0000 0.0000 61.5149 0.0000
# 6 0.0000 0.0000 0.0000 0.0000 0.0000 10.0349
#
#
#
# Elastic Compliance Matrix: (Units=1/GPa)
#
#
# Indices 1 2 3 4 5 6 
#
# 1 0.006331 0.001022 -0.001999 0.000000 0.000000 0.000000
# 2 0.001022 0.016441 0.000398 0.000000 0.000000 0.000000
# 3 -0.001999 0.000398 0.006169 0.000000 0.000000 0.000000
# 4 0.000000 0.000000 0.000000 -0.161485 0.000000 0.000000
# 5 0.000000 0.000000 0.000000 0.000000 0.016256 0.000000
# 6 0.000000 0.000000 0.000000 0.000000 0.000000 0.099653
#
#
# Mechanical properties :
#
#
# Convention : Reuss Voigt Hill
#
# Bulk Modulus (GPa) = 35.99478 55.34280 45.66879
# Shear Modulus (GPa) = -804.34965 38.65927 -382.84519
#
# Velocity S-wave (km/s) = -18.47805 4.05098 -12.74809
# Velocity P-wave (km/s) = 20.97550 6.73595 14.04632
#
# Compressibility (1/GPa) = 0.02778180
#
# Stress axis : x y z
#
# Youngs Moduli (GPa) = 157.95903 60.82294 162.11150
#
# Poissons Ratio (x) = -0.06214 0.32398
# Poissons Ratio (y) = -0.16137 -0.06445
# Poissons Ratio (z) = 0.31568 -0.02418
#
# Static dielectric constant tensor:
#      x y z
#    x 1.832530 0.000000 0.000000 
#    y 0.000000 1.970160 0.000000 
#    z 0.000000 0.000000 1.844130 
# 
# From -- ./inp_files/21762.got.cif
#   From: 2010.05.17/outbox.cif.g08.bks.cpg/sg62_11_cif.got.tgz:21762.got - 2010.06.03 15:25:27.
