data_PCOD9467439
_publ_section_title
;
Structure prediction by ZEFSAII (Michael W. Deem and Ramdas Pophale) SiO2 
 PCOD9467439
Probable space group: P N M A
;
_chemical_formula_sum "Si O2"
_cell_formula_units_Z 48
_cell_length_a 8.121083
_cell_length_b 18.909844
_cell_length_c 13.790947
_cell_angle_alpha 90.000000
_cell_angle_beta 90.000000
_cell_angle_gamma 90.000000
_cell_volume 2117.853840
_symmetry_space_group_name_H-M "P N M A"
_symmetry_group_IT_number 62
_symmetry_cell_setting 'orthorhombic'
loop_
_space_group_symop_operation_xyz
x,y,z
1/2-x,-y,1/2+z
1/2+x,1/2-y,1/2-z
-x,1/2+y,-z
-x,-y,-z
1/2+x,y,1/2-z
1/2-x,1/2+y,1/2+z
x,1/2-y,z
loop_
_atom_site_type_symbol
_atom_site_label
_atom_site_fract_x
_atom_site_fract_y
_atom_site_fract_z
Si Si1 0.691897 0.572917 0.019622
Si Si2 0.500431 0.833308 0.530106
Si Si3 0.312880 0.062156 0.603146
Si Si4 0.660162 0.032340 0.710498
Si Si5 0.994144 0.672063 0.597120
Si Si6 0.674111 0.633386 0.719495
O O1 0.750402 0.504664 0.958986
O O2 0.528100 0.608230 0.976973
O O3 0.829658 0.633411 0.004846
O O4 0.700482 0.551493 0.131428
O O5 0.507919 0.750000 0.515997
O O6 0.640596 0.874071 0.468243
O O7 0.528903 0.851470 0.642649
O O8 0.486009 0.041988 0.656535
O O9 0.188478 0.075914 0.691465
O O10 0.681276 0.950256 0.736715
O O11 0.988616 0.750000 0.551953
O O12 0.137615 0.669007 0.678355
O O13 0.832664 0.659484 0.661446
#
# Coordination Sequence:
#
# PCOD9467439 Si02
#       6
#     8   8   8   8   8   8
#     4  11  22  41  64  87 120 159 203 249 297 358
#     4  11  22  41  64  88 121 162 201 247 305 359
#     4  11  22  41  62  91 120 158 205 250 295 361
#     4  11  22  40  63  91 118 155 206 248 295 354
#     4  12  25  37  56  91 125 158 196 244 306 364
#     4  12  22  39  61  88 125 157 195 250 301 362
#
# _framework density 22.664453000000002
#
# number of rings (size 3 to 8) (size 9 to 14) (size 15 to 20)
#    0.000    0.667    5.000    5.000    0.000    2.000 
#    0.000    4.167    0.000    0.000    0.000    0.000 
#    0.000    0.000    0.000    0.000    0.000    0.000 
#
# Total GULP energy -268888.161722 kJ/mol
# GULP energy per Si atom -5601.836703 kJ/mol
# Density = 2.261287 g / cm^3
# Si number density = 22.664453 Si / 1000 Ang^3
#
#
#
# Elastic Constant Matrix: (Units=GPa)
#
#
# Indices 1 2 3 4 5 6 
#
# 1 59.8184 -11.4355 -12.1645 0.0000 0.0000 0.0000
# 2 -11.4355 100.9318 17.0147 0.0000 0.0000 0.0000
# 3 -12.1645 17.0147 97.8753 0.0000 0.0000 0.0000
# 4 0.0000 0.0000 0.0000 19.2872 0.0000 0.0000
# 5 0.0000 0.0000 0.0000 0.0000 34.9329 0.0000
# 6 0.0000 0.0000 0.0000 0.0000 0.0000 -241.1006
#
#
#
# Elastic Compliance Matrix: (Units=1/GPa)
#
#
# Indices 1 2 3 4 5 6 
#
# 1 0.017416 0.001657 0.001876 0.000000 0.000000 0.000000
# 2 0.001657 0.010364 -0.001596 0.000000 0.000000 0.000000
# 3 0.001876 -0.001596 0.010728 0.000000 0.000000 0.000000
# 4 0.000000 0.000000 0.000000 0.051848 0.000000 0.000000
# 5 0.000000 0.000000 0.000000 0.000000 0.028626 0.000000
# 6 0.000000 0.000000 0.000000 0.000000 0.000000 -0.004148
#
#
# Mechanical properties :
#
#
# Convention : Reuss Voigt Hill
#
# Bulk Modulus (GPa) = 23.59453 27.27279 25.43366
# Shear Modulus (GPa) = 39.97220 -19.69538 10.13841
#
# Velocity S-wave (km/s) = 4.20414 -2.95108 2.11730
# Velocity P-wave (km/s) = 5.83090 0.66904 4.15012
#
# Compressibility (1/GPa) = 0.04238270
#
# Stress axis : x y z
#
# Youngs Moduli (GPa) = 57.41980 96.48398 93.21644
#
# Poissons Ratio (x) = -0.15986 -0.17492
# Poissons Ratio (y) = -0.09514 0.14876
# Poissons Ratio (z) = -0.10775 0.15397
#
# Static dielectric constant tensor:
#      x y z
#    x 1.971720 0.000000 0.000000 
#    y 0.000000 1.774280 0.000000 
#    z 0.000000 0.000000 1.820270 
# 
# From -- ./inp_files/16930.got.cif
#   From: 2010.05.17/outbox.cif.g08.bks.cpg/sg62_9_cif.got.tgz:16930.got - 2010.06.03 15:25:27.
