data_PCOD9467025
_publ_section_title
;
Structure prediction by ZEFSAII (Michael W. Deem and Ramdas Pophale) SiO2 
 PCOD9467025
Probable space group: P N M A
;
_chemical_formula_sum "Si O2"
_cell_formula_units_Z 44
_cell_length_a 13.462030
_cell_length_b 10.098201
_cell_length_c 14.086669
_cell_angle_alpha 90.000000
_cell_angle_beta 90.000000
_cell_angle_gamma 90.000000
_cell_volume 1914.973969
_symmetry_space_group_name_H-M "P N M A"
_symmetry_group_IT_number 62
_symmetry_cell_setting 'orthorhombic'
loop_
_space_group_symop_operation_xyz
x,y,z
1/2-x,-y,1/2+z
1/2+x,1/2-y,1/2-z
-x,1/2+y,-z
-x,-y,-z
1/2+x,y,1/2-z
1/2-x,1/2+y,1/2+z
x,1/2-y,z
loop_
_atom_site_type_symbol
_atom_site_label
_atom_site_fract_x
_atom_site_fract_y
_atom_site_fract_z
Si Si1 0.546995 0.750000 0.394689
Si Si2 0.730920 0.750000 0.513779
Si Si3 0.766895 0.536954 0.094208
Si Si4 0.030809 0.250000 0.228944
Si Si5 0.131057 0.250000 0.036192
Si Si6 0.439220 0.962830 0.270899
Si Si7 0.952040 0.750000 0.548862
Si Si8 0.533474 0.580430 0.072990
O O1 0.660489 0.750000 0.423264
O O2 0.479021 0.750000 0.489732
O O3 0.514470 0.877968 0.335527
O O4 0.712485 0.615565 0.570768
O O5 0.847185 0.750000 0.494021
O O6 0.811194 0.624652 0.007865
O O7 0.649950 0.562718 0.099977
O O8 0.830560 0.569518 0.187808
O O9 0.966201 0.382880 0.218155
O O10 0.069400 0.250000 0.336884
O O11 0.116047 0.250000 0.148652
O O12 0.459869 0.922974 0.163362
O O13 0.986399 0.588491 0.541054
O O14 0.534784 0.750000 0.050846
#
# Coordination Sequence:
#
# PCOD9467025 Si02
#       8
#     4   4   8   4   4   8   4   8
#     4  10  23  42  67 102 139 182 220 291 344 403
#     4  12  22  41  69 102 143 176 233 279 341 408
#     4  11  24  45  71 103 138 183 231 283 346 415
#     4  12  22  43  72 103 142 179 231 293 342 400
#     4  10  23  44  68  99 144 182 221 286 354 402
#     4  11  24  44  73 101 138 178 236 284 344 409
#     4  12  26  46  68 100 142 189 229 285 343 419
#     4  12  24  48  67  97 142 182 225 285 344 408
#
# _framework density 22.976813
#
# number of rings (size 3 to 8) (size 9 to 14) (size 15 to 20)
#    0.000    0.727    3.636    3.818    0.000    4.364 
#    6.545    0.000    0.000    0.000    0.000    0.000 
#    0.000    0.000    0.000    0.000    0.000    0.000 
#
# Total GULP energy -245970.547233 kJ/mol
# GULP energy per Si atom -5590.239710 kJ/mol
# Density = 2.292452 g / cm^3
# Si number density = 22.976813 Si / 1000 Ang^3
#
#
#
# Elastic Constant Matrix: (Units=GPa)
#
#
# Indices 1 2 3 4 5 6 
#
# 1 142.7448 43.9713 107.3187 0.0000 0.0000 0.0000
# 2 43.9713 190.1558 66.8062 0.0000 0.0000 0.0000
# 3 107.3187 66.8062 180.5283 0.0000 0.0000 0.0000
# 4 0.0000 0.0000 0.0000 -34.2636 0.0000 0.0000
# 5 0.0000 0.0000 0.0000 0.0000 26.0052 0.0000
# 6 0.0000 0.0000 0.0000 0.0000 0.0000 17.0685
#
#
#
# Elastic Compliance Matrix: (Units=1/GPa)
#
#
# Indices 1 2 3 4 5 6 
#
# 1 0.012684 -0.000326 -0.007420 0.000000 0.000000 0.000000
# 2 -0.000326 0.006053 -0.002046 0.000000 0.000000 0.000000
# 3 -0.007420 -0.002046 0.010707 0.000000 0.000000 0.000000
# 4 0.000000 0.000000 0.000000 -0.029185 0.000000 0.000000
# 5 0.000000 0.000000 0.000000 0.000000 0.038454 0.000000
# 6 0.000000 0.000000 0.000000 0.000000 0.000000 0.058588
#
#
# Mechanical properties :
#
#
# Convention : Reuss Voigt Hill
#
# Bulk Modulus (GPa) = 101.41414 105.51348 103.46381
# Shear Modulus (GPa) = 41.60723 21.45087 31.52905
#
# Velocity S-wave (km/s) = 4.26001 3.05878 3.70836
# Velocity P-wave (km/s) = 8.27226 7.64829 7.96638
#
# Compressibility (1/GPa) = 0.00986056
#
# Stress axis : x y z
#
# Youngs Moduli (GPa) = 78.83747 165.20400 93.39509
#
# Poissons Ratio (x) = 0.05392 0.69296
# Poissons Ratio (y) = 0.02573 0.19108
# Poissons Ratio (z) = 0.58495 0.33800
#
# Static dielectric constant tensor:
#      x y z
#    x 1.802130 0.000000 0.000000 
#    y 0.000000 1.972020 0.000000 
#    z 0.000000 0.000000 1.837210 
# 
# From -- ./inp_files/19509.got.cif
#   From: 2010.05.17/outbox.cif.g08.bks.cpg/sg62_10_cif.got.tgz:19509.got - 2010.06.03 15:25:27.
