data_PCOD9467879
_publ_section_title
;
Structure prediction by ZEFSAII (Michael W. Deem and Ramdas Pophale) SiO2 
 PCOD9467879
Probable space group: P N M A
;
_chemical_formula_sum "Si O2"
_cell_formula_units_Z 56
_cell_length_a 21.000000
_cell_length_b 9.000000
_cell_length_c 15.000000
_cell_angle_alpha 90.000000
_cell_angle_beta 90.000000
_cell_angle_gamma 90.000000
_cell_volume 2835.000000
_symmetry_space_group_name_H-M "P N M A"
_symmetry_group_IT_number 62
_symmetry_cell_setting 'orthorhombic'
loop_
_space_group_symop_operation_xyz
x,y,z
1/2-x,-y,1/2+z
1/2+x,1/2-y,1/2-z
-x,1/2+y,-z
-x,-y,-z
1/2+x,y,1/2-z
1/2-x,1/2+y,1/2+z
x,1/2-y,z
loop_
_atom_site_type_symbol
_atom_site_label
_atom_site_fract_x
_atom_site_fract_y
_atom_site_fract_z
Si Si1 0.913071 0.576105 0.483489
Si Si2 0.943171 0.079766 0.949515
Si Si3 0.832682 0.074033 0.175119
Si Si4 0.006725 0.084796 0.366183
Si Si5 0.305519 0.423866 0.121323
Si Si6 0.036568 0.417472 0.798737
Si Si7 0.185037 0.078995 0.999809
O O1 0.929284 0.750000 0.462367
O O2 0.957485 0.442805 0.446254
O O3 0.847214 0.534028 0.438637
O O4 0.924081 0.567551 0.589854
O O5 0.937850 0.250000 0.977777
O O6 0.970152 0.072736 0.850206
O O7 0.878057 0.998654 0.965305
O O8 0.000000 0.000000 0.000000
O O9 0.828239 0.250000 0.166166
O O10 0.810050 0.033278 0.274807
O O11 0.906598 0.022938 0.168905
O O12 0.796344 0.997766 0.093394
O O13 0.000091 0.250000 0.327851
O O14 0.982194 0.962453 0.299569
O O15 0.327382 0.250000 0.115856
O O16 0.236669 0.429243 0.077334
O O17 0.060688 0.250000 0.806937
O O18 0.171447 0.250000 0.980061
#
# Coordination Sequence:
#
# PCOD9467879 Si02
#       7
#     8   8   8   8   8   8   8
#     4  10  20  34  57  86 117 156 201 249 296 352
#     4  11  23  39  62  90 120 154 196 250 308 362
#     4  11  22  39  65  91 117 157 204 248 301 363
#     4  10  20  34  54  85 121 157 197 244 300 354
#     4  10  23  42  63  87 121 163 205 252 305 365
#     4  11  22  36  59  90 120 153 197 246 297 358
#     4  11  24  43  64  89 122 160 202 253 308 365
#
# _framework density 19.753086
#
# number of rings (size 3 to 8) (size 9 to 14) (size 15 to 20)
#    0.000    1.429    2.857    2.571    0.000    5.143 
#    2.571    0.000    0.000    0.000    0.000    0.000 
#    0.000    0.000    0.000    0.000    0.000    0.000 
#
# Total GULP energy -311846.191780 kJ/mol
# GULP energy per Si atom -5568.681996 kJ/mol
# Density = 1.970813 g / cm^3
# Si number density = 19.753086 Si / 1000 Ang^3
#
#
#
# Elastic Constant Matrix: (Units=GPa)
#
#
# Indices 1 2 3 4 5 6 
#
# 1 48.9359 44.5046 35.3187 0.0000 0.0000 0.0000
# 2 44.5046 38.5850 4.9490 0.0000 0.0000 0.0000
# 3 35.3187 4.9490 33.6700 0.0000 0.0000 0.0000
# 4 0.0000 0.0000 0.0000 15.4110 0.0000 0.0000
# 5 0.0000 0.0000 0.0000 0.0000 20.3169 0.0000
# 6 0.0000 0.0000 0.0000 0.0000 0.0000 22.5313
#
#
#
# Elastic Compliance Matrix: (Units=1/GPa)
#
#
# Indices 1 2 3 4 5 6 
#
# 1 -0.034558 0.035887 0.030975 0.000000 0.000000 0.000000
# 2 0.035887 -0.010852 -0.036049 0.000000 0.000000 0.000000
# 3 0.030975 -0.036049 0.002507 0.000000 0.000000 0.000000
# 4 0.000000 0.000000 0.000000 0.064889 0.000000 0.000000
# 5 0.000000 0.000000 0.000000 0.000000 0.049220 0.000000
# 6 0.000000 0.000000 0.000000 0.000000 0.000000 0.044383
#
#
# Mechanical properties :
#
#
# Convention : Reuss Voigt Hill
#
# Bulk Modulus (GPa) = 53.40952 32.30395 42.85674
# Shear Modulus (GPa) = 83.05093 14.07975 48.56534
#
# Velocity S-wave (km/s) = 6.49121 2.67270 4.96383
# Velocity P-wave (km/s) = 9.12570 5.09056 7.38892
#
# Compressibility (1/GPa) = 0.01872325
#
# Stress axis : x y z
#
# Youngs Moduli (GPa) = -28.93701 -92.15201 398.91853
#
# Poissons Ratio (x) = 3.30702 -12.35657
# Poissons Ratio (y) = 1.03845 14.38053
# Poissons Ratio (z) = 0.89633 -3.32197
#
# Static dielectric constant tensor:
#      x y z
#    x 1.654210 0.000000 0.000000 
#    y 0.000000 1.683080 0.000000 
#    z 0.000000 0.000000 1.741710 
# 
# From -- ./inp_files/20421.got.cif
#   From: 2010.05.17/outbox.ucp.g08.bks.cvg/sg62_11_cif.got.tgz:20421.got - 2010.06.11 16:29:25.
