data_PCOD9467715
_publ_section_title
;
Structure prediction by ZEFSAII (Michael W. Deem and Ramdas Pophale) SiO2 
 PCOD9467715
Probable space group: P N M A
;
_chemical_formula_sum "Si O2"
_cell_formula_units_Z 48
_cell_length_a 14.743918
_cell_length_b 17.233619
_cell_length_c 6.866175
_cell_angle_alpha 90.000000
_cell_angle_beta 90.000000
_cell_angle_gamma 90.000000
_cell_volume 1744.633721
_symmetry_space_group_name_H-M "P N M A"
_symmetry_group_IT_number 62
_symmetry_cell_setting 'orthorhombic'
loop_
_space_group_symop_operation_xyz
x,y,z
1/2-x,-y,1/2+z
1/2+x,1/2-y,1/2-z
-x,1/2+y,-z
-x,-y,-z
1/2+x,y,1/2-z
1/2-x,1/2+y,1/2+z
x,1/2-y,z
loop_
_atom_site_type_symbol
_atom_site_label
_atom_site_fract_x
_atom_site_fract_y
_atom_site_fract_z
Si Si1 0.561568 0.666914 0.729968
Si Si2 0.320321 0.333724 0.878245
Si Si3 0.852240 0.833596 0.636756
Si Si4 0.429969 0.002125 0.279636
Si Si5 0.861178 0.999294 0.646575
Si Si6 0.882126 0.666030 0.168076
O O1 0.587818 0.750000 0.643948
O O2 0.453486 0.668174 0.771275
O O3 0.586998 0.586346 0.626263
O O4 0.609961 0.663822 0.942054
O O5 0.337572 0.250000 0.777704
O O6 0.325925 0.418193 0.780015
O O7 0.215027 0.330178 0.934048
O O8 0.807536 0.750000 0.677170
O O9 0.813079 0.917751 0.694126
O O10 0.867154 0.835111 0.402179
O O11 0.534076 0.004480 0.210817
O O12 0.419663 0.919021 0.381511
O O13 0.366781 0.001003 0.088488
O O14 0.928846 0.750000 0.130690
#
# Coordination Sequence:
#
# PCOD9467715 Si02
#       6
#     8   8   8   8   8   8
#     4   8  13  22  36  51  65  82 105 132 159 187
#     4   9  15  20  27  43  68  91 105 122 154 193
#     4   8  13  22  36  51  65  82 105 132 159 187
#     4   8  13  21  33  47  62  82 107 131 155 185
#     4   8  13  21  33  47  62  82 107 131 155 185
#     4   9  15  20  27  43  68  91 105 122 154 193
#
# _framework density 27.51294
#
# number of rings (size 3 to 8) (size 9 to 14) (size 15 to 20)
#    0.000    3.667    0.000    3.000    0.000    2.000 
#    0.000    0.000    0.000    1.000    0.000    0.000 
#    0.000   48.000    0.000    6.667    0.000    2.667 
#
# Total GULP energy -267892.230072 kJ/mol
# GULP energy per Si atom -5581.088127 kJ/mol
# Density = 2.745032 g / cm^3
# Si number density = 27.512940 Si / 1000 Ang^3
#
#
#
# Elastic Constant Matrix: (Units=GPa)
#
#
# Indices 1 2 3 4 5 6 
#
# 1 56.0402 36.1918 4.1120 0.0000 0.0000 0.0000
# 2 36.1918 423.5377 24.7779 0.0000 0.0000 0.0000
# 3 4.1120 24.7779 99.8347 0.0000 0.0000 0.0000
# 4 0.0000 0.0000 0.0000 -17.3792 0.0000 0.0000
# 5 0.0000 0.0000 0.0000 0.0000 -6.9218 0.0000
# 6 0.0000 0.0000 0.0000 0.0000 0.0000 26.8674
#
#
#
# Elastic Compliance Matrix: (Units=1/GPa)
#
#
# Indices 1 2 3 4 5 6 
#
# 1 0.018901 -0.001593 -0.000383 0.000000 0.000000 0.000000
# 2 -0.001593 0.002530 -0.000562 0.000000 0.000000 0.000000
# 3 -0.000383 -0.000562 0.010172 0.000000 0.000000 0.000000
# 4 0.000000 0.000000 0.000000 -0.057540 0.000000 0.000000
# 5 0.000000 0.000000 0.000000 0.000000 -0.144471 0.000000
# 6 0.000000 0.000000 0.000000 0.000000 0.000000 0.037220
#
#
# Mechanical properties :
#
#
# Convention : Reuss Voigt Hill
#
# Bulk Modulus (GPa) = 37.69813 78.84180 58.26996
# Shear Modulus (GPa) = -41.92188 34.80200 -3.55994
#
# Velocity S-wave (km/s) = -3.90771 3.56045 -1.13874
# Velocity P-wave (km/s) = 2.57461 6.75432 4.41544
#
# Compressibility (1/GPa) = 0.02652652
#
# Stress axis : x y z
#
# Youngs Moduli (GPa) = 52.90713 395.24751 98.31004
#
# Poissons Ratio (x) = 0.62951 0.03767
# Poissons Ratio (y) = 0.08427 0.05528
# Poissons Ratio (z) = 0.02027 0.22226
#
# Static dielectric constant tensor:
#      x y z
#    x 2.068550 0.000000 0.000000 
#    y 0.000000 2.205140 0.000000 
#    z 0.000000 0.000000 2.116530 
# 
# From -- ./inp_files/13447.got.cif
#   From: 2010.05.17/outbox.cif.g08.bks.cpg/sg62_7_cif.got.tgz:13447.got - 2010.06.03 15:25:27.
