data_PCOD9467218
_publ_section_title
;
Structure prediction by ZEFSAII (Michael W. Deem and Ramdas Pophale) SiO2 
 PCOD9467218
Probable space group: P N M A
;
_chemical_formula_sum "Si O2"
_cell_formula_units_Z 48
_cell_length_a 8.616666
_cell_length_b 16.824906
_cell_length_c 13.826045
_cell_angle_alpha 90.000000
_cell_angle_beta 90.000000
_cell_angle_gamma 90.000000
_cell_volume 2004.425281
_symmetry_space_group_name_H-M "P N M A"
_symmetry_group_IT_number 62
_symmetry_cell_setting 'orthorhombic'
loop_
_space_group_symop_operation_xyz
x,y,z
1/2-x,-y,1/2+z
1/2+x,1/2-y,1/2-z
-x,1/2+y,-z
-x,-y,-z
1/2+x,y,1/2-z
1/2-x,1/2+y,1/2+z
x,1/2-y,z
loop_
_atom_site_type_symbol
_atom_site_label
_atom_site_fract_x
_atom_site_fract_y
_atom_site_fract_z
Si Si1 0.908678 0.657128 0.151221
Si Si2 0.122740 0.339643 0.419521
Si Si3 0.688054 0.015287 0.782514
Si Si4 0.570188 0.405412 0.274153
Si Si5 0.356111 0.058370 0.534749
Si Si6 0.230704 0.656043 0.547205
O O1 0.915145 0.750000 0.177429
O O2 0.865576 0.597448 0.237035
O O3 0.788758 0.645534 0.062369
O O4 0.066217 0.624820 0.103057
O O5 0.148926 0.250000 0.456104
O O6 0.111511 0.340181 0.303866
O O7 0.261105 0.397075 0.452136
O O8 0.950043 0.368534 0.448867
O O9 0.603680 0.935148 0.743655
O O10 0.858443 0.991702 0.745161
O O11 0.779171 0.979279 0.397319
O O12 0.640972 0.378483 0.376734
O O13 0.500000 0.000000 0.500000
O O14 0.228475 0.750000 0.568527
#
# Coordination Sequence:
#
# PCOD9467218 Si02
#       6
#     8   8   8   8   8   8
#     4  11  26  47  72 104 147 195 247 310 380 460
#     4  11  26  45  73 108 145 194 247 308 383 456
#     4  12  27  46  71 104 144 194 244 316 380 454
#     4  12  24  46  69 107 146 188 250 307 381 454
#     4  12  27  49  76 109 151 201 260 315 385 462
#     4  10  24  46  73 107 149 194 245 310 383 463
#
# _framework density 23.947013999999999
#
# number of rings (size 3 to 8) (size 9 to 14) (size 15 to 20)
#    0.000    0.667    3.333    3.000    4.667    2.000 
#    0.000    0.000    0.000    0.000    0.000    0.000 
#    0.000    0.000    0.000    0.000    0.000    0.000 
#
# Total GULP energy -267571.071900 kJ/mol
# GULP energy per Si atom -5574.397331 kJ/mol
# Density = 2.389251 g / cm^3
# Si number density = 23.947014 Si / 1000 Ang^3
#
#
#
# Elastic Constant Matrix: (Units=GPa)
#
#
# Indices 1 2 3 4 5 6 
#
# 1 100.6745 57.3807 47.7557 0.0000 0.0000 0.0000
# 2 57.3807 137.5628 53.9064 0.0000 0.0000 0.0000
# 3 47.7557 53.9064 92.2714 0.0000 0.0000 0.0000
# 4 0.0000 0.0000 0.0000 33.5655 0.0000 0.0000
# 5 0.0000 0.0000 0.0000 0.0000 27.4268 0.0000
# 6 0.0000 0.0000 0.0000 0.0000 0.0000 37.3308
#
#
#
# Elastic Compliance Matrix: (Units=1/GPa)
#
#
# Indices 1 2 3 4 5 6 
#
# 1 0.014757 -0.004102 -0.005241 0.000000 0.000000 0.000000
# 2 -0.004102 0.010568 -0.004051 0.000000 0.000000 0.000000
# 3 -0.005241 -0.004051 0.015917 0.000000 0.000000 0.000000
# 4 0.000000 0.000000 0.000000 0.029792 0.000000 0.000000
# 5 0.000000 0.000000 0.000000 0.000000 0.036461 0.000000
# 6 0.000000 0.000000 0.000000 0.000000 0.000000 0.026788
#
#
# Mechanical properties :
#
#
# Convention : Reuss Voigt Hill
#
# Bulk Modulus (GPa) = 69.18624 72.06604 70.62614
# Shear Modulus (GPa) = 30.14074 31.09569 30.61822
#
# Velocity S-wave (km/s) = 3.55158 3.60741 3.57961
# Velocity P-wave (km/s) = 6.76553 6.89278 6.82946
#
# Compressibility (1/GPa) = 0.01445374
#
# Stress axis : x y z
#
# Youngs Moduli (GPa) = 67.76428 94.62769 62.82593
#
# Poissons Ratio (x) = 0.38812 0.32930
# Poissons Ratio (y) = 0.27794 0.25451
# Poissons Ratio (z) = 0.35518 0.38334
#
# Static dielectric constant tensor:
#      x y z
#    x 1.919760 0.000000 0.000000 
#    y 0.000000 1.971150 0.000000 
#    z 0.000000 0.000000 1.957920 
# 
# From -- ./inp_files/16985.got.cif
#   From: 2010.05.17/outbox.cif.g08.bks.cpg/sg62_9_cif.got.tgz:16985.got - 2010.06.03 15:25:27.
