data_PCOD9467130
_publ_section_title
;
Structure prediction by ZEFSAII (Michael W. Deem and Ramdas Pophale) SiO2 
 PCOD9467130
Probable space group: P N M A
;
_chemical_formula_sum "Si O2"
_cell_formula_units_Z 24
_cell_length_a 4.923758
_cell_length_b 7.600475
_cell_length_c 23.690523
_cell_angle_alpha 90.000000
_cell_angle_beta 90.000000
_cell_angle_gamma 90.000000
_cell_volume 886.568063
_symmetry_space_group_name_H-M "P N M A"
_symmetry_group_IT_number 62
_symmetry_cell_setting 'orthorhombic'
loop_
_space_group_symop_operation_xyz
x,y,z
1/2-x,-y,1/2+z
1/2+x,1/2-y,1/2-z
-x,1/2+y,-z
-x,-y,-z
1/2+x,y,1/2-z
1/2-x,1/2+y,1/2+z
x,1/2-y,z
loop_
_atom_site_type_symbol
_atom_site_label
_atom_site_fract_x
_atom_site_fract_y
_atom_site_fract_z
Si Si1 0.642755 0.963647 0.216764
Si Si2 0.046139 0.750000 0.937133
Si Si3 0.789112 0.552863 0.388199
Si Si4 0.455697 0.250000 0.987066
O O1 0.944539 0.020492 0.232029
O O2 0.647245 0.750000 0.215370
O O3 0.492398 0.016044 0.159613
O O4 0.949077 0.579638 0.902948
O O5 0.854811 0.750000 0.993795
O O6 0.349664 0.750000 0.958825
O O7 0.687412 0.750000 0.370908
O O8 0.956076 0.592115 0.445489
#
# Coordination Sequence:
#
# PCOD9467130 Si02
#       4
#     8   4   8   4
#     4   9  18  34  55  81 110 143 185 232 279 333
#     4  12  22  42  56  86 120 150 190 240 276 338
#     4   9  22  39  60  88 112 155 190 233 286 340
#     4  10  24  38  60  84 118 152 192 232 284 336
#
# _framework density 27.070678000000001
#
# number of rings (size 3 to 8) (size 9 to 14) (size 15 to 20)
#    1.000    1.333    0.000    2.000    0.000    5.333 
#    0.000    1.667    0.000    0.000    0.000    0.000 
#    0.000    0.000    0.000    0.000    0.000    0.000 
#
# Total GULP energy -134531.062846 kJ/mol
# GULP energy per Si atom -5605.460952 kJ/mol
# Density = 2.700906 g / cm^3
# Si number density = 27.070678 Si / 1000 Ang^3
#
#
#
# Elastic Constant Matrix: (Units=GPa)
#
#
# Indices 1 2 3 4 5 6 
#
# 1 105.1545 26.2042 14.8120 0.0000 0.0000 0.0000
# 2 26.2042 110.3047 11.3658 0.0000 0.0000 0.0000
# 3 14.8120 11.3658 111.2586 0.0000 0.0000 0.0000
# 4 0.0000 0.0000 0.0000 12.1268 0.0000 0.0000
# 5 0.0000 0.0000 0.0000 0.0000 43.0803 0.0000
# 6 0.0000 0.0000 0.0000 0.0000 0.0000 21.1465
#
#
#
# Elastic Compliance Matrix: (Units=1/GPa)
#
#
# Indices 1 2 3 4 5 6 
#
# 1 0.010246 -0.002318 -0.001127 0.000000 0.000000 0.000000
# 2 -0.002318 0.009687 -0.000681 0.000000 0.000000 0.000000
# 3 -0.001127 -0.000681 0.009208 0.000000 0.000000 0.000000
# 4 0.000000 0.000000 0.000000 0.082462 0.000000 0.000000
# 5 0.000000 0.000000 0.000000 0.000000 0.023212 0.000000
# 6 0.000000 0.000000 0.000000 0.000000 0.000000 0.047289
#
#
# Mechanical properties :
#
#
# Convention : Reuss Voigt Hill
#
# Bulk Modulus (GPa) = 47.87406 47.94242 47.90824
# Shear Modulus (GPa) = 25.33960 33.55976 29.44968
#
# Velocity S-wave (km/s) = 3.06282 3.52477 3.30188
# Velocity P-wave (km/s) = 5.49828 5.85780 5.68089
#
# Compressibility (1/GPa) = 0.02088814
#
# Stress axis : x y z
#
# Youngs Moduli (GPa) = 97.59682 103.23516 108.60461
#
# Poissons Ratio (x) = 0.23929 0.12243
# Poissons Ratio (y) = 0.22623 0.07396
# Poissons Ratio (z) = 0.11002 0.07030
#
# Static dielectric constant tensor:
#      x y z
#    x 1.981170 0.000000 0.000000 
#    y 0.000000 2.196800 0.000000 
#    z 0.000000 0.000000 2.125780 
# 
# From -- ./inp_files/28065.got.cif
#   From: 2010.05.17/outbox.cif.g08.bks.cpg/sg62_15_cif.got.tgz:28065.got - 2010.06.03 15:25:27.
