data_PCOD9467783
_publ_section_title
;
Structure prediction by ZEFSAII (Michael W. Deem and Ramdas Pophale) SiO2 
 PCOD9467783
Probable space group: P N M A
;
_chemical_formula_sum "Si O2"
_cell_formula_units_Z 52
_cell_length_a 15.000000
_cell_length_b 21.000000
_cell_length_c 9.000000
_cell_angle_alpha 90.000000
_cell_angle_beta 90.000000
_cell_angle_gamma 90.000000
_cell_volume 2835.000000
_symmetry_space_group_name_H-M "P N M A"
_symmetry_group_IT_number 62
_symmetry_cell_setting 'orthorhombic'
loop_
_space_group_symop_operation_xyz
x,y,z
1/2-x,-y,1/2+z
1/2+x,1/2-y,1/2-z
-x,1/2+y,-z
-x,-y,-z
1/2+x,y,1/2-z
1/2-x,1/2+y,1/2+z
x,1/2-y,z
loop_
_atom_site_type_symbol
_atom_site_label
_atom_site_fract_x
_atom_site_fract_y
_atom_site_fract_z
Si Si1 0.651949 0.250000 0.556398
Si Si2 0.357862 0.888278 0.450434
Si Si3 0.950245 0.542029 0.625893
Si Si4 0.823009 0.612482 0.395112
Si Si5 0.454198 0.107796 0.389116
Si Si6 0.748956 0.750000 0.372564
Si Si7 0.837392 0.484278 0.903502
Si Si8 0.940374 0.250000 0.005949
O O1 0.674652 0.319329 0.489400
O O2 0.708620 0.250000 0.708107
O O3 0.542005 0.250000 0.561972
O O4 0.364867 0.883746 0.271410
O O5 0.455695 0.897699 0.515544
O O6 0.307854 0.949751 0.516250
O O7 0.885218 0.586946 0.527860
O O8 0.894408 0.502457 0.753889
O O9 0.000000 0.500000 0.500000
O O10 0.020517 0.583064 0.724580
O O11 0.784829 0.682593 0.436101
O O12 0.745497 0.560768 0.368507
O O13 0.390126 0.057983 0.473463
O O14 0.429779 0.183105 0.403315
O O15 0.641481 0.750000 0.388291
#
# Coordination Sequence:
#
# PCOD9467783 Si02
#       8
#     4   8   8   8   8   4   8   4
#     4   8  18  32  58  86 113 155 198 254 292 364
#     4   9  18  34  54  82 113 145 195 238 296 356
#     4  11  23  37  57  89 119 153 200 255 308 369
#     4  11  21  36  58  86 115 157 195 251 303 358
#     4  10  20  36  60  84 114 156 198 241 302 363
#     4  10  20  37  59  88 122 155 206 247 301 364
#     4  11  20  35  59  85 115 154 192 244 298 364
#     4  10  18  37  61  88 119 166 204 245 313 374
#
# _framework density 18.342151999999999
#
# number of rings (size 3 to 8) (size 9 to 14) (size 15 to 20)
#    0.000    1.846    1.538    4.615    0.000    0.615 
#    0.000    0.769    0.000    1.846    0.000    0.000 
#    0.000    0.000    0.000    0.000    0.000    0.000 
#
# Total GULP energy -289491.654966 kJ/mol
# GULP energy per Si atom -5567.147211 kJ/mol
# Density = 1.830040 g / cm^3
# Si number density = 18.342152 Si / 1000 Ang^3
#
#
#
# Elastic Constant Matrix: (Units=GPa)
#
#
# Indices 1 2 3 4 5 6 
#
# 1 42.6142 37.6410 28.6132 0.0000 0.0000 0.0000
# 2 37.6410 167.7107 42.1409 0.0000 0.0000 0.0000
# 3 28.6132 42.1409 106.7486 0.0000 0.0000 0.0000
# 4 0.0000 0.0000 0.0000 34.4279 0.0000 0.0000
# 5 0.0000 0.0000 0.0000 0.0000 23.4848 0.0000
# 6 0.0000 0.0000 0.0000 0.0000 0.0000 28.9948
#
#
#
# Elastic Compliance Matrix: (Units=1/GPa)
#
#
# Indices 1 2 3 4 5 6 
#
# 1 0.032949 -0.005746 -0.006563 0.000000 0.000000 0.000000
# 2 -0.005746 0.007621 -0.001468 0.000000 0.000000 0.000000
# 3 -0.006563 -0.001468 0.011707 0.000000 0.000000 0.000000
# 4 0.000000 0.000000 0.000000 0.029046 0.000000 0.000000
# 5 0.000000 0.000000 0.000000 0.000000 0.042581 0.000000
# 6 0.000000 0.000000 0.000000 0.000000 0.000000 0.034489
#
#
# Mechanical properties :
#
#
# Convention : Reuss Voigt Hill
#
# Bulk Modulus (GPa) = 40.45104 59.31821 49.88462
# Shear Modulus (GPa) = 25.74820 31.29337 28.52079
#
# Velocity S-wave (km/s) = 3.75076 4.13497 3.94754
# Velocity P-wave (km/s) = 6.39211 7.43016 6.93060
#
# Compressibility (1/GPa) = 0.02472124
#
# Stress axis : x y z
#
# Youngs Moduli (GPa) = 30.35034 131.21249 85.42059
#
# Poissons Ratio (x) = 0.75392 0.56065
# Poissons Ratio (y) = 0.17439 0.12544
# Poissons Ratio (z) = 0.19920 0.19268
#
# Static dielectric constant tensor:
#      x y z
#    x 1.651430 0.000000 0.000000 
#    y 0.000000 1.697220 0.000000 
#    z 0.000000 0.000000 1.622150 
# 
# From -- ./inp_files/6712.got.cif
#   From: 2010.05.17/outbox.ucp.g08.bks.cvg/sg62_4_cif.got.tgz:6712.got - 2010.06.11 16:29:25.
