data_PCOD9467498
_publ_section_title
;
Structure prediction by ZEFSAII (Michael W. Deem and Ramdas Pophale) SiO2 
 PCOD9467498
Probable space group: P N M A
;
_chemical_formula_sum "Si O2"
_cell_formula_units_Z 52
_cell_length_a 13.673719
_cell_length_b 17.354675
_cell_length_c 9.251560
_cell_angle_alpha 90.000000
_cell_angle_beta 90.000000
_cell_angle_gamma 90.000000
_cell_volume 2195.422473
_symmetry_space_group_name_H-M "P N M A"
_symmetry_group_IT_number 62
_symmetry_cell_setting 'orthorhombic'
loop_
_space_group_symop_operation_xyz
x,y,z
1/2-x,-y,1/2+z
1/2+x,1/2-y,1/2-z
-x,1/2+y,-z
-x,-y,-z
1/2+x,y,1/2-z
1/2-x,1/2+y,1/2+z
x,1/2-y,z
loop_
_atom_site_type_symbol
_atom_site_label
_atom_site_fract_x
_atom_site_fract_y
_atom_site_fract_z
Si Si1 0.565784 0.930688 0.571841
Si Si2 0.774319 0.530277 0.204820
Si Si3 0.085529 0.610848 0.232824
Si Si4 0.425920 0.840643 0.782588
Si Si5 0.423671 0.937942 0.063437
Si Si6 0.858326 0.250000 0.559309
Si Si7 0.767805 0.840314 0.963751
O O1 0.582573 0.875409 0.436519
O O2 0.505652 0.890730 0.697859
O O3 0.500000 0.000000 0.500000
O O4 0.668870 0.960511 0.631569
O O5 0.658534 0.538750 0.232346
O O6 0.823043 0.534216 0.364412
O O7 0.792815 0.599265 0.087346
O O8 0.979357 0.594503 0.296173
O O9 0.124346 0.683004 0.318912
O O10 0.448948 0.750000 0.791896
O O11 0.331572 0.847711 0.676497
O O12 0.407386 0.875092 0.940353
O O13 0.500000 0.000000 0.000000
O O14 0.846172 0.176958 0.436590
O O15 0.776248 0.750000 0.030959
#
# Coordination Sequence:
#
# PCOD9467498 Si02
#       7
#     8   8   8   8   8   4   8
#     4  12  22  43  69 101 135 185 240 286 355 431
#     4  11  23  43  70  98 134 184 232 291 355 425
#     4  11  25  43  71  98 136 182 233 295 350 427
#     4  11  23  40  69 101 138 189 227 292 359 417
#     4  12  25  44  64 100 138 176 237 288 351 431
#     4   8  20  42  64 100 132 170 230 282 340 422
#     4   8  17  39  66  93 132 170 226 274 339 416
#
# _framework density 23.685645999999998
#
# number of rings (size 3 to 8) (size 9 to 14) (size 15 to 20)
#    0.462    0.923    4.615    0.000    4.308    0.615 
#    0.000    3.077    0.000    0.000    0.000    0.000 
#    0.000    0.000    0.000    0.000    0.000    0.000 
#
# Total GULP energy -289540.679092 kJ/mol
# GULP energy per Si atom -5568.089983 kJ/mol
# Density = 2.363174 g / cm^3
# Si number density = 23.685646 Si / 1000 Ang^3
#
#
#
# Elastic Constant Matrix: (Units=GPa)
#
#
# Indices 1 2 3 4 5 6 
#
# 1 69.2261 2.3840 29.6555 0.0000 0.0000 0.0000
# 2 2.3840 53.5385 6.7615 0.0000 0.0000 0.0000
# 3 29.6555 6.7615 91.4875 0.0000 0.0000 0.0000
# 4 0.0000 0.0000 0.0000 46.0722 0.0000 0.0000
# 5 0.0000 0.0000 0.0000 0.0000 38.3643 0.0000
# 6 0.0000 0.0000 0.0000 0.0000 0.0000 24.9468
#
#
#
# Elastic Compliance Matrix: (Units=1/GPa)
#
#
# Indices 1 2 3 4 5 6 
#
# 1 0.016775 -0.000061 -0.005433 0.000000 0.000000 0.000000
# 2 -0.000061 0.018854 -0.001374 0.000000 0.000000 0.000000
# 3 -0.005433 -0.001374 0.012793 0.000000 0.000000 0.000000
# 4 0.000000 0.000000 0.000000 0.021705 0.000000 0.000000
# 5 0.000000 0.000000 0.000000 0.000000 0.026066 0.000000
# 6 0.000000 0.000000 0.000000 0.000000 0.000000 0.040085
#
#
# Mechanical properties :
#
#
# Convention : Reuss Voigt Hill
#
# Bulk Modulus (GPa) = 28.82913 32.42823 30.62868
# Shear Modulus (GPa) = 30.94515 33.57342 32.25928
#
# Velocity S-wave (km/s) = 3.61847 3.76900 3.69450
# Velocity P-wave (km/s) = 5.44571 5.71501 5.58198
#
# Compressibility (1/GPa) = 0.03468714
#
# Stress axis : x y z
#
# Youngs Moduli (GPa) = 59.61270 53.03821 78.16715
#
# Poissons Ratio (x) = 0.00323 0.42469
# Poissons Ratio (y) = 0.00363 0.10738
# Poissons Ratio (z) = 0.32388 0.07286
#
# Static dielectric constant tensor:
#      x y z
#    x 1.996860 0.000000 0.000000 
#    y 0.000000 1.950580 0.000000 
#    z 0.000000 0.000000 1.880310 
# 
# From -- ./inp_files/6683.got.cif
#   From: 2010.05.17/outbox.cif.g08.bks.cpg/sg62_4_cif.got.tgz:6683.got - 2010.06.03 15:25:27.
