data_PCOD9467711
_publ_section_title
;
Structure prediction by ZEFSAII (Michael W. Deem and Ramdas Pophale) SiO2 
 PCOD9467711
Probable space group: P N M A
;
_chemical_formula_sum "Si O2"
_cell_formula_units_Z 48
_cell_length_a 13.847325
_cell_length_b 17.218331
_cell_length_c 6.918978
_cell_angle_alpha 90.000000
_cell_angle_beta 90.000000
_cell_angle_gamma 90.000000
_cell_volume 1649.676878
_symmetry_space_group_name_H-M "P N M A"
_symmetry_group_IT_number 62
_symmetry_cell_setting 'orthorhombic'
loop_
_space_group_symop_operation_xyz
x,y,z
1/2-x,-y,1/2+z
1/2+x,1/2-y,1/2-z
-x,1/2+y,-z
-x,-y,-z
1/2+x,y,1/2-z
1/2-x,1/2+y,1/2+z
x,1/2-y,z
loop_
_atom_site_type_symbol
_atom_site_label
_atom_site_fract_x
_atom_site_fract_y
_atom_site_fract_z
Si Si1 0.232526 0.082855 0.200791
Si Si2 0.553053 0.750000 0.859673
Si Si3 0.780915 0.250000 0.842216
Si Si4 0.549620 0.917558 0.841886
Si Si5 0.731330 0.250000 0.300683
Si Si6 0.783773 0.416908 0.848623
Si Si7 0.057860 0.250000 0.764465
Si Si8 0.561916 0.080170 0.751005
O O1 0.336679 0.076531 0.092017
O O2 0.184846 0.166343 0.159935
O O3 0.263212 0.086998 0.423792
O O4 0.174686 0.003015 0.180695
O O5 0.539353 0.831754 0.754690
O O6 0.666636 0.750000 0.911962
O O7 0.485125 0.750000 0.046157
O O8 0.760239 0.250000 0.073680
O O9 0.827963 0.333308 0.796293
O O10 0.674223 0.250000 0.750525
O O11 0.535581 0.991063 0.703684
O O12 0.478931 0.918508 0.026762
O O13 0.678439 0.419230 0.748729
O O14 0.032306 0.336843 0.837567
#
# Coordination Sequence:
#
# PCOD9467711 Si02
#       8
#     8   4   4   8   4   8   4   8
#     4   9  16  26  40  57  77 100 125 153 185 221
#     4   8  12  18  30  49  70  89 114 148 180 210
#     4   8  14  24  37  53  74  99 123 148 182 220
#     4   8  13  21  34  52  72  93 118 149 182 214
#     4   8  14  24  37  53  74  99 123 148 182 220
#     4   9  16  26  40  57  77 100 125 153 185 221
#     4   8  12  18  30  49  70  89 114 148 180 210
#     4   8  13  21  34  52  72  93 118 149 182 214
#
# _framework density 29.096608
#
# number of rings (size 3 to 8) (size 9 to 14) (size 15 to 20)
#    0.000    3.667    0.000    0.000    0.000    0.000 
#    0.000    0.833    0.000    1.000    0.000    0.000 
#    0.000    0.000    0.000    0.000    0.000    0.000 
#
# Total GULP energy -268080.754232 kJ/mol
# GULP energy per Si atom -5585.015713 kJ/mol
# Density = 2.903038 g / cm^3
# Si number density = 29.096608 Si / 1000 Ang^3
#
#
#
# Elastic Constant Matrix: (Units=GPa)
#
#
# Indices 1 2 3 4 5 6 
#
# 1 166.6443 14.8253 -0.5300 0.0000 0.0000 0.0000
# 2 14.8253 462.6474 40.3581 0.0000 0.0000 0.0000
# 3 -0.5300 40.3581 90.9200 0.0000 0.0000 0.0000
# 4 0.0000 0.0000 0.0000 -84.7182 0.0000 0.0000
# 5 0.0000 0.0000 0.0000 0.0000 33.6710 0.0000
# 6 0.0000 0.0000 0.0000 0.0000 0.0000 -9.0290
#
#
#
# Elastic Compliance Matrix: (Units=1/GPa)
#
#
# Indices 1 2 3 4 5 6 
#
# 1 0.006019 -0.000204 0.000126 0.000000 0.000000 0.000000
# 2 -0.000204 0.002255 -0.001002 0.000000 0.000000 0.000000
# 3 0.000126 -0.001002 0.011444 0.000000 0.000000 0.000000
# 4 0.000000 0.000000 0.000000 -0.011804 0.000000 0.000000
# 5 0.000000 0.000000 0.000000 0.000000 0.029699 0.000000
# 6 0.000000 0.000000 0.000000 0.000000 0.000000 -0.110754
#
#
# Mechanical properties :
#
#
# Convention : Reuss Voigt Hill
#
# Bulk Modulus (GPa) = 56.95446 92.16873 74.56160
# Shear Modulus (GPa) = -76.77436 32.35531 -22.20952
#
# Velocity S-wave (km/s) = -5.14230 3.33828 -2.76579
# Velocity P-wave (km/s) = 3.95487 6.82674 3.93468
#
# Compressibility (1/GPa) = 0.01755789
#
# Stress axis : x y z
#
# Youngs Moduli (GPa) = 166.13116 443.37191 87.37947
#
# Poissons Ratio (x) = 0.09038 -0.01097
# Poissons Ratio (y) = 0.03386 0.08758
# Poissons Ratio (z) = -0.02086 0.44441
#
# Static dielectric constant tensor:
#      x y z
#    x 2.147110 0.000000 0.000000 
#    y 0.000000 2.286440 0.000000 
#    z 0.000000 0.000000 2.248570 
# 
# From -- ./inp_files/2780.got.cif
#   From: 2010.05.17/outbox.cif.g08.bks.cpg/sg62_2_cif.got.tgz:2780.got - 2010.06.03 15:25:27.
