data_PCOD9467133
_publ_section_title
;
Structure prediction by ZEFSAII (Michael W. Deem and Ramdas Pophale) SiO2 
 PCOD9467133
Probable space group: P N M A
;
_chemical_formula_sum "Si O2"
_cell_formula_units_Z 40
_cell_length_a 8.782227
_cell_length_b 11.951672
_cell_length_c 17.859435
_cell_angle_alpha 90.000000
_cell_angle_beta 90.000000
_cell_angle_gamma 90.000000
_cell_volume 1874.567312
_symmetry_space_group_name_H-M "P N M A"
_symmetry_group_IT_number 62
_symmetry_cell_setting 'orthorhombic'
loop_
_space_group_symop_operation_xyz
x,y,z
1/2-x,-y,1/2+z
1/2+x,1/2-y,1/2-z
-x,1/2+y,-z
-x,-y,-z
1/2+x,y,1/2-z
1/2-x,1/2+y,1/2+z
x,1/2-y,z
loop_
_atom_site_type_symbol
_atom_site_label
_atom_site_fract_x
_atom_site_fract_y
_atom_site_fract_z
Si Si1 0.655810 0.879685 0.444403
Si Si2 0.030090 0.619645 0.781150
Si Si3 0.207080 0.935561 0.643535
Si Si4 0.671218 0.477817 0.593490
Si Si5 0.419623 0.376203 0.989764
O O1 0.674151 0.750000 0.446226
O O2 0.683586 0.932011 0.526198
O O3 0.763867 0.937908 0.383120
O O4 0.483860 0.911294 0.422555
O O5 0.068250 0.750000 0.789233
O O6 0.062046 0.585677 0.695593
O O7 0.143767 0.543964 0.830391
O O8 0.859617 0.602256 0.812771
O O9 0.185471 0.873055 0.564608
O O10 0.813942 0.396811 0.582601
O O11 0.491202 0.250000 0.986032
O O12 0.500000 0.500000 0.000000
#
# Coordination Sequence:
#
# PCOD9467133 Si02
#       5
#     8   8   8   8   8
#     4   9  17  36  61  87 122 158 204 258 313 379
#     4  11  21  38  64  93 127 162 208 267 323 379
#     4  10  24  40  62  95 126 166 211 263 323 381
#     4   9  20  34  60  90 116 157 210 258 313 377
#     4  11  24  42  64  93 130 170 218 271 325 382
#
# _framework density 21.338259000000001
#
# number of rings (size 3 to 8) (size 9 to 14) (size 15 to 20)
#    0.000    2.000    0.000    4.200    2.800    4.000 
#    0.000    5.000    0.000    0.000    0.000    0.000 
#    0.000    0.000    0.000    0.000    0.000    0.000 
#
# Total GULP energy -223071.417763 kJ/mol
# GULP energy per Si atom -5576.785444 kJ/mol
# Density = 2.128969 g / cm^3
# Si number density = 21.338259 Si / 1000 Ang^3
#
#
#
# Elastic Constant Matrix: (Units=GPa)
#
#
# Indices 1 2 3 4 5 6 
#
# 1 37.6730 46.0078 8.7566 0.0000 0.0000 0.0000
# 2 46.0078 169.7304 14.9506 0.0000 0.0000 0.0000
# 3 8.7566 14.9506 51.8328 0.0000 0.0000 0.0000
# 4 0.0000 0.0000 0.0000 10.1790 0.0000 0.0000
# 5 0.0000 0.0000 0.0000 0.0000 40.8150 0.0000
# 6 0.0000 0.0000 0.0000 0.0000 0.0000 7.1131
#
#
#
# Elastic Compliance Matrix: (Units=1/GPa)
#
#
# Indices 1 2 3 4 5 6 
#
# 1 0.040381 -0.010615 -0.003760 0.000000 0.000000 0.000000
# 2 -0.010615 0.008835 -0.000755 0.000000 0.000000 0.000000
# 3 -0.003760 -0.000755 0.020146 0.000000 0.000000 0.000000
# 4 0.000000 0.000000 0.000000 0.098241 0.000000 0.000000
# 5 0.000000 0.000000 0.000000 0.000000 0.024501 0.000000
# 6 0.000000 0.000000 0.000000 0.000000 0.000000 0.140587
#
#
# Mechanical properties :
#
#
# Convention : Reuss Voigt Hill
#
# Bulk Modulus (GPa) = 25.57401 44.29625 34.93513
# Shear Modulus (GPa) = 13.29836 24.25616 18.77726
#
# Velocity S-wave (km/s) = 2.49914 3.37522 2.96967
# Velocity P-wave (km/s) = 4.50984 5.99947 5.30718
#
# Compressibility (1/GPa) = 0.03910220
#
# Stress axis : x y z
#
# Youngs Moduli (GPa) = 24.76388 113.17999 49.63781
#
# Poissons Ratio (x) = 1.20137 0.18666
# Poissons Ratio (y) = 0.26286 0.03749
# Poissons Ratio (z) = 0.09312 0.08548
#
# Static dielectric constant tensor:
#      x y z
#    x 1.872620 0.000000 0.000000 
#    y 0.000000 1.759240 0.000000 
#    z 0.000000 0.000000 1.731580 
# 
# From -- ./inp_files/21881.got.cif
#   From: 2010.05.17/outbox.cif.g08.bks.cpg/sg62_11_cif.got.tgz:21881.got - 2010.06.03 15:25:27.
