data_PCOD9467941
_publ_section_title
;
Structure prediction by ZEFSAII (Michael W. Deem and Ramdas Pophale) SiO2 
 PCOD9467941
Probable space group: P N M A
;
_chemical_formula_sum "Si O2"
_cell_formula_units_Z 48
_cell_length_a 30.000000
_cell_length_b 9.000000
_cell_length_c 9.000000
_cell_angle_alpha 90.000000
_cell_angle_beta 90.000000
_cell_angle_gamma 90.000000
_cell_volume 2430.000000
_symmetry_space_group_name_H-M "P N M A"
_symmetry_group_IT_number 62
_symmetry_cell_setting 'orthorhombic'
loop_
_space_group_symop_operation_xyz
x,y,z
1/2-x,-y,1/2+z
1/2+x,1/2-y,1/2-z
-x,1/2+y,-z
-x,-y,-z
1/2+x,y,1/2-z
1/2-x,1/2+y,1/2+z
x,1/2-y,z
loop_
_atom_site_type_symbol
_atom_site_label
_atom_site_fract_x
_atom_site_fract_y
_atom_site_fract_z
Si Si1 0.958127 0.420449 0.429737
Si Si2 0.633922 0.428477 0.916921
Si Si3 0.785637 0.582090 0.627281
Si Si4 0.131242 0.075851 0.920389
Si Si5 0.796730 0.087337 0.909270
Si Si6 0.459194 0.080798 0.426892
O O1 0.955991 0.250000 0.477222
O O2 0.912506 0.503190 0.467274
O O3 0.962581 0.425428 0.251448
O O4 0.000000 0.500000 0.500000
O O5 0.630888 0.250000 0.916168
O O6 0.642952 0.477703 0.746994
O O7 0.673171 0.468917 0.027156
O O8 0.794636 0.750000 0.684218
O O9 0.743018 0.591784 0.524546
O O10 0.777625 0.464147 0.754021
O O11 0.124455 0.250000 0.912702
O O12 0.086106 0.999033 0.968609
O O13 0.168661 0.032463 0.034910
O O14 0.817947 0.250000 0.901372
O O15 0.458071 0.250000 0.474659
O O16 0.500000 0.000000 0.500000
#
# Coordination Sequence:
#
# PCOD9467941 Si02
#       6
#     8   8   8   8   8   8
#     4  10  21  36  56  82 111 144 183 227 275 327
#     4   9  19  37  59  81 108 144 185 227 274 328
#     4  10  22  39  58  82 113 147 183 226 275 328
#     4  10  20  37  60  83 111 148 186 229 281 331
#     4  11  23  38  58  85 114 146 186 229 274 329
#     4  10  21  37  57  83 113 147 188 232 279 331
#
# _framework density 19.753086
#
# number of rings (size 3 to 8) (size 9 to 14) (size 15 to 20)
#    0.000    2.000    0.000    3.000    0.000    7.333 
#    0.000    1.667    0.000    0.000    0.000    0.000 
#    0.000    0.000    0.000    0.000    0.000    0.000 
#
# Total GULP energy -267770.702288 kJ/mol
# GULP energy per Si atom -5578.556298 kJ/mol
# Density = 1.970813 g / cm^3
# Si number density = 19.753086 Si / 1000 Ang^3
#
#
#
# Elastic Constant Matrix: (Units=GPa)
#
#
# Indices 1 2 3 4 5 6 
#
# 1 49.8065 38.9798 33.1885 0.0000 0.0000 0.0000
# 2 38.9798 18.3252 41.2249 0.0000 0.0000 0.0000
# 3 33.1885 41.2249 15.5935 0.0000 0.0000 0.0000
# 4 0.0000 0.0000 0.0000 6.3524 0.0000 0.0000
# 5 0.0000 0.0000 0.0000 0.0000 -19.5943 0.0000
# 6 0.0000 0.0000 0.0000 0.0000 0.0000 11.9946
#
#
#
# Elastic Compliance Matrix: (Units=1/GPa)
#
#
# Indices 1 2 3 4 5 6 
#
# 1 0.185346 -0.099686 -0.130940 0.000000 0.000000 0.000000
# 2 -0.099686 0.042585 0.099585 0.000000 0.000000 0.000000
# 3 -0.130940 0.099585 0.079542 0.000000 0.000000 0.000000
# 4 0.000000 0.000000 0.000000 0.157422 0.000000 0.000000
# 5 0.000000 0.000000 0.000000 0.000000 -0.051035 0.000000
# 6 0.000000 0.000000 0.000000 0.000000 0.000000 0.083371
#
#
# Mechanical properties :
#
#
# Convention : Reuss Voigt Hill
#
# Bulk Modulus (GPa) = 22.03120 34.50128 28.26624
# Shear Modulus (GPa) = 6.45625 -2.22732 2.11446
#
# Velocity S-wave (km/s) = 1.80985 -1.06303 1.03575
# Velocity P-wave (km/s) = 3.94271 3.99969 3.97130
#
# Compressibility (1/GPa) = 0.04539018
#
# Stress axis : x y z
#
# Youngs Moduli (GPa) = 5.39531 23.48239 12.57199
#
# Poissons Ratio (x) = 2.34087 1.64618
# Poissons Ratio (y) = 0.53784 -1.25198
# Poissons Ratio (z) = 0.70646 -2.33849
#
# Static dielectric constant tensor:
#      x y z
#    x 1.539900 0.000000 0.000000 
#    y 0.000000 1.689250 0.000000 
#    z 0.000000 0.000000 1.685810 
# 
# From -- ./inp_files/10219.got.cif
#   From: 2010.05.17/outbox.ucp.g08.bks.cvg/sg62_6_cif.got.tgz:10219.got - 2010.06.11 16:29:25.
