data_PCOD9467045
_publ_section_title
;
Structure prediction by ZEFSAII (Michael W. Deem and Ramdas Pophale) SiO2 
 PCOD9467045
Probable space group: P N M A
;
_chemical_formula_sum "Si O2"
_cell_formula_units_Z 56
_cell_length_a 14.971880
_cell_length_b 8.464218
_cell_length_c 21.813275
_cell_angle_alpha 90.000000
_cell_angle_beta 90.000000
_cell_angle_gamma 90.000000
_cell_volume 2764.292863
_symmetry_space_group_name_H-M "P N M A"
_symmetry_group_IT_number 62
_symmetry_cell_setting 'orthorhombic'
loop_
_space_group_symop_operation_xyz
x,y,z
1/2-x,-y,1/2+z
1/2+x,1/2-y,1/2-z
-x,1/2+y,-z
-x,-y,-z
1/2+x,y,1/2-z
1/2-x,1/2+y,1/2+z
x,1/2-y,z
loop_
_atom_site_type_symbol
_atom_site_label
_atom_site_fract_x
_atom_site_fract_y
_atom_site_fract_z
Si Si1 0.585547 0.561751 0.963896
Si Si2 0.805376 0.439639 0.212444
Si Si3 0.399891 0.057697 0.621175
Si Si4 0.902163 0.561271 0.091666
Si Si5 0.388941 0.439999 0.762717
Si Si6 0.275075 0.061872 0.514449
Si Si7 0.429570 0.440861 0.175936
O O1 0.581338 0.750000 0.962493
O O2 0.585565 0.502642 0.893411
O O3 0.500000 0.500000 0.000000
O O4 0.677920 0.510518 0.994834
O O5 0.810207 0.250000 0.207315
O O6 0.860467 0.516294 0.157184
O O7 0.703130 0.494000 0.210459
O O8 0.851820 0.488876 0.276576
O O9 0.399291 0.250000 0.621389
O O10 0.494601 0.008457 0.592322
O O11 0.394450 0.006562 0.691592
O O12 0.318897 0.003932 0.578334
O O13 0.899702 0.750000 0.083860
O O14 0.843410 0.482549 0.039092
O O15 0.387137 0.250000 0.764111
O O16 0.476091 0.499002 0.798279
O O17 0.266095 0.250000 0.517130
O O18 0.431476 0.250000 0.175415
#
# Coordination Sequence:
#
# PCOD9467045 Si02
#       7
#     8   8   8   8   8   8   8
#     4  11  25  45  66  91 124 165 214 263 314 373
#     4  11  23  40  62  92 127 165 208 259 315 371
#     4   9  20  39  63  94 128 162 207 256 309 371
#     4  11  22  40  63  92 127 164 209 259 308 372
#     4  11  22  38  64  94 125 163 206 255 310 372
#     4  11  23  41  64  92 126 166 208 258 316 373
#     4  10  23  43  65  91 125 163 208 259 311 370
#
# _framework density 20.258344999999998
#
# number of rings (size 3 to 8) (size 9 to 14) (size 15 to 20)
#    0.000    1.429    1.429    3.429    2.000    1.714 
#    0.000    4.286    0.000    0.000    0.000    0.000 
#    0.000    0.000    0.000    0.000    0.000    0.000 
#
# Total GULP energy -313202.173184 kJ/mol
# GULP energy per Si atom -5592.895950 kJ/mol
# Density = 2.021224 g / cm^3
# Si number density = 20.258345 Si / 1000 Ang^3
#
#
#
# Elastic Constant Matrix: (Units=GPa)
#
#
# Indices 1 2 3 4 5 6 
#
# 1 95.3746 1.8211 -14.9052 0.0000 0.0000 0.0000
# 2 1.8211 23.9726 -3.0395 0.0000 0.0000 0.0000
# 3 -14.9052 -3.0395 39.6027 0.0000 0.0000 0.0000
# 4 0.0000 0.0000 0.0000 24.8996 0.0000 0.0000
# 5 0.0000 0.0000 0.0000 0.0000 30.5725 0.0000
# 6 0.0000 0.0000 0.0000 0.0000 0.0000 24.5027
#
#
#
# Elastic Compliance Matrix: (Units=1/GPa)
#
#
# Indices 1 2 3 4 5 6 
#
# 1 0.011143 -0.000318 0.004169 0.000000 0.000000 0.000000
# 2 -0.000318 0.042133 0.003114 0.000000 0.000000 0.000000
# 3 0.004169 0.003114 0.027059 0.000000 0.000000 0.000000
# 4 0.000000 0.000000 0.000000 0.040161 0.000000 0.000000
# 5 0.000000 0.000000 0.000000 0.000000 0.032709 0.000000
# 6 0.000000 0.000000 0.000000 0.000000 0.000000 0.040812
#
#
# Mechanical properties :
#
#
# Convention : Reuss Voigt Hill
#
# Bulk Modulus (GPa) = 10.60825 14.07808 12.34317
# Shear Modulus (GPa) = 23.63978 27.66654 25.65316
#
# Velocity S-wave (km/s) = 3.41972 3.69953 3.56237
# Velocity P-wave (km/s) = 4.56514 5.02126 4.79862
#
# Compressibility (1/GPa) = 0.09426622
#
# Stress axis : x y z
#
# Youngs Moduli (GPa) = 89.74548 23.73424 36.95620
#
# Poissons Ratio (x) = 0.00754 -0.15408
# Poissons Ratio (y) = 0.02852 -0.11509
# Poissons Ratio (z) = -0.37418 -0.07391
#
# Static dielectric constant tensor:
#      x y z
#    x 1.688430 0.000000 0.000000 
#    y 0.000000 1.689090 0.000000 
#    z 0.000000 0.000000 1.721150 
# 
# From -- ./inp_files/27103.got.cif
#   From: 2010.05.17/outbox.cif.g08.bks.cpg/sg62_14_cif.got.tgz:27103.got - 2010.06.03 15:25:27.
