data_PCOD9467568
_publ_section_title
;
Structure prediction by ZEFSAII (Michael W. Deem and Ramdas Pophale) SiO2 
 PCOD9467568
Probable space group: P N M A
;
_chemical_formula_sum "Si O2"
_cell_formula_units_Z 48
_cell_length_a 5.029457
_cell_length_b 13.809034
_cell_length_c 25.238400
_cell_angle_alpha 90.000000
_cell_angle_beta 90.000000
_cell_angle_gamma 90.000000
_cell_volume 1752.855911
_symmetry_space_group_name_H-M "P N M A"
_symmetry_group_IT_number 62
_symmetry_cell_setting 'orthorhombic'
loop_
_space_group_symop_operation_xyz
x,y,z
1/2-x,-y,1/2+z
1/2+x,1/2-y,1/2-z
-x,1/2+y,-z
-x,-y,-z
1/2+x,y,1/2-z
1/2-x,1/2+y,1/2+z
x,1/2-y,z
loop_
_atom_site_type_symbol
_atom_site_label
_atom_site_fract_x
_atom_site_fract_y
_atom_site_fract_z
Si Si1 0.609709 0.250000 0.086408
Si Si2 0.579307 0.454489 0.284976
Si Si3 0.313379 0.250000 0.779686
Si Si4 0.815479 0.422248 0.471345
Si Si5 0.119815 0.250000 0.157627
Si Si6 0.462246 0.584848 0.146701
Si Si7 0.907916 0.562471 0.080462
Si Si8 0.854783 0.250000 0.894532
O O1 0.504219 0.159178 0.052428
O O2 0.422220 0.250000 0.137799
O O3 0.913096 0.250000 0.107407
O O4 0.278846 0.468080 0.265024
O O5 0.584992 0.346612 0.308215
O O6 0.715727 0.526744 0.327139
O O7 0.493470 0.250000 0.725277
O O8 0.429522 0.154445 0.807015
O O9 0.633440 0.391921 0.521282
O O10 0.000000 0.500000 0.500000
O O11 0.619935 0.477714 0.431020
O O12 0.666837 0.517233 0.115073
O O13 0.363209 0.661837 0.102347
O O14 0.932471 0.663014 0.112243
#
# Coordination Sequence:
#
# PCOD9467568 Si02
#       8
#     4   8   4   8   4   8   8   4
#     4  12  31  53  82 128 162 223 279 359 412 510
#     4  12  28  53  86 120 161 212 277 354 430 507
#     4  11  25  45  70 113 166 212 266 332 408 496
#     4  11  28  50  81 115 169 217 290 343 422 498
#     4  12  30  53  87 119 164 212 285 346 433 500
#     4  11  27  44  78 118 161 222 273 343 421 511
#     4  11  26  48  78 115 164 228 276 347 411 512
#     4  11  24  43  75 110 164 213 272 319 415 494
#
# _framework density 27.383880999999999
#
# number of rings (size 3 to 8) (size 9 to 14) (size 15 to 20)
#    0.000    0.667    0.000    5.000   16.333    2.000 
#    0.000    0.000    0.000    0.000    0.000    0.000 
#    0.000    0.000    0.000    0.000    0.000    0.000 
#
# Total GULP energy -267680.979570 kJ/mol
# GULP energy per Si atom -5576.687074 kJ/mol
# Density = 2.732155 g / cm^3
# Si number density = 27.383881 Si / 1000 Ang^3
#
#
#
# Elastic Constant Matrix: (Units=GPa)
#
#
# Indices 1 2 3 4 5 6 
#
# 1 109.3966 33.6927 -2.2943 0.0000 0.0000 0.0000
# 2 33.6927 204.4802 56.8636 0.0000 0.0000 0.0000
# 3 -2.2943 56.8636 103.3262 0.0000 0.0000 0.0000
# 4 0.0000 0.0000 0.0000 55.1215 0.0000 0.0000
# 5 0.0000 0.0000 0.0000 0.0000 54.6196 0.0000
# 6 0.0000 0.0000 0.0000 0.0000 0.0000 41.8352
#
#
#
# Elastic Compliance Matrix: (Units=1/GPa)
#
#
# Indices 1 2 3 4 5 6 
#
# 1 0.009776 -0.001973 0.001303 0.000000 0.000000 0.000000
# 2 -0.001973 0.006172 -0.003441 0.000000 0.000000 0.000000
# 3 0.001303 -0.003441 0.011601 0.000000 0.000000 0.000000
# 4 0.000000 0.000000 0.000000 0.018142 0.000000 0.000000
# 5 0.000000 0.000000 0.000000 0.000000 0.018308 0.000000
# 6 0.000000 0.000000 0.000000 0.000000 0.000000 0.023903
#
#
# Mechanical properties :
#
#
# Convention : Reuss Voigt Hill
#
# Bulk Modulus (GPa) = 51.74039 65.96965 58.85502
# Shear Modulus (GPa) = 48.74878 52.24466 50.49672
#
# Velocity S-wave (km/s) = 4.22382 4.37265 4.29888
# Velocity P-wave (km/s) = 6.53628 7.04531 6.79556
#
# Compressibility (1/GPa) = 0.01932726
#
# Stress axis : x y z
#
# Youngs Moduli (GPa) = 102.29045 162.01203 86.20299
#
# Poissons Ratio (x) = 0.31968 -0.11232
# Poissons Ratio (y) = 0.20184 0.29660
# Poissons Ratio (z) = -0.13328 0.55743
#
# Static dielectric constant tensor:
#      x y z
#    x 3.108420 0.000000 0.000000 
#    y 0.000000 1.889460 0.000000 
#    z 0.000000 0.000000 2.524880 
# 
# From -- ./inp_files/30442.got.cif
#   From: 2010.05.17/outbox.cif.g08.bks.cpg/sg62_16_cif.got.tgz:30442.got - 2010.06.03 15:25:27.
