data_PCOD9467812
_publ_section_title
;
Structure prediction by ZEFSAII (Michael W. Deem and Ramdas Pophale) SiO2 
 PCOD9467812
Probable space group: P N M A
;
_chemical_formula_sum "Si O2"
_cell_formula_units_Z 64
_cell_length_a 18.000000
_cell_length_b 9.000000
_cell_length_c 21.000000
_cell_angle_alpha 90.000000
_cell_angle_beta 90.000000
_cell_angle_gamma 90.000000
_cell_volume 3402.000000
_symmetry_space_group_name_H-M "P N M A"
_symmetry_group_IT_number 62
_symmetry_cell_setting 'orthorhombic'
loop_
_space_group_symop_operation_xyz
x,y,z
1/2-x,-y,1/2+z
1/2+x,1/2-y,1/2-z
-x,1/2+y,-z
-x,-y,-z
1/2+x,y,1/2-z
1/2-x,1/2+y,1/2+z
x,1/2-y,z
loop_
_atom_site_type_symbol
_atom_site_label
_atom_site_fract_x
_atom_site_fract_y
_atom_site_fract_z
Si Si1 0.722414 0.420144 0.731482
Si Si2 0.192607 0.919955 0.961081
Si Si3 0.656447 0.084100 0.295922
Si Si4 0.553546 0.079582 0.170217
Si Si5 0.681692 0.577095 0.102153
Si Si6 0.899112 0.081904 0.911534
Si Si7 0.568820 0.926665 0.740814
Si Si8 0.940711 0.578033 0.110127
O O1 0.697328 0.250000 0.734410
O O2 0.782094 0.459608 0.784750
O O3 0.766064 0.442940 0.665017
O O4 0.654657 0.530839 0.740260
O O5 0.201806 0.750000 0.941334
O O6 0.271203 0.999165 0.952701
O O7 0.129181 0.992467 0.917434
O O8 0.158298 0.927114 0.031163
O O9 0.688486 0.250000 0.296026
O O10 0.600385 0.077361 0.236385
O O11 0.617618 0.045236 0.361333
O O12 0.548257 0.250000 0.148860
O O13 0.473436 0.026254 0.194667
O O14 0.601955 0.989554 0.119983
O O15 0.674907 0.750000 0.089739
O O16 0.894796 0.250000 0.883518
O O17 0.984982 0.066003 0.931579
O O18 0.557459 0.750000 0.733196
O O19 0.539274 0.014180 0.679335
O O20 0.920010 0.750000 0.115431
#
# Coordination Sequence:
#
# PCOD9467812 Si02
#       8
#     8   8   8   8   8   8   8   8
#     4  10  20  33  50  73 102 133 166 207 254 299
#     4  11  22  35  51  70  99 138 176 213 251 294
#     4  10  19  33  52  74  98 131 170 210 254 297
#     4   9  19  33  50  73 100 130 165 205 253 302
#     4  10  20  33  50  73  98 130 169 210 253 296
#     4  10  22  36  50  71 100 137 175 212 254 296
#     4  11  20  32  51  76 103 133 168 204 249 303
#     4  11  21  33  48  70 102 136 174 211 245 292
#
# _framework density 18.812463000000001
#
# number of rings (size 3 to 8) (size 9 to 14) (size 15 to 20)
#    0.000    1.750    2.500    2.625    0.000    4.000 
#    0.000    0.000    0.000    0.000    0.000    0.875 
#    0.000    0.000    0.000    0.000    0.000    0.000 
#
# Total GULP energy -356709.859135 kJ/mol
# GULP energy per Si atom -5573.591549 kJ/mol
# Density = 1.876965 g / cm^3
# Si number density = 18.812463 Si / 1000 Ang^3
#
#
#
# Elastic Constant Matrix: (Units=GPa)
#
#
# Indices 1 2 3 4 5 6 
#
# 1 10.8704 12.3015 0.1876 0.0000 0.0000 0.0000
# 2 12.3015 23.8065 1.8945 0.0000 0.0000 0.0000
# 3 0.1876 1.8945 3.0373 0.0000 0.0000 0.0000
# 4 0.0000 0.0000 0.0000 13.8403 0.0000 0.0000
# 5 0.0000 0.0000 0.0000 0.0000 23.6497 0.0000
# 6 0.0000 0.0000 0.0000 0.0000 0.0000 20.5099
#
#
#
# Elastic Compliance Matrix: (Units=1/GPa)
#
#
# Indices 1 2 3 4 5 6 
#
# 1 0.232727 -0.125335 0.063803 0.000000 0.000000 0.000000
# 2 -0.125335 0.111698 -0.061930 0.000000 0.000000 0.000000
# 3 0.063803 -0.061930 0.363924 0.000000 0.000000 0.000000
# 4 0.000000 0.000000 0.000000 0.072253 0.000000 0.000000
# 5 0.000000 0.000000 0.000000 0.000000 0.042284 0.000000
# 6 0.000000 0.000000 0.000000 0.000000 0.000000 0.048757
#
#
# Mechanical properties :
#
#
# Convention : Reuss Voigt Hill
#
# Bulk Modulus (GPa) = 2.16720 7.38683 4.77701
# Shear Modulus (GPa) = 3.92966 13.15536 8.54251
#
# Velocity S-wave (km/s) = 1.44686 2.64728 2.13325
# Velocity P-wave (km/s) = 1.98638 3.64406 2.93470
#
# Compressibility (1/GPa) = 0.46142590
#
# Stress axis : x y z
#
# Youngs Moduli (GPa) = 4.29688 8.95271 2.74783
#
# Poissons Ratio (x) = 1.12208 -0.17532
# Poissons Ratio (y) = 0.53855 0.17017
# Poissons Ratio (z) = -0.27415 0.55444
#
# Static dielectric constant tensor:
#      x y z
#    x 1.708540 0.000000 0.000000 
#    y 0.000000 1.655590 0.000000 
#    z 0.000000 0.000000 1.657850 
# 
# From -- ./inp_files/27617.got.cif
#   From: 2010.05.17/outbox.ucp.g08.bks.cvg/sg62_14_cif.got.tgz:27617.got - 2010.06.11 16:29:25.
