data_PCOD9467486
_publ_section_title
;
Structure prediction by ZEFSAII (Michael W. Deem and Ramdas Pophale) SiO2 
 PCOD9467486
Probable space group: P N M A
;
_chemical_formula_sum "Si O2"
_cell_formula_units_Z 44
_cell_length_a 12.410881
_cell_length_b 7.679389
_cell_length_c 20.341696
_cell_angle_alpha 90.000000
_cell_angle_beta 90.000000
_cell_angle_gamma 90.000000
_cell_volume 1938.726017
_symmetry_space_group_name_H-M "P N M A"
_symmetry_group_IT_number 62
_symmetry_cell_setting 'orthorhombic'
loop_
_space_group_symop_operation_xyz
x,y,z
1/2-x,-y,1/2+z
1/2+x,1/2-y,1/2-z
-x,1/2+y,-z
-x,-y,-z
1/2+x,y,1/2-z
1/2-x,1/2+y,1/2+z
x,1/2-y,z
loop_
_atom_site_type_symbol
_atom_site_label
_atom_site_fract_x
_atom_site_fract_y
_atom_site_fract_z
Si Si1 0.542877 0.456985 0.427552
Si Si2 0.033482 0.250000 0.355489
Si Si3 0.864783 0.060546 0.567741
Si Si4 0.662807 0.540067 0.655772
Si Si5 0.788209 0.950749 0.426922
Si Si6 0.086051 0.455475 0.703686
O O1 0.500000 0.500000 0.500000
O O2 0.554603 0.250000 0.421711
O O3 0.450656 0.512579 0.376847
O O4 0.660055 0.536378 0.418628
O O5 0.060196 0.096898 0.410406
O O6 0.010881 0.406343 0.300125
O O7 0.915061 0.250000 0.577557
O O8 0.759656 0.041087 0.614261
O O9 0.825152 0.045852 0.492830
O O10 0.676576 0.750000 0.650402
O O11 0.656441 0.486852 0.731287
O O12 0.816708 0.750000 0.436340
O O13 0.844810 0.012354 0.360341
O O14 0.059131 0.250000 0.701158
#
# Coordination Sequence:
#
# PCOD9467486 Si02
#       6
#     8   4   8   8   8   8
#     4  11  23  38  71 106 136 179 229 290 360 424
#     4  12  26  48  70  98 144 186 242 292 342 420
#     4  12  25  44  75 105 139 188 240 292 356 422
#     4  11  23  46  72 103 147 185 231 299 360 427
#     4  11  24  46  69 105 143 179 234 297 356 419
#     4  11  27  48  71 102 144 191 240 294 357 424
#
# _framework density 22.695315000000001
#
# number of rings (size 3 to 8) (size 9 to 14) (size 15 to 20)
#    0.000    0.727    4.545    2.182    2.545    4.364 
#    0.000    1.818    0.000    0.000    0.000    0.000 
#    0.000    0.000    0.000    0.000    0.000    0.000 
#
# Total GULP energy -245298.822750 kJ/mol
# GULP energy per Si atom -5574.973244 kJ/mol
# Density = 2.264366 g / cm^3
# Si number density = 22.695315 Si / 1000 Ang^3
#
#
#
# Elastic Constant Matrix: (Units=GPa)
#
#
# Indices 1 2 3 4 5 6 
#
# 1 78.8434 19.8139 44.9385 0.0000 0.0000 0.0000
# 2 19.8139 145.9327 29.8226 0.0000 0.0000 0.0000
# 3 44.9385 29.8226 169.1970 0.0000 0.0000 0.0000
# 4 0.0000 0.0000 0.0000 11.8735 0.0000 0.0000
# 5 0.0000 0.0000 0.0000 0.0000 119.3181 0.0000
# 6 0.0000 0.0000 0.0000 0.0000 0.0000 -49.1874
#
#
#
# Elastic Compliance Matrix: (Units=1/GPa)
#
#
# Indices 1 2 3 4 5 6 
#
# 1 0.015174 -0.001283 -0.003804 0.000000 0.000000 0.000000
# 2 -0.001283 0.007217 -0.000931 0.000000 0.000000 0.000000
# 3 -0.003804 -0.000931 0.007085 0.000000 0.000000 0.000000
# 4 0.000000 0.000000 0.000000 0.084221 0.000000 0.000000
# 5 0.000000 0.000000 0.000000 0.000000 0.008381 0.000000
# 6 0.000000 0.000000 0.000000 0.000000 0.000000 -0.020330
#
#
# Mechanical properties :
#
#
# Convention : Reuss Voigt Hill
#
# Bulk Modulus (GPa) = 57.34199 64.79146 61.06673
# Shear Modulus (GPa) = 41.80717 36.36073 39.08395
#
# Velocity S-wave (km/s) = 4.29663 4.00700 4.15434
# Velocity P-wave (km/s) = 7.06651 7.07237 7.06944
#
# Compressibility (1/GPa) = 0.01743923
#
# Stress axis : x y z
#
# Youngs Moduli (GPa) = 65.90227 138.56217 141.14753
#
# Poissons Ratio (x) = 0.17775 0.53694
# Poissons Ratio (y) = 0.08454 0.13146
# Poissons Ratio (z) = 0.25070 0.12905
#
# Static dielectric constant tensor:
#      x y z
#    x 1.885900 0.000000 0.000000 
#    y 0.000000 1.812920 0.000000 
#    z 0.000000 0.000000 1.822580 
# 
# From -- ./inp_files/23587.got.cif
#   From: 2010.05.17/outbox.cif.g08.bks.cpg/sg62_12_cif.got.tgz:23587.got - 2010.06.03 15:25:27.
