data_PCOD9467467
_publ_section_title
;
Structure prediction by ZEFSAII (Michael W. Deem and Ramdas Pophale) SiO2 
 PCOD9467467
Probable space group: P N M A
;
_chemical_formula_sum "Si O2"
_cell_formula_units_Z 40
_cell_length_a 12.831323
_cell_length_b 13.531863
_cell_length_c 11.735582
_cell_angle_alpha 90.000000
_cell_angle_beta 90.000000
_cell_angle_gamma 90.000000
_cell_volume 2037.669111
_symmetry_space_group_name_H-M "P N M A"
_symmetry_group_IT_number 62
_symmetry_cell_setting 'orthorhombic'
loop_
_space_group_symop_operation_xyz
x,y,z
1/2-x,-y,1/2+z
1/2+x,1/2-y,1/2-z
-x,1/2+y,-z
-x,-y,-z
1/2+x,y,1/2-z
1/2-x,1/2+y,1/2+z
x,1/2-y,z
loop_
_atom_site_type_symbol
_atom_site_label
_atom_site_fract_x
_atom_site_fract_y
_atom_site_fract_z
Si Si1 0.883552 0.949286 0.111960
Si Si2 0.890297 0.440850 0.885963
Si Si3 0.628964 0.250000 0.092263
Si Si4 0.220930 0.250000 0.912781
Si Si5 0.752810 0.750000 0.357770
Si Si6 0.876951 0.250000 0.389637
Si Si7 0.757379 0.590555 0.751417
O O1 0.837669 0.850740 0.055747
O O2 0.995191 0.922532 0.163709
O O3 0.803850 0.998016 0.198485
O O4 0.900513 0.035152 0.019325
O O5 0.817033 0.347197 0.873713
O O6 0.843025 0.538468 0.829599
O O7 0.503103 0.250000 0.109624
O O8 0.683976 0.343071 0.156380
O O9 0.660545 0.250000 0.958287
O O10 0.217441 0.250000 0.775288
O O11 0.329763 0.250000 0.981652
O O12 0.824543 0.342720 0.322526
#
# Coordination Sequence:
#
# PCOD9467467 Si02
#       7
#     8   8   4   4   4   4   8
#     4  11  23  41  65  93 127 170 210 257 320 377
#     4  11  23  41  65  93 127 170 210 257 320 377
#     4  11  25  43  67  97 128 170 219 267 324 382
#     4  12  24  43  63  92 135 165 212 270 313 382
#     4  12  24  43  63  92 135 165 212 270 313 382
#     4  11  25  43  67  97 128 170 219 267 324 382
#     4  11  22  45  68  94 130 167 214 273 314 392
#
# _framework density 19.630272000000001
#
# number of rings (size 3 to 8) (size 9 to 14) (size 15 to 20)
#    0.000    0.800    6.000    1.800    0.000    1.600 
#    0.000    2.000    0.000    0.000    0.000    0.000 
#    0.000    0.000    0.000    0.000    0.000    0.000 
#
# Total GULP energy -223117.465306 kJ/mol
# GULP energy per Si atom -5577.936633 kJ/mol
# Density = 1.958559 g / cm^3
# Si number density = 19.630272 Si / 1000 Ang^3
#
#
#
# Elastic Constant Matrix: (Units=GPa)
#
#
# Indices 1 2 3 4 5 6 
#
# 1 146.5583 34.9772 38.1227 0.0000 0.0000 0.0000
# 2 34.9772 100.4818 10.8426 0.0000 0.0000 0.0000
# 3 38.1227 10.8426 80.1841 0.0000 0.0000 0.0000
# 4 0.0000 0.0000 0.0000 21.9805 0.0000 0.0000
# 5 0.0000 0.0000 0.0000 0.0000 15.8411 0.0000
# 6 0.0000 0.0000 0.0000 0.0000 0.0000 14.9573
#
#
#
# Elastic Compliance Matrix: (Units=1/GPa)
#
#
# Indices 1 2 3 4 5 6 
#
# 1 0.008372 -0.002521 -0.003639 0.000000 0.000000 0.000000
# 2 -0.002521 0.010859 -0.000270 0.000000 0.000000 0.000000
# 3 -0.003639 -0.000270 0.014238 0.000000 0.000000 0.000000
# 4 0.000000 0.000000 0.000000 0.045495 0.000000 0.000000
# 5 0.000000 0.000000 0.000000 0.000000 0.063127 0.000000
# 6 0.000000 0.000000 0.000000 0.000000 0.000000 0.066857
#
#
# Mechanical properties :
#
#
# Convention : Reuss Voigt Hill
#
# Bulk Modulus (GPa) = 48.52489 55.01213 51.76851
# Shear Modulus (GPa) = 21.86491 26.77457 24.31974
#
# Velocity S-wave (km/s) = 3.34104 3.69717 3.52360
# Velocity P-wave (km/s) = 6.29734 6.80517 6.55617
#
# Compressibility (1/GPa) = 0.02060798
#
# Stress axis : x y z
#
# Youngs Moduli (GPa) = 119.45115 92.09100 70.23457
#
# Poissons Ratio (x) = 0.23220 0.25560
# Poissons Ratio (y) = 0.30119 0.01893
# Poissons Ratio (z) = 0.43471 0.02482
#
# Static dielectric constant tensor:
#      x y z
#    x 1.720710 0.000000 0.000000 
#    y 0.000000 1.661690 0.000000 
#    z 0.000000 0.000000 1.711480 
# 
# From -- ./inp_files/12095.got.cif
#   From: 2010.05.17/outbox.cif.g08.bks.cpg/sg62_7_cif.got.tgz:12095.got - 2010.06.03 15:25:27.
