data_PCOD9467523
_publ_section_title
;
Structure prediction by ZEFSAII (Michael W. Deem and Ramdas Pophale) SiO2 
 PCOD9467523
Probable space group: P N M A
;
_chemical_formula_sum "Si O2"
_cell_formula_units_Z 40
_cell_length_a 8.259549
_cell_length_b 25.118640
_cell_length_c 8.732449
_cell_angle_alpha 90.000000
_cell_angle_beta 90.000000
_cell_angle_gamma 90.000000
_cell_volume 1811.709300
_symmetry_space_group_name_H-M "P N M A"
_symmetry_group_IT_number 62
_symmetry_cell_setting 'orthorhombic'
loop_
_space_group_symop_operation_xyz
x,y,z
1/2-x,-y,1/2+z
1/2+x,1/2-y,1/2-z
-x,1/2+y,-z
-x,-y,-z
1/2+x,y,1/2-z
1/2-x,1/2+y,1/2+z
x,1/2-y,z
loop_
_atom_site_type_symbol
_atom_site_label
_atom_site_fract_x
_atom_site_fract_y
_atom_site_fract_z
Si Si1 0.467081 0.846851 0.010111
Si Si2 0.890306 0.152222 0.829056
Si Si3 0.532423 0.250000 0.485589
Si Si4 0.900360 0.958663 0.597904
Si Si5 0.603299 0.966193 0.384902
Si Si6 0.891595 0.250000 0.334988
O O1 0.598751 0.840242 0.146329
O O2 0.290530 0.843495 0.095884
O O3 0.483912 0.901075 0.908736
O O4 0.506498 0.800152 0.894257
O O5 0.963452 0.091562 0.837668
O O6 0.996987 0.197322 0.912811
O O7 0.711083 0.250000 0.408266
O O8 0.400924 0.250000 0.348213
O O9 0.748810 0.949339 0.491518
O O10 0.857176 0.991988 0.749803
O O11 0.000000 0.000000 0.500000
O O12 0.500000 0.000000 0.500000
#
# Coordination Sequence:
#
# PCOD9467523 Si02
#       6
#     8   8   4   8   8   4
#     4  11  24  44  71 103 142 187 239 289 354 423
#     4  11  24  44  70 102 139 188 234 290 352 425
#     4  12  27  48  73 102 140 182 236 296 361 424
#     4  11  23  43  68 102 143 185 236 289 351 422
#     4  11  25  42  68 102 142 187 236 293 352 427
#     4  12  27  48  71 104 140 180 234 302 353 426
#
# _framework density 22.078596000000001
#
# number of rings (size 3 to 8) (size 9 to 14) (size 15 to 20)
#    0.000    0.800    2.000    4.800    5.600    1.600 
#    0.000    0.000    0.000    0.000    0.000    0.000 
#    0.000    0.000    0.000    0.000    0.000    0.000 
#
# Total GULP energy -223025.947247 kJ/mol
# GULP energy per Si atom -5575.648681 kJ/mol
# Density = 2.202834 g / cm^3
# Si number density = 22.078596 Si / 1000 Ang^3
#
#
#
# Elastic Constant Matrix: (Units=GPa)
#
#
# Indices 1 2 3 4 5 6 
#
# 1 47.6215 16.5948 -11.1281 0.0000 0.0000 0.0000
# 2 16.5948 191.1611 63.3462 0.0000 0.0000 0.0000
# 3 -11.1281 63.3462 119.0224 0.0000 0.0000 0.0000
# 4 0.0000 0.0000 0.0000 30.9678 0.0000 0.0000
# 5 0.0000 0.0000 0.0000 0.0000 36.3750 0.0000
# 6 0.0000 0.0000 0.0000 0.0000 0.0000 16.3559
#
#
#
# Elastic Compliance Matrix: (Units=1/GPa)
#
#
# Indices 1 2 3 4 5 6 
#
# 1 0.023062 -0.003298 0.003912 0.000000 0.000000 0.000000
# 2 -0.003298 0.006823 -0.003940 0.000000 0.000000 0.000000
# 3 0.003912 -0.003940 0.010864 0.000000 0.000000 0.000000
# 4 0.000000 0.000000 0.000000 0.032292 0.000000 0.000000
# 5 0.000000 0.000000 0.000000 0.000000 0.027491 0.000000
# 6 0.000000 0.000000 0.000000 0.000000 0.000000 0.061140
#
#
# Mechanical properties :
#
#
# Convention : Reuss Voigt Hill
#
# Bulk Modulus (GPa) = 29.32813 55.04787 42.18800
# Shear Modulus (GPa) = 27.82549 36.00587 31.91568
#
# Velocity S-wave (km/s) = 3.55391 4.04270 3.80616
# Velocity P-wave (km/s) = 5.49115 6.83945 6.20205
#
# Compressibility (1/GPa) = 0.03409695
#
# Stress axis : x y z
#
# Youngs Moduli (GPa) = 43.36070 146.56192 92.04446
#
# Poissons Ratio (x) = 0.48340 -0.36004
# Poissons Ratio (y) = 0.14302 0.36263
# Poissons Ratio (z) = -0.16961 0.57742
#
# Static dielectric constant tensor:
#      x y z
#    x 3.558070 0.000000 0.000000 
#    y 0.000000 0.199920 0.000000 
#    z 0.000000 0.000000 1.843980 
# 
# From -- ./inp_files/4343.got.cif
#   From: 2010.05.17/outbox.cif.g08.bks.cpg/sg62_3_cif.got.tgz:4343.got - 2010.06.03 15:25:27.
