data_PCOD9467644
_publ_section_title
;
Structure prediction by ZEFSAII (Michael W. Deem and Ramdas Pophale) SiO2 
 PCOD9467644
Probable space group: P N M A
;
_chemical_formula_sum "Si O2"
_cell_formula_units_Z 40
_cell_length_a 8.287671
_cell_length_b 23.221199
_cell_length_c 9.458879
_cell_angle_alpha 90.000000
_cell_angle_beta 90.000000
_cell_angle_gamma 90.000000
_cell_volume 1820.358024
_symmetry_space_group_name_H-M "P N M A"
_symmetry_group_IT_number 62
_symmetry_cell_setting 'orthorhombic'
loop_
_space_group_symop_operation_xyz
x,y,z
1/2-x,-y,1/2+z
1/2+x,1/2-y,1/2-z
-x,1/2+y,-z
-x,-y,-z
1/2+x,y,1/2-z
1/2-x,1/2+y,1/2+z
x,1/2-y,z
loop_
_atom_site_type_symbol
_atom_site_label
_atom_site_fract_x
_atom_site_fract_y
_atom_site_fract_z
Si Si1 0.802493 0.378587 0.820484
Si Si2 0.519644 0.565523 0.050134
Si Si3 0.821111 0.750000 0.247084
Si Si4 0.589017 0.750000 0.028578
Si Si5 0.976629 0.318475 0.056602
Si Si6 0.167276 0.848962 0.657403
O O1 0.657283 0.410396 0.903342
O O2 0.739711 0.314164 0.784767
O O3 0.867803 0.414597 0.685145
O O4 0.949982 0.359864 0.922445
O O5 0.500000 0.500000 0.000000
O O6 0.606240 0.593105 0.912874
O O7 0.773734 0.750000 0.082471
O O8 0.991372 0.750000 0.326485
O O9 0.557868 0.696327 0.930292
O O10 0.938772 0.250000 0.034514
O O11 0.855974 0.340462 0.177929
O O12 0.150994 0.332186 0.120483
#
# Coordination Sequence:
#
# PCOD9467644 Si02
#       6
#     8   8   4   4   8   8
#     4  12  25  46  77 109 144 192 249 315 382 444
#     4  12  29  51  74 104 147 205 262 305 360 454
#     4  12  22  39  73 112 144 176 242 312 394 439
#     4  12  24  37  71 108 156 184 236 314 392 465
#     4  12  25  41  72 112 154 188 235 312 398 463
#     4  12  25  43  67 108 151 195 245 305 385 451
#
# _framework density 21.973700000000001
#
# number of rings (size 3 to 8) (size 9 to 14) (size 15 to 20)
#    0.000    0.000    7.000    2.400    2.800    3.200 
#    0.000    3.000    0.000    0.000    0.000    0.000 
#    0.000    0.000    0.000    0.000    0.000    0.000 
#
# Total GULP energy -223134.689141 kJ/mol
# GULP energy per Si atom -5578.367229 kJ/mol
# Density = 2.192369 g / cm^3
# Si number density = 21.973700 Si / 1000 Ang^3
#
#
#
# Elastic Constant Matrix: (Units=GPa)
#
#
# Indices 1 2 3 4 5 6 
#
# 1 82.9718 35.7259 22.5885 0.0000 0.0000 0.0000
# 2 35.7259 157.5058 45.0993 0.0000 0.0000 0.0000
# 3 22.5885 45.0993 86.6625 0.0000 0.0000 0.0000
# 4 0.0000 0.0000 0.0000 18.4320 0.0000 0.0000
# 5 0.0000 0.0000 0.0000 0.0000 37.8417 0.0000
# 6 0.0000 0.0000 0.0000 0.0000 0.0000 25.2879
#
#
#
# Elastic Compliance Matrix: (Units=1/GPa)
#
#
# Indices 1 2 3 4 5 6 
#
# 1 0.013737 -0.002457 -0.002302 0.000000 0.000000 0.000000
# 2 -0.002457 0.007900 -0.003471 0.000000 0.000000 0.000000
# 3 -0.002302 -0.003471 0.013945 0.000000 0.000000 0.000000
# 4 0.000000 0.000000 0.000000 0.054253 0.000000 0.000000
# 5 0.000000 0.000000 0.000000 0.000000 0.026426 0.000000
# 6 0.000000 0.000000 0.000000 0.000000 0.000000 0.039545
#
#
# Mechanical properties :
#
#
# Convention : Reuss Voigt Hill
#
# Bulk Modulus (GPa) = 52.29308 59.32973 55.81140
# Shear Modulus (GPa) = 27.98933 31.22740 29.60837
#
# Velocity S-wave (km/s) = 3.57286 3.77387 3.67474
# Velocity P-wave (km/s) = 6.39297 6.78590 6.59236
#
# Compressibility (1/GPa) = 0.01912299
#
# Stress axis : x y z
#
# Youngs Moduli (GPa) = 72.79719 126.58178 71.70879
#
# Poissons Ratio (x) = 0.31097 0.16508
# Poissons Ratio (y) = 0.17884 0.24889
# Poissons Ratio (z) = 0.16758 0.43935
#
# Static dielectric constant tensor:
#      x y z
#    x 1.897710 0.000000 0.000000 
#    y 0.000000 2.266740 0.000000 
#    z 0.000000 0.000000 1.847090 
# 
# From -- ./inp_files/4366.got.cif
#   From: 2010.05.17/outbox.cif.g08.bks.cpg/sg62_3_cif.got.tgz:4366.got - 2010.06.03 15:25:27.
