data_PCOD9467504
_publ_section_title
;
Structure prediction by ZEFSAII (Michael W. Deem and Ramdas Pophale) SiO2 
 PCOD9467504
Probable space group: P N M A
;
_chemical_formula_sum "Si O2"
_cell_formula_units_Z 40
_cell_length_a 24.296253
_cell_length_b 12.789525
_cell_length_c 6.838548
_cell_angle_alpha 90.000000
_cell_angle_beta 90.000000
_cell_angle_gamma 90.000000
_cell_volume 2124.993550
_symmetry_space_group_name_H-M "P N M A"
_symmetry_group_IT_number 62
_symmetry_cell_setting 'orthorhombic'
loop_
_space_group_symop_operation_xyz
x,y,z
1/2-x,-y,1/2+z
1/2+x,1/2-y,1/2-z
-x,1/2+y,-z
-x,-y,-z
1/2+x,y,1/2-z
1/2-x,1/2+y,1/2+z
x,1/2-y,z
loop_
_atom_site_type_symbol
_atom_site_label
_atom_site_fract_x
_atom_site_fract_y
_atom_site_fract_z
Si Si1 0.934911 0.127507 0.509223
Si Si2 0.364812 0.868052 0.465121
Si Si3 0.973940 0.541809 0.199168
Si Si4 0.829381 0.476963 0.699069
Si Si5 0.275626 0.628784 0.121467
O O1 0.934287 0.250000 0.463205
O O2 0.875809 0.089223 0.587963
O O3 0.980522 0.102435 0.674551
O O4 0.952043 0.055892 0.326169
O O5 0.362426 0.750000 0.542889
O O6 0.421940 0.887008 0.354019
O O7 0.316169 0.881385 0.307598
O O8 0.358209 0.950198 0.639086
O O9 0.000000 0.500000 0.000000
O O10 0.784658 0.405211 0.807427
O O11 0.797594 0.552117 0.546831
O O12 0.276386 0.750000 0.058011
#
# Coordination Sequence:
#
# PCOD9467504 Si02
#       5
#     8   8   8   8   8
#     4  11  25  42  66  97 131 168 209 261 320 377
#     4  11  23  41  65  90 124 169 209 257 317 374
#     4  11  23  45  64  93 131 165 214 260 308 381
#     4  12  22  44  64  93 130 160 212 265 311 381
#     4  11  24  41  64  92 124 165 209 259 316 372
#
# _framework density 18.823585999999999
#
# number of rings (size 3 to 8) (size 9 to 14) (size 15 to 20)
#    0.000    0.800    6.000    1.800    0.000    1.600 
#    0.000    2.000    0.000    0.000    0.000    0.000 
#    0.000    0.000    0.000    0.000    0.000    0.000 
#
# Total GULP energy -223677.668451 kJ/mol
# GULP energy per Si atom -5591.941711 kJ/mol
# Density = 1.878074 g / cm^3
# Si number density = 18.823586 Si / 1000 Ang^3
#
#
#
# Elastic Constant Matrix: (Units=GPa)
#
#
# Indices 1 2 3 4 5 6 
#
# 1 115.4494 26.6671 20.5429 0.0000 0.0000 0.0000
# 2 26.6671 83.0455 4.9711 0.0000 0.0000 0.0000
# 3 20.5429 4.9711 51.7425 0.0000 0.0000 0.0000
# 4 0.0000 0.0000 0.0000 17.8036 0.0000 0.0000
# 5 0.0000 0.0000 0.0000 0.0000 34.6859 0.0000
# 6 0.0000 0.0000 0.0000 0.0000 0.0000 21.7600
#
#
#
# Elastic Compliance Matrix: (Units=1/GPa)
#
#
# Indices 1 2 3 4 5 6 
#
# 1 0.010009 -0.002993 -0.003686 0.000000 0.000000 0.000000
# 2 -0.002993 0.013006 -0.000061 0.000000 0.000000 0.000000
# 3 -0.003686 -0.000061 0.020796 0.000000 0.000000 0.000000
# 4 0.000000 0.000000 0.000000 0.056168 0.000000 0.000000
# 5 0.000000 0.000000 0.000000 0.000000 0.028830 0.000000
# 6 0.000000 0.000000 0.000000 0.000000 0.000000 0.045956
#
#
# Mechanical properties :
#
#
# Convention : Reuss Voigt Hill
#
# Bulk Modulus (GPa) = 32.97078 39.39995 36.18536
# Shear Modulus (GPa) = 25.20703 28.05367 26.63035
#
# Velocity S-wave (km/s) = 3.66337 3.86469 3.76537
# Velocity P-wave (km/s) = 5.95377 6.39461 6.17812
#
# Compressibility (1/GPa) = 0.03032989
#
# Stress axis : x y z
#
# Youngs Moduli (GPa) = 99.90835 76.88469 48.08645
#
# Poissons Ratio (x) = 0.23015 0.17726
# Poissons Ratio (y) = 0.29907 0.00294
# Poissons Ratio (z) = 0.36829 0.00470
#
# Static dielectric constant tensor:
#      x y z
#    x 1.641150 0.000000 0.000000 
#    y 0.000000 1.617120 0.000000 
#    z 0.000000 0.000000 1.619700 
# 
# From -- ./inp_files/3033.got.cif
#   From: 2010.05.17/outbox.cif.g08.bks.cpg/sg62_2_cif.got.tgz:3033.got - 2010.06.03 15:25:27.
