data_PCOD9467557
_publ_section_title
;
Structure prediction by ZEFSAII (Michael W. Deem and Ramdas Pophale) SiO2 
 PCOD9467557
Probable space group: P N M A
;
_chemical_formula_sum "Si O2"
_cell_formula_units_Z 48
_cell_length_a 18.712751
_cell_length_b 8.739456
_cell_length_c 15.044356
_cell_angle_alpha 90.000000
_cell_angle_beta 90.000000
_cell_angle_gamma 90.000000
_cell_volume 2460.342908
_symmetry_space_group_name_H-M "P N M A"
_symmetry_group_IT_number 62
_symmetry_cell_setting 'orthorhombic'
loop_
_space_group_symop_operation_xyz
x,y,z
1/2-x,-y,1/2+z
1/2+x,1/2-y,1/2-z
-x,1/2+y,-z
-x,-y,-z
1/2+x,y,1/2-z
1/2-x,1/2+y,1/2+z
x,1/2-y,z
loop_
_atom_site_type_symbol
_atom_site_label
_atom_site_fract_x
_atom_site_fract_y
_atom_site_fract_z
Si Si1 0.433956 0.567372 0.055078
Si Si2 0.513048 0.567862 0.402601
Si Si3 0.780736 0.432419 0.495662
Si Si4 0.323406 0.431880 0.654040
Si Si5 0.915486 0.432195 0.252015
Si Si6 0.255595 0.431847 0.315330
O O1 0.433458 0.750000 0.048533
O O2 0.359738 0.500044 0.017949
O O3 0.437985 0.516571 0.157931
O O4 0.500000 0.500000 0.000000
O O5 0.500000 0.500000 0.500000
O O6 0.499893 0.750000 0.403530
O O7 0.595099 0.542020 0.374497
O O8 0.462034 0.488781 0.330781
O O9 0.783138 0.250000 0.486757
O O10 0.729004 0.501127 0.420677
O O11 0.751909 0.481673 0.591803
O O12 0.311602 0.250000 0.662083
O O13 0.304192 0.511853 0.746678
O O14 0.923496 0.250000 0.264136
O O15 0.832400 0.463207 0.229726
O O16 0.250282 0.250000 0.330597
#
# Coordination Sequence:
#
# PCOD9467557 Si02
#       6
#     8   8   8   8   8   8
#     4  12  26  45  69  96 133 175 222 273 332 396
#     4  11  25  43  66  97 133 174 221 270 329 392
#     4  12  25  43  68  98 133 172 220 272 331 394
#     4  11  24  43  66  96 132 170 220 273 325 392
#     4  11  24  44  69  99 135 173 220 271 331 396
#     4  11  24  42  67  97 130 171 219 270 329 395
#
# _framework density 19.509474999999998
#
# number of rings (size 3 to 8) (size 9 to 14) (size 15 to 20)
#    0.000    0.667    1.667    6.000    2.333    8.667 
#    0.000    0.000    0.000    0.000    0.000    0.000 
#    0.000    0.000    0.000    0.000    0.000    0.000 
#
# Total GULP energy -268793.096486 kJ/mol
# GULP energy per Si atom -5599.856177 kJ/mol
# Density = 1.946507 g / cm^3
# Si number density = 19.509475 Si / 1000 Ang^3
#
#
#
# Elastic Constant Matrix: (Units=GPa)
#
#
# Indices 1 2 3 4 5 6 
#
# 1 60.0974 49.2131 5.2754 0.0000 0.0000 0.0000
# 2 49.2131 82.0839 2.8861 0.0000 0.0000 0.0000
# 3 5.2754 2.8861 65.2792 0.0000 0.0000 0.0000
# 4 0.0000 0.0000 0.0000 43.2312 0.0000 0.0000
# 5 0.0000 0.0000 0.0000 0.0000 39.0486 0.0000
# 6 0.0000 0.0000 0.0000 0.0000 0.0000 33.2416
#
#
#
# Elastic Compliance Matrix: (Units=1/GPa)
#
#
# Indices 1 2 3 4 5 6 
#
# 1 0.032896 -0.019660 -0.001789 0.000000 0.000000 0.000000
# 2 -0.019660 0.023951 0.000530 0.000000 0.000000 0.000000
# 3 -0.001789 0.000530 0.015440 0.000000 0.000000 0.000000
# 4 0.000000 0.000000 0.000000 0.023131 0.000000 0.000000
# 5 0.000000 0.000000 0.000000 0.000000 0.025609 0.000000
# 6 0.000000 0.000000 0.000000 0.000000 0.000000 0.030083
#
#
# Mechanical properties :
#
#
# Convention : Reuss Voigt Hill
#
# Bulk Modulus (GPa) = 32.84220 35.80108 34.32164
# Shear Modulus (GPa) = 24.61872 33.11002 28.86437
#
# Velocity S-wave (km/s) = 3.55616 4.12409 3.85061
# Velocity P-wave (km/s) = 5.80794 6.40842 6.11556
#
# Compressibility (1/GPa) = 0.03044863
#
# Stress axis : x y z
#
# Youngs Moduli (GPa) = 30.39903 41.75211 64.76696
#
# Poissons Ratio (x) = 0.82083 0.11588
# Poissons Ratio (y) = 0.59763 -0.03432
# Poissons Ratio (z) = 0.05439 -0.02212
#
# Static dielectric constant tensor:
#      x y z
#    x 1.654640 0.000000 0.000000 
#    y 0.000000 1.656860 0.000000 
#    z 0.000000 0.000000 1.647190 
# 
# From -- ./inp_files/19596.got.cif
#   From: 2010.05.17/outbox.cif.g08.bks.cpg/sg62_10_cif.got.tgz:19596.got - 2010.06.03 15:25:27.
