data_PCOD9467667
_publ_section_title
;
Structure prediction by ZEFSAII (Michael W. Deem and Ramdas Pophale) SiO2 
 PCOD9467667
Probable space group: P N M A
;
_chemical_formula_sum "Si O2"
_cell_formula_units_Z 56
_cell_length_a 7.727917
_cell_length_b 21.513061
_cell_length_c 16.921912
_cell_angle_alpha 90.000000
_cell_angle_beta 90.000000
_cell_angle_gamma 90.000000
_cell_volume 2813.287327
_symmetry_space_group_name_H-M "P N M A"
_symmetry_group_IT_number 62
_symmetry_cell_setting 'orthorhombic'
loop_
_space_group_symop_operation_xyz
x,y,z
1/2-x,-y,1/2+z
1/2+x,1/2-y,1/2-z
-x,1/2+y,-z
-x,-y,-z
1/2+x,y,1/2-z
1/2-x,1/2+y,1/2+z
x,1/2-y,z
loop_
_atom_site_type_symbol
_atom_site_label
_atom_site_fract_x
_atom_site_fract_y
_atom_site_fract_z
Si Si1 0.224864 0.934010 0.991012
Si Si2 0.305767 0.372990 0.049511
Si Si3 0.464143 0.003831 0.719030
Si Si4 0.604617 0.497201 0.877250
Si Si5 0.941740 0.374102 0.145586
Si Si6 0.872438 0.931984 0.084048
Si Si7 0.437050 0.250000 0.120509
Si Si8 0.295572 0.250000 0.283248
O O1 0.377132 0.946979 0.053108
O O2 0.059160 0.918320 0.044984
O O3 0.210628 0.887331 0.918139
O O4 0.184835 0.001457 0.952644
O O5 0.398392 0.434446 0.084681
O O6 0.410989 0.311417 0.068639
O O7 0.122401 0.369754 0.097585
O O8 0.255714 0.383494 0.957577
O O9 0.280953 0.005300 0.674529
O O10 0.457914 0.013077 0.812621
O O11 0.583726 0.054994 0.675077
O O12 0.539940 0.934767 0.701300
O O13 0.896343 0.312495 0.192408
O O14 0.289184 0.250000 0.188620
O O15 0.615412 0.250000 0.169492
#
# Coordination Sequence:
#
# PCOD9467667 Si02
#       8
#     8   8   8   8   8   8   4   4
#     4   7  12  25  44  63  83 110 143 176 211 255
#     4   9  17  31  48  63  84 116 151 181 210 249
#     4   9  16  26  43  67  91 114 141 175 215 257
#     4   9  16  26  43  67  91 114 141 175 215 257
#     4   9  17  31  48  63  84 116 151 181 210 249
#     4   7  12  25  44  63  83 110 143 176 211 255
#     4  12  24  34  44  62  89 118 149 180 211 248
#     4  12  24  34  44  62  89 118 149 180 211 248
#
# _framework density 19.905539000000001
#
# number of rings (size 3 to 8) (size 9 to 14) (size 15 to 20)
#    0.000    3.143    0.000    5.571    0.000    3.429 
#    0.000    1.429    0.000    5.143    0.000    1.000 
#    0.000    0.000    0.000    0.000    0.000    0.000 
#
# Total GULP energy -312460.398408 kJ/mol
# GULP energy per Si atom -5579.649972 kJ/mol
# Density = 1.986023 g / cm^3
# Si number density = 19.905539 Si / 1000 Ang^3
#
#
#
# Elastic Constant Matrix: (Units=GPa)
#
#
# Indices 1 2 3 4 5 6 
#
# 1 73.9574 8.9023 19.9551 0.0000 0.0000 0.0000
# 2 8.9023 43.1224 16.7375 0.0000 0.0000 0.0000
# 3 19.9551 16.7375 64.0720 0.0000 0.0000 0.0000
# 4 0.0000 0.0000 0.0000 23.4507 0.0000 0.0000
# 5 0.0000 0.0000 0.0000 0.0000 34.5908 0.0000
# 6 0.0000 0.0000 0.0000 0.0000 0.0000 5.2353
#
#
#
# Elastic Compliance Matrix: (Units=1/GPa)
#
#
# Indices 1 2 3 4 5 6 
#
# 1 0.014839 -0.001413 -0.004252 0.000000 0.000000 0.000000
# 2 -0.001413 0.025941 -0.006337 0.000000 0.000000 0.000000
# 3 -0.004252 -0.006337 0.018587 0.000000 0.000000 0.000000
# 4 0.000000 0.000000 0.000000 0.042643 0.000000 0.000000
# 5 0.000000 0.000000 0.000000 0.000000 0.028909 0.000000
# 6 0.000000 0.000000 0.000000 0.000000 0.000000 0.191010
#
#
# Mechanical properties :
#
#
# Convention : Reuss Voigt Hill
#
# Bulk Modulus (GPa) = 28.27792 30.26019 29.26905
# Shear Modulus (GPa) = 13.97741 21.69249 17.83495
#
# Velocity S-wave (km/s) = 2.65276 3.30475 2.99654
# Velocity P-wave (km/s) = 4.86001 5.45864 5.16800
#
# Compressibility (1/GPa) = 0.03536328
#
# Stress axis : x y z
#
# Youngs Moduli (GPa) = 67.39114 38.54910 53.80067
#
# Poissons Ratio (x) = 0.05446 0.22878
# Poissons Ratio (y) = 0.09521 0.34091
# Poissons Ratio (z) = 0.28658 0.24427
#
# Static dielectric constant tensor:
#      x y z
#    x 1.846700 0.000000 0.000000 
#    y 0.000000 1.650580 0.000000 
#    z 0.000000 0.000000 1.718280 
# 
# From -- ./inp_files/22534.got.cif
#   From: 2010.05.17/outbox.cif.g08.bks.cpg/sg62_12_cif.got.tgz:22534.got - 2010.06.03 15:25:27.
