data_PCOD9467460
_publ_section_title
;
Structure prediction by ZEFSAII (Michael W. Deem and Ramdas Pophale) SiO2 
 PCOD9467460
Probable space group: P N M A
;
_chemical_formula_sum "Si O2"
_cell_formula_units_Z 56
_cell_length_a 15.863765
_cell_length_b 14.463482
_cell_length_c 11.859052
_cell_angle_alpha 90.000000
_cell_angle_beta 90.000000
_cell_angle_gamma 90.000000
_cell_volume 2721.003501
_symmetry_space_group_name_H-M "P N M A"
_symmetry_group_IT_number 62
_symmetry_cell_setting 'orthorhombic'
loop_
_space_group_symop_operation_xyz
x,y,z
1/2-x,-y,1/2+z
1/2+x,1/2-y,1/2-z
-x,1/2+y,-z
-x,-y,-z
1/2+x,y,1/2-z
1/2-x,1/2+y,1/2+z
x,1/2-y,z
loop_
_atom_site_type_symbol
_atom_site_label
_atom_site_fract_x
_atom_site_fract_y
_atom_site_fract_z
Si Si1 0.720340 0.859344 0.390186
Si Si2 0.874588 0.949590 0.518948
Si Si3 0.178865 0.144798 0.061956
Si Si4 0.940351 0.487878 0.892127
Si Si5 0.820367 0.353290 0.250782
Si Si6 0.520688 0.551120 0.824839
Si Si7 0.757053 0.545747 0.153409
O O1 0.710257 0.750000 0.391032
O O2 0.796346 0.890030 0.472902
O O3 0.631048 0.910354 0.413229
O O4 0.747835 0.897395 0.267535
O O5 0.943014 0.907172 0.603948
O O6 0.923886 0.991761 0.413018
O O7 0.832828 0.030488 0.593861
O O8 0.152383 0.250000 0.052033
O O9 0.189163 0.098818 0.939890
O O10 0.265036 0.141365 0.134285
O O11 0.111967 0.082287 0.125759
O O12 0.992519 0.482994 0.776436
O O13 0.000000 0.500000 0.000000
O O14 0.805990 0.250000 0.202549
O O15 0.918041 0.370572 0.276362
O O16 0.791810 0.443412 0.181207
#
# Coordination Sequence:
#
# PCOD9467460 Si02
#       7
#     8   8   8   8   8   8   8
#     4  12  26  45  70 103 138 188 240 284 351 431
#     4  11  23  41  74  98 138 187 225 291 349 413
#     4  11  23  43  70  95 128 183 230 270 344 423
#     4  12  25  44  70  98 143 184 223 299 350 409
#     4  11  23  40  70 102 135 180 228 280 344 415
#     4  11  22  43  69 101 140 181 232 285 360 406
#     4  12  19  46  66 100 135 182 229 282 343 408
#
# _framework density 20.580642000000001
#
# number of rings (size 3 to 8) (size 9 to 14) (size 15 to 20)
#    0.000    0.571    7.143    1.286    0.000    2.286 
#    0.000    0.714    0.000    0.000    0.000    0.000 
#    0.000    0.000    0.000    0.000    0.000    0.000 
#
# Total GULP energy -312844.095300 kJ/mol
# GULP energy per Si atom -5586.501702 kJ/mol
# Density = 2.053380 g / cm^3
# Si number density = 20.580642 Si / 1000 Ang^3
#
#
#
# Elastic Constant Matrix: (Units=GPa)
#
#
# Indices 1 2 3 4 5 6 
#
# 1 104.8229 42.4171 45.8248 0.0000 0.0000 0.0000
# 2 42.4171 143.3895 40.8958 0.0000 0.0000 0.0000
# 3 45.8248 40.8958 99.2842 0.0000 0.0000 0.0000
# 4 0.0000 0.0000 0.0000 18.2909 0.0000 0.0000
# 5 0.0000 0.0000 0.0000 0.0000 47.5086 0.0000
# 6 0.0000 0.0000 0.0000 0.0000 0.0000 6.7240
#
#
#
# Elastic Compliance Matrix: (Units=1/GPa)
#
#
# Indices 1 2 3 4 5 6 
#
# 1 0.012611 -0.002346 -0.004854 0.000000 0.000000 0.000000
# 2 -0.002346 0.008339 -0.002352 0.000000 0.000000 0.000000
# 3 -0.004854 -0.002352 0.013281 0.000000 0.000000 0.000000
# 4 0.000000 0.000000 0.000000 0.054672 0.000000 0.000000
# 5 0.000000 0.000000 0.000000 0.000000 0.021049 0.000000
# 6 0.000000 0.000000 0.000000 0.000000 0.000000 0.148721
#
#
# Mechanical properties :
#
#
# Convention : Reuss Voigt Hill
#
# Bulk Modulus (GPa) = 66.10847 67.30800 66.70824
# Shear Modulus (GPa) = 17.67906 29.06197 23.37051
#
# Velocity S-wave (km/s) = 2.93407 3.76187 3.37346
# Velocity P-wave (km/s) = 6.60831 7.18641 6.90341
#
# Compressibility (1/GPa) = 0.01512665
#
# Stress axis : x y z
#
# Youngs Moduli (GPa) = 79.29289 119.92073 75.29297
#
# Poissons Ratio (x) = 0.28135 0.36551
# Poissons Ratio (y) = 0.18603 0.17709
# Poissons Ratio (z) = 0.38492 0.28205
#
# Static dielectric constant tensor:
#      x y z
#    x 1.784820 0.000000 0.000000 
#    y 0.000000 1.699440 0.000000 
#    z 0.000000 0.000000 1.767190 
# 
# From -- ./inp_files/13358.got.cif
#   From: 2010.05.17/outbox.cif.g08.bks.cpg/sg62_7_cif.got.tgz:13358.got - 2010.06.03 15:25:27.
