data_PCOD9467547
_publ_section_title
;
Structure prediction by ZEFSAII (Michael W. Deem and Ramdas Pophale) SiO2 
 PCOD9467547
Probable space group: P N M A
;
_chemical_formula_sum "Si O2"
_cell_formula_units_Z 48
_cell_length_a 9.373688
_cell_length_b 18.524311
_cell_length_c 13.202872
_cell_angle_alpha 90.000000
_cell_angle_beta 90.000000
_cell_angle_gamma 90.000000
_cell_volume 2292.561372
_symmetry_space_group_name_H-M "P N M A"
_symmetry_group_IT_number 62
_symmetry_cell_setting 'orthorhombic'
loop_
_space_group_symop_operation_xyz
x,y,z
1/2-x,-y,1/2+z
1/2+x,1/2-y,1/2-z
-x,1/2+y,-z
-x,-y,-z
1/2+x,y,1/2-z
1/2-x,1/2+y,1/2+z
x,1/2-y,z
loop_
_atom_site_type_symbol
_atom_site_label
_atom_site_fract_x
_atom_site_fract_y
_atom_site_fract_z
Si Si1 0.408879 0.672160 0.678843
Si Si2 0.992120 0.455314 0.665542
Si Si3 0.719022 0.022428 0.556239
Si Si4 0.156016 0.583783 0.757942
Si Si5 0.450013 0.669703 0.439279
Si Si6 0.804493 0.419111 0.866033
O O1 0.358240 0.750000 0.715050
O O2 0.302749 0.609254 0.710775
O O3 0.562890 0.653706 0.721468
O O4 0.424831 0.673535 0.558801
O O5 0.064043 0.532446 0.686202
O O6 0.135404 0.407404 0.653029
O O7 0.885582 0.458663 0.570767
O O8 0.889752 0.436811 0.761799
O O9 0.637040 0.096232 0.585808
O O10 0.681005 0.962075 0.640210
O O11 0.682738 0.984486 0.448999
O O12 0.412389 0.750000 0.397592
O O13 0.612234 0.649104 0.412155
#
# Coordination Sequence:
#
# PCOD9467547 Si02
#       6
#     8   8   8   8   8   8
#     4  11  24  40  63  97 138 176 213 273 343 405
#     4  12  23  40  68  99 129 166 235 275 329 383
#     4  12  23  41  71  99 131 177 226 280 328 405
#     4  12  20  39  67  97 129 174 219 269 329 406
#     4  11  24  43  65  95 133 179 224 280 347 400
#     4  12  23  42  67  98 130 173 225 278 329 403
#
# _framework density 20.937280999999999
#
# number of rings (size 3 to 8) (size 9 to 14) (size 15 to 20)
#    0.000    0.333    6.667    3.500    0.000    0.000 
#    0.000    4.167    0.000    0.000    0.000    0.000 
#    0.000    0.000    0.000    0.000    0.000    0.000 
#
# Total GULP energy -267948.061581 kJ/mol
# GULP energy per Si atom -5582.251283 kJ/mol
# Density = 2.088963 g / cm^3
# Si number density = 20.937281 Si / 1000 Ang^3
#
#
#
# Elastic Constant Matrix: (Units=GPa)
#
#
# Indices 1 2 3 4 5 6 
#
# 1 129.4013 27.7083 25.5781 0.0000 0.0000 0.0000
# 2 27.7083 81.8987 27.8376 0.0000 0.0000 0.0000
# 3 25.5781 27.8376 65.0522 0.0000 0.0000 0.0000
# 4 0.0000 0.0000 0.0000 4.2229 0.0000 0.0000
# 5 0.0000 0.0000 0.0000 0.0000 33.3092 0.0000
# 6 0.0000 0.0000 0.0000 0.0000 0.0000 -2.8511
#
#
#
# Elastic Compliance Matrix: (Units=1/GPa)
#
#
# Indices 1 2 3 4 5 6 
#
# 1 0.008671 -0.002077 -0.002521 0.000000 0.000000 0.000000
# 2 -0.002077 0.014786 -0.005511 0.000000 0.000000 0.000000
# 3 -0.002521 -0.005511 0.018722 0.000000 0.000000 0.000000
# 4 0.000000 0.000000 0.000000 0.236802 0.000000 0.000000
# 5 0.000000 0.000000 0.000000 0.000000 0.030022 0.000000
# 6 0.000000 0.000000 0.000000 0.000000 0.000000 -0.350737
#
#
# Mechanical properties :
#
#
# Convention : Reuss Voigt Hill
#
# Bulk Modulus (GPa) = 45.53301 48.73336 47.13318
# Shear Modulus (GPa) = -352.16091 19.95141 -166.10475
#
# Velocity S-wave (km/s) = -12.98319 3.09028 -8.91665
# Velocity P-wave (km/s) = 14.24627 6.00496 9.13501
#
# Compressibility (1/GPa) = 0.02196209
#
# Stress axis : x y z
#
# Youngs Moduli (GPa) = 115.32926 67.63179 53.41442
#
# Poissons Ratio (x) = 0.14046 0.13464
# Poissons Ratio (y) = 0.23952 0.29435
# Poissons Ratio (z) = 0.29070 0.37270
#
# Static dielectric constant tensor:
#      x y z
#    x 1.815850 0.000000 0.000000 
#    y 0.000000 1.783670 0.000000 
#    z 0.000000 0.000000 1.786110 
# 
# From -- ./inp_files/16961.got.cif
#   From: 2010.05.17/outbox.cif.g08.bks.cpg/sg62_9_cif.got.tgz:16961.got - 2010.06.03 15:25:27.
