data_PCOD9467933
_publ_section_title
;
Structure prediction by ZEFSAII (Michael W. Deem and Ramdas Pophale) SiO2 
 PCOD9467933
Probable space group: P N M A
;
_chemical_formula_sum "Si O2"
_cell_formula_units_Z 64
_cell_length_a 15.000000
_cell_length_b 9.000000
_cell_length_c 24.000000
_cell_angle_alpha 90.000000
_cell_angle_beta 90.000000
_cell_angle_gamma 90.000000
_cell_volume 3240.000000
_symmetry_space_group_name_H-M "P N M A"
_symmetry_group_IT_number 62
_symmetry_cell_setting 'orthorhombic'
loop_
_space_group_symop_operation_xyz
x,y,z
1/2-x,-y,1/2+z
1/2+x,1/2-y,1/2-z
-x,1/2+y,-z
-x,-y,-z
1/2+x,y,1/2-z
1/2-x,1/2+y,1/2+z
x,1/2-y,z
loop_
_atom_site_type_symbol
_atom_site_label
_atom_site_fract_x
_atom_site_fract_y
_atom_site_fract_z
Si Si1 0.406053 0.572276 0.133844
Si Si2 0.854615 0.573626 0.491434
Si Si3 0.089422 0.423640 0.871241
Si Si4 0.407152 0.926449 0.614652
Si Si5 0.748358 0.927741 0.802997
Si Si6 0.402152 0.073163 0.898232
Si Si7 0.755757 0.573357 0.677874
Si Si8 0.332487 0.923734 0.493845
O O1 0.396030 0.750000 0.136994
O O2 0.375793 0.525736 0.071559
O O3 0.344925 0.498196 0.179736
O O4 0.509964 0.535255 0.136791
O O5 0.868320 0.750000 0.495279
O O6 0.909389 0.492659 0.539851
O O7 0.752778 0.529086 0.503633
O O8 0.100481 0.250000 0.858018
O O9 0.155855 0.521995 0.834962
O O10 0.115774 0.444727 0.936275
O O11 0.989460 0.478398 0.864625
O O12 0.423659 0.750000 0.622565
O O13 0.319801 0.967873 0.649764
O O14 0.390113 0.950941 0.549092
O O15 0.739210 0.750000 0.803250
O O16 0.778458 0.971135 0.741129
O O17 0.394512 0.250000 0.902557
O O18 0.317683 0.006876 0.866931
O O19 0.764995 0.750000 0.671911
O O20 0.302832 0.750000 0.495996
#
# Coordination Sequence:
#
# PCOD9467933 Si02
#       8
#     8   8   8   8   8   8   8   8
#     4  10  23  40  61  92 125 156 196 245 298 358
#     4  11  21  35  60  92 123 158 196 241 296 356
#     4  11  23  38  60  91 122 158 197 240 299 359
#     4  10  21  39  62  89 121 158 196 243 296 352
#     4  10  23  42  64  87 116 157 204 252 298 347
#     4  11  23  40  61  88 123 160 198 244 299 357
#     4  11  24  42  62  87 117 155 205 254 298 349
#     4  10  20  36  60  88 122 157 192 239 298 356
#
# _framework density 19.753086
#
# number of rings (size 3 to 8) (size 9 to 14) (size 15 to 20)
#    0.000    1.500    2.500    2.250    0.000    5.000 
#    0.000    3.750    0.000    0.000    0.000    0.000 
#    0.000    0.000    0.000    0.000    0.000    0.000 
#
# Total GULP energy -357593.979833 kJ/mol
# GULP energy per Si atom -5587.405935 kJ/mol
# Density = 1.970813 g / cm^3
# Si number density = 19.753086 Si / 1000 Ang^3
#
#
#
# Elastic Constant Matrix: (Units=GPa)
#
#
# Indices 1 2 3 4 5 6 
#
# 1 55.0457 14.0898 -4.7125 0.0000 0.0000 0.0000
# 2 14.0898 24.6509 10.2954 0.0000 0.0000 0.0000
# 3 -4.7125 10.2954 43.5281 0.0000 0.0000 0.0000
# 4 0.0000 0.0000 0.0000 17.2437 0.0000 0.0000
# 5 0.0000 0.0000 0.0000 0.0000 9.5484 0.0000
# 6 0.0000 0.0000 0.0000 0.0000 0.0000 25.1486
#
#
#
# Elastic Compliance Matrix: (Units=1/GPa)
#
#
# Indices 1 2 3 4 5 6 
#
# 1 0.022660 -0.015509 0.006121 0.000000 0.000000 0.000000
# 2 -0.015509 0.055627 -0.014836 0.000000 0.000000 0.000000
# 3 0.006121 -0.014836 0.027145 0.000000 0.000000 0.000000
# 4 0.000000 0.000000 0.000000 0.057992 0.000000 0.000000
# 5 0.000000 0.000000 0.000000 0.000000 0.104729 0.000000
# 6 0.000000 0.000000 0.000000 0.000000 0.000000 0.039764
#
#
# Mechanical properties :
#
#
# Convention : Reuss Voigt Hill
#
# Bulk Modulus (GPa) = 17.54806 18.06334 17.80570
# Shear Modulus (GPa) = 13.32053 17.29161 15.30607
#
# Velocity S-wave (km/s) = 2.59965 2.96190 2.78667
# Velocity P-wave (km/s) = 4.23248 4.56745 4.40315
#
# Compressibility (1/GPa) = 0.05698635
#
# Stress axis : x y z
#
# Youngs Moduli (GPa) = 44.12977 17.97683 36.83856
#
# Poissons Ratio (x) = 0.27880 -0.22550
# Poissons Ratio (y) = 0.68440 0.54654
# Poissons Ratio (z) = -0.27014 0.26671
#
# Static dielectric constant tensor:
#      x y z
#    x 1.688340 0.000000 0.000000 
#    y 0.000000 1.654330 0.000000 
#    z 0.000000 0.000000 1.687290 
# 
# From -- ./inp_files/29724.got.cif
#   From: 2010.05.17/outbox.ucp.g08.bks.cvg/sg62_15_cif.got.tgz:29724.got - 2010.06.11 16:29:25.
