data_PCOD9467976
_publ_section_title
;
Structure prediction by ZEFSAII (Michael W. Deem and Ramdas Pophale) SiO2 
 PCOD9467976
Probable space group: P N M A
;
_chemical_formula_sum "Si O2"
_cell_formula_units_Z 56
_cell_length_a 15.000000
_cell_length_b 15.000000
_cell_length_c 12.000000
_cell_angle_alpha 90.000000
_cell_angle_beta 90.000000
_cell_angle_gamma 90.000000
_cell_volume 2700.000000
_symmetry_space_group_name_H-M "P N M A"
_symmetry_group_IT_number 62
_symmetry_cell_setting 'orthorhombic'
loop_
_space_group_symop_operation_xyz
x,y,z
1/2-x,-y,1/2+z
1/2+x,1/2-y,1/2-z
-x,1/2+y,-z
-x,-y,-z
1/2+x,y,1/2-z
1/2-x,1/2+y,1/2+z
x,1/2-y,z
loop_
_atom_site_type_symbol
_atom_site_label
_atom_site_fract_x
_atom_site_fract_y
_atom_site_fract_z
Si Si1 0.476742 0.352290 0.219502
Si Si2 0.978336 0.104758 0.028400
Si Si3 0.136751 0.845812 0.512866
Si Si4 0.448275 0.038641 0.829169
Si Si5 0.177007 0.579964 0.116457
Si Si6 0.636654 0.141048 0.782290
Si Si7 0.169465 0.101935 0.972641
O O1 0.511564 0.250000 0.217080
O O2 0.453972 0.380851 0.344266
O O3 0.391042 0.354261 0.140408
O O4 0.538193 0.432102 0.173460
O O5 0.896978 0.136673 0.952239
O O6 0.076253 0.144877 0.011053
O O7 0.000000 0.000000 0.000000
O O8 0.100240 0.750000 0.471257
O O9 0.094302 0.924811 0.442055
O O10 0.241551 0.845767 0.498915
O O11 0.377637 0.060106 0.730411
O O12 0.543470 0.090797 0.814002
O O13 0.275203 0.618614 0.142737
O O14 0.184068 0.491310 0.039106
O O15 0.625902 0.250000 0.777359
O O16 0.660189 0.100109 0.660806
#
# Coordination Sequence:
#
# PCOD9467976 Si02
#       7
#     8   8   8   8   8   8   8
#     4  11  24  43  68 101 135 183 239 287 349 422
#     4  10  20  43  68  97 139 184 231 282 350 413
#     4  11  25  43  68 102 140 185 234 281 348 420
#     4  12  22  47  69  96 142 187 223 296 354 410
#     4  11  23  42  68 101 137 180 233 287 355 406
#     4  12  26  42  69 107 141 184 244 291 347 423
#     4  11  21  40  67 100 135 179 232 279 339 418
#
# _framework density 20.740741
#
# number of rings (size 3 to 8) (size 9 to 14) (size 15 to 20)
#    0.000    0.857    5.714    3.000    0.000    2.286 
#    0.000    1.429    0.000    1.714    0.000    0.000 
#    0.000    0.000    0.000    0.000    0.000    0.000 
#
# Total GULP energy -312474.931946 kJ/mol
# GULP energy per Si atom -5579.909499 kJ/mol
# Density = 2.069353 g / cm^3
# Si number density = 20.740741 Si / 1000 Ang^3
#
#
#
# Elastic Constant Matrix: (Units=GPa)
#
#
# Indices 1 2 3 4 5 6 
#
# 1 124.2311 44.0998 47.6196 0.0000 0.0000 0.0000
# 2 44.0998 124.0611 39.6510 0.0000 0.0000 0.0000
# 3 47.6196 39.6510 119.6045 0.0000 0.0000 0.0000
# 4 0.0000 0.0000 0.0000 69.3655 0.0000 0.0000
# 5 0.0000 0.0000 0.0000 0.0000 24.5444 0.0000
# 6 0.0000 0.0000 0.0000 0.0000 0.0000 14.9619
#
#
#
# Elastic Compliance Matrix: (Units=1/GPa)
#
#
# Indices 1 2 3 4 5 6 
#
# 1 0.010199 -0.002604 -0.003198 0.000000 0.000000 0.000000
# 2 -0.002604 0.009680 -0.002173 0.000000 0.000000 0.000000
# 3 -0.003198 -0.002173 0.010354 0.000000 0.000000 0.000000
# 4 0.000000 0.000000 0.000000 0.014416 0.000000 0.000000
# 5 0.000000 0.000000 0.000000 0.000000 0.040742 0.000000
# 6 0.000000 0.000000 0.000000 0.000000 0.000000 0.066836
#
#
# Mechanical properties :
#
#
# Convention : Reuss Voigt Hill
#
# Bulk Modulus (GPa) = 69.99690 70.07085 70.03387
# Shear Modulus (GPa) = 28.91187 37.54279 33.22733
#
# Velocity S-wave (km/s) = 3.73763 4.25914 4.00688
# Velocity P-wave (km/s) = 7.24212 7.61870 7.43279
#
# Compressibility (1/GPa) = 0.01428635
#
# Stress axis : x y z
#
# Youngs Moduli (GPa) = 98.04444 103.30130 96.57823
#
# Poissons Ratio (x) = 0.26895 0.30883
# Poissons Ratio (y) = 0.25526 0.20983
# Poissons Ratio (z) = 0.31352 0.22444
#
# Static dielectric constant tensor:
#      x y z
#    x 1.752380 0.000000 0.000000 
#    y 0.000000 1.820400 0.000000 
#    z 0.000000 0.000000 1.748790 
# 
# From -- ./inp_files/13389.got.cif
#   From: 2010.05.17/outbox.ucp.g08.bks.cvg/sg62_7_cif.got.tgz:13389.got - 2010.06.11 16:29:25.
