data_PCOD9467638
_publ_section_title
;
Structure prediction by ZEFSAII (Michael W. Deem and Ramdas Pophale) SiO2 
 PCOD9467638
Probable space group: P N M A
;
_chemical_formula_sum "Si O2"
_cell_formula_units_Z 40
_cell_length_a 25.619832
_cell_length_b 9.155294
_cell_length_c 7.531839
_cell_angle_alpha 90.000000
_cell_angle_beta 90.000000
_cell_angle_gamma 90.000000
_cell_volume 1766.646270
_symmetry_space_group_name_H-M "P N M A"
_symmetry_group_IT_number 62
_symmetry_cell_setting 'orthorhombic'
loop_
_space_group_symop_operation_xyz
x,y,z
1/2-x,-y,1/2+z
1/2+x,1/2-y,1/2-z
-x,1/2+y,-z
-x,-y,-z
1/2+x,y,1/2-z
1/2-x,1/2+y,1/2+z
x,1/2-y,z
loop_
_atom_site_type_symbol
_atom_site_label
_atom_site_fract_x
_atom_site_fract_y
_atom_site_fract_z
Si Si1 0.062241 0.009707 0.223666
Si Si2 0.876924 0.250000 0.950049
Si Si3 0.174243 0.250000 0.771288
Si Si4 0.568927 0.750000 0.826392
Si Si5 0.993321 0.750000 0.382534
Si Si6 0.295806 0.250000 0.814693
Si Si7 0.361855 0.997745 0.005588
Si Si8 0.071098 0.250000 0.949401
O O1 0.019386 0.902369 0.310679
O O2 0.099127 0.085442 0.370278
O O3 0.102106 0.892628 0.144512
O O4 0.048253 0.114291 0.060771
O O5 0.911080 0.250000 0.127545
O O6 0.815916 0.250000 0.892787
O O7 0.234074 0.250000 0.828615
O O8 0.163651 0.391744 0.648573
O O9 0.133917 0.250000 0.937430
O O10 0.509955 0.750000 0.908022
O O11 0.597439 0.608644 0.904000
O O12 0.942310 0.750000 0.260165
O O13 0.319958 0.105976 0.911649
#
# Coordination Sequence:
#
# PCOD9467638 Si02
#       8
#     8   4   4   4   4   4   8   4
#     4   9  19  37  59  78 109 153 193 227 278 342
#     4   9  17  36  60  81 102 147 196 226 268 345
#     4  12  24  36  57  92 118 140 187 246 287 320
#     4   9  17  36  61  82 112 149 190 231 275 339
#     4   9  20  38  57  81 115 157 190 226 289 349
#     4   9  22  40  59  80 112 155 187 217 283 361
#     4   9  20  39  57  79 114 150 182 232 288 333
#     4  12  22  34  54  88 119 144 190 246 282 328
#
# _framework density 22.641770999999999
#
# number of rings (size 3 to 8) (size 9 to 14) (size 15 to 20)
#    0.000    2.400    0.000    4.800    0.000    4.800 
#    0.000   16.000    0.000    0.000    0.000    0.000 
#    0.000    0.000    0.000    0.000    0.000    0.000 
#
# Total GULP energy -222851.269163 kJ/mol
# GULP energy per Si atom -5571.281729 kJ/mol
# Density = 2.259024 g / cm^3
# Si number density = 22.641771 Si / 1000 Ang^3
#
#
#
# Elastic Constant Matrix: (Units=GPa)
#
#
# Indices 1 2 3 4 5 6 
#
# 1 84.9580 15.6574 1.2949 0.0000 0.0000 0.0000
# 2 15.6574 119.7284 16.3172 0.0000 0.0000 0.0000
# 3 1.2949 16.3172 73.3142 0.0000 0.0000 0.0000
# 4 0.0000 0.0000 0.0000 44.8983 0.0000 0.0000
# 5 0.0000 0.0000 0.0000 0.0000 28.9259 0.0000
# 6 0.0000 0.0000 0.0000 0.0000 0.0000 267.5021
#
#
#
# Elastic Compliance Matrix: (Units=1/GPa)
#
#
# Indices 1 2 3 4 5 6 
#
# 1 0.012063 -0.001597 0.000142 0.000000 0.000000 0.000000
# 2 -0.001597 0.008825 -0.001936 0.000000 0.000000 0.000000
# 3 0.000142 -0.001936 0.014068 0.000000 0.000000 0.000000
# 4 0.000000 0.000000 0.000000 0.022273 0.000000 0.000000
# 5 0.000000 0.000000 0.000000 0.000000 0.034571 0.000000
# 6 0.000000 0.000000 0.000000 0.000000 0.000000 0.003738
#
#
# Mechanical properties :
#
#
# Convention : Reuss Voigt Hill
#
# Bulk Modulus (GPa) = 35.49251 38.28217 36.88734
# Shear Modulus (GPa) = 44.75860 84.58065 64.66962
#
# Velocity S-wave (km/s) = 4.45096 6.11859 5.35015
# Velocity P-wave (km/s) = 6.49034 8.17683 7.38191
#
# Compressibility (1/GPa) = 0.02817495
#
# Stress axis : x y z
#
# Youngs Moduli (GPa) = 82.90048 113.31567 71.08189
#
# Poissons Ratio (x) = 0.18095 -0.01012
# Poissons Ratio (y) = 0.13238 0.13761
# Poissons Ratio (z) = -0.01180 0.21937
#
# Static dielectric constant tensor:
#      x y z
#    x 1.848700 0.000000 0.000000 
#    y 0.000000 1.821090 0.000000 
#    z 0.000000 0.000000 2.029660 
# 
# From -- ./inp_files/9176.got.cif
#   From: 2010.05.17/outbox.cif.g08.bks.cpg/sg62_5_cif.got.tgz:9176.got - 2010.06.03 15:25:27.
