data_PCOD9467413
_publ_section_title
;
Structure prediction by ZEFSAII (Michael W. Deem and Ramdas Pophale) SiO2 
 PCOD9467413
Probable space group: P N M A
;
_chemical_formula_sum "Si O2"
_cell_formula_units_Z 48
_cell_length_a 12.613951
_cell_length_b 20.995700
_cell_length_c 9.447039
_cell_angle_alpha 90.000000
_cell_angle_beta 90.000000
_cell_angle_gamma 90.000000
_cell_volume 2501.941821
_symmetry_space_group_name_H-M "P N M A"
_symmetry_group_IT_number 62
_symmetry_cell_setting 'orthorhombic'
loop_
_space_group_symop_operation_xyz
x,y,z
1/2-x,-y,1/2+z
1/2+x,1/2-y,1/2-z
-x,1/2+y,-z
-x,-y,-z
1/2+x,y,1/2-z
1/2-x,1/2+y,1/2+z
x,1/2-y,z
loop_
_atom_site_type_symbol
_atom_site_label
_atom_site_fract_x
_atom_site_fract_y
_atom_site_fract_z
Si Si1 0.417639 0.394269 0.213788
Si Si2 0.459495 0.113898 0.746987
Si Si3 0.164037 0.530453 0.461162
Si Si4 0.673417 0.674239 0.509290
Si Si5 0.593754 0.115014 0.009218
Si Si6 0.093082 0.017757 0.894549
O O1 0.375046 0.351354 0.341738
O O2 0.532026 0.373072 0.156128
O O3 0.419507 0.464644 0.276888
O O4 0.350279 0.411315 0.072592
O O5 0.384588 0.058118 0.814345
O O6 0.392785 0.151496 0.629317
O O7 0.561049 0.085432 0.666150
O O8 0.516672 0.142112 0.886243
O O9 0.107901 0.462645 0.499049
O O10 0.288257 0.515813 0.450544
O O11 0.676693 0.750000 0.511320
O O12 0.791113 0.645152 0.500567
O O13 0.000000 0.000000 0.000000
#
# Coordination Sequence:
#
# PCOD9467413 Si02
#       6
#     8   8   8   8   8   8
#     4  11  23  39  65  97 132 158 205 265 324 381
#     4  11  22  41  63  96 126 160 208 265 322 381
#     4  11  22  37  65 104 131 151 202 265 339 386
#     4  12  28  44  62  88 127 181 225 253 304 385
#     4  11  22  42  68  97 128 162 205 269 330 381
#     4  12  21  31  62  99 127 158 191 254 329 380
#
# _framework density 19.185099000000001
#
# number of rings (size 3 to 8) (size 9 to 14) (size 15 to 20)
#    0.000    0.667    6.667    2.000    4.667    1.333 
#    0.000    2.500    0.000    0.000    0.000    0.000 
#    0.000    0.000    0.000    0.000    0.000    0.000 
#
# Total GULP energy -267450.042192 kJ/mol
# GULP energy per Si atom -5571.875879 kJ/mol
# Density = 1.914143 g / cm^3
# Si number density = 19.185099 Si / 1000 Ang^3
#
#
#
# Elastic Constant Matrix: (Units=GPa)
#
#
# Indices 1 2 3 4 5 6 
#
# 1 127.2375 41.7185 59.5132 0.0000 0.0000 0.0000
# 2 41.7185 96.6348 62.1247 0.0000 0.0000 0.0000
# 3 59.5132 62.1247 94.2946 0.0000 0.0000 0.0000
# 4 0.0000 0.0000 0.0000 8.6902 0.0000 0.0000
# 5 0.0000 0.0000 0.0000 0.0000 28.3022 0.0000
# 6 0.0000 0.0000 0.0000 0.0000 0.0000 -2.5571
#
#
#
# Elastic Compliance Matrix: (Units=1/GPa)
#
#
# Indices 1 2 3 4 5 6 
#
# 1 0.011165 -0.000503 -0.006716 0.000000 0.000000 0.000000
# 2 -0.000503 0.017974 -0.011525 0.000000 0.000000 0.000000
# 3 -0.006716 -0.011525 0.022436 0.000000 0.000000 0.000000
# 4 0.000000 0.000000 0.000000 0.115072 0.000000 0.000000
# 5 0.000000 0.000000 0.000000 0.000000 0.035333 0.000000
# 6 0.000000 0.000000 0.000000 0.000000 0.000000 -0.391064
#
#
# Mechanical properties :
#
#
# Convention : Reuss Voigt Hill
#
# Bulk Modulus (GPa) = 70.97386 71.65331 71.31359
# Shear Modulus (GPa) = -34.03688 17.20776 -8.41456
#
# Velocity S-wave (km/s) = -4.21661 2.99813 -2.09655
# Velocity P-wave (km/s) = 3.65625 7.02955 5.60280
#
# Compressibility (1/GPa) = 0.01408969
#
# Stress axis : x y z
#
# Youngs Moduli (GPa) = 89.56325 55.63465 44.57035
#
# Poissons Ratio (x) = 0.02798 0.29931
# Poissons Ratio (y) = 0.04504 0.51366
# Poissons Ratio (z) = 0.60147 0.64118
#
# Static dielectric constant tensor:
#      x y z
#    x 1.666670 0.000000 0.000000 
#    y 0.000000 1.589080 0.000000 
#    z 0.000000 0.000000 1.984040 
# 
# From -- ./inp_files/5313.got.cif
#   From: 2010.05.17/outbox.cif.g08.bks.cpg/sg62_3_cif.got.tgz:5313.got - 2010.06.03 15:25:27.
