data_PCOD9467400
_publ_section_title
;
Structure prediction by ZEFSAII (Michael W. Deem and Ramdas Pophale) SiO2 
 PCOD9467400
Probable space group: P N M A
;
_chemical_formula_sum "Si O2"
_cell_formula_units_Z 40
_cell_length_a 24.611871
_cell_length_b 7.807645
_cell_length_c 8.237632
_cell_angle_alpha 90.000000
_cell_angle_beta 90.000000
_cell_angle_gamma 90.000000
_cell_volume 1582.949556
_symmetry_space_group_name_H-M "P N M A"
_symmetry_group_IT_number 62
_symmetry_cell_setting 'orthorhombic'
loop_
_space_group_symop_operation_xyz
x,y,z
1/2-x,-y,1/2+z
1/2+x,1/2-y,1/2-z
-x,1/2+y,-z
-x,-y,-z
1/2+x,y,1/2-z
1/2-x,1/2+y,1/2+z
x,1/2-y,z
loop_
_atom_site_type_symbol
_atom_site_label
_atom_site_fract_x
_atom_site_fract_y
_atom_site_fract_z
Si Si1 0.867247 0.045596 0.837425
Si Si2 0.433509 0.040382 0.345343
Si Si3 0.466738 0.546969 0.839711
Si Si4 0.266641 0.044211 0.471980
Si Si5 0.831951 0.045213 0.344027
O O1 0.862955 0.250000 0.845938
O O2 0.807126 0.980088 0.883435
O O3 0.904795 0.011026 0.682066
O O4 0.904837 0.984408 0.988961
O O5 0.434712 0.250000 0.349015
O O6 0.493558 0.977374 0.303479
O O7 0.392350 0.985343 0.200181
O O8 0.465260 0.750000 0.828650
O O9 0.500000 0.500000 0.000000
O O10 0.268299 0.250000 0.468608
O O11 0.294698 0.981829 0.306995
O O12 0.204441 0.995908 0.500825
O O13 0.834815 0.250000 0.336773
#
# Coordination Sequence:
#
# PCOD9467400 Si02
#       5
#     8   8   8   8   8
#     4   9  18  36  57  74  98 133 171 210 253 299
#     4   8  17  35  56  74  97 134 173 209 252 301
#     4  11  22  35  52  77 106 134 168 209 257 307
#     4   9  19  34  52  76 104 133 166 207 254 299
#     4   9  18  34  54  75 101 134 172 209 248 300
#
# _framework density 25.269285
#
# number of rings (size 3 to 8) (size 9 to 14) (size 15 to 20)
#    0.000    2.800    0.000    3.600    0.000    3.200 
#    0.000   12.000    0.000    0.000    0.000    0.000 
#    0.000    0.000    0.000    0.000    0.000    0.000 
#
# Total GULP energy -223349.873903 kJ/mol
# GULP energy per Si atom -5583.746848 kJ/mol
# Density = 2.521177 g / cm^3
# Si number density = 25.269285 Si / 1000 Ang^3
#
#
#
# Elastic Constant Matrix: (Units=GPa)
#
#
# Indices 1 2 3 4 5 6 
#
# 1 162.1624 1.8344 1.9088 0.0000 0.0000 0.0000
# 2 1.8344 33.6292 -15.4414 0.0000 0.0000 0.0000
# 3 1.9088 -15.4414 42.0608 0.0000 0.0000 0.0000
# 4 0.0000 0.0000 0.0000 11.3004 0.0000 0.0000
# 5 0.0000 0.0000 0.0000 0.0000 46.3176 0.0000
# 6 0.0000 0.0000 0.0000 0.0000 0.0000 -5.0461
#
#
#
# Elastic Compliance Matrix: (Units=1/GPa)
#
#
# Indices 1 2 3 4 5 6 
#
# 1 0.006179 -0.000560 -0.000486 0.000000 0.000000 0.000000
# 2 -0.000560 0.035816 0.013174 0.000000 0.000000 0.000000
# 3 -0.000486 0.013174 0.028634 0.000000 0.000000 0.000000
# 4 0.000000 0.000000 0.000000 0.088492 0.000000 0.000000
# 5 0.000000 0.000000 0.000000 0.000000 0.021590 0.000000
# 6 0.000000 0.000000 0.000000 0.000000 0.000000 -0.198173
#
#
# Mechanical properties :
#
#
# Convention : Reuss Voigt Hill
#
# Bulk Modulus (GPa) = 10.53919 23.82842 17.18381
# Shear Modulus (GPa) = -495.52716 27.15110 -234.18803
#
# Velocity S-wave (km/s) = -14.01871 3.28147 -9.63733
# Velocity P-wave (km/s) = 16.05779 4.87931 10.81769
#
# Compressibility (1/GPa) = 0.09488392
#
# Stress axis : x y z
#
# Youngs Moduli (GPa) = 161.84589 27.92068 34.92391
#
# Poissons Ratio (x) = 0.01564 0.01698
# Poissons Ratio (y) = 0.09067 -0.46009
# Poissons Ratio (z) = 0.07867 -0.36783
#
# Static dielectric constant tensor:
#      x y z
#    x 1.887050 0.000000 0.000000 
#    y 0.000000 1.897020 0.000000 
#    z 0.000000 0.000000 2.120150 
# 
# From -- ./inp_files/8453.got.cif
#   From: 2010.05.17/outbox.cif.g08.bks.cpg/sg62_5_cif.got.tgz:8453.got - 2010.06.03 15:25:27.
