data_PCOD9467821
_publ_section_title
;
Structure prediction by ZEFSAII (Michael W. Deem and Ramdas Pophale) SiO2 
 PCOD9467821
Probable space group: P N M A
;
_chemical_formula_sum "Si O2"
_cell_formula_units_Z 48
_cell_length_a 9.000000
_cell_length_b 15.000000
_cell_length_c 18.000000
_cell_angle_alpha 90.000000
_cell_angle_beta 90.000000
_cell_angle_gamma 90.000000
_cell_volume 2430.000000
_symmetry_space_group_name_H-M "P N M A"
_symmetry_group_IT_number 62
_symmetry_cell_setting 'orthorhombic'
loop_
_space_group_symop_operation_xyz
x,y,z
1/2-x,-y,1/2+z
1/2+x,1/2-y,1/2-z
-x,1/2+y,-z
-x,-y,-z
1/2+x,y,1/2-z
1/2-x,1/2+y,1/2+z
x,1/2-y,z
loop_
_atom_site_type_symbol
_atom_site_label
_atom_site_fract_x
_atom_site_fract_y
_atom_site_fract_z
Si Si1 0.877495 0.647582 0.377417
Si Si2 0.640928 0.059872 0.714751
Si Si3 0.345185 0.349454 0.152728
Si Si4 0.103922 0.069612 0.249662
Si Si5 0.768691 0.348609 0.585129
Si Si6 0.171200 0.507150 0.524462
O O1 0.827391 0.750000 0.373563
O O2 0.860310 0.597350 0.298777
O O3 0.794659 0.589512 0.440915
O O4 0.054976 0.648901 0.395087
O O5 0.670698 0.139272 0.658541
O O6 0.493100 0.001778 0.703223
O O7 0.778050 0.991275 0.706791
O O8 0.361958 0.250000 0.124146
O O9 0.488513 0.378474 0.199498
O O10 0.200248 0.361259 0.203260
O O11 0.327732 0.422633 0.090554
O O12 0.740658 0.250000 0.551715
O O13 0.739502 0.438691 0.537980
O O14 0.000000 0.500000 0.500000
#
# Coordination Sequence:
#
# PCOD9467821 Si02
#       6
#     8   8   8   8   8   8
#     4  10  19  33  57  83 112 151 199 247 288 343
#     4  11  18  37  56  87 118 153 192 244 300 346
#     4  11  21  37  60  87 119 157 198 242 290 352
#     4  10  20  34  59  85 116 153 193 243 296 336
#     4  10  20  33  55  87 116 153 195 238 295 355
#     4  10  19  36  56  83 119 154 194 243 294 351
#
# _framework density 19.753086
#
# number of rings (size 3 to 8) (size 9 to 14) (size 15 to 20)
#    0.000    1.667    5.000    2.500    0.000    0.667 
#    0.000    0.833    0.000    2.000    0.000    0.000 
#    0.000    0.000    0.000    0.000    0.000    0.000 
#
# Total GULP energy -267435.312419 kJ/mol
# GULP energy per Si atom -5571.569009 kJ/mol
# Density = 1.970813 g / cm^3
# Si number density = 19.753086 Si / 1000 Ang^3
#
#
#
# Elastic Constant Matrix: (Units=GPa)
#
#
# Indices 1 2 3 4 5 6 
#
# 1 41.4186 -2.7949 -3.0773 0.0000 0.0000 0.0000
# 2 -2.7949 112.2295 13.0218 0.0000 0.0000 0.0000
# 3 -3.0773 13.0218 49.1951 0.0000 0.0000 0.0000
# 4 0.0000 0.0000 0.0000 -48.4175 0.0000 0.0000
# 5 0.0000 0.0000 0.0000 0.0000 15.7241 0.0000
# 6 0.0000 0.0000 0.0000 0.0000 0.0000 10.1654
#
#
#
# Elastic Compliance Matrix: (Units=1/GPa)
#
#
# Indices 1 2 3 4 5 6 
#
# 1 0.024278 0.000442 0.001402 0.000000 0.000000 0.000000
# 2 0.000442 0.009201 -0.002408 0.000000 0.000000 0.000000
# 3 0.001402 -0.002408 0.021052 0.000000 0.000000 0.000000
# 4 0.000000 0.000000 0.000000 -0.020654 0.000000 0.000000
# 5 0.000000 0.000000 0.000000 0.000000 0.063597 0.000000
# 6 0.000000 0.000000 0.000000 0.000000 0.000000 0.098372
#
#
# Mechanical properties :
#
#
# Convention : Reuss Voigt Hill
#
# Bulk Modulus (GPa) = 18.72577 24.12693 21.42635
# Shear Modulus (GPa) = 23.28016 8.54064 15.91040
#
# Velocity S-wave (km/s) = 3.43674 2.08161 2.84115
# Velocity P-wave (km/s) = 5.02481 4.24479 4.65118
#
# Compressibility (1/GPa) = 0.05340235
#
# Stress axis : x y z
#
# Youngs Moduli (GPa) = 41.19008 108.68752 47.50087
#
# Poissons Ratio (x) = -0.04804 -0.06658
# Poissons Ratio (y) = -0.01820 0.11437
# Poissons Ratio (z) = -0.05773 0.26169
#
# Static dielectric constant tensor:
#      x y z
#    x 1.669040 0.000000 0.000000 
#    y 0.000000 1.684240 0.000000 
#    z 0.000000 0.000000 1.745830 
# 
# From -- ./inp_files/22219.got.cif
#   From: 2010.05.17/outbox.ucp.g08.bks.cvg/sg62_12_cif.got.tgz:22219.got - 2010.06.11 16:29:25.
