data_PCOD9467095
_publ_section_title
;
Structure prediction by ZEFSAII (Michael W. Deem and Ramdas Pophale) SiO2 
 PCOD9467095
Probable space group: P N M A
;
_chemical_formula_sum "Si O2"
_cell_formula_units_Z 40
_cell_length_a 4.959357
_cell_length_b 16.015867
_cell_length_c 20.527453
_cell_angle_alpha 90.000000
_cell_angle_beta 90.000000
_cell_angle_gamma 90.000000
_cell_volume 1630.462791
_symmetry_space_group_name_H-M "P N M A"
_symmetry_group_IT_number 62
_symmetry_cell_setting 'orthorhombic'
loop_
_space_group_symop_operation_xyz
x,y,z
1/2-x,-y,1/2+z
1/2+x,1/2-y,1/2-z
-x,1/2+y,-z
-x,-y,-z
1/2+x,y,1/2-z
1/2-x,1/2+y,1/2+z
x,1/2-y,z
loop_
_atom_site_type_symbol
_atom_site_label
_atom_site_fract_x
_atom_site_fract_y
_atom_site_fract_z
Si Si1 0.153938 0.653922 0.796762
Si Si2 0.508999 0.750000 0.449053
Si Si3 0.945695 0.971418 0.611443
Si Si4 0.006410 0.250000 0.635918
Si Si5 0.775874 0.586366 0.290933
Si Si6 0.300918 0.921636 0.493315
O O1 0.366054 0.644040 0.737331
O O2 0.177871 0.750000 0.820653
O O3 0.233620 0.588324 0.852552
O O4 0.820448 0.750000 0.430046
O O5 0.444740 0.834000 0.487262
O O6 0.307046 0.750000 0.385346
O O7 0.097131 0.922982 0.553576
O O8 0.147497 0.008466 0.664608
O O9 0.837671 0.054198 0.574890
O O10 0.116284 0.170334 0.675412
O O11 0.461920 0.582916 0.273702
O O12 0.500000 0.000000 0.500000
#
# Coordination Sequence:
#
# PCOD9467095 Si02
#       6
#     8   4   8   4   8   8
#     4  10  23  44  69 101 139 179 230 289 354 422
#     4  12  26  49  76 100 148 193 234 309 354 420
#     4  11  25  44  69 103 140 181 240 294 352 432
#     4  12  24  47  70 104 146 183 238 289 348 438
#     4  12  25  42  71 103 141 187 231 290 362 426
#     4  11  27  47  72 105 140 193 246 295 361 428
#
# _framework density 24.532913000000001
#
# number of rings (size 3 to 8) (size 9 to 14) (size 15 to 20)
#    0.000    0.800    2.000    4.200    9.800    0.000 
#    1.800    0.000    0.000    0.000    0.000    0.000 
#    0.000    0.000    0.000    0.000    0.000    0.000 
#
# Total GULP energy -224265.490453 kJ/mol
# GULP energy per Si atom -5606.637261 kJ/mol
# Density = 2.447707 g / cm^3
# Si number density = 24.532913 Si / 1000 Ang^3
#
#
#
# Elastic Constant Matrix: (Units=GPa)
#
#
# Indices 1 2 3 4 5 6 
#
# 1 68.6627 11.2047 1.1569 0.0000 0.0000 0.0000
# 2 11.2047 142.5496 41.6705 0.0000 0.0000 0.0000
# 3 1.1569 41.6705 56.0180 0.0000 0.0000 0.0000
# 4 0.0000 0.0000 0.0000 24.5150 0.0000 0.0000
# 5 0.0000 0.0000 0.0000 0.0000 18.1458 0.0000
# 6 0.0000 0.0000 0.0000 0.0000 0.0000 33.9001
#
#
#
# Elastic Compliance Matrix: (Units=1/GPa)
#
#
# Indices 1 2 3 4 5 6 
#
# 1 0.014776 -0.001370 0.000714 0.000000 0.000000 0.000000
# 2 -0.001370 0.009091 -0.006735 0.000000 0.000000 0.000000
# 3 0.000714 -0.006735 0.022846 0.000000 0.000000 0.000000
# 4 0.000000 0.000000 0.000000 0.040791 0.000000 0.000000
# 5 0.000000 0.000000 0.000000 0.000000 0.055109 0.000000
# 6 0.000000 0.000000 0.000000 0.000000 0.000000 0.029498
#
#
# Mechanical properties :
#
#
# Convention : Reuss Voigt Hill
#
# Bulk Modulus (GPa) = 31.31661 41.69940 36.50801
# Shear Modulus (GPa) = 25.31163 29.52540 27.41852
#
# Velocity S-wave (km/s) = 3.21556 3.47292 3.34671
# Velocity P-wave (km/s) = 5.15551 5.75463 5.46329
#
# Compressibility (1/GPa) = 0.03193194
#
# Stress axis : x y z
#
# Youngs Moduli (GPa) = 67.67959 109.99308 43.77062
#
# Poissons Ratio (x) = 0.15070 -0.03125
# Poissons Ratio (y) = 0.09273 0.29478
# Poissons Ratio (z) = -0.04833 0.74076
#
# Static dielectric constant tensor:
#      x y z
#    x 1.949540 0.000000 0.000000 
#    y 0.000000 1.944470 0.000000 
#    z 0.000000 0.000000 1.999860 
# 
# From -- ./inp_files/21508.got.cif
#   From: 2010.05.17/outbox.cif.g08.bks.cpg/sg62_11_cif.got.tgz:21508.got - 2010.06.03 15:25:27.
