data_PCOD9467566
_publ_section_title
;
Structure prediction by ZEFSAII (Michael W. Deem and Ramdas Pophale) SiO2 
 PCOD9467566
Probable space group: P N M A
;
_chemical_formula_sum "Si O2"
_cell_formula_units_Z 40
_cell_length_a 19.087597
_cell_length_b 16.017390
_cell_length_c 6.138798
_cell_angle_alpha 90.000000
_cell_angle_beta 90.000000
_cell_angle_gamma 90.000000
_cell_volume 1876.836108
_symmetry_space_group_name_H-M "P N M A"
_symmetry_group_IT_number 62
_symmetry_cell_setting 'orthorhombic'
loop_
_space_group_symop_operation_xyz
x,y,z
1/2-x,-y,1/2+z
1/2+x,1/2-y,1/2-z
-x,1/2+y,-z
-x,-y,-z
1/2+x,y,1/2-z
1/2-x,1/2+y,1/2+z
x,1/2-y,z
loop_
_atom_site_type_symbol
_atom_site_label
_atom_site_fract_x
_atom_site_fract_y
_atom_site_fract_z
Si Si1 0.895371 0.750000 0.112247
Si Si2 0.181079 0.918864 0.789379
Si Si3 0.453758 0.082367 0.998023
Si Si4 0.465995 0.750000 0.886123
Si Si5 0.713879 0.102045 0.558665
Si Si6 0.854804 0.342918 0.799342
O O1 0.932777 0.750000 0.865754
O O2 0.929110 0.750000 0.362593
O O3 0.846707 0.832483 0.105258
O O4 0.119682 0.933679 0.617889
O O5 0.253821 0.891636 0.681941
O O6 0.191336 0.006874 0.908330
O O7 0.154478 0.846968 0.945362
O O8 0.491777 0.162784 0.099564
O O9 0.424812 0.107044 0.760222
O O10 0.500000 0.000000 0.000000
O O11 0.781315 0.121694 0.709265
O O12 0.862918 0.250000 0.709459
#
# Coordination Sequence:
#
# PCOD9467566 Si02
#       6
#     4   8   8   4   8   8
#     4  12  30  45  78 101 152 184 248 304 372 422
#     4  11  25  41  72  99 141 184 239 301 366 437
#     4  11  27  47  69  99 144 195 248 297 361 436
#     4  12  30  51  72 109 144 200 252 300 364 446
#     4  11  24  44  68 109 136 186 235 305 372 439
#     4  11  24  43  71  99 142 180 236 298 366 434
#
# _framework density 21.312463000000001
#
# number of rings (size 3 to 8) (size 9 to 14) (size 15 to 20)
#    0.000    0.800    4.000    1.200   11.200    0.800 
#    0.000    0.000    0.000    0.000    0.000    0.000 
#    0.000    0.000    0.000    0.000    0.000    0.000 
#
# Total GULP energy -222900.422397 kJ/mol
# GULP energy per Si atom -5572.510560 kJ/mol
# Density = 2.126396 g / cm^3
# Si number density = 21.312463 Si / 1000 Ang^3
#
#
#
# Elastic Constant Matrix: (Units=GPa)
#
#
# Indices 1 2 3 4 5 6 
#
# 1 63.4807 24.0903 20.2743 0.0000 0.0000 0.0000
# 2 24.0903 103.8271 1.9486 0.0000 0.0000 0.0000
# 3 20.2743 1.9486 77.2153 0.0000 0.0000 0.0000
# 4 0.0000 0.0000 0.0000 24.6084 0.0000 0.0000
# 5 0.0000 0.0000 0.0000 0.0000 34.1115 0.0000
# 6 0.0000 0.0000 0.0000 0.0000 0.0000 42.3522
#
#
#
# Elastic Compliance Matrix: (Units=1/GPa)
#
#
# Indices 1 2 3 4 5 6 
#
# 1 0.018939 -0.004303 -0.004864 0.000000 0.000000 0.000000
# 2 -0.004303 0.010614 0.000862 0.000000 0.000000 0.000000
# 3 -0.004864 0.000862 0.014206 0.000000 0.000000 0.000000
# 4 0.000000 0.000000 0.000000 0.040637 0.000000 0.000000
# 5 0.000000 0.000000 0.000000 0.000000 0.029316 0.000000
# 6 0.000000 0.000000 0.000000 0.000000 0.000000 0.023612
#
#
# Mechanical properties :
#
#
# Convention : Reuss Voigt Hill
#
# Bulk Modulus (GPa) = 36.83442 37.46106 37.14774
# Shear Modulus (GPa) = 30.67802 33.42840 32.05321
#
# Velocity S-wave (km/s) = 3.79811 3.96471 3.88231
# Velocity P-wave (km/s) = 6.04605 6.21078 6.12897
#
# Compressibility (1/GPa) = 0.02714852
#
# Stress axis : x y z
#
# Youngs Moduli (GPa) = 52.80020 94.21847 70.39158
#
# Poissons Ratio (x) = 0.40543 0.34240
# Poissons Ratio (y) = 0.22720 -0.06068
# Poissons Ratio (z) = 0.25683 -0.08122
#
# Static dielectric constant tensor:
#      x y z
#    x 1.748000 0.000000 0.000000 
#    y 0.000000 1.849250 0.000000 
#    z 0.000000 0.000000 1.928450 
# 
# From -- ./inp_files/1577.got.cif
#   From: 2010.05.17/outbox.cif.g08.bks.cpg/sg62_1_cif.got.tgz:1577.got - 2010.06.03 15:25:27.
