data_PCOD9467217
_publ_section_title
;
Structure prediction by ZEFSAII (Michael W. Deem and Ramdas Pophale) SiO2 
 PCOD9467217
Probable space group: P N M A
;
_chemical_formula_sum "Si O2"
_cell_formula_units_Z 40
_cell_length_a 10.005625
_cell_length_b 22.057327
_cell_length_c 7.248114
_cell_angle_alpha 90.000000
_cell_angle_beta 90.000000
_cell_angle_gamma 90.000000
_cell_volume 1599.639498
_symmetry_space_group_name_H-M "P N M A"
_symmetry_group_IT_number 62
_symmetry_cell_setting 'orthorhombic'
loop_
_space_group_symop_operation_xyz
x,y,z
1/2-x,-y,1/2+z
1/2+x,1/2-y,1/2-z
-x,1/2+y,-z
-x,-y,-z
1/2+x,y,1/2-z
1/2-x,1/2+y,1/2+z
x,1/2-y,z
loop_
_atom_site_type_symbol
_atom_site_label
_atom_site_fract_x
_atom_site_fract_y
_atom_site_fract_z
Si Si1 0.855834 0.475426 0.041329
Si Si2 0.611293 0.946935 0.957622
Si Si3 0.822491 0.683672 0.331634
Si Si4 0.950803 0.355828 0.916618
Si Si5 0.010025 0.679357 0.651846
O O1 0.856697 0.450727 0.243780
O O2 0.744869 0.526169 0.041297
O O3 0.858505 0.417033 0.911105
O O4 0.000000 0.500000 0.000000
O O5 0.580000 0.875170 0.966566
O O6 0.500000 0.000000 0.000000
O O7 0.872005 0.750000 0.270347
O O8 0.663100 0.685671 0.328280
O O9 0.912599 0.640692 0.200640
O O10 0.865930 0.676885 0.547942
O O11 0.987023 0.337783 0.129512
O O12 0.056970 0.750000 0.635241
#
# Coordination Sequence:
#
# PCOD9467217 Si02
#       5
#     8   8   8   8   8
#     4  11  26  42  69 105 138 190 235 304 368 421
#     4  11  24  45  73 105 143 188 243 301 369 440
#     4  11  24  43  74 108 146 200 244 304 374 440
#     4  11  26  46  71 110 152 192 253 306 372 454
#     4  10  24  46  72 104 149 195 247 307 370 446
#
# _framework density 25.005634000000001
#
# number of rings (size 3 to 8) (size 9 to 14) (size 15 to 20)
#    0.000    1.200    0.000    4.200    8.400    6.400 
#    0.000    2.000    0.000    1.200    0.000    0.000 
#    0.000    0.000    0.000    0.000    0.000    0.000 
#
# Total GULP energy -222840.071842 kJ/mol
# GULP energy per Si atom -5571.001796 kJ/mol
# Density = 2.494872 g / cm^3
# Si number density = 25.005634 Si / 1000 Ang^3
#
#
#
# Elastic Constant Matrix: (Units=GPa)
#
#
# Indices 1 2 3 4 5 6 
#
# 1 122.8582 40.8559 26.0943 0.0000 0.0000 0.0000
# 2 40.8559 145.9412 33.6222 0.0000 0.0000 0.0000
# 3 26.0943 33.6222 81.5537 0.0000 0.0000 0.0000
# 4 0.0000 0.0000 0.0000 35.2170 0.0000 0.0000
# 5 0.0000 0.0000 0.0000 0.0000 24.4247 0.0000
# 6 0.0000 0.0000 0.0000 0.0000 0.0000 27.2854
#
#
#
# Elastic Compliance Matrix: (Units=1/GPa)
#
#
# Indices 1 2 3 4 5 6 
#
# 1 0.009289 -0.002117 -0.002100 0.000000 0.000000 0.000000
# 2 -0.002117 0.008054 -0.002643 0.000000 0.000000 0.000000
# 3 -0.002100 -0.002643 0.014023 0.000000 0.000000 0.000000
# 4 0.000000 0.000000 0.000000 0.028395 0.000000 0.000000
# 5 0.000000 0.000000 0.000000 0.000000 0.040942 0.000000
# 6 0.000000 0.000000 0.000000 0.000000 0.000000 0.036650
#
#
# Mechanical properties :
#
#
# Convention : Reuss Voigt Hill
#
# Bulk Modulus (GPa) = 56.66524 61.27755 58.97140
# Shear Modulus (GPa) = 31.85638 34.03747 32.94692
#
# Velocity S-wave (km/s) = 3.57314 3.69344 3.63379
# Velocity P-wave (km/s) = 6.30344 6.53814 6.42186
#
# Compressibility (1/GPa) = 0.01764750
#
# Stress axis : x y z
#
# Youngs Moduli (GPa) = 107.65025 124.16863 71.31016
#
# Poissons Ratio (x) = 0.26284 0.14972
# Poissons Ratio (y) = 0.22788 0.18847
# Poissons Ratio (z) = 0.22602 0.32817
#
# Static dielectric constant tensor:
#      x y z
#    x 1.933230 0.000000 0.000000 
#    y 0.000000 2.394490 0.000000 
#    z 0.000000 0.000000 1.920430 
# 
# From -- ./inp_files/4305.got.cif
#   From: 2010.05.17/outbox.cif.g08.bks.cpg/sg62_3_cif.got.tgz:4305.got - 2010.06.03 15:25:27.
