data_PCOD9467117
_publ_section_title
;
Structure prediction by ZEFSAII (Michael W. Deem and Ramdas Pophale) SiO2 
 PCOD9467117
Probable space group: P N M A
;
_chemical_formula_sum "Si O2"
_cell_formula_units_Z 48
_cell_length_a 8.901449
_cell_length_b 26.308475
_cell_length_c 9.595301
_cell_angle_alpha 90.000000
_cell_angle_beta 90.000000
_cell_angle_gamma 90.000000
_cell_volume 2247.061637
_symmetry_space_group_name_H-M "P N M A"
_symmetry_group_IT_number 62
_symmetry_cell_setting 'orthorhombic'
loop_
_space_group_symop_operation_xyz
x,y,z
1/2-x,-y,1/2+z
1/2+x,1/2-y,1/2-z
-x,1/2+y,-z
-x,-y,-z
1/2+x,y,1/2-z
1/2-x,1/2+y,1/2+z
x,1/2-y,z
loop_
_atom_site_type_symbol
_atom_site_label
_atom_site_fract_x
_atom_site_fract_y
_atom_site_fract_z
Si Si1 0.249497 0.809974 0.375242
Si Si2 0.586482 0.851566 0.853227
Si Si3 0.933205 0.050795 0.062812
Si Si4 0.904432 0.342266 0.901142
Si Si5 0.539409 0.750000 0.796237
Si Si6 0.836893 0.582560 0.697164
Si Si7 0.756149 0.750000 0.562736
O O1 0.232304 0.750000 0.346884
O O2 0.168883 0.823632 0.520540
O O3 0.173563 0.841051 0.250025
O O4 0.425012 0.822720 0.387257
O O5 0.506638 0.808672 0.756754
O O6 0.451539 0.887548 0.902940
O O7 0.712331 0.880984 0.766821
O O8 0.052638 0.064266 0.182789
O O9 0.766099 0.041122 0.123136
O O10 0.912390 0.101350 0.967750
O O11 0.000000 0.000000 0.000000
O O12 0.812165 0.300033 0.990446
O O13 0.708040 0.750000 0.727492
O O14 0.436135 0.750000 0.936865
#
# Coordination Sequence:
#
# PCOD9467117 Si02
#       7
#     8   8   8   8   4   8   4
#     4  12  25  43  64  99 142 187 229 281 348 427
#     4  11  22  40  66  97 135 177 225 277 344 407
#     4  11  25  48  74 102 137 178 239 295 354 413
#     4  12  27  44  67  94 143 181 229 285 348 420
#     4  12  24  33  65  96 130 175 223 269 337 408
#     4  10  23  46  69  98 134 176 227 297 345 408
#     4  12  26  41  63  98 136 175 227 279 349 416
#
# _framework density 21.361231
#
# number of rings (size 3 to 8) (size 9 to 14) (size 15 to 20)
#    0.000    0.667    4.167    4.000    7.000    1.333 
#    0.000    1.667    0.000    0.000    0.000    0.000 
#    0.000    0.000    0.000    0.000    0.000    0.000 
#
# Total GULP energy -267544.485341 kJ/mol
# GULP energy per Si atom -5573.843445 kJ/mol
# Density = 2.131261 g / cm^3
# Si number density = 21.361231 Si / 1000 Ang^3
#
#
#
# Elastic Constant Matrix: (Units=GPa)
#
#
# Indices 1 2 3 4 5 6 
#
# 1 124.3835 0.6391 22.7439 0.0000 0.0000 0.0000
# 2 0.6391 56.2309 11.0749 0.0000 0.0000 0.0000
# 3 22.7439 11.0749 71.5174 0.0000 0.0000 0.0000
# 4 0.0000 0.0000 0.0000 26.5425 0.0000 0.0000
# 5 0.0000 0.0000 0.0000 0.0000 34.3665 0.0000
# 6 0.0000 0.0000 0.0000 0.0000 0.0000 25.0881
#
#
#
# Elastic Compliance Matrix: (Units=1/GPa)
#
#
# Indices 1 2 3 4 5 6 
#
# 1 0.008547 0.000452 -0.002788 0.000000 0.000000 0.000000
# 2 0.000452 0.018367 -0.002988 0.000000 0.000000 0.000000
# 3 -0.002788 -0.002988 0.015332 0.000000 0.000000 0.000000
# 4 0.000000 0.000000 0.000000 0.037675 0.000000 0.000000
# 5 0.000000 0.000000 0.000000 0.000000 0.029098 0.000000
# 6 0.000000 0.000000 0.000000 0.000000 0.000000 0.039859
#
#
# Mechanical properties :
#
#
# Convention : Reuss Voigt Hill
#
# Bulk Modulus (GPa) = 31.64758 35.67197 33.65977
# Shear Modulus (GPa) = 29.40133 31.71103 30.55618
#
# Velocity S-wave (km/s) = 3.71399 3.85712 3.78623
# Velocity P-wave (km/s) = 5.76535 6.04749 5.90810
#
# Compressibility (1/GPa) = 0.03159800
#
# Stress axis : x y z
#
# Youngs Moduli (GPa) = 116.99806 54.44493 65.22300
#
# Poissons Ratio (x) = -0.02461 0.18185
# Poissons Ratio (y) = -0.05288 0.19489
# Poissons Ratio (z) = 0.32621 0.16268
#
# Static dielectric constant tensor:
#      x y z
#    x 1.781250 0.000000 0.000000 
#    y 0.000000 1.802330 0.000000 
#    z 0.000000 0.000000 1.872460 
# 
# From -- ./inp_files/4581.got.cif
#   From: 2010.05.17/outbox.cif.g08.bks.cpg/sg62_3_cif.got.tgz:4581.got - 2010.06.03 15:25:27.
