data_PCOD9467452
_publ_section_title
;
Structure prediction by ZEFSAII (Michael W. Deem and Ramdas Pophale) SiO2 
 PCOD9467452
Probable space group: P N M A
;
_chemical_formula_sum "Si O2"
_cell_formula_units_Z 32
_cell_length_a 9.106033
_cell_length_b 12.496094
_cell_length_c 9.665667
_cell_angle_alpha 90.000000
_cell_angle_beta 90.000000
_cell_angle_gamma 90.000000
_cell_volume 1099.854743
_symmetry_space_group_name_H-M "P N M A"
_symmetry_group_IT_number 62
_symmetry_cell_setting 'orthorhombic'
loop_
_space_group_symop_operation_xyz
x,y,z
1/2-x,-y,1/2+z
1/2+x,1/2-y,1/2-z
-x,1/2+y,-z
-x,-y,-z
1/2+x,y,1/2-z
1/2-x,1/2+y,1/2+z
x,1/2-y,z
loop_
_atom_site_type_symbol
_atom_site_label
_atom_site_fract_x
_atom_site_fract_y
_atom_site_fract_z
Si Si1 0.121299 0.565802 0.139928
Si Si2 0.894580 0.060642 0.342051
Si Si3 0.451319 0.750000 0.523053
Si Si4 0.772225 0.750000 0.708662
Si Si5 0.539079 0.250000 0.985816
Si Si6 0.798522 0.250000 0.686666
O O1 0.253708 0.493068 0.080400
O O2 0.224933 0.643477 0.230754
O O3 0.010421 0.505486 0.247227
O O4 0.028727 0.641811 0.036144
O O5 0.811797 0.142733 0.241778
O O6 0.978256 0.138501 0.449288
O O7 0.412531 0.750000 0.686633
O O8 0.289954 0.750000 0.453557
O O9 0.800979 0.750000 0.545892
O O10 0.476094 0.250000 0.834324
#
# Coordination Sequence:
#
# PCOD9467452 Si02
#       6
#     8   8   4   4   4   4
#     4  11  24  43  70 100 124 179 224 273 320 392
#     4  11  22  41  68  96 132 167 222 265 332 384
#     4  11  23  44  70  94 136 170 224 277 320 387
#     4  11  24  45  63 100 139 170 212 279 332 395
#     4  11  24  45  63 100 139 170 212 279 332 395
#     4  11  23  44  70  94 136 170 224 277 320 387
#
# _framework density 29.094753000000001
#
# number of rings (size 3 to 8) (size 9 to 14) (size 15 to 20)
#    0.000    1.000    7.500    0.000    0.000    2.000 
#    9.000    2.500    0.000    0.000    0.000    0.000 
#    0.000    0.000    0.000    0.000    0.000    0.000 
#
# Total GULP energy -179258.288707 kJ/mol
# GULP energy per Si atom -5601.821522 kJ/mol
# Density = 2.902853 g / cm^3
# Si number density = 29.094753 Si / 1000 Ang^3
#
#
#
# Elastic Constant Matrix: (Units=GPa)
#
#
# Indices 1 2 3 4 5 6 
#
# 1 149.3036 65.1135 27.4085 0.0000 0.0000 0.0000
# 2 65.1135 141.3851 19.9554 0.0000 0.0000 0.0000
# 3 27.4085 19.9554 90.2923 0.0000 0.0000 0.0000
# 4 0.0000 0.0000 0.0000 38.4732 0.0000 0.0000
# 5 0.0000 0.0000 0.0000 0.0000 63.2531 0.0000
# 6 0.0000 0.0000 0.0000 0.0000 0.0000 46.7472
#
#
#
# Elastic Compliance Matrix: (Units=1/GPa)
#
#
# Indices 1 2 3 4 5 6 
#
# 1 0.008656 -0.003732 -0.001803 0.000000 0.000000 0.000000
# 2 -0.003732 0.008910 -0.000836 0.000000 0.000000 0.000000
# 3 -0.001803 -0.000836 0.011807 0.000000 0.000000 0.000000
# 4 0.000000 0.000000 0.000000 0.025992 0.000000 0.000000
# 5 0.000000 0.000000 0.000000 0.000000 0.015809 0.000000
# 6 0.000000 0.000000 0.000000 0.000000 0.000000 0.021392
#
#
# Mechanical properties :
#
#
# Convention : Reuss Voigt Hill
#
# Bulk Modulus (GPa) = 60.12905 67.32617 63.72761
# Shear Modulus (GPa) = 45.10494 47.59493 46.34994
#
# Velocity S-wave (km/s) = 3.94163 4.04896 3.99566
# Velocity P-wave (km/s) = 6.43636 6.71188 6.57556
#
# Compressibility (1/GPa) = 0.01663090
#
# Stress axis : x y z
#
# Youngs Moduli (GPa) = 115.52202 112.23710 84.69404
#
# Poissons Ratio (x) = 0.41888 0.15269
# Poissons Ratio (y) = 0.43114 0.07082
# Poissons Ratio (z) = 0.20827 0.09385
#
# Static dielectric constant tensor:
#      x y z
#    x 2.334140 0.000000 0.000000 
#    y 0.000000 2.269060 0.000000 
#    z 0.000000 0.000000 2.205500 
# 
# From -- ./inp_files/11823.got.cif
#   From: 2010.05.17/outbox.cif.g08.bks.cpg/sg62_6_cif.got.tgz:11823.got - 2010.06.03 15:25:27.
