data_PCOD9467489
_publ_section_title
;
Structure prediction by ZEFSAII (Michael W. Deem and Ramdas Pophale) SiO2 
 PCOD9467489
Probable space group: P N M A
;
_chemical_formula_sum "Si O2"
_cell_formula_units_Z 40
_cell_length_a 11.695893
_cell_length_b 8.846753
_cell_length_c 20.291928
_cell_angle_alpha 90.000000
_cell_angle_beta 90.000000
_cell_angle_gamma 90.000000
_cell_volume 2099.619517
_symmetry_space_group_name_H-M "P N M A"
_symmetry_group_IT_number 62
_symmetry_cell_setting 'orthorhombic'
loop_
_space_group_symop_operation_xyz
x,y,z
1/2-x,-y,1/2+z
1/2+x,1/2-y,1/2-z
-x,1/2+y,-z
-x,-y,-z
1/2+x,y,1/2-z
1/2-x,1/2+y,1/2+z
x,1/2-y,z
loop_
_atom_site_type_symbol
_atom_site_label
_atom_site_fract_x
_atom_site_fract_y
_atom_site_fract_z
Si Si1 0.385923 0.929281 0.969801
Si Si2 0.179590 0.569237 0.204409
Si Si3 0.240599 0.930290 0.353996
Si Si4 0.483387 0.429197 0.368669
Si Si5 0.215392 0.071744 0.071677
O O1 0.394879 0.750000 0.967408
O O2 0.281690 0.980035 0.016892
O O3 0.500000 0.000000 0.000000
O O4 0.357300 0.995592 0.898224
O O5 0.180894 0.750000 0.195088
O O6 0.224133 0.533711 0.276895
O O7 0.051208 0.506212 0.192396
O O8 0.247948 0.488611 0.144870
O O9 0.237592 0.750000 0.361962
O O10 0.362363 0.993777 0.377764
O O11 0.470305 0.250000 0.358481
O O12 0.577602 0.450119 0.426678
O O13 0.239081 0.250000 0.065266
#
# Coordination Sequence:
#
# PCOD9467489 Si02
#       5
#     8   8   8   8   8
#     4  12  26  43  64  89 123 164 207 255 310 370
#     4   9  19  37  60  89 122 161 202 249 306 360
#     4  11  23  39  63  93 127 162 206 256 305 367
#     4   9  20  37  61  90 120 158 203 251 304 359
#     4   9  20  40  63  89 121 159 203 250 304 364
#
# _framework density 19.051071
#
# number of rings (size 3 to 8) (size 9 to 14) (size 15 to 20)
#    1.200    0.800    0.000    3.600    0.000    5.600 
#    0.000    2.000    0.000    0.000    0.000    0.000 
#    0.000    0.000    0.000    0.000    0.000    0.000 
#
# Total GULP energy -223007.260398 kJ/mol
# GULP energy per Si atom -5575.181510 kJ/mol
# Density = 1.900771 g / cm^3
# Si number density = 19.051071 Si / 1000 Ang^3
#
#
#
# Elastic Constant Matrix: (Units=GPa)
#
#
# Indices 1 2 3 4 5 6 
#
# 1 46.4726 12.8568 -3.1658 0.0000 0.0000 0.0000
# 2 12.8568 73.8722 16.0548 0.0000 0.0000 0.0000
# 3 -3.1658 16.0548 56.1510 0.0000 0.0000 0.0000
# 4 0.0000 0.0000 0.0000 29.5861 0.0000 0.0000
# 5 0.0000 0.0000 0.0000 0.0000 27.2081 0.0000
# 6 0.0000 0.0000 0.0000 0.0000 0.0000 33.7666
#
#
#
# Elastic Compliance Matrix: (Units=1/GPa)
#
#
# Indices 1 2 3 4 5 6 
#
# 1 0.022957 -0.004560 0.002598 0.000000 0.000000 0.000000
# 2 -0.004560 0.015340 -0.004643 0.000000 0.000000 0.000000
# 3 0.002598 -0.004643 0.019283 0.000000 0.000000 0.000000
# 4 0.000000 0.000000 0.000000 0.033800 0.000000 0.000000
# 5 0.000000 0.000000 0.000000 0.000000 0.036754 0.000000
# 6 0.000000 0.000000 0.000000 0.000000 0.000000 0.029615
#
#
# Mechanical properties :
#
#
# Convention : Reuss Voigt Hill
#
# Bulk Modulus (GPa) = 22.53804 25.33192 23.93498
# Shear Modulus (GPa) = 26.91826 28.16216 27.54021
#
# Velocity S-wave (km/s) = 3.76300 3.84897 3.80623
# Velocity P-wave (km/s) = 5.54403 5.75139 5.64866
#
# Compressibility (1/GPa) = 0.04436943
#
# Stress axis : x y z
#
# Youngs Moduli (GPa) = 43.56053 65.19073 51.85873
#
# Poissons Ratio (x) = 0.29727 -0.13473
# Poissons Ratio (y) = 0.19864 0.24078
# Poissons Ratio (z) = -0.11317 0.30268
#
# Static dielectric constant tensor:
#      x y z
#    x 1.671760 0.000000 0.000000 
#    y 0.000000 1.627360 0.000000 
#    z 0.000000 0.000000 1.677430 
# 
# From -- ./inp_files/22800.got.cif
#   From: 2010.05.17/outbox.cif.g08.bks.cpg/sg62_12_cif.got.tgz:22800.got - 2010.06.03 15:25:27.
