data_PCOD9467704
_publ_section_title
;
Structure prediction by ZEFSAII (Michael W. Deem and Ramdas Pophale) SiO2 
 PCOD9467704
Probable space group: P N M A
;
_chemical_formula_sum "Si O2"
_cell_formula_units_Z 48
_cell_length_a 6.722904
_cell_length_b 7.359805
_cell_length_c 33.937057
_cell_angle_alpha 90.000000
_cell_angle_beta 90.000000
_cell_angle_gamma 90.000000
_cell_volume 1679.180551
_symmetry_space_group_name_H-M "P N M A"
_symmetry_group_IT_number 62
_symmetry_cell_setting 'orthorhombic'
loop_
_space_group_symop_operation_xyz
x,y,z
1/2-x,-y,1/2+z
1/2+x,1/2-y,1/2-z
-x,1/2+y,-z
-x,-y,-z
1/2+x,y,1/2-z
1/2-x,1/2+y,1/2+z
x,1/2-y,z
loop_
_atom_site_type_symbol
_atom_site_label
_atom_site_fract_x
_atom_site_fract_y
_atom_site_fract_z
Si Si1 0.706638 0.039043 0.530393
Si Si2 0.979434 0.539888 0.195768
Si Si3 0.368421 0.525956 0.386213
Si Si4 0.019075 0.541071 0.281473
Si Si5 0.079472 0.034242 0.636661
Si Si6 0.667011 0.966592 0.948977
O O1 0.656811 0.250000 0.528653
O O2 0.600402 0.959000 0.569117
O O3 0.701646 0.963262 0.485925
O O4 0.942440 0.031837 0.541584
O O5 0.049461 0.750000 0.193411
O O6 0.996717 0.464123 0.151501
O O7 0.740511 0.545787 0.201680
O O8 0.040010 0.457723 0.237927
O O9 0.374286 0.750000 0.386451
O O10 0.140448 0.469313 0.376354
O O11 0.954671 0.750000 0.273599
O O12 0.888542 0.465987 0.318068
O O13 0.065365 0.250000 0.642285
O O14 0.206311 0.013435 0.596623
O O15 0.664745 0.750000 0.951668
#
# Coordination Sequence:
#
# PCOD9467704 Si02
#       6
#     8   8   8   8   8   8
#     4   8  13  20  28  40  61  87 110 133 165 202
#     4   8  12  18  29  46  66  86 108 134 166 203
#     4   7  10  17  28  40  57  81 104 126 157 195
#     4   8  13  20  31  47  66  87 110 137 169 203
#     4   8  13  21  30  41  61  87 109 131 165 202
#     4   9  14  18  27  43  61  83 111 138 162 195
#
# _framework density 28.585370999999999
#
# number of rings (size 3 to 8) (size 9 to 14) (size 15 to 20)
#    0.000    4.000    0.000    3.500    0.000    0.667 
#    0.000    0.000    0.000    0.000    0.000   10.500 
#    0.000    1.333    0.000    1.000    0.000    6.000 
#
# Total GULP energy -268055.106326 kJ/mol
# GULP energy per Si atom -5584.481382 kJ/mol
# Density = 2.852031 g / cm^3
# Si number density = 28.585371 Si / 1000 Ang^3
#
#
#
# Elastic Constant Matrix: (Units=GPa)
#
#
# Indices 1 2 3 4 5 6 
#
# 1 80.8302 3.0676 72.4033 0.0000 0.0000 0.0000
# 2 3.0676 125.8316 16.0491 0.0000 0.0000 0.0000
# 3 72.4033 16.0491 412.8628 0.0000 0.0000 0.0000
# 4 0.0000 0.0000 0.0000 2.7720 0.0000 0.0000
# 5 0.0000 0.0000 0.0000 0.0000 84.1586 0.0000
# 6 0.0000 0.0000 0.0000 0.0000 0.0000 4.2056
#
#
#
# Elastic Compliance Matrix: (Units=1/GPa)
#
#
# Indices 1 2 3 4 5 6 
#
# 1 0.014677 -0.000030 -0.002573 0.000000 0.000000 0.000000
# 2 -0.000030 0.007987 -0.000305 0.000000 0.000000 0.000000
# 3 -0.002573 -0.000305 0.002885 0.000000 0.000000 0.000000
# 4 0.000000 0.000000 0.000000 0.360745 0.000000 0.000000
# 5 0.000000 0.000000 0.000000 0.000000 0.011882 0.000000
# 6 0.000000 0.000000 0.000000 0.000000 0.000000 0.237780
#
#
# Mechanical properties :
#
#
# Convention : Reuss Voigt Hill
#
# Bulk Modulus (GPa) = 50.67445 89.17383 69.92414
# Shear Modulus (GPa) = 7.71189 53.42756 30.56972
#
# Velocity S-wave (km/s) = 1.64429 4.32794 3.27374
# Velocity P-wave (km/s) = 4.62286 7.49921 6.22932
#
# Compressibility (1/GPa) = 0.01973381
#
# Stress axis : x y z
#
# Youngs Moduli (GPa) = 68.13246 125.20682 346.60059
#
# Poissons Ratio (x) = 0.00371 0.89173
# Poissons Ratio (y) = 0.00202 0.10581
# Poissons Ratio (z) = 0.17529 0.03822
#
# Static dielectric constant tensor:
#      x y z
#    x 2.322210 0.000000 0.000000 
#    y 0.000000 2.095010 0.000000 
#    z 0.000000 0.000000 2.320460 
# 
# From -- ./inp_files/32340.got.cif
#   From: 2010.05.17/outbox.cif.g08.bks.cpg/sg62_17_cif.got.tgz:32340.got - 2010.06.03 15:25:27.
