data_PCOD9467006
_publ_section_title
;
Structure prediction by ZEFSAII (Michael W. Deem and Ramdas Pophale) SiO2 
 PCOD9467006
Probable space group: P N M A
;
_chemical_formula_sum "Si O2"
_cell_formula_units_Z 48
_cell_length_a 25.958240
_cell_length_b 8.833780
_cell_length_c 9.856258
_cell_angle_alpha 90.000000
_cell_angle_beta 90.000000
_cell_angle_gamma 90.000000
_cell_volume 2260.132424
_symmetry_space_group_name_H-M "P N M A"
_symmetry_group_IT_number 62
_symmetry_cell_setting 'orthorhombic'
loop_
_space_group_symop_operation_xyz
x,y,z
1/2-x,-y,1/2+z
1/2+x,1/2-y,1/2-z
-x,1/2+y,-z
-x,-y,-z
1/2+x,y,1/2-z
1/2-x,1/2+y,1/2+z
x,1/2-y,z
loop_
_atom_site_type_symbol
_atom_site_label
_atom_site_fract_x
_atom_site_fract_y
_atom_site_fract_z
Si Si1 0.421618 0.573641 0.973431
Si Si2 0.927874 0.430475 0.230333
Si Si3 0.633119 0.931555 0.471231
Si Si4 0.533455 0.570501 0.287973
Si Si5 0.767060 0.569650 0.830522
Si Si6 0.199091 0.072932 0.458499
O O1 0.437139 0.750000 0.966066
O O2 0.454108 0.476425 0.867025
O O3 0.361604 0.561747 0.932347
O O4 0.424401 0.513844 0.126269
O O5 0.926241 0.250000 0.249408
O O6 0.883420 0.473791 0.123806
O O7 0.983047 0.478393 0.168766
O O8 0.640585 0.750000 0.467465
O O9 0.583983 0.966925 0.375940
O O10 0.683905 0.009177 0.414162
O O11 0.524019 0.750000 0.298120
O O12 0.769126 0.750000 0.825890
O O13 0.716755 0.515700 0.909239
O O14 0.771822 0.514950 0.675601
O O15 0.211676 0.250000 0.478844
#
# Coordination Sequence:
#
# PCOD9467006 Si02
#       6
#     8   8   8   8   8   8
#     4  11  23  42  64  89 125 164 206 256 303 361
#     4  11  24  40  61  92 127 164 205 253 304 362
#     4  10  23  42  64  91 126 162 203 255 307 362
#     4  11  22  40  65  92 122 163 208 252 308 365
#     4  11  24  42  67  94 122 161 204 251 307 365
#     4  10  24  44  64  92 126 160 202 253 307 363
#
# _framework density 21.237694000000001
#
# number of rings (size 3 to 8) (size 9 to 14) (size 15 to 20)
#    0.000    1.333    1.667    3.000    2.333    4.667 
#    0.000    0.000    0.000    0.000    0.000    0.000 
#    0.000    0.000    0.000    0.000    0.000    0.000 
#
# Total GULP energy -268597.177102 kJ/mol
# GULP energy per Si atom -5595.774523 kJ/mol
# Density = 2.118936 g / cm^3
# Si number density = 21.237694 Si / 1000 Ang^3
#
#
#
# Elastic Constant Matrix: (Units=GPa)
#
#
# Indices 1 2 3 4 5 6 
#
# 1 17.1681 1.5060 -5.6214 0.0000 0.0000 0.0000
# 2 1.5060 24.6524 5.2762 0.0000 0.0000 0.0000
# 3 -5.6214 5.2762 75.2245 0.0000 0.0000 0.0000
# 4 0.0000 0.0000 0.0000 24.2632 0.0000 0.0000
# 5 0.0000 0.0000 0.0000 0.0000 36.8364 0.0000
# 6 0.0000 0.0000 0.0000 0.0000 0.0000 37.4685
#
#
#
# Elastic Compliance Matrix: (Units=1/GPa)
#
#
# Indices 1 2 3 4 5 6 
#
# 1 0.060243 -0.004714 0.004833 0.000000 0.000000 0.000000
# 2 -0.004714 0.041551 -0.003267 0.000000 0.000000 0.000000
# 3 0.004833 -0.003267 0.013884 0.000000 0.000000 0.000000
# 4 0.000000 0.000000 0.000000 0.041215 0.000000 0.000000
# 5 0.000000 0.000000 0.000000 0.000000 0.027147 0.000000
# 6 0.000000 0.000000 0.000000 0.000000 0.000000 0.026689
#
#
# Mechanical properties :
#
#
# Convention : Reuss Voigt Hill
#
# Bulk Modulus (GPa) = 9.14234 13.26295 11.20264
# Shear Modulus (GPa) = 19.72490 27.43924 23.58207
#
# Velocity S-wave (km/s) = 3.05088 3.59835 3.33586
# Velocity P-wave (km/s) = 4.08957 4.85002 4.48594
#
# Compressibility (1/GPa) = 0.10938122
#
# Stress axis : x y z
#
# Youngs Moduli (GPa) = 16.59932 24.06675 72.02635
#
# Poissons Ratio (x) = 0.11346 -0.34807
# Poissons Ratio (y) = 0.07826 0.23529
# Poissons Ratio (z) = -0.08022 0.07862
#
# Static dielectric constant tensor:
#      x y z
#    x 1.777130 0.000000 0.000000 
#    y 0.000000 1.707180 0.000000 
#    z 0.000000 0.000000 1.765850 
# 
# From -- ./inp_files/10181.got.cif
#   From: 2010.05.17/outbox.cif.g08.bks.cpg/sg62_6_cif.got.tgz:10181.got - 2010.06.03 15:25:27.
