data_PCOD9467010
_publ_section_title
;
Structure prediction by ZEFSAII (Michael W. Deem and Ramdas Pophale) SiO2 
 PCOD9467010
Probable space group: P N M A
;
_chemical_formula_sum "Si O2"
_cell_formula_units_Z 36
_cell_length_a 5.011972
_cell_length_b 10.795797
_cell_length_c 25.354577
_cell_angle_alpha 90.000000
_cell_angle_beta 90.000000
_cell_angle_gamma 90.000000
_cell_volume 1371.891342
_symmetry_space_group_name_H-M "P N M A"
_symmetry_group_IT_number 62
_symmetry_cell_setting 'orthorhombic'
loop_
_space_group_symop_operation_xyz
x,y,z
1/2-x,-y,1/2+z
1/2+x,1/2-y,1/2-z
-x,1/2+y,-z
-x,-y,-z
1/2+x,y,1/2-z
1/2-x,1/2+y,1/2+z
x,1/2-y,z
loop_
_atom_site_type_symbol
_atom_site_label
_atom_site_fract_x
_atom_site_fract_y
_atom_site_fract_z
Si Si1 0.692869 0.250000 0.285907
Si Si2 0.733007 0.114509 0.045070
Si Si3 0.205094 0.391628 0.786894
Si Si4 0.574393 0.537751 0.858112
Si Si5 0.878990 0.386800 0.931815
O O1 0.393040 0.250000 0.264358
O O2 0.768697 0.368585 0.320921
O O3 0.863070 0.250000 0.054486
O O4 0.495962 0.104297 0.086759
O O5 0.679253 0.111833 0.982400
O O6 0.918046 0.997672 0.057446
O O7 0.417533 0.406726 0.739092
O O8 0.230483 0.250000 0.806261
O O9 0.307866 0.489924 0.829328
O O10 0.734567 0.417267 0.877311
O O11 0.001835 0.250000 0.930774
#
# Coordination Sequence:
#
# PCOD9467010 Si02
#       5
#     4   8   8   8   8
#     4  12  30  48  74 114 152 202 262 324 380 468
#     4  10  23  44  69 104 145 195 249 312 384 461
#     4  10  23  42  64  95 135 181 234 302 367 436
#     4  12  24  41  71  99 140 193 246 312 374 459
#     4  10  24  43  69 106 148 191 250 313 385 465
#
# _framework density 26.241143999999998
#
# number of rings (size 3 to 8) (size 9 to 14) (size 15 to 20)
#    0.000    1.333    1.111    2.667    7.778    1.778 
#    0.000    0.000    0.000    0.000    0.000    0.000 
#    0.000    0.000    0.000    0.000    0.000    0.000 
#
# Total GULP energy -201824.000346 kJ/mol
# GULP energy per Si atom -5606.222232 kJ/mol
# Density = 2.618142 g / cm^3
# Si number density = 26.241144 Si / 1000 Ang^3
#
#
#
# Elastic Constant Matrix: (Units=GPa)
#
#
# Indices 1 2 3 4 5 6 
#
# 1 53.1891 27.3946 20.3487 0.0000 0.0000 0.0000
# 2 27.3946 194.6995 44.4279 0.0000 0.0000 0.0000
# 3 20.3487 44.4279 126.2220 0.0000 0.0000 0.0000
# 4 0.0000 0.0000 0.0000 33.9059 0.0000 0.0000
# 5 0.0000 0.0000 0.0000 0.0000 41.5022 0.0000
# 6 0.0000 0.0000 0.0000 0.0000 0.0000 23.4738
#
#
#
# Elastic Compliance Matrix: (Units=1/GPa)
#
#
# Indices 1 2 3 4 5 6 
#
# 1 0.020998 -0.002373 -0.002550 0.000000 0.000000 0.000000
# 2 -0.002373 0.005853 -0.001678 0.000000 0.000000 0.000000
# 3 -0.002550 -0.001678 0.008924 0.000000 0.000000 0.000000
# 4 0.000000 0.000000 0.000000 0.029493 0.000000 0.000000
# 5 0.000000 0.000000 0.000000 0.000000 0.024095 0.000000
# 6 0.000000 0.000000 0.000000 0.000000 0.000000 0.042601
#
#
# Mechanical properties :
#
#
# Convention : Reuss Voigt Hill
#
# Bulk Modulus (GPa) = 44.29730 62.05033 53.17381
# Shear Modulus (GPa) = 32.74609 38.57236 35.65922
#
# Velocity S-wave (km/s) = 3.53638 3.83811 3.69033
# Velocity P-wave (km/s) = 5.79588 6.58324 6.20206
#
# Compressibility (1/GPa) = 0.02257474
#
# Stress axis : x y z
#
# Youngs Moduli (GPa) = 47.62253 170.85979 112.05569
#
# Poissons Ratio (x) = 0.40539 0.28576
# Poissons Ratio (y) = 0.11299 0.18798
# Poissons Ratio (z) = 0.12144 0.28663
#
# Static dielectric constant tensor:
#      x y z
#    x 2.063030 0.000000 0.000000 
#    y 0.000000 2.057970 0.000000 
#    z 0.000000 0.000000 2.058820 
# 
# From -- ./inp_files/28154.got.cif
#   From: 2010.05.17/outbox.cif.g08.bks.cpg/sg62_15_cif.got.tgz:28154.got - 2010.06.03 15:25:27.
