data_PCOD9467297
_publ_section_title
;
Structure prediction by ZEFSAII (Michael W. Deem and Ramdas Pophale) SiO2 
 PCOD9467297
Probable space group: P N M A
;
_chemical_formula_sum "Si O2"
_cell_formula_units_Z 48
_cell_length_a 30.554328
_cell_length_b 8.204368
_cell_length_c 10.480411
_cell_angle_alpha 90.000000
_cell_angle_beta 90.000000
_cell_angle_gamma 90.000000
_cell_volume 2627.218435
_symmetry_space_group_name_H-M "P N M A"
_symmetry_group_IT_number 62
_symmetry_cell_setting 'orthorhombic'
loop_
_space_group_symop_operation_xyz
x,y,z
1/2-x,-y,1/2+z
1/2+x,1/2-y,1/2-z
-x,1/2+y,-z
-x,-y,-z
1/2+x,y,1/2-z
1/2-x,1/2+y,1/2+z
x,1/2-y,z
loop_
_atom_site_type_symbol
_atom_site_label
_atom_site_fract_x
_atom_site_fract_y
_atom_site_fract_z
Si Si1 0.975290 0.056304 0.125539
Si Si2 0.382846 0.051779 0.978681
Si Si3 0.384595 0.448637 0.274419
Si Si4 0.026604 0.554405 0.375254
Si Si5 0.713991 0.553325 0.722457
Si Si6 0.784365 0.446690 0.515042
O O1 0.971981 0.250000 0.120556
O O2 0.925629 0.991684 0.143475
O O3 0.002959 0.009577 0.249939
O O4 0.000000 0.000000 0.000000
O O5 0.382490 0.250000 0.974531
O O6 0.392046 0.006886 0.126072
O O7 0.333563 0.997216 0.948047
O O8 0.423175 0.996407 0.892251
O O9 0.384256 0.250000 0.278877
O O10 0.335595 0.502490 0.309662
O O11 0.026809 0.750000 0.370934
O O12 0.000000 0.500000 0.500000
O O13 0.713445 0.750000 0.724717
O O14 0.748722 0.499894 0.617454
O O15 0.724121 0.499148 0.868340
O O16 0.785030 0.250000 0.512772
#
# Coordination Sequence:
#
# PCOD9467297 Si02
#       6
#     8   8   8   8   8   8
#     4  11  22  38  56  78 110 145 181 222 268 320
#     4   8  15  31  55  78 100 135 178 214 255 316
#     4   8  15  32  56  75  98 140 181 209 252 320
#     4  11  20  34  58  84 108 139 180 222 264 314
#     4   9  18  34  56  78 102 135 176 216 258 312
#     4   9  18  34  55  77 104 136 174 216 259 311
#
# _framework density 18.270273
#
# number of rings (size 3 to 8) (size 9 to 14) (size 15 to 20)
#    0.000    2.667    1.667    3.000    0.000    0.667 
#    3.000    3.333    0.000    0.000    0.000    0.000 
#    0.000    0.000    0.000    0.000    0.000    0.000 
#
# Total GULP energy -267561.709804 kJ/mol
# GULP energy per Si atom -5574.202288 kJ/mol
# Density = 1.822869 g / cm^3
# Si number density = 18.270273 Si / 1000 Ang^3
#
#
#
# Elastic Constant Matrix: (Units=GPa)
#
#
# Indices 1 2 3 4 5 6 
#
# 1 185.8800 15.5923 102.2992 0.0000 0.0000 0.0000
# 2 15.5923 15.1036 11.9516 0.0000 0.0000 0.0000
# 3 102.2992 11.9516 121.0156 0.0000 0.0000 0.0000
# 4 0.0000 0.0000 0.0000 30.5464 0.0000 0.0000
# 5 0.0000 0.0000 0.0000 0.0000 35.3255 0.0000
# 6 0.0000 0.0000 0.0000 0.0000 0.0000 25.9091
#
#
#
# Elastic Compliance Matrix: (Units=1/GPa)
#
#
# Indices 1 2 3 4 5 6 
#
# 1 0.010284 -0.004054 -0.008293 0.000000 0.000000 0.000000
# 2 -0.004054 0.073421 -0.003824 0.000000 0.000000 0.000000
# 3 -0.008293 -0.003824 0.015651 0.000000 0.000000 0.000000
# 4 0.000000 0.000000 0.000000 0.032737 0.000000 0.000000
# 5 0.000000 0.000000 0.000000 0.000000 0.028308 0.000000
# 6 0.000000 0.000000 0.000000 0.000000 0.000000 0.038596
#
#
# Mechanical properties :
#
#
# Convention : Reuss Voigt Hill
#
# Bulk Modulus (GPa) = 14.92231 64.63170 39.77701
# Shear Modulus (GPa) = 19.71001 31.16660 25.43830
#
# Velocity S-wave (km/s) = 3.28808 4.13469 3.73545
# Velocity P-wave (km/s) = 4.75400 7.63193 6.35794
#
# Compressibility (1/GPa) = 0.06701377
#
# Stress axis : x y z
#
# Youngs Moduli (GPa) = 97.23837 13.62015 63.89175
#
# Poissons Ratio (x) = 0.05522 0.52986
# Poissons Ratio (y) = 0.39425 0.24430
# Poissons Ratio (z) = 0.80640 0.05208
#
# Static dielectric constant tensor:
#      x y z
#    x 1.660610 0.000000 0.000000 
#    y 0.000000 1.651280 0.000000 
#    z 0.000000 0.000000 1.590040 
# 
# From -- ./inp_files/10134.got.cif
#   From: 2010.05.17/outbox.cif.g08.bks.cpg/sg62_6_cif.got.tgz:10134.got - 2010.06.03 15:25:27.
