data_PCOD9467710
_publ_section_title
;
Structure prediction by ZEFSAII (Michael W. Deem and Ramdas Pophale) SiO2 
 PCOD9467710
Probable space group: P N M A
;
_chemical_formula_sum "Si O2"
_cell_formula_units_Z 40
_cell_length_a 6.994534
_cell_length_b 10.112506
_cell_length_c 26.121027
_cell_angle_alpha 90.000000
_cell_angle_beta 90.000000
_cell_angle_gamma 90.000000
_cell_volume 1847.599457
_symmetry_space_group_name_H-M "P N M A"
_symmetry_group_IT_number 62
_symmetry_cell_setting 'orthorhombic'
loop_
_space_group_symop_operation_xyz
x,y,z
1/2-x,-y,1/2+z
1/2+x,1/2-y,1/2-z
-x,1/2+y,-z
-x,-y,-z
1/2+x,y,1/2-z
1/2-x,1/2+y,1/2+z
x,1/2-y,z
loop_
_atom_site_type_symbol
_atom_site_label
_atom_site_fract_x
_atom_site_fract_y
_atom_site_fract_z
Si Si1 0.601678 0.750000 0.676430
Si Si2 0.152938 0.250000 0.598036
Si Si3 0.240733 0.750000 0.983319
Si Si4 0.329100 0.463200 0.401696
Si Si5 0.043887 0.750000 0.705594
Si Si6 0.191133 0.750000 0.545766
Si Si7 0.123343 0.962943 0.627835
Si Si8 0.698260 0.250000 0.568175
O O1 0.564747 0.879937 0.642342
O O2 0.525961 0.750000 0.733697
O O3 0.829750 0.750000 0.684428
O O4 0.265689 0.250000 0.544183
O O5 0.187866 0.385949 0.628097
O O6 0.925929 0.250000 0.582769
O O7 0.161201 0.621493 0.953951
O O8 0.468053 0.750000 0.970380
O O9 0.384213 0.614141 0.409895
O O10 0.103809 0.464937 0.386102
O O11 0.141184 0.878514 0.679897
O O12 0.215081 0.878748 0.581317
O O13 0.308129 0.750000 0.493516
#
# Coordination Sequence:
#
# PCOD9467710 Si02
#       8
#     4   4   4   8   4   4   8   4
#     4   9  17  30  44  56  74 101 132 164 196 228
#     4   9  13  18  31  52  79 106 126 148 186 233
#     4   8  12  18  29  48  77 109 130 144 177 233
#     4   8  14  22  33  52  77 102 127 156 189 226
#     4   9  17  30  44  56  74 101 132 164 196 228
#     4   8  12  18  29  48  77 109 130 144 177 233
#     4   8  14  22  33  52  77 102 127 156 189 226
#     4   9  13  18  31  52  79 106 126 148 186 233
#
# _framework density 21.649716000000002
#
# number of rings (size 3 to 8) (size 9 to 14) (size 15 to 20)
#    0.000    3.600    0.000    3.600    0.000    4.800 
#    0.000    1.000    0.000    0.000    0.000    0.000 
#    0.000   25.600    0.000    0.000    0.000    0.000 
#
# Total GULP energy -223494.066157 kJ/mol
# GULP energy per Si atom -5587.351654 kJ/mol
# Density = 2.160044 g / cm^3
# Si number density = 21.649716 Si / 1000 Ang^3
#
#
#
# Elastic Constant Matrix: (Units=GPa)
#
#
# Indices 1 2 3 4 5 6 
#
# 1 81.3249 15.8860 23.1000 0.0000 0.0000 0.0000
# 2 15.8860 242.8163 100.7308 0.0000 0.0000 0.0000
# 3 23.1000 100.7308 140.1440 0.0000 0.0000 0.0000
# 4 0.0000 0.0000 0.0000 5.6677 0.0000 0.0000
# 5 0.0000 0.0000 0.0000 0.0000 29.7659 0.0000
# 6 0.0000 0.0000 0.0000 0.0000 0.0000 -0.3174
#
#
#
# Elastic Compliance Matrix: (Units=1/GPa)
#
#
# Indices 1 2 3 4 5 6 
#
# 1 0.012901 0.000054 -0.002166 0.000000 0.000000 0.000000
# 2 0.000054 0.005868 -0.004227 0.000000 0.000000 0.000000
# 3 -0.002166 -0.004227 0.010531 0.000000 0.000000 0.000000
# 4 0.000000 0.000000 0.000000 0.176437 0.000000 0.000000
# 5 0.000000 0.000000 0.000000 0.000000 0.033595 0.000000
# 6 0.000000 0.000000 0.000000 0.000000 0.000000 -3.151029
#
#
# Mechanical properties :
#
#
# Convention : Reuss Voigt Hill
#
# Bulk Modulus (GPa) = 60.15539 82.63544 71.39541
# Shear Modulus (GPa) = -1.72802 28.66115 13.46656
#
# Velocity S-wave (km/s) = -0.89437 3.64243 2.49674
# Velocity P-wave (km/s) = 5.17490 7.47943 6.43123
#
# Compressibility (1/GPa) = 0.01662362
#
# Stress axis : x y z
#
# Youngs Moduli (GPa) = 77.51424 170.40775 94.96140
#
# Poissons Ratio (x) = -0.00926 0.20564
# Poissons Ratio (y) = -0.00421 0.40139
# Poissons Ratio (z) = 0.16786 0.72029
#
# Static dielectric constant tensor:
#      x y z
#    x 1.911540 0.000000 0.000000 
#    y 0.000000 1.759290 0.000000 
#    z 0.000000 0.000000 1.746360 
# 
# From -- ./inp_files/28677.got.cif
#   From: 2010.05.17/outbox.cif.g08.bks.cpg/sg62_15_cif.got.tgz:28677.got - 2010.06.03 15:25:27.
