data_PCOD9467729
_publ_section_title
;
Structure prediction by ZEFSAII (Michael W. Deem and Ramdas Pophale) SiO2 
 PCOD9467729
Probable space group: P N M A
;
_chemical_formula_sum "Si O2"
_cell_formula_units_Z 48
_cell_length_a 17.422619
_cell_length_b 7.494196
_cell_length_c 17.428334
_cell_angle_alpha 90.000000
_cell_angle_beta 90.000000
_cell_angle_gamma 90.000000
_cell_volume 2275.591805
_symmetry_space_group_name_H-M "P N M A"
_symmetry_group_IT_number 62
_symmetry_cell_setting 'orthorhombic'
loop_
_space_group_symop_operation_xyz
x,y,z
1/2-x,-y,1/2+z
1/2+x,1/2-y,1/2-z
-x,1/2+y,-z
-x,-y,-z
1/2+x,y,1/2-z
1/2-x,1/2+y,1/2+z
x,1/2-y,z
loop_
_atom_site_type_symbol
_atom_site_label
_atom_site_fract_x
_atom_site_fract_y
_atom_site_fract_z
Si Si1 0.100633 0.459227 0.923724
Si Si2 0.427501 0.466473 0.594602
Si Si3 0.108859 0.967958 0.261495
Si Si4 0.739874 0.956949 0.124506
Si Si5 0.006073 0.032795 0.614351
Si Si6 0.870751 0.545252 0.494325
O O1 0.097389 0.250000 0.903798
O O2 0.175534 0.537166 0.882785
O O3 0.016057 0.531553 0.905879
O O4 0.110255 0.473761 0.015470
O O5 0.428123 0.250000 0.592898
O O6 0.388783 0.524330 0.673638
O O7 0.110322 0.750000 0.262961
O O8 0.179326 0.032819 0.314179
O O9 0.028560 0.017582 0.303303
O O10 0.748951 0.750000 0.145782
O O11 0.698839 0.960430 0.040997
O O12 0.006309 0.250000 0.609659
O O13 0.089130 0.972747 0.583185
O O14 0.941420 0.965609 0.554898
O O15 0.849080 0.750000 0.480910
#
# Coordination Sequence:
#
# PCOD9467729 Si02
#       6
#     8   8   8   8   8   8
#     4   9  18  32  49  67  88 118 152 183 223 273
#     4   9  17  31  51  70  87 112 151 193 224 258
#     4   8  14  27  47  68  89 115 147 184 225 266
#     4   9  17  30  46  64  91 124 151 180 225 276
#     4   8  14  25  40  60  89 121 149 178 218 268
#     4   9  15  23  39  64  90 118 152 184 215 257
#
# _framework density 21.093416000000001
#
# number of rings (size 3 to 8) (size 9 to 14) (size 15 to 20)
#    0.000    3.333    0.000    1.500    0.000    1.333 
#    0.000    5.000    0.000    6.000    0.000    4.667 
#    0.000    0.000    0.000    0.000    0.000    0.000 
#
# Total GULP energy -267226.026275 kJ/mol
# GULP energy per Si atom -5567.208881 kJ/mol
# Density = 2.104541 g / cm^3
# Si number density = 21.093416 Si / 1000 Ang^3
#
#
#
# Elastic Constant Matrix: (Units=GPa)
#
#
# Indices 1 2 3 4 5 6 
#
# 1 75.5232 -1.5745 29.4452 0.0000 0.0000 0.0000
# 2 -1.5745 56.6306 -6.9719 0.0000 0.0000 0.0000
# 3 29.4452 -6.9719 52.9947 0.0000 0.0000 0.0000
# 4 0.0000 0.0000 0.0000 14.5698 0.0000 0.0000
# 5 0.0000 0.0000 0.0000 0.0000 10.3345 0.0000
# 6 0.0000 0.0000 0.0000 0.0000 0.0000 7.7388
#
#
#
# Elastic Compliance Matrix: (Units=1/GPa)
#
#
# Indices 1 2 3 4 5 6 
#
# 1 0.016930 -0.000699 -0.009499 0.000000 0.000000 0.000000
# 2 -0.000699 0.017978 0.002753 0.000000 0.000000 0.000000
# 3 -0.009499 0.002753 0.024510 0.000000 0.000000 0.000000
# 4 0.000000 0.000000 0.000000 0.068635 0.000000 0.000000
# 5 0.000000 0.000000 0.000000 0.000000 0.096764 0.000000
# 6 0.000000 0.000000 0.000000 0.000000 0.000000 0.129219
#
#
# Mechanical properties :
#
#
# Convention : Reuss Voigt Hill
#
# Bulk Modulus (GPa) = 22.45700 25.21622 23.83661
# Shear Modulus (GPa) = 13.02876 17.47858 15.25367
#
# Velocity S-wave (km/s) = 2.48799 2.88171 2.69206
# Velocity P-wave (km/s) = 4.35006 4.80134 4.58126
#
# Compressibility (1/GPa) = 0.04452955
#
# Stress axis : x y z
#
# Youngs Moduli (GPa) = 59.06776 55.62406 40.80022
#
# Poissons Ratio (x) = 0.03886 0.38754
# Poissons Ratio (y) = 0.04127 -0.11234
# Poissons Ratio (z) = 0.56106 -0.15315
#
# Static dielectric constant tensor:
#      x y z
#    x 1.782690 0.000000 0.000000 
#    y 0.000000 2.047180 0.000000 
#    z 0.000000 0.000000 1.770870 
# 
# From -- ./inp_files/24226.got.cif
#   From: 2010.05.17/outbox.cif.g08.bks.cpg/sg62_13_cif.got.tgz:24226.got - 2010.06.03 15:25:27.
