data_PCOD9467932
_publ_section_title
;
Structure prediction by ZEFSAII (Michael W. Deem and Ramdas Pophale) SiO2 
 PCOD9467932
Probable space group: P N M A
;
_chemical_formula_sum "Si O2"
_cell_formula_units_Z 48
_cell_length_a 30.000000
_cell_length_b 9.000000
_cell_length_c 9.000000
_cell_angle_alpha 90.000000
_cell_angle_beta 90.000000
_cell_angle_gamma 90.000000
_cell_volume 2430.000000
_symmetry_space_group_name_H-M "P N M A"
_symmetry_group_IT_number 62
_symmetry_cell_setting 'orthorhombic'
loop_
_space_group_symop_operation_xyz
x,y,z
1/2-x,-y,1/2+z
1/2+x,1/2-y,1/2-z
-x,1/2+y,-z
-x,-y,-z
1/2+x,y,1/2-z
1/2-x,1/2+y,1/2+z
x,1/2-y,z
loop_
_atom_site_type_symbol
_atom_site_label
_atom_site_fract_x
_atom_site_fract_y
_atom_site_fract_z
Si Si1 0.885340 0.427934 0.882925
Si Si2 0.693155 0.072557 0.212474
Si Si3 0.938931 0.075220 0.375908
Si Si4 0.527948 0.574049 0.212046
Si Si5 0.861384 0.573290 0.196843
Si Si6 0.773238 0.572405 0.380968
O O1 0.881343 0.250000 0.884818
O O2 0.852592 0.494091 0.758260
O O3 0.936058 0.464991 0.837253
O O4 0.871183 0.493836 0.041154
O O5 0.687973 0.250000 0.220487
O O6 0.730062 0.016846 0.329553
O O7 0.709793 0.034253 0.046388
O O8 0.931431 0.250000 0.351769
O O9 0.948993 0.051314 0.550471
O O10 0.897297 0.983445 0.316257
O O11 0.983023 0.020544 0.289381
O O12 0.517210 0.750000 0.222582
O O13 0.865220 0.750000 0.177463
O O14 0.812671 0.541165 0.263662
O O15 0.763963 0.750000 0.378681
#
# Coordination Sequence:
#
# PCOD9467932 Si02
#       6
#     8   8   8   8   8   8
#     4  11  23  39  59  84 116 151 190 235 283 338
#     4  11  23  39  61  87 115 148 187 232 282 335
#     4  10  20  36  60  87 114 148 191 238 289 343
#     4   9  20  38  59  84 114 150 191 236 287 342
#     4  11  23  39  59  84 117 154 193 237 285 338
#     4  10  23  41  60  85 116 151 190 232 280 335
#
# _framework density 19.753086
#
# number of rings (size 3 to 8) (size 9 to 14) (size 15 to 20)
#    0.000    1.667    0.000    4.000    0.000    8.000 
#    0.000    0.000    0.000    0.000    0.000    0.000 
#    0.000    0.000    0.000    0.000    0.000    0.000 
#
# Total GULP energy -268452.029984 kJ/mol
# GULP energy per Si atom -5592.750625 kJ/mol
# Density = 1.970813 g / cm^3
# Si number density = 19.753086 Si / 1000 Ang^3
#
#
#
# Elastic Constant Matrix: (Units=GPa)
#
#
# Indices 1 2 3 4 5 6 
#
# 1 43.9073 10.5453 -30.8880 0.0000 0.0000 0.0000
# 2 10.5453 28.8390 -7.3380 0.0000 0.0000 0.0000
# 3 -30.8880 -7.3380 15.0303 0.0000 0.0000 0.0000
# 4 0.0000 0.0000 0.0000 32.1276 0.0000 0.0000
# 5 0.0000 0.0000 0.0000 0.0000 28.3214 0.0000
# 6 0.0000 0.0000 0.0000 0.0000 0.0000 32.0676
#
#
#
# Elastic Compliance Matrix: (Units=1/GPa)
#
#
# Indices 1 2 3 4 5 6 
#
# 1 -0.049060 -0.008808 -0.105121 0.000000 0.000000 0.000000
# 2 -0.008808 0.038012 0.000456 0.000000 0.000000 0.000000
# 3 -0.105121 0.000456 -0.149273 0.000000 0.000000 0.000000
# 4 0.000000 0.000000 0.000000 0.031126 0.000000 0.000000
# 5 0.000000 0.000000 0.000000 0.000000 0.035309 0.000000
# 6 0.000000 0.000000 0.000000 0.000000 0.000000 0.031184
#
#
# Mechanical properties :
#
#
# Convention : Reuss Voigt Hill
#
# Bulk Modulus (GPa) = -2.58220 3.60168 0.50974
# Shear Modulus (GPa) = 142.22718 26.20048 84.21383
#
# Velocity S-wave (km/s) = 8.49463 3.64593 6.53650
# Velocity P-wave (km/s) = 9.74175 4.42165 7.56481
#
# Compressibility (1/GPa) = -0.38726630
#
# Stress axis : x y z
#
# Youngs Moduli (GPa) = -20.38332 26.30730 -6.69912
#
# Poissons Ratio (x) = 0.23173 -0.70422
# Poissons Ratio (y) = -0.17955 0.00306
# Poissons Ratio (z) = -2.14271 -0.01200
#
# Static dielectric constant tensor:
#      x y z
#    x 1.680300 0.000000 0.000000 
#    y 0.000000 1.663290 0.000000 
#    z 0.000000 0.000000 1.683280 
# 
# From -- ./inp_files/10251.got.cif
#   From: 2010.05.17/outbox.ucp.g08.bks.cvg/sg62_6_cif.got.tgz:10251.got - 2010.06.11 16:29:25.
