data_PCOD9467770
_publ_section_title
;
Structure prediction by ZEFSAII (Michael W. Deem and Ramdas Pophale) SiO2 
 PCOD9467770
Probable space group: P N M A
;
_chemical_formula_sum "Si O2"
_cell_formula_units_Z 64
_cell_length_a 24.000000
_cell_length_b 9.000000
_cell_length_c 15.000000
_cell_angle_alpha 90.000000
_cell_angle_beta 90.000000
_cell_angle_gamma 90.000000
_cell_volume 3240.000000
_symmetry_space_group_name_H-M "P N M A"
_symmetry_group_IT_number 62
_symmetry_cell_setting 'orthorhombic'
loop_
_space_group_symop_operation_xyz
x,y,z
1/2-x,-y,1/2+z
1/2+x,1/2-y,1/2-z
-x,1/2+y,-z
-x,-y,-z
1/2+x,y,1/2-z
1/2-x,1/2+y,1/2+z
x,1/2-y,z
loop_
_atom_site_type_symbol
_atom_site_label
_atom_site_fract_x
_atom_site_fract_y
_atom_site_fract_z
Si Si1 0.611238 0.430764 0.645110
Si Si2 0.036292 0.073638 0.703440
Si Si3 0.636743 0.420783 0.453357
Si Si4 0.629357 0.073143 0.940314
Si Si5 0.927021 0.571924 0.623401
Si Si6 0.235357 0.920380 0.489532
Si Si7 0.272620 0.427075 0.311603
Si Si8 0.661435 0.431931 0.269207
O O1 0.615803 0.250000 0.645240
O O2 0.555835 0.472816 0.698182
O O3 0.611763 0.486434 0.543263
O O4 0.668083 0.492118 0.689014
O O5 0.025686 0.250000 0.702356
O O6 0.091913 0.046955 0.645604
O O7 0.983710 0.994603 0.660810
O O8 0.616800 0.250000 0.449231
O O9 0.703703 0.417349 0.466222
O O10 0.630297 0.490578 0.356813
O O11 0.641767 0.250000 0.946572
O O12 0.686007 0.981362 0.949174
O O13 0.589560 0.031081 0.023321
O O14 0.931330 0.750000 0.627080
O O15 0.875203 0.524996 0.684796
O O16 0.223428 0.750000 0.461615
O O17 0.243516 0.028348 0.405218
O O18 0.280465 0.250000 0.306006
O O19 0.225907 0.476080 0.240503
O O20 0.662064 0.250000 0.272877
#
# Coordination Sequence:
#
# PCOD9467770 Si02
#       8
#     8   8   8   8   8   8   8   8
#     4   9  19  36  53  75 107 140 176 218 265 315
#     4  10  22  37  54  75 106 144 178 222 274 315
#     4   8  16  31  51  74 104 138 172 208 255 313
#     4  10  20  35  52  75 108 142 174 216 267 317
#     4  10  20  36  55  75 102 135 180 226 263 314
#     4  10  19  31  51  79 110 140 173 211 257 318
#     4  10  18  31  53  77 107 140 173 214 262 312
#     4   9  17  31  52  77 103 135 173 216 260 304
#
# _framework density 19.753086
#
# number of rings (size 3 to 8) (size 9 to 14) (size 15 to 20)
#    0.000    2.500    1.250    1.875    1.750    1.500 
#    0.000    0.625    0.000    4.500    0.000    0.000 
#    0.000    0.000    0.000    0.000    0.000    0.000 
#
# Total GULP energy -356676.414422 kJ/mol
# GULP energy per Si atom -5573.068975 kJ/mol
# Density = 1.970813 g / cm^3
# Si number density = 19.753086 Si / 1000 Ang^3
#
#
#
# Elastic Constant Matrix: (Units=GPa)
#
#
# Indices 1 2 3 4 5 6 
#
# 1 5.6932 -3.1104 -22.9020 0.0000 0.0000 0.0000
# 2 -3.1104 6.1851 -3.7159 0.0000 0.0000 0.0000
# 3 -22.9020 -3.7159 49.6611 0.0000 0.0000 0.0000
# 4 0.0000 0.0000 0.0000 8.1287 0.0000 0.0000
# 5 0.0000 0.0000 0.0000 0.0000 -2.2454 0.0000
# 6 0.0000 0.0000 0.0000 0.0000 0.0000 22.5255
#
#
#
# Elastic Compliance Matrix: (Units=1/GPa)
#
#
# Indices 1 2 3 4 5 6 
#
# 1 -0.113534 -0.092718 -0.059296 0.000000 0.000000 0.000000
# 2 -0.092718 0.093571 -0.035757 0.000000 0.000000 0.000000
# 3 -0.059296 -0.035757 -0.009884 0.000000 0.000000 0.000000
# 4 0.000000 0.000000 0.000000 0.123021 0.000000 0.000000
# 5 0.000000 0.000000 0.000000 0.000000 -0.445361 0.000000
# 6 0.000000 0.000000 0.000000 0.000000 0.000000 0.044394
#
#
# Mechanical properties :
#
#
# Convention : Reuss Voigt Hill
#
# Bulk Modulus (GPa) = -2.46677 0.23143 -1.11767
# Shear Modulus (GPa) = -74.20597 11.76627 -31.21985
#
# Velocity S-wave (km/s) = -6.13582 2.44328 -3.97987
# Velocity P-wave (km/s) = 7.17282 2.84199 4.65684
#
# Compressibility (1/GPa) = -0.40538845
#
# Stress axis : x y z
#
# Youngs Moduli (GPa) = -8.80795 10.68706 -101.17302
#
# Poissons Ratio (x) = 0.99089 -5.99911
# Poissons Ratio (y) = -0.81666 -3.61764
# Poissons Ratio (z) = -0.52227 0.38214
#
# Static dielectric constant tensor:
#      x y z
#    x 1.659170 0.000000 0.000000 
#    y 0.000000 1.666550 0.000000 
#    z 0.000000 0.000000 1.780170 
# 
# From -- ./inp_files/20911.got.cif
#   From: 2010.05.17/outbox.ucp.g08.bks.cvg/sg62_11_cif.got.tgz:20911.got - 2010.06.11 16:29:25.
