data_PCOD9467376
_publ_section_title
;
Structure prediction by ZEFSAII (Michael W. Deem and Ramdas Pophale) SiO2 
 PCOD9467376
Probable space group: P N M A
;
_chemical_formula_sum "Si O2"
_cell_formula_units_Z 48
_cell_length_a 9.819628
_cell_length_b 8.236096
_cell_length_c 26.026919
_cell_angle_alpha 90.000000
_cell_angle_beta 90.000000
_cell_angle_gamma 90.000000
_cell_volume 2104.937456
_symmetry_space_group_name_H-M "P N M A"
_symmetry_group_IT_number 62
_symmetry_cell_setting 'orthorhombic'
loop_
_space_group_symop_operation_xyz
x,y,z
1/2-x,-y,1/2+z
1/2+x,1/2-y,1/2-z
-x,1/2+y,-z
-x,-y,-z
1/2+x,y,1/2-z
1/2-x,1/2+y,1/2+z
x,1/2-y,z
loop_
_atom_site_type_symbol
_atom_site_label
_atom_site_fract_x
_atom_site_fract_y
_atom_site_fract_z
Si Si1 0.709666 0.940319 0.580151
Si Si2 0.716298 0.441544 0.471625
Si Si3 0.446026 0.059070 0.626455
Si Si4 0.333766 0.440259 0.737389
Si Si5 0.434036 0.060569 0.198651
Si Si6 0.479226 0.448179 0.084322
O O1 0.709714 0.750000 0.592800
O O2 0.865046 0.002791 0.580422
O O3 0.662128 0.965858 0.521342
O O4 0.606007 0.028894 0.617908
O O5 0.718423 0.250000 0.483329
O O6 0.629716 0.469540 0.420215
O O7 0.869788 0.500592 0.457946
O O8 0.416216 0.250000 0.622002
O O9 0.393164 0.004143 0.682039
O O10 0.362121 0.250000 0.743571
O O11 0.413759 0.534524 0.781277
O O12 0.173151 0.469716 0.734574
O O13 0.399651 0.250000 0.199523
O O14 0.424565 0.000802 0.140221
O O15 0.480191 0.250000 0.083253
#
# Coordination Sequence:
#
# PCOD9467376 Si02
#       6
#     8   8   8   8   8   8
#     4  11  23  39  61  92 127 163 207 256 307 368
#     4  11  21  40  65  90 123 162 208 258 309 367
#     4  11  24  42  62  89 125 166 208 252 309 370
#     4  11  25  44  65  95 130 164 205 261 321 374
#     4  11  23  43  69  96 124 165 213 256 310 377
#     4   9  21  40  63  92 124 159 204 254 305 365
#
# _framework density 22.803529000000001
#
# number of rings (size 3 to 8) (size 9 to 14) (size 15 to 20)
#    0.000    1.333    1.667    3.500    2.333    2.000 
#    0.000    5.000    0.000    0.000    0.000    0.000 
#    0.000    0.000    0.000    0.000    0.000    0.000 
#
# Total GULP energy -268628.492316 kJ/mol
# GULP energy per Si atom -5596.426923 kJ/mol
# Density = 2.275163 g / cm^3
# Si number density = 22.803529 Si / 1000 Ang^3
#
#
#
# Elastic Constant Matrix: (Units=GPa)
#
#
# Indices 1 2 3 4 5 6 
#
# 1 73.9480 -6.5931 -14.3447 0.0000 0.0000 0.0000
# 2 -6.5931 29.6796 0.1034 0.0000 0.0000 0.0000
# 3 -14.3447 0.1034 31.2308 0.0000 0.0000 0.0000
# 4 0.0000 0.0000 0.0000 16.3365 0.0000 0.0000
# 5 0.0000 0.0000 0.0000 0.0000 38.4714 0.0000
# 6 0.0000 0.0000 0.0000 0.0000 0.0000 30.3776
#
#
#
# Elastic Compliance Matrix: (Units=1/GPa)
#
#
# Indices 1 2 3 4 5 6 
#
# 1 0.015171 0.003346 0.006957 0.000000 0.000000 0.000000
# 2 0.003346 0.034431 0.001423 0.000000 0.000000 0.000000
# 3 0.006957 0.001423 0.035210 0.000000 0.000000 0.000000
# 4 0.000000 0.000000 0.000000 0.061213 0.000000 0.000000
# 5 0.000000 0.000000 0.000000 0.000000 0.025993 0.000000
# 6 0.000000 0.000000 0.000000 0.000000 0.000000 0.032919
#
#
# Mechanical properties :
#
#
# Convention : Reuss Voigt Hill
#
# Bulk Modulus (GPa) = 9.23666 10.35441 9.79554
# Shear Modulus (GPa) = 22.98065 27.41662 25.19864
#
# Velocity S-wave (km/s) = 3.17798 3.47118 3.32781
# Velocity P-wave (km/s) = 4.18633 4.54048 4.36700
#
# Compressibility (1/GPa) = 0.10826421
#
# Stress axis : x y z
#
# Youngs Moduli (GPa) = 65.91574 29.04318 28.40065
#
# Poissons Ratio (x) = -0.09717 -0.19759
# Poissons Ratio (y) = -0.22054 -0.04041
# Poissons Ratio (z) = -0.45858 -0.04132
#
# Static dielectric constant tensor:
#      x y z
#    x 1.878660 0.000000 0.000000 
#    y 0.000000 1.770540 0.000000 
#    z 0.000000 0.000000 1.819890 
# 
# From -- ./inp_files/32019.got.cif
#   From: 2010.05.17/outbox.cif.g08.bks.cpg/sg62_17_cif.got.tgz:32019.got - 2010.06.03 15:25:27.
