data_PCOD9467367
_publ_section_title
;
Structure prediction by ZEFSAII (Michael W. Deem and Ramdas Pophale) SiO2 
 PCOD9467367
Probable space group: P N M A
;
_chemical_formula_sum "Si O2"
_cell_formula_units_Z 48
_cell_length_a 10.120516
_cell_length_b 14.216784
_cell_length_c 13.227263
_cell_angle_alpha 90.000000
_cell_angle_beta 90.000000
_cell_angle_gamma 90.000000
_cell_volume 1903.154340
_symmetry_space_group_name_H-M "P N M A"
_symmetry_group_IT_number 62
_symmetry_cell_setting 'orthorhombic'
loop_
_space_group_symop_operation_xyz
x,y,z
1/2-x,-y,1/2+z
1/2+x,1/2-y,1/2-z
-x,1/2+y,-z
-x,-y,-z
1/2+x,y,1/2-z
1/2-x,1/2+y,1/2+z
x,1/2-y,z
loop_
_atom_site_type_symbol
_atom_site_label
_atom_site_fract_x
_atom_site_fract_y
_atom_site_fract_z
Si Si1 0.580909 0.578145 0.728760
Si Si2 0.187219 0.750000 0.635639
Si Si3 0.454604 0.750000 0.010344
Si Si4 0.112711 0.250000 0.961140
Si Si5 0.180318 0.959433 0.267735
Si Si6 0.863953 0.250000 0.690997
Si Si7 0.642719 0.045480 0.018994
Si Si8 0.914440 0.408995 0.997313
O O1 0.638107 0.659642 0.801244
O O2 0.671565 0.489620 0.759146
O O3 0.431634 0.537219 0.736241
O O4 0.607306 0.615995 0.615529
O O5 0.329677 0.750000 0.578582
O O6 0.096302 0.750000 0.538740
O O7 0.386094 0.656474 0.969245
O O8 0.496245 0.750000 0.128249
O O9 0.011219 0.335166 0.947765
O O10 0.231192 0.250000 0.880185
O O11 0.144089 0.850525 0.252278
O O12 0.186132 0.978941 0.389112
O O13 0.774763 0.057563 0.951244
O O14 0.500000 0.000000 0.000000
O O15 0.000000 0.500000 0.000000
#
# Coordination Sequence:
#
# PCOD9467367 Si02
#       8
#     8   4   4   4   8   4   8   8
#     4  11  24  42  65 100 134 177 217 284 343 415
#     4  11  23  38  73 101 133 171 219 280 360 420
#     4  11  21  38  70  98 127 174 225 278 338 394
#     4  11  22  43  65  99 135 172 219 280 352 402
#     4  11  24  42  65  95 135 172 230 273 340 400
#     4  11  24  43  68  94 125 185 231 282 322 410
#     4  11  22  40  68  98 133 174 228 282 330 414
#     4  11  25  42  66  97 137 174 218 278 347 407
#
# _framework density 25.221287
#
# number of rings (size 3 to 8) (size 9 to 14) (size 15 to 20)
#    0.000    1.000    3.333    4.000    2.333    4.667 
#    0.000    0.833    0.000    0.000    0.000    0.000 
#    0.000    0.000    0.000    0.000    0.000    0.000 
#
# Total GULP energy -267689.161932 kJ/mol
# GULP energy per Si atom -5576.857540 kJ/mol
# Density = 2.516388 g / cm^3
# Si number density = 25.221287 Si / 1000 Ang^3
#
#
#
# Elastic Constant Matrix: (Units=GPa)
#
#
# Indices 1 2 3 4 5 6 
#
# 1 160.1415 31.1790 9.7707 0.0000 0.0000 0.0000
# 2 31.1790 168.0781 -10.9641 0.0000 0.0000 0.0000
# 3 9.7707 -10.9641 45.3304 0.0000 0.0000 0.0000
# 4 0.0000 0.0000 0.0000 7.5386 0.0000 0.0000
# 5 0.0000 0.0000 0.0000 0.0000 14.7739 0.0000
# 6 0.0000 0.0000 0.0000 0.0000 0.0000 -27.2358
#
#
#
# Elastic Compliance Matrix: (Units=1/GPa)
#
#
# Indices 1 2 3 4 5 6 
#
# 1 0.006612 -0.001341 -0.001750 0.000000 0.000000 0.000000
# 2 -0.001341 0.006317 0.001817 0.000000 0.000000 0.000000
# 3 -0.001750 0.001817 0.022877 0.000000 0.000000 0.000000
# 4 0.000000 0.000000 0.000000 0.132651 0.000000 0.000000
# 5 0.000000 0.000000 0.000000 0.000000 0.067687 0.000000
# 6 0.000000 0.000000 0.000000 0.000000 0.000000 -0.036716
#
#
# Mechanical properties :
#
#
# Convention : Reuss Voigt Hill
#
# Bulk Modulus (GPa) = 30.06695 48.16902 39.11799
# Shear Modulus (GPa) = 23.46755 21.91964 22.69360
#
# Velocity S-wave (km/s) = 3.05366 2.95124 3.00289
# Velocity P-wave (km/s) = 4.93764 5.54555 5.25040
#
# Compressibility (1/GPa) = 0.03325911
#
# Stress axis : x y z
#
# Youngs Moduli (GPa) = 151.23434 158.30700 43.71244
#
# Poissons Ratio (x) = 0.21225 0.07648
# Poissons Ratio (y) = 0.20276 -0.07942
# Poissons Ratio (z) = 0.26459 -0.28762
#
# Static dielectric constant tensor:
#      x y z
#    x 2.024310 0.000000 0.000000 
#    y 0.000000 1.914870 0.000000 
#    z 0.000000 0.000000 2.208640 
# 
# From -- ./inp_files/22273.got.cif
#   From: 2010.05.17/outbox.cif.g08.bks.cpg/sg62_12_cif.got.tgz:22273.got - 2010.06.03 15:25:27.
