data_PCOD9467823
_publ_section_title
;
Structure prediction by ZEFSAII (Michael W. Deem and Ramdas Pophale) SiO2 
 PCOD9467823
Probable space group: P N M A
;
_chemical_formula_sum "Si O2"
_cell_formula_units_Z 64
_cell_length_a 18.000000
_cell_length_b 9.000000
_cell_length_c 21.000000
_cell_angle_alpha 90.000000
_cell_angle_beta 90.000000
_cell_angle_gamma 90.000000
_cell_volume 3402.000000
_symmetry_space_group_name_H-M "P N M A"
_symmetry_group_IT_number 62
_symmetry_cell_setting 'orthorhombic'
loop_
_space_group_symop_operation_xyz
x,y,z
1/2-x,-y,1/2+z
1/2+x,1/2-y,1/2-z
-x,1/2+y,-z
-x,-y,-z
1/2+x,y,1/2-z
1/2-x,1/2+y,1/2+z
x,1/2-y,z
loop_
_atom_site_type_symbol
_atom_site_label
_atom_site_fract_x
_atom_site_fract_y
_atom_site_fract_z
Si Si1 0.287141 0.074064 0.237499
Si Si2 0.852134 0.929558 0.133554
Si Si3 0.422445 0.427159 0.801156
Si Si4 0.498184 0.931037 0.572000
Si Si5 0.578722 0.922866 0.993111
Si Si6 0.196056 0.930433 0.406105
Si Si7 0.627404 0.428390 0.325150
Si Si8 0.432442 0.081224 0.151706
O O1 0.276661 0.250000 0.254457
O O2 0.213151 0.027795 0.196164
O O3 0.361075 0.061919 0.195215
O O4 0.313814 0.981608 0.299691
O O5 0.862964 0.750000 0.134300
O O6 0.782311 0.971316 0.087844
O O7 0.929246 0.006898 0.111411
O O8 0.419288 0.250000 0.793410
O O9 0.350463 0.475071 0.842905
O O10 0.419704 0.507529 0.733604
O O11 0.498757 0.472907 0.835552
O O12 0.502396 0.750000 0.568583
O O13 0.421101 0.969570 0.611163
O O14 0.500000 0.000000 0.500000
O O15 0.569099 0.750000 0.010887
O O16 0.597370 0.932548 0.919489
O O17 0.644097 0.984515 0.036731
O O18 0.500000 0.000000 0.000000
O O19 0.196337 0.750000 0.405484
O O20 0.628304 0.250000 0.325329
O O21 0.461569 0.250000 0.160219
#
# Coordination Sequence:
#
# PCOD9467823 Si02
#       8
#     8   8   8   8   8   8   8   8
#     4  10  21  38  59  87 120 154 197 247 300 359
#     4  11  22  40  64  91 121 158 202 253 309 362
#     4  11  20  34  57  85 117 153 193 238 291 351
#     4  11  25  45  67  93 124 164 212 262 317 379
#     4  10  19  34  53  76 110 150 190 231 278 341
#     4   9  19  34  55  83 115 153 195 240 292 353
#     4  10  22  40  63  88 117 154 199 251 307 366
#     4  10  21  34  53  81 113 150 189 231 282 344
#
# _framework density 18.812463000000001
#
# number of rings (size 3 to 8) (size 9 to 14) (size 15 to 20)
#    0.000    1.750    2.500    1.875    0.000    5.500 
#    0.000    5.000    0.000    1.500    0.000    0.000 
#    0.000    0.000    0.000    0.000    0.000    0.000 
#
# Total GULP energy -356490.895084 kJ/mol
# GULP energy per Si atom -5570.170236 kJ/mol
# Density = 1.876965 g / cm^3
# Si number density = 18.812463 Si / 1000 Ang^3
#
#
#
# Elastic Constant Matrix: (Units=GPa)
#
#
# Indices 1 2 3 4 5 6 
#
# 1 88.4783 17.8570 41.5368 0.0000 0.0000 0.0000
# 2 17.8570 28.9256 27.2219 0.0000 0.0000 0.0000
# 3 41.5368 27.2219 62.7802 0.0000 0.0000 0.0000
# 4 0.0000 0.0000 0.0000 24.5194 0.0000 0.0000
# 5 0.0000 0.0000 0.0000 0.0000 34.7895 0.0000
# 6 0.0000 0.0000 0.0000 0.0000 0.0000 29.3551
#
#
#
# Elastic Compliance Matrix: (Units=1/GPa)
#
#
# Indices 1 2 3 4 5 6 
#
# 1 0.016395 0.000147 -0.010911 0.000000 0.000000 0.000000
# 2 0.000147 0.058405 -0.025422 0.000000 0.000000 0.000000
# 3 -0.010911 -0.025422 0.034171 0.000000 0.000000 0.000000
# 4 0.000000 0.000000 0.000000 0.040784 0.000000 0.000000
# 5 0.000000 0.000000 0.000000 0.000000 0.028744 0.000000
# 6 0.000000 0.000000 0.000000 0.000000 0.000000 0.034066
#
#
# Mechanical properties :
#
#
# Convention : Reuss Voigt Hill
#
# Bulk Modulus (GPa) = 27.32335 39.26841 33.29588
# Shear Modulus (GPa) = 16.82729 23.97070 20.39899
#
# Velocity S-wave (km/s) = 2.99402 3.57346 3.29650
# Velocity P-wave (km/s) = 5.14858 6.15995 5.67683
#
# Compressibility (1/GPa) = 0.03659873
#
# Stress axis : x y z
#
# Youngs Moduli (GPa) = 60.99524 17.12170 29.26487
#
# Poissons Ratio (x) = -0.00252 0.31931
# Poissons Ratio (y) = -0.00897 0.74398
# Poissons Ratio (z) = 0.66551 0.43527
#
# Static dielectric constant tensor:
#      x y z
#    x 1.627950 0.000000 0.000000 
#    y 0.000000 1.659500 0.000000 
#    z 0.000000 0.000000 1.742000 
# 
# From -- ./inp_files/27780.got.cif
#   From: 2010.05.17/outbox.ucp.g08.bks.cvg/sg62_14_cif.got.tgz:27780.got - 2010.06.11 16:29:25.
