data_PCOD9467743
_publ_section_title
;
Structure prediction by ZEFSAII (Michael W. Deem and Ramdas Pophale) SiO2 
 PCOD9467743
Probable space group: P N M A
;
_chemical_formula_sum "Si O2"
_cell_formula_units_Z 48
_cell_length_a 6.971957
_cell_length_b 10.681172
_cell_length_c 28.766502
_cell_angle_alpha 90.000000
_cell_angle_beta 90.000000
_cell_angle_gamma 90.000000
_cell_volume 2142.203199
_symmetry_space_group_name_H-M "P N M A"
_symmetry_group_IT_number 62
_symmetry_cell_setting 'orthorhombic'
loop_
_space_group_symop_operation_xyz
x,y,z
1/2-x,-y,1/2+z
1/2+x,1/2-y,1/2-z
-x,1/2+y,-z
-x,-y,-z
1/2+x,y,1/2-z
1/2-x,1/2+y,1/2+z
x,1/2-y,z
loop_
_atom_site_type_symbol
_atom_site_label
_atom_site_fract_x
_atom_site_fract_y
_atom_site_fract_z
Si Si1 0.332343 0.503791 0.408665
Si Si2 0.829688 0.250000 0.430491
Si Si3 0.825181 0.750000 0.438287
Si Si4 0.278170 0.750000 0.465122
Si Si5 0.013026 0.106869 0.712369
Si Si6 0.569304 0.393280 0.684745
Si Si7 0.784385 0.250000 0.042032
Si Si8 0.878073 0.995346 0.381323
O O1 0.357832 0.624661 0.441326
O O2 0.449700 0.523437 0.361045
O O3 0.367772 0.375812 0.435690
O O4 0.105972 0.501450 0.394649
O O5 0.717210 0.250000 0.479253
O O6 0.798000 0.374802 0.400598
O O7 0.056218 0.250000 0.444909
O O8 0.709858 0.750000 0.486333
O O9 0.797266 0.874856 0.408366
O O10 0.050827 0.750000 0.452131
O O11 0.088539 0.250000 0.715409
O O12 0.998595 0.059533 0.765142
O O13 0.130043 0.029933 0.673980
O O14 0.798464 0.114779 0.693026
O O15 0.503150 0.250000 0.676325
#
# Coordination Sequence:
#
# PCOD9467743 Si02
#       8
#     8   4   4   4   8   8   4   8
#     4   9  15  24  36  54  80 108 134 165 205 243
#     4   9  16  22  33  54  81 109 135 163 200 249
#     4   9  14  22  35  52  77 109 139 163 196 245
#     4   9  14  22  35  52  77 109 139 163 196 245
#     4   9  16  27  43  61  82 108 139 173 207 243
#     4   9  16  27  43  61  82 108 139 173 207 243
#     4   9  16  22  33  54  81 109 135 163 200 249
#     4   9  15  24  36  54  80 108 134 165 205 243
#
# _framework density 22.406836999999999
#
# number of rings (size 3 to 8) (size 9 to 14) (size 15 to 20)
#    0.000    3.000    1.667    1.000    0.000    4.000 
#    0.000    0.833    0.000    0.000    0.000    0.000 
#    0.000    8.000    0.000    0.000    0.000    0.000 
#
# Total GULP energy -268434.782120 kJ/mol
# GULP energy per Si atom -5592.391294 kJ/mol
# Density = 2.235584 g / cm^3
# Si number density = 22.406837 Si / 1000 Ang^3
#
#
#
# Elastic Constant Matrix: (Units=GPa)
#
#
# Indices 1 2 3 4 5 6 
#
# 1 76.6326 18.3186 33.7096 0.0000 0.0000 0.0000
# 2 18.3186 182.0402 118.0160 0.0000 0.0000 0.0000
# 3 33.7096 118.0160 210.3915 0.0000 0.0000 0.0000
# 4 0.0000 0.0000 0.0000 0.2453 0.0000 0.0000
# 5 0.0000 0.0000 0.0000 0.0000 41.1137 0.0000
# 6 0.0000 0.0000 0.0000 0.0000 0.0000 1.8764
#
#
#
# Elastic Compliance Matrix: (Units=1/GPa)
#
#
# Indices 1 2 3 4 5 6 
#
# 1 0.014039 0.000072 -0.002290 0.000000 0.000000 0.000000
# 2 0.000072 0.008633 -0.004854 0.000000 0.000000 0.000000
# 3 -0.002290 -0.004854 0.007843 0.000000 0.000000 0.000000
# 4 0.000000 0.000000 0.000000 4.076429 0.000000 0.000000
# 5 0.000000 0.000000 0.000000 0.000000 0.024323 0.000000
# 6 0.000000 0.000000 0.000000 0.000000 0.000000 0.532923
#
#
# Mechanical properties :
#
#
# Convention : Reuss Voigt Hill
#
# Bulk Modulus (GPa) = 61.08394 89.90584 75.49489
# Shear Modulus (GPa) = 1.06751 28.58178 14.82464
#
# Velocity S-wave (km/s) = 0.69098 3.57540 2.57497
# Velocity P-wave (km/s) = 5.28745 7.56678 6.52737
#
# Compressibility (1/GPa) = 0.01637092
#
# Stress axis : x y z
#
# Youngs Moduli (GPa) = 71.22854 115.83595 127.50811
#
# Poissons Ratio (x) = -0.00829 0.29194
# Poissons Ratio (y) = -0.00510 0.61892
# Poissons Ratio (z) = 0.16308 0.56226
#
# Static dielectric constant tensor:
#      x y z
#    x 1.952910 0.000000 0.000000 
#    y 0.000000 1.733500 0.000000 
#    z 0.000000 0.000000 1.811090 
# 
# From -- ./inp_files/26581.got.cif
#   From: 2010.05.17/outbox.cif.g08.bks.cpg/sg62_14_cif.got.tgz:26581.got - 2010.06.03 15:25:27.
