data_PCOD9467311
_publ_section_title
;
Structure prediction by ZEFSAII (Michael W. Deem and Ramdas Pophale) SiO2 
 PCOD9467311
Probable space group: P N M A
;
_chemical_formula_sum "Si O2"
_cell_formula_units_Z 64
_cell_length_a 9.980597
_cell_length_b 19.603699
_cell_length_c 18.724078
_cell_angle_alpha 90.000000
_cell_angle_beta 90.000000
_cell_angle_gamma 90.000000
_cell_volume 3663.489803
_symmetry_space_group_name_H-M "P N M A"
_symmetry_group_IT_number 62
_symmetry_cell_setting 'orthorhombic'
loop_
_space_group_symop_operation_xyz
x,y,z
1/2-x,-y,1/2+z
1/2+x,1/2-y,1/2-z
-x,1/2+y,-z
-x,-y,-z
1/2+x,y,1/2-z
1/2-x,1/2+y,1/2+z
x,1/2-y,z
loop_
_atom_site_type_symbol
_atom_site_label
_atom_site_fract_x
_atom_site_fract_y
_atom_site_fract_z
Si Si1 0.701309 0.375742 0.534979
Si Si2 0.141937 0.526572 0.903231
Si Si3 0.230082 0.004804 0.255641
Si Si4 0.990396 0.170055 0.585044
Si Si5 0.456295 0.171721 0.623442
Si Si6 0.022303 0.409051 0.731967
Si Si7 0.765270 0.589587 0.461311
Si Si8 0.823454 0.950930 0.895491
O O1 0.684656 0.451084 0.570407
O O2 0.576492 0.334448 0.566378
O O3 0.697575 0.388822 0.449987
O O4 0.839148 0.342901 0.560062
O O5 0.205729 0.537928 0.825833
O O6 0.980733 0.528837 0.901286
O O7 0.197873 0.578832 0.961740
O O8 0.089062 0.968609 0.272923
O O9 0.332962 0.944360 0.234344
O O10 0.211911 0.054065 0.187734
O O11 0.022988 0.250000 0.581608
O O12 0.090483 0.124239 0.537677
O O13 0.007255 0.141173 0.665232
O O14 0.429574 0.250000 0.641134
O O15 0.497821 0.130792 0.694302
O O16 0.328463 0.136355 0.587975
O O17 0.762588 0.514556 0.425880
#
# Coordination Sequence:
#
# PCOD9467311 Si02
#       8
#     8   8   8   8   8   8   8   8
#     4  11  21  37  57  81 110 154 194 239 280 322
#     4  11  20  37  61  83 114 143 192 245 281 334
#     4  12  20  34  59  84 117 150 180 228 296 342
#     4  12  25  38  51  82 126 156 190 231 273 332
#     4  12  21  36  59  80 110 164 206 221 261 332
#     4  12  21  36  50  84 120 158 191 220 266 342
#     4  11  21  37  57  81 110 154 194 239 280 322
#     4  11  20  37  61  83 114 143 192 245 281 334
#
# _framework density 17.469681000000001
#
# number of rings (size 3 to 8) (size 9 to 14) (size 15 to 20)
#    0.000    0.500    8.750    1.875    0.000    3.000 
#    0.000    3.750    0.000    0.000    0.000    5.250 
#    0.000    0.000    0.000    0.000    0.000    0.000 
#
# Total GULP energy -357594.103406 kJ/mol
# GULP energy per Si atom -5587.407866 kJ/mol
# Density = 1.742992 g / cm^3
# Si number density = 17.469681 Si / 1000 Ang^3
#
#
#
# Elastic Constant Matrix: (Units=GPa)
#
#
# Indices 1 2 3 4 5 6 
#
# 1 28.8433 -3.6350 -22.4858 0.0000 0.0000 0.0000
# 2 -3.6350 26.7911 15.2896 0.0000 0.0000 0.0000
# 3 -22.4858 15.2896 94.4886 0.0000 0.0000 0.0000
# 4 0.0000 0.0000 0.0000 13.6604 0.0000 0.0000
# 5 0.0000 0.0000 0.0000 0.0000 29.3546 0.0000
# 6 0.0000 0.0000 0.0000 0.0000 0.0000 11.3613
#
#
#
# Elastic Compliance Matrix: (Units=1/GPa)
#
#
# Indices 1 2 3 4 5 6 
#
# 1 0.042567 -0.000006 0.010131 0.000000 0.000000 0.000000
# 2 -0.000006 0.041123 -0.006656 0.000000 0.000000 0.000000
# 3 0.010131 -0.006656 0.014071 0.000000 0.000000 0.000000
# 4 0.000000 0.000000 0.000000 0.073204 0.000000 0.000000
# 5 0.000000 0.000000 0.000000 0.000000 0.034066 0.000000
# 6 0.000000 0.000000 0.000000 0.000000 0.000000 0.088018
#
#
# Mechanical properties :
#
#
# Convention : Reuss Voigt Hill
#
# Bulk Modulus (GPa) = 9.55114 14.27341 11.91227
# Shear Modulus (GPa) = 15.57571 21.60553 18.59062
#
# Velocity S-wave (km/s) = 2.98918 3.52055 3.26569
# Velocity P-wave (km/s) = 4.17046 4.97130 4.58839
#
# Compressibility (1/GPa) = 0.10469956
#
# Stress axis : x y z
#
# Youngs Moduli (GPa) = 23.49231 24.31704 71.06739
#
# Poissons Ratio (x) = 0.00015 -0.71997
# Poissons Ratio (y) = 0.00014 0.47301
# Poissons Ratio (z) = -0.23800 0.16185
#
# Static dielectric constant tensor:
#      x y z
#    x 1.595270 0.000000 0.000000 
#    y 0.000000 1.561420 0.000000 
#    z 0.000000 0.000000 1.614780 
# 
# From -- ./inp_files/22557.got.cif
#   From: 2010.05.17/outbox.cif.g08.bks.cpg/sg62_12_cif.got.tgz:22557.got - 2010.06.03 15:25:27.
