data_PCOD9467822
_publ_section_title
;
Structure prediction by ZEFSAII (Michael W. Deem and Ramdas Pophale) SiO2 
 PCOD9467822
Probable space group: P N M A
;
_chemical_formula_sum "Si O2"
_cell_formula_units_Z 64
_cell_length_a 24.000000
_cell_length_b 15.000000
_cell_length_c 9.000000
_cell_angle_alpha 90.000000
_cell_angle_beta 90.000000
_cell_angle_gamma 90.000000
_cell_volume 3240.000000
_symmetry_space_group_name_H-M "P N M A"
_symmetry_group_IT_number 62
_symmetry_cell_setting 'orthorhombic'
loop_
_space_group_symop_operation_xyz
x,y,z
1/2-x,-y,1/2+z
1/2+x,1/2-y,1/2-z
-x,1/2+y,-z
-x,-y,-z
1/2+x,y,1/2-z
1/2-x,1/2+y,1/2+z
x,1/2-y,z
loop_
_atom_site_type_symbol
_atom_site_label
_atom_site_fract_x
_atom_site_fract_y
_atom_site_fract_z
Si Si1 0.018468 0.561013 0.135133
Si Si2 0.559654 0.007986 0.074912
Si Si3 0.355582 0.144712 0.946345
Si Si4 0.370803 0.348153 0.600334
Si Si5 0.279724 0.009890 0.120114
Si Si6 0.824992 0.987277 0.049554
Si Si7 0.649762 0.351042 0.976488
Si Si8 0.405749 0.651821 0.341900
O O1 0.049401 0.498154 0.250843
O O2 0.062678 0.639014 0.106411
O O3 0.963240 0.605155 0.200626
O O4 0.000000 0.500000 0.000000
O O5 0.590961 0.917343 0.025906
O O6 0.500000 0.000000 0.000000
O O7 0.598327 0.092966 0.044299
O O8 0.361516 0.250000 0.976960
O O9 0.346721 0.136296 0.767285
O O10 0.310394 0.094891 0.047160
O O11 0.354267 0.250000 0.556407
O O12 0.351916 0.418116 0.480098
O O13 0.294570 0.992284 0.291062
O O14 0.299047 0.920886 0.028950
O O15 0.215968 0.026842 0.087009
O O16 0.871684 0.912202 0.051373
O O17 0.659094 0.250000 0.033793
O O18 0.631362 0.341648 0.805166
O O19 0.415752 0.750000 0.402972
#
# Coordination Sequence:
#
# PCOD9467822 Si02
#       8
#     8   8   8   8   8   8   8   8
#     4  11  20  35  58  83 122 152 183 232 287 340
#     4  10  19  33  57  85 116 151 190 227 279 337
#     4   9  20  37  58  84 113 150 194 234 281 345
#     4  10  21  37  59  84 114 154 194 233 286 346
#     4  10  22  38  61  84 115 151 191 245 297 341
#     4  11  22  39  60  85 114 150 195 244 294 345
#     4   9  19  37  59  85 113 149 195 236 280 341
#     4  10  20  36  60  85 112 151 193 234 284 347
#
# _framework density 19.753086
#
# number of rings (size 3 to 8) (size 9 to 14) (size 15 to 20)
#    0.000    2.000    2.500    1.125    0.000    2.500 
#    0.000    3.750    0.000    0.000    0.000    0.000 
#    0.000    0.000    0.000    0.000    0.000    0.000 
#
# Total GULP energy -356375.769642 kJ/mol
# GULP energy per Si atom -5568.371401 kJ/mol
# Density = 1.970813 g / cm^3
# Si number density = 19.753086 Si / 1000 Ang^3
#
#
#
# Elastic Constant Matrix: (Units=GPa)
#
#
# Indices 1 2 3 4 5 6 
#
# 1 31.3326 -2.5311 3.5948 0.0000 0.0000 0.0000
# 2 -2.5311 111.2325 30.0001 0.0000 0.0000 0.0000
# 3 3.5948 30.0001 -8.6510 0.0000 0.0000 0.0000
# 4 0.0000 0.0000 0.0000 89.0543 0.0000 0.0000
# 5 0.0000 0.0000 0.0000 0.0000 16.8278 0.0000
# 6 0.0000 0.0000 0.0000 0.0000 0.0000 -440.3030
#
#
#
# Elastic Compliance Matrix: (Units=1/GPa)
#
#
# Indices 1 2 3 4 5 6 
#
# 1 0.030895 -0.001426 0.007893 0.000000 0.000000 0.000000
# 2 -0.001426 0.004711 0.015745 0.000000 0.000000 0.000000
# 3 0.007893 0.015745 -0.057713 0.000000 0.000000 0.000000
# 4 0.000000 0.000000 0.000000 0.011229 0.000000 0.000000
# 5 0.000000 0.000000 0.000000 0.000000 0.059425 0.000000
# 6 0.000000 0.000000 0.000000 0.000000 0.000000 -0.002271
#
#
# Mechanical properties :
#
#
# Convention : Reuss Voigt Hill
#
# Bulk Modulus (GPa) = 44.80594 21.78241 33.29417
# Shear Modulus (GPa) = 538.13115 -60.02751 239.05182
#
# Velocity S-wave (km/s) = 16.52333 -5.51860 11.01284
# Velocity P-wave (km/s) = 19.66620 5.43647 13.36421
#
# Compressibility (1/GPa) = 0.02231847
#
# Stress axis : x y z
#
# Youngs Moduli (GPa) = 32.36789 212.25983 -17.32726
#
# Poissons Ratio (x) = 0.30265 0.13677
# Poissons Ratio (y) = 0.04615 0.27282
# Poissons Ratio (z) = -0.25549 -3.34204
#
# Static dielectric constant tensor:
#      x y z
#    x 1.801880 0.000000 0.000000 
#    y 0.000000 1.713740 0.000000 
#    z 0.000000 0.000000 1.705890 
# 
# From -- ./inp_files/9470.got.cif
#   From: 2010.05.17/outbox.ucp.g08.bks.cvg/sg62_5_cif.got.tgz:9470.got - 2010.06.11 16:29:25.
