data_PCOD9467531
_publ_section_title
;
Structure prediction by ZEFSAII (Michael W. Deem and Ramdas Pophale) SiO2 
 PCOD9467531
Probable space group: P N M A
;
_chemical_formula_sum "Si O2"
_cell_formula_units_Z 36
_cell_length_a 18.478759
_cell_length_b 10.197309
_cell_length_c 8.673713
_cell_angle_alpha 90.000000
_cell_angle_beta 90.000000
_cell_angle_gamma 90.000000
_cell_volume 1634.419100
_symmetry_space_group_name_H-M "P N M A"
_symmetry_group_IT_number 62
_symmetry_cell_setting 'orthorhombic'
loop_
_space_group_symop_operation_xyz
x,y,z
1/2-x,-y,1/2+z
1/2+x,1/2-y,1/2-z
-x,1/2+y,-z
-x,-y,-z
1/2+x,y,1/2-z
1/2-x,1/2+y,1/2+z
x,1/2-y,z
loop_
_atom_site_type_symbol
_atom_site_label
_atom_site_fract_x
_atom_site_fract_y
_atom_site_fract_z
Si Si1 0.905243 0.250000 0.719049
Si Si2 0.622672 0.250000 0.219523
Si Si3 0.148931 0.465535 0.769138
Si Si4 0.294669 0.250000 0.305782
Si Si5 0.943723 0.750000 0.387425
Si Si6 0.762212 0.250000 0.826042
Si Si7 0.576936 0.489740 0.416758
O O1 0.820609 0.250000 0.686696
O O2 0.913298 0.376309 0.826550
O O3 0.969701 0.250000 0.596907
O O4 0.709563 0.250000 0.239546
O O5 0.585217 0.374563 0.295830
O O6 0.602209 0.250000 0.041539
O O7 0.164866 0.619362 0.744363
O O8 0.080576 0.383583 0.700883
O O9 0.214614 0.379404 0.703323
O O10 0.136573 0.460112 0.952577
O O11 0.291097 0.250000 0.496193
O O12 0.500000 0.500000 0.500000
#
# Coordination Sequence:
#
# PCOD9467531 Si02
#       7
#     4   4   8   4   4   4   8
#     4  12  23  45  71 105 143 192 241 293 362 435
#     4  12  27  44  72 106 146 192 239 303 368 430
#     4  11  23  47  71 104 145 190 240 307 359 434
#     4  12  24  41  74 108 145 192 241 294 372 431
#     4  11  25  48  72 106 156 182 243 316 356 424
#     4  11  23  44  69 105 148 184 244 298 366 438
#     4  12  24  45  77 102 139 193 244 292 364 442
#
# _framework density 22.026174000000001
#
# number of rings (size 3 to 8) (size 9 to 14) (size 15 to 20)
#    0.000    0.444    6.667    3.333    0.000    0.889 
#    0.000    1.111    0.000    0.000    0.000    0.000 
#    0.000    0.000    0.000    0.000    0.000    0.000 
#
# Total GULP energy -201003.723525 kJ/mol
# GULP energy per Si atom -5583.436765 kJ/mol
# Density = 2.197604 g / cm^3
# Si number density = 22.026174 Si / 1000 Ang^3
#
#
#
# Elastic Constant Matrix: (Units=GPa)
#
#
# Indices 1 2 3 4 5 6 
#
# 1 83.2133 18.9660 -4.5079 0.0000 0.0000 0.0000
# 2 18.9660 203.2513 50.7659 0.0000 0.0000 0.0000
# 3 -4.5079 50.7659 50.4512 0.0000 0.0000 0.0000
# 4 0.0000 0.0000 0.0000 30.3530 0.0000 0.0000
# 5 0.0000 0.0000 0.0000 0.0000 32.3952 0.0000
# 6 0.0000 0.0000 0.0000 0.0000 0.0000 -6.9766
#
#
#
# Elastic Compliance Matrix: (Units=1/GPa)
#
#
# Indices 1 2 3 4 5 6 
#
# 1 0.012629 -0.001951 0.003091 0.000000 0.000000 0.000000
# 2 -0.001951 0.006873 -0.007090 0.000000 0.000000 0.000000
# 3 0.003091 -0.007090 0.027232 0.000000 0.000000 0.000000
# 4 0.000000 0.000000 0.000000 0.032946 0.000000 0.000000
# 5 0.000000 0.000000 0.000000 0.000000 0.030869 0.000000
# 6 0.000000 0.000000 0.000000 0.000000 0.000000 -0.143337
#
#
# Mechanical properties :
#
#
# Convention : Reuss Voigt Hill
#
# Bulk Modulus (GPa) = 28.70680 51.92932 40.31806
# Shear Modulus (GPa) = -538.89098 29.26711 -254.81194
#
# Velocity S-wave (km/s) = -15.65856 3.64915 -10.76741
# Velocity P-wave (km/s) = 17.71608 6.43291 11.67212
#
# Compressibility (1/GPa) = 0.03483496
#
# Stress axis : x y z
#
# Youngs Moduli (GPa) = 79.18069 145.49881 36.72205
#
# Poissons Ratio (x) = 0.28380 -0.11351
# Poissons Ratio (y) = 0.15445 0.26036
# Poissons Ratio (z) = -0.24476 1.03160
#
# Static dielectric constant tensor:
#      x y z
#    x 2.383250 0.000000 0.000000 
#    y 0.000000 1.783140 0.000000 
#    z 0.000000 0.000000 2.029960 
# 
# From -- ./inp_files/8359.got.cif
#   From: 2010.05.17/outbox.cif.g08.bks.cpg/sg62_5_cif.got.tgz:8359.got - 2010.06.03 15:25:27.
