data_PCOD9467040
_publ_section_title
;
Structure prediction by ZEFSAII (Michael W. Deem and Ramdas Pophale) SiO2 
 PCOD9467040
Probable space group: P N M A
;
_chemical_formula_sum "Si O2"
_cell_formula_units_Z 32
_cell_length_a 9.085859
_cell_length_b 22.108661
_cell_length_c 7.264406
_cell_angle_alpha 90.000000
_cell_angle_beta 90.000000
_cell_angle_gamma 90.000000
_cell_volume 1459.246102
_symmetry_space_group_name_H-M "P N M A"
_symmetry_group_IT_number 62
_symmetry_cell_setting 'orthorhombic'
loop_
_space_group_symop_operation_xyz
x,y,z
1/2-x,-y,1/2+z
1/2+x,1/2-y,1/2-z
-x,1/2+y,-z
-x,-y,-z
1/2+x,y,1/2-z
1/2-x,1/2+y,1/2+z
x,1/2-y,z
loop_
_atom_site_type_symbol
_atom_site_label
_atom_site_fract_x
_atom_site_fract_y
_atom_site_fract_z
Si Si1 0.625540 0.994638 0.655464
Si Si2 0.462428 0.180003 0.867459
Si Si3 0.351463 0.627646 0.433642
Si Si4 0.092660 0.085127 0.349873
O O1 0.542859 0.961861 0.823464
O O2 0.761375 0.952385 0.602784
O O3 0.500000 0.000000 0.500000
O O4 0.677908 0.063493 0.669176
O O5 0.499602 0.250000 0.892704
O O6 0.509534 0.158157 0.664626
O O7 0.290979 0.168568 0.903970
O O8 0.550117 0.136707 0.007558
O O9 0.379962 0.614284 0.647910
#
# Coordination Sequence:
#
# PCOD9467040 Si02
#       4
#     8   8   8   8
#     4  10  23  42  72 108 137 175 234 296 361 418
#     4  12  28  46  69 101 143 195 240 283 349 436
#     4  11  26  45  71 105 142 182 238 300 356 418
#     4  11  24  47  70 107 140 188 232 295 367 418
#
# _framework density 21.929131999999999
#
# number of rings (size 3 to 8) (size 9 to 14) (size 15 to 20)
#    0.000    1.000    2.500    2.250   14.000    4.000 
#    0.000    0.000    0.000    0.000    0.000    0.000 
#    0.000    0.000    0.000    0.000    0.000    0.000 
#
# Total GULP energy -179140.352431 kJ/mol
# GULP energy per Si atom -5598.136013 kJ/mol
# Density = 2.187922 g / cm^3
# Si number density = 21.929132 Si / 1000 Ang^3
#
#
#
# Elastic Constant Matrix: (Units=GPa)
#
#
# Indices 1 2 3 4 5 6 
#
# 1 60.2138 -0.8754 11.6339 0.0000 0.0000 0.0000
# 2 -0.8754 119.0630 31.1214 0.0000 0.0000 0.0000
# 3 11.6339 31.1214 99.6743 0.0000 0.0000 0.0000
# 4 0.0000 0.0000 0.0000 10.7129 0.0000 0.0000
# 5 0.0000 0.0000 0.0000 0.0000 33.3839 0.0000
# 6 0.0000 0.0000 0.0000 0.0000 0.0000 34.4519
#
#
#
# Elastic Compliance Matrix: (Units=1/GPa)
#
#
# Indices 1 2 3 4 5 6 
#
# 1 0.017044 0.000703 -0.002209 0.000000 0.000000 0.000000
# 2 0.000703 0.009174 -0.002947 0.000000 0.000000 0.000000
# 3 -0.002209 -0.002947 0.011210 0.000000 0.000000 0.000000
# 4 0.000000 0.000000 0.000000 0.093346 0.000000 0.000000
# 5 0.000000 0.000000 0.000000 0.000000 0.029955 0.000000
# 6 0.000000 0.000000 0.000000 0.000000 0.000000 0.029026
#
#
# Mechanical properties :
#
#
# Convention : Reuss Voigt Hill
#
# Bulk Modulus (GPa) = 35.05830 40.30122 37.67976
# Shear Modulus (GPa) = 24.01898 31.51448 27.76673
#
# Velocity S-wave (km/s) = 3.31312 3.79503 3.56223
# Velocity P-wave (km/s) = 5.53692 6.13358 5.84287
#
# Compressibility (1/GPa) = 0.02852392
#
# Stress axis : x y z
#
# Youngs Moduli (GPa) = 58.67005 109.00068 89.20230
#
# Poissons Ratio (x) = -0.07659 0.19703
# Poissons Ratio (y) = -0.04123 0.26283
# Poissons Ratio (z) = 0.12959 0.32117
#
# Static dielectric constant tensor:
#      x y z
#    x 1.781820 0.000000 0.000000 
#    y 0.000000 1.784990 0.000000 
#    z 0.000000 0.000000 1.843420 
# 
# From -- ./inp_files/4106.got.cif
#   From: 2010.05.17/outbox.cif.g08.bks.cpg/sg62_3_cif.got.tgz:4106.got - 2010.06.03 15:25:27.
