data_PCOD9467362
_publ_section_title
;
Structure prediction by ZEFSAII (Michael W. Deem and Ramdas Pophale) SiO2 
 PCOD9467362
Probable space group: P N M A
;
_chemical_formula_sum "Si O2"
_cell_formula_units_Z 48
_cell_length_a 29.065462
_cell_length_b 7.866595
_cell_length_c 10.478928
_cell_angle_alpha 90.000000
_cell_angle_beta 90.000000
_cell_angle_gamma 90.000000
_cell_volume 2395.967256
_symmetry_space_group_name_H-M "P N M A"
_symmetry_group_IT_number 62
_symmetry_cell_setting 'orthorhombic'
loop_
_space_group_symop_operation_xyz
x,y,z
1/2-x,-y,1/2+z
1/2+x,1/2-y,1/2-z
-x,1/2+y,-z
-x,-y,-z
1/2+x,y,1/2-z
1/2-x,1/2+y,1/2+z
x,1/2-y,z
loop_
_atom_site_type_symbol
_atom_site_label
_atom_site_fract_x
_atom_site_fract_y
_atom_site_fract_z
Si Si1 0.355908 0.541835 0.755638
Si Si2 0.647092 0.947296 0.758139
Si Si3 0.201934 0.052509 0.498077
Si Si4 0.694482 0.052915 0.502418
Si Si5 0.446596 0.456027 0.359448
Si Si6 0.049068 0.453751 0.155301
O O1 0.356327 0.750000 0.757993
O O2 0.328660 0.489375 0.628124
O O3 0.408612 0.483283 0.740479
O O4 0.329144 0.485764 0.881559
O O5 0.643203 0.750000 0.795134
O O6 0.596194 0.015468 0.725061
O O7 0.673677 0.038762 0.871355
O O8 0.675781 0.959707 0.627141
O O9 0.212509 0.250000 0.471991
O O10 0.250721 0.960764 0.507853
O O11 0.681091 0.250000 0.517376
O O12 0.446240 0.250000 0.356403
O O13 0.440105 0.507718 0.507018
O O14 0.497368 0.517737 0.318939
O O15 0.047515 0.250000 0.168630
#
# Coordination Sequence:
#
# PCOD9467362 Si02
#       6
#     8   8   8   8   8   8
#     4   9  19  35  56  80 107 138 180 227 275 329
#     4  11  22  37  54  81 116 148 182 224 271 331
#     4  11  23  38  55  79 111 149 186 228 277 328
#     4  11  21  37  60  84 106 141 186 232 281 330
#     4   9  18  31  53  82 109 137 176 226 275 320
#     4   9  16  32  56  80 105 137 178 227 277 328
#
# _framework density 20.033663000000001
#
# number of rings (size 3 to 8) (size 9 to 14) (size 15 to 20)
#    0.000    2.000    1.667    2.500    0.000    2.000 
#    0.000    5.000    0.000    0.000    0.000    0.000 
#    0.000    0.000    0.000    0.000    0.000    0.000 
#
# Total GULP energy -268040.236723 kJ/mol
# GULP energy per Si atom -5584.171598 kJ/mol
# Density = 1.998807 g / cm^3
# Si number density = 20.033663 Si / 1000 Ang^3
#
#
#
# Elastic Constant Matrix: (Units=GPa)
#
#
# Indices 1 2 3 4 5 6 
#
# 1 149.8008 -6.6172 50.5119 0.0000 0.0000 0.0000
# 2 -6.6172 27.2867 -6.9833 0.0000 0.0000 0.0000
# 3 50.5119 -6.9833 92.6596 0.0000 0.0000 0.0000
# 4 0.0000 0.0000 0.0000 8.9359 0.0000 0.0000
# 5 0.0000 0.0000 0.0000 0.0000 -9.7182 0.0000
# 6 0.0000 0.0000 0.0000 0.0000 0.0000 13.3358
#
#
#
# Elastic Compliance Matrix: (Units=1/GPa)
#
#
# Indices 1 2 3 4 5 6 
#
# 1 0.008199 0.000861 -0.004405 0.000000 0.000000 0.000000
# 2 0.000861 0.037459 0.002354 0.000000 0.000000 0.000000
# 3 -0.004405 0.002354 0.013371 0.000000 0.000000 0.000000
# 4 0.000000 0.000000 0.000000 0.111908 0.000000 0.000000
# 5 0.000000 0.000000 0.000000 0.000000 -0.102900 0.000000
# 6 0.000000 0.000000 0.000000 0.000000 0.000000 0.074986
#
#
# Mechanical properties :
#
#
# Convention : Reuss Voigt Hill
#
# Bulk Modulus (GPa) = 17.65259 38.17443 27.91351
# Shear Modulus (GPa) = 30.43496 18.03310 24.23403
#
# Velocity S-wave (km/s) = 3.90191 3.00349 3.48180
# Velocity P-wave (km/s) = 5.39726 5.57893 5.48885
#
# Compressibility (1/GPa) = 0.05664891
#
# Stress axis : x y z
#
# Youngs Moduli (GPa) = 121.96998 26.69583 74.79076
#
# Poissons Ratio (x) = -0.02299 0.32942
# Poissons Ratio (y) = -0.10502 -0.17604
# Poissons Ratio (z) = 0.53722 -0.06284
#
# Static dielectric constant tensor:
#      x y z
#    x 1.727840 0.000000 0.000000 
#    y 0.000000 1.738860 0.000000 
#    z 0.000000 0.000000 1.658330 
# 
# From -- ./inp_files/10285.got.cif
#   From: 2010.05.17/outbox.cif.g08.bks.cpg/sg62_6_cif.got.tgz:10285.got - 2010.06.03 15:25:27.
