data_PCOD9467032
_publ_section_title
;
Structure prediction by ZEFSAII (Michael W. Deem and Ramdas Pophale) SiO2 
 PCOD9467032
Probable space group: P N M A
;
_chemical_formula_sum "Si O2"
_cell_formula_units_Z 64
_cell_length_a 10.211724
_cell_length_b 13.769623
_cell_length_c 17.499051
_cell_angle_alpha 90.000000
_cell_angle_beta 90.000000
_cell_angle_gamma 90.000000
_cell_volume 2460.569379
_symmetry_space_group_name_H-M "P N M A"
_symmetry_group_IT_number 62
_symmetry_cell_setting 'orthorhombic'
loop_
_space_group_symop_operation_xyz
x,y,z
1/2-x,-y,1/2+z
1/2+x,1/2-y,1/2-z
-x,1/2+y,-z
-x,-y,-z
1/2+x,y,1/2-z
1/2-x,1/2+y,1/2+z
x,1/2-y,z
loop_
_atom_site_type_symbol
_atom_site_label
_atom_site_fract_x
_atom_site_fract_y
_atom_site_fract_z
Si Si1 0.414327 0.635810 0.023659
Si Si2 0.119827 0.368213 0.006975
Si Si3 0.191729 0.138447 0.278599
Si Si4 0.185966 0.366579 0.830487
Si Si5 0.340903 0.134012 0.421294
Si Si6 0.230128 0.491605 0.623036
Si Si7 0.064543 0.856713 0.619596
Si Si8 0.918598 0.057637 0.768068
O O1 0.423614 0.750000 0.039973
O O2 0.395024 0.571575 0.097362
O O3 0.279178 0.615494 0.978381
O O4 0.531945 0.610817 0.966971
O O5 0.134934 0.250000 0.015069
O O6 0.208428 0.435588 0.060844
O O7 0.974032 0.393689 0.036479
O O8 0.153303 0.391574 0.918731
O O9 0.213687 0.250000 0.250373
O O10 0.307623 0.099716 0.335206
O O11 0.075971 0.150738 0.342123
O O12 0.115298 0.057699 0.228284
O O13 0.186207 0.250000 0.824497
O O14 0.327955 0.403395 0.801089
O O15 0.064949 0.406264 0.778974
O O16 0.347645 0.250000 0.411302
O O17 0.154338 0.575413 0.671701
O O18 0.334136 0.416113 0.655925
O O19 0.121037 0.750000 0.613868
#
# Coordination Sequence:
#
# PCOD9467032 Si02
#       8
#     8   8   8   8   8   8   8   8
#     4   9  19  35  58  86 118 165 215 267 332 401
#     4  10  23  42  69 102 137 180 232 299 364 418
#     4   9  20  40  67  96 136 180 218 276 350 436
#     4  11  27  52  74  99 142 193 247 302 351 420
#     4   8  16  35  62  90 123 162 212 269 338 408
#     4  12  24  37  64  99 137 170 224 295 352 419
#     4   9  19  39  61  88 130 171 213 269 335 411
#     4  12  27  44  72 105 139 186 240 288 363 433
#
# _framework density 26.01024
#
# number of rings (size 3 to 8) (size 9 to 14) (size 15 to 20)
#    0.000    2.000    0.000    4.125    5.250    4.000 
#    2.250    0.625    0.000    0.750    0.000    0.000 
#    0.000    0.000    0.000    0.000    0.000    0.000 
#
# Total GULP energy -357381.231875 kJ/mol
# GULP energy per Si atom -5584.081748 kJ/mol
# Density = 2.595104 g / cm^3
# Si number density = 26.010240 Si / 1000 Ang^3
#
#
#
# Elastic Constant Matrix: (Units=GPa)
#
#
# Indices 1 2 3 4 5 6 
#
# 1 111.0555 -1.5494 16.6708 0.0000 0.0000 0.0000
# 2 -1.5494 67.0645 1.2563 0.0000 0.0000 0.0000
# 3 16.6708 1.2563 76.5319 0.0000 0.0000 0.0000
# 4 0.0000 0.0000 0.0000 13.7364 0.0000 0.0000
# 5 0.0000 0.0000 0.0000 0.0000 37.0645 0.0000
# 6 0.0000 0.0000 0.0000 0.0000 0.0000 31.8208
#
#
#
# Elastic Compliance Matrix: (Units=1/GPa)
#
#
# Indices 1 2 3 4 5 6 
#
# 1 0.009313 0.000253 -0.002033 0.000000 0.000000 0.000000
# 2 0.000253 0.014922 -0.000300 0.000000 0.000000 0.000000
# 3 -0.002033 -0.000300 0.013514 0.000000 0.000000 0.000000
# 4 0.000000 0.000000 0.000000 0.072799 0.000000 0.000000
# 5 0.000000 0.000000 0.000000 0.000000 0.026980 0.000000
# 6 0.000000 0.000000 0.000000 0.000000 0.000000 0.031426
#
#
# Mechanical properties :
#
#
# Convention : Reuss Voigt Hill
#
# Bulk Modulus (GPa) = 29.77038 31.93416 30.85227
# Shear Modulus (GPa) = 27.12803 32.40928 29.76865
#
# Velocity S-wave (km/s) = 3.23302 3.53373 3.38671
# Velocity P-wave (km/s) = 5.04054 5.38088 5.21349
#
# Compressibility (1/GPa) = 0.03359043
#
# Stress axis : x y z
#
# Youngs Moduli (GPa) = 107.37458 67.01291 73.99636
#
# Poissons Ratio (x) = -0.01697 0.15042
# Poissons Ratio (y) = -0.02719 0.02221
# Poissons Ratio (z) = 0.21827 0.02011
#
# Static dielectric constant tensor:
#      x y z
#    x 2.102910 0.000000 0.000000 
#    y 0.000000 2.092620 0.000000 
#    z 0.000000 0.000000 2.483990 
# 
# From -- ./inp_files/23237.got.cif
#   From: 2010.05.17/outbox.cif.g08.bks.cpg/sg62_12_cif.got.tgz:23237.got - 2010.06.03 15:25:27.
