data_PCOD9467789
_publ_section_title
;
Structure prediction by ZEFSAII (Michael W. Deem and Ramdas Pophale) SiO2 
 PCOD9467789
Probable space group: P N M A
;
_chemical_formula_sum "Si O2"
_cell_formula_units_Z 64
_cell_length_a 24.000000
_cell_length_b 9.000000
_cell_length_c 15.000000
_cell_angle_alpha 90.000000
_cell_angle_beta 90.000000
_cell_angle_gamma 90.000000
_cell_volume 3240.000000
_symmetry_space_group_name_H-M "P N M A"
_symmetry_group_IT_number 62
_symmetry_cell_setting 'orthorhombic'
loop_
_space_group_symop_operation_xyz
x,y,z
1/2-x,-y,1/2+z
1/2+x,1/2-y,1/2-z
-x,1/2+y,-z
-x,-y,-z
1/2+x,y,1/2-z
1/2-x,1/2+y,1/2+z
x,1/2-y,z
loop_
_atom_site_type_symbol
_atom_site_label
_atom_site_fract_x
_atom_site_fract_y
_atom_site_fract_z
Si Si1 0.972259 0.581803 0.128222
Si Si2 0.952731 0.574103 0.319332
Si Si3 0.682297 0.570501 0.234856
Si Si4 0.686439 0.922099 0.427025
Si Si5 0.072336 0.077161 0.338171
Si Si6 0.765554 0.073959 0.551391
Si Si7 0.923720 0.582872 0.931739
Si Si8 0.370783 0.923899 0.030342
O O1 0.996091 0.750000 0.136835
O O2 0.936326 0.555946 0.216191
O O3 0.020996 0.461600 0.121308
O O4 0.939625 0.578819 0.035968
O O5 0.958671 0.750000 0.338171
O O6 0.907032 0.516741 0.387930
O O7 0.012967 0.500646 0.329808
O O8 0.675961 0.750000 0.233925
O O9 0.708619 0.530051 0.329835
O O10 0.621697 0.499187 0.218081
O O11 0.720221 0.524061 0.151537
O O12 0.698218 0.750000 0.440836
O O13 0.709605 0.013422 0.509129
O O14 0.621623 0.957237 0.417700
O O15 0.068346 0.250000 0.314175
O O16 0.092231 0.066861 0.440885
O O17 0.765569 0.250000 0.550906
O O18 0.814918 0.012207 0.489533
O O19 0.904523 0.750000 0.909629
O O20 0.356916 0.750000 0.045228
#
# Coordination Sequence:
#
# PCOD9467789 Si02
#       8
#     8   8   8   8   8   8   8   8
#     4   9  19  35  53  76 108 144 179 216 263 319
#     4  10  19  32  51  75 105 145 183 212 256 326
#     4   9  20  38  58  79 105 142 181 217 266 328
#     4  11  22  38  60  83 107 141 182 222 269 327
#     4  10  19  30  50  80 110 138 175 226 270 308
#     4  10  21  39  59  80 107 139 179 228 273 316
#     4  10  20  35  55  79 108 140 177 224 270 314
#     4   9  19  35  52  73 106 144 179 217 268 322
#
# _framework density 19.753086
#
# number of rings (size 3 to 8) (size 9 to 14) (size 15 to 20)
#    0.000    2.250    0.000    2.625    0.000    6.500 
#    2.250    0.000    0.000    0.000    0.000    0.000 
#    0.000    0.000    0.000    0.000    0.000    0.000 
#
# Total GULP energy -356994.329007 kJ/mol
# GULP energy per Si atom -5578.036391 kJ/mol
# Density = 1.970813 g / cm^3
# Si number density = 19.753086 Si / 1000 Ang^3
#
#
#
# Elastic Constant Matrix: (Units=GPa)
#
#
# Indices 1 2 3 4 5 6 
#
# 1 8.5597 -1.9664 15.0026 0.0000 0.0000 0.0000
# 2 -1.9664 17.2765 12.2300 0.0000 0.0000 0.0000
# 3 15.0026 12.2300 13.7416 0.0000 0.0000 0.0000
# 4 0.0000 0.0000 0.0000 14.6805 0.0000 0.0000
# 5 0.0000 0.0000 0.0000 0.0000 14.1715 0.0000
# 6 0.0000 0.0000 0.0000 0.0000 0.0000 30.9659
#
#
#
# Elastic Compliance Matrix: (Units=1/GPa)
#
#
# Indices 1 2 3 4 5 6 
#
# 1 -0.022456 -0.053817 0.072413 0.000000 0.000000 0.000000
# 2 -0.053817 0.027472 0.034306 0.000000 0.000000 0.000000
# 3 0.072413 0.034306 -0.036819 0.000000 0.000000 0.000000
# 4 0.000000 0.000000 0.000000 0.068117 0.000000 0.000000
# 5 0.000000 0.000000 0.000000 0.000000 0.070564 0.000000
# 6 0.000000 0.000000 0.000000 0.000000 0.000000 0.032294
#
#
# Mechanical properties :
#
#
# Convention : Reuss Voigt Hill
#
# Bulk Modulus (GPa) = 13.51322 10.01223 11.76273
# Shear Modulus (GPa) = 86.15539 12.91770 49.53654
#
# Velocity S-wave (km/s) = 6.61142 2.56004 5.01321
# Velocity P-wave (km/s) = 8.07075 3.71727 6.28312
#
# Compressibility (1/GPa) = 0.07400159
#
# Stress axis : x y z
#
# Youngs Moduli (GPa) = -44.53179 36.40118 -27.16012
#
# Poissons Ratio (x) = 1.95900 1.96676
# Poissons Ratio (y) = -2.39657 0.93175
# Poissons Ratio (z) = 3.22470 -1.24877
#
# Static dielectric constant tensor:
#      x y z
#    x 1.666930 0.000000 0.000000 
#    y 0.000000 1.676180 0.000000 
#    z 0.000000 0.000000 1.741380 
# 
# From -- ./inp_files/20971.got.cif
#   From: 2010.05.17/outbox.ucp.g08.bks.cvg/sg62_11_cif.got.tgz:20971.got - 2010.06.11 16:29:25.
