data_PCOD9467737
_publ_section_title
;
Structure prediction by ZEFSAII (Michael W. Deem and Ramdas Pophale) SiO2 
 PCOD9467737
Probable space group: P N M A
;
_chemical_formula_sum "Si O2"
_cell_formula_units_Z 64
_cell_length_a 14.850976
_cell_length_b 22.598790
_cell_length_c 7.419446
_cell_angle_alpha 90.000000
_cell_angle_beta 90.000000
_cell_angle_gamma 90.000000
_cell_volume 2490.070602
_symmetry_space_group_name_H-M "P N M A"
_symmetry_group_IT_number 62
_symmetry_cell_setting 'orthorhombic'
loop_
_space_group_symop_operation_xyz
x,y,z
1/2-x,-y,1/2+z
1/2+x,1/2-y,1/2-z
-x,1/2+y,-z
-x,-y,-z
1/2+x,y,1/2-z
1/2-x,1/2+y,1/2+z
x,1/2-y,z
loop_
_atom_site_type_symbol
_atom_site_label
_atom_site_fract_x
_atom_site_fract_y
_atom_site_fract_z
Si Si1 0.362840 0.401022 0.630077
Si Si2 0.391730 0.557896 0.922307
Si Si3 0.279406 0.686812 0.247440
Si Si4 0.395505 0.520453 0.522262
Si Si5 0.183175 0.814579 0.638998
Si Si6 0.557769 0.145790 0.561515
Si Si7 0.103153 0.938294 0.545332
Si Si8 0.127814 0.184459 0.325836
O O1 0.273544 0.363666 0.643932
O O2 0.349204 0.457095 0.497872
O O3 0.451467 0.362956 0.582893
O O4 0.386153 0.424503 0.831809
O O5 0.361208 0.543234 0.718070
O O6 0.499754 0.552087 0.906297
O O7 0.384205 0.627882 0.953179
O O8 0.357267 0.505645 0.055100
O O9 0.260447 0.750000 0.159977
O O10 0.228712 0.686219 0.441271
O O11 0.384229 0.683619 0.300191
O O12 0.500000 0.500000 0.500000
O O13 0.394755 0.581037 0.412667
O O14 0.135198 0.750000 0.660410
O O15 0.134534 0.878379 0.645319
O O16 0.267496 0.814728 0.771952
O O17 0.576163 0.169421 0.360779
O O18 0.099701 0.250000 0.385742
#
# Coordination Sequence:
#
# PCOD9467737 Si02
#       8
#     8   8   8   8   8   8   8   8
#     4   9  17  30  51  72 103 136 174 213 263 314
#     4   9  17  29  50  71 102 131 162 215 260 308
#     4   9  17  28  46  73 103 131 167 212 253 308
#     4   8  15  29  51  68  92 130 170 218 265 303
#     4   8  15  29  49  70  97 132 171 213 252 301
#     4   9  16  29  51  73 100 134 174 216 267 309
#     4   9  17  30  50  71 105 135 166 211 260 318
#     4   9  17  30  51  76 102 132 173 220 259 307
#
# _framework density 25.702081
#
# number of rings (size 3 to 8) (size 9 to 14) (size 15 to 20)
#    0.000    3.250    0.000    1.125    0.000    1.500 
#    0.000    0.000   82.500    3.000    0.000    5.250 
#    0.000    0.000    0.000    0.000    0.000    0.000 
#
# Total GULP energy -357084.502144 kJ/mol
# GULP energy per Si atom -5579.445346 kJ/mol
# Density = 2.564358 g / cm^3
# Si number density = 25.702081 Si / 1000 Ang^3
#
#
#
# Elastic Constant Matrix: (Units=GPa)
#
#
# Indices 1 2 3 4 5 6 
#
# 1 73.0324 31.7974 2.8876 0.0000 0.0000 0.0000
# 2 31.7974 232.8617 19.6296 0.0000 0.0000 0.0000
# 3 2.8876 19.6296 52.1478 0.0000 0.0000 0.0000
# 4 0.0000 0.0000 0.0000 17.6279 0.0000 0.0000
# 5 0.0000 0.0000 0.0000 0.0000 17.4378 0.0000
# 6 0.0000 0.0000 0.0000 0.0000 0.0000 40.8466
#
#
#
# Elastic Compliance Matrix: (Units=1/GPa)
#
#
# Indices 1 2 3 4 5 6 
#
# 1 0.014558 -0.001983 -0.000060 0.000000 0.000000 0.000000
# 2 -0.001983 0.004705 -0.001661 0.000000 0.000000 0.000000
# 3 -0.000060 -0.001661 0.019805 0.000000 0.000000 0.000000
# 4 0.000000 0.000000 0.000000 0.056728 0.000000 0.000000
# 5 0.000000 0.000000 0.000000 0.000000 0.057347 0.000000
# 6 0.000000 0.000000 0.000000 0.000000 0.000000 0.024482
#
#
# Mechanical properties :
#
#
# Convention : Reuss Voigt Hill
#
# Bulk Modulus (GPa) = 31.58518 51.85236 41.71877
# Shear Modulus (GPa) = 25.56411 35.43093 30.49752
#
# Velocity S-wave (km/s) = 3.15720 3.71688 3.44841
# Velocity P-wave (km/s) = 5.06026 6.21598 5.66765
#
# Compressibility (1/GPa) = 0.03166042
#
# Stress axis : x y z
#
# Youngs Moduli (GPa) = 68.68964 212.53040 50.49241
#
# Poissons Ratio (x) = 0.42143 0.00302
# Poissons Ratio (y) = 0.13620 0.08389
# Poissons Ratio (z) = 0.00410 0.35309
#
# Static dielectric constant tensor:
#      x y z
#    x 1.951670 0.000000 0.000000 
#    y 0.000000 2.211440 0.000000 
#    z 0.000000 0.000000 2.061990 
# 
# From -- ./inp_files/8089.got.cif
#   From: 2010.05.17/outbox.cif.g08.bks.cpg/sg62_5_cif.got.tgz:8089.got - 2010.06.03 15:25:27.
