data_PCOD9467212
_publ_section_title
;
Structure prediction by ZEFSAII (Michael W. Deem and Ramdas Pophale) SiO2 
 PCOD9467212
Probable space group: P N M A
;
_chemical_formula_sum "Si O2"
_cell_formula_units_Z 48
_cell_length_a 27.772012
_cell_length_b 13.719387
_cell_length_c 4.996617
_cell_angle_alpha 90.000000
_cell_angle_beta 90.000000
_cell_angle_gamma 90.000000
_cell_volume 1903.785928
_symmetry_space_group_name_H-M "P N M A"
_symmetry_group_IT_number 62
_symmetry_cell_setting 'orthorhombic'
loop_
_space_group_symop_operation_xyz
x,y,z
1/2-x,-y,1/2+z
1/2+x,1/2-y,1/2-z
-x,1/2+y,-z
-x,-y,-z
1/2+x,y,1/2-z
1/2-x,1/2+y,1/2+z
x,1/2-y,z
loop_
_atom_site_type_symbol
_atom_site_label
_atom_site_fract_x
_atom_site_fract_y
_atom_site_fract_z
Si Si1 0.711006 0.359901 0.068169
Si Si2 0.194950 0.940722 0.667517
Si Si3 0.445784 0.948090 0.278925
Si Si4 0.357529 0.363177 0.651749
Si Si5 0.041572 0.861412 0.456022
Si Si6 0.605040 0.136900 0.223023
O O1 0.711030 0.250000 0.958740
O O2 0.708121 0.445942 0.851891
O O3 0.758988 0.380795 0.234010
O O4 0.662566 0.370126 0.245702
O O5 0.177669 0.904828 0.378805
O O6 0.152722 0.920223 0.879556
O O7 0.425687 0.925817 0.570150
O O8 0.407943 0.901623 0.070436
O O9 0.454625 0.059439 0.192507
O O10 0.346779 0.250000 0.598645
O O11 0.410454 0.368073 0.777354
O O12 0.037328 0.750000 0.553427
O O13 0.995367 0.891449 0.282125
O O14 0.591476 0.250000 0.252285
#
# Coordination Sequence:
#
# PCOD9467212 Si02
#       6
#     8   8   8   8   8   8
#     4  11  27  49  76 109 145 192 244 296 361 430
#     4  12  26  48  76 108 148 190 239 300 358 425
#     4  11  25  46  73 106 146 189 240 300 358 426
#     4  11  25  46  74 108 147 191 241 297 359 429
#     4  10  24  45  73 108 146 192 242 295 360 430
#     4  11  25  47  74 104 142 188 240 297 358 428
#
# _framework density 25.21292
#
# number of rings (size 3 to 8) (size 9 to 14) (size 15 to 20)
#    0.000    1.000    0.000    5.000    0.000   13.333 
#    0.000   16.667    0.000    7.000    0.000    0.000 
#    0.000    0.000    0.000    0.000    0.000    0.000 
#
# Total GULP energy -269665.572391 kJ/mol
# GULP energy per Si atom -5618.032758 kJ/mol
# Density = 2.515553 g / cm^3
# Si number density = 25.212920 Si / 1000 Ang^3
#
#
#
# Elastic Constant Matrix: (Units=GPa)
#
#
# Indices 1 2 3 4 5 6 
#
# 1 118.2121 21.9182 -10.3625 0.0000 0.0000 0.0000
# 2 21.9182 214.1393 16.4886 0.0000 0.0000 0.0000
# 3 -10.3625 16.4886 65.1870 0.0000 0.0000 0.0000
# 4 0.0000 0.0000 0.0000 30.2883 0.0000 0.0000
# 5 0.0000 0.0000 0.0000 0.0000 27.8616 0.0000
# 6 0.0000 0.0000 0.0000 0.0000 0.0000 37.7990
#
#
#
# Elastic Compliance Matrix: (Units=1/GPa)
#
#
# Indices 1 2 3 4 5 6 
#
# 1 0.008795 -0.001028 0.001658 0.000000 0.000000 0.000000
# 2 -0.001028 0.004883 -0.001398 0.000000 0.000000 0.000000
# 3 0.001658 -0.001398 0.015958 0.000000 0.000000 0.000000
# 4 0.000000 0.000000 0.000000 0.033016 0.000000 0.000000
# 5 0.000000 0.000000 0.000000 0.000000 0.035892 0.000000
# 6 0.000000 0.000000 0.000000 0.000000 0.000000 0.026456
#
#
# Mechanical properties :
#
#
# Convention : Reuss Voigt Hill
#
# Bulk Modulus (GPa) = 35.58793 50.40300 42.99546
# Shear Modulus (GPa) = 36.79116 43.82273 40.30694
#
# Velocity S-wave (km/s) = 3.82412 4.17358 4.00267
# Velocity P-wave (km/s) = 5.80035 6.57719 6.20095
#
# Compressibility (1/GPa) = 0.02809942
#
# Stress axis : x y z
#
# Youngs Moduli (GPa) = 113.69686 204.80259 62.66528
#
# Poissons Ratio (x) = 0.21052 -0.10391
# Poissons Ratio (y) = 0.11687 0.08764
# Poissons Ratio (z) = -0.18853 0.28641
#
# Static dielectric constant tensor:
#      x y z
#    x 1.985780 0.000000 0.000000 
#    y 0.000000 1.980240 0.000000 
#    z 0.000000 0.000000 1.921310 
# 
# From -- ./inp_files/9770.got.cif
#   From: 2010.05.17/outbox.cif.g08.bks.cpg/sg62_5_cif.got.tgz:9770.got - 2010.06.03 15:25:27.
