data_PCOD9467430
_publ_section_title
;
Structure prediction by ZEFSAII (Michael W. Deem and Ramdas Pophale) SiO2 
 PCOD9467430
Probable space group: P N M A
;
_chemical_formula_sum "Si O2"
_cell_formula_units_Z 48
_cell_length_a 8.692644
_cell_length_b 27.889995
_cell_length_c 9.344204
_cell_angle_alpha 90.000000
_cell_angle_beta 90.000000
_cell_angle_gamma 90.000000
_cell_volume 2265.388239
_symmetry_space_group_name_H-M "P N M A"
_symmetry_group_IT_number 62
_symmetry_cell_setting 'orthorhombic'
loop_
_space_group_symop_operation_xyz
x,y,z
1/2-x,-y,1/2+z
1/2+x,1/2-y,1/2-z
-x,1/2+y,-z
-x,-y,-z
1/2+x,y,1/2-z
1/2-x,1/2+y,1/2+z
x,1/2-y,z
loop_
_atom_site_type_symbol
_atom_site_label
_atom_site_fract_x
_atom_site_fract_y
_atom_site_fract_z
Si Si1 0.317105 0.550690 0.193606
Si Si2 0.004015 0.803350 0.531050
Si Si3 0.381168 0.399481 0.901899
Si Si4 0.152081 0.407531 0.155176
Si Si5 0.190499 0.196653 0.213469
Si Si6 0.831645 0.458407 0.106681
O O1 0.241979 0.596055 0.274577
O O2 0.485104 0.563826 0.138128
O O3 0.322839 0.507761 0.306598
O O4 0.216893 0.536533 0.056815
O O5 0.013365 0.750000 0.466308
O O6 0.045531 0.847313 0.429132
O O7 0.134604 0.805335 0.656873
O O8 0.844080 0.807716 0.617387
O O9 0.292801 0.414869 0.045933
O O10 0.115298 0.350925 0.147962
O O11 0.214522 0.422570 0.310890
O O12 0.002127 0.437193 0.117049
O O13 0.133320 0.250000 0.171863
#
# Coordination Sequence:
#
# PCOD9467430 Si02
#       6
#     8   8   8   8   8   8
#     4  12  26  44  63  87 119 160 206 253 308 366
#     4   9  18  35  60  91 125 160 199 246 299 357
#     4  11  24  42  63  88 122 161 203 251 304 363
#     4  11  22  39  63  92 124 159 201 250 304 361
#     4   9  17  31  56  89 122 154 192 239 290 345
#     4  12  25  41  63  89 120 158 203 253 305 364
#
# _framework density 21.188421999999999
#
# number of rings (size 3 to 8) (size 9 to 14) (size 15 to 20)
#    0.000    1.333    0.000    7.000    0.000    4.000 
#    0.000    2.500    0.000    4.000    0.000    0.000 
#    0.000    0.000    0.000    0.000    0.000    0.000 
#
# Total GULP energy -268285.170831 kJ/mol
# GULP energy per Si atom -5589.274392 kJ/mol
# Density = 2.114020 g / cm^3
# Si number density = 21.188422 Si / 1000 Ang^3
#
#
#
# Elastic Constant Matrix: (Units=GPa)
#
#
# Indices 1 2 3 4 5 6 
#
# 1 36.9924 17.7333 -4.4460 0.0000 0.0000 0.0000
# 2 17.7333 115.9639 33.1607 0.0000 0.0000 0.0000
# 3 -4.4460 33.1607 74.0332 0.0000 0.0000 0.0000
# 4 0.0000 0.0000 0.0000 28.0677 0.0000 0.0000
# 5 0.0000 0.0000 0.0000 0.0000 39.1477 0.0000
# 6 0.0000 0.0000 0.0000 0.0000 0.0000 22.5909
#
#
#
# Elastic Compliance Matrix: (Units=1/GPa)
#
#
# Indices 1 2 3 4 5 6 
#
# 1 0.030416 -0.005934 0.004484 0.000000 0.000000 0.000000
# 2 -0.005934 0.011048 -0.005305 0.000000 0.000000 0.000000
# 3 0.004484 -0.005305 0.016153 0.000000 0.000000 0.000000
# 4 0.000000 0.000000 0.000000 0.035628 0.000000 0.000000
# 5 0.000000 0.000000 0.000000 0.000000 0.025544 0.000000
# 6 0.000000 0.000000 0.000000 0.000000 0.000000 0.044266
#
#
# Mechanical properties :
#
#
# Convention : Reuss Voigt Hill
#
# Bulk Modulus (GPa) = 22.67139 35.54283 29.10711
# Shear Modulus (GPa) = 26.14169 29.99735 28.06952
#
# Velocity S-wave (km/s) = 3.51632 3.76672 3.64367
# Velocity P-wave (km/s) = 5.21624 5.97734 5.60971
#
# Compressibility (1/GPa) = 0.04410846
#
# Stress axis : x y z
#
# Youngs Moduli (GPa) = 32.87751 90.51677 61.90861
#
# Poissons Ratio (x) = 0.53709 -0.27762
# Poissons Ratio (y) = 0.19508 0.32841
# Poissons Ratio (z) = -0.14743 0.48017
#
# Static dielectric constant tensor:
#      x y z
#    x 1.789310 0.000000 0.000000 
#    y 0.000000 1.794170 0.000000 
#    z 0.000000 0.000000 1.745130 
# 
# From -- ./inp_files/4489.got.cif
#   From: 2010.05.17/outbox.cif.g08.bks.cpg/sg62_3_cif.got.tgz:4489.got - 2010.06.03 15:25:27.
