data_PCOD9467892
_publ_section_title
;
Structure prediction by ZEFSAII (Michael W. Deem and Ramdas Pophale) SiO2 
 PCOD9467892
Probable space group: P N M A
;
_chemical_formula_sum "Si O2"
_cell_formula_units_Z 48
_cell_length_a 30.000000
_cell_length_b 9.000000
_cell_length_c 9.000000
_cell_angle_alpha 90.000000
_cell_angle_beta 90.000000
_cell_angle_gamma 90.000000
_cell_volume 2430.000000
_symmetry_space_group_name_H-M "P N M A"
_symmetry_group_IT_number 62
_symmetry_cell_setting 'orthorhombic'
loop_
_space_group_symop_operation_xyz
x,y,z
1/2-x,-y,1/2+z
1/2+x,1/2-y,1/2-z
-x,1/2+y,-z
-x,-y,-z
1/2+x,y,1/2-z
1/2-x,1/2+y,1/2+z
x,1/2-y,z
loop_
_atom_site_type_symbol
_atom_site_label
_atom_site_fract_x
_atom_site_fract_y
_atom_site_fract_z
Si Si1 0.035853 0.918008 0.297456
Si Si2 0.379470 0.427395 0.612918
Si Si3 0.218085 0.920340 0.101557
Si Si4 0.117630 0.418755 0.801894
Si Si5 0.954041 0.087479 0.348959
Si Si6 0.703323 0.584060 0.751182
O O1 0.024736 0.750000 0.243202
O O2 0.082608 0.963726 0.228959
O O3 0.038793 0.907796 0.475137
O O4 0.998938 0.040696 0.265640
O O5 0.376490 0.250000 0.600624
O O6 0.329996 0.475512 0.657235
O O7 0.390370 0.488634 0.451121
O O8 0.226259 0.750000 0.152239
O O9 0.255350 0.030641 0.155228
O O10 0.215213 0.917766 0.923324
O O11 0.119314 0.250000 0.844665
O O12 0.079585 0.457369 0.687053
O O13 0.163370 0.470851 0.729911
O O14 0.937735 0.250000 0.301064
O O15 0.688786 0.750000 0.790579
#
# Coordination Sequence:
#
# PCOD9467892 Si02
#       6
#     8   8   8   8   8   8
#     4   9  19  36  57  80 106 139 178 219 264 314
#     4   9  19  37  57  78 107 139 175 220 266 313
#     4   9  19  35  54  79 108 138 175 219 265 314
#     4  11  22  36  55  79 107 140 179 220 263 314
#     4  10  20  35  55  80 110 142 176 217 266 316
#     4  10  21  37  56  79 108 141 177 218 264 313
#
# _framework density 19.753086
#
# number of rings (size 3 to 8) (size 9 to 14) (size 15 to 20)
#    0.000    2.333    0.000    3.500    0.000    6.667 
#    0.000    1.667    0.000    0.000    0.000    0.000 
#    0.000    0.000    0.000    0.000    0.000    0.000 
#
# Total GULP energy -267411.971888 kJ/mol
# GULP energy per Si atom -5571.082748 kJ/mol
# Density = 1.970813 g / cm^3
# Si number density = 19.753086 Si / 1000 Ang^3
#
#
#
# Elastic Constant Matrix: (Units=GPa)
#
#
# Indices 1 2 3 4 5 6 
#
# 1 37.9496 26.0738 9.1269 0.0000 0.0000 0.0000
# 2 26.0738 -35.1497 11.7713 0.0000 0.0000 0.0000
# 3 9.1269 11.7713 -20.4857 0.0000 0.0000 0.0000
# 4 0.0000 0.0000 0.0000 15.6823 0.0000 0.0000
# 5 0.0000 0.0000 0.0000 0.0000 16.9419 0.0000
# 6 0.0000 0.0000 0.0000 0.0000 0.0000 34.3859
#
#
#
# Elastic Compliance Matrix: (Units=1/GPa)
#
#
# Indices 1 2 3 4 5 6 
#
# 1 0.013060 0.014409 0.014098 0.000000 0.000000 0.000000
# 2 0.014409 -0.019331 -0.004688 0.000000 0.000000 0.000000
# 3 0.014098 -0.004688 -0.045227 0.000000 0.000000 0.000000
# 4 0.000000 0.000000 0.000000 0.063766 0.000000 0.000000
# 5 0.000000 0.000000 0.000000 0.000000 0.059025 0.000000
# 6 0.000000 0.000000 0.000000 0.000000 0.000000 0.029082
#
#
# Mechanical properties :
#
#
# Convention : Reuss Voigt Hill
#
# Bulk Modulus (GPa) = -259.08228 8.47313 -125.30457
# Shear Modulus (GPa) = 97.18213 9.09148 53.13680
#
# Velocity S-wave (km/s) = 7.02177 2.14769 5.19220
# Velocity P-wave (km/s) = 8.10585 3.23248 5.25623
#
# Compressibility (1/GPa) = -0.00385978
#
# Stress axis : x y z
#
# Youngs Moduli (GPa) = 76.56939 -51.73007 -22.11056
#
# Poissons Ratio (x) = 0.74539 0.31172
# Poissons Ratio (y) = -1.10331 -0.10366
# Poissons Ratio (z) = -1.07950 -0.24252
#
# Static dielectric constant tensor:
#      x y z
#    x 1.830670 0.000000 0.000000 
#    y 0.000000 1.679430 0.000000 
#    z 0.000000 0.000000 1.676060 
# 
# From -- ./inp_files/10185.got.cif
#   From: 2010.05.17/outbox.ucp.g08.bks.cvg/sg62_6_cif.got.tgz:10185.got - 2010.06.11 16:29:25.
