data_PCOD9467197
_publ_section_title
;
Structure prediction by ZEFSAII (Michael W. Deem and Ramdas Pophale) SiO2 
 PCOD9467197
Probable space group: P N M A
;
_chemical_formula_sum "Si O2"
_cell_formula_units_Z 32
_cell_length_a 10.138469
_cell_length_b 23.157585
_cell_length_c 4.954710
_cell_angle_alpha 90.000000
_cell_angle_beta 90.000000
_cell_angle_gamma 90.000000
_cell_volume 1163.278991
_symmetry_space_group_name_H-M "P N M A"
_symmetry_group_IT_number 62
_symmetry_cell_setting 'orthorhombic'
loop_
_space_group_symop_operation_xyz
x,y,z
1/2-x,-y,1/2+z
1/2+x,1/2-y,1/2-z
-x,1/2+y,-z
-x,-y,-z
1/2+x,y,1/2-z
1/2-x,1/2+y,1/2+z
x,1/2-y,z
loop_
_atom_site_type_symbol
_atom_site_label
_atom_site_fract_x
_atom_site_fract_y
_atom_site_fract_z
Si Si1 0.382958 0.250000 0.700525
Si Si2 0.356610 0.750000 0.572461
Si Si3 0.787319 0.848035 0.560316
Si Si4 0.382915 0.054626 0.190696
Si Si5 0.438372 0.569728 0.310340
O O1 0.540150 0.250000 0.673405
O O2 0.329114 0.307146 0.550677
O O3 0.295852 0.250000 0.972461
O O4 0.375475 0.694040 0.757876
O O5 0.728064 0.899759 0.737105
O O6 0.863091 0.875799 0.308795
O O7 0.504159 0.070039 0.391310
O O8 0.352654 0.988256 0.262680
O O9 0.436144 0.060902 0.888992
#
# Coordination Sequence:
#
# PCOD9467197 Si02
#       5
#     4   4   8   8   8
#     4  11  28  48  79 108 158 206 280 336 412 485
#     4  11  28  52  75 122 154 226 272 354 412 497
#     4  11  26  46  78 108 159 210 273 336 416 492
#     4  10  24  44  72 111 156 201 259 324 399 488
#     4  10  24  44  71 110 154 201 257 325 401 481
#
# _framework density 27.508448000000001
#
# number of rings (size 3 to 8) (size 9 to 14) (size 15 to 20)
#    0.000    1.500    0.000    1.500   10.500   10.000 
#    0.000    0.000    0.000    0.000    0.000    0.000 
#    0.000    0.000    0.000    0.000    0.000    0.000 
#
# Total GULP energy -179845.501852 kJ/mol
# GULP energy per Si atom -5620.171933 kJ/mol
# Density = 2.744584 g / cm^3
# Si number density = 27.508448 Si / 1000 Ang^3
#
#
#
# Elastic Constant Matrix: (Units=GPa)
#
#
# Indices 1 2 3 4 5 6 
#
# 1 101.6715 66.4179 35.8289 0.0000 0.0000 0.0000
# 2 66.4179 188.8753 35.9597 0.0000 0.0000 0.0000
# 3 35.8289 35.9597 103.3903 0.0000 0.0000 0.0000
# 4 0.0000 0.0000 0.0000 52.2854 0.0000 0.0000
# 5 0.0000 0.0000 0.0000 0.0000 42.2380 0.0000
# 6 0.0000 0.0000 0.0000 0.0000 0.0000 37.2206
#
#
#
# Elastic Compliance Matrix: (Units=1/GPa)
#
#
# Indices 1 2 3 4 5 6 
#
# 1 0.013746 -0.004205 -0.003301 0.000000 0.000000 0.000000
# 2 -0.004205 0.006956 -0.000962 0.000000 0.000000 0.000000
# 3 -0.003301 -0.000962 0.011151 0.000000 0.000000 0.000000
# 4 0.000000 0.000000 0.000000 0.019126 0.000000 0.000000
# 5 0.000000 0.000000 0.000000 0.000000 0.023675 0.000000
# 6 0.000000 0.000000 0.000000 0.000000 0.000000 0.026867
#
#
# Mechanical properties :
#
#
# Convention : Reuss Voigt Hill
#
# Bulk Modulus (GPa) = 67.04081 74.48335 70.76208
# Shear Modulus (GPa) = 40.50875 43.39749 41.95312
#
# Velocity S-wave (km/s) = 3.84160 3.97622 3.90949
# Velocity P-wave (km/s) = 6.64087 6.94375 6.79400
#
# Compressibility (1/GPa) = 0.01491629
#
# Stress axis : x y z
#
# Youngs Moduli (GPa) = 72.74839 143.75073 89.68092
#
# Poissons Ratio (x) = 0.60452 0.29603
# Poissons Ratio (y) = 0.30593 0.08629
# Poissons Ratio (z) = 0.24014 0.13832
#
# Static dielectric constant tensor:
#      x y z
#    x 2.125350 0.000000 0.000000 
#    y 0.000000 2.096140 0.000000 
#    z 0.000000 0.000000 2.096260 
# 
# From -- ./inp_files/474.got.cif
#   From: 2010.05.17/outbox.cif.g08.bks.cpg/sg62_1_cif.got.tgz:474.got - 2010.06.03 15:25:27.
