data_PCOD9467864
_publ_section_title
;
Structure prediction by ZEFSAII (Michael W. Deem and Ramdas Pophale) SiO2 
 PCOD9467864
Probable space group: P N M A
;
_chemical_formula_sum "Si O2"
_cell_formula_units_Z 48
_cell_length_a 12.000000
_cell_length_b 9.000000
_cell_length_c 24.000000
_cell_angle_alpha 90.000000
_cell_angle_beta 90.000000
_cell_angle_gamma 90.000000
_cell_volume 2592.000000
_symmetry_space_group_name_H-M "P N M A"
_symmetry_group_IT_number 62
_symmetry_cell_setting 'orthorhombic'
loop_
_space_group_symop_operation_xyz
x,y,z
1/2-x,-y,1/2+z
1/2+x,1/2-y,1/2-z
-x,1/2+y,-z
-x,-y,-z
1/2+x,y,1/2-z
1/2-x,1/2+y,1/2+z
x,1/2-y,z
loop_
_atom_site_type_symbol
_atom_site_label
_atom_site_fract_x
_atom_site_fract_y
_atom_site_fract_z
Si Si1 0.680646 0.916776 0.662533
Si Si2 0.855442 0.915821 0.048332
Si Si3 0.620826 0.584638 0.441772
Si Si4 0.617187 0.081611 0.773913
Si Si5 0.193691 0.081779 0.165232
Si Si6 0.579660 0.409709 0.215571
O O1 0.636868 0.750000 0.653652
O O2 0.809745 0.909034 0.679357
O O3 0.669009 0.011408 0.607371
O O4 0.625608 0.988262 0.716992
O O5 0.809080 0.750000 0.043936
O O6 0.989566 0.904670 0.046071
O O7 0.821428 0.016340 0.996135
O O8 0.662299 0.750000 0.429157
O O9 0.634487 0.479378 0.388968
O O10 0.638610 0.250000 0.759957
O O11 0.704753 0.022301 0.818044
O O12 0.496081 0.048608 0.797572
O O13 0.231434 0.250000 0.156555
O O14 0.117714 0.081014 0.220277
O O15 0.520649 0.250000 0.207568
#
# Coordination Sequence:
#
# PCOD9467864 Si02
#       6
#     8   8   8   8   8   8
#     4  10  20  34  52  73 100 133 166 203 246 293
#     4  10  20  33  51  75 102 132 165 203 246 292
#     4  10  20  33  50  74 103 133 166 203 244 292
#     4  11  21  32  50  75 102 131 164 204 247 293
#     4  10  20  34  52  73 100 133 167 204 246 293
#     4   9  19  34  51  72  99 132 166 200 243 293
#
# _framework density 18.518519000000001
#
# number of rings (size 3 to 8) (size 9 to 14) (size 15 to 20)
#    0.000    2.000    0.000    5.500    0.000    8.667 
#    0.000    0.000    0.000    1.000    0.000    0.000 
#    0.000    0.000    0.000    0.000    0.000    0.000 
#
# Total GULP energy -267454.556974 kJ/mol
# GULP energy per Si atom -5571.969937 kJ/mol
# Density = 1.847637 g / cm^3
# Si number density = 18.518519 Si / 1000 Ang^3
#
#
#
# Elastic Constant Matrix: (Units=GPa)
#
#
# Indices 1 2 3 4 5 6 
#
# 1 21.6439 9.6025 -15.2836 0.0000 0.0000 0.0000
# 2 9.6025 -9.4112 -45.2711 0.0000 0.0000 0.0000
# 3 -15.2836 -45.2711 -10.8552 0.0000 0.0000 0.0000
# 4 0.0000 0.0000 0.0000 23.8253 0.0000 0.0000
# 5 0.0000 0.0000 0.0000 0.0000 22.6633 0.0000
# 6 0.0000 0.0000 0.0000 0.0000 0.0000 32.8432
#
#
#
# Elastic Compliance Matrix: (Units=1/GPa)
#
#
# Indices 1 2 3 4 5 6 
#
# 1 0.075888 -0.031026 0.022547 0.000000 0.000000 0.000000
# 2 -0.031026 0.018259 -0.032466 0.000000 0.000000 0.000000
# 3 0.022547 -0.032466 0.011532 0.000000 0.000000 0.000000
# 4 0.000000 0.000000 0.000000 0.041972 0.000000 0.000000
# 5 0.000000 0.000000 0.000000 0.000000 0.044124 0.000000
# 6 0.000000 0.000000 0.000000 0.000000 0.000000 0.030448
#
#
# Mechanical properties :
#
#
# Convention : Reuss Voigt Hill
#
# Bulk Modulus (GPa) = 42.03835 -11.16965 15.43435
# Shear Modulus (GPa) = 16.02340 19.35501 17.68921
#
# Velocity S-wave (km/s) = 2.94473 3.23642 3.09401
# Velocity P-wave (km/s) = 5.85763 2.81445 4.59527
#
# Compressibility (1/GPa) = 0.02378780
#
# Stress axis : x y z
#
# Youngs Moduli (GPa) = 13.17727 54.76683 86.71868
#
# Poissons Ratio (x) = 1.69921 -1.95521
# Poissons Ratio (y) = 0.40884 2.81540
# Poissons Ratio (z) = -0.29710 1.77806
#
# Static dielectric constant tensor:
#      x y z
#    x 1.677210 0.000000 0.000000 
#    y 0.000000 1.790390 0.000000 
#    z 0.000000 0.000000 1.579640 
# 
# From -- ./inp_files/26846.got.cif
#   From: 2010.05.17/outbox.ucp.g08.bks.cvg/sg62_14_cif.got.tgz:26846.got - 2010.06.11 16:29:25.
