data_PCOD9467909
_publ_section_title
;
Structure prediction by ZEFSAII (Michael W. Deem and Ramdas Pophale) SiO2 
 PCOD9467909
Probable space group: P N M A
;
_chemical_formula_sum "Si O2"
_cell_formula_units_Z 64
_cell_length_a 15.000000
_cell_length_b 12.000000
_cell_length_c 18.000000
_cell_angle_alpha 90.000000
_cell_angle_beta 90.000000
_cell_angle_gamma 90.000000
_cell_volume 3240.000000
_symmetry_space_group_name_H-M "P N M A"
_symmetry_group_IT_number 62
_symmetry_cell_setting 'orthorhombic'
loop_
_space_group_symop_operation_xyz
x,y,z
1/2-x,-y,1/2+z
1/2+x,1/2-y,1/2-z
-x,1/2+y,-z
-x,-y,-z
1/2+x,y,1/2-z
1/2-x,1/2+y,1/2+z
x,1/2-y,z
loop_
_atom_site_type_symbol
_atom_site_label
_atom_site_fract_x
_atom_site_fract_y
_atom_site_fract_z
Si Si1 0.128742 0.879580 0.080808
Si Si2 0.247248 0.875891 0.389615
Si Si3 0.298515 0.517262 0.018723
Si Si4 0.500259 0.984769 0.203477
Si Si5 0.166563 0.879988 0.664699
Si Si6 0.189841 0.964390 0.238799
Si Si7 0.976700 0.619742 0.455609
Si Si8 0.947201 0.883584 0.139606
O O1 0.125873 0.750000 0.061594
O O2 0.167087 0.896988 0.164260
O O3 0.028522 0.925339 0.088614
O O4 0.198284 0.940300 0.028371
O O5 0.235927 0.750000 0.416759
O O6 0.190969 0.959950 0.439330
O O7 0.222131 0.884314 0.303828
O O8 0.350820 0.908838 0.392621
O O9 0.314528 0.424416 0.081863
O O10 0.369495 0.613730 0.035030
O O11 0.434346 0.085073 0.183336
O O12 0.599147 0.017771 0.229064
O O13 0.500732 0.905042 0.130722
O O14 0.459001 0.925992 0.276361
O O15 0.180618 0.750000 0.670810
O O16 0.234448 0.947324 0.717533
O O17 0.005145 0.750000 0.475102
O O18 0.000000 0.500000 0.500000
O O19 0.955109 0.750000 0.142785
#
# Coordination Sequence:
#
# PCOD9467909 Si02
#       8
#     8   8   8   8   8   8   8   8
#     4   9  18  35  57  82 110 147 188 234 294 354
#     4  11  21  35  57  87 118 150 196 251 305 350
#     4  10  22  37  56  82 116 156 196 242 295 362
#     4  10  20  37  60  84 115 151 198 246 304 354
#     4  10  21  38  56  80 116 157 198 240 297 364
#     4  10  20  35  58  86 111 146 189 246 294 352
#     4  11  24  40  61  89 123 163 205 251 308 369
#     4   9  18  33  58  86 111 140 187 249 301 346
#
# _framework density 19.753086
#
# number of rings (size 3 to 8) (size 9 to 14) (size 15 to 20)
#    0.000    2.000    1.250    2.250    0.000    6.000 
#    0.000    2.500    0.000    0.000    0.000    0.000 
#    0.000    0.000    0.000    0.000    0.000    0.000 
#
# Total GULP energy -356751.428624 kJ/mol
# GULP energy per Si atom -5574.241072 kJ/mol
# Density = 1.970813 g / cm^3
# Si number density = 19.753086 Si / 1000 Ang^3
#
#
#
# Elastic Constant Matrix: (Units=GPa)
#
#
# Indices 1 2 3 4 5 6 
#
# 1 64.6176 26.4960 -5.4422 0.0000 0.0000 0.0000
# 2 26.4960 67.4163 30.6243 0.0000 0.0000 0.0000
# 3 -5.4422 30.6243 51.1524 0.0000 0.0000 0.0000
# 4 0.0000 0.0000 0.0000 12.0484 0.0000 0.0000
# 5 0.0000 0.0000 0.0000 0.0000 22.8416 0.0000
# 6 0.0000 0.0000 0.0000 0.0000 0.0000 12.2360
#
#
#
# Elastic Compliance Matrix: (Units=1/GPa)
#
#
# Indices 1 2 3 4 5 6 
#
# 1 0.021739 -0.013178 0.010202 0.000000 0.000000 0.000000
# 2 -0.013178 0.028363 -0.018383 0.000000 0.000000 0.000000
# 3 0.010202 -0.018383 0.031640 0.000000 0.000000 0.000000
# 4 0.000000 0.000000 0.000000 0.082999 0.000000 0.000000
# 5 0.000000 0.000000 0.000000 0.000000 0.043780 0.000000
# 6 0.000000 0.000000 0.000000 0.000000 0.000000 0.081726
#
#
# Mechanical properties :
#
#
# Convention : Reuss Voigt Hill
#
# Bulk Modulus (GPa) = 25.62456 31.83805 28.73130
# Shear Modulus (GPa) = 14.45205 18.19241 16.32223
#
# Velocity S-wave (km/s) = 2.70781 3.03808 2.87768
# Velocity P-wave (km/s) = 4.77252 5.33475 5.06144
#
# Compressibility (1/GPa) = 0.03902507
#
# Stress axis : x y z
#
# Youngs Moduli (GPa) = 46.00117 35.25724 31.60524
#
# Poissons Ratio (x) = 0.46463 -0.32245
# Poissons Ratio (y) = 0.60622 0.58099
# Poissons Ratio (z) = -0.46933 0.64812
#
# Static dielectric constant tensor:
#      x y z
#    x 1.774400 0.000000 0.000000 
#    y 0.000000 1.657520 0.000000 
#    z 0.000000 0.000000 1.678920 
# 
# From -- ./inp_files/24028.got.cif
#   From: 2010.05.17/outbox.ucp.g08.bks.cvg/sg62_13_cif.got.tgz:24028.got - 2010.06.11 16:29:25.
