data_PCOD9467506
_publ_section_title
;
Structure prediction by ZEFSAII (Michael W. Deem and Ramdas Pophale) SiO2 
 PCOD9467506
Probable space group: P N M A
;
_chemical_formula_sum "Si O2"
_cell_formula_units_Z 64
_cell_length_a 17.308301
_cell_length_b 15.643136
_cell_length_c 10.988922
_cell_angle_alpha 90.000000
_cell_angle_beta 90.000000
_cell_angle_gamma 90.000000
_cell_volume 2975.317735
_symmetry_space_group_name_H-M "P N M A"
_symmetry_group_IT_number 62
_symmetry_cell_setting 'orthorhombic'
loop_
_space_group_symop_operation_xyz
x,y,z
1/2-x,-y,1/2+z
1/2+x,1/2-y,1/2-z
-x,1/2+y,-z
-x,-y,-z
1/2+x,y,1/2-z
1/2-x,1/2+y,1/2+z
x,1/2-y,z
loop_
_atom_site_type_symbol
_atom_site_label
_atom_site_fract_x
_atom_site_fract_y
_atom_site_fract_z
Si Si1 0.232624 0.563618 0.444662
Si Si2 0.372998 0.527294 0.786279
Si Si3 0.350376 0.844464 0.581078
Si Si4 0.876615 0.349152 0.366118
Si Si5 0.520949 0.843450 0.475529
Si Si6 0.049968 0.350959 0.471176
Si Si7 0.862805 0.053807 0.125184
Si Si8 0.528492 0.425211 0.759260
O O1 0.179882 0.552145 0.326133
O O2 0.296615 0.636871 0.465068
O O3 0.172405 0.585408 0.551625
O O4 0.284223 0.477639 0.436968
O O5 0.336066 0.581129 0.677707
O O6 0.388155 0.593362 0.896851
O O7 0.457559 0.491599 0.758011
O O8 0.334835 0.750000 0.630201
O O9 0.440288 0.849436 0.547666
O O10 0.856630 0.250000 0.391931
O O11 0.859681 0.372028 0.226249
O O12 0.966815 0.359269 0.402340
O O13 0.555165 0.750000 0.498960
O O14 0.577468 0.916688 0.522200
O O15 0.498044 0.853533 0.335582
O O16 0.068357 0.250000 0.474372
O O17 0.041589 0.389388 0.606297
O O18 0.899003 0.974852 0.201479
#
# Coordination Sequence:
#
# PCOD9467506 Si02
#       8
#     8   8   8   8   8   8   8   8
#     4  12  25  40  61  98 132 172 208 268 341 396
#     4  12  23  41  69  98 127 169 227 272 324 387
#     4  11  23  43  67  95 130 170 217 273 329 391
#     4  11  23  43  67  95 130 170 217 273 329 391
#     4  11  23  41  67  97 128 170 219 272 329 388
#     4  11  23  41  67  97 128 170 219 272 329 388
#     4  12  23  41  69  98 127 169 227 272 324 387
#     4  12  21  40  65  98 134 172 216 274 321 392
#
# _framework density 21.510307000000001
#
# number of rings (size 3 to 8) (size 9 to 14) (size 15 to 20)
#    0.000    0.500    5.000    4.500    0.000    2.000 
#    0.000    1.875    0.000    0.000    0.000    0.000 
#    0.000    0.000    0.000    0.000    0.000    0.000 
#
# Total GULP energy -357565.847239 kJ/mol
# GULP energy per Si atom -5586.966363 kJ/mol
# Density = 2.146135 g / cm^3
# Si number density = 21.510307 Si / 1000 Ang^3
#
#
#
# Elastic Constant Matrix: (Units=GPa)
#
#
# Indices 1 2 3 4 5 6 
#
# 1 68.3119 19.5507 10.3586 0.0000 0.0000 0.0000
# 2 19.5507 79.4265 43.2842 0.0000 0.0000 0.0000
# 3 10.3586 43.2842 88.4923 0.0000 0.0000 0.0000
# 4 0.0000 0.0000 0.0000 35.0329 0.0000 0.0000
# 5 0.0000 0.0000 0.0000 0.0000 19.2559 0.0000
# 6 0.0000 0.0000 0.0000 0.0000 0.0000 16.3133
#
#
#
# Elastic Compliance Matrix: (Units=1/GPa)
#
#
# Indices 1 2 3 4 5 6 
#
# 1 0.015748 -0.003916 0.000072 0.000000 0.000000 0.000000
# 2 -0.003916 0.018139 -0.008414 0.000000 0.000000 0.000000
# 3 0.000072 -0.008414 0.015408 0.000000 0.000000 0.000000
# 4 0.000000 0.000000 0.000000 0.028545 0.000000 0.000000
# 5 0.000000 0.000000 0.000000 0.000000 0.051932 0.000000
# 6 0.000000 0.000000 0.000000 0.000000 0.000000 0.061300
#
#
# Mechanical properties :
#
#
# Convention : Reuss Voigt Hill
#
# Bulk Modulus (GPa) = 40.35585 42.51310 41.43448
# Shear Modulus (GPa) = 22.33661 24.98957 23.66309
#
# Velocity S-wave (km/s) = 3.22594 3.41214 3.32035
# Velocity P-wave (km/s) = 5.71642 5.94395 5.83130
#
# Compressibility (1/GPa) = 0.02477955
#
# Stress axis : x y z
#
# Youngs Moduli (GPa) = 63.49822 55.12843 64.90277
#
# Poissons Ratio (x) = 0.21586 -0.00466
# Poissons Ratio (y) = 0.24863 0.54611
# Poissons Ratio (z) = -0.00456 0.46386
#
# Static dielectric constant tensor:
#      x y z
#    x 1.774520 0.000000 0.000000 
#    y 0.000000 1.778110 0.000000 
#    z 0.000000 0.000000 1.786330 
# 
# From -- ./inp_files/14336.got.cif
#   From: 2010.05.17/outbox.cif.g08.bks.cpg/sg62_8_cif.got.tgz:14336.got - 2010.06.03 15:25:27.
