data_PCOD9467964
_publ_section_title
;
Structure prediction by ZEFSAII (Michael W. Deem and Ramdas Pophale) SiO2 
 PCOD9467964
Probable space group: P N M A
;
_chemical_formula_sum "Si O2"
_cell_formula_units_Z 64
_cell_length_a 30.000000
_cell_length_b 12.000000
_cell_length_c 9.000000
_cell_angle_alpha 90.000000
_cell_angle_beta 90.000000
_cell_angle_gamma 90.000000
_cell_volume 3240.000000
_symmetry_space_group_name_H-M "P N M A"
_symmetry_group_IT_number 62
_symmetry_cell_setting 'orthorhombic'
loop_
_space_group_symop_operation_xyz
x,y,z
1/2-x,-y,1/2+z
1/2+x,1/2-y,1/2-z
-x,1/2+y,-z
-x,-y,-z
1/2+x,y,1/2-z
1/2-x,1/2+y,1/2+z
x,1/2-y,z
loop_
_atom_site_type_symbol
_atom_site_label
_atom_site_fract_x
_atom_site_fract_y
_atom_site_fract_z
Si Si1 0.221274 0.120820 0.466952
Si Si2 0.869415 0.882521 0.364062
Si Si3 0.026565 0.629429 0.849092
Si Si4 0.932675 0.947581 0.938674
Si Si5 0.158802 0.375113 0.955283
Si Si6 0.791947 0.470029 0.804617
Si Si7 0.949175 0.460959 0.455717
Si Si8 0.887206 0.377768 0.720811
O O1 0.225170 0.250000 0.423255
O O2 0.169653 0.100968 0.515067
O O3 0.254809 0.098792 0.604391
O O4 0.230246 0.040722 0.327835
O O5 0.876050 0.750000 0.346688
O O6 0.847679 0.924706 0.209574
O O7 0.916537 0.938092 0.403676
O O8 0.039189 0.750000 0.913941
O O9 0.042409 0.620227 0.681540
O O10 0.973377 0.615556 0.862353
O O11 0.047088 0.521985 0.929410
O O12 0.910471 0.037546 0.832350
O O13 0.892246 0.871264 0.988875
O O14 0.177488 0.250000 0.945440
O O15 0.186489 0.448101 0.071122
O O16 0.834068 0.404523 0.731162
O O17 0.916942 0.400257 0.574152
O O18 0.000000 0.500000 0.500000
O O19 0.892597 0.250000 0.763876
#
# Coordination Sequence:
#
# PCOD9467964 Si02
#       8
#     8   8   8   8   8   8   8   8
#     4  11  23  43  69  97 130 169 212 266 328 389
#     4  10  22  41  65  91 125 165 214 268 321 375
#     4  11  22  37  58  83 117 163 215 267 314 367
#     4  10  21  38  57  85 121 157 213 262 314 377
#     4  10  20  38  65  92 124 166 209 261 320 379
#     4  11  23  41  69  98 136 162 214 266 322 402
#     4  12  23  42  59  91 127 168 217 262 316 380
#     4  11  23  41  62  89 127 169 206 258 322 384
#
# _framework density 19.753086
#
# number of rings (size 3 to 8) (size 9 to 14) (size 15 to 20)
#    0.000    1.250    3.750    2.625    0.000    1.000 
#    0.000    1.875    0.000    0.000    0.000    0.000 
#    0.000    0.000    0.000    0.000    0.000    0.000 
#
# Total GULP energy -356810.964298 kJ/mol
# GULP energy per Si atom -5575.171317 kJ/mol
# Density = 1.970813 g / cm^3
# Si number density = 19.753086 Si / 1000 Ang^3
#
#
#
# Elastic Constant Matrix: (Units=GPa)
#
#
# Indices 1 2 3 4 5 6 
#
# 1 85.5058 10.0457 10.3046 0.0000 0.0000 0.0000
# 2 10.0457 75.3043 19.1868 0.0000 0.0000 0.0000
# 3 10.3046 19.1868 63.0779 0.0000 0.0000 0.0000
# 4 0.0000 0.0000 0.0000 34.3947 0.0000 0.0000
# 5 0.0000 0.0000 0.0000 0.0000 34.2715 0.0000
# 6 0.0000 0.0000 0.0000 0.0000 0.0000 15.4562
#
#
#
# Elastic Compliance Matrix: (Units=1/GPa)
#
#
# Indices 1 2 3 4 5 6 
#
# 1 0.012029 -0.001197 -0.001601 0.000000 0.000000 0.000000
# 2 -0.001197 0.014514 -0.004219 0.000000 0.000000 0.000000
# 3 -0.001601 -0.004219 0.017398 0.000000 0.000000 0.000000
# 4 0.000000 0.000000 0.000000 0.029074 0.000000 0.000000
# 5 0.000000 0.000000 0.000000 0.000000 0.029179 0.000000
# 6 0.000000 0.000000 0.000000 0.000000 0.000000 0.064699
#
#
# Mechanical properties :
#
#
# Convention : Reuss Voigt Hill
#
# Bulk Modulus (GPa) = 33.43700 33.66247 33.54973
# Shear Modulus (GPa) = 26.19223 29.11455 27.65339
#
# Velocity S-wave (km/s) = 3.64535 3.84334 3.74565
# Velocity P-wave (km/s) = 5.88917 6.06412 5.97729
#
# Compressibility (1/GPa) = 0.02990699
#
# Stress axis : x y z
#
# Youngs Moduli (GPa) = 83.13482 68.89828 57.47655
#
# Poissons Ratio (x) = 0.08245 0.09202
# Poissons Ratio (y) = 0.09949 0.24252
# Poissons Ratio (z) = 0.13310 0.29071
#
# Static dielectric constant tensor:
#      x y z
#    x 1.658360 0.000000 0.000000 
#    y 0.000000 1.668780 0.000000 
#    z 0.000000 0.000000 1.608390 
# 
# From -- ./inp_files/10508.got.cif
#   From: 2010.05.17/outbox.ucp.g08.bks.cvg/sg62_6_cif.got.tgz:10508.got - 2010.06.11 16:29:25.
