data_PCOD9467534
_publ_section_title
;
Structure prediction by ZEFSAII (Michael W. Deem and Ramdas Pophale) SiO2 
 PCOD9467534
Probable space group: P N M A
;
_chemical_formula_sum "Si O2"
_cell_formula_units_Z 56
_cell_length_a 9.018090
_cell_length_b 24.725216
_cell_length_c 11.111543
_cell_angle_alpha 90.000000
_cell_angle_beta 90.000000
_cell_angle_gamma 90.000000
_cell_volume 2477.587669
_symmetry_space_group_name_H-M "P N M A"
_symmetry_group_IT_number 62
_symmetry_cell_setting 'orthorhombic'
loop_
_space_group_symop_operation_xyz
x,y,z
1/2-x,-y,1/2+z
1/2+x,1/2-y,1/2-z
-x,1/2+y,-z
-x,-y,-z
1/2+x,y,1/2-z
1/2-x,1/2+y,1/2+z
x,1/2-y,z
loop_
_atom_site_type_symbol
_atom_site_label
_atom_site_fract_x
_atom_site_fract_y
_atom_site_fract_z
Si Si1 0.995200 0.954311 0.295003
Si Si2 0.585542 0.633398 0.017102
Si Si3 0.361113 0.250000 0.874912
Si Si4 0.401839 0.574152 0.472527
Si Si5 0.129610 0.360671 0.294944
Si Si6 0.505360 0.250000 0.612600
Si Si7 0.726879 0.024336 0.315031
Si Si8 0.428498 0.336796 0.415866
O O1 0.002021 0.905773 0.388772
O O2 0.941043 0.933975 0.165188
O O3 0.892808 0.004476 0.334178
O O4 0.154981 0.980137 0.272248
O O5 0.586178 0.695417 0.059273
O O6 0.755643 0.612585 0.015825
O O7 0.500702 0.628755 0.890898
O O8 0.426251 0.250000 0.740701
O O9 0.182376 0.250000 0.871637
O O10 0.354980 0.523938 0.555920
O O11 0.539945 0.602359 0.539317
O O12 0.195708 0.417067 0.242517
O O13 0.266460 0.331304 0.359504
O O14 0.052879 0.327813 0.186619
O O15 0.455820 0.300541 0.531732
#
# Coordination Sequence:
#
# PCOD9467534 Si02
#       8
#     8   8   4   8   8   4   8   8
#     4  12  25  40  69 105 143 199 250 310 377 458
#     4  12  27  46  75 104 152 195 256 311 384 443
#     4  12  30  51  77 110 146 199 252 324 372 451
#     4  11  23  45  65 101 145 194 249 312 368 457
#     4  11  26  47  74 108 151 193 246 311 378 464
#     4  12  28  49  83 106 150 193 256 312 384 441
#     4  11  24  42  68 101 147 192 245 309 382 446
#     4  11  25  47  75 106 146 192 246 312 378 441
#
# _framework density 22.602630999999999
#
# number of rings (size 3 to 8) (size 9 to 14) (size 15 to 20)
#    0.000    0.571    2.857    5.571    6.000    2.286 
#    0.000    0.000    0.000    0.000    0.000    0.000 
#    0.000    0.000    0.000    0.000    0.000    0.000 
#
# Total GULP energy -313465.670172 kJ/mol
# GULP energy per Si atom -5597.601253 kJ/mol
# Density = 2.255119 g / cm^3
# Si number density = 22.602631 Si / 1000 Ang^3
#
#
#
# Elastic Constant Matrix: (Units=GPa)
#
#
# Indices 1 2 3 4 5 6 
#
# 1 81.9126 19.6282 10.7536 0.0000 0.0000 0.0000
# 2 19.6282 87.7360 27.2386 0.0000 0.0000 0.0000
# 3 10.7536 27.2386 101.2083 0.0000 0.0000 0.0000
# 4 0.0000 0.0000 0.0000 27.5361 0.0000 0.0000
# 5 0.0000 0.0000 0.0000 0.0000 34.6176 0.0000
# 6 0.0000 0.0000 0.0000 0.0000 0.0000 21.1328
#
#
#
# Elastic Compliance Matrix: (Units=1/GPa)
#
#
# Indices 1 2 3 4 5 6 
#
# 1 0.012939 -0.002693 -0.000650 0.000000 0.000000 0.000000
# 2 -0.002693 0.012997 -0.003212 0.000000 0.000000 0.000000
# 3 -0.000650 -0.003212 0.010814 0.000000 0.000000 0.000000
# 4 0.000000 0.000000 0.000000 0.036316 0.000000 0.000000
# 5 0.000000 0.000000 0.000000 0.000000 0.028887 0.000000
# 6 0.000000 0.000000 0.000000 0.000000 0.000000 0.047320
#
#
# Mechanical properties :
#
#
# Convention : Reuss Voigt Hill
#
# Bulk Modulus (GPa) = 42.29992 42.89974 42.59983
# Shear Modulus (GPa) = 29.36635 30.87307 30.11971
#
# Velocity S-wave (km/s) = 3.60841 3.69983 3.65441
# Velocity P-wave (km/s) = 6.00967 6.10514 6.05759
#
# Compressibility (1/GPa) = 0.02364071
#
# Stress axis : x y z
#
# Youngs Moduli (GPa) = 77.28725 76.93817 92.47169
#
# Poissons Ratio (x) = 0.20718 0.06011
# Poissons Ratio (y) = 0.20812 0.29701
# Poissons Ratio (z) = 0.05024 0.24712
#
# Static dielectric constant tensor:
#      x y z
#    x 1.835550 0.000000 0.000000 
#    y 0.000000 1.865070 0.000000 
#    z 0.000000 0.000000 1.811220 
# 
# From -- ./inp_files/11467.got.cif
#   From: 2010.05.17/outbox.cif.g08.bks.cpg/sg62_6_cif.got.tgz:11467.got - 2010.06.03 15:25:27.
