data_PCOD9467453
_publ_section_title
;
Structure prediction by ZEFSAII (Michael W. Deem and Ramdas Pophale) SiO2 
 PCOD9467453
Probable space group: P N M A
;
_chemical_formula_sum "Si O2"
_cell_formula_units_Z 60
_cell_length_a 12.382510
_cell_length_b 18.852684
_cell_length_c 13.081866
_cell_angle_alpha 90.000000
_cell_angle_beta 90.000000
_cell_angle_gamma 90.000000
_cell_volume 3053.877216
_symmetry_space_group_name_H-M "P N M A"
_symmetry_group_IT_number 62
_symmetry_cell_setting 'orthorhombic'
loop_
_space_group_symop_operation_xyz
x,y,z
1/2-x,-y,1/2+z
1/2+x,1/2-y,1/2-z
-x,1/2+y,-z
-x,-y,-z
1/2+x,y,1/2-z
1/2-x,1/2+y,1/2+z
x,1/2-y,z
loop_
_atom_site_type_symbol
_atom_site_label
_atom_site_fract_x
_atom_site_fract_y
_atom_site_fract_z
Si Si1 0.599447 0.134881 0.526832
Si Si2 0.164248 0.669350 0.552671
Si Si3 0.096631 0.750000 0.010511
Si Si4 0.692902 0.921147 0.755736
Si Si5 0.052839 0.443552 0.783252
Si Si6 0.259118 0.620711 0.964754
Si Si7 0.142316 0.998219 0.095486
Si Si8 0.014296 0.420710 0.545876
O O1 0.710191 0.164777 0.479286
O O2 0.499816 0.187950 0.514897
O O3 0.616181 0.112053 0.645315
O O4 0.582211 0.060895 0.465838
O O5 0.128044 0.750000 0.548317
O O6 0.147920 0.637202 0.665952
O O7 0.095284 0.620628 0.477445
O O8 0.190557 0.687495 0.002923
O O9 0.744526 0.885787 0.656811
O O10 0.606575 0.978825 0.718296
O O11 0.778232 0.964613 0.823772
O O12 0.039105 0.422900 0.665959
O O13 0.938837 0.450770 0.839727
O O14 0.210120 0.550035 0.018060
O O15 0.385333 0.618587 0.992348
O O16 0.000000 0.500000 0.500000
#
# Coordination Sequence:
#
# PCOD9467453 Si02
#       8
#     8   8   4   8   8   8   8   8
#     4  11  23  46  69  98 138 185 239 287 334 415
#     4  11  26  48  67  97 141 186 227 282 357 422
#     4  12  26  46  68 102 150 180 226 300 356 406
#     4  11  24  41  71 102 127 180 237 288 345 405
#     4  12  22  39  72 102 127 181 233 289 341 395
#     4  12  25  45  69 106 142 181 232 294 348 412
#     4  11  22  41  70  99 135 177 241 291 333 404
#     4  12  25  46  69 102 143 178 230 288 343 417
#
# _framework density 19.647155000000001
#
# number of rings (size 3 to 8) (size 9 to 14) (size 15 to 20)
#    0.000    0.533    6.000    2.800    3.733    0.000 
#    1.200    0.000    0.000    0.000    0.000    0.000 
#    0.000    0.000    0.000    0.000    0.000    0.000 
#
# Total GULP energy -334292.924361 kJ/mol
# GULP energy per Si atom -5571.548739 kJ/mol
# Density = 1.960244 g / cm^3
# Si number density = 19.647155 Si / 1000 Ang^3
#
#
#
# Elastic Constant Matrix: (Units=GPa)
#
#
# Indices 1 2 3 4 5 6 
#
# 1 77.7725 28.4544 5.1578 0.0000 0.0000 0.0000
# 2 28.4544 101.7070 1.1644 0.0000 0.0000 0.0000
# 3 5.1578 1.1644 86.9947 0.0000 0.0000 0.0000
# 4 0.0000 0.0000 0.0000 8.8963 0.0000 0.0000
# 5 0.0000 0.0000 0.0000 0.0000 23.9463 0.0000
# 6 0.0000 0.0000 0.0000 0.0000 0.0000 39.4644
#
#
#
# Elastic Compliance Matrix: (Units=1/GPa)
#
#
# Indices 1 2 3 4 5 6 
#
# 1 0.014380 -0.004014 -0.000799 0.000000 0.000000 0.000000
# 2 -0.004014 0.010954 0.000091 0.000000 0.000000 0.000000
# 3 -0.000799 0.000091 0.011541 0.000000 0.000000 0.000000
# 4 0.000000 0.000000 0.000000 0.112406 0.000000 0.000000
# 5 0.000000 0.000000 0.000000 0.000000 0.041760 0.000000
# 6 0.000000 0.000000 0.000000 0.000000 0.000000 0.025339
#
#
# Mechanical properties :
#
#
# Convention : Reuss Voigt Hill
#
# Bulk Modulus (GPa) = 36.45357 37.33637 36.89497
# Shear Modulus (GPa) = 21.27963 29.90792 25.59377
#
# Velocity S-wave (km/s) = 3.29460 3.90584 3.61317
# Velocity P-wave (km/s) = 5.75039 6.27578 6.01882
#
# Compressibility (1/GPa) = 0.02743215
#
# Stress axis : x y z
#
# Youngs Moduli (GPa) = 69.54342 91.29042 86.64689
#
# Poissons Ratio (x) = 0.36642 0.06922
# Poissons Ratio (y) = 0.27913 -0.00792
# Poissons Ratio (z) = 0.05555 -0.00834
#
# Static dielectric constant tensor:
#      x y z
#    x 1.712000 0.000000 0.000000 
#    y 0.000000 1.719860 0.000000 
#    z 0.000000 0.000000 1.701610 
# 
# From -- ./inp_files/12454.got.cif
#   From: 2010.05.17/outbox.cif.g08.bks.cpg/sg62_7_cif.got.tgz:12454.got - 2010.06.03 15:25:27.
