data_PCOD9467233
_publ_section_title
;
Structure prediction by ZEFSAII (Michael W. Deem and Ramdas Pophale) SiO2 
 PCOD9467233
Probable space group: P N M A
;
_chemical_formula_sum "Si O2"
_cell_formula_units_Z 40
_cell_length_a 8.949942
_cell_length_b 22.759031
_cell_length_c 9.509401
_cell_angle_alpha 90.000000
_cell_angle_beta 90.000000
_cell_angle_gamma 90.000000
_cell_volume 1936.988979
_symmetry_space_group_name_H-M "P N M A"
_symmetry_group_IT_number 62
_symmetry_cell_setting 'orthorhombic'
loop_
_space_group_symop_operation_xyz
x,y,z
1/2-x,-y,1/2+z
1/2+x,1/2-y,1/2-z
-x,1/2+y,-z
-x,-y,-z
1/2+x,y,1/2-z
1/2-x,1/2+y,1/2+z
x,1/2-y,z
loop_
_atom_site_type_symbol
_atom_site_label
_atom_site_fract_x
_atom_site_fract_y
_atom_site_fract_z
Si Si1 0.927353 0.250000 0.050200
Si Si2 0.000051 0.655486 0.445754
Si Si3 0.601374 0.250000 0.170062
Si Si4 0.086374 0.990156 0.142286
Si Si5 0.657602 0.852076 0.334474
Si Si6 0.412689 0.458993 0.104920
O O1 0.778565 0.250000 0.146324
O O2 0.058241 0.250000 0.165997
O O3 0.915593 0.191900 0.950598
O O4 0.963485 0.696911 0.577270
O O5 0.110504 0.673543 0.318336
O O6 0.079778 0.602019 0.525123
O O7 0.835644 0.645067 0.372075
O O8 0.097434 0.919708 0.169852
O O9 0.250718 0.015542 0.129333
O O10 0.002350 0.031653 0.252613
O O11 0.000000 0.000000 0.000000
O O12 0.500000 0.500000 0.000000
#
# Coordination Sequence:
#
# PCOD9467233 Si02
#       6
#     4   8   4   8   8   8
#     4  10  25  44  68  92 132 166 225 268 332 389
#     4  11  25  43  70  95 137 170 227 269 326 394
#     4  10  25  46  66 100 128 174 215 282 324 387
#     4  12  26  41  67  97 137 175 216 273 330 389
#     4  11  23  44  65  96 129 174 219 269 324 396
#     4  12  24  43  65 100 133 172 220 268 326 395
#
# _framework density 20.650607000000001
#
# number of rings (size 3 to 8) (size 9 to 14) (size 15 to 20)
#    0.000    0.800    4.000    1.800    5.600    3.200 
#    0.000    0.000    0.000    0.000    0.000    0.000 
#    0.000    0.000    0.000    0.000    0.000    0.000 
#
# Total GULP energy -223130.807927 kJ/mol
# GULP energy per Si atom -5578.270198 kJ/mol
# Density = 2.060361 g / cm^3
# Si number density = 20.650607 Si / 1000 Ang^3
#
#
#
# Elastic Constant Matrix: (Units=GPa)
#
#
# Indices 1 2 3 4 5 6 
#
# 1 86.1343 2.5864 42.7260 0.0000 0.0000 0.0000
# 2 2.5864 53.9718 8.2024 0.0000 0.0000 0.0000
# 3 42.7260 8.2024 147.6124 0.0000 0.0000 0.0000
# 4 0.0000 0.0000 0.0000 26.4371 0.0000 0.0000
# 5 0.0000 0.0000 0.0000 0.0000 47.9073 0.0000
# 6 0.0000 0.0000 0.0000 0.0000 0.0000 16.6344
#
#
#
# Elastic Compliance Matrix: (Units=1/GPa)
#
#
# Indices 1 2 3 4 5 6 
#
# 1 0.013556 -0.000054 -0.003921 0.000000 0.000000 0.000000
# 2 -0.000054 0.018686 -0.001023 0.000000 0.000000 0.000000
# 3 -0.003921 -0.001023 0.007966 0.000000 0.000000 0.000000
# 4 0.000000 0.000000 0.000000 0.037826 0.000000 0.000000
# 5 0.000000 0.000000 0.000000 0.000000 0.020874 0.000000
# 6 0.000000 0.000000 0.000000 0.000000 0.000000 0.060116
#
#
# Mechanical properties :
#
#
# Convention : Reuss Voigt Hill
#
# Bulk Modulus (GPa) = 33.09731 43.86090 38.47911
# Shear Modulus (GPa) = 27.91887 33.80934 30.86410
#
# Velocity S-wave (km/s) = 3.68089 4.05063 3.87018
# Velocity P-wave (km/s) = 5.84187 6.56981 6.21650
#
# Compressibility (1/GPa) = 0.03021394
#
# Stress axis : x y z
#
# Youngs Moduli (GPa) = 73.76656 53.51538 125.53023
#
# Poissons Ratio (x) = 0.00288 0.49218
# Poissons Ratio (y) = 0.00397 0.12839
# Poissons Ratio (z) = 0.28923 0.05473
#
# Static dielectric constant tensor:
#      x y z
#    x 1.701490 0.000000 0.000000 
#    y 0.000000 1.695170 0.000000 
#    z 0.000000 0.000000 1.586040 
# 
# From -- ./inp_files/4347.got.cif
#   From: 2010.05.17/outbox.cif.g08.bks.cpg/sg62_3_cif.got.tgz:4347.got - 2010.06.03 15:25:27.
