data_PCOD9467142
_publ_section_title
;
Structure prediction by ZEFSAII (Michael W. Deem and Ramdas Pophale) SiO2 
 PCOD9467142
Probable space group: P N M A
;
_chemical_formula_sum "Si O2"
_cell_formula_units_Z 32
_cell_length_a 9.412361
_cell_length_b 27.488754
_cell_length_c 5.020605
_cell_angle_alpha 90.000000
_cell_angle_beta 90.000000
_cell_angle_gamma 90.000000
_cell_volume 1299.001596
_symmetry_space_group_name_H-M "P N M A"
_symmetry_group_IT_number 62
_symmetry_cell_setting 'orthorhombic'
loop_
_space_group_symop_operation_xyz
x,y,z
1/2-x,-y,1/2+z
1/2+x,1/2-y,1/2-z
-x,1/2+y,-z
-x,-y,-z
1/2+x,y,1/2-z
1/2-x,1/2+y,1/2+z
x,1/2-y,z
loop_
_atom_site_type_symbol
_atom_site_label
_atom_site_fract_x
_atom_site_fract_y
_atom_site_fract_z
Si Si1 0.160452 0.305031 0.498215
Si Si2 0.409469 0.356394 0.803793
Si Si3 0.951688 0.612171 0.801119
Si Si4 0.662416 0.484164 0.063239
O O1 0.205130 0.250000 0.453067
O O2 0.269374 0.336781 0.669344
O O3 0.010173 0.309466 0.648627
O O4 0.129348 0.336279 0.233257
O O5 0.488157 0.391730 0.594605
O O6 0.418780 0.382407 0.088443
O O7 0.856772 0.568711 0.695469
O O8 0.754858 0.485255 0.792184
O O9 0.500000 0.500000 0.000000
#
# Coordination Sequence:
#
# PCOD9467142 Si02
#       4
#     8   8   8   8
#     4  10  24  42  68  97 134 178 228 278 339 410
#     4  10  24  41  66  95 134 176 220 278 339 403
#     4  10  26  43  70  95 143 172 232 276 356 400
#     4  12  28  46  77 107 144 187 245 300 366 435
#
# _framework density 24.634304
#
# number of rings (size 3 to 8) (size 9 to 14) (size 15 to 20)
#    1.500    0.000    0.000    3.000   10.500    2.000 
#    0.000    0.000    0.000    0.000    0.000    0.000 
#    0.000    0.000    0.000    0.000    0.000    0.000 
#
# Total GULP energy -178791.332411 kJ/mol
# GULP energy per Si atom -5587.229138 kJ/mol
# Density = 2.457824 g / cm^3
# Si number density = 24.634304 Si / 1000 Ang^3
#
#
#
# Elastic Constant Matrix: (Units=GPa)
#
#
# Indices 1 2 3 4 5 6 
#
# 1 112.5430 25.2231 30.1615 0.0000 0.0000 0.0000
# 2 25.2231 94.7427 19.5800 0.0000 0.0000 0.0000
# 3 30.1615 19.5800 119.3731 0.0000 0.0000 0.0000
# 4 0.0000 0.0000 0.0000 24.5787 0.0000 0.0000
# 5 0.0000 0.0000 0.0000 0.0000 40.6218 0.0000
# 6 0.0000 0.0000 0.0000 0.0000 0.0000 29.3825
#
#
#
# Elastic Compliance Matrix: (Units=1/GPa)
#
#
# Indices 1 2 3 4 5 6 
#
# 1 0.009957 -0.002206 -0.002154 0.000000 0.000000 0.000000
# 2 -0.002206 0.011414 -0.001315 0.000000 0.000000 0.000000
# 3 -0.002154 -0.001315 0.009137 0.000000 0.000000 0.000000
# 4 0.000000 0.000000 0.000000 0.040686 0.000000 0.000000
# 5 0.000000 0.000000 0.000000 0.000000 0.024617 0.000000
# 6 0.000000 0.000000 0.000000 0.000000 0.000000 0.034034
#
#
# Mechanical properties :
#
#
# Convention : Reuss Voigt Hill
#
# Bulk Modulus (GPa) = 52.19521 52.95421 52.57471
# Shear Modulus (GPa) = 33.87988 35.69621 34.78805
#
# Velocity S-wave (km/s) = 3.71254 3.81076 3.76197
# Velocity P-wave (km/s) = 6.29375 6.39573 6.34495
#
# Compressibility (1/GPa) = 0.01915885
#
# Stress axis : x y z
#
# Youngs Moduli (GPa) = 100.43071 87.61283 109.44494
#
# Poissons Ratio (x) = 0.19325 0.23575
# Poissons Ratio (y) = 0.22152 0.14390
# Poissons Ratio (z) = 0.21633 0.11520
#
# Static dielectric constant tensor:
#      x y z
#    x 2.036210 0.000000 0.000000 
#    y 0.000000 1.948090 0.000000 
#    z 0.000000 0.000000 1.918490 
# 
# From -- ./inp_files/187.got.cif
#   From: 2010.05.17/outbox.cif.g08.bks.cpg/sg62_1_cif.got.tgz:187.got - 2010.06.03 15:25:27.
