data_PCOD9467029
_publ_section_title
;
Structure prediction by ZEFSAII (Michael W. Deem and Ramdas Pophale) SiO2 
 PCOD9467029
Probable space group: P N M A
;
_chemical_formula_sum "Si O2"
_cell_formula_units_Z 28
_cell_length_a 15.684163
_cell_length_b 14.147027
_cell_length_c 5.186751
_cell_angle_alpha 90.000000
_cell_angle_beta 90.000000
_cell_angle_gamma 90.000000
_cell_volume 1150.858498
_symmetry_space_group_name_H-M "P N M A"
_symmetry_group_IT_number 62
_symmetry_cell_setting 'orthorhombic'
loop_
_space_group_symop_operation_xyz
x,y,z
1/2-x,-y,1/2+z
1/2+x,1/2-y,1/2-z
-x,1/2+y,-z
-x,-y,-z
1/2+x,y,1/2-z
1/2-x,1/2+y,1/2+z
x,1/2-y,z
loop_
_atom_site_type_symbol
_atom_site_label
_atom_site_fract_x
_atom_site_fract_y
_atom_site_fract_z
Si Si1 0.460067 0.409778 0.628718
Si Si2 0.721627 0.250000 0.981504
Si Si3 0.961282 0.750000 0.399877
Si Si4 0.386085 0.250000 0.262649
Si Si5 0.278981 0.444391 0.789232
O O1 0.500000 0.500000 0.500000
O O2 0.536052 0.347180 0.744893
O O3 0.416367 0.341491 0.419913
O O4 0.381872 0.437450 0.815130
O O5 0.623335 0.250000 0.067124
O O6 0.743490 0.156731 0.812110
O O7 0.784891 0.250000 0.226329
O O8 0.057013 0.750000 0.511863
O O9 0.259297 0.517926 0.556614
#
# Coordination Sequence:
#
# PCOD9467029 Si02
#       5
#     8   4   4   4   8
#     4  10  23  42  67  99 138 180 243 299 354 440
#     4  10  24  46  67 102 146 190 241 311 360 440
#     4  11  23  43  72  97 140 194 233 299 375 426
#     4   9  23  41  61 103 132 182 234 294 355 430
#     4  11  26  45  71 107 142 196 243 299 371 437
#
# _framework density 24.329661999999999
#
# number of rings (size 3 to 8) (size 9 to 14) (size 15 to 20)
#    0.000    1.714    0.000    2.571   12.000    2.286 
#    0.000    0.000    0.000    0.000    0.000    0.000 
#    0.000    0.000    0.000    0.000    0.000    0.000 
#
# Total GULP energy -156692.270731 kJ/mol
# GULP energy per Si atom -5596.152526 kJ/mol
# Density = 2.427429 g / cm^3
# Si number density = 24.329662 Si / 1000 Ang^3
#
#
#
# Elastic Constant Matrix: (Units=GPa)
#
#
# Indices 1 2 3 4 5 6 
#
# 1 157.1170 50.1268 14.6149 0.0000 0.0000 0.0000
# 2 50.1268 139.4666 20.4237 0.0000 0.0000 0.0000
# 3 14.6149 20.4237 57.2036 0.0000 0.0000 0.0000
# 4 0.0000 0.0000 0.0000 28.8334 0.0000 0.0000
# 5 0.0000 0.0000 0.0000 0.0000 23.2716 0.0000
# 6 0.0000 0.0000 0.0000 0.0000 0.0000 -6.5341
#
#
#
# Elastic Compliance Matrix: (Units=1/GPa)
#
#
# Indices 1 2 3 4 5 6 
#
# 1 0.007240 -0.002460 -0.000971 0.000000 0.000000 0.000000
# 2 -0.002460 0.008402 -0.002371 0.000000 0.000000 0.000000
# 3 -0.000971 -0.002371 0.018576 0.000000 0.000000 0.000000
# 4 0.000000 0.000000 0.000000 0.034682 0.000000 0.000000
# 5 0.000000 0.000000 0.000000 0.000000 0.042971 0.000000
# 6 0.000000 0.000000 0.000000 0.000000 0.000000 -0.153043
#
#
# Mechanical properties :
#
#
# Convention : Reuss Voigt Hill
#
# Bulk Modulus (GPa) = 44.22313 58.23534 51.22924
# Shear Modulus (GPa) = -226.95860 27.02230 -99.96815
#
# Velocity S-wave (km/s) = -9.66888 3.33629 -6.41702
# Velocity P-wave (km/s) = 10.31666 6.23129 5.81397
#
# Compressibility (1/GPa) = 0.02261260
#
# Stress axis : x y z
#
# Youngs Moduli (GPa) = 138.12446 119.02585 53.83236
#
# Poissons Ratio (x) = 0.29279 0.05229
# Poissons Ratio (y) = 0.33977 0.12765
# Poissons Ratio (z) = 0.13418 0.28223
#
# Static dielectric constant tensor:
#      x y z
#    x 1.960850 0.000000 0.000000 
#    y 0.000000 1.941730 0.000000 
#    z 0.000000 0.000000 1.973500 
# 
# From -- ./inp_files/823.got.cif
#   From: 2010.05.17/outbox.cif.g08.bks.cpg/sg62_1_cif.got.tgz:823.got - 2010.06.03 15:25:27.
