data_PCOD9467322
_publ_section_title
;
Structure prediction by ZEFSAII (Michael W. Deem and Ramdas Pophale) SiO2 
 PCOD9467322
Probable space group: P N M A
;
_chemical_formula_sum "Si O2"
_cell_formula_units_Z 40
_cell_length_a 9.782725
_cell_length_b 10.646142
_cell_length_c 20.062522
_cell_angle_alpha 90.000000
_cell_angle_beta 90.000000
_cell_angle_gamma 90.000000
_cell_volume 2089.477149
_symmetry_space_group_name_H-M "P N M A"
_symmetry_group_IT_number 62
_symmetry_cell_setting 'orthorhombic'
loop_
_space_group_symop_operation_xyz
x,y,z
1/2-x,-y,1/2+z
1/2+x,1/2-y,1/2-z
-x,1/2+y,-z
-x,-y,-z
1/2+x,y,1/2-z
1/2-x,1/2+y,1/2+z
x,1/2-y,z
loop_
_atom_site_type_symbol
_atom_site_label
_atom_site_fract_x
_atom_site_fract_y
_atom_site_fract_z
Si Si1 0.531334 0.033934 0.731267
Si Si2 0.070247 0.250000 0.661760
Si Si3 0.999124 0.750000 0.134419
Si Si4 0.807949 0.899239 0.684596
Si Si5 0.147182 0.485408 0.465074
Si Si6 0.725152 0.750000 0.460216
Si Si7 0.710239 0.750000 0.076490
O O1 0.573902 0.128885 0.790683
O O2 0.465663 0.125266 0.675697
O O3 0.663918 0.964646 0.702181
O O4 0.419745 0.939909 0.760950
O O5 0.191064 0.250000 0.608854
O O6 0.930168 0.250000 0.618886
O O7 0.068857 0.750000 0.062623
O O8 0.835902 0.750000 0.127000
O O9 0.791984 0.750000 0.682296
O O10 0.860050 0.947961 0.612716
O O11 0.230758 0.374408 0.500306
O O12 0.214171 0.623144 0.466285
O O13 0.000000 0.500000 0.500000
#
# Coordination Sequence:
#
# PCOD9467322 Si02
#       7
#     8   4   4   8   8   4   4
#     4  11  22  42  67  98 129 160 222 269 333 395
#     4  11  20  40  74  96 118 170 218 276 310 392
#     4  11  24  40  70  96 128 169 208 283 332 384
#     4  12  24  41  65  95 133 173 209 273 337 392
#     4  12  23  42  67  94 129 177 223 269 315 402
#     4  12  24  41  66  96 134 168 220 267 333 384
#     4  12  22  43  66  98 124 169 224 260 327 384
#
# _framework density 19.143545
#
# number of rings (size 3 to 8) (size 9 to 14) (size 15 to 20)
#    0.000    0.400    7.000    1.800    0.000    4.000 
#    0.000    0.000    2.200    0.000    0.000    0.000 
#    0.000    0.000    0.000    0.000    0.000    0.000 
#
# Total GULP energy -223628.161580 kJ/mol
# GULP energy per Si atom -5590.704040 kJ/mol
# Density = 1.909997 g / cm^3
# Si number density = 19.143545 Si / 1000 Ang^3
#
#
#
# Elastic Constant Matrix: (Units=GPa)
#
#
# Indices 1 2 3 4 5 6 
#
# 1 75.8326 31.1840 37.2994 0.0000 0.0000 0.0000
# 2 31.1840 174.0265 50.0203 0.0000 0.0000 0.0000
# 3 37.2994 50.0203 73.9485 0.0000 0.0000 0.0000
# 4 0.0000 0.0000 0.0000 20.8861 0.0000 0.0000
# 5 0.0000 0.0000 0.0000 0.0000 31.4271 0.0000
# 6 0.0000 0.0000 0.0000 0.0000 0.0000 22.2277
#
#
#
# Elastic Compliance Matrix: (Units=1/GPa)
#
#
# Indices 1 2 3 4 5 6 
#
# 1 0.017616 -0.000748 -0.008380 0.000000 0.000000 0.000000
# 2 -0.000748 0.007165 -0.004469 0.000000 0.000000 0.000000
# 3 -0.008380 -0.004469 0.020773 0.000000 0.000000 0.000000
# 4 0.000000 0.000000 0.000000 0.047879 0.000000 0.000000
# 5 0.000000 0.000000 0.000000 0.000000 0.031820 0.000000
# 6 0.000000 0.000000 0.000000 0.000000 0.000000 0.044989
#
#
# Mechanical properties :
#
#
# Convention : Reuss Voigt Hill
#
# Bulk Modulus (GPa) = 54.46600 62.31277 58.38938
# Shear Modulus (GPa) = 24.56346 28.59511 26.57928
#
# Velocity S-wave (km/s) = 3.58595 3.86906 3.73019
# Velocity P-wave (km/s) = 6.75711 7.25124 7.00853
#
# Compressibility (1/GPa) = 0.01836008
#
# Stress axis : x y z
#
# Youngs Moduli (GPa) = 56.76595 139.57002 48.14049
#
# Poissons Ratio (x) = 0.10442 0.40339
# Poissons Ratio (y) = 0.04247 0.21514
# Poissons Ratio (z) = 0.47567 0.62375
#
# Static dielectric constant tensor:
#      x y z
#    x 1.650290 0.000000 0.000000 
#    y 0.000000 1.667700 0.000000 
#    z 0.000000 0.000000 1.660410 
# 
# From -- ./inp_files/21984.got.cif
#   From: 2010.05.17/outbox.cif.g08.bks.cpg/sg62_11_cif.got.tgz:21984.got - 2010.06.03 15:25:27.
