data_PCOD9467954
_publ_section_title
;
Structure prediction by ZEFSAII (Michael W. Deem and Ramdas Pophale) SiO2 
 PCOD9467954
Probable space group: P N M A
;
_chemical_formula_sum "Si O2"
_cell_formula_units_Z 56
_cell_length_a 15.000000
_cell_length_b 12.000000
_cell_length_c 15.000000
_cell_angle_alpha 90.000000
_cell_angle_beta 90.000000
_cell_angle_gamma 90.000000
_cell_volume 2700.000000
_symmetry_space_group_name_H-M "P N M A"
_symmetry_group_IT_number 62
_symmetry_cell_setting 'orthorhombic'
loop_
_space_group_symop_operation_xyz
x,y,z
1/2-x,-y,1/2+z
1/2+x,1/2-y,1/2-z
-x,1/2+y,-z
-x,-y,-z
1/2+x,y,1/2-z
1/2-x,1/2+y,1/2+z
x,1/2-y,z
loop_
_atom_site_type_symbol
_atom_site_label
_atom_site_fract_x
_atom_site_fract_y
_atom_site_fract_z
Si Si1 0.539446 0.373222 0.403112
Si Si2 0.065040 0.416285 0.893757
Si Si3 0.242571 0.467285 0.815126
Si Si4 0.730502 0.117869 0.337655
Si Si5 0.421941 0.376243 0.746579
Si Si6 0.846127 0.465832 0.502453
Si Si7 0.485472 0.874103 0.086632
O O1 0.516098 0.250000 0.374742
O O2 0.454485 0.452136 0.399210
O O3 0.571953 0.373709 0.505921
O O4 0.624708 0.411919 0.345524
O O5 0.153707 0.398153 0.836811
O O6 0.974920 0.376355 0.845804
O O7 0.225394 0.572984 0.752640
O O8 0.319235 0.407520 0.757162
O O9 0.287743 0.493204 0.910335
O O10 0.733406 0.250000 0.341298
O O11 0.781939 0.071532 0.423301
O O12 0.422157 0.250000 0.778888
O O13 0.485974 0.434606 0.820475
O O14 0.921265 0.376788 0.532408
O O15 0.908628 0.563694 0.466420
O O16 0.451751 0.750000 0.100988
#
# Coordination Sequence:
#
# PCOD9467954 Si02
#       7
#     8   8   8   8   8   8   8
#     4  10  22  39  63  88 118 164 209 253 308 372
#     4  11  21  40  63  87 127 163 203 257 314 370
#     4  11  23  38  62  92 123 161 206 255 314 366
#     4  11  22  40  62  89 122 161 209 253 304 372
#     4  10  21  37  57  89 121 152 204 256 306 371
#     4  10  20  38  60  86 122 160 203 254 308 372
#     4   9  19  36  59  85 118 157 197 251 311 367
#
# _framework density 20.740741
#
# number of rings (size 3 to 8) (size 9 to 14) (size 15 to 20)
#    0.000    1.714    2.857    1.714    0.000    2.857 
#    0.000    0.714    0.000    0.000    0.000    0.000 
#    0.000    0.000    0.000    0.000    0.000    0.000 
#
# Total GULP energy -311834.194946 kJ/mol
# GULP energy per Si atom -5568.467767 kJ/mol
# Density = 2.069353 g / cm^3
# Si number density = 20.740741 Si / 1000 Ang^3
#
#
#
# Elastic Constant Matrix: (Units=GPa)
#
#
# Indices 1 2 3 4 5 6 
#
# 1 50.7560 2.1494 3.2257 0.0000 0.0000 0.0000
# 2 2.1494 43.6658 3.7960 0.0000 0.0000 0.0000
# 3 3.2257 3.7960 41.5374 0.0000 0.0000 0.0000
# 4 0.0000 0.0000 0.0000 2.2244 0.0000 0.0000
# 5 0.0000 0.0000 0.0000 0.0000 19.7757 0.0000
# 6 0.0000 0.0000 0.0000 0.0000 0.0000 -7.7587
#
#
#
# Elastic Compliance Matrix: (Units=1/GPa)
#
#
# Indices 1 2 3 4 5 6 
#
# 1 0.019831 -0.000849 -0.001462 0.000000 0.000000 0.000000
# 2 -0.000849 0.023121 -0.002047 0.000000 0.000000 0.000000
# 3 -0.001462 -0.002047 0.024375 0.000000 0.000000 0.000000
# 4 0.000000 0.000000 0.000000 0.449566 0.000000 0.000000
# 5 0.000000 0.000000 0.000000 0.000000 0.050567 0.000000
# 6 0.000000 0.000000 0.000000 0.000000 0.000000 -0.128887
#
#
# Mechanical properties :
#
#
# Convention : Reuss Voigt Hill
#
# Bulk Modulus (GPa) = 17.06185 17.14461 17.10323
# Shear Modulus (GPa) = 10.71061 11.30082 11.00571
#
# Velocity S-wave (km/s) = 2.27492 2.33676 2.30605
# Velocity P-wave (km/s) = 3.89159 3.94521 3.91849
#
# Compressibility (1/GPa) = 0.05861028
#
# Stress axis : x y z
#
# Youngs Moduli (GPa) = 50.42610 43.25082 41.02513
#
# Poissons Ratio (x) = 0.03672 0.06000
# Poissons Ratio (y) = 0.04281 0.08398
# Poissons Ratio (z) = 0.07374 0.08853
#
# Static dielectric constant tensor:
#      x y z
#    x 1.777800 0.000000 0.000000 
#    y 0.000000 1.808700 0.000000 
#    z 0.000000 0.000000 1.788370 
# 
# From -- ./inp_files/19013.got.cif
#   From: 2010.05.17/outbox.ucp.g08.bks.cvg/sg62_10_cif.got.tgz:19013.got - 2010.06.11 16:29:25.
