data_PCOD9467938
_publ_section_title
;
Structure prediction by ZEFSAII (Michael W. Deem and Ramdas Pophale) SiO2 
 PCOD9467938
Probable space group: P N M A
;
_chemical_formula_sum "Si O2"
_cell_formula_units_Z 40
_cell_length_a 18.000000
_cell_length_b 9.000000
_cell_length_c 12.000000
_cell_angle_alpha 90.000000
_cell_angle_beta 90.000000
_cell_angle_gamma 90.000000
_cell_volume 1944.000000
_symmetry_space_group_name_H-M "P N M A"
_symmetry_group_IT_number 62
_symmetry_cell_setting 'orthorhombic'
loop_
_space_group_symop_operation_xyz
x,y,z
1/2-x,-y,1/2+z
1/2+x,1/2-y,1/2-z
-x,1/2+y,-z
-x,-y,-z
1/2+x,y,1/2-z
1/2-x,1/2+y,1/2+z
x,1/2-y,z
loop_
_atom_site_type_symbol
_atom_site_label
_atom_site_fract_x
_atom_site_fract_y
_atom_site_fract_z
Si Si1 0.443500 0.580293 0.419976
Si Si2 0.690102 0.074352 0.708970
Si Si3 0.994649 0.585829 0.723971
Si Si4 0.875404 0.079956 0.424242
Si Si5 0.668268 0.082691 0.142701
O O1 0.500000 0.500000 0.500000
O O2 0.441949 0.750000 0.452518
O O3 0.358607 0.531012 0.400500
O O4 0.477459 0.548753 0.298433
O O5 0.677616 0.250000 0.729057
O O6 0.663830 0.973866 0.811317
O O7 0.774506 0.036382 0.687649
O O8 0.015977 0.750000 0.771512
O O9 0.907326 0.581461 0.712044
O O10 0.037572 0.577851 0.607265
O O11 0.854982 0.250000 0.452517
O O12 0.853963 0.966805 0.519498
O O13 0.699407 0.250000 0.145046
#
# Coordination Sequence:
#
# PCOD9467938 Si02
#       5
#     8   8   8   8   8
#     4  10  21  37  59  82 108 144 185 227 273 324
#     4  10  22  39  56  80 112 145 183 228 274 324
#     4   9  20  37  57  82 111 142 182 226 270 324
#     4  10  20  37  59  81 109 145 181 225 276 325
#     4  11  22  36  57  85 114 146 182 224 273 327
#
# _framework density 20.576132000000001
#
# number of rings (size 3 to 8) (size 9 to 14) (size 15 to 20)
#    0.000    2.000    0.000    3.000    0.000    6.400 
#    0.000    2.000    0.000    0.000    0.000    0.000 
#    0.000    0.000    0.000    0.000    0.000    0.000 
#
# Total GULP energy -222826.382944 kJ/mol
# GULP energy per Si atom -5570.659574 kJ/mol
# Density = 2.052930 g / cm^3
# Si number density = 20.576132 Si / 1000 Ang^3
#
#
#
# Elastic Constant Matrix: (Units=GPa)
#
#
# Indices 1 2 3 4 5 6 
#
# 1 73.0273 10.0083 -6.5350 0.0000 0.0000 0.0000
# 2 10.0083 25.2052 -15.4407 0.0000 0.0000 0.0000
# 3 -6.5350 -15.4407 -1.3742 0.0000 0.0000 0.0000
# 4 0.0000 0.0000 0.0000 -123.6197 0.0000 0.0000
# 5 0.0000 0.0000 0.0000 0.0000 18.1545 0.0000
# 6 0.0000 0.0000 0.0000 0.0000 0.0000 28.1227
#
#
#
# Elastic Compliance Matrix: (Units=1/GPa)
#
#
# Indices 1 2 3 4 5 6 
#
# 1 0.014478 -0.006080 -0.000540 0.000000 0.000000 0.000000
# 2 -0.006080 0.007586 -0.056322 0.000000 0.000000 0.000000
# 3 -0.000540 -0.056322 -0.092289 0.000000 0.000000 0.000000
# 4 0.000000 0.000000 0.000000 -0.008089 0.000000 0.000000
# 5 0.000000 0.000000 0.000000 0.000000 0.055083 0.000000
# 6 0.000000 0.000000 0.000000 0.000000 0.000000 0.035558
#
#
# Mechanical properties :
#
#
# Convention : Reuss Voigt Hill
#
# Bulk Modulus (GPa) = -5.09927 8.10259 1.50166
# Shear Modulus (GPa) = 68.64286 -8.21343 30.21472
#
# Velocity S-wave (km/s) = 5.78211 -2.00010 3.83617
# Velocity P-wave (km/s) = 6.48795 1.17790 4.51143
#
# Compressibility (1/GPa) = -0.19610669
#
# Stress axis : x y z
#
# Youngs Moduli (GPa) = 69.06835 131.82576 -10.83558
#
# Poissons Ratio (x) = 0.80146 -0.00585
# Poissons Ratio (y) = 0.41991 -0.61028
# Poissons Ratio (z) = 0.03729 7.42464
#
# Static dielectric constant tensor:
#      x y z
#    x 1.784790 0.000000 0.000000 
#    y 0.000000 1.711820 0.000000 
#    z 0.000000 0.000000 1.746960 
# 
# From -- ./inp_files/13826.got.cif
#   From: 2010.05.17/outbox.ucp.g08.bks.cvg/sg62_7_cif.got.tgz:13826.got - 2010.06.11 16:29:25.
