data_PCOD9467641
_publ_section_title
;
Structure prediction by ZEFSAII (Michael W. Deem and Ramdas Pophale) SiO2 
 PCOD9467641
Probable space group: P N M A
;
_chemical_formula_sum "Si O2"
_cell_formula_units_Z 40
_cell_length_a 7.954413
_cell_length_b 19.819832
_cell_length_c 12.538919
_cell_angle_alpha 90.000000
_cell_angle_beta 90.000000
_cell_angle_gamma 90.000000
_cell_volume 1976.824896
_symmetry_space_group_name_H-M "P N M A"
_symmetry_group_IT_number 62
_symmetry_cell_setting 'orthorhombic'
loop_
_space_group_symop_operation_xyz
x,y,z
1/2-x,-y,1/2+z
1/2+x,1/2-y,1/2-z
-x,1/2+y,-z
-x,-y,-z
1/2+x,y,1/2-z
1/2-x,1/2+y,1/2+z
x,1/2-y,z
loop_
_atom_site_type_symbol
_atom_site_label
_atom_site_fract_x
_atom_site_fract_y
_atom_site_fract_z
Si Si1 0.100673 0.104063 0.313368
Si Si2 0.851877 0.475378 0.426717
Si Si3 0.558368 0.829863 0.606872
Si Si4 0.172895 0.950353 0.241558
Si Si5 0.116071 0.406323 0.920013
O O1 0.257570 0.135376 0.377195
O O2 0.924752 0.093863 0.376443
O O3 0.054566 0.143797 0.205963
O O4 0.146288 0.026640 0.284773
O O5 0.823053 0.533946 0.341343
O O6 0.685361 0.461197 0.494998
O O7 0.000000 0.500000 0.500000
O O8 0.578638 0.750000 0.613155
O O9 0.465472 0.850451 0.496890
O O10 0.225449 0.900677 0.337630
O O11 0.025899 0.928331 0.162976
#
# Coordination Sequence:
#
# PCOD9467641 Si02
#       5
#     8   8   8   8   8
#     4  12  22  40  65 100 134 169 220 282 333 394
#     4  12  22  35  62  98 135 168 199 269 357 400
#     4  12  26  44  66  93 135 190 227 263 319 400
#     4  12  22  37  64 102 131 164 211 286 348 391
#     4  12  24  41  65  98 137 173 219 273 343 402
#
# _framework density 20.234466999999999
#
# number of rings (size 3 to 8) (size 9 to 14) (size 15 to 20)
#    0.000    0.000    8.000    2.400    0.000    0.000 
#    0.000    2.000    0.000    0.000    0.000    0.000 
#    0.000    0.000    0.000    0.000    0.000    0.000 
#
# Total GULP energy -223051.606924 kJ/mol
# GULP energy per Si atom -5576.290173 kJ/mol
# Density = 2.018841 g / cm^3
# Si number density = 20.234467 Si / 1000 Ang^3
#
#
#
# Elastic Constant Matrix: (Units=GPa)
#
#
# Indices 1 2 3 4 5 6 
#
# 1 97.3745 31.6505 42.9631 0.0000 0.0000 0.0000
# 2 31.6505 66.3526 36.6658 0.0000 0.0000 0.0000
# 3 42.9631 36.6658 128.4911 0.0000 0.0000 0.0000
# 4 0.0000 0.0000 0.0000 22.0596 0.0000 0.0000
# 5 0.0000 0.0000 0.0000 0.0000 66.3906 0.0000
# 6 0.0000 0.0000 0.0000 0.0000 0.0000 14.1235
#
#
#
# Elastic Compliance Matrix: (Units=1/GPa)
#
#
# Indices 1 2 3 4 5 6 
#
# 1 0.013109 -0.004548 -0.003085 0.000000 0.000000 0.000000
# 2 -0.004548 0.019470 -0.004035 0.000000 0.000000 0.000000
# 3 -0.003085 -0.004035 0.009966 0.000000 0.000000 0.000000
# 4 0.000000 0.000000 0.000000 0.045332 0.000000 0.000000
# 5 0.000000 0.000000 0.000000 0.000000 0.015062 0.000000
# 6 0.000000 0.000000 0.000000 0.000000 0.000000 0.070804
#
#
# Mechanical properties :
#
#
# Convention : Reuss Voigt Hill
#
# Bulk Modulus (GPa) = 52.06252 57.19744 54.62998
# Shear Modulus (GPa) = 24.57194 32.57733 28.57463
#
# Velocity S-wave (km/s) = 3.48855 4.01682 3.76197
# Velocity P-wave (km/s) = 6.48167 7.05988 6.77695
#
# Compressibility (1/GPa) = 0.01920767
#
# Stress axis : x y z
#
# Youngs Moduli (GPa) = 76.28163 51.36022 100.34334
#
# Poissons Ratio (x) = 0.23360 0.30960
# Poissons Ratio (y) = 0.34694 0.40491
# Poissons Ratio (z) = 0.23536 0.20725
#
# Static dielectric constant tensor:
#      x y z
#    x 1.860430 0.000000 0.000000 
#    y 0.000000 1.671640 0.000000 
#    z 0.000000 0.000000 1.842200 
# 
# From -- ./inp_files/11081.got.cif
#   From: 2010.05.17/outbox.cif.g08.bks.cpg/sg62_6_cif.got.tgz:11081.got - 2010.06.03 15:25:27.
