data_PCOD9467549
_publ_section_title
;
Structure prediction by ZEFSAII (Michael W. Deem and Ramdas Pophale) SiO2 
 PCOD9467549
Probable space group: P N M A
;
_chemical_formula_sum "Si O2"
_cell_formula_units_Z 48
_cell_length_a 9.397839
_cell_length_b 24.066251
_cell_length_c 8.780038
_cell_angle_alpha 90.000000
_cell_angle_beta 90.000000
_cell_angle_gamma 90.000000
_cell_volume 1985.787799
_symmetry_space_group_name_H-M "P N M A"
_symmetry_group_IT_number 62
_symmetry_cell_setting 'orthorhombic'
loop_
_space_group_symop_operation_xyz
x,y,z
1/2-x,-y,1/2+z
1/2+x,1/2-y,1/2-z
-x,1/2+y,-z
-x,-y,-z
1/2+x,y,1/2-z
1/2-x,1/2+y,1/2+z
x,1/2-y,z
loop_
_atom_site_type_symbol
_atom_site_label
_atom_site_fract_x
_atom_site_fract_y
_atom_site_fract_z
Si Si1 0.204465 0.587564 0.338412
Si Si2 0.853285 0.811461 0.036498
Si Si3 0.681416 0.531109 0.660245
Si Si4 0.620559 0.626420 0.471551
Si Si5 0.495565 0.922714 0.924583
Si Si6 0.538053 0.687863 0.749173
O O1 0.242804 0.640551 0.438852
O O2 0.303082 0.534185 0.360373
O O3 0.219711 0.609169 0.166192
O O4 0.047845 0.570810 0.401225
O O5 0.819065 0.750000 0.092510
O O6 0.996838 0.837599 0.108207
O O7 0.899536 0.808567 0.860479
O O8 0.581680 0.566966 0.546694
O O9 0.840393 0.554990 0.624434
O O10 0.617689 0.546001 0.824955
O O11 0.650629 0.663781 0.622137
O O12 0.504166 0.858659 0.871460
O O13 0.573566 0.750000 0.802688
#
# Coordination Sequence:
#
# PCOD9467549 Si02
#       6
#     8   8   8   8   8   8
#     4  12  24  37  69  97 131 174 226 279 336 403
#     4   9  21  41  63  88 125 173 222 271 333 402
#     4  11  25  42  65  97 141 175 227 274 342 411
#     4   9  22  40  63  89 134 173 214 276 343 388
#     4  11  24  41  65 100 131 176 226 279 330 409
#     4   8  18  41  63  85 124 169 215 271 331 392
#
# _framework density 24.171766999999999
#
# number of rings (size 3 to 8) (size 9 to 14) (size 15 to 20)
#    1.000    1.000    0.000    2.500    4.667    2.667 
#    0.000    5.833    0.000    0.000    0.000    0.000 
#    0.000    0.000    0.000    0.000    0.000    0.000 
#
# Total GULP energy -267464.810826 kJ/mol
# GULP energy per Si atom -5572.183559 kJ/mol
# Density = 2.411675 g / cm^3
# Si number density = 24.171767 Si / 1000 Ang^3
#
#
#
# Elastic Constant Matrix: (Units=GPa)
#
#
# Indices 1 2 3 4 5 6 
#
# 1 64.0739 46.7437 12.1259 0.0000 0.0000 0.0000
# 2 46.7437 216.9806 33.8259 0.0000 0.0000 0.0000
# 3 12.1259 33.8259 37.7531 0.0000 0.0000 0.0000
# 4 0.0000 0.0000 0.0000 18.1690 0.0000 0.0000
# 5 0.0000 0.0000 0.0000 0.0000 21.8112 0.0000
# 6 0.0000 0.0000 0.0000 0.0000 0.0000 17.6643
#
#
#
# Elastic Compliance Matrix: (Units=1/GPa)
#
#
# Indices 1 2 3 4 5 6 
#
# 1 0.018768 -0.003607 -0.002796 0.000000 0.000000 0.000000
# 2 -0.003607 0.006050 -0.004262 0.000000 0.000000 0.000000
# 3 -0.002796 -0.004262 0.031205 0.000000 0.000000 0.000000
# 4 0.000000 0.000000 0.000000 0.055039 0.000000 0.000000
# 5 0.000000 0.000000 0.000000 0.000000 0.045848 0.000000
# 6 0.000000 0.000000 0.000000 0.000000 0.000000 0.056612
#
#
# Mechanical properties :
#
#
# Convention : Reuss Voigt Hill
#
# Bulk Modulus (GPa) = 28.82524 56.02205 42.42365
# Shear Modulus (GPa) = 20.29088 26.60303 23.44696
#
# Velocity S-wave (km/s) = 2.90046 3.32110 3.11788
# Velocity P-wave (km/s) = 4.81331 6.15900 5.52726
#
# Compressibility (1/GPa) = 0.03469182
#
# Stress axis : x y z
#
# Youngs Moduli (GPa) = 53.28310 165.28196 32.04625
#
# Poissons Ratio (x) = 0.59621 0.08960
# Poissons Ratio (y) = 0.19220 0.13659
# Poissons Ratio (z) = 0.14898 0.70448
#
# Static dielectric constant tensor:
#      x y z
#    x 2.034050 0.000000 0.000000 
#    y 0.000000 1.916930 0.000000 
#    z 0.000000 0.000000 1.983300 
# 
# From -- ./inp_files/12372.got.cif
#   From: 2010.05.17/outbox.cif.g08.bks.cpg/sg62_7_cif.got.tgz:12372.got - 2010.06.03 15:25:27.
