data_PCOD9467772
_publ_section_title
;
Structure prediction by ZEFSAII (Michael W. Deem and Ramdas Pophale) SiO2 
 PCOD9467772
Probable space group: P N M A
;
_chemical_formula_sum "Si O2"
_cell_formula_units_Z 48
_cell_length_a 18.000000
_cell_length_b 9.000000
_cell_length_c 15.000000
_cell_angle_alpha 90.000000
_cell_angle_beta 90.000000
_cell_angle_gamma 90.000000
_cell_volume 2430.000000
_symmetry_space_group_name_H-M "P N M A"
_symmetry_group_IT_number 62
_symmetry_cell_setting 'orthorhombic'
loop_
_space_group_symop_operation_xyz
x,y,z
1/2-x,-y,1/2+z
1/2+x,1/2-y,1/2-z
-x,1/2+y,-z
-x,-y,-z
1/2+x,y,1/2-z
1/2-x,1/2+y,1/2+z
x,1/2-y,z
loop_
_atom_site_type_symbol
_atom_site_label
_atom_site_fract_x
_atom_site_fract_y
_atom_site_fract_z
Si Si1 0.443867 0.926871 0.728306
Si Si2 0.641586 0.069726 0.110641
Si Si3 0.274657 0.927855 0.275878
Si Si4 0.592202 0.570277 0.623281
Si Si5 0.697992 0.423476 0.925503
Si Si6 0.869901 0.079034 0.931456
O O1 0.437675 0.750000 0.727220
O O2 0.430525 0.973023 0.830633
O O3 0.521620 0.965309 0.683599
O O4 0.384845 0.989271 0.657682
O O5 0.647621 0.250000 0.106594
O O6 0.706407 0.007525 0.174564
O O7 0.650295 0.014460 0.008632
O O8 0.260613 0.750000 0.270466
O O9 0.296828 0.983021 0.175802
O O10 0.342768 0.970670 0.338266
O O11 0.607424 0.750000 0.628494
O O12 0.584196 0.534836 0.518662
O O13 0.676654 0.250000 0.915405
O O14 0.783488 0.429841 0.957898
O O15 0.886692 0.250000 0.910349
#
# Coordination Sequence:
#
# PCOD9467772 Si02
#       6
#     8   8   8   8   8   8
#     4  10  21  34  54  82 108 138 179 220 257 311
#     4  10  19  36  57  76 105 142 173 211 265 315
#     4  11  21  34  54  79 103 134 180 221 253 307
#     4  10  21  37  53  76 110 145 176 210 265 320
#     4   9  18  33  53  77 104 138 172 208 265 320
#     4  10  18  32  54  76 109 145 168 208 269 324
#
# _framework density 19.753086
#
# number of rings (size 3 to 8) (size 9 to 14) (size 15 to 20)
#    0.000    2.000    3.333    1.000    0.000    1.333 
#    0.000    2.500    0.000    0.000    0.000    0.000 
#    0.000    0.000    0.000    0.000    0.000    0.000 
#
# Total GULP energy -267257.764428 kJ/mol
# GULP energy per Si atom -5567.870092 kJ/mol
# Density = 1.970813 g / cm^3
# Si number density = 19.753086 Si / 1000 Ang^3
#
#
#
# Elastic Constant Matrix: (Units=GPa)
#
#
# Indices 1 2 3 4 5 6 
#
# 1 3.1787 -1.1300 -14.5560 0.0000 0.0000 0.0000
# 2 -1.1300 -21.8083 -8.4677 0.0000 0.0000 0.0000
# 3 -14.5560 -8.4677 51.9886 0.0000 0.0000 0.0000
# 4 0.0000 0.0000 0.0000 23.6937 0.0000 0.0000
# 5 0.0000 0.0000 0.0000 0.0000 28.5268 0.0000
# 6 0.0000 0.0000 0.0000 0.0000 0.0000 11.0158
#
#
#
# Elastic Compliance Matrix: (Units=1/GPa)
#
#
# Indices 1 2 3 4 5 6 
#
# 1 -2.715942 0.410050 -0.693632 0.000000 0.000000 0.000000
# 2 0.410050 -0.105036 0.097700 0.000000 0.000000 0.000000
# 3 -0.693632 0.097700 -0.159058 0.000000 0.000000 0.000000
# 4 0.000000 0.000000 0.000000 0.042205 0.000000 0.000000
# 5 0.000000 0.000000 0.000000 0.000000 0.035055 0.000000
# 6 0.000000 0.000000 0.000000 0.000000 0.000000 0.090779
#
#
# Mechanical properties :
#
#
# Convention : Reuss Voigt Hill
#
# Bulk Modulus (GPa) = -0.29835 -1.66092 -0.97963
# Shear Modulus (GPa) = -1.40548 16.48142 7.53797
#
# Velocity S-wave (km/s) = -0.84443 2.89168 1.95560
# Velocity P-wave (km/s) = 1.04982 3.21037 2.14526
#
# Compressibility (1/GPa) = -3.35179920
#
# Stress axis : x y z
#
# Youngs Moduli (GPa) = -0.36820 -9.52057 -6.28703
#
# Poissons Ratio (x) = 3.90391 -4.36088
# Poissons Ratio (y) = 0.15098 0.61424
# Poissons Ratio (z) = -0.25539 0.93016
#
# Static dielectric constant tensor:
#      x y z
#    x 1.781840 0.000000 0.000000 
#    y 0.000000 1.680420 0.000000 
#    z 0.000000 0.000000 1.727890 
# 
# From -- ./inp_files/19600.got.cif
#   From: 2010.05.17/outbox.ucp.g08.bks.cvg/sg62_10_cif.got.tgz:19600.got - 2010.06.11 16:29:25.
