data_PCOD9467110
_publ_section_title
;
Structure prediction by ZEFSAII (Michael W. Deem and Ramdas Pophale) SiO2 
 PCOD9467110
Probable space group: P N M A
;
_chemical_formula_sum "Si O2"
_cell_formula_units_Z 40
_cell_length_a 5.214045
_cell_length_b 11.080487
_cell_length_c 30.971116
_cell_angle_alpha 90.000000
_cell_angle_beta 90.000000
_cell_angle_gamma 90.000000
_cell_volume 1789.330144
_symmetry_space_group_name_H-M "P N M A"
_symmetry_group_IT_number 62
_symmetry_cell_setting 'orthorhombic'
loop_
_space_group_symop_operation_xyz
x,y,z
1/2-x,-y,1/2+z
1/2+x,1/2-y,1/2-z
-x,1/2+y,-z
-x,-y,-z
1/2+x,y,1/2-z
1/2-x,1/2+y,1/2+z
x,1/2-y,z
loop_
_atom_site_type_symbol
_atom_site_label
_atom_site_fract_x
_atom_site_fract_y
_atom_site_fract_z
Si Si1 0.484940 0.106796 0.223768
Si Si2 0.560439 0.750000 0.103283
Si Si3 0.004004 0.250000 0.779638
Si Si4 0.281514 0.442443 0.656011
Si Si5 0.813626 0.614143 0.502385
Si Si6 0.435573 0.959836 0.428803
O O1 0.770536 0.077174 0.239723
O O2 0.472653 0.250000 0.216715
O O3 0.386881 0.036534 0.182351
O O4 0.408283 0.647707 0.131847
O O5 0.721934 0.642156 0.078542
O O6 0.781211 0.250000 0.742987
O O7 0.953907 0.135993 0.810772
O O8 0.456192 0.494762 0.617911
O O9 0.918518 0.750000 0.506114
O O10 0.645929 0.577125 0.544004
O O11 0.647826 0.605864 0.458749
O O12 0.000000 0.500000 0.500000
#
# Coordination Sequence:
#
# PCOD9467110 Si02
#       6
#     8   4   4   8   8   8
#     4  10  23  45  71 101 143 195 249 307 379 457
#     4  11  23  42  66 104 142 182 242 300 372 442
#     4  11  25  40  62 106 152 192 248 308 376 452
#     4  11  25  39  71 102 141 192 242 309 377 447
#     4  11  26  47  75 108 146 195 246 310 379 468
#     4  11  25  44  71 104 146 188 245 307 383 445
#
# _framework density 22.354735999999999
#
# number of rings (size 3 to 8) (size 9 to 14) (size 15 to 20)
#    0.000    1.200    1.000    3.600   12.600    1.600 
#    0.000    3.000    0.000    0.000    0.000    0.000 
#    0.000    0.000    0.000    0.000    0.000    0.000 
#
# Total GULP energy -222818.805818 kJ/mol
# GULP energy per Si atom -5570.470145 kJ/mol
# Density = 2.230386 g / cm^3
# Si number density = 22.354736 Si / 1000 Ang^3
#
#
#
# Elastic Constant Matrix: (Units=GPa)
#
#
# Indices 1 2 3 4 5 6 
#
# 1 50.9784 31.0571 17.4830 0.0000 0.0000 0.0000
# 2 31.0571 115.7747 39.6112 0.0000 0.0000 0.0000
# 3 17.4830 39.6112 110.3243 0.0000 0.0000 0.0000
# 4 0.0000 0.0000 0.0000 -6.0892 0.0000 0.0000
# 5 0.0000 0.0000 0.0000 0.0000 45.6185 0.0000
# 6 0.0000 0.0000 0.0000 0.0000 0.0000 116.6910
#
#
#
# Elastic Compliance Matrix: (Units=1/GPa)
#
#
# Indices 1 2 3 4 5 6 
#
# 1 0.023718 -0.005788 -0.001681 0.000000 0.000000 0.000000
# 2 -0.005788 0.011259 -0.003125 0.000000 0.000000 0.000000
# 3 -0.001681 -0.003125 0.010453 0.000000 0.000000 0.000000
# 4 0.000000 0.000000 0.000000 -0.164224 0.000000 0.000000
# 5 0.000000 0.000000 0.000000 0.000000 0.021921 0.000000
# 6 0.000000 0.000000 0.000000 0.000000 0.000000 0.008570
#
#
# Mechanical properties :
#
#
# Convention : Reuss Voigt Hill
#
# Bulk Modulus (GPa) = 41.24879 50.37558 45.81218
# Shear Modulus (GPa) = -84.69580 43.83913 -20.42834
#
# Velocity S-wave (km/s) = -6.16193 4.43320 -3.02623
# Velocity P-wave (km/s) = 5.66868 6.98483 2.88565
#
# Compressibility (1/GPa) = 0.02424314
#
# Stress axis : x y z
#
# Youngs Moduli (GPa) = 42.16128 88.81504 95.66915
#
# Poissons Ratio (x) = 0.51402 0.16079
# Poissons Ratio (y) = 0.24401 0.29901
# Poissons Ratio (z) = 0.07086 0.27759
#
# Static dielectric constant tensor:
#      x y z
#    x 1.904970 0.000000 0.000000 
#    y 0.000000 1.829820 0.000000 
#    z 0.000000 0.000000 1.837830 
# 
# From -- ./inp_files/30288.got.cif
#   From: 2010.05.17/outbox.cif.g08.bks.cpg/sg62_16_cif.got.tgz:30288.got - 2010.06.03 15:25:27.
