data_PCOD9467516
_publ_section_title
;
Structure prediction by ZEFSAII (Michael W. Deem and Ramdas Pophale) SiO2 
 PCOD9467516
Probable space group: P N M A
;
_chemical_formula_sum "Si O2"
_cell_formula_units_Z 48
_cell_length_a 10.230071
_cell_length_b 8.796181
_cell_length_c 27.102269
_cell_angle_alpha 90.000000
_cell_angle_beta 90.000000
_cell_angle_gamma 90.000000
_cell_volume 2438.812749
_symmetry_space_group_name_H-M "P N M A"
_symmetry_group_IT_number 62
_symmetry_cell_setting 'orthorhombic'
loop_
_space_group_symop_operation_xyz
x,y,z
1/2-x,-y,1/2+z
1/2+x,1/2-y,1/2-z
-x,1/2+y,-z
-x,-y,-z
1/2+x,y,1/2-z
1/2-x,1/2+y,1/2+z
x,1/2-y,z
loop_
_atom_site_type_symbol
_atom_site_label
_atom_site_fract_x
_atom_site_fract_y
_atom_site_fract_z
Si Si1 0.894034 0.068556 0.462945
Si Si2 0.114851 0.930194 0.032579
Si Si3 0.971990 0.430301 0.854291
Si Si4 0.022601 0.068587 0.641648
Si Si5 0.759294 0.430569 0.290119
Si Si6 0.251256 0.069225 0.327351
O O1 0.900837 0.250000 0.462681
O O2 0.750682 0.012853 0.478448
O O3 0.922689 0.004096 0.408523
O O4 0.000000 0.000000 0.500000
O O5 0.127188 0.750000 0.023571
O O6 0.080952 0.952158 0.090282
O O7 0.000000 0.000000 0.000000
O O8 0.979093 0.250000 0.844627
O O9 0.869943 0.506244 0.816704
O O10 0.114275 0.503757 0.848704
O O11 0.028150 0.250000 0.638173
O O12 0.115629 0.011666 0.685815
O O13 0.875514 0.012194 0.650508
O O14 0.769597 0.250000 0.298976
O O15 0.752720 0.455865 0.231657
O O16 0.242844 0.250000 0.336326
#
# Coordination Sequence:
#
# PCOD9467516 Si02
#       6
#     8   8   8   8   8   8
#     4  12  26  46  72  99 132 172 215 268 327 387
#     4  11  25  45  69  99 133 171 216 267 323 388
#     4  11  24  42  66  96 132 171 217 269 324 388
#     4  12  25  43  67  97 134 173 219 270 325 389
#     4  11  23  42  67  95 130 174 222 269 325 388
#     4  11  25  42  64  96 133 175 222 269 322 388
#
# _framework density 19.681709000000001
#
# number of rings (size 3 to 8) (size 9 to 14) (size 15 to 20)
#    0.000    0.667    1.667    6.000    2.333    8.667 
#    0.000    0.000    0.000    0.000    0.000    0.000 
#    0.000    0.000    0.000    0.000    0.000    0.000 
#
# Total GULP energy -268839.505836 kJ/mol
# GULP energy per Si atom -5600.823038 kJ/mol
# Density = 1.963691 g / cm^3
# Si number density = 19.681709 Si / 1000 Ang^3
#
#
#
# Elastic Constant Matrix: (Units=GPa)
#
#
# Indices 1 2 3 4 5 6 
#
# 1 173.4196 74.7619 29.5487 0.0000 0.0000 0.0000
# 2 74.7619 154.2261 59.9290 0.0000 0.0000 0.0000
# 3 29.5487 59.9290 44.8028 0.0000 0.0000 0.0000
# 4 0.0000 0.0000 0.0000 20.2656 0.0000 0.0000
# 5 0.0000 0.0000 0.0000 0.0000 41.2509 0.0000
# 6 0.0000 0.0000 0.0000 0.0000 0.0000 43.9568
#
#
#
# Elastic Compliance Matrix: (Units=1/GPa)
#
#
# Indices 1 2 3 4 5 6 
#
# 1 0.007290 -0.003469 -0.000169 0.000000 0.000000 0.000000
# 2 -0.003469 0.015152 -0.017980 0.000000 0.000000 0.000000
# 3 -0.000169 -0.017980 0.046482 0.000000 0.000000 0.000000
# 4 0.000000 0.000000 0.000000 0.049345 0.000000 0.000000
# 5 0.000000 0.000000 0.000000 0.000000 0.024242 0.000000
# 6 0.000000 0.000000 0.000000 0.000000 0.000000 0.022750
#
#
# Mechanical properties :
#
#
# Convention : Reuss Voigt Hill
#
# Bulk Modulus (GPa) = 38.92622 77.88086 58.40354
# Shear Modulus (GPa) = 23.03536 34.97527 29.00531
#
# Velocity S-wave (km/s) = 3.42481 4.22007 3.84307
# Velocity P-wave (km/s) = 5.95482 7.96250 7.03070
#
# Compressibility (1/GPa) = 0.02568963
#
# Stress axis : x y z
#
# Youngs Moduli (GPa) = 137.16685 65.99787 21.51391
#
# Poissons Ratio (x) = 0.22891 0.00363
# Poissons Ratio (y) = 0.47577 0.38682
# Poissons Ratio (z) = 0.02314 1.18664
#
# Static dielectric constant tensor:
#      x y z
#    x 1.675350 0.000000 0.000000 
#    y 0.000000 1.655390 0.000000 
#    z 0.000000 0.000000 1.661670 
# 
# From -- ./inp_files/32044.got.cif
#   From: 2010.05.17/outbox.cif.g08.bks.cpg/sg62_17_cif.got.tgz:32044.got - 2010.06.03 15:25:27.
