data_PCOD9467178
_publ_section_title
;
Structure prediction by ZEFSAII (Michael W. Deem and Ramdas Pophale) SiO2 
 PCOD9467178
Probable space group: P N M A
;
_chemical_formula_sum "Si O2"
_cell_formula_units_Z 48
_cell_length_a 28.242776
_cell_length_b 8.837389
_cell_length_c 9.573899
_cell_angle_alpha 90.000000
_cell_angle_beta 90.000000
_cell_angle_gamma 90.000000
_cell_volume 2389.572409
_symmetry_space_group_name_H-M "P N M A"
_symmetry_group_IT_number 62
_symmetry_cell_setting 'orthorhombic'
loop_
_space_group_symop_operation_xyz
x,y,z
1/2-x,-y,1/2+z
1/2+x,1/2-y,1/2-z
-x,1/2+y,-z
-x,-y,-z
1/2+x,y,1/2-z
1/2-x,1/2+y,1/2+z
x,1/2-y,z
loop_
_atom_site_type_symbol
_atom_site_label
_atom_site_fract_x
_atom_site_fract_y
_atom_site_fract_z
Si Si1 0.119583 0.069668 0.314074
Si Si2 0.863212 0.071032 0.976683
Si Si3 0.725116 0.929924 0.684227
Si Si4 0.806319 0.430830 0.496725
Si Si5 0.008996 0.068766 0.349648
Si Si6 0.458784 0.569632 0.405027
O O1 0.125108 0.250000 0.312490
O O2 0.063509 0.035081 0.307469
O O3 0.143654 0.999189 0.176532
O O4 0.144476 0.003267 0.451744
O O5 0.871800 0.250000 0.962145
O O6 0.819285 0.049452 0.080415
O O7 0.908831 0.991841 0.043031
O O8 0.736499 0.750000 0.689130
O O9 0.768074 0.017557 0.611998
O O10 0.711087 0.978096 0.841653
O O11 0.810932 0.250000 0.495460
O O12 0.003238 0.250000 0.346668
O O13 0.000000 0.000000 0.500000
O O14 0.971983 0.990073 0.247148
O O15 0.500000 0.500000 0.500000
O O16 0.459751 0.750000 0.413369
#
# Coordination Sequence:
#
# PCOD9467178 Si02
#       6
#     8   8   8   8   8   8
#     4  11  24  42  64  93 128 168 212 263 319 380
#     4  11  23  41  67  96 128 169 214 264 320 380
#     4  10  24  44  65  95 128 162 207 259 314 379
#     4  11  24  42  66  94 126 165 207 259 318 376
#     4  11  25  43  64  93 130 172 217 270 324 380
#     4  12  24  41  65  95 130 172 219 266 317 379
#
# _framework density 20.087277
#
# number of rings (size 3 to 8) (size 9 to 14) (size 15 to 20)
#    0.000    1.000    1.667    4.500    2.333    7.333 
#    0.000    0.000    0.000    0.000    0.000    0.000 
#    0.000    0.000    0.000    0.000    0.000    0.000 
#
# Total GULP energy -268564.326218 kJ/mol
# GULP energy per Si atom -5595.090130 kJ/mol
# Density = 2.004156 g / cm^3
# Si number density = 20.087277 Si / 1000 Ang^3
#
#
#
# Elastic Constant Matrix: (Units=GPa)
#
#
# Indices 1 2 3 4 5 6 
#
# 1 47.2068 42.2343 9.5644 0.0000 0.0000 0.0000
# 2 42.2343 82.7536 27.4346 0.0000 0.0000 0.0000
# 3 9.5644 27.4346 119.1543 0.0000 0.0000 0.0000
# 4 0.0000 0.0000 0.0000 34.8722 0.0000 0.0000
# 5 0.0000 0.0000 0.0000 0.0000 32.8139 0.0000
# 6 0.0000 0.0000 0.0000 0.0000 0.0000 29.7617
#
#
#
# Elastic Compliance Matrix: (Units=1/GPa)
#
#
# Indices 1 2 3 4 5 6 
#
# 1 0.039257 -0.020560 0.001583 0.000000 0.000000 0.000000
# 2 -0.020560 0.023851 -0.003841 0.000000 0.000000 0.000000
# 3 0.001583 -0.003841 0.009150 0.000000 0.000000 0.000000
# 4 0.000000 0.000000 0.000000 0.028676 0.000000 0.000000
# 5 0.000000 0.000000 0.000000 0.000000 0.030475 0.000000
# 6 0.000000 0.000000 0.000000 0.000000 0.000000 0.033600
#
#
# Mechanical properties :
#
#
# Convention : Reuss Voigt Hill
#
# Bulk Modulus (GPa) = 37.56495 45.28681 41.42588
# Shear Modulus (GPa) = 22.77704 30.81498 26.79601
#
# Velocity S-wave (km/s) = 3.37100 3.92095 3.65633
# Velocity P-wave (km/s) = 5.82177 6.56448 6.20425
#
# Compressibility (1/GPa) = 0.02662056
#
# Stress axis : x y z
#
# Youngs Moduli (GPa) = 25.47311 41.92771 109.29157
#
# Poissons Ratio (x) = 0.86204 -0.17298
# Poissons Ratio (y) = 0.52373 0.41980
# Poissons Ratio (z) = -0.04032 0.16105
#
# Static dielectric constant tensor:
#      x y z
#    x 1.710600 0.000000 0.000000 
#    y 0.000000 1.661230 0.000000 
#    z 0.000000 0.000000 1.753000 
# 
# From -- ./inp_files/10278.got.cif
#   From: 2010.05.17/outbox.cif.g08.bks.cpg/sg62_6_cif.got.tgz:10278.got - 2010.06.03 15:25:27.
