data_PCOD9467369
_publ_section_title
;
Structure prediction by ZEFSAII (Michael W. Deem and Ramdas Pophale) SiO2 
 PCOD9467369
Probable space group: P N M A
;
_chemical_formula_sum "Si O2"
_cell_formula_units_Z 48
_cell_length_a 16.783690
_cell_length_b 28.425594
_cell_length_c 5.046190
_cell_angle_alpha 90.000000
_cell_angle_beta 90.000000
_cell_angle_gamma 90.000000
_cell_volume 2407.468408
_symmetry_space_group_name_H-M "P N M A"
_symmetry_group_IT_number 62
_symmetry_cell_setting 'orthorhombic'
loop_
_space_group_symop_operation_xyz
x,y,z
1/2-x,-y,1/2+z
1/2+x,1/2-y,1/2-z
-x,1/2+y,-z
-x,-y,-z
1/2+x,y,1/2-z
1/2-x,1/2+y,1/2+z
x,1/2-y,z
loop_
_atom_site_type_symbol
_atom_site_label
_atom_site_fract_x
_atom_site_fract_y
_atom_site_fract_z
Si Si1 0.630786 0.108215 0.660180
Si Si2 0.142465 0.880591 0.638604
Si Si3 0.240365 0.468353 0.034059
Si Si4 0.884054 0.750000 0.589811
Si Si5 0.202846 0.155912 0.347933
Si Si6 0.545145 0.643672 0.377516
Si Si7 0.006926 0.250000 0.907253
O O1 0.658753 0.057254 0.557832
O O2 0.656448 0.142171 0.419258
O O3 0.539257 0.121079 0.711473
O O4 0.682727 0.118735 0.921786
O O5 0.194974 0.927503 0.595684
O O6 0.205461 0.844267 0.766844
O O7 0.106980 0.864107 0.360589
O O8 0.073690 0.883142 0.858138
O O9 0.229765 0.499401 0.294447
O O10 0.830662 0.704549 0.548039
O O11 0.956747 0.750000 0.386550
O O12 0.921327 0.750000 0.881850
O O13 0.536419 0.699551 0.437562
#
# Coordination Sequence:
#
# PCOD9467369 Si02
#       7
#     8   8   8   4   8   8   4
#     4  11  22  41  66  93 125 174 213 256 325 387
#     4  11  25  41  64  95 133 163 210 272 339 366
#     4  11  23  45  70  93 122 167 221 273 327 395
#     4  12  20  38  62  94 120 168 236 256 284 378
#     4  11  21  39  62  91 124 171 218 262 301 374
#     4  12  23  42  62  97 136 174 205 263 322 380
#     4  12  24  38  64  94 136 174 220 246 308 382
#
# _framework density 19.937954999999999
#
# number of rings (size 3 to 8) (size 9 to 14) (size 15 to 20)
#    0.000    0.667    3.333    7.000    0.000    1.333 
#    0.000    5.000    0.000    0.000    0.000    0.000 
#    0.000    0.000    0.000    0.000    0.000    0.000 
#
# Total GULP energy -268204.529487 kJ/mol
# GULP energy per Si atom -5587.594364 kJ/mol
# Density = 1.989258 g / cm^3
# Si number density = 19.937955 Si / 1000 Ang^3
#
#
#
# Elastic Constant Matrix: (Units=GPa)
#
#
# Indices 1 2 3 4 5 6 
#
# 1 54.6690 41.9824 5.1065 0.0000 0.0000 0.0000
# 2 41.9824 88.1080 21.5521 0.0000 0.0000 0.0000
# 3 5.1065 21.5521 88.8207 0.0000 0.0000 0.0000
# 4 0.0000 0.0000 0.0000 36.8769 0.0000 0.0000
# 5 0.0000 0.0000 0.0000 0.0000 38.1582 0.0000
# 6 0.0000 0.0000 0.0000 0.0000 0.0000 13.2966
#
#
#
# Elastic Compliance Matrix: (Units=1/GPa)
#
#
# Indices 1 2 3 4 5 6 
#
# 1 0.029116 -0.014313 0.001799 0.000000 0.000000 0.000000
# 2 -0.014313 0.019102 -0.003812 0.000000 0.000000 0.000000
# 3 0.001799 -0.003812 0.012080 0.000000 0.000000 0.000000
# 4 0.000000 0.000000 0.000000 0.027117 0.000000 0.000000
# 5 0.000000 0.000000 0.000000 0.000000 0.026207 0.000000
# 6 0.000000 0.000000 0.000000 0.000000 0.000000 0.075207
#
#
# Mechanical properties :
#
#
# Convention : Reuss Voigt Hill
#
# Bulk Modulus (GPa) = 36.17238 40.98664 38.57951
# Shear Modulus (GPa) = 21.67340 28.53011 25.10176
#
# Velocity S-wave (km/s) = 3.30061 3.78689 3.55208
# Velocity P-wave (km/s) = 5.71902 6.30257 6.01787
#
# Compressibility (1/GPa) = 0.02764540
#
# Stress axis : x y z
#
# Youngs Moduli (GPa) = 34.34581 52.34955 82.77991
#
# Poissons Ratio (x) = 0.74930 -0.14894
# Poissons Ratio (y) = 0.49160 0.31558
# Poissons Ratio (z) = -0.06179 0.19957
#
# Static dielectric constant tensor:
#      x y z
#    x 1.730080 0.000000 0.000000 
#    y 0.000000 1.709760 0.000000 
#    z 0.000000 0.000000 1.677660 
# 
# From -- ./inp_files/1175.got.cif
#   From: 2010.05.17/outbox.cif.g08.bks.cpg/sg62_1_cif.got.tgz:1175.got - 2010.06.03 15:25:27.
