data_PCOD9467748
_publ_section_title
;
Structure prediction by ZEFSAII (Michael W. Deem and Ramdas Pophale) SiO2 
 PCOD9467748
Probable space group: P N M A
;
_chemical_formula_sum "Si O2"
_cell_formula_units_Z 64
_cell_length_a 7.090839
_cell_length_b 28.896621
_cell_length_c 14.831633
_cell_angle_alpha 90.000000
_cell_angle_beta 90.000000
_cell_angle_gamma 90.000000
_cell_volume 3039.020692
_symmetry_space_group_name_H-M "P N M A"
_symmetry_group_IT_number 62
_symmetry_cell_setting 'orthorhombic'
loop_
_space_group_symop_operation_xyz
x,y,z
1/2-x,-y,1/2+z
1/2+x,1/2-y,1/2-z
-x,1/2+y,-z
-x,-y,-z
1/2+x,y,1/2-z
1/2-x,1/2+y,1/2+z
x,1/2-y,z
loop_
_atom_site_type_symbol
_atom_site_label
_atom_site_fract_x
_atom_site_fract_y
_atom_site_fract_z
Si Si1 0.801615 0.925396 0.878986
Si Si2 0.693810 0.697724 0.379427
Si Si3 0.630545 0.802361 0.176615
Si Si4 0.304750 0.470007 0.620696
Si Si5 0.134826 0.074085 0.323260
Si Si6 0.257045 0.614607 0.999944
Si Si7 0.630783 0.530718 0.176004
Si Si8 0.704322 0.615137 0.055936
O O1 0.577033 0.928447 0.860198
O O2 0.878029 0.911658 0.780911
O O3 0.864970 0.977759 0.902272
O O4 0.817437 0.891326 0.963259
O O5 0.630180 0.750000 0.400522
O O6 0.617750 0.682882 0.281093
O O7 0.667530 0.660403 0.457469
O O8 0.919127 0.699908 0.361319
O O9 0.709793 0.750000 0.176119
O O10 0.738685 0.839318 0.115323
O O11 0.329704 0.430677 0.547246
O O12 0.383220 0.456369 0.718926
O O13 0.078832 0.472148 0.636326
O O14 0.245606 0.106500 0.392786
O O15 0.213260 0.021315 0.325940
O O16 0.479997 0.615972 0.029748
O O17 0.733220 0.569589 0.117558
#
# Coordination Sequence:
#
# PCOD9467748 Si02
#       8
#     8   8   8   8   8   8   8   8
#     4   9  17  29  43  59  81 109 140 172 203 236
#     4   9  17  29  45  65  87 109 133 163 201 244
#     4   9  17  29  45  65  87 109 133 163 201 244
#     4   9  16  26  41  61  84 109 136 166 201 241
#     4   9  17  29  43  59  81 109 140 172 203 236
#     4   9  16  27  44  62  81 109 141 167 197 243
#     4   9  16  26  41  61  84 109 136 166 201 241
#     4   9  16  27  44  62  81 109 141 167 197 243
#
# _framework density 21.059415000000001
#
# number of rings (size 3 to 8) (size 9 to 14) (size 15 to 20)
#    0.000    3.000    0.000    1.500    0.000    3.000 
#    0.000    2.500    0.000    6.750    0.000    0.000 
#    0.000    0.000    0.000    0.000    0.000    0.000 
#
# Total GULP energy -357533.275759 kJ/mol
# GULP energy per Si atom -5586.457434 kJ/mol
# Density = 2.101148 g / cm^3
# Si number density = 21.059415 Si / 1000 Ang^3
#
#
#
# Elastic Constant Matrix: (Units=GPa)
#
#
# Indices 1 2 3 4 5 6 
#
# 1 56.4660 15.2679 19.4449 0.0000 0.0000 0.0000
# 2 15.2679 95.7795 97.3358 0.0000 0.0000 0.0000
# 3 19.4449 97.3358 142.6728 0.0000 0.0000 0.0000
# 4 0.0000 0.0000 0.0000 34.0643 0.0000 0.0000
# 5 0.0000 0.0000 0.0000 0.0000 32.5817 0.0000
# 6 0.0000 0.0000 0.0000 0.0000 0.0000 8.6583
#
#
#
# Elastic Compliance Matrix: (Units=1/GPa)
#
#
# Indices 1 2 3 4 5 6 
#
# 1 0.018629 -0.001270 -0.001673 0.000000 0.000000 0.000000
# 2 -0.001270 0.034130 -0.023112 0.000000 0.000000 0.000000
# 3 -0.001673 -0.023112 0.023005 0.000000 0.000000 0.000000
# 4 0.000000 0.000000 0.000000 0.029356 0.000000 0.000000
# 5 0.000000 0.000000 0.000000 0.000000 0.030692 0.000000
# 6 0.000000 0.000000 0.000000 0.000000 0.000000 0.115497
#
#
# Mechanical properties :
#
#
# Convention : Reuss Voigt Hill
#
# Bulk Modulus (GPa) = 42.27308 62.11281 52.19295
# Shear Modulus (GPa) = 16.06155 25.91882 20.99018
#
# Velocity S-wave (km/s) = 2.76466 3.51201 3.16050
# Velocity P-wave (km/s) = 5.50526 6.78260 6.17704
#
# Compressibility (1/GPa) = 0.02365572
#
# Stress axis : x y z
#
# Youngs Moduli (GPa) = 53.67937 29.29951 43.46970
#
# Poissons Ratio (x) = 0.03720 0.07271
# Poissons Ratio (y) = 0.06815 1.00466
# Poissons Ratio (z) = 0.08979 0.67716
#
# Static dielectric constant tensor:
#      x y z
#    x 1.885980 0.000000 0.000000 
#    y 0.000000 1.733190 0.000000 
#    z 0.000000 0.000000 1.753870 
# 
# From -- ./inp_files/12603.got.cif
#   From: 2010.05.17/outbox.cif.g08.bks.cpg/sg62_7_cif.got.tgz:12603.got - 2010.06.03 15:25:27.
