data_PCOD9467937
_publ_section_title
;
Structure prediction by ZEFSAII (Michael W. Deem and Ramdas Pophale) SiO2 
 PCOD9467937
Probable space group: P N M A
;
_chemical_formula_sum "Si O2"
_cell_formula_units_Z 64
_cell_length_a 18.000000
_cell_length_b 9.000000
_cell_length_c 21.000000
_cell_angle_alpha 90.000000
_cell_angle_beta 90.000000
_cell_angle_gamma 90.000000
_cell_volume 3402.000000
_symmetry_space_group_name_H-M "P N M A"
_symmetry_group_IT_number 62
_symmetry_cell_setting 'orthorhombic'
loop_
_space_group_symop_operation_xyz
x,y,z
1/2-x,-y,1/2+z
1/2+x,1/2-y,1/2-z
-x,1/2+y,-z
-x,-y,-z
1/2+x,y,1/2-z
1/2-x,1/2+y,1/2+z
x,1/2-y,z
loop_
_atom_site_type_symbol
_atom_site_label
_atom_site_fract_x
_atom_site_fract_y
_atom_site_fract_z
Si Si1 0.669705 0.070618 0.243746
Si Si2 0.101603 0.072052 0.620421
Si Si3 0.662979 0.070081 0.514394
Si Si4 0.574223 0.929300 0.631340
Si Si5 0.928167 0.070583 0.633644
Si Si6 0.836035 0.428103 0.507596
Si Si7 0.330008 0.571017 0.257058
Si Si8 0.901397 0.929700 0.877530
O O1 0.674352 0.250000 0.241215
O O2 0.643111 0.023842 0.314547
O O3 0.611130 0.011190 0.192170
O O4 0.749286 0.997680 0.230097
O O5 0.105367 0.250000 0.613227
O O6 0.144988 0.032701 0.685133
O O7 0.014946 0.032060 0.628494
O O8 0.135580 0.998795 0.557741
O O9 0.654863 0.250000 0.520271
O O10 0.750091 0.033629 0.520114
O O11 0.634269 0.023256 0.444447
O O12 0.616434 0.990585 0.569299
O O13 0.579202 0.750000 0.634308
O O14 0.487570 0.972943 0.627436
O O15 0.612440 0.001728 0.692901
O O16 0.921837 0.250000 0.641978
O O17 0.886380 0.029749 0.568062
O O18 0.840099 0.250000 0.501033
O O19 0.328502 0.750000 0.263593
O O20 0.899411 0.750000 0.877796
#
# Coordination Sequence:
#
# PCOD9467937 Si02
#       8
#     8   8   8   8   8   8   8   8
#     4  11  22  38  61  87 112 146 189 234 280 335
#     4  10  22  38  58  83 114 150 192 236 278 330
#     4  10  20  37  58  82 115 154 188 230 288 343
#     4  11  22  37  58  85 113 147 191 237 278 331
#     4  10  21  38  57  84 119 153 187 228 280 339
#     4  10  21  36  58  83 112 150 189 231 285 338
#     4  11  23  39  57  81 113 150 187 232 287 338
#     4   9  20  37  57  83 116 148 186 234 285 336
#
# _framework density 18.812463000000001
#
# number of rings (size 3 to 8) (size 9 to 14) (size 15 to 20)
#    0.000    1.750    0.000    4.125    0.000    4.500 
#    0.000    3.750    0.000    0.000    0.000    0.000 
#    0.000    0.000    0.000    0.000    0.000    0.000 
#
# Total GULP energy -357738.091771 kJ/mol
# GULP energy per Si atom -5589.657684 kJ/mol
# Density = 1.876965 g / cm^3
# Si number density = 18.812463 Si / 1000 Ang^3
#
#
#
# Elastic Constant Matrix: (Units=GPa)
#
#
# Indices 1 2 3 4 5 6 
#
# 1 51.7673 5.6659 -26.6548 0.0000 0.0000 0.0000
# 2 5.6659 32.1660 7.4639 0.0000 0.0000 0.0000
# 3 -26.6548 7.4639 55.3891 0.0000 0.0000 0.0000
# 4 0.0000 0.0000 0.0000 24.7642 0.0000 0.0000
# 5 0.0000 0.0000 0.0000 0.0000 43.6395 0.0000
# 6 0.0000 0.0000 0.0000 0.0000 0.0000 18.7430
#
#
#
# Elastic Compliance Matrix: (Units=1/GPa)
#
#
# Indices 1 2 3 4 5 6 
#
# 1 0.027632 -0.008210 0.014404 0.000000 0.000000 0.000000
# 2 -0.008210 0.034531 -0.008604 0.000000 0.000000 0.000000
# 3 0.014404 -0.008604 0.026145 0.000000 0.000000 0.000000
# 4 0.000000 0.000000 0.000000 0.040381 0.000000 0.000000
# 5 0.000000 0.000000 0.000000 0.000000 0.022915 0.000000
# 6 0.000000 0.000000 0.000000 0.000000 0.000000 0.053353
#
#
# Mechanical properties :
#
#
# Convention : Reuss Voigt Hill
#
# Bulk Modulus (GPa) = 11.97767 12.47471 12.22619
# Shear Modulus (GPa) = 21.04317 27.61916 24.33117
#
# Velocity S-wave (km/s) = 3.34814 3.83578 3.60022
# Velocity P-wave (km/s) = 4.61816 5.12475 4.87804
#
# Compressibility (1/GPa) = 0.08348872
#
# Stress axis : x y z
#
# Youngs Moduli (GPa) = 36.18975 28.95926 38.24832
#
# Poissons Ratio (x) = 0.23774 -0.55091
# Poissons Ratio (y) = 0.29710 0.32908
# Poissons Ratio (z) = -0.52126 0.24916
#
# Static dielectric constant tensor:
#      x y z
#    x 1.631590 0.000000 0.000000 
#    y 0.000000 1.628370 0.000000 
#    z 0.000000 0.000000 1.624130 
# 
# From -- ./inp_files/27696.got.cif
#   From: 2010.05.17/outbox.ucp.g08.bks.cvg/sg62_14_cif.got.tgz:27696.got - 2010.06.11 16:29:25.
