data_PCOD9467235
_publ_section_title
;
Structure prediction by ZEFSAII (Michael W. Deem and Ramdas Pophale) SiO2 
 PCOD9467235
Probable space group: P N M A
;
_chemical_formula_sum "Si O2"
_cell_formula_units_Z 44
_cell_length_a 10.765593
_cell_length_b 22.170001
_cell_length_c 7.699244
_cell_angle_alpha 90.000000
_cell_angle_beta 90.000000
_cell_angle_gamma 90.000000
_cell_volume 1837.603261
_symmetry_space_group_name_H-M "P N M A"
_symmetry_group_IT_number 62
_symmetry_cell_setting 'orthorhombic'
loop_
_space_group_symop_operation_xyz
x,y,z
1/2-x,-y,1/2+z
1/2+x,1/2-y,1/2-z
-x,1/2+y,-z
-x,-y,-z
1/2+x,y,1/2-z
1/2-x,1/2+y,1/2+z
x,1/2-y,z
loop_
_atom_site_type_symbol
_atom_site_label
_atom_site_fract_x
_atom_site_fract_y
_atom_site_fract_z
Si Si1 0.370291 0.750000 0.484661
Si Si2 0.310389 0.750000 0.858284
Si Si3 0.046178 0.639162 0.100556
Si Si4 0.582258 0.122832 0.117988
Si Si5 0.173100 0.915587 0.765902
Si Si6 0.065859 0.036779 0.662393
Si Si7 0.174680 0.750000 0.200425
O O1 0.281815 0.750000 0.653390
O O2 0.446598 0.813239 0.483258
O O3 0.300492 0.750000 0.303678
O O4 0.392527 0.692326 0.895297
O O5 0.197820 0.750000 0.992337
O O6 0.108601 0.686369 0.234993
O O7 0.007786 0.577398 0.198181
O O8 0.131241 0.616647 0.943124
O O9 0.436250 0.110306 0.141926
O O10 0.680813 0.097482 0.262286
O O11 0.630438 0.088978 0.946687
O O12 0.148920 0.987273 0.759008
O O13 0.000000 0.000000 0.500000
#
# Coordination Sequence:
#
# PCOD9467235 Si02
#       7
#     4   4   8   8   8   8   4
#     4  11  25  43  72 107 143 192 247 311 388 444
#     4  12  22  46  76 104 148 195 246 311 380 449
#     4  11  23  45  69 104 145 190 251 310 380 449
#     4  11  25  45  74 109 146 191 257 304 379 448
#     4  11  24  47  72 105 150 194 245 312 364 458
#     4  10  25  45  68 104 145 199 248 304 379 447
#     4  11  25  45  72 105 151 185 251 322 374 459
#
# _framework density 23.944230999999998
#
# number of rings (size 3 to 8) (size 9 to 14) (size 15 to 20)
#    0.000    1.091    3.636    1.636    0.000    8.727 
#    0.000    1.818    0.000    0.000    0.000    0.000 
#    0.000    0.000    0.000    0.000    0.000    0.000 
#
# Total GULP energy -245167.099204 kJ/mol
# GULP energy per Si atom -5571.979527 kJ/mol
# Density = 2.388973 g / cm^3
# Si number density = 23.944231 Si / 1000 Ang^3
#
#
#
# Elastic Constant Matrix: (Units=GPa)
#
#
# Indices 1 2 3 4 5 6 
#
# 1 -23.8475 -99.8837 19.9556 0.0000 0.0000 0.0000
# 2 -99.8837 -21.0624 41.4498 0.0000 0.0000 0.0000
# 3 19.9556 41.4498 61.3201 0.0000 0.0000 0.0000
# 4 0.0000 0.0000 0.0000 34.5676 0.0000 0.0000
# 5 0.0000 0.0000 0.0000 0.0000 17.4369 0.0000
# 6 0.0000 0.0000 0.0000 0.0000 0.0000 45.9727
#
#
#
# Elastic Compliance Matrix: (Units=1/GPa)
#
#
# Indices 1 2 3 4 5 6 
#
# 1 0.004319 -0.009976 0.005338 0.000000 0.000000 0.000000
# 2 -0.009976 0.002670 0.001442 0.000000 0.000000 0.000000
# 3 0.005338 0.001442 0.013596 0.000000 0.000000 0.000000
# 4 0.000000 0.000000 0.000000 0.028929 0.000000 0.000000
# 5 0.000000 0.000000 0.000000 0.000000 0.057350 0.000000
# 6 0.000000 0.000000 0.000000 0.000000 0.000000 0.021752
#
#
# Mechanical properties :
#
#
# Convention : Reuss Voigt Hill
#
# Bulk Modulus (GPa) = 70.46186 -6.72739 31.86724
# Shear Modulus (GPa) = 35.78100 23.25467 29.51783
#
# Velocity S-wave (km/s) = 3.86987 3.11979 3.51490
# Velocity P-wave (km/s) = 7.03273 3.18775 5.45990
#
# Compressibility (1/GPa) = 0.01419208
#
# Stress axis : x y z
#
# Youngs Moduli (GPa) = 231.54189 374.54057 73.55077
#
# Poissons Ratio (x) = 3.73653 -0.39262
# Poissons Ratio (y) = 2.30993 -0.10605
# Poissons Ratio (z) = -1.23598 -0.54004
#
# Static dielectric constant tensor:
#      x y z
#    x 1.987240 0.000000 0.000000 
#    y 0.000000 2.085630 0.000000 
#    z 0.000000 0.000000 2.089640 
# 
# From -- ./inp_files/5270.got.cif
#   From: 2010.05.17/outbox.cif.g08.bks.cpg/sg62_3_cif.got.tgz:5270.got - 2010.06.03 15:25:27.
