data_PCOD9467742
_publ_section_title
;
Structure prediction by ZEFSAII (Michael W. Deem and Ramdas Pophale) SiO2 
 PCOD9467742
Probable space group: P N M A
;
_chemical_formula_sum "Si O2"
_cell_formula_units_Z 16
_cell_length_a 9.575088
_cell_length_b 10.394473
_cell_length_c 6.615466
_cell_angle_alpha 90.000000
_cell_angle_beta 90.000000
_cell_angle_gamma 90.000000
_cell_volume 658.424058
_symmetry_space_group_name_H-M "P N M A"
_symmetry_group_IT_number 62
_symmetry_cell_setting 'orthorhombic'
loop_
_space_group_symop_operation_xyz
x,y,z
1/2-x,-y,1/2+z
1/2+x,1/2-y,1/2-z
-x,1/2+y,-z
-x,-y,-z
1/2+x,y,1/2-z
1/2-x,1/2+y,1/2+z
x,1/2-y,z
loop_
_atom_site_type_symbol
_atom_site_label
_atom_site_fract_x
_atom_site_fract_y
_atom_site_fract_z
Si Si1 0.189858 0.250000 0.862684
Si Si2 0.408455 0.111203 0.094028
Si Si3 0.882064 0.250000 0.014893
O O1 0.257180 0.250000 0.642464
O O2 0.260834 0.129734 0.981543
O O3 0.026340 0.250000 0.892763
O O4 0.481468 0.250000 0.054246
O O5 0.382535 0.127030 0.333303
O O6 0.500000 0.000000 0.000000
#
# Coordination Sequence:
#
# PCOD9467742 Si02
#       3
#     4   8   4
#     4   9  20  38  59  99 129 179 214 282 336 404
#     4   8  20  40  60  93 132 176 226 274 333 394
#     4   9  20  38  67  95 137 171 230 274 340 412
#
# _framework density 24.300446999999998
#
# number of rings (size 3 to 8) (size 9 to 14) (size 15 to 20)
#    3.000    0.000    0.000    0.000    0.000   10.000 
#    9.000    0.000    0.000    0.000    0.000    0.000 
#    0.000    0.000    0.000    0.000    0.000    0.000 
#
# Total GULP energy -89152.240411 kJ/mol
# GULP energy per Si atom -5572.015026 kJ/mol
# Density = 2.424514 g / cm^3
# Si number density = 24.300447 Si / 1000 Ang^3
#
#
#
# Elastic Constant Matrix: (Units=GPa)
#
#
# Indices 1 2 3 4 5 6 
#
# 1 138.1962 30.0334 85.9876 0.0000 0.0000 0.0000
# 2 30.0334 123.9639 38.7476 0.0000 0.0000 0.0000
# 3 85.9876 38.7476 220.1467 0.0000 0.0000 0.0000
# 4 0.0000 0.0000 0.0000 -22.1394 0.0000 0.0000
# 5 0.0000 0.0000 0.0000 0.0000 10.3974 0.0000
# 6 0.0000 0.0000 0.0000 0.0000 0.0000 28.0601
#
#
#
# Elastic Compliance Matrix: (Units=1/GPa)
#
#
# Indices 1 2 3 4 5 6 
#
# 1 0.009736 -0.001238 -0.003585 0.000000 0.000000 0.000000
# 2 -0.001238 0.008694 -0.001047 0.000000 0.000000 0.000000
# 3 -0.003585 -0.001047 0.006127 0.000000 0.000000 0.000000
# 4 0.000000 0.000000 0.000000 -0.045168 0.000000 0.000000
# 5 0.000000 0.000000 0.000000 0.000000 0.096178 0.000000
# 6 0.000000 0.000000 0.000000 0.000000 0.000000 0.035638
#
#
# Mechanical properties :
#
#
# Convention : Reuss Voigt Hill
#
# Bulk Modulus (GPa) = 78.01904 87.98266 83.00085
# Shear Modulus (GPa) = 39.30331 25.09949 32.20140
#
# Velocity S-wave (km/s) = 4.02604 3.21733 3.64419
# Velocity P-wave (km/s) = 7.33401 7.07718 7.20674
#
# Compressibility (1/GPa) = 0.01281738
#
# Stress axis : x y z
#
# Youngs Moduli (GPa) = 102.71524 115.02204 163.21736
#
# Poissons Ratio (x) = 0.14242 0.58509
# Poissons Ratio (y) = 0.12718 0.17082
# Poissons Ratio (z) = 0.36821 0.12038
#
# Static dielectric constant tensor:
#      x y z
#    x 1.874250 0.000000 0.000000 
#    y 0.000000 2.038940 0.000000 
#    z 0.000000 0.000000 2.057100 
# 
# From -- ./inp_files/264.got.cif
#   From: 2010.05.17/outbox.cif.g08.bks.cpg/sg62_1_cif.got.tgz:264.got - 2010.06.03 15:25:27.
