data_PCOD9467016
_publ_section_title
;
Structure prediction by ZEFSAII (Michael W. Deem and Ramdas Pophale) SiO2 
 PCOD9467016
Probable space group: P N M A
;
_chemical_formula_sum "Si O2"
_cell_formula_units_Z 40
_cell_length_a 5.042783
_cell_length_b 19.131209
_cell_length_c 16.994680
_cell_angle_alpha 90.000000
_cell_angle_beta 90.000000
_cell_angle_gamma 90.000000
_cell_volume 1639.553859
_symmetry_space_group_name_H-M "P N M A"
_symmetry_group_IT_number 62
_symmetry_cell_setting 'orthorhombic'
loop_
_space_group_symop_operation_xyz
x,y,z
1/2-x,-y,1/2+z
1/2+x,1/2-y,1/2-z
-x,1/2+y,-z
-x,-y,-z
1/2+x,y,1/2-z
1/2-x,1/2+y,1/2+z
x,1/2-y,z
loop_
_atom_site_type_symbol
_atom_site_label
_atom_site_fract_x
_atom_site_fract_y
_atom_site_fract_z
Si Si1 0.085026 0.833423 0.696485
Si Si2 0.846680 0.250000 0.013543
Si Si3 0.427692 0.892274 0.563694
Si Si4 0.701357 0.978454 0.068194
Si Si5 0.602303 0.883745 0.198368
Si Si6 0.856110 0.250000 0.591459
O O1 0.301587 0.847992 0.764989
O O2 0.099161 0.750000 0.678530
O O3 0.180133 0.877059 0.620747
O O4 0.547760 0.250000 0.983766
O O5 0.055033 0.250000 0.940303
O O6 0.909171 0.179671 0.061124
O O7 0.350574 0.913255 0.474075
O O8 0.598601 0.959386 0.588253
O O9 0.555409 0.950943 0.144528
O O10 0.500000 0.000000 0.000000
O O11 0.399904 0.883416 0.269740
O O12 0.571046 0.816244 0.144242
#
# Coordination Sequence:
#
# PCOD9467016 Si02
#       6
#     8   4   8   8   8   4
#     4  10  23  42  66 101 138 175 227 289 351 408
#     4  12  24  43  78 109 132 193 239 300 364 425
#     4  11  25  45  72 103 141 186 245 295 357 427
#     4  11  27  47  71 103 144 191 239 298 348 436
#     4  12  27  47  73 106 146 192 239 294 365 430
#     4  12  24  45  72 107 150 179 243 302 354 425
#
# _framework density 24.396878999999998
#
# number of rings (size 3 to 8) (size 9 to 14) (size 15 to 20)
#    0.000    0.800    3.000    3.000    8.400    1.600 
#    0.000    0.000    0.000    0.000    0.000    0.000 
#    0.000    0.000    0.000    0.000    0.000    0.000 
#
# Total GULP energy -224352.939856 kJ/mol
# GULP energy per Si atom -5608.823496 kJ/mol
# Density = 2.434135 g / cm^3
# Si number density = 24.396879 Si / 1000 Ang^3
#
#
#
# Elastic Constant Matrix: (Units=GPa)
#
#
# Indices 1 2 3 4 5 6 
#
# 1 50.9364 9.4706 4.5746 0.0000 0.0000 0.0000
# 2 9.4706 111.2115 34.3254 0.0000 0.0000 0.0000
# 3 4.5746 34.3254 74.0252 0.0000 0.0000 0.0000
# 4 0.0000 0.0000 0.0000 19.4990 0.0000 0.0000
# 5 0.0000 0.0000 0.0000 0.0000 55.2036 0.0000
# 6 0.0000 0.0000 0.0000 0.0000 0.0000 21.7695
#
#
#
# Elastic Compliance Matrix: (Units=1/GPa)
#
#
# Indices 1 2 3 4 5 6 
#
# 1 0.019965 -0.001540 -0.000520 0.000000 0.000000 0.000000
# 2 -0.001540 0.010612 -0.004826 0.000000 0.000000 0.000000
# 3 -0.000520 -0.004826 0.015779 0.000000 0.000000 0.000000
# 4 0.000000 0.000000 0.000000 0.051285 0.000000 0.000000
# 5 0.000000 0.000000 0.000000 0.000000 0.018115 0.000000
# 6 0.000000 0.000000 0.000000 0.000000 0.000000 0.045936
#
#
# Mechanical properties :
#
#
# Convention : Reuss Voigt Hill
#
# Bulk Modulus (GPa) = 30.68829 36.99046 33.83938
# Shear Modulus (GPa) = 26.83488 31.81459 29.32473
#
# Velocity S-wave (km/s) = 3.32012 3.61507 3.47073
# Velocity P-wave (km/s) = 5.22529 5.71138 5.47373
#
# Compressibility (1/GPa) = 0.03258572
#
# Stress axis : x y z
#
# Youngs Moduli (GPa) = 50.08689 94.22859 63.37629
#
# Poissons Ratio (x) = 0.14509 0.03294
# Poissons Ratio (y) = 0.07712 0.30584
# Poissons Ratio (z) = 0.02604 0.45473
#
# Static dielectric constant tensor:
#      x y z
#    x 1.949550 0.000000 0.000000 
#    y 0.000000 1.923160 0.000000 
#    z 0.000000 0.000000 1.920890 
# 
# From -- ./inp_files/21503.got.cif
#   From: 2010.05.17/outbox.cif.g08.bks.cpg/sg62_11_cif.got.tgz:21503.got - 2010.06.03 15:25:27.
