data_PCOD9467236
_publ_section_title
;
Structure prediction by ZEFSAII (Michael W. Deem and Ramdas Pophale) SiO2 
 PCOD9467236
Probable space group: P N M A
;
_chemical_formula_sum "Si O2"
_cell_formula_units_Z 28
_cell_length_a 7.457038
_cell_length_b 7.615650
_cell_length_c 19.292088
_cell_angle_alpha 90.000000
_cell_angle_beta 90.000000
_cell_angle_gamma 90.000000
_cell_volume 1095.601371
_symmetry_space_group_name_H-M "P N M A"
_symmetry_group_IT_number 62
_symmetry_cell_setting 'orthorhombic'
loop_
_space_group_symop_operation_xyz
x,y,z
1/2-x,-y,1/2+z
1/2+x,1/2-y,1/2-z
-x,1/2+y,-z
-x,-y,-z
1/2+x,y,1/2-z
1/2-x,1/2+y,1/2+z
x,1/2-y,z
loop_
_atom_site_type_symbol
_atom_site_label
_atom_site_fract_x
_atom_site_fract_y
_atom_site_fract_z
Si Si1 0.677896 0.250000 0.784477
Si Si2 0.697900 0.543297 0.027234
Si Si3 0.323528 0.058073 0.324590
Si Si4 0.275477 0.952170 0.621056
O O1 0.726153 0.401760 0.726119
O O2 0.649559 0.406128 0.842646
O O3 0.719682 0.750000 0.039892
O O4 0.739292 0.451239 0.099147
O O5 0.500000 0.500000 0.000000
O O6 0.812642 0.496615 0.958841
O O7 0.286158 0.250000 0.293733
O O8 0.535963 0.037680 0.338947
O O9 0.210949 0.750000 0.621511
#
# Coordination Sequence:
#
# PCOD9467236 Si02
#       4
#     4   8   8   8
#     4  12  24  42  72 104 138 184 230 290 352 410
#     4  11  24  43  68 103 141 183 233 290 348 413
#     4  11  24  45  71 102 139 183 234 288 345 420
#     4  10  25  45  70 102 140 183 234 288 347 419
#
# _framework density 25.556740000000001
#
# number of rings (size 3 to 8) (size 9 to 14) (size 15 to 20)
#    0.000    1.143    1.429    3.429    4.000    4.571 
#    0.000    2.857    0.000    0.000    0.000    0.000 
#    0.000    0.000    0.000    0.000    0.000    0.000 
#
# Total GULP energy -155883.799733 kJ/mol
# GULP energy per Si atom -5567.278562 kJ/mol
# Density = 2.549857 g / cm^3
# Si number density = 25.556740 Si / 1000 Ang^3
#
#
#
# Elastic Constant Matrix: (Units=GPa)
#
#
# Indices 1 2 3 4 5 6 
#
# 1 40.7386 16.8917 15.6212 0.0000 0.0000 0.0000
# 2 16.8917 205.4570 83.5120 0.0000 0.0000 0.0000
# 3 15.6212 83.5120 172.8086 0.0000 0.0000 0.0000
# 4 0.0000 0.0000 0.0000 50.7681 0.0000 0.0000
# 5 0.0000 0.0000 0.0000 0.0000 -0.5372 0.0000
# 6 0.0000 0.0000 0.0000 0.0000 0.0000 31.1921
#
#
#
# Elastic Compliance Matrix: (Units=1/GPa)
#
#
# Indices 1 2 3 4 5 6 
#
# 1 0.025775 -0.001459 -0.001625 0.000000 0.000000 0.000000
# 2 -0.001459 0.006140 -0.002835 0.000000 0.000000 0.000000
# 3 -0.001625 -0.002835 0.007304 0.000000 0.000000 0.000000
# 4 0.000000 0.000000 0.000000 0.019697 0.000000 0.000000
# 5 0.000000 0.000000 0.000000 0.000000 -1.861493 0.000000
# 6 0.000000 0.000000 0.000000 0.000000 0.000000 0.032059
#
#
# Mechanical properties :
#
#
# Convention : Reuss Voigt Hill
#
# Bulk Modulus (GPa) = 36.52242 72.33931 54.43087
# Shear Modulus (GPa) = -2.85787 36.48322 16.81267
#
# Velocity S-wave (km/s) = -1.05862 3.78238 2.56765
# Velocity P-wave (km/s) = 3.58155 6.88781 5.48951
#
# Compressibility (1/GPa) = 0.02738044
#
# Stress axis : x y z
#
# Youngs Moduli (GPa) = 38.79782 162.87926 136.91551
#
# Poissons Ratio (x) = 0.23756 0.22250
# Poissons Ratio (y) = 0.05659 0.38818
# Poissons Ratio (z) = 0.06305 0.46179
#
# Static dielectric constant tensor:
#      x y z
#    x 2.134910 0.000000 0.000000 
#    y 0.000000 1.931800 0.000000 
#    z 0.000000 0.000000 1.990070 
# 
# From -- ./inp_files/21781.got.cif
#   From: 2010.05.17/outbox.cif.g08.bks.cpg/sg62_11_cif.got.tgz:21781.got - 2010.06.03 15:25:27.
