data_PCOD9467656
_publ_section_title
;
Structure prediction by ZEFSAII (Michael W. Deem and Ramdas Pophale) SiO2 
 PCOD9467656
Probable space group: P N M A
;
_chemical_formula_sum "Si O2"
_cell_formula_units_Z 20
_cell_length_a 4.942460
_cell_length_b 7.850738
_cell_length_c 23.145826
_cell_angle_alpha 90.000000
_cell_angle_beta 90.000000
_cell_angle_gamma 90.000000
_cell_volume 898.103381
_symmetry_space_group_name_H-M "P N M A"
_symmetry_group_IT_number 62
_symmetry_cell_setting 'orthorhombic'
loop_
_space_group_symop_operation_xyz
x,y,z
1/2-x,-y,1/2+z
1/2+x,1/2-y,1/2-z
-x,1/2+y,-z
-x,-y,-z
1/2+x,y,1/2-z
1/2-x,1/2+y,1/2+z
x,1/2-y,z
loop_
_atom_site_type_symbol
_atom_site_label
_atom_site_fract_x
_atom_site_fract_y
_atom_site_fract_z
Si Si1 0.623977 0.952734 0.061655
Si Si2 0.071403 0.250000 0.787556
Si Si3 0.390795 0.557594 0.631208
O O1 0.658365 0.750000 0.065081
O O2 0.408242 0.013313 0.109424
O O3 0.091759 0.960143 0.923681
O O4 0.500000 0.000000 0.000000
O O5 0.882774 0.250000 0.730840
O O6 0.994148 0.416952 0.823950
O O7 0.401797 0.750000 0.653622
#
# Coordination Sequence:
#
# PCOD9467656 Si02
#       3
#     8   4   8
#     4  12  23  42  67 101 140 181 219 271 336 408
#     4  12  26  46  72  96 134 180 230 288 342 382
#     4  12  25  45  68 100 137 174 227 282 332 405
#
# _framework density 22.269148999999999
#
# number of rings (size 3 to 8) (size 9 to 14) (size 15 to 20)
#    0.000    0.000    4.000    7.200    0.000    1.600 
#    0.000    0.000    0.000    0.000    0.000    0.000 
#    0.000    0.000    0.000    0.000    0.000    0.000 
#
# Total GULP energy -112120.755133 kJ/mol
# GULP energy per Si atom -5606.037757 kJ/mol
# Density = 2.221846 g / cm^3
# Si number density = 22.269149 Si / 1000 Ang^3
#
#
#
# Elastic Constant Matrix: (Units=GPa)
#
#
# Indices 1 2 3 4 5 6 
#
# 1 76.2133 -3.3887 -16.2966 0.0000 0.0000 0.0000
# 2 -3.3887 191.1542 21.0807 0.0000 0.0000 0.0000
# 3 -16.2966 21.0807 52.5493 0.0000 0.0000 0.0000
# 4 0.0000 0.0000 0.0000 23.7251 0.0000 0.0000
# 5 0.0000 0.0000 0.0000 0.0000 46.4013 0.0000
# 6 0.0000 0.0000 0.0000 0.0000 0.0000 20.5238
#
#
#
# Elastic Compliance Matrix: (Units=1/GPa)
#
#
# Indices 1 2 3 4 5 6 
#
# 1 0.014064 -0.000242 0.004459 0.000000 0.000000 0.000000
# 2 -0.000242 0.005478 -0.002273 0.000000 0.000000 0.000000
# 3 0.004459 -0.002273 0.021324 0.000000 0.000000 0.000000
# 4 0.000000 0.000000 0.000000 0.042149 0.000000 0.000000
# 5 0.000000 0.000000 0.000000 0.000000 0.021551 0.000000
# 6 0.000000 0.000000 0.000000 0.000000 0.000000 0.048724
#
#
# Mechanical properties :
#
#
# Convention : Reuss Voigt Hill
#
# Bulk Modulus (GPa) = 22.34493 35.85641 29.10067
# Shear Modulus (GPa) = 30.42837 39.36479 34.89658
#
# Velocity S-wave (km/s) = 3.70048 4.20894 3.96288
# Velocity P-wave (km/s) = 5.32108 6.30528 5.83397
#
# Compressibility (1/GPa) = 0.04475287
#
# Stress axis : x y z
#
# Youngs Moduli (GPa) = 71.10510 182.55809 46.89520
#
# Poissons Ratio (x) = 0.04425 -0.20909
# Poissons Ratio (y) = 0.01724 0.10657
# Poissons Ratio (z) = -0.31703 0.41488
#
# Static dielectric constant tensor:
#      x y z
#    x 1.774900 0.000000 0.000000 
#    y 0.000000 1.772240 0.000000 
#    z 0.000000 0.000000 1.838990 
# 
# From -- ./inp_files/28056.got.cif
#   From: 2010.05.17/outbox.cif.g08.bks.cpg/sg62_15_cif.got.tgz:28056.got - 2010.06.03 15:25:27.
