data_PCOD9467391
_publ_section_title
;
Structure prediction by ZEFSAII (Michael W. Deem and Ramdas Pophale) SiO2 
 PCOD9467391
Probable space group: P N M A
;
_chemical_formula_sum "Si O2"
_cell_formula_units_Z 48
_cell_length_a 8.519527
_cell_length_b 9.711092
_cell_length_c 27.062393
_cell_angle_alpha 90.000000
_cell_angle_beta 90.000000
_cell_angle_gamma 90.000000
_cell_volume 2238.977600
_symmetry_space_group_name_H-M "P N M A"
_symmetry_group_IT_number 62
_symmetry_cell_setting 'orthorhombic'
loop_
_space_group_symop_operation_xyz
x,y,z
1/2-x,-y,1/2+z
1/2+x,1/2-y,1/2-z
-x,1/2+y,-z
-x,-y,-z
1/2+x,y,1/2-z
1/2-x,1/2+y,1/2+z
x,1/2-y,z
loop_
_atom_site_type_symbol
_atom_site_label
_atom_site_fract_x
_atom_site_fract_y
_atom_site_fract_z
Si Si1 0.648499 0.965319 0.389504
Si Si2 0.169385 0.090226 0.289530
Si Si3 0.586421 0.250000 0.428807
Si Si4 0.835917 0.250000 0.570919
Si Si5 0.525288 0.750000 0.463611
Si Si6 0.452438 0.250000 0.036633
Si Si7 0.478754 0.908940 0.289770
Si Si8 0.482600 0.981611 0.890041
O O1 0.608412 0.880378 0.438779
O O2 0.575294 0.901297 0.340676
O O3 0.835270 0.977387 0.384677
O O4 0.570486 0.114185 0.396765
O O5 0.198116 0.250000 0.274043
O O6 0.325047 0.000840 0.298479
O O7 0.075875 0.999075 0.249581
O O8 0.072001 0.092147 0.340376
O O9 0.478686 0.250000 0.477332
O O10 0.768600 0.250000 0.447084
O O11 0.655542 0.250000 0.554407
O O12 0.947105 0.250000 0.522201
O O13 0.877423 0.384902 0.601464
O O14 0.528384 0.382806 0.062244
O O15 0.446365 0.750000 0.273644
#
# Coordination Sequence:
#
# PCOD9467391 Si02
#       8
#     8   8   4   4   4   4   8   8
#     4  11  23  42  67  96 135 177 227 276 337 404
#     4  12  27  47  73 103 137 176 227 281 341 409
#     4   9  22  37  68  91 134 179 226 282 331 397
#     4  11  23  37  68  93 136 179 225 284 332 401
#     4  11  21  43  58  99 134 177 229 282 336 393
#     4   9  20  43  60  97 132 175 230 280 335 391
#     4  12  27  47  72 102 139 177 223 282 342 409
#     4  11  23  42  67  97 133 179 225 277 338 401
#
# _framework density 21.438355999999999
#
# number of rings (size 3 to 8) (size 9 to 14) (size 15 to 20)
#    0.000    1.000    1.667    4.500    4.667    0.000 
#    0.000    5.000    0.000    0.000    0.000    0.000 
#    0.000    0.000    0.000    0.000    0.000    0.000 
#
# Total GULP energy -268494.597396 kJ/mol
# GULP energy per Si atom -5593.637446 kJ/mol
# Density = 2.138956 g / cm^3
# Si number density = 21.438356 Si / 1000 Ang^3
#
#
#
# Elastic Constant Matrix: (Units=GPa)
#
#
# Indices 1 2 3 4 5 6 
#
# 1 85.9320 26.0639 10.3239 0.0000 0.0000 0.0000
# 2 26.0639 169.5876 21.9608 0.0000 0.0000 0.0000
# 3 10.3239 21.9608 68.5133 0.0000 0.0000 0.0000
# 4 0.0000 0.0000 0.0000 56.0147 0.0000 0.0000
# 5 0.0000 0.0000 0.0000 0.0000 34.0322 0.0000
# 6 0.0000 0.0000 0.0000 0.0000 0.0000 7.0759
#
#
#
# Elastic Compliance Matrix: (Units=1/GPa)
#
#
# Indices 1 2 3 4 5 6 
#
# 1 0.012317 -0.001724 -0.001303 0.000000 0.000000 0.000000
# 2 -0.001724 0.006393 -0.001789 0.000000 0.000000 0.000000
# 3 -0.001303 -0.001789 0.015366 0.000000 0.000000 0.000000
# 4 0.000000 0.000000 0.000000 0.017852 0.000000 0.000000
# 5 0.000000 0.000000 0.000000 0.000000 0.029384 0.000000
# 6 0.000000 0.000000 0.000000 0.000000 0.000000 0.141325
#
#
# Mechanical properties :
#
#
# Convention : Reuss Voigt Hill
#
# Bulk Modulus (GPa) = 40.91347 48.97002 44.94174
# Shear Modulus (GPa) = 20.79708 37.13684 28.96696
#
# Velocity S-wave (km/s) = 3.11800 4.16656 3.67982
# Velocity P-wave (km/s) = 5.66465 6.78519 6.25008
#
# Compressibility (1/GPa) = 0.02444183
#
# Stress axis : x y z
#
# Youngs Moduli (GPa) = 81.19098 156.41182 65.08010
#
# Poissons Ratio (x) = 0.26968 0.08482
# Poissons Ratio (y) = 0.13999 0.11646
# Poissons Ratio (z) = 0.10581 0.27990
#
# Static dielectric constant tensor:
#      x y z
#    x 1.766590 0.000000 0.000000 
#    y 0.000000 1.792900 0.000000 
#    z 0.000000 0.000000 1.731730 
# 
# From -- ./inp_files/32121.got.cif
#   From: 2010.05.17/outbox.cif.g08.bks.cpg/sg62_17_cif.got.tgz:32121.got - 2010.06.03 15:25:27.
