data_PCOD9467900
_publ_section_title
;
Structure prediction by ZEFSAII (Michael W. Deem and Ramdas Pophale) SiO2 
 PCOD9467900
Probable space group: P N M A
;
_chemical_formula_sum "Si O2"
_cell_formula_units_Z 48
_cell_length_a 12.000000
_cell_length_b 9.000000
_cell_length_c 24.000000
_cell_angle_alpha 90.000000
_cell_angle_beta 90.000000
_cell_angle_gamma 90.000000
_cell_volume 2592.000000
_symmetry_space_group_name_H-M "P N M A"
_symmetry_group_IT_number 62
_symmetry_cell_setting 'orthorhombic'
loop_
_space_group_symop_operation_xyz
x,y,z
1/2-x,-y,1/2+z
1/2+x,1/2-y,1/2-z
-x,1/2+y,-z
-x,-y,-z
1/2+x,y,1/2-z
1/2-x,1/2+y,1/2+z
x,1/2-y,z
loop_
_atom_site_type_symbol
_atom_site_label
_atom_site_fract_x
_atom_site_fract_y
_atom_site_fract_z
Si Si1 0.945961 0.077237 0.552347
Si Si2 0.999535 0.570570 0.062529
Si Si3 0.074108 0.919816 0.644578
Si Si4 0.630661 0.425196 0.222725
Si Si5 0.735848 0.070469 0.621391
Si Si6 0.660571 0.425523 0.348274
O O1 0.934685 0.250000 0.540803
O O2 0.826073 0.022512 0.574403
O O3 0.000000 0.000000 0.500000
O O4 0.029335 0.042006 0.602476
O O5 0.003939 0.750000 0.057292
O O6 0.100533 0.510670 0.101195
O O7 0.886311 0.532208 0.097604
O O8 0.000000 0.500000 0.000000
O O9 0.052818 0.750000 0.623627
O O10 0.205420 0.935263 0.651128
O O11 0.994437 0.936541 0.698101
O O12 0.660596 0.250000 0.224603
O O13 0.717197 0.501855 0.179397
O O14 0.629090 0.480941 0.286224
O O15 0.741128 0.250000 0.626816
O O16 0.630655 0.250000 0.352957
#
# Coordination Sequence:
#
# PCOD9467900 Si02
#       6
#     8   8   8   8   8   8
#     4  10  20  35  57  83 110 145 188 235 287 341
#     4  11  25  43  61  86 119 161 205 246 296 356
#     4   9  19  36  55  83 118 148 186 236 287 340
#     4   9  19  36  62  91 116 150 194 237 290 351
#     4   9  21  40  59  82 117 153 189 240 294 343
#     4  10  22  38  61  89 120 155 192 243 294 347
#
# _framework density 18.518519000000001
#
# number of rings (size 3 to 8) (size 9 to 14) (size 15 to 20)
#    0.000    2.333    0.000    1.000    4.667    3.333 
#    0.000    0.000    0.000    0.000    0.000    0.000 
#    0.000    0.000    0.000    0.000    0.000    0.000 
#
# Total GULP energy -267565.234471 kJ/mol
# GULP energy per Si atom -5574.275718 kJ/mol
# Density = 1.847637 g / cm^3
# Si number density = 18.518519 Si / 1000 Ang^3
#
#
#
# Elastic Constant Matrix: (Units=GPa)
#
#
# Indices 1 2 3 4 5 6 
#
# 1 94.3680 26.9749 42.6964 0.0000 0.0000 0.0000
# 2 26.9749 35.7439 23.9456 0.0000 0.0000 0.0000
# 3 42.6964 23.9456 95.8975 0.0000 0.0000 0.0000
# 4 0.0000 0.0000 0.0000 32.2646 0.0000 0.0000
# 5 0.0000 0.0000 0.0000 0.0000 11.0423 0.0000
# 6 0.0000 0.0000 0.0000 0.0000 0.0000 26.9512
#
#
#
# Elastic Compliance Matrix: (Units=1/GPa)
#
#
# Indices 1 2 3 4 5 6 
#
# 1 0.015056 -0.008252 -0.004643 0.000000 0.000000 0.000000
# 2 -0.008252 0.038120 -0.005844 0.000000 0.000000 0.000000
# 3 -0.004643 -0.005844 0.013954 0.000000 0.000000 0.000000
# 4 0.000000 0.000000 0.000000 0.030994 0.000000 0.000000
# 5 0.000000 0.000000 0.000000 0.000000 0.090561 0.000000
# 6 0.000000 0.000000 0.000000 0.000000 0.000000 0.037104
#
#
# Mechanical properties :
#
#
# Convention : Reuss Voigt Hill
#
# Bulk Modulus (GPa) = 33.72521 45.91589 39.82055
# Shear Modulus (GPa) = 18.30481 22.87779 20.59130
#
# Velocity S-wave (km/s) = 3.14739 3.51864 3.33818
# Velocity P-wave (km/s) = 5.60885 6.43088 6.03388
#
# Compressibility (1/GPa) = 0.02965141
#
# Stress axis : x y z
#
# Youngs Moduli (GPa) = 66.41700 26.23306 71.66236
#
# Poissons Ratio (x) = 0.21648 0.33273
# Poissons Ratio (y) = 0.54809 0.41882
# Poissons Ratio (z) = 0.30837 0.15332
#
# Static dielectric constant tensor:
#      x y z
#    x 1.651500 0.000000 0.000000 
#    y 0.000000 1.634210 0.000000 
#    z 0.000000 0.000000 1.677720 
# 
# From -- ./inp_files/29229.got.cif
#   From: 2010.05.17/outbox.ucp.g08.bks.cvg/sg62_15_cif.got.tgz:29229.got - 2010.06.11 16:29:25.
