data_PCOD9467844
_publ_section_title
;
Structure prediction by ZEFSAII (Michael W. Deem and Ramdas Pophale) SiO2 
 PCOD9467844
Probable space group: P N M A
;
_chemical_formula_sum "Si O2"
_cell_formula_units_Z 64
_cell_length_a 24.000000
_cell_length_b 9.000000
_cell_length_c 15.000000
_cell_angle_alpha 90.000000
_cell_angle_beta 90.000000
_cell_angle_gamma 90.000000
_cell_volume 3240.000000
_symmetry_space_group_name_H-M "P N M A"
_symmetry_group_IT_number 62
_symmetry_cell_setting 'orthorhombic'
loop_
_space_group_symop_operation_xyz
x,y,z
1/2-x,-y,1/2+z
1/2+x,1/2-y,1/2-z
-x,1/2+y,-z
-x,-y,-z
1/2+x,y,1/2-z
1/2-x,1/2+y,1/2+z
x,1/2-y,z
loop_
_atom_site_type_symbol
_atom_site_label
_atom_site_fract_x
_atom_site_fract_y
_atom_site_fract_z
Si Si1 0.575227 0.571629 0.124725
Si Si2 0.856983 0.430139 0.939396
Si Si3 0.729663 0.923749 0.694383
Si Si4 0.612365 0.429281 0.948905
Si Si5 0.234922 0.424024 0.510150
Si Si6 0.157119 0.070826 0.238061
Si Si7 0.109508 0.570827 0.864818
Si Si8 0.539788 0.073482 0.778147
O O1 0.580959 0.750000 0.123167
O O2 0.625729 0.494831 0.176846
O O3 0.519050 0.533404 0.178012
O O4 0.576296 0.507144 0.025381
O O5 0.858221 0.250000 0.930775
O O6 0.874176 0.507259 0.848341
O O7 0.793188 0.483795 0.953997
O O8 0.888518 0.469343 0.030683
O O9 0.722451 0.750000 0.717649
O O10 0.757693 0.930286 0.596389
O O11 0.778145 0.984107 0.758057
O O12 0.667446 0.985958 0.681360
O O13 0.611446 0.250000 0.963498
O O14 0.586248 0.459122 0.853116
O O15 0.676004 0.485746 0.957946
O O16 0.234112 0.250000 0.534892
O O17 0.156769 0.250000 0.240058
O O18 0.111210 0.750000 0.861423
O O19 0.057517 0.509843 0.810902
O O20 0.539451 0.250000 0.761705
#
# Coordination Sequence:
#
# PCOD9467844 Si02
#       8
#     8   8   8   8   8   8   8   8
#     4  11  23  39  55  80 116 149 188 238 281 325
#     4   9  19  35  56  83 115 149 183 228 283 334
#     4   8  15  30  52  79 109 142 178 222 269 321
#     4  10  19  35  58  83 112 151 188 224 275 336
#     4   8  14  29  53  78 110 146 176 211 265 330
#     4  11  21  35  58  84 112 149 190 231 278 334
#     4   9  19  37  59  80 110 149 186 228 280 336
#     4  10  23  38  56  82 113 147 188 238 283 327
#
# _framework density 19.753086
#
# number of rings (size 3 to 8) (size 9 to 14) (size 15 to 20)
#    0.000    2.500    1.250    2.625    1.750    2.000 
#    0.000    1.875    0.000    0.000    0.000    0.000 
#    0.000    0.000    0.000    0.000    0.000    0.000 
#
# Total GULP energy -356741.455543 kJ/mol
# GULP energy per Si atom -5574.085243 kJ/mol
# Density = 1.970813 g / cm^3
# Si number density = 19.753086 Si / 1000 Ang^3
#
#
#
# Elastic Constant Matrix: (Units=GPa)
#
#
# Indices 1 2 3 4 5 6 
#
# 1 6.3538 -4.8044 -24.6721 0.0000 0.0000 0.0000
# 2 -4.8044 12.1503 9.8637 0.0000 0.0000 0.0000
# 3 -24.6721 9.8637 43.1368 0.0000 0.0000 0.0000
# 4 0.0000 0.0000 0.0000 21.3088 0.0000 0.0000
# 5 0.0000 0.0000 0.0000 0.0000 10.1951 0.0000
# 6 0.0000 0.0000 0.0000 0.0000 0.0000 19.8721
#
#
#
# Elastic Compliance Matrix: (Units=1/GPa)
#
#
# Indices 1 2 3 4 5 6 
#
# 1 -0.127743 0.010807 -0.075534 0.000000 0.000000 0.000000
# 2 0.010807 0.100149 -0.016719 0.000000 0.000000 0.000000
# 3 -0.075534 -0.016719 -0.016197 0.000000 0.000000 0.000000
# 4 0.000000 0.000000 0.000000 0.046929 0.000000 0.000000
# 5 0.000000 0.000000 0.000000 0.000000 0.098086 0.000000
# 6 0.000000 0.000000 0.000000 0.000000 0.000000 0.050322
#
#
# Mechanical properties :
#
#
# Convention : Reuss Voigt Hill
#
# Bulk Modulus (GPa) = -4.83832 2.49057 -1.17388
# Shear Modulus (GPa) = 20.36303 15.69212 18.02757
#
# Velocity S-wave (km/s) = 3.21421 2.82159 3.02428
# Velocity P-wave (km/s) = 3.36455 3.44656 3.40580
#
# Compressibility (1/GPa) = -0.20668313
#
# Stress axis : x y z
#
# Youngs Moduli (GPa) = -7.82820 9.98517 -61.74135
#
# Poissons Ratio (x) = -0.10791 -4.66357
# Poissons Ratio (y) = 0.08460 -1.03225
# Poissons Ratio (z) = -0.59129 0.16694
#
# Static dielectric constant tensor:
#      x y z
#    x 1.732350 0.000000 0.000000 
#    y 0.000000 1.659100 0.000000 
#    z 0.000000 0.000000 1.708530 
# 
# From -- ./inp_files/20987.got.cif
#   From: 2010.05.17/outbox.ucp.g08.bks.cvg/sg62_11_cif.got.tgz:20987.got - 2010.06.11 16:29:25.
