data_PCOD9467755
_publ_section_title
;
Structure prediction by ZEFSAII (Michael W. Deem and Ramdas Pophale) SiO2 
 PCOD9467755
Probable space group: P N M A
;
_chemical_formula_sum "Si O2"
_cell_formula_units_Z 48
_cell_length_a 10.994857
_cell_length_b 20.145223
_cell_length_c 7.808543
_cell_angle_alpha 90.000000
_cell_angle_beta 90.000000
_cell_angle_gamma 90.000000
_cell_volume 1729.544222
_symmetry_space_group_name_H-M "P N M A"
_symmetry_group_IT_number 62
_symmetry_cell_setting 'orthorhombic'
loop_
_space_group_symop_operation_xyz
x,y,z
1/2-x,-y,1/2+z
1/2+x,1/2-y,1/2-z
-x,1/2+y,-z
-x,-y,-z
1/2+x,y,1/2-z
1/2-x,1/2+y,1/2+z
x,1/2-y,z
loop_
_atom_site_type_symbol
_atom_site_label
_atom_site_fract_x
_atom_site_fract_y
_atom_site_fract_z
Si Si1 0.099535 0.993613 0.238485
Si Si2 0.355227 0.856992 0.235783
Si Si3 0.279157 0.668429 0.619008
Si Si4 0.140508 0.512081 0.635687
Si Si5 0.595286 0.654584 0.379439
Si Si6 0.519780 0.824891 0.767155
O O1 0.222261 0.029452 0.183184
O O2 0.971585 0.032030 0.240598
O O3 0.091745 0.925768 0.132223
O O4 0.176583 0.141093 0.937340
O O5 0.233988 0.825088 0.156851
O O6 0.490832 0.826127 0.240500
O O7 0.363212 0.931168 0.160650
O O8 0.280044 0.750000 0.609869
O O9 0.140452 0.645604 0.646685
O O10 0.379593 0.651976 0.765428
O O11 0.056603 0.677374 0.933495
O O12 0.117038 0.524997 0.437403
O O13 0.513191 0.750000 0.834874
#
# Coordination Sequence:
#
# PCOD9467755 Si02
#       6
#     8   8   8   8   8   8
#     4   9  18  34  55  77 102 134 173 217 266 317
#     4   9  18  33  52  76 106 138 174 215 260 311
#     4   9  18  33  53  78 108 141 176 214 258 309
#     4   9  18  34  55  77 102 134 173 217 266 317
#     4   9  18  33  52  76 106 138 174 215 260 311
#     4   9  18  33  53  78 108 141 176 214 258 309
#
# _framework density 27.752976
#
# number of rings (size 3 to 8) (size 9 to 14) (size 15 to 20)
#    0.000    3.000    0.000    0.000    0.000    2.667 
#    0.000    6.667    0.000   36.000    0.000    0.000 
#    0.000    0.000    0.000    0.000    0.000    0.000 
#
# Total GULP energy -268672.560335 kJ/mol
# GULP energy per Si atom -5597.345007 kJ/mol
# Density = 2.768981 g / cm^3
# Si number density = 27.752976 Si / 1000 Ang^3
#
#
#
# Elastic Constant Matrix: (Units=GPa)
#
#
# Indices 1 2 3 4 5 6 
#
# 1 199.0009 49.6809 37.6931 0.0000 0.0000 0.0000
# 2 49.6809 93.6809 25.7203 0.0000 0.0000 0.0000
# 3 37.6931 25.7203 79.9655 0.0000 0.0000 0.0000
# 4 0.0000 0.0000 0.0000 17.3218 0.0000 0.0000
# 5 0.0000 0.0000 0.0000 0.0000 49.3478 0.0000
# 6 0.0000 0.0000 0.0000 0.0000 0.0000 -9.6985
#
#
#
# Elastic Compliance Matrix: (Units=1/GPa)
#
#
# Indices 1 2 3 4 5 6 
#
# 1 0.006071 -0.002670 -0.002003 0.000000 0.000000 0.000000
# 2 -0.002670 0.012882 -0.002885 0.000000 0.000000 0.000000
# 3 -0.002003 -0.002885 0.014378 0.000000 0.000000 0.000000
# 4 0.000000 0.000000 0.000000 0.057731 0.000000 0.000000
# 5 0.000000 0.000000 0.000000 0.000000 0.020264 0.000000
# 6 0.000000 0.000000 0.000000 0.000000 0.000000 -0.103109
#
#
# Mechanical properties :
#
#
# Convention : Reuss Voigt Hill
#
# Bulk Modulus (GPa) = 54.89872 66.53732 60.71802
# Shear Modulus (GPa) = 170.04184 28.69775 99.36980
#
# Velocity S-wave (km/s) = 7.83599 3.21914 5.99023
# Velocity P-wave (km/s) = 10.08437 6.15175 8.35280
#
# Compressibility (1/GPa) = 0.01821536
#
# Stress axis : x y z
#
# Youngs Moduli (GPa) = 164.71831 77.62516 69.55304
#
# Poissons Ratio (x) = 0.20723 0.13931
# Poissons Ratio (y) = 0.43974 0.20067
# Poissons Ratio (z) = 0.32993 0.22396
#
# Static dielectric constant tensor:
#      x y z
#    x 2.276740 0.000000 0.000000 
#    y 0.000000 2.194150 0.000000 
#    z 0.000000 0.000000 1.999410 
# 
# From -- ./inp_files/5321.got.cif
#   From: 2010.05.17/outbox.cif.g08.bks.cpg/sg62_3_cif.got.tgz:5321.got - 2010.06.03 15:25:27.
