data_PCOD9467305
_publ_section_title
;
Structure prediction by ZEFSAII (Michael W. Deem and Ramdas Pophale) SiO2 
 PCOD9467305
Probable space group: P N M A
;
_chemical_formula_sum "Si O2"
_cell_formula_units_Z 44
_cell_length_a 12.153646
_cell_length_b 18.205209
_cell_length_c 7.595752
_cell_angle_alpha 90.000000
_cell_angle_beta 90.000000
_cell_angle_gamma 90.000000
_cell_volume 1680.633547
_symmetry_space_group_name_H-M "P N M A"
_symmetry_group_IT_number 62
_symmetry_cell_setting 'orthorhombic'
loop_
_space_group_symop_operation_xyz
x,y,z
1/2-x,-y,1/2+z
1/2+x,1/2-y,1/2-z
-x,1/2+y,-z
-x,-y,-z
1/2+x,y,1/2-z
1/2-x,1/2+y,1/2+z
x,1/2-y,z
loop_
_atom_site_type_symbol
_atom_site_label
_atom_site_fract_x
_atom_site_fract_y
_atom_site_fract_z
Si Si1 0.556696 0.250000 0.434955
Si Si2 0.197347 0.750000 0.427809
Si Si3 0.969695 0.116631 0.588311
Si Si4 0.286442 0.892454 0.958586
Si Si5 0.452590 0.585881 0.483137
Si Si6 0.820224 0.250000 0.971130
Si Si7 0.727959 0.960504 0.166430
O O1 0.685799 0.250000 0.476041
O O2 0.539621 0.158910 0.387814
O O3 0.449369 0.250000 0.558679
O O4 0.115673 0.681505 0.454226
O O5 0.233529 0.750000 0.221465
O O6 0.890007 0.046558 0.571436
O O7 0.084421 0.120315 0.488240
O O8 0.001582 0.113149 0.794482
O O9 0.222079 0.818970 0.922531
O O10 0.237545 0.922287 0.144807
O O11 0.256057 0.953261 0.818226
O O12 0.500000 0.500000 0.500000
O O13 0.324183 0.573588 0.448149
#
# Coordination Sequence:
#
# PCOD9467305 Si02
#       7
#     4   4   8   8   8   4   8
#     4  12  20  34  54  85 126 161 206 275 312 373
#     4  12  19  34  57  91 121 155 217 266 321 366
#     4  11  20  36  58  88 124 156 203 264 319 369
#     4  11  24  38  64  90 126 161 207 262 317 379
#     4  11  21  35  58  89 126 168 209 257 319 385
#     4  12  21  36  57  88 117 162 209 257 309 371
#     4  11  21  38  58  92 125 163 204 256 316 384
#
# _framework density 26.180606000000001
#
# number of rings (size 3 to 8) (size 9 to 14) (size 15 to 20)
#    0.000    0.727    5.455    4.364    0.000    0.000 
#    0.000    0.000    0.000    6.545    0.000    5.091 
#    0.000    0.000    0.000    0.000    0.000    0.000 
#
# Total GULP energy -245329.012595 kJ/mol
# GULP energy per Si atom -5575.659377 kJ/mol
# Density = 2.612102 g / cm^3
# Si number density = 26.180606 Si / 1000 Ang^3
#
#
#
# Elastic Constant Matrix: (Units=GPa)
#
#
# Indices 1 2 3 4 5 6 
#
# 1 165.6070 30.1210 12.4010 0.0000 0.0000 0.0000
# 2 30.1210 217.0393 20.5636 0.0000 0.0000 0.0000
# 3 12.4010 20.5636 57.9247 0.0000 0.0000 0.0000
# 4 0.0000 0.0000 0.0000 15.7126 0.0000 0.0000
# 5 0.0000 0.0000 0.0000 0.0000 8.6613 0.0000
# 6 0.0000 0.0000 0.0000 0.0000 0.0000 43.4814
#
#
#
# Elastic Compliance Matrix: (Units=1/GPa)
#
#
# Indices 1 2 3 4 5 6 
#
# 1 0.006258 -0.000767 -0.001067 0.000000 0.000000 0.000000
# 2 -0.000767 0.004862 -0.001562 0.000000 0.000000 0.000000
# 3 -0.001067 -0.001562 0.018047 0.000000 0.000000 0.000000
# 4 0.000000 0.000000 0.000000 0.063643 0.000000 0.000000
# 5 0.000000 0.000000 0.000000 0.000000 0.115456 0.000000
# 6 0.000000 0.000000 0.000000 0.000000 0.000000 0.022998
#
#
# Mechanical properties :
#
#
# Convention : Reuss Voigt Hill
#
# Bulk Modulus (GPa) = 44.69531 62.97137 53.83334
# Shear Modulus (GPa) = 20.36537 38.73675 29.55106
#
# Velocity S-wave (km/s) = 2.79208 3.85073 3.36332
# Velocity P-wave (km/s) = 5.24435 6.62387 5.97407
#
# Compressibility (1/GPa) = 0.02237371
#
# Stress axis : x y z
#
# Youngs Moduli (GPa) = 159.79846 205.67995 55.41171
#
# Poissons Ratio (x) = 0.15783 0.05914
# Poissons Ratio (y) = 0.12262 0.08654
# Poissons Ratio (z) = 0.17056 0.32122
#
# Static dielectric constant tensor:
#      x y z
#    x 2.019470 0.000000 0.000000 
#    y 0.000000 2.297020 0.000000 
#    z 0.000000 0.000000 2.070780 
# 
# From -- ./inp_files/12197.got.cif
#   From: 2010.05.17/outbox.cif.g08.bks.cpg/sg62_7_cif.got.tgz:12197.got - 2010.06.03 15:25:27.
