data_PCOD9467335
_publ_section_title
;
Structure prediction by ZEFSAII (Michael W. Deem and Ramdas Pophale) SiO2 
 PCOD9467335
Probable space group: P N M A
;
_chemical_formula_sum "Si O2"
_cell_formula_units_Z 40
_cell_length_a 13.930828
_cell_length_b 8.563902
_cell_length_c 18.663365
_cell_angle_alpha 90.000000
_cell_angle_beta 90.000000
_cell_angle_gamma 90.000000
_cell_volume 2226.581358
_symmetry_space_group_name_H-M "P N M A"
_symmetry_group_IT_number 62
_symmetry_cell_setting 'orthorhombic'
loop_
_space_group_symop_operation_xyz
x,y,z
1/2-x,-y,1/2+z
1/2+x,1/2-y,1/2-z
-x,1/2+y,-z
-x,-y,-z
1/2+x,y,1/2-z
1/2-x,1/2+y,1/2+z
x,1/2-y,z
loop_
_atom_site_type_symbol
_atom_site_label
_atom_site_fract_x
_atom_site_fract_y
_atom_site_fract_z
Si Si1 0.617011 0.561480 0.127118
Si Si2 0.176630 0.438343 0.814584
Si Si3 0.901573 0.561582 0.032135
Si Si4 0.196840 0.940145 0.525651
Si Si5 0.911032 0.436784 0.331847
O O1 0.611059 0.750000 0.128320
O O2 0.712695 0.516091 0.170876
O O3 0.519929 0.492472 0.157999
O O4 0.636011 0.512781 0.044558
O O5 0.173960 0.250000 0.811790
O O6 0.133892 0.504230 0.741959
O O7 0.117275 0.486808 0.885484
O O8 0.903313 0.750000 0.030996
O O9 0.806913 0.511031 0.987757
O O10 0.000000 0.500000 0.000000
O O11 0.196807 0.750000 0.526026
O O12 0.150093 0.994613 0.599422
O O13 0.908803 0.250000 0.332430
#
# Coordination Sequence:
#
# PCOD9467335 Si02
#       5
#     8   8   8   8   8
#     4   9  18  36  57  72  97 137 175 211 251 302
#     4   9  20  37  53  72 102 140 176 207 247 304
#     4   9  18  35  56  75 100 135 173 211 252 299
#     4   8  17  34  53  74 101 134 169 207 255 307
#     4  11  21  32  52  81 108 132 164 212 265 308
#
# _framework density 17.964759999999998
#
# number of rings (size 3 to 8) (size 9 to 14) (size 15 to 20)
#    0.000    2.800    0.000    3.600    0.000    3.200 
#    0.000   10.000    0.000    0.000    0.000    0.000 
#    0.000    0.000    0.000    0.000    0.000    0.000 
#
# Total GULP energy -223099.624861 kJ/mol
# GULP energy per Si atom -5577.490622 kJ/mol
# Density = 1.792387 g / cm^3
# Si number density = 17.964760 Si / 1000 Ang^3
#
#
#
# Elastic Constant Matrix: (Units=GPa)
#
#
# Indices 1 2 3 4 5 6 
#
# 1 165.8617 33.2739 140.4269 0.0000 0.0000 0.0000
# 2 33.2739 14.6222 36.0406 0.0000 0.0000 0.0000
# 3 140.4269 36.0406 179.7556 0.0000 0.0000 0.0000
# 4 0.0000 0.0000 0.0000 26.6088 0.0000 0.0000
# 5 0.0000 0.0000 0.0000 0.0000 25.0969 0.0000
# 6 0.0000 0.0000 0.0000 0.0000 0.0000 28.8387
#
#
#
# Elastic Compliance Matrix: (Units=1/GPa)
#
#
# Indices 1 2 3 4 5 6 
#
# 1 0.019005 -0.013153 -0.012210 0.000000 0.000000 0.000000
# 2 -0.013153 0.144309 -0.018658 0.000000 0.000000 0.000000
# 3 -0.012210 -0.018658 0.018843 0.000000 0.000000 0.000000
# 4 0.000000 0.000000 0.000000 0.037582 0.000000 0.000000
# 5 0.000000 0.000000 0.000000 0.000000 0.039846 0.000000
# 6 0.000000 0.000000 0.000000 0.000000 0.000000 0.034676
#
#
# Mechanical properties :
#
#
# Convention : Reuss Voigt Hill
#
# Bulk Modulus (GPa) = 10.62536 86.63580 48.63058
# Shear Modulus (GPa) = 12.08678 26.14206 19.11442
#
# Velocity S-wave (km/s) = 2.59666 3.81883 3.26543
# Velocity P-wave (km/s) = 3.86233 8.23254 6.43010
#
# Compressibility (1/GPa) = 0.09411443
#
# Stress axis : x y z
#
# Youngs Moduli (GPa) = 52.61641 6.92956 53.07087
#
# Poissons Ratio (x) = 0.09115 0.64800
# Poissons Ratio (y) = 0.69207 0.99022
# Poissons Ratio (z) = 0.64245 0.12929
#
# Static dielectric constant tensor:
#      x y z
#    x 1.593160 0.000000 0.000000 
#    y 0.000000 1.616210 0.000000 
#    z 0.000000 0.000000 1.604270 
# 
# From -- ./inp_files/18646.got.cif
#   From: 2010.05.17/outbox.cif.g08.bks.cpg/sg62_10_cif.got.tgz:18646.got - 2010.06.03 15:25:27.
