data_PCOD9467111
_publ_section_title
;
Structure prediction by ZEFSAII (Michael W. Deem and Ramdas Pophale) SiO2 
 PCOD9467111
Probable space group: P N M A
;
_chemical_formula_sum "Si O2"
_cell_formula_units_Z 40
_cell_length_a 22.986957
_cell_length_b 14.567869
_cell_length_c 4.941417
_cell_angle_alpha 90.000000
_cell_angle_beta 90.000000
_cell_angle_gamma 90.000000
_cell_volume 1654.737145
_symmetry_space_group_name_H-M "P N M A"
_symmetry_group_IT_number 62
_symmetry_cell_setting 'orthorhombic'
loop_
_space_group_symop_operation_xyz
x,y,z
1/2-x,-y,1/2+z
1/2+x,1/2-y,1/2-z
-x,1/2+y,-z
-x,-y,-z
1/2+x,y,1/2-z
1/2-x,1/2+y,1/2+z
x,1/2-y,z
loop_
_atom_site_type_symbol
_atom_site_label
_atom_site_fract_x
_atom_site_fract_y
_atom_site_fract_z
Si Si1 0.824093 0.250000 0.368355
Si Si2 0.246719 0.067911 0.026060
Si Si3 0.548748 0.145545 0.035072
Si Si4 0.882522 0.915141 0.040666
Si Si5 0.094795 0.750000 0.133288
Si Si6 0.545125 0.926788 0.626241
O O1 0.788470 0.344549 0.423514
O O2 0.848868 0.250000 0.064277
O O3 0.880317 0.250000 0.565479
O O4 0.235663 0.004124 0.290738
O O5 0.184277 0.108759 0.938874
O O6 0.543571 0.250000 0.120253
O O7 0.594784 0.097593 0.236547
O O8 0.486381 0.100543 0.096245
O O9 0.575377 0.140727 0.738784
O O10 0.894343 0.019088 0.141241
O O11 0.057045 0.661912 0.051946
O O12 0.500000 0.000000 0.500000
#
# Coordination Sequence:
#
# PCOD9467111 Si02
#       6
#     4   8   8   8   4   8
#     4  12  28  46  76 106 142 196 250 300 366 430
#     4  12  26  48  73 104 143 186 246 301 359 428
#     4  11  23  40  64 101 134 174 225 272 345 419
#     4  11  24  41  69  95 141 176 225 287 352 401
#     4  12  26  48  74 104 146 190 244 298 360 432
#     4  10  23  45  71 103 142 184 232 289 357 431
#
# _framework density 24.173026
#
# number of rings (size 3 to 8) (size 9 to 14) (size 15 to 20)
#    0.000    0.800    1.000    6.000    2.800    8.000 
#    0.000    0.000    0.000    0.000    0.000    0.000 
#    0.000    0.000    0.000    0.000    0.000    0.000 
#
# Total GULP energy -223917.385315 kJ/mol
# GULP energy per Si atom -5597.934633 kJ/mol
# Density = 2.411801 g / cm^3
# Si number density = 24.173026 Si / 1000 Ang^3
#
#
#
# Elastic Constant Matrix: (Units=GPa)
#
#
# Indices 1 2 3 4 5 6 
#
# 1 94.0070 35.2861 12.1488 0.0000 0.0000 0.0000
# 2 35.2861 144.2835 7.6058 0.0000 0.0000 0.0000
# 3 12.1488 7.6058 81.4657 0.0000 0.0000 0.0000
# 4 0.0000 0.0000 0.0000 30.3858 0.0000 0.0000
# 5 0.0000 0.0000 0.0000 0.0000 35.0290 0.0000
# 6 0.0000 0.0000 0.0000 0.0000 0.0000 46.3928
#
#
#
# Elastic Compliance Matrix: (Units=1/GPa)
#
#
# Indices 1 2 3 4 5 6 
#
# 1 0.011895 -0.002829 -0.001510 0.000000 0.000000 0.000000
# 2 -0.002829 0.007638 -0.000291 0.000000 0.000000 0.000000
# 3 -0.001510 -0.000291 0.012527 0.000000 0.000000 0.000000
# 4 0.000000 0.000000 0.000000 0.032910 0.000000 0.000000
# 5 0.000000 0.000000 0.000000 0.000000 0.028548 0.000000
# 6 0.000000 0.000000 0.000000 0.000000 0.000000 0.021555
#
#
# Mechanical properties :
#
#
# Convention : Reuss Voigt Hill
#
# Bulk Modulus (GPa) = 43.86017 47.75974 45.80996
# Shear Modulus (GPa) = 37.89790 40.00922 38.95356
#
# Velocity S-wave (km/s) = 3.96381 4.07273 4.01864
# Velocity P-wave (km/s) = 6.25561 6.47430 6.36589
#
# Compressibility (1/GPa) = 0.02279973
#
# Stress axis : x y z
#
# Youngs Moduli (GPa) = 84.07162 130.92259 79.82484
#
# Poissons Ratio (x) = 0.37043 0.12051
# Poissons Ratio (y) = 0.23787 0.02324
# Poissons Ratio (z) = 0.12692 0.03812
#
# Static dielectric constant tensor:
#      x y z
#    x 1.935320 0.000000 0.000000 
#    y 0.000000 1.961240 0.000000 
#    z 0.000000 0.000000 1.909290 
# 
# From -- ./inp_files/2681.got.cif
#   From: 2010.05.17/outbox.cif.g08.bks.cpg/sg62_2_cif.got.tgz:2681.got - 2010.06.03 15:25:27.
