data_PCOD9467140
_publ_section_title
;
Structure prediction by ZEFSAII (Michael W. Deem and Ramdas Pophale) SiO2 
 PCOD9467140
Probable space group: P N M A
;
_chemical_formula_sum "Si O2"
_cell_formula_units_Z 64
_cell_length_a 8.284352
_cell_length_b 15.966257
_cell_length_c 24.600751
_cell_angle_alpha 90.000000
_cell_angle_beta 90.000000
_cell_angle_gamma 90.000000
_cell_volume 3253.943625
_symmetry_space_group_name_H-M "P N M A"
_symmetry_group_IT_number 62
_symmetry_cell_setting 'orthorhombic'
loop_
_space_group_symop_operation_xyz
x,y,z
1/2-x,-y,1/2+z
1/2+x,1/2-y,1/2-z
-x,1/2+y,-z
-x,-y,-z
1/2+x,y,1/2-z
1/2-x,1/2+y,1/2+z
x,1/2-y,z
loop_
_atom_site_type_symbol
_atom_site_label
_atom_site_fract_x
_atom_site_fract_y
_atom_site_fract_z
Si Si1 0.621795 0.582651 0.261766
Si Si2 0.112645 0.010674 0.671307
Si Si3 0.151014 0.155988 0.827590
Si Si4 0.251330 0.082755 0.937226
Si Si5 0.069824 0.348717 0.034572
Si Si6 0.790287 0.606807 0.536171
Si Si7 0.411431 0.654169 0.078833
Si Si8 0.102616 0.654465 0.603059
O O1 0.717163 0.517135 0.298556
O O2 0.511552 0.534633 0.218635
O O3 0.735438 0.639251 0.224071
O O4 0.524206 0.640077 0.303381
O O5 0.082158 0.920451 0.645779
O O6 0.105789 0.084434 0.625845
O O7 0.171856 0.250000 0.848548
O O8 0.192317 0.091597 0.875466
O O9 0.403642 0.144884 0.941878
O O10 0.314011 0.991579 0.953486
O O11 0.108483 0.105344 0.978146
O O12 0.066697 0.250000 0.024584
O O13 0.228773 0.365160 0.071488
O O14 0.892013 0.373062 0.055971
O O15 0.801183 0.631277 0.472760
O O16 0.942082 0.650461 0.565504
O O17 0.382746 0.750000 0.096795
O O18 0.116148 0.750000 0.623904
#
# Coordination Sequence:
#
# PCOD9467140 Si02
#       8
#     8   8   8   8   8   8   8   8
#     4  10  24  41  63  85 125 167 209 277 331 381
#     4  11  24  45  65  93 126 166 218 269 332 387
#     4  11  22  38  59  90 123 167 219 266 323 385
#     4  12  23  39  62  91 132 175 215 266 318 388
#     4  11  24  39  61  97 133 171 219 262 314 386
#     4  12  24  42  64  96 136 178 215 261 321 386
#     4  12  23  39  64  94 133 179 218 260 321 390
#     4  11  23  44  71  97 131 172 214 268 328 388
#
# _framework density 19.668441000000001
#
# number of rings (size 3 to 8) (size 9 to 14) (size 15 to 20)
#    0.000    0.750    3.750    4.125    3.500    2.500 
#    0.000    0.625    0.000    0.000    0.000    0.000 
#    0.000    0.000    0.000    0.000    0.000    0.000 
#
# Total GULP energy -357466.858818 kJ/mol
# GULP energy per Si atom -5585.419669 kJ/mol
# Density = 1.962367 g / cm^3
# Si number density = 19.668441 Si / 1000 Ang^3
#
#
#
# Elastic Constant Matrix: (Units=GPa)
#
#
# Indices 1 2 3 4 5 6 
#
# 1 95.9685 16.3560 17.3942 0.0000 0.0000 0.0000
# 2 16.3560 105.0930 42.3649 0.0000 0.0000 0.0000
# 3 17.3942 42.3649 49.1496 0.0000 0.0000 0.0000
# 4 0.0000 0.0000 0.0000 14.2871 0.0000 0.0000
# 5 0.0000 0.0000 0.0000 0.0000 -45.8095 0.0000
# 6 0.0000 0.0000 0.0000 0.0000 0.0000 23.6926
#
#
#
# Elastic Compliance Matrix: (Units=1/GPa)
#
#
# Indices 1 2 3 4 5 6 
#
# 1 0.011138 -0.000221 -0.003751 0.000000 0.000000 0.000000
# 2 -0.000221 0.014587 -0.012495 0.000000 0.000000 0.000000
# 3 -0.003751 -0.012495 0.032443 0.000000 0.000000 0.000000
# 4 0.000000 0.000000 0.000000 0.069993 0.000000 0.000000
# 5 0.000000 0.000000 0.000000 0.000000 -0.021830 0.000000
# 6 0.000000 0.000000 0.000000 0.000000 0.000000 0.042207
#
#
# Mechanical properties :
#
#
# Convention : Reuss Voigt Hill
#
# Bulk Modulus (GPa) = 39.62934 44.71569 42.17252
# Shear Modulus (GPa) = 26.33185 10.04044 18.18614
#
# Velocity S-wave (km/s) = 3.66291 2.26184 3.04408
# Velocity P-wave (km/s) = 6.17104 5.44108 5.81752
#
# Compressibility (1/GPa) = 0.02523383
#
# Stress axis : x y z
#
# Youngs Moduli (GPa) = 89.78554 68.55556 30.82286
#
# Poissons Ratio (x) = 0.01517 0.11561
# Poissons Ratio (y) = 0.01987 0.38513
# Poissons Ratio (z) = 0.33677 0.85659
#
# Static dielectric constant tensor:
#      x y z
#    x 1.762240 0.000000 0.000000 
#    y 0.000000 1.679830 0.000000 
#    z 0.000000 0.000000 1.668040 
# 
# From -- ./inp_files/29016.got.cif
#   From: 2010.05.17/outbox.cif.g08.bks.cpg/sg62_15_cif.got.tgz:29016.got - 2010.06.03 15:25:27.
