data_PCOD9467817
_publ_section_title
;
Structure prediction by ZEFSAII (Michael W. Deem and Ramdas Pophale) SiO2 
 PCOD9467817
Probable space group: P N M A
;
_chemical_formula_sum "Si O2"
_cell_formula_units_Z 48
_cell_length_a 15.000000
_cell_length_b 9.000000
_cell_length_c 18.000000
_cell_angle_alpha 90.000000
_cell_angle_beta 90.000000
_cell_angle_gamma 90.000000
_cell_volume 2430.000000
_symmetry_space_group_name_H-M "P N M A"
_symmetry_group_IT_number 62
_symmetry_cell_setting 'orthorhombic'
loop_
_space_group_symop_operation_xyz
x,y,z
1/2-x,-y,1/2+z
1/2+x,1/2-y,1/2-z
-x,1/2+y,-z
-x,-y,-z
1/2+x,y,1/2-z
1/2-x,1/2+y,1/2+z
x,1/2-y,z
loop_
_atom_site_type_symbol
_atom_site_label
_atom_site_fract_x
_atom_site_fract_y
_atom_site_fract_z
Si Si1 0.179597 0.069510 0.482578
Si Si2 0.686277 0.426875 0.281969
Si Si3 0.548408 0.920246 0.391960
Si Si4 0.124075 0.921427 0.939543
Si Si5 0.859716 0.570908 0.346346
Si Si6 0.947139 0.928531 0.647058
O O1 0.183474 0.250000 0.481054
O O2 0.274634 0.020488 0.447680
O O3 0.167846 0.027501 0.568664
O O4 0.095514 0.024683 0.432080
O O5 0.699516 0.250000 0.287208
O O6 0.617813 0.483544 0.345019
O O7 0.781755 0.505849 0.293692
O O8 0.631834 0.458241 0.206290
O O9 0.548414 0.750000 0.365221
O O10 0.584921 0.919436 0.476510
O O11 0.448388 0.986292 0.392937
O O12 0.126512 0.750000 0.912725
O O13 0.860451 0.750000 0.341287
O O14 0.959473 0.507738 0.334121
O O15 0.962335 0.750000 0.646424
#
# Coordination Sequence:
#
# PCOD9467817 Si02
#       6
#     8   8   8   8   8   8
#     4   9  18  37  62  87 117 155 197 244 294 350
#     4  11  23  39  60  86 120 162 203 241 292 359
#     4  10  19  33  54  84 119 153 196 245 295 348
#     4   9  17  32  55  84 117 153 192 240 296 351
#     4  11  22  40  65  90 118 152 193 246 305 354
#     4  10  23  41  61  87 118 155 200 242 290 355
#
# _framework density 19.753086
#
# number of rings (size 3 to 8) (size 9 to 14) (size 15 to 20)
#    0.000    2.000    1.667    2.000    0.000    3.333 
#    0.000    5.000    0.000    0.000    0.000    0.000 
#    0.000    0.000    0.000    0.000    0.000    0.000 
#
# Total GULP energy -268077.988501 kJ/mol
# GULP energy per Si atom -5584.958094 kJ/mol
# Density = 1.970813 g / cm^3
# Si number density = 19.753086 Si / 1000 Ang^3
#
#
#
# Elastic Constant Matrix: (Units=GPa)
#
#
# Indices 1 2 3 4 5 6 
#
# 1 175.6349 56.3562 32.4400 0.0000 0.0000 0.0000
# 2 56.3562 65.0641 27.7788 0.0000 0.0000 0.0000
# 3 32.4400 27.7788 39.2752 0.0000 0.0000 0.0000
# 4 0.0000 0.0000 0.0000 17.9717 0.0000 0.0000
# 5 0.0000 0.0000 0.0000 0.0000 24.5204 0.0000
# 6 0.0000 0.0000 0.0000 0.0000 0.0000 35.4385
#
#
#
# Elastic Compliance Matrix: (Units=1/GPa)
#
#
# Indices 1 2 3 4 5 6 
#
# 1 0.008048 -0.005920 -0.002460 0.000000 0.000000 0.000000
# 2 -0.005920 0.026374 -0.013764 0.000000 0.000000 0.000000
# 3 -0.002460 -0.013764 0.037228 0.000000 0.000000 0.000000
# 4 0.000000 0.000000 0.000000 0.055643 0.000000 0.000000
# 5 0.000000 0.000000 0.000000 0.000000 0.040782 0.000000
# 6 0.000000 0.000000 0.000000 0.000000 0.000000 0.028218
#
#
# Mechanical properties :
#
#
# Convention : Reuss Voigt Hill
#
# Bulk Modulus (GPa) = 36.54750 57.01380 46.78065
# Shear Modulus (GPa) = 20.02397 26.47941 23.25169
#
# Velocity S-wave (km/s) = 3.18734 3.66528 3.43464
# Velocity P-wave (km/s) = 5.66462 6.84385 6.28196
#
# Compressibility (1/GPa) = 0.02736165
#
# Stress axis : x y z
#
# Youngs Moduli (GPa) = 124.26023 37.91631 26.86166
#
# Poissons Ratio (x) = 0.22448 0.06607
# Poissons Ratio (y) = 0.73568 0.36972
# Poissons Ratio (z) = 0.30563 0.52187
#
# Static dielectric constant tensor:
#      x y z
#    x 1.675600 0.000000 0.000000 
#    y 0.000000 1.668410 0.000000 
#    z 0.000000 0.000000 1.730470 
# 
# From -- ./inp_files/23719.got.cif
#   From: 2010.05.17/outbox.ucp.g08.bks.cvg/sg62_12_cif.got.tgz:23719.got - 2010.06.11 16:29:25.
