data_PCOD9467274
_publ_section_title
;
Structure prediction by ZEFSAII (Michael W. Deem and Ramdas Pophale) SiO2 
 PCOD9467274
Probable space group: P N M A
;
_chemical_formula_sum "Si O2"
_cell_formula_units_Z 56
_cell_length_a 9.477571
_cell_length_b 14.810420
_cell_length_c 16.082918
_cell_angle_alpha 90.000000
_cell_angle_beta 90.000000
_cell_angle_gamma 90.000000
_cell_volume 2257.507848
_symmetry_space_group_name_H-M "P N M A"
_symmetry_group_IT_number 62
_symmetry_cell_setting 'orthorhombic'
loop_
_space_group_symop_operation_xyz
x,y,z
1/2-x,-y,1/2+z
1/2+x,1/2-y,1/2-z
-x,1/2+y,-z
-x,-y,-z
1/2+x,y,1/2-z
1/2-x,1/2+y,1/2+z
x,1/2-y,z
loop_
_atom_site_type_symbol
_atom_site_label
_atom_site_fract_x
_atom_site_fract_y
_atom_site_fract_z
Si Si1 0.586437 0.856483 0.674533
Si Si2 0.960934 0.147547 0.986424
Si Si3 0.828544 0.605635 0.431167
Si Si4 0.495374 0.655474 0.906876
Si Si5 0.642863 0.456100 0.234863
Si Si6 0.085249 0.644020 0.323718
Si Si7 0.732711 0.909907 0.002729
O O1 0.591330 0.750000 0.695236
O O2 0.611645 0.863154 0.576363
O O3 0.437016 0.903400 0.692435
O O4 0.702184 0.915467 0.722654
O O5 0.014999 0.250000 0.979732
O O6 0.833749 0.133928 0.923132
O O7 0.100114 0.087622 0.985835
O O8 0.822746 0.504601 0.467323
O O9 0.910450 0.654088 0.506782
O O10 0.922845 0.624908 0.350660
O O11 0.460754 0.750000 0.863355
O O12 0.442621 0.576071 0.847839
O O13 0.658823 0.652573 0.933341
O O14 0.632165 0.564032 0.238399
O O15 0.102850 0.750000 0.301681
O O16 0.172157 0.621001 0.408296
#
# Coordination Sequence:
#
# PCOD9467274 Si02
#       7
#     8   8   8   8   8   8   8
#     4  11  25  42  63  90 125 166 209 261 318 374
#     4  11  22  36  56  91 129 161 202 256 318 374
#     4  11  19  36  59  89 126 163 202 250 312 375
#     4  11  19  34  58  82 117 158 196 243 301 365
#     4  12  24  43  62  90 125 162 213 257 306 373
#     4  11  22  41  66  93 124 166 212 255 310 382
#     4  11  20  35  57  93 128 162 201 254 315 373
#
# _framework density 24.806114999999998
#
# number of rings (size 3 to 8) (size 9 to 14) (size 15 to 20)
#    0.000    0.857    4.286    6.000    2.000    0.000 
#    0.000    0.714    0.000    0.000    0.000    0.000 
#    0.000    0.000    0.000    0.000    0.000    0.000 
#
# Total GULP energy -313281.063545 kJ/mol
# GULP energy per Si atom -5594.304706 kJ/mol
# Density = 2.474966 g / cm^3
# Si number density = 24.806115 Si / 1000 Ang^3
#
#
#
# Elastic Constant Matrix: (Units=GPa)
#
#
# Indices 1 2 3 4 5 6 
#
# 1 143.3417 28.8315 8.8060 0.0000 0.0000 0.0000
# 2 28.8315 209.3574 13.8209 0.0000 0.0000 0.0000
# 3 8.8060 13.8209 39.6048 0.0000 0.0000 0.0000
# 4 0.0000 0.0000 0.0000 -5.9674 0.0000 0.0000
# 5 0.0000 0.0000 0.0000 0.0000 18.1672 0.0000
# 6 0.0000 0.0000 0.0000 0.0000 0.0000 18.2610
#
#
#
# Elastic Compliance Matrix: (Units=1/GPa)
#
#
# Indices 1 2 3 4 5 6 
#
# 1 0.007239 -0.000912 -0.001291 0.000000 0.000000 0.000000
# 2 -0.000912 0.005004 -0.001544 0.000000 0.000000 0.000000
# 3 -0.001291 -0.001544 0.026075 0.000000 0.000000 0.000000
# 4 0.000000 0.000000 0.000000 -0.167576 0.000000 0.000000
# 5 0.000000 0.000000 0.000000 0.000000 0.055044 0.000000
# 6 0.000000 0.000000 0.000000 0.000000 0.000000 0.054762
#
#
# Mechanical properties :
#
#
# Convention : Reuss Voigt Hill
#
# Bulk Modulus (GPa) = 32.44118 55.02452 43.73285
# Shear Modulus (GPa) = -2970.25233 28.81517 -1470.71858
#
# Velocity S-wave (km/s) = -34.64082 3.41195 -24.37566
# Velocity P-wave (km/s) = 39.83561 6.14425 27.83095
#
# Compressibility (1/GPa) = 0.03082502
#
# Stress axis : x y z
#
# Youngs Moduli (GPa) = 138.13975 199.84140 38.35051
#
# Poissons Ratio (x) = 0.18219 0.04953
# Poissons Ratio (y) = 0.12594 0.05920
# Poissons Ratio (z) = 0.17840 0.30846
#
# Static dielectric constant tensor:
#      x y z
#    x 1.962240 0.000000 0.000000 
#    y 0.000000 2.051120 0.000000 
#    z 0.000000 0.000000 1.967310 
# 
# From -- ./inp_files/26008.got.cif
#   From: 2010.05.17/outbox.cif.g08.bks.cpg/sg62_14_cif.got.tgz:26008.got - 2010.06.03 15:25:27.
