data_PCOD9467967
_publ_section_title
;
Structure prediction by ZEFSAII (Michael W. Deem and Ramdas Pophale) SiO2 
 PCOD9467967
Probable space group: P N M A
;
_chemical_formula_sum "Si O2"
_cell_formula_units_Z 48
_cell_length_a 15.000000
_cell_length_b 9.000000
_cell_length_c 18.000000
_cell_angle_alpha 90.000000
_cell_angle_beta 90.000000
_cell_angle_gamma 90.000000
_cell_volume 2430.000000
_symmetry_space_group_name_H-M "P N M A"
_symmetry_group_IT_number 62
_symmetry_cell_setting 'orthorhombic'
loop_
_space_group_symop_operation_xyz
x,y,z
1/2-x,-y,1/2+z
1/2+x,1/2-y,1/2-z
-x,1/2+y,-z
-x,-y,-z
1/2+x,y,1/2-z
1/2-x,1/2+y,1/2+z
x,1/2-y,z
loop_
_atom_site_type_symbol
_atom_site_label
_atom_site_fract_x
_atom_site_fract_y
_atom_site_fract_z
Si Si1 0.228539 0.429186 0.059220
Si Si2 0.067025 0.571908 0.296070
Si Si3 0.549917 0.071372 0.358096
Si Si4 0.882288 0.571247 0.084720
Si Si5 0.893099 0.427136 0.358211
Si Si6 0.265940 0.428055 0.287334
O O1 0.235117 0.250000 0.060620
O O2 0.150942 0.465216 0.118415
O O3 0.328534 0.482334 0.075081
O O4 0.182547 0.471469 0.982678
O O5 0.075614 0.750000 0.302491
O O6 0.030573 0.519693 0.216006
O O7 0.165805 0.495783 0.296980
O O8 0.987318 0.510847 0.349028
O O9 0.542931 0.250000 0.347460
O O10 0.476110 0.015113 0.415812
O O11 0.896123 0.750000 0.083661
O O12 0.828647 0.515363 0.155867
O O13 0.912183 0.250000 0.363851
O O14 0.821959 0.443639 0.289777
O O15 0.260517 0.250000 0.300943
#
# Coordination Sequence:
#
# PCOD9467967 Si02
#       6
#     8   8   8   8   8   8
#     4   9  20  38  60  85 117 156 196 241 289 346
#     4  12  24  37  58  91 122 148 193 252 297 334
#     4  11  20  36  59  86 121 160 197 232 288 358
#     4  11  22  37  58  89 123 152 191 244 298 342
#     4  10  20  39  63  84 113 155 200 238 285 351
#     4  11  22  39  63  85 115 158 199 236 286 354
#
# _framework density 19.753086
#
# number of rings (size 3 to 8) (size 9 to 14) (size 15 to 20)
#    0.000    1.333    3.333    3.500    0.000    0.667 
#    0.000    5.000    0.000    0.000    0.000    0.000 
#    0.000    0.000    0.000    0.000    0.000    0.000 
#
# Total GULP energy -267626.156058 kJ/mol
# GULP energy per Si atom -5575.544918 kJ/mol
# Density = 1.970813 g / cm^3
# Si number density = 19.753086 Si / 1000 Ang^3
#
#
#
# Elastic Constant Matrix: (Units=GPa)
#
#
# Indices 1 2 3 4 5 6 
#
# 1 79.0278 0.4596 -28.9947 0.0000 0.0000 0.0000
# 2 0.4596 63.3858 -20.6053 0.0000 0.0000 0.0000
# 3 -28.9947 -20.6053 0.7061 0.0000 0.0000 0.0000
# 4 0.0000 0.0000 0.0000 15.5196 0.0000 0.0000
# 5 0.0000 0.0000 0.0000 0.0000 27.7234 0.0000
# 6 0.0000 0.0000 0.0000 0.0000 0.0000 26.1042
#
#
#
# Elastic Compliance Matrix: (Units=1/GPa)
#
#
# Indices 1 2 3 4 5 6 
#
# 1 0.004590 -0.007215 -0.022094 0.000000 0.000000 0.000000
# 2 -0.007215 0.009484 -0.019516 0.000000 0.000000 0.000000
# 3 -0.022094 -0.019516 -0.060528 0.000000 0.000000 0.000000
# 4 0.000000 0.000000 0.000000 0.064435 0.000000 0.000000
# 5 0.000000 0.000000 0.000000 0.000000 0.036071 0.000000
# 6 0.000000 0.000000 0.000000 0.000000 0.000000 0.038308
#
#
# Mechanical properties :
#
#
# Convention : Reuss Voigt Hill
#
# Bulk Modulus (GPa) = -6.93939 4.98211 -0.97864
# Shear Modulus (GPa) = 35.21747 26.68679 30.95213
#
# Velocity S-wave (km/s) = 4.22700 3.67961 3.96277
# Velocity P-wave (km/s) = 4.50585 4.53656 4.52123
#
# Compressibility (1/GPa) = -0.14410490
#
# Stress axis : x y z
#
# Youngs Moduli (GPa) = 217.87981 105.43545 -16.52122
#
# Poissons Ratio (x) = 0.76077 -0.36502
# Poissons Ratio (y) = 1.57211 -0.32243
# Poissons Ratio (z) = 4.81380 2.05769
#
# Static dielectric constant tensor:
#      x y z
#    x 1.711720 0.000000 0.000000 
#    y 0.000000 1.648400 0.000000 
#    z 0.000000 0.000000 1.831790 
# 
# From -- ./inp_files/23720.got.cif
#   From: 2010.05.17/outbox.ucp.g08.bks.cvg/sg62_12_cif.got.tgz:23720.got - 2010.06.11 16:29:25.
