data_PCOD9467331
_publ_section_title
;
Structure prediction by ZEFSAII (Michael W. Deem and Ramdas Pophale) SiO2 
 PCOD9467331
Probable space group: P N M A
;
_chemical_formula_sum "Si O2"
_cell_formula_units_Z 40
_cell_length_a 14.521171
_cell_length_b 8.247907
_cell_length_c 13.126205
_cell_angle_alpha 90.000000
_cell_angle_beta 90.000000
_cell_angle_gamma 90.000000
_cell_volume 1572.115964
_symmetry_space_group_name_H-M "P N M A"
_symmetry_group_IT_number 62
_symmetry_cell_setting 'orthorhombic'
loop_
_space_group_symop_operation_xyz
x,y,z
1/2-x,-y,1/2+z
1/2+x,1/2-y,1/2-z
-x,1/2+y,-z
-x,-y,-z
1/2+x,y,1/2-z
1/2-x,1/2+y,1/2+z
x,1/2-y,z
loop_
_atom_site_type_symbol
_atom_site_label
_atom_site_fract_x
_atom_site_fract_y
_atom_site_fract_z
Si Si1 0.779855 0.059369 0.177313
Si Si2 0.960111 0.060242 0.891803
Si Si3 0.610575 0.941597 0.087765
Si Si4 0.439344 0.438968 0.191104
Si Si5 0.225785 0.062827 0.038729
O O1 0.798997 0.250000 0.159399
O O2 0.836028 0.009364 0.276567
O O3 0.670652 0.032987 0.173934
O O4 0.809732 0.954957 0.079282
O O5 0.979012 0.250000 0.876894
O O6 0.007450 0.964224 0.799317
O O7 0.849604 0.034696 0.898957
O O8 0.000000 0.000000 0.000000
O O9 0.624518 0.750000 0.097610
O O10 0.668189 0.988897 0.985850
O O11 0.505148 0.976776 0.109345
O O12 0.436983 0.250000 0.163304
O O13 0.224094 0.250000 0.071822
#
# Coordination Sequence:
#
# PCOD9467331 Si02
#       5
#     8   8   8   8   8
#     4   9  17  30  47  67  94 126 159 195 237 279
#     4  12  21  29  45  69  99 129 159 195 242 294
#     4   9  19  32  47  67  95 128 163 200 237 285
#     4  11  21  31  49  73  99 130 164 200 241 289
#     4   9  18  31  46  64  93 126 156 192 236 281
#
# _framework density 25.443417
#
# number of rings (size 3 to 8) (size 9 to 14) (size 15 to 20)
#    1.200    0.800    2.000    3.600    0.000    2.400 
#    0.000    0.000    0.000    0.000    0.000    1.400 
#    0.000    0.000    0.000    0.000    0.000    0.000 
#
# Total GULP energy -223373.307389 kJ/mol
# GULP energy per Si atom -5584.332685 kJ/mol
# Density = 2.538551 g / cm^3
# Si number density = 25.443417 Si / 1000 Ang^3
#
#
#
# Elastic Constant Matrix: (Units=GPa)
#
#
# Indices 1 2 3 4 5 6 
#
# 1 164.1406 27.5165 0.8166 0.0000 0.0000 0.0000
# 2 27.5165 62.6723 3.0948 0.0000 0.0000 0.0000
# 3 0.8166 3.0948 94.2328 0.0000 0.0000 0.0000
# 4 0.0000 0.0000 0.0000 13.7982 0.0000 0.0000
# 5 0.0000 0.0000 0.0000 0.0000 45.2024 0.0000
# 6 0.0000 0.0000 0.0000 0.0000 0.0000 29.9093
#
#
#
# Elastic Compliance Matrix: (Units=1/GPa)
#
#
# Indices 1 2 3 4 5 6 
#
# 1 0.006577 -0.002889 0.000038 0.000000 0.000000 0.000000
# 2 -0.002889 0.017251 -0.000542 0.000000 0.000000 0.000000
# 3 0.000038 -0.000542 0.010629 0.000000 0.000000 0.000000
# 4 0.000000 0.000000 0.000000 0.072473 0.000000 0.000000
# 5 0.000000 0.000000 0.000000 0.000000 0.022123 0.000000
# 6 0.000000 0.000000 0.000000 0.000000 0.000000 0.033434
#
#
# Mechanical properties :
#
#
# Convention : Reuss Voigt Hill
#
# Bulk Modulus (GPa) = 36.13836 42.65572 39.39704
# Shear Modulus (GPa) = 28.01164 37.08983 32.55074
#
# Velocity S-wave (km/s) = 3.32164 3.82218 3.58066
# Velocity P-wave (km/s) = 5.38008 6.02329 5.71075
#
# Compressibility (1/GPa) = 0.02767143
#
# Stress axis : x y z
#
# Youngs Moduli (GPa) = 152.05625 57.96654 94.07805
#
# Poissons Ratio (x) = 0.16748 -0.00357
# Poissons Ratio (y) = 0.43934 0.05095
# Poissons Ratio (z) = -0.00576 0.03139
#
# Static dielectric constant tensor:
#      x y z
#    x 2.117700 0.000000 0.000000 
#    y 0.000000 1.940720 0.000000 
#    z 0.000000 0.000000 2.142140 
# 
# From -- ./inp_files/23449.got.cif
#   From: 2010.05.17/outbox.cif.g08.bks.cpg/sg62_12_cif.got.tgz:23449.got - 2010.06.03 15:25:27.
