data_PCOD9467281
_publ_section_title
;
Structure prediction by ZEFSAII (Michael W. Deem and Ramdas Pophale) SiO2 
 PCOD9467281
Probable space group: P N M A
;
_chemical_formula_sum "Si O2"
_cell_formula_units_Z 64
_cell_length_a 13.832162
_cell_length_b 19.384466
_cell_length_c 11.976487
_cell_angle_alpha 90.000000
_cell_angle_beta 90.000000
_cell_angle_gamma 90.000000
_cell_volume 3211.244369
_symmetry_space_group_name_H-M "P N M A"
_symmetry_group_IT_number 62
_symmetry_cell_setting 'orthorhombic'
loop_
_space_group_symop_operation_xyz
x,y,z
1/2-x,-y,1/2+z
1/2+x,1/2-y,1/2-z
-x,1/2+y,-z
-x,-y,-z
1/2+x,y,1/2-z
1/2-x,1/2+y,1/2+z
x,1/2-y,z
loop_
_atom_site_type_symbol
_atom_site_label
_atom_site_fract_x
_atom_site_fract_y
_atom_site_fract_z
Si Si1 0.593833 0.172871 0.128732
Si Si2 0.100950 0.558615 0.882008
Si Si3 0.430903 0.942800 0.057858
Si Si4 0.787689 0.017645 0.902134
Si Si5 0.517689 0.172521 0.520864
Si Si6 0.690400 0.356751 0.367427
Si Si7 0.523622 0.928156 0.291506
Si Si8 0.875833 0.174968 0.284001
O O1 0.615736 0.250000 0.085889
O O2 0.655099 0.161707 0.241959
O O3 0.483887 0.170926 0.172431
O O4 0.598137 0.115137 0.033334
O O5 0.144559 0.605631 0.785096
O O6 0.033417 0.496484 0.838263
O O7 0.178536 0.531635 0.970419
O O8 0.039415 0.616418 0.947216
O O9 0.326851 0.968553 0.105570
O O10 0.495500 0.919472 0.163070
O O11 0.500000 0.000000 0.000000
O O12 0.863010 0.060140 0.823171
O O13 0.809828 0.938510 0.878134
O O14 0.477544 0.250000 0.520921
O O15 0.620326 0.173529 0.460183
O O16 0.515688 0.137833 0.641548
O O17 0.797694 0.328223 0.381129
O O18 0.865460 0.250000 0.225612
#
# Coordination Sequence:
#
# PCOD9467281 Si02
#       8
#     8   8   8   8   8   8   8   8
#     4  11  24  43  63  91 134 174 211 268 331 385
#     4  11  19  39  62  92 126 162 213 266 317 384
#     4  12  26  43  65  97 130 173 221 266 324 396
#     4  11  22  39  66  94 127 168 210 270 323 379
#     4  11  21  37  65  90 122 164 210 270 325 376
#     4  12  20  38  62  94 127 161 215 265 323 386
#     4  11  23  43  62  93 129 167 215 264 318 386
#     4  11  22  35  60  94 126 164 209 264 324 383
#
# _framework density 19.929967999999999
#
# number of rings (size 3 to 8) (size 9 to 14) (size 15 to 20)
#    0.000    0.750    3.750    6.000    0.000    1.500 
#    2.250    2.500    0.000    0.000    0.000    0.000 
#    0.000    0.000    0.000    0.000    0.000    0.000 
#
# Total GULP energy -357247.135839 kJ/mol
# GULP energy per Si atom -5581.986497 kJ/mol
# Density = 1.988461 g / cm^3
# Si number density = 19.929968 Si / 1000 Ang^3
#
#
#
# Elastic Constant Matrix: (Units=GPa)
#
#
# Indices 1 2 3 4 5 6 
#
# 1 99.0279 8.0213 14.5729 0.0000 0.0000 0.0000
# 2 8.0213 109.0444 24.9921 0.0000 0.0000 0.0000
# 3 14.5729 24.9921 66.9608 0.0000 0.0000 0.0000
# 4 0.0000 0.0000 0.0000 14.5276 0.0000 0.0000
# 5 0.0000 0.0000 0.0000 0.0000 16.2163 0.0000
# 6 0.0000 0.0000 0.0000 0.0000 0.0000 58.1919
#
#
#
# Elastic Compliance Matrix: (Units=1/GPa)
#
#
# Indices 1 2 3 4 5 6 
#
# 1 0.010440 -0.000270 -0.002171 0.000000 0.000000 0.000000
# 2 -0.000270 0.010035 -0.003687 0.000000 0.000000 0.000000
# 3 -0.002171 -0.003687 0.016783 0.000000 0.000000 0.000000
# 4 0.000000 0.000000 0.000000 0.068834 0.000000 0.000000
# 5 0.000000 0.000000 0.000000 0.000000 0.061666 0.000000
# 6 0.000000 0.000000 0.000000 0.000000 0.000000 0.017185
#
#
# Mechanical properties :
#
#
# Convention : Reuss Voigt Hill
#
# Bulk Modulus (GPa) = 39.99793 41.13396 40.56595
# Shear Modulus (GPa) = 24.32699 32.95028 28.63864
#
# Velocity S-wave (km/s) = 3.49753 4.07049 3.79484
# Velocity P-wave (km/s) = 6.03516 6.54033 6.29282
#
# Compressibility (1/GPa) = 0.02500129
#
# Stress axis : x y z
#
# Youngs Moduli (GPa) = 95.78950 99.64691 59.58540
#
# Poissons Ratio (x) = 0.02694 0.12937
# Poissons Ratio (y) = 0.02590 0.21968
# Poissons Ratio (z) = 0.20797 0.36737
#
# Static dielectric constant tensor:
#      x y z
#    x 1.723690 0.000000 0.000000 
#    y 0.000000 1.716110 0.000000 
#    z 0.000000 0.000000 1.760990 
# 
# From -- ./inp_files/13591.got.cif
#   From: 2010.05.17/outbox.cif.g08.bks.cpg/sg62_7_cif.got.tgz:13591.got - 2010.06.03 15:25:27.
