data_PCOD9467015
_publ_section_title
;
Structure prediction by ZEFSAII (Michael W. Deem and Ramdas Pophale) SiO2 
 PCOD9467015
Probable space group: P N M A
;
_chemical_formula_sum "Si O2"
_cell_formula_units_Z 48
_cell_length_a 7.309918
_cell_length_b 29.616753
_cell_length_c 9.253080
_cell_angle_alpha 90.000000
_cell_angle_beta 90.000000
_cell_angle_gamma 90.000000
_cell_volume 2003.255139
_symmetry_space_group_name_H-M "P N M A"
_symmetry_group_IT_number 62
_symmetry_cell_setting 'orthorhombic'
loop_
_space_group_symop_operation_xyz
x,y,z
1/2-x,-y,1/2+z
1/2+x,1/2-y,1/2-z
-x,1/2+y,-z
-x,-y,-z
1/2+x,y,1/2-z
1/2-x,1/2+y,1/2+z
x,1/2-y,z
loop_
_atom_site_type_symbol
_atom_site_label
_atom_site_fract_x
_atom_site_fract_y
_atom_site_fract_z
Si Si1 0.053307 0.331948 0.529492
Si Si2 0.876122 0.032816 0.155326
Si Si3 0.445513 0.750000 0.525881
Si Si4 0.859634 0.562981 0.099852
Si Si5 0.465429 0.250000 0.152648
Si Si6 0.009660 0.429440 0.442690
Si Si7 0.858400 0.834597 0.152005
O O1 0.067042 0.293835 0.409353
O O2 0.154311 0.322314 0.679613
O O3 0.098807 0.380416 0.464207
O O4 0.840939 0.334476 0.579376
O O5 0.682188 0.037772 0.074541
O O6 0.897863 0.064571 0.293567
O O7 0.893204 0.980336 0.201360
O O8 0.031518 0.047941 0.043611
O O9 0.551722 0.750000 0.676054
O O10 0.468420 0.704414 0.432379
O O11 0.234459 0.750000 0.580201
O O12 0.924213 0.613101 0.144366
O O13 0.644133 0.565158 0.064429
#
# Coordination Sequence:
#
# PCOD9467015 Si02
#       7
#     8   8   4   8   4   8   8
#     4  10  24  41  66  96 131 169 219 268 329 394
#     4  11  23  40  65  91 135 171 223 274 325 382
#     4  10  23  42  68  94 130 164 213 270 324 397
#     4  10  24  42  62  94 127 178 220 268 326 394
#     4  10  23  42  66 100 126 168 217 266 328 399
#     4  11  23  42  66  95 131 175 222 275 325 396
#     4  10  23  43  63  94 131 168 214 267 326 393
#
# _framework density 23.961003999999999
#
# number of rings (size 3 to 8) (size 9 to 14) (size 15 to 20)
#    0.000    1.667    1.667    1.000    4.667    6.667 
#    0.000    0.000    0.000    0.000    0.000    0.000 
#    0.000    0.000    0.000    0.000    0.000    0.000 
#
# Total GULP energy -268441.461481 kJ/mol
# GULP energy per Si atom -5592.530448 kJ/mol
# Density = 2.390647 g / cm^3
# Si number density = 23.961004 Si / 1000 Ang^3
#
#
#
# Elastic Constant Matrix: (Units=GPa)
#
#
# Indices 1 2 3 4 5 6 
#
# 1 60.5113 41.3413 25.4453 0.0000 0.0000 0.0000
# 2 41.3413 156.7388 61.9307 0.0000 0.0000 0.0000
# 3 25.4453 61.9307 106.1254 0.0000 0.0000 0.0000
# 4 0.0000 0.0000 0.0000 28.9537 0.0000 0.0000
# 5 0.0000 0.0000 0.0000 0.0000 10.5452 0.0000
# 6 0.0000 0.0000 0.0000 0.0000 0.0000 13.4783
#
#
#
# Elastic Compliance Matrix: (Units=1/GPa)
#
#
# Indices 1 2 3 4 5 6 
#
# 1 0.020580 -0.004521 -0.002296 0.000000 0.000000 0.000000
# 2 -0.004521 0.009285 -0.004334 0.000000 0.000000 0.000000
# 3 -0.002296 -0.004334 0.012503 0.000000 0.000000 0.000000
# 4 0.000000 0.000000 0.000000 0.034538 0.000000 0.000000
# 5 0.000000 0.000000 0.000000 0.000000 0.094830 0.000000
# 6 0.000000 0.000000 0.000000 0.000000 0.000000 0.074193
#
#
# Mechanical properties :
#
#
# Convention : Reuss Voigt Hill
#
# Bulk Modulus (GPa) = 49.83839 64.53446 57.18643
# Shear Modulus (GPa) = 18.18706 23.57266 20.87986
#
# Velocity S-wave (km/s) = 2.75803 3.13995 2.95517
# Velocity P-wave (km/s) = 5.56662 6.33540 5.96341
#
# Compressibility (1/GPa) = 0.02006485
#
# Stress axis : x y z
#
# Youngs Moduli (GPa) = 48.59068 107.69932 79.98217
#
# Poissons Ratio (x) = 0.48690 0.18365
# Poissons Ratio (y) = 0.21967 0.34668
# Poissons Ratio (z) = 0.11157 0.46682
#
# Static dielectric constant tensor:
#      x y z
#    x 1.938410 0.000000 0.000000 
#    y 0.000000 1.924510 0.000000 
#    z 0.000000 0.000000 1.870170 
# 
# From -- ./inp_files/4549.got.cif
#   From: 2010.05.17/outbox.cif.g08.bks.cpg/sg62_3_cif.got.tgz:4549.got - 2010.06.03 15:25:27.
