data_PCOD9467550
_publ_section_title
;
Structure prediction by ZEFSAII (Michael W. Deem and Ramdas Pophale) SiO2 
 PCOD9467550
Probable space group: P N M A
;
_chemical_formula_sum "Si O2"
_cell_formula_units_Z 40
_cell_length_a 6.895897
_cell_length_b 16.752919
_cell_length_c 12.998225
_cell_angle_alpha 90.000000
_cell_angle_beta 90.000000
_cell_angle_gamma 90.000000
_cell_volume 1501.638191
_symmetry_space_group_name_H-M "P N M A"
_symmetry_group_IT_number 62
_symmetry_cell_setting 'orthorhombic'
loop_
_space_group_symop_operation_xyz
x,y,z
1/2-x,-y,1/2+z
1/2+x,1/2-y,1/2-z
-x,1/2+y,-z
-x,-y,-z
1/2+x,y,1/2-z
1/2-x,1/2+y,1/2+z
x,1/2-y,z
loop_
_atom_site_type_symbol
_atom_site_label
_atom_site_fract_x
_atom_site_fract_y
_atom_site_fract_z
Si Si1 0.958674 0.659883 0.546951
Si Si2 0.470202 0.338154 0.381658
Si Si3 0.748596 0.532736 0.860737
Si Si4 0.035557 0.391977 0.892806
Si Si5 0.526282 0.608069 0.172236
O O1 0.028149 0.750000 0.569947
O O2 0.105167 0.589905 0.575986
O O3 0.929922 0.654145 0.423138
O O4 0.757938 0.646410 0.606712
O O5 0.500975 0.250000 0.339616
O O6 0.396262 0.468342 0.588955
O O7 0.533282 0.342536 0.502152
O O8 0.596598 0.472499 0.808599
O O9 0.903545 0.597715 0.820048
O O10 0.259190 0.411116 0.868038
O O11 0.963524 0.352808 0.785109
#
# Coordination Sequence:
#
# PCOD9467550 Si02
#       5
#     8   8   8   8   8
#     4  11  24  41  65  96 129 165 206 255 315 376
#     4  11  24  41  65  96 129 165 206 255 315 376
#     4  12  23  40  65  94 128 166 210 266 293 382
#     4  12  24  40  64  97 128 165 209 256 318 372
#     4  12  24  40  64  97 128 165 209 256 318 372
#
# _framework density 26.637574999999998
#
# number of rings (size 3 to 8) (size 9 to 14) (size 15 to 20)
#    0.000    0.400    6.000    3.000    0.000    0.800 
#    0.000    0.000    0.000    4.800    0.000    0.000 
#    0.000    0.000    0.000    0.000    0.000    0.000 
#
# Total GULP energy -223531.646780 kJ/mol
# GULP energy per Si atom -5588.291169 kJ/mol
# Density = 2.657695 g / cm^3
# Si number density = 26.637575 Si / 1000 Ang^3
#
#
#
# Elastic Constant Matrix: (Units=GPa)
#
#
# Indices 1 2 3 4 5 6 
#
# 1 134.3843 32.3763 15.6193 0.0000 0.0000 0.0000
# 2 32.3763 105.5698 21.0000 0.0000 0.0000 0.0000
# 3 15.6193 21.0000 109.1595 0.0000 0.0000 0.0000
# 4 0.0000 0.0000 0.0000 1347.3154 0.0000 0.0000
# 5 0.0000 0.0000 0.0000 0.0000 12.9358 0.0000
# 6 0.0000 0.0000 0.0000 0.0000 0.0000 23.4714
#
#
#
# Elastic Compliance Matrix: (Units=1/GPa)
#
#
# Indices 1 2 3 4 5 6 
#
# 1 0.008087 -0.002340 -0.000707 0.000000 0.000000 0.000000
# 2 -0.002340 0.010526 -0.001690 0.000000 0.000000 0.000000
# 3 -0.000707 -0.001690 0.009587 0.000000 0.000000 0.000000
# 4 0.000000 0.000000 0.000000 0.000742 0.000000 0.000000
# 5 0.000000 0.000000 0.000000 0.000000 0.077305 0.000000
# 6 0.000000 0.000000 0.000000 0.000000 0.000000 0.042605
#
#
# Mechanical properties :
#
#
# Convention : Reuss Voigt Hill
#
# Bulk Modulus (GPa) = 53.39939 54.12275 53.76107
# Shear Modulus (GPa) = 30.38248 295.41906 162.90077
#
# Velocity S-wave (km/s) = 3.38092 10.54248 7.82862
# Velocity P-wave (km/s) = 5.94399 12.98284 10.09666
#
# Compressibility (1/GPa) = 0.01872681
#
# Stress axis : x y z
#
# Youngs Moduli (GPa) = 123.65252 95.00177 104.30514
#
# Poissons Ratio (x) = 0.22226 0.07375
# Poissons Ratio (y) = 0.28929 0.17630
# Poissons Ratio (z) = 0.08743 0.16058
#
# Static dielectric constant tensor:
#      x y z
#    x 2.108010 0.000000 0.000000 
#    y 0.000000 2.017540 0.000000 
#    z 0.000000 0.000000 2.111990 
# 
# From -- ./inp_files/22078.got.cif
#   From: 2010.05.17/outbox.cif.g08.bks.cpg/sg62_12_cif.got.tgz:22078.got - 2010.06.03 15:25:27.
