data_PCOD9467984
_publ_section_title
;
Structure prediction by ZEFSAII (Michael W. Deem and Ramdas Pophale) SiO2 
 PCOD9467984
Probable space group: P N M A
;
_chemical_formula_sum "Si O2"
_cell_formula_units_Z 64
_cell_length_a 15.000000
_cell_length_b 9.000000
_cell_length_c 24.000000
_cell_angle_alpha 90.000000
_cell_angle_beta 90.000000
_cell_angle_gamma 90.000000
_cell_volume 3240.000000
_symmetry_space_group_name_H-M "P N M A"
_symmetry_group_IT_number 62
_symmetry_cell_setting 'orthorhombic'
loop_
_space_group_symop_operation_xyz
x,y,z
1/2-x,-y,1/2+z
1/2+x,1/2-y,1/2-z
-x,1/2+y,-z
-x,-y,-z
1/2+x,y,1/2-z
1/2-x,1/2+y,1/2+z
x,1/2-y,z
loop_
_atom_site_type_symbol
_atom_site_label
_atom_site_fract_x
_atom_site_fract_y
_atom_site_fract_z
Si Si1 0.354317 0.426189 0.756855
Si Si2 0.077419 0.429597 0.605301
Si Si3 0.944879 0.573657 0.210169
Si Si4 0.370417 0.072732 0.522729
Si Si5 0.326428 0.570211 0.995225
Si Si6 0.021616 0.573911 0.908089
Si Si7 0.310611 0.071575 0.201423
Si Si8 0.886856 0.570345 0.627228
O O1 0.334511 0.250000 0.757348
O O2 0.456242 0.444721 0.736455
O O3 0.287349 0.512905 0.716565
O O4 0.344208 0.495507 0.818501
O O5 0.070225 0.250000 0.610713
O O6 0.099907 0.468889 0.541230
O O7 0.153969 0.491471 0.645748
O O8 0.987466 0.510069 0.623977
O O9 0.923963 0.750000 0.210652
O O10 0.875364 0.485117 0.248698
O O11 0.947624 0.510958 0.147319
O O12 0.373602 0.250000 0.534427
O O13 0.269007 0.020800 0.518289
O O14 0.413455 0.050767 0.461342
O O15 0.427789 0.988468 0.569013
O O16 0.323653 0.750000 0.993626
O O17 0.343584 0.523599 0.931827
O O18 0.017137 0.750000 0.896957
O O19 0.313944 0.250000 0.196736
O O20 0.884424 0.750000 0.631973
#
# Coordination Sequence:
#
# PCOD9467984 Si02
#       8
#     8   8   8   8   8   8   8   8
#     4  11  25  44  66  93 127 170 212 258 317 382
#     4  11  22  41  64  89 125 166 207 254 313 378
#     4  11  24  43  67  93 127 168 212 256 314 384
#     4   9  19  39  60  85 121 163 204 252 308 368
#     4   9  21  38  62  90 119 161 209 254 308 369
#     4  10  21  36  60  90 124 160 204 255 309 364
#     4  12  26  43  66  95 129 165 209 266 318 376
#     4  11  22  40  65  93 124 162 209 261 313 366
#
# _framework density 19.753086
#
# number of rings (size 3 to 8) (size 9 to 14) (size 15 to 20)
#    0.000    1.500    1.250    3.375    3.500    2.000 
#    0.000    3.750    0.000    0.000    0.000    0.000 
#    0.000    0.000    0.000    0.000    0.000    0.000 
#
# Total GULP energy -357822.117206 kJ/mol
# GULP energy per Si atom -5590.970581 kJ/mol
# Density = 1.970813 g / cm^3
# Si number density = 19.753086 Si / 1000 Ang^3
#
#
#
# Elastic Constant Matrix: (Units=GPa)
#
#
# Indices 1 2 3 4 5 6 
#
# 1 39.3805 2.3469 -24.6983 0.0000 0.0000 0.0000
# 2 2.3469 84.8067 9.6514 0.0000 0.0000 0.0000
# 3 -24.6983 9.6514 46.7429 0.0000 0.0000 0.0000
# 4 0.0000 0.0000 0.0000 34.8561 0.0000 0.0000
# 5 0.0000 0.0000 0.0000 0.0000 11.3062 0.0000
# 6 0.0000 0.0000 0.0000 0.0000 0.0000 29.7123
#
#
#
# Elastic Compliance Matrix: (Units=1/GPa)
#
#
# Indices 1 2 3 4 5 6 
#
# 1 0.038970 -0.003504 0.021315 0.000000 0.000000 0.000000
# 2 -0.003504 0.012390 -0.004410 0.000000 0.000000 0.000000
# 3 0.021315 -0.004410 0.033567 0.000000 0.000000 0.000000
# 4 0.000000 0.000000 0.000000 0.028689 0.000000 0.000000
# 5 0.000000 0.000000 0.000000 0.000000 0.088447 0.000000
# 6 0.000000 0.000000 0.000000 0.000000 0.000000 0.033656
#
#
# Mechanical properties :
#
#
# Convention : Reuss Voigt Hill
#
# Bulk Modulus (GPa) = 8.95024 16.17000 12.56012
# Shear Modulus (GPa) = 20.31193 27.41694 23.86444
#
# Velocity S-wave (km/s) = 3.21018 3.72961 3.47960
# Velocity P-wave (km/s) = 4.27565 5.17208 4.74508
#
# Compressibility (1/GPa) = 0.11172887
#
# Stress axis : x y z
#
# Youngs Moduli (GPa) = 25.66061 80.70796 29.79149
#
# Poissons Ratio (x) = 0.28281 -0.63500
# Poissons Ratio (y) = 0.08992 0.13138
# Poissons Ratio (z) = -0.54695 0.35591
#
# Static dielectric constant tensor:
#      x y z
#    x 1.712170 0.000000 0.000000 
#    y 0.000000 1.654580 0.000000 
#    z 0.000000 0.000000 1.684420 
# 
# From -- ./inp_files/29906.got.cif
#   From: 2010.05.17/outbox.ucp.g08.bks.cvg/sg62_15_cif.got.tgz:29906.got - 2010.06.11 16:29:25.
