data_PCOD9467078
_publ_section_title
;
Structure prediction by ZEFSAII (Michael W. Deem and Ramdas Pophale) SiO2 
 PCOD9467078
Probable space group: P N M A
;
_chemical_formula_sum "Si O2"
_cell_formula_units_Z 56
_cell_length_a 22.399789
_cell_length_b 21.702271
_cell_length_c 4.972106
_cell_angle_alpha 90.000000
_cell_angle_beta 90.000000
_cell_angle_gamma 90.000000
_cell_volume 2417.071449
_symmetry_space_group_name_H-M "P N M A"
_symmetry_group_IT_number 62
_symmetry_cell_setting 'orthorhombic'
loop_
_space_group_symop_operation_xyz
x,y,z
1/2-x,-y,1/2+z
1/2+x,1/2-y,1/2-z
-x,1/2+y,-z
-x,-y,-z
1/2+x,y,1/2-z
1/2-x,1/2+y,1/2+z
x,1/2-y,z
loop_
_atom_site_type_symbol
_atom_site_label
_atom_site_fract_x
_atom_site_fract_y
_atom_site_fract_z
Si Si1 0.442866 0.250000 0.600364
Si Si2 0.476576 0.750000 0.902767
Si Si3 0.687889 0.322790 0.640654
Si Si4 0.174857 0.966646 0.119155
Si Si5 0.384419 0.856845 0.867038
Si Si6 0.511092 0.072045 0.993901
Si Si7 0.757863 0.077828 0.383649
Si Si8 0.439107 0.387462 0.499387
O O1 0.466759 0.250000 0.903432
O O2 0.414506 0.317614 0.543789
O O3 0.500144 0.250000 0.401376
O O4 0.434179 0.807542 0.955866
O O5 0.694619 0.250000 0.663857
O O6 0.670543 0.350078 0.929809
O O7 0.743990 0.355452 0.501214
O O8 0.634995 0.338714 0.430790
O O9 0.192104 0.951717 0.424771
O O10 0.109909 0.940394 0.053693
O O11 0.197159 0.037062 0.077960
O O12 0.218557 0.929115 0.916665
O O13 0.420675 0.918868 0.912564
O O14 0.466558 0.104715 0.204875
O O15 0.493472 0.099568 0.705127
O O16 0.500000 0.000000 0.000000
#
# Coordination Sequence:
#
# PCOD9467078 Si02
#       8
#     4   4   8   8   8   8   8   8
#     4  12  22  40  62  89 124 175 206 254 304 372
#     4  12  20  40  60  83 132 171 210 238 286 386
#     4  12  24  39  64  96 124 163 205 255 319 371
#     4  10  23  44  67  88 116 162 210 256 313 368
#     4  12  23  38  61  89 127 168 202 242 306 373
#     4  12  27  40  62  98 133 166 209 261 303 365
#     4  10  23  44  65  89 118 158 209 261 313 365
#     4  12  24  43  65  94 127 166 214 256 315 376
#
# _framework density 23.168531999999999
#
# number of rings (size 3 to 8) (size 9 to 14) (size 15 to 20)
#    0.000    0.571    4.286    3.857    4.000    0.000 
#    2.571    0.000    0.000    0.000    0.000    0.000 
#    0.000    0.000    0.000    0.000    0.000    0.000 
#
# Total GULP energy -313267.061090 kJ/mol
# GULP energy per Si atom -5594.054662 kJ/mol
# Density = 2.311580 g / cm^3
# Si number density = 23.168532 Si / 1000 Ang^3
#
#
#
# Elastic Constant Matrix: (Units=GPa)
#
#
# Indices 1 2 3 4 5 6 
#
# 1 36.9537 -7.2301 -3.8864 0.0000 0.0000 0.0000
# 2 -7.2301 81.9826 -3.8116 0.0000 0.0000 0.0000
# 3 -3.8864 -3.8116 70.8995 0.0000 0.0000 0.0000
# 4 0.0000 0.0000 0.0000 22.7927 0.0000 0.0000
# 5 0.0000 0.0000 0.0000 0.0000 24.7681 0.0000
# 6 0.0000 0.0000 0.0000 0.0000 0.0000 32.9092
#
#
#
# Elastic Compliance Matrix: (Units=1/GPa)
#
#
# Indices 1 2 3 4 5 6 
#
# 1 0.027729 0.002522 0.001656 0.000000 0.000000 0.000000
# 2 0.002522 0.012458 0.000808 0.000000 0.000000 0.000000
# 3 0.001656 0.000808 0.014239 0.000000 0.000000 0.000000
# 4 0.000000 0.000000 0.000000 0.043874 0.000000 0.000000
# 5 0.000000 0.000000 0.000000 0.000000 0.040375 0.000000
# 6 0.000000 0.000000 0.000000 0.000000 0.000000 0.030387
#
#
# Mechanical properties :
#
#
# Convention : Reuss Voigt Hill
#
# Bulk Modulus (GPa) = 15.52872 17.77550 16.65211
# Shear Modulus (GPa) = 27.69262 29.74493 28.71877
#
# Velocity S-wave (km/s) = 3.46102 3.58697 3.52456
# Velocity P-wave (km/s) = 4.76325 4.98438 4.87507
#
# Compressibility (1/GPa) = 0.06439681
#
# Stress axis : x y z
#
# Youngs Moduli (GPa) = 36.06394 80.27141 70.23137
#
# Poissons Ratio (x) = -0.20248 -0.11627
# Poissons Ratio (y) = -0.09097 -0.05675
# Poissons Ratio (z) = -0.05971 -0.06486
#
# Static dielectric constant tensor:
#      x y z
#    x 1.882640 0.000000 0.000000 
#    y 0.000000 1.959370 0.000000 
#    z 0.000000 0.000000 1.797160 
# 
# From -- ./inp_files/2839.got.cif
#   From: 2010.05.17/outbox.cif.g08.bks.cpg/sg62_2_cif.got.tgz:2839.got - 2010.06.03 15:25:27.
