data_PCOD9467125
_publ_section_title
;
Structure prediction by ZEFSAII (Michael W. Deem and Ramdas Pophale) SiO2 
 PCOD9467125
Probable space group: P N M A
;
_chemical_formula_sum "Si O2"
_cell_formula_units_Z 28
_cell_length_a 7.367744
_cell_length_b 7.469948
_cell_length_c 19.310560
_cell_angle_alpha 90.000000
_cell_angle_beta 90.000000
_cell_angle_gamma 90.000000
_cell_volume 1062.788813
_symmetry_space_group_name_H-M "P N M A"
_symmetry_group_IT_number 62
_symmetry_cell_setting 'orthorhombic'
loop_
_space_group_symop_operation_xyz
x,y,z
1/2-x,-y,1/2+z
1/2+x,1/2-y,1/2-z
-x,1/2+y,-z
-x,-y,-z
1/2+x,y,1/2-z
1/2-x,1/2+y,1/2+z
x,1/2-y,z
loop_
_atom_site_type_symbol
_atom_site_label
_atom_site_fract_x
_atom_site_fract_y
_atom_site_fract_z
Si Si1 0.218040 0.953641 0.305322
Si Si2 0.861494 0.043046 0.846140
Si Si3 0.328386 0.549587 0.951825
Si Si4 0.157455 0.250000 0.032290
O O1 0.148630 0.750000 0.299847
O O2 0.424941 0.955308 0.329476
O O3 0.217829 0.023911 0.227420
O O4 0.117287 0.039999 0.371010
O O5 0.801784 0.250000 0.859993
O O6 0.830540 0.907549 0.908149
O O7 0.258319 0.750000 0.965411
O O8 0.500000 0.500000 0.000000
O O9 0.181007 0.404554 0.971855
#
# Coordination Sequence:
#
# PCOD9467125 Si02
#       4
#     8   8   8   4
#     4  10  23  48  73 109 144 188 244 296 361 427
#     4  10  25  45  74 105 143 190 238 303 351 429
#     4  12  26  46  73 105 147 192 239 301 364 436
#     4  12  26  46  70 106 142 192 238 296 358 424
#
# _framework density 26.345780000000001
#
# number of rings (size 3 to 8) (size 9 to 14) (size 15 to 20)
#    0.000    1.143    2.857    0.857    8.000    1.143 
#    0.000    0.000    0.000    0.000    0.000    0.000 
#    0.000    0.000    0.000    0.000    0.000    0.000 
#
# Total GULP energy -155907.595206 kJ/mol
# GULP energy per Si atom -5568.128400 kJ/mol
# Density = 2.628582 g / cm^3
# Si number density = 26.345780 Si / 1000 Ang^3
#
#
#
# Elastic Constant Matrix: (Units=GPa)
#
#
# Indices 1 2 3 4 5 6 
#
# 1 34.5501 3.2148 17.1706 0.0000 0.0000 0.0000
# 2 3.2148 218.2573 72.4045 0.0000 0.0000 0.0000
# 3 17.1706 72.4045 257.1482 0.0000 0.0000 0.0000
# 4 0.0000 0.0000 0.0000 50.6753 0.0000 0.0000
# 5 0.0000 0.0000 0.0000 0.0000 37.7825 0.0000
# 6 0.0000 0.0000 0.0000 0.0000 0.0000 104.9458
#
#
#
# Elastic Compliance Matrix: (Units=1/GPa)
#
#
# Indices 1 2 3 4 5 6 
#
# 1 0.029949 0.000245 -0.002069 0.000000 0.000000 0.000000
# 2 0.000245 0.005056 -0.001440 0.000000 0.000000 0.000000
# 3 -0.002069 -0.001440 0.004432 0.000000 0.000000 0.000000
# 4 0.000000 0.000000 0.000000 0.019733 0.000000 0.000000
# 5 0.000000 0.000000 0.000000 0.000000 0.026467 0.000000
# 6 0.000000 0.000000 0.000000 0.000000 0.000000 0.009529
#
#
# Mechanical properties :
#
#
# Convention : Reuss Voigt Hill
#
# Bulk Modulus (GPa) = 30.38599 77.28172 53.83386
# Shear Modulus (GPa) = 44.37991 66.49177 55.43584
#
# Velocity S-wave (km/s) = 4.10874 5.02920 4.59209
# Velocity P-wave (km/s) = 5.83674 7.94488 6.97097
#
# Compressibility (1/GPa) = 0.03290990
#
# Stress axis : x y z
#
# Youngs Moduli (GPa) = 33.39029 197.79206 225.61221
#
# Poissons Ratio (x) = -0.04849 0.46675
# Poissons Ratio (y) = -0.00819 0.32486
# Poissons Ratio (z) = 0.06908 0.28481
#
# Static dielectric constant tensor:
#      x y z
#    x 5.979120 0.000000 0.000000 
#    y 0.000000 2.006030 0.000000 
#    z 0.000000 0.000000 2.578150 
# 
# From -- ./inp_files/21767.got.cif
#   From: 2010.05.17/outbox.cif.g08.bks.cpg/sg62_11_cif.got.tgz:21767.got - 2010.06.03 15:25:27.
