data_PCOD9467364
_publ_section_title
;
Structure prediction by ZEFSAII (Michael W. Deem and Ramdas Pophale) SiO2 
 PCOD9467364
Probable space group: P N M A
;
_chemical_formula_sum "Si O2"
_cell_formula_units_Z 48
_cell_length_a 8.486206
_cell_length_b 18.098811
_cell_length_c 13.630077
_cell_angle_alpha 90.000000
_cell_angle_beta 90.000000
_cell_angle_gamma 90.000000
_cell_volume 2093.446777
_symmetry_space_group_name_H-M "P N M A"
_symmetry_group_IT_number 62
_symmetry_cell_setting 'orthorhombic'
loop_
_space_group_symop_operation_xyz
x,y,z
1/2-x,-y,1/2+z
1/2+x,1/2-y,1/2-z
-x,1/2+y,-z
-x,-y,-z
1/2+x,y,1/2-z
1/2-x,1/2+y,1/2+z
x,1/2-y,z
loop_
_atom_site_type_symbol
_atom_site_label
_atom_site_fract_x
_atom_site_fract_y
_atom_site_fract_z
Si Si1 0.686999 0.667793 0.643196
Si Si2 0.409500 0.075647 0.859488
Si Si3 0.586967 0.420304 0.254938
Si Si4 0.414536 0.387600 0.553409
Si Si5 0.886784 0.836353 0.229684
Si Si6 0.270855 0.954061 0.547817
O O1 0.654190 0.750000 0.680124
O O2 0.856820 0.639721 0.676578
O O3 0.566563 0.607580 0.687949
O O4 0.661050 0.664908 0.527287
O O5 0.553811 0.128654 0.831350
O O6 0.255775 0.116552 0.815185
O O7 0.429620 0.998684 0.799806
O O8 0.372886 0.061635 0.974166
O O9 0.718845 0.423630 0.341965
O O10 0.468011 0.349177 0.653289
O O11 0.577873 0.419402 0.507588
O O12 0.304785 0.459348 0.560878
O O13 0.849869 0.750000 0.235771
#
# Coordination Sequence:
#
# PCOD9467364 Si02
#       6
#     8   8   8   8   8   8
#     4  11  22  37  58  87 117 150 190 239 294 338
#     4  11  21  38  61  84 114 153 193 240 280 344
#     4  11  21  38  61  84 114 153 193 240 280 344
#     4   9  17  34  59  83 110 144 193 241 273 334
#     4  11  22  37  58  87 117 150 190 239 294 338
#     4   9  18  34  58  86 109 145 197 231 280 336
#
# _framework density 22.928694
#
# number of rings (size 3 to 8) (size 9 to 14) (size 15 to 20)
#    0.000    1.667    3.333    2.500    0.000    0.000 
#    0.000    7.500    0.000    0.000    0.000    0.000 
#    0.000    0.000    0.000    0.000    0.000    0.000 
#
# Total GULP energy -268333.685057 kJ/mol
# GULP energy per Si atom -5590.285105 kJ/mol
# Density = 2.287651 g / cm^3
# Si number density = 22.928694 Si / 1000 Ang^3
#
#
#
# Elastic Constant Matrix: (Units=GPa)
#
#
# Indices 1 2 3 4 5 6 
#
# 1 17.0219 -10.3189 8.8665 0.0000 0.0000 0.0000
# 2 -10.3189 92.2716 15.6883 0.0000 0.0000 0.0000
# 3 8.8665 15.6883 65.8907 0.0000 0.0000 0.0000
# 4 0.0000 0.0000 0.0000 13.0987 0.0000 0.0000
# 5 0.0000 0.0000 0.0000 0.0000 44.4844 0.0000
# 6 0.0000 0.0000 0.0000 0.0000 0.0000 12.3893
#
#
#
# Elastic Compliance Matrix: (Units=1/GPa)
#
#
# Indices 1 2 3 4 5 6 
#
# 1 0.071004 0.009969 -0.011928 0.000000 0.000000 0.000000
# 2 0.009969 0.012694 -0.004364 0.000000 0.000000 0.000000
# 3 -0.011928 -0.004364 0.017821 0.000000 0.000000 0.000000
# 4 0.000000 0.000000 0.000000 0.076343 0.000000 0.000000
# 5 0.000000 0.000000 0.000000 0.000000 0.022480 0.000000
# 6 0.000000 0.000000 0.000000 0.000000 0.000000 0.080715
#
#
# Mechanical properties :
#
#
# Convention : Reuss Voigt Hill
#
# Bulk Modulus (GPa) = 11.25209 22.62844 16.94027
# Shear Modulus (GPa) = 15.46417 24.72436 20.09427
#
# Velocity S-wave (km/s) = 2.59983 3.28733 2.96358
# Velocity P-wave (km/s) = 3.73232 4.92942 4.37204
#
# Compressibility (1/GPa) = 0.08887235
#
# Stress axis : x y z
#
# Youngs Moduli (GPa) = 14.08372 78.77532 56.11441
#
# Poissons Ratio (x) = -0.78528 0.66933
# Poissons Ratio (y) = -0.14039 0.24488
# Poissons Ratio (z) = 0.16799 0.34376
#
# Static dielectric constant tensor:
#      x y z
#    x 1.899880 0.000000 0.000000 
#    y 0.000000 1.808770 0.000000 
#    z 0.000000 0.000000 1.874330 
# 
# From -- ./inp_files/16971.got.cif
#   From: 2010.05.17/outbox.cif.g08.bks.cpg/sg62_9_cif.got.tgz:16971.got - 2010.06.03 15:25:27.
