data_PCOD9467930
_publ_section_title
;
Structure prediction by ZEFSAII (Michael W. Deem and Ramdas Pophale) SiO2 
 PCOD9467930
Probable space group: P N M A
;
_chemical_formula_sum "Si O2"
_cell_formula_units_Z 56
_cell_length_a 21.000000
_cell_length_b 9.000000
_cell_length_c 15.000000
_cell_angle_alpha 90.000000
_cell_angle_beta 90.000000
_cell_angle_gamma 90.000000
_cell_volume 2835.000000
_symmetry_space_group_name_H-M "P N M A"
_symmetry_group_IT_number 62
_symmetry_cell_setting 'orthorhombic'
loop_
_space_group_symop_operation_xyz
x,y,z
1/2-x,-y,1/2+z
1/2+x,1/2-y,1/2-z
-x,1/2+y,-z
-x,-y,-z
1/2+x,y,1/2-z
1/2-x,1/2+y,1/2+z
x,1/2-y,z
loop_
_atom_site_type_symbol
_atom_site_label
_atom_site_fract_x
_atom_site_fract_y
_atom_site_fract_z
Si Si1 0.908274 0.572462 0.088533
Si Si2 0.728957 0.570600 0.892329
Si Si3 0.972007 0.928457 0.587842
Si Si4 0.793171 0.428248 0.191063
Si Si5 0.825570 0.927272 0.570364
Si Si6 0.625133 0.430098 0.392481
Si Si7 0.009241 0.070567 0.218888
O O1 0.913380 0.750000 0.091913
O O2 0.842433 0.518227 0.131576
O O3 0.962459 0.497956 0.147157
O O4 0.907721 0.525162 0.985264
O O5 0.728138 0.750000 0.899147
O O6 0.700979 0.532617 0.795243
O O7 0.802413 0.518123 0.891205
O O8 0.695060 0.504586 0.978572
O O9 0.977500 0.750000 0.582030
O O10 0.897543 0.966666 0.593963
O O11 0.004739 0.976389 0.680157
O O12 0.000000 0.000000 0.500000
O O13 0.804467 0.250000 0.182911
O O14 0.723467 0.459411 0.150400
O O15 0.823045 0.750000 0.556216
O O16 0.628159 0.250000 0.391900
O O17 0.580612 0.472631 0.310497
O O18 0.004775 0.250000 0.215238
#
# Coordination Sequence:
#
# PCOD9467930 Si02
#       7
#     8   8   8   8   8   8   8
#     4  11  22  36  57  87 120 149 186 241 295 337
#     4  10  20  36  60  86 113 150 192 232 281 343
#     4  10  23  41  61  84 114 153 197 241 286 338
#     4  10  21  37  59  85 116 154 195 233 281 348
#     4  10  21  39  60  86 116 150 190 239 288 335
#     4   9  18  36  60  86 114 149 190 234 284 341
#     4  10  21  39  61  82 111 155 199 235 281 345
#
# _framework density 19.753086
#
# number of rings (size 3 to 8) (size 9 to 14) (size 15 to 20)
#    0.000    2.000    1.429    1.714    2.000    5.143 
#    0.000    1.429    0.000    3.429    0.000    0.000 
#    0.000    0.000    0.000    0.000    0.000    0.000 
#
# Total GULP energy -312638.199190 kJ/mol
# GULP energy per Si atom -5582.824986 kJ/mol
# Density = 1.970813 g / cm^3
# Si number density = 19.753086 Si / 1000 Ang^3
#
#
#
# Elastic Constant Matrix: (Units=GPa)
#
#
# Indices 1 2 3 4 5 6 
#
# 1 41.6938 10.9372 6.4827 0.0000 0.0000 0.0000
# 2 10.9372 7.8255 20.5956 0.0000 0.0000 0.0000
# 3 6.4827 20.5956 109.2925 0.0000 0.0000 0.0000
# 4 0.0000 0.0000 0.0000 24.7534 0.0000 0.0000
# 5 0.0000 0.0000 0.0000 0.0000 19.2014 0.0000
# 6 0.0000 0.0000 0.0000 0.0000 0.0000 26.8276
#
#
#
# Elastic Compliance Matrix: (Units=1/GPa)
#
#
# Indices 1 2 3 4 5 6 
#
# 1 0.057544 -0.141740 0.023297 0.000000 0.000000 0.000000
# 2 -0.141740 0.602660 -0.105161 0.000000 0.000000 0.000000
# 3 0.023297 -0.105161 0.027585 0.000000 0.000000 0.000000
# 4 0.000000 0.000000 0.000000 0.040399 0.000000 0.000000
# 5 0.000000 0.000000 0.000000 0.000000 0.052080 0.000000
# 6 0.000000 0.000000 0.000000 0.000000 0.000000 0.037275
#
#
# Mechanical properties :
#
#
# Convention : Reuss Voigt Hill
#
# Bulk Modulus (GPa) = 4.15661 26.09366 15.12513
# Shear Modulus (GPa) = 3.71763 22.20955 12.96359
#
# Velocity S-wave (km/s) = 1.37337 3.35678 2.56458
# Velocity P-wave (km/s) = 2.15028 5.31626 4.05501
#
# Compressibility (1/GPa) = 0.24058045
#
# Stress axis : x y z
#
# Youngs Moduli (GPa) = 17.37815 1.65931 36.25163
#
# Poissons Ratio (x) = 0.23519 -0.84455
# Poissons Ratio (y) = 2.46318 3.81226
# Poissons Ratio (z) = -0.40486 0.17449
#
# Static dielectric constant tensor:
#      x y z
#    x 1.720490 0.000000 0.000000 
#    y 0.000000 1.660240 0.000000 
#    z 0.000000 0.000000 1.673490 
# 
# From -- ./inp_files/20207.got.cif
#   From: 2010.05.17/outbox.ucp.g08.bks.cvg/sg62_11_cif.got.tgz:20207.got - 2010.06.11 16:29:25.
