data_PCOD9467291
_publ_section_title
;
Structure prediction by ZEFSAII (Michael W. Deem and Ramdas Pophale) SiO2 
 PCOD9467291
Probable space group: P N M A
;
_chemical_formula_sum "Si O2"
_cell_formula_units_Z 32
_cell_length_a 4.953317
_cell_length_b 10.835975
_cell_length_c 30.362147
_cell_angle_alpha 90.000000
_cell_angle_beta 90.000000
_cell_angle_gamma 90.000000
_cell_volume 1629.658460
_symmetry_space_group_name_H-M "P N M A"
_symmetry_group_IT_number 62
_symmetry_cell_setting 'orthorhombic'
loop_
_space_group_symop_operation_xyz
x,y,z
1/2-x,-y,1/2+z
1/2+x,1/2-y,1/2-z
-x,1/2+y,-z
-x,-y,-z
1/2+x,y,1/2-z
1/2-x,1/2+y,1/2+z
x,1/2-y,z
loop_
_atom_site_type_symbol
_atom_site_label
_atom_site_fract_x
_atom_site_fract_y
_atom_site_fract_z
Si Si1 0.176605 0.899885 0.723509
Si Si2 0.799907 0.884090 0.493812
Si Si3 0.044430 0.464183 0.074874
Si Si4 0.556293 0.106038 0.129911
O O1 0.975288 0.937681 0.762742
O O2 0.179209 0.750000 0.721672
O O3 0.059533 0.938824 0.676603
O O4 0.933315 0.750000 0.493509
O O5 0.591237 0.890627 0.534373
O O6 0.641414 0.910312 0.448480
O O7 0.000000 0.000000 0.500000
O O8 0.810567 0.468570 0.111338
O O9 0.308537 0.402747 0.095803
O O10 0.641525 0.250000 0.134128
#
# Coordination Sequence:
#
# PCOD9467291 Si02
#       4
#     8   8   8   8
#     4   9  17  29  46  73 109 150 185 224 282 346
#     4  11  24  41  61  84 118 158 199 248 294 344
#     4  11  23  37  54  84 110 154 196 236 285 344
#     4  11  20  33  54  80 115 153 193 235 285 350
#
# _framework density 19.636016999999999
#
# number of rings (size 3 to 8) (size 9 to 14) (size 15 to 20)
#    0.000    1.500    2.500    3.750    0.000    9.000 
#    0.000    0.000    0.000    0.000    0.000    0.000 
#    0.000   20.000    0.000    0.000    0.000    0.000 
#
# Total GULP energy -178598.289475 kJ/mol
# GULP energy per Si atom -5581.196546 kJ/mol
# Density = 1.959132 g / cm^3
# Si number density = 19.636017 Si / 1000 Ang^3
#
#
#
# Elastic Constant Matrix: (Units=GPa)
#
#
# Indices 1 2 3 4 5 6 
#
# 1 80.9322 20.6364 -3.5735 0.0000 0.0000 0.0000
# 2 20.6364 79.3614 14.1612 0.0000 0.0000 0.0000
# 3 -3.5735 14.1612 62.1067 0.0000 0.0000 0.0000
# 4 0.0000 0.0000 0.0000 23.1168 0.0000 0.0000
# 5 0.0000 0.0000 0.0000 0.0000 32.8339 0.0000
# 6 0.0000 0.0000 0.0000 0.0000 0.0000 13.1426
#
#
#
# Elastic Compliance Matrix: (Units=1/GPa)
#
#
# Indices 1 2 3 4 5 6 
#
# 1 0.013390 -0.003773 0.001631 0.000000 0.000000 0.000000
# 2 -0.003773 0.014198 -0.003454 0.000000 0.000000 0.000000
# 3 0.001631 -0.003454 0.016983 0.000000 0.000000 0.000000
# 4 0.000000 0.000000 0.000000 0.043259 0.000000 0.000000
# 5 0.000000 0.000000 0.000000 0.000000 0.030456 0.000000
# 6 0.000000 0.000000 0.000000 0.000000 0.000000 0.076088
#
#
# Mechanical properties :
#
#
# Convention : Reuss Voigt Hill
#
# Bulk Modulus (GPa) = 29.96006 31.64984 30.80495
# Shear Modulus (GPa) = 23.07413 26.56375 24.81894
#
# Velocity S-wave (km/s) = 3.43168 3.68204 3.55906
# Velocity P-wave (km/s) = 5.56711 5.85063 5.71063
#
# Compressibility (1/GPa) = 0.03337777
#
# Stress axis : x y z
#
# Youngs Moduli (GPa) = 74.68250 70.43235 58.88312
#
# Poissons Ratio (x) = 0.26573 -0.09602
# Poissons Ratio (y) = 0.28176 0.20341
# Poissons Ratio (z) = -0.12178 0.24330
#
# Static dielectric constant tensor:
#      x y z
#    x 1.722420 0.000000 0.000000 
#    y 0.000000 1.684940 0.000000 
#    z 0.000000 0.000000 1.734070 
# 
# From -- ./inp_files/30221.got.cif
#   From: 2010.05.17/outbox.cif.g08.bks.cpg/sg62_16_cif.got.tgz:30221.got - 2010.06.03 15:25:27.
