data_PCOD9467532
_publ_section_title
;
Structure prediction by ZEFSAII (Michael W. Deem and Ramdas Pophale) SiO2 
 PCOD9467532
Probable space group: P N M A
;
_chemical_formula_sum "Si O2"
_cell_formula_units_Z 64
_cell_length_a 14.709991
_cell_length_b 18.199578
_cell_length_c 11.396009
_cell_angle_alpha 90.000000
_cell_angle_beta 90.000000
_cell_angle_gamma 90.000000
_cell_volume 3050.889713
_symmetry_space_group_name_H-M "P N M A"
_symmetry_group_IT_number 62
_symmetry_cell_setting 'orthorhombic'
loop_
_space_group_symop_operation_xyz
x,y,z
1/2-x,-y,1/2+z
1/2+x,1/2-y,1/2-z
-x,1/2+y,-z
-x,-y,-z
1/2+x,y,1/2-z
1/2-x,1/2+y,1/2+z
x,1/2-y,z
loop_
_atom_site_type_symbol
_atom_site_label
_atom_site_fract_x
_atom_site_fract_y
_atom_site_fract_z
Si Si1 0.592350 0.833350 0.465865
Si Si2 0.141319 0.061712 0.235354
Si Si3 0.950056 0.164648 0.581020
Si Si4 0.067320 0.069247 0.989472
Si Si5 0.311811 0.101510 0.748096
Si Si6 0.558061 0.569135 0.848701
Si Si7 0.610217 0.409465 0.782439
Si Si8 0.201382 0.835070 0.797441
O O1 0.589799 0.750000 0.422457
O O2 0.494519 0.859016 0.511120
O O3 0.621119 0.885875 0.360872
O O4 0.664311 0.839109 0.570247
O O5 0.200810 0.127985 0.284170
O O6 0.037762 0.064635 0.280104
O O7 0.184450 0.984826 0.277065
O O8 0.140074 0.063716 0.093354
O O9 0.955608 0.250000 0.546662
O O10 0.854902 0.147684 0.646436
O O11 0.957274 0.108714 0.472511
O O12 0.031651 0.143984 0.670614
O O13 0.101239 0.073002 0.856317
O O14 0.000000 0.000000 0.000000
O O15 0.211333 0.122135 0.706521
O O16 0.597101 0.486365 0.851437
O O17 0.630491 0.618482 0.779295
O O18 0.202194 0.750000 0.761467
#
# Coordination Sequence:
#
# PCOD9467532 Si02
#       8
#     8   8   8   8   8   8   8   8
#     4  11  23  44  70  95 137 181 225 283 343 405
#     4  12  25  42  75 103 137 179 236 287 346 418
#     4  12  28  48  68 101 148 187 234 291 354 416
#     4  12  21  44  71 103 131 173 230 288 345 404
#     4  12  26  43  72 104 137 186 232 290 342 412
#     4  12  24  47  70  99 140 186 229 289 349 416
#     4  12  26  44  74 103 133 184 240 284 344 419
#     4  11  26  44  68 105 141 180 229 287 350 413
#
# _framework density 20.977485999999999
#
# number of rings (size 3 to 8) (size 9 to 14) (size 15 to 20)
#    0.000    0.250    7.500    1.125    3.500    2.500 
#    0.000    0.000    0.000    0.000    0.000    0.000 
#    0.000    0.000    0.000    0.000    0.000    0.000 
#
# Total GULP energy -358051.062064 kJ/mol
# GULP energy per Si atom -5594.547845 kJ/mol
# Density = 2.092974 g / cm^3
# Si number density = 20.977486 Si / 1000 Ang^3
#
#
#
# Elastic Constant Matrix: (Units=GPa)
#
#
# Indices 1 2 3 4 5 6 
#
# 1 74.6490 8.3333 -3.1928 0.0000 0.0000 0.0000
# 2 8.3333 82.3389 6.4955 0.0000 0.0000 0.0000
# 3 -3.1928 6.4955 65.2719 0.0000 0.0000 0.0000
# 4 0.0000 0.0000 0.0000 22.7408 0.0000 0.0000
# 5 0.0000 0.0000 0.0000 0.0000 23.0071 0.0000
# 6 0.0000 0.0000 0.0000 0.0000 0.0000 28.0198
#
#
#
# Elastic Compliance Matrix: (Units=1/GPa)
#
#
# Indices 1 2 3 4 5 6 
#
# 1 0.013591 -0.001439 0.000808 0.000000 0.000000 0.000000
# 2 -0.001439 0.012393 -0.001304 0.000000 0.000000 0.000000
# 3 0.000808 -0.001304 0.015490 0.000000 0.000000 0.000000
# 4 0.000000 0.000000 0.000000 0.043974 0.000000 0.000000
# 5 0.000000 0.000000 0.000000 0.000000 0.043465 0.000000
# 6 0.000000 0.000000 0.000000 0.000000 0.000000 0.035689
#
#
# Mechanical properties :
#
#
# Convention : Reuss Voigt Hill
#
# Bulk Modulus (GPa) = 26.59253 27.28133 26.93693
# Shear Modulus (GPa) = 27.62325 28.79514 28.20920
#
# Velocity S-wave (km/s) = 3.63272 3.70897 3.67104
# Velocity P-wave (km/s) = 5.50452 5.60136 5.55315
#
# Compressibility (1/GPa) = 0.03760455
#
# Stress axis : x y z
#
# Youngs Moduli (GPa) = 73.57674 80.68787 64.55866
#
# Poissons Ratio (x) = 0.11613 -0.05217
# Poissons Ratio (y) = 0.10590 0.08417
# Poissons Ratio (z) = -0.05945 0.10519
#
# Static dielectric constant tensor:
#      x y z
#    x 1.741650 0.000000 0.000000 
#    y 0.000000 1.748260 0.000000 
#    z 0.000000 0.000000 1.757780 
# 
# From -- ./inp_files/13589.got.cif
#   From: 2010.05.17/outbox.cif.g08.bks.cpg/sg62_7_cif.got.tgz:13589.got - 2010.06.03 15:25:27.
