data_PCOD9467348
_publ_section_title
;
Structure prediction by ZEFSAII (Michael W. Deem and Ramdas Pophale) SiO2 
 PCOD9467348
Probable space group: P N M A
;
_chemical_formula_sum "Si O2"
_cell_formula_units_Z 52
_cell_length_a 18.026453
_cell_length_b 16.639033
_cell_length_c 6.799193
_cell_angle_alpha 90.000000
_cell_angle_beta 90.000000
_cell_angle_gamma 90.000000
_cell_volume 2039.368621
_symmetry_space_group_name_H-M "P N M A"
_symmetry_group_IT_number 62
_symmetry_cell_setting 'orthorhombic'
loop_
_space_group_symop_operation_xyz
x,y,z
1/2-x,-y,1/2+z
1/2+x,1/2-y,1/2-z
-x,1/2+y,-z
-x,-y,-z
1/2+x,y,1/2-z
1/2-x,1/2+y,1/2+z
x,1/2-y,z
loop_
_atom_site_type_symbol
_atom_site_label
_atom_site_fract_x
_atom_site_fract_y
_atom_site_fract_z
Si Si1 0.332487 0.924787 0.132508
Si Si2 0.750000 0.750000 0.804677
Si Si3 0.361045 0.109960 0.083318
Si Si4 0.022148 0.843005 0.018195
Si Si5 0.022148 0.156995 0.518195
Si Si6 0.361045 0.890040 0.583318
Si Si7 0.167513 0.575213 0.132508
O O1 0.401818 0.892748 0.007521
O O2 0.339834 0.887607 0.350148
O O3 0.250000 0.904854 0.058631
O O4 0.339948 0.020577 0.150459
O O5 0.685466 0.680012 0.819301
O O6 0.814534 0.680012 0.819300
O O7 0.449416 0.123536 0.089423
O O8 0.339834 0.112393 0.850148
O O9 0.034640 0.750000 0.968019
O O10 0.098182 0.892748 0.007521
O O11 0.000000 0.845878 0.250000
O O12 0.949416 0.876464 0.910577
O O13 0.034639 0.250000 0.468019
O O14 0.339948 0.979423 0.650459
#
# Coordination Sequence:
#
# PCOD9467348 Si02
#       7
#     8   4   8   8   8   8   8
#     4  11  21  35  58  86 114 146 186 233 277 332
#     4  12  20  36  66  82 106 148 198 226 264 340
#     4  11  22  38  60  84 113 146 190 230 281 325
#     4   9  19  33  56  84 112 146 189 231 271 326
#     4   9  19  33  56  84 112 146 189 231 271 326
#     4  11  22  38  60  84 113 146 190 230 281 325
#     4  11  21  35  58  86 114 146 186 233 277 332
#
# _framework density 25.498089
#
# number of rings (size 3 to 8) (size 9 to 14) (size 15 to 20)
#    0.000    1.538    4.615    0.923    2.154    0.615 
#    0.000    0.000    3.385    3.692    0.000    0.000 
#    0.000    0.000    0.000    0.000    0.000    0.000 
#
# Total GULP energy -290780.438226 kJ/mol
# GULP energy per Si atom -5591.931504 kJ/mol
# Density = 2.544005 g / cm^3
# Si number density = 25.498089 Si / 1000 Ang^3
#
#
#
# Elastic Constant Matrix: (Units=GPa)
#
#
# Indices 1 2 3 4 5 6 
#
# 1 306.2274 110.6274 54.3035 0.0000 0.0000 0.0000
# 2 110.6274 136.1105 30.0563 0.0000 0.0000 0.0000
# 3 54.3035 30.0563 81.8991 0.0000 0.0000 0.0000
# 4 0.0000 0.0000 0.0000 -13.6534 0.0000 0.0000
# 5 0.0000 0.0000 0.0000 0.0000 40.8915 0.0000
# 6 0.0000 0.0000 0.0000 0.0000 0.0000 64.0908
#
#
#
# Elastic Compliance Matrix: (Units=1/GPa)
#
#
# Indices 1 2 3 4 5 6 
#
# 1 0.004891 -0.003547 -0.001941 0.000000 0.000000 0.000000
# 2 -0.003547 0.010567 -0.001526 0.000000 0.000000 0.000000
# 3 -0.001941 -0.001526 0.014058 0.000000 0.000000 0.000000
# 4 0.000000 0.000000 0.000000 -0.073242 0.000000 0.000000
# 5 0.000000 0.000000 0.000000 0.000000 0.024455 0.000000
# 6 0.000000 0.000000 0.000000 0.000000 0.000000 0.015603
#
#
# Mechanical properties :
#
#
# Convention : Reuss Voigt Hill
#
# Bulk Modulus (GPa) = 64.57210 101.57904 83.07557
# Shear Modulus (GPa) = 322.12158 40.21578 181.16868
#
# Velocity S-wave (km/s) = 11.25193 3.97572 8.43837
# Velocity P-wave (km/s) = 13.93510 7.81022 11.29572
#
# Compressibility (1/GPa) = 0.01548656
#
# Stress axis : x y z
#
# Youngs Moduli (GPa) = 204.45371 94.63758 71.13612
#
# Poissons Ratio (x) = 0.33565 0.13811
# Poissons Ratio (y) = 0.72512 0.10857
# Poissons Ratio (z) = 0.39694 0.14444
#
# Static dielectric constant tensor:
#      x y z
#    x 1.952140 0.000000 0.000000 
#    y 0.000000 1.875710 0.000000 
#    z 0.000000 0.000000 2.158120 
# 
# From -- ./inp_files/14244.got.cif
#   From: 2010.05.17/outbox.cif.g08.bks.cpg/sg62_8_cif.got.tgz:14244.got - 2010.06.03 15:25:27.
