data_PCOD9467804
_publ_section_title
;
Structure prediction by ZEFSAII (Michael W. Deem and Ramdas Pophale) SiO2 
 PCOD9467804
Probable space group: P N M A
;
_chemical_formula_sum "Si O2"
_cell_formula_units_Z 64
_cell_length_a 24.000000
_cell_length_b 9.000000
_cell_length_c 15.000000
_cell_angle_alpha 90.000000
_cell_angle_beta 90.000000
_cell_angle_gamma 90.000000
_cell_volume 3240.000000
_symmetry_space_group_name_H-M "P N M A"
_symmetry_group_IT_number 62
_symmetry_cell_setting 'orthorhombic'
loop_
_space_group_symop_operation_xyz
x,y,z
1/2-x,-y,1/2+z
1/2+x,1/2-y,1/2-z
-x,1/2+y,-z
-x,-y,-z
1/2+x,y,1/2-z
1/2-x,1/2+y,1/2+z
x,1/2-y,z
loop_
_atom_site_type_symbol
_atom_site_label
_atom_site_fract_x
_atom_site_fract_y
_atom_site_fract_z
Si Si1 0.567997 0.924424 0.645683
Si Si2 0.039835 0.575614 0.198625
Si Si3 0.076922 0.425387 0.569911
Si Si4 0.948792 0.074960 0.602245
Si Si5 0.199399 0.921917 0.821948
Si Si6 0.185050 0.572604 0.628423
Si Si7 0.276162 0.926954 0.495629
Si Si8 0.597481 0.427572 0.465762
O O1 0.553876 0.750000 0.649757
O O2 0.632333 0.941510 0.673544
O O3 0.524038 0.020261 0.700722
O O4 0.566432 0.986822 0.545244
O O5 0.041063 0.750000 0.175334
O O6 0.066804 0.556749 0.295438
O O7 0.070674 0.477370 0.125997
O O8 0.080524 0.250000 0.578064
O O9 0.084777 0.479763 0.468468
O O10 0.124767 0.500580 0.626544
O O11 0.013927 0.469875 0.594475
O O12 0.944830 0.250000 0.578613
O O13 0.210558 0.750000 0.843931
O O14 0.215836 0.953440 0.721428
O O15 0.227022 0.025777 0.893868
O O16 0.177174 0.750000 0.619997
O O17 0.224651 0.512654 0.551266
O O18 0.274599 0.750000 0.504132
O O19 0.337403 0.973273 0.529710
O O20 0.593600 0.250000 0.479291
#
# Coordination Sequence:
#
# PCOD9467804 Si02
#       8
#     8   8   8   8   8   8   8   8
#     4  10  19  32  52  78 106 138 179 224 268 320
#     4  11  21  33  51  77 107 142 178 216 266 325
#     4  10  20  35  57  83 107 138 180 223 263 314
#     4   9  20  37  54  76 112 147 174 214 269 323
#     4   9  19  35  57  82 108 140 180 226 273 320
#     4  10  20  37  59  82 110 144 179 222 278 328
#     4   9  20  38  57  77 107 144 180 223 274 322
#     4  10  20  35  52  72 104 143 180 222 268 320
#
# _framework density 19.753086
#
# number of rings (size 3 to 8) (size 9 to 14) (size 15 to 20)
#    0.000    2.250    0.000    2.625    0.000    3.500 
#    2.250    0.000    0.000    0.000    0.000    0.000 
#    0.000    0.000    0.000    0.000    0.000    0.000 
#
# Total GULP energy -357039.038052 kJ/mol
# GULP energy per Si atom -5578.734970 kJ/mol
# Density = 1.970813 g / cm^3
# Si number density = 19.753086 Si / 1000 Ang^3
#
#
#
# Elastic Constant Matrix: (Units=GPa)
#
#
# Indices 1 2 3 4 5 6 
#
# 1 11.8751 6.5841 7.0968 0.0000 0.0000 0.0000
# 2 6.5841 -4.6412 6.7996 0.0000 0.0000 0.0000
# 3 7.0968 6.7996 30.0735 0.0000 0.0000 0.0000
# 4 0.0000 0.0000 0.0000 24.0669 0.0000 0.0000
# 5 0.0000 0.0000 0.0000 0.0000 16.3596 0.0000
# 6 0.0000 0.0000 0.0000 0.0000 0.0000 2.3236
#
#
#
# Elastic Compliance Matrix: (Units=1/GPa)
#
#
# Indices 1 2 3 4 5 6 
#
# 1 0.070355 0.056702 -0.029423 0.000000 0.000000 0.000000
# 2 0.056702 -0.116151 0.012881 0.000000 0.000000 0.000000
# 3 -0.029423 0.012881 0.037283 0.000000 0.000000 0.000000
# 4 0.000000 0.000000 0.000000 0.041551 0.000000 0.000000
# 5 0.000000 0.000000 0.000000 0.000000 0.061126 0.000000
# 6 0.000000 0.000000 0.000000 0.000000 0.000000 0.430371
#
#
# Mechanical properties :
#
#
# Convention : Reuss Voigt Hill
#
# Bulk Modulus (GPa) = 13.92617 8.69649 11.31133
# Shear Modulus (GPa) = 10.68035 9.67180 10.17608
#
# Velocity S-wave (km/s) = 2.32780 2.21517 2.27218
# Velocity P-wave (km/s) = 3.78025 3.30980 3.55282
#
# Compressibility (1/GPa) = 0.07180725
#
# Stress axis : x y z
#
# Youngs Moduli (GPa) = 14.21359 -8.60945 26.82205
#
# Poissons Ratio (x) = 0.48817 0.78918
# Poissons Ratio (y) = -0.80594 -0.34549
# Poissons Ratio (z) = 0.41820 0.11090
#
# Static dielectric constant tensor:
#      x y z
#    x 1.696230 0.000000 0.000000 
#    y 0.000000 1.657570 0.000000 
#    z 0.000000 0.000000 1.736110 
# 
# From -- ./inp_files/20886.got.cif
#   From: 2010.05.17/outbox.ucp.g08.bks.cvg/sg62_11_cif.got.tgz:20886.got - 2010.06.11 16:29:25.
