data_PCOD9467807
_publ_section_title
;
Structure prediction by ZEFSAII (Michael W. Deem and Ramdas Pophale) SiO2 
 PCOD9467807
Probable space group: P N M A
;
_chemical_formula_sum "Si O2"
_cell_formula_units_Z 48
_cell_length_a 15.000000
_cell_length_b 9.000000
_cell_length_c 18.000000
_cell_angle_alpha 90.000000
_cell_angle_beta 90.000000
_cell_angle_gamma 90.000000
_cell_volume 2430.000000
_symmetry_space_group_name_H-M "P N M A"
_symmetry_group_IT_number 62
_symmetry_cell_setting 'orthorhombic'
loop_
_space_group_symop_operation_xyz
x,y,z
1/2-x,-y,1/2+z
1/2+x,1/2-y,1/2-z
-x,1/2+y,-z
-x,-y,-z
1/2+x,y,1/2-z
1/2-x,1/2+y,1/2+z
x,1/2-y,z
loop_
_atom_site_type_symbol
_atom_site_label
_atom_site_fract_x
_atom_site_fract_y
_atom_site_fract_z
Si Si1 0.716953 0.924654 0.667005
Si Si2 0.550349 0.571504 0.430879
Si Si3 0.453560 0.927413 0.279220
Si Si4 0.909022 0.413834 0.503373
Si Si5 0.109023 0.916120 0.320465
Si Si6 0.733459 0.572360 0.494413
O O1 0.707150 0.750000 0.666909
O O2 0.709815 0.973644 0.579776
O O3 0.640982 0.998160 0.715257
O O4 0.811927 0.973986 0.698029
O O5 0.500000 0.500000 0.500000
O O6 0.543729 0.750000 0.436970
O O7 0.507997 0.527224 0.353009
O O8 0.653291 0.530595 0.440619
O O9 0.441788 0.750000 0.280460
O O10 0.513994 0.966745 0.209279
O O11 0.917222 0.250000 0.471393
O O12 0.891013 0.403875 0.591336
O O13 0.825622 0.500305 0.470694
O O14 0.000000 0.500000 0.500000
O O15 0.125757 0.750000 0.289063
O O16 0.743374 0.750000 0.495724
#
# Coordination Sequence:
#
# PCOD9467807 Si02
#       6
#     8   8   8   8   8   8
#     4  10  19  33  55  79 106 140 174 215 267 316
#     4  10  19  32  53  81 110 140 174 213 260 310
#     4  10  20  35  56  79 106 142 180 218 259 313
#     4  10  20  36  58  79 102 137 179 223 267 313
#     4   9  20  38  56  77 105 140 182 220 259 314
#     4   9  18  33  52  77 108 139 172 213 260 312
#
# _framework density 19.753086
#
# number of rings (size 3 to 8) (size 9 to 14) (size 15 to 20)
#    0.000    2.333    1.667    1.000    0.000    2.667 
#    3.000    0.000    0.000    0.000    0.000    0.000 
#    0.000    0.000    0.000    0.000    0.000    0.000 
#
# Total GULP energy -267519.635373 kJ/mol
# GULP energy per Si atom -5573.325737 kJ/mol
# Density = 1.970813 g / cm^3
# Si number density = 19.753086 Si / 1000 Ang^3
#
#
#
# Elastic Constant Matrix: (Units=GPa)
#
#
# Indices 1 2 3 4 5 6 
#
# 1 115.3941 44.9481 -6.2232 0.0000 0.0000 0.0000
# 2 44.9481 13.1680 10.5843 0.0000 0.0000 0.0000
# 3 -6.2232 10.5843 -12.6511 0.0000 0.0000 0.0000
# 4 0.0000 0.0000 0.0000 14.0347 0.0000 0.0000
# 5 0.0000 0.0000 0.0000 0.0000 25.5482 0.0000
# 6 0.0000 0.0000 0.0000 0.0000 0.0000 27.2490
#
#
#
# Elastic Compliance Matrix: (Units=1/GPa)
#
#
# Indices 1 2 3 4 5 6 
#
# 1 0.021395 -0.038607 -0.042824 0.000000 0.000000 0.000000
# 2 -0.038607 0.115074 0.115266 0.000000 0.000000 0.000000
# 3 -0.042824 0.115266 0.038457 0.000000 0.000000 0.000000
# 4 0.000000 0.000000 0.000000 0.071252 0.000000 0.000000
# 5 0.000000 0.000000 0.000000 0.000000 0.039142 0.000000
# 6 0.000000 0.000000 0.000000 0.000000 0.000000 0.036699
#
#
# Mechanical properties :
#
#
# Convention : Reuss Voigt Hill
#
# Bulk Modulus (GPa) = 4.12210 23.83661 13.97936
# Shear Modulus (GPa) = 14.91589 17.80651 16.36120
#
# Velocity S-wave (km/s) = 2.75092 3.00568 2.88112
# Velocity P-wave (km/s) = 3.49019 4.91314 4.26148
#
# Compressibility (1/GPa) = 0.24259476
#
# Stress axis : x y z
#
# Youngs Moduli (GPa) = 46.74070 8.69006 26.00330
#
# Poissons Ratio (x) = 0.33550 1.11357
# Poissons Ratio (y) = 1.80452 -2.99730
# Poissons Ratio (z) = 2.00164 -1.00167
#
# Static dielectric constant tensor:
#      x y z
#    x 1.700710 0.000000 0.000000 
#    y 0.000000 1.700880 0.000000 
#    z 0.000000 0.000000 1.693720 
# 
# From -- ./inp_files/23746.got.cif
#   From: 2010.05.17/outbox.ucp.g08.bks.cvg/sg62_12_cif.got.tgz:23746.got - 2010.06.11 16:29:25.
