data_PCOD9467914
_publ_section_title
;
Structure prediction by ZEFSAII (Michael W. Deem and Ramdas Pophale) SiO2 
 PCOD9467914
Probable space group: P N M A
;
_chemical_formula_sum "Si O2"
_cell_formula_units_Z 64
_cell_length_a 24.000000
_cell_length_b 9.000000
_cell_length_c 18.000000
_cell_angle_alpha 90.000000
_cell_angle_beta 90.000000
_cell_angle_gamma 90.000000
_cell_volume 3888.000000
_symmetry_space_group_name_H-M "P N M A"
_symmetry_group_IT_number 62
_symmetry_cell_setting 'orthorhombic'
loop_
_space_group_symop_operation_xyz
x,y,z
1/2-x,-y,1/2+z
1/2+x,1/2-y,1/2-z
-x,1/2+y,-z
-x,-y,-z
1/2+x,y,1/2-z
1/2-x,1/2+y,1/2+z
x,1/2-y,z
loop_
_atom_site_type_symbol
_atom_site_label
_atom_site_fract_x
_atom_site_fract_y
_atom_site_fract_z
Si Si1 0.281677 0.418851 0.898210
Si Si2 0.733973 0.580076 0.469890
Si Si3 0.562643 0.072096 0.630553
Si Si4 0.677467 0.080023 0.714885
Si Si5 0.052293 0.427553 0.168511
Si Si6 0.601734 0.574453 0.479631
Si Si7 0.754652 0.922216 0.820734
Si Si8 0.642778 0.925150 0.238267
O O1 0.284879 0.250000 0.928182
O O2 0.226328 0.423565 0.846794
O O3 0.334407 0.444835 0.845082
O O4 0.271725 0.540805 0.960095
O O5 0.741278 0.750000 0.444962
O O6 0.668493 0.560419 0.488896
O O7 0.749083 0.465395 0.405945
O O8 0.555573 0.250000 0.623858
O O9 0.618709 0.043810 0.677667
O O10 0.509017 0.997793 0.667526
O O11 0.571753 0.000392 0.549614
O O12 0.675387 0.250000 0.743162
O O13 0.698949 0.970351 0.778016
O O14 0.050456 0.250000 0.165116
O O15 0.088861 0.483962 0.237723
O O16 0.082916 0.493071 0.095351
O O17 0.588361 0.750000 0.475146
O O18 0.766840 0.750000 0.808977
O O19 0.805798 0.018620 0.788546
O O20 0.633994 0.750000 0.251756
#
# Coordination Sequence:
#
# PCOD9467914 Si02
#       8
#     8   8   8   8   8   8   8   8
#     4   9  18  33  53  75 101 130 167 212 257 306
#     4  11  21  32  51  76 106 139 171 209 254 307
#     4  11  22  37  55  73 101 140 178 217 257 304
#     4   9  19  35  53  73 100 134 170 210 257 305
#     4  12  24  36  52  74 102 138 179 219 255 301
#     4  11  22  35  50  72 104 141 179 217 251 297
#     4  11  21  32  52  76 103 134 169 212 257 304
#     4  10  20  36  53  73 101 134 171 212 258 306
#
# _framework density 16.460905
#
# number of rings (size 3 to 8) (size 9 to 14) (size 15 to 20)
#    0.000    1.500    2.500    4.875    0.000    4.500 
#    0.000    0.000    0.000    0.000    0.000    0.875 
#    0.000    0.000    0.000    0.000    0.000    0.000 
#
# Total GULP energy -357279.625559 kJ/mol
# GULP energy per Si atom -5582.494149 kJ/mol
# Density = 1.642344 g / cm^3
# Si number density = 16.460905 Si / 1000 Ang^3
#
#
#
# Elastic Constant Matrix: (Units=GPa)
#
#
# Indices 1 2 3 4 5 6 
#
# 1 24.7929 13.5661 -0.7447 0.0000 0.0000 0.0000
# 2 13.5661 69.7851 8.9784 0.0000 0.0000 0.0000
# 3 -0.7447 8.9784 14.1177 0.0000 0.0000 0.0000
# 4 0.0000 0.0000 0.0000 26.6172 0.0000 0.0000
# 5 0.0000 0.0000 0.0000 0.0000 17.4846 0.0000
# 6 0.0000 0.0000 0.0000 0.0000 0.0000 26.1118
#
#
#
# Elastic Compliance Matrix: (Units=1/GPa)
#
#
# Indices 1 2 3 4 5 6 
#
# 1 0.046131 -0.010108 0.008862 0.000000 0.000000 0.000000
# 2 -0.010108 0.017821 -0.011867 0.000000 0.000000 0.000000
# 3 0.008862 -0.011867 0.078848 0.000000 0.000000 0.000000
# 4 0.000000 0.000000 0.000000 0.037570 0.000000 0.000000
# 5 0.000000 0.000000 0.000000 0.000000 0.057193 0.000000
# 6 0.000000 0.000000 0.000000 0.000000 0.000000 0.038297
#
#
# Mechanical properties :
#
#
# Convention : Reuss Voigt Hill
#
# Bulk Modulus (GPa) = 8.57824 16.92169 12.74997
# Shear Modulus (GPa) = 14.66514 19.83578 17.25046
#
# Velocity S-wave (km/s) = 2.98805 3.47511 3.24074
# Velocity P-wave (km/s) = 4.13850 5.13849 4.66536
#
# Compressibility (1/GPa) = 0.11657396
#
# Stress axis : x y z
#
# Youngs Moduli (GPa) = 21.67733 56.11201 12.68266
#
# Poissons Ratio (x) = 0.56718 -0.11239
# Poissons Ratio (y) = 0.21911 0.15051
# Poissons Ratio (z) = -0.19210 0.66589
#
# Static dielectric constant tensor:
#      x y z
#    x 1.541070 0.000000 0.000000 
#    y 0.000000 1.547900 0.000000 
#    z 0.000000 0.000000 1.563660 
# 
# From -- ./inp_files/24981.got.cif
#   From: 2010.05.17/outbox.ucp.g08.bks.cvg/sg62_13_cif.got.tgz:24981.got - 2010.06.11 16:29:25.
