data_PCOD9467433
_publ_section_title
;
Structure prediction by ZEFSAII (Michael W. Deem and Ramdas Pophale) SiO2 
 PCOD9467433
Probable space group: P N M A
;
_chemical_formula_sum "Si O2"
_cell_formula_units_Z 24
_cell_length_a 4.911299
_cell_length_b 7.992426
_cell_length_c 25.643898
_cell_angle_alpha 90.000000
_cell_angle_beta 90.000000
_cell_angle_gamma 90.000000
_cell_volume 1006.604899
_symmetry_space_group_name_H-M "P N M A"
_symmetry_group_IT_number 62
_symmetry_cell_setting 'orthorhombic'
loop_
_space_group_symop_operation_xyz
x,y,z
1/2-x,-y,1/2+z
1/2+x,1/2-y,1/2-z
-x,1/2+y,-z
-x,-y,-z
1/2+x,y,1/2-z
1/2-x,1/2+y,1/2+z
x,1/2-y,z
loop_
_atom_site_type_symbol
_atom_site_label
_atom_site_fract_x
_atom_site_fract_y
_atom_site_fract_z
Si Si1 0.351404 0.546114 0.218646
Si Si2 0.355446 0.942104 0.552844
Si Si3 0.860888 0.444020 0.613829
O O1 0.048416 0.495890 0.233715
O O2 0.348857 0.750000 0.215741
O O3 0.485587 0.488161 0.165001
O O4 0.273589 0.750000 0.548330
O O5 0.500000 0.000000 0.500000
O O6 0.587335 0.964764 0.596810
O O7 0.087545 0.043992 0.568522
O O8 0.786643 0.250000 0.622857
#
# Coordination Sequence:
#
# PCOD9467433 Si02
#       3
#     8   8   8
#     4   9  17  31  55  87 118 150 193 242 286 337
#     4  12  25  42  62  87 121 158 199 246 301 359
#     4  11  22  39  64  92 121 156 201 248 295 348
#
# _framework density 23.842521999999999
#
# number of rings (size 3 to 8) (size 9 to 14) (size 15 to 20)
#    0.000    1.333    0.000    7.000    0.000    5.333 
#    0.000    0.000    0.000   20.000    0.000    0.000 
#    0.000    0.000    0.000    0.000    0.000    0.000 
#
# Total GULP energy -134374.949485 kJ/mol
# GULP energy per Si atom -5598.956229 kJ/mol
# Density = 2.378826 g / cm^3
# Si number density = 23.842522 Si / 1000 Ang^3
#
#
#
# Elastic Constant Matrix: (Units=GPa)
#
#
# Indices 1 2 3 4 5 6 
#
# 1 93.5346 -11.7106 -9.2561 0.0000 0.0000 0.0000
# 2 -11.7106 47.3056 -1.8973 0.0000 0.0000 0.0000
# 3 -9.2561 -1.8973 63.7626 0.0000 0.0000 0.0000
# 4 0.0000 0.0000 0.0000 3.0118 0.0000 0.0000
# 5 0.0000 0.0000 0.0000 0.0000 39.1358 0.0000
# 6 0.0000 0.0000 0.0000 0.0000 0.0000 28.3412
#
#
#
# Elastic Compliance Matrix: (Units=1/GPa)
#
#
# Indices 1 2 3 4 5 6 
#
# 1 0.011217 0.002846 0.001713 0.000000 0.000000 0.000000
# 2 0.002846 0.021886 0.001064 0.000000 0.000000 0.000000
# 3 0.001713 0.001064 0.015964 0.000000 0.000000 0.000000
# 4 0.000000 0.000000 0.000000 0.332023 0.000000 0.000000
# 5 0.000000 0.000000 0.000000 0.000000 0.025552 0.000000
# 6 0.000000 0.000000 0.000000 0.000000 0.000000 0.035284
#
#
# Mechanical properties :
#
#
# Convention : Reuss Voigt Hill
#
# Bulk Modulus (GPa) = 16.58035 17.65275 17.11655
# Shear Modulus (GPa) = 11.09177 29.26223 20.17700
#
# Velocity S-wave (km/s) = 2.15921 3.50710 2.91221
# Velocity P-wave (km/s) = 3.63118 4.88054 4.30146
#
# Compressibility (1/GPa) = 0.06031235
#
# Stress axis : x y z
#
# Youngs Moduli (GPa) = 89.15031 45.69083 62.64288
#
# Poissons Ratio (x) = -0.13001 -0.10731
# Poissons Ratio (y) = -0.25368 -0.06667
# Poissons Ratio (z) = -0.15271 -0.04863
#
# Static dielectric constant tensor:
#      x y z
#    x 1.850290 0.000000 0.000000 
#    y 0.000000 1.684870 0.000000 
#    z 0.000000 0.000000 1.963780 
# 
# From -- ./inp_files/28060.got.cif
#   From: 2010.05.17/outbox.cif.g08.bks.cpg/sg62_15_cif.got.tgz:28060.got - 2010.06.03 15:25:27.
