data_PCOD9467617
_publ_section_title
;
Structure prediction by ZEFSAII (Michael W. Deem and Ramdas Pophale) SiO2 
 PCOD9467617
Probable space group: P N M A
;
_chemical_formula_sum "Si O2"
_cell_formula_units_Z 32
_cell_length_a 10.850281
_cell_length_b 12.069516
_cell_length_c 11.549189
_cell_angle_alpha 90.000000
_cell_angle_beta 90.000000
_cell_angle_gamma 90.000000
_cell_volume 1512.454537
_symmetry_space_group_name_H-M "P N M A"
_symmetry_group_IT_number 62
_symmetry_cell_setting 'orthorhombic'
loop_
_space_group_symop_operation_xyz
x,y,z
1/2-x,-y,1/2+z
1/2+x,1/2-y,1/2-z
-x,1/2+y,-z
-x,-y,-z
1/2+x,y,1/2-z
1/2-x,1/2+y,1/2+z
x,1/2-y,z
loop_
_atom_site_type_symbol
_atom_site_label
_atom_site_fract_x
_atom_site_fract_y
_atom_site_fract_z
Si Si1 0.541806 0.881408 0.848057
Si Si2 0.269697 0.750000 0.132985
Si Si3 0.936853 0.978388 0.122267
Si Si4 0.305000 0.963884 0.989522
Si Si5 0.018387 0.750000 0.235896
O O1 0.559259 0.750000 0.849151
O O2 0.418709 0.915866 0.916602
O O3 0.534166 0.929443 0.718681
O O4 0.648437 0.946980 0.916974
O O5 0.417539 0.750000 0.160011
O O6 0.168712 0.750000 0.237843
O O7 0.247368 0.860062 0.058097
O O8 0.980460 0.861185 0.170128
O O9 0.791670 0.982081 0.097330
O O10 0.000000 0.000000 0.000000
#
# Coordination Sequence:
#
# PCOD9467617 Si02
#       5
#     8   4   8   8   4
#     4  11  27  47  75 105 141 193 243 303 372 437
#     4  12  24  50  73 109 147 191 240 301 364 433
#     4  12  28  46  70 107 143 187 244 295 368 432
#     4  11  26  49  72 104 145 187 242 304 363 438
#     4  12  28  46  75 103 151 197 240 301 362 443
#
# _framework density 21.15766
#
# number of rings (size 3 to 8) (size 9 to 14) (size 15 to 20)
#    0.000    0.500    6.250    0.000   12.250    0.000 
#    0.000    0.000    0.000    0.000    0.000    0.000 
#    0.000    0.000    0.000    0.000    0.000    0.000 
#
# Total GULP energy -178923.075790 kJ/mol
# GULP energy per Si atom -5591.346118 kJ/mol
# Density = 2.110950 g / cm^3
# Si number density = 21.157660 Si / 1000 Ang^3
#
#
#
# Elastic Constant Matrix: (Units=GPa)
#
#
# Indices 1 2 3 4 5 6 
#
# 1 78.6958 30.5877 18.9213 0.0000 0.0000 0.0000
# 2 30.5877 169.6885 59.4769 0.0000 0.0000 0.0000
# 3 18.9213 59.4769 109.0662 0.0000 0.0000 0.0000
# 4 0.0000 0.0000 0.0000 -20.3294 0.0000 0.0000
# 5 0.0000 0.0000 0.0000 0.0000 36.9058 0.0000
# 6 0.0000 0.0000 0.0000 0.0000 0.0000 20.9058
#
#
#
# Elastic Compliance Matrix: (Units=1/GPa)
#
#
# Indices 1 2 3 4 5 6 
#
# 1 0.013808 -0.002039 -0.001284 0.000000 0.000000 0.000000
# 2 -0.002039 0.007587 -0.003784 0.000000 0.000000 0.000000
# 3 -0.001284 -0.003784 0.011455 0.000000 0.000000 0.000000
# 4 0.000000 0.000000 0.000000 -0.049190 0.000000 0.000000
# 5 0.000000 0.000000 0.000000 0.000000 0.027096 0.000000
# 6 0.000000 0.000000 0.000000 0.000000 0.000000 0.047834
#
#
# Mechanical properties :
#
#
# Convention : Reuss Voigt Hill
#
# Bulk Modulus (GPa) = 53.65554 63.93581 58.79567
# Shear Modulus (GPa) = 63.27934 24.06075 43.67004
#
# Velocity S-wave (km/s) = 5.47480 3.37592 4.54809
# Velocity P-wave (km/s) = 8.08576 6.74389 7.44512
#
# Compressibility (1/GPa) = 0.01863741
#
# Stress axis : x y z
#
# Youngs Moduli (GPa) = 72.41992 131.80603 87.30030
#
# Poissons Ratio (x) = 0.26878 0.11205
# Poissons Ratio (y) = 0.14768 0.33031
# Poissons Ratio (z) = 0.09295 0.49870
#
# Static dielectric constant tensor:
#      x y z
#    x 1.844360 0.000000 0.000000 
#    y 0.000000 1.703310 0.000000 
#    z 0.000000 0.000000 1.758000 
# 
# From -- ./inp_files/11789.got.cif
#   From: 2010.05.17/outbox.cif.g08.bks.cpg/sg62_6_cif.got.tgz:11789.got - 2010.06.03 15:25:27.
