data_PCOD9467300
_publ_section_title
;
Structure prediction by ZEFSAII (Michael W. Deem and Ramdas Pophale) SiO2 
 PCOD9467300
Probable space group: P N M A
;
_chemical_formula_sum "Si O2"
_cell_formula_units_Z 48
_cell_length_a 22.343324
_cell_length_b 8.315781
_cell_length_c 12.606577
_cell_angle_alpha 90.000000
_cell_angle_beta 90.000000
_cell_angle_gamma 90.000000
_cell_volume 2342.329605
_symmetry_space_group_name_H-M "P N M A"
_symmetry_group_IT_number 62
_symmetry_cell_setting 'orthorhombic'
loop_
_space_group_symop_operation_xyz
x,y,z
1/2-x,-y,1/2+z
1/2+x,1/2-y,1/2-z
-x,1/2+y,-z
-x,-y,-z
1/2+x,y,1/2-z
1/2-x,1/2+y,1/2+z
x,1/2-y,z
loop_
_atom_site_type_symbol
_atom_site_label
_atom_site_fract_x
_atom_site_fract_y
_atom_site_fract_z
Si Si1 0.932056 0.058882 0.514520
Si Si2 0.302302 0.053269 0.579305
Si Si3 0.856451 0.059594 0.145687
Si Si4 0.487857 0.556993 0.380780
Si Si5 0.171610 0.439576 0.631620
Si Si6 0.604780 0.554400 0.245011
O O1 0.935372 0.250000 0.522874
O O2 0.902453 0.996213 0.624533
O O3 0.887540 0.015108 0.419309
O O4 0.000000 0.000000 0.500000
O O5 0.302642 0.250000 0.581488
O O6 0.334553 0.004692 0.470299
O O7 0.233634 0.999282 0.581478
O O8 0.339780 0.998713 0.682458
O O9 0.846049 0.250000 0.153466
O O10 0.926595 0.022835 0.155801
O O11 0.824911 0.973345 0.243369
O O12 0.500000 0.500000 0.500000
O O13 0.481521 0.750000 0.378317
O O14 0.543990 0.513234 0.307572
O O15 0.167547 0.250000 0.613382
O O16 0.608496 0.750000 0.242213
#
# Coordination Sequence:
#
# PCOD9467300 Si02
#       6
#     8   8   8   8   8   8
#     4  11  23  41  67  93 125 164 211 260 313 375
#     4   9  20  39  61  87 121 162 203 255 313 367
#     4  11  22  40  64  89 122 160 207 258 308 365
#     4  11  20  35  60  91 125 160 202 252 309 366
#     4  11  24  41  63  90 125 165 207 254 314 376
#     4   9  19  37  61  87 119 161 203 252 308 362
#
# _framework density 20.492421
#
# number of rings (size 3 to 8) (size 9 to 14) (size 15 to 20)
#    0.000    1.667    1.667    3.000    2.333    1.333 
#    0.000    5.000    0.000    0.000    0.000    0.000 
#    0.000    0.000    0.000    0.000    0.000    0.000 
#
# Total GULP energy -268188.823425 kJ/mol
# GULP energy per Si atom -5587.267155 kJ/mol
# Density = 2.044578 g / cm^3
# Si number density = 20.492421 Si / 1000 Ang^3
#
#
#
# Elastic Constant Matrix: (Units=GPa)
#
#
# Indices 1 2 3 4 5 6 
#
# 1 123.7662 14.5385 34.2287 0.0000 0.0000 0.0000
# 2 14.5385 21.4045 8.1342 0.0000 0.0000 0.0000
# 3 34.2287 8.1342 106.4367 0.0000 0.0000 0.0000
# 4 0.0000 0.0000 0.0000 24.6137 0.0000 0.0000
# 5 0.0000 0.0000 0.0000 0.0000 19.4917 0.0000
# 6 0.0000 0.0000 0.0000 0.0000 0.0000 21.6629
#
#
#
# Elastic Compliance Matrix: (Units=1/GPa)
#
#
# Indices 1 2 3 4 5 6 
#
# 1 0.009441 -0.005416 -0.002622 0.000000 0.000000 0.000000
# 2 -0.005416 0.051224 -0.002173 0.000000 0.000000 0.000000
# 3 -0.002622 -0.002173 0.010405 0.000000 0.000000 0.000000
# 4 0.000000 0.000000 0.000000 0.040628 0.000000 0.000000
# 5 0.000000 0.000000 0.000000 0.000000 0.051304 0.000000
# 6 0.000000 0.000000 0.000000 0.000000 0.000000 0.046162
#
#
# Mechanical properties :
#
#
# Convention : Reuss Voigt Hill
#
# Bulk Modulus (GPa) = 19.74453 40.60114 30.17284
# Shear Modulus (GPa) = 20.28658 26.13404 23.21031
#
# Velocity S-wave (km/s) = 3.14977 3.57501 3.36911
# Velocity P-wave (km/s) = 4.78372 6.07427 5.46721
#
# Compressibility (1/GPa) = 0.05064694
#
# Stress axis : x y z
#
# Youngs Moduli (GPa) = 105.91892 19.52216 96.11136
#
# Poissons Ratio (x) = 0.10574 0.25203
# Poissons Ratio (y) = 0.57368 0.20884
# Poissons Ratio (z) = 0.27775 0.04242
#
# Static dielectric constant tensor:
#      x y z
#    x 1.710980 0.000000 0.000000 
#    y 0.000000 1.710390 0.000000 
#    z 0.000000 0.000000 1.734520 
# 
# From -- ./inp_files/15127.got.cif
#   From: 2010.05.17/outbox.cif.g08.bks.cpg/sg62_8_cif.got.tgz:15127.got - 2010.06.03 15:25:27.
