data_PCOD9467310
_publ_section_title
;
Structure prediction by ZEFSAII (Michael W. Deem and Ramdas Pophale) SiO2 
 PCOD9467310
Probable space group: P N M A
;
_chemical_formula_sum "Si O2"
_cell_formula_units_Z 64
_cell_length_a 8.960310
_cell_length_b 19.518552
_cell_length_c 19.043551
_cell_angle_alpha 90.000000
_cell_angle_beta 90.000000
_cell_angle_gamma 90.000000
_cell_volume 3330.569990
_symmetry_space_group_name_H-M "P N M A"
_symmetry_group_IT_number 62
_symmetry_cell_setting 'orthorhombic'
loop_
_space_group_symop_operation_xyz
x,y,z
1/2-x,-y,1/2+z
1/2+x,1/2-y,1/2-z
-x,1/2+y,-z
-x,-y,-z
1/2+x,y,1/2-z
1/2-x,1/2+y,1/2+z
x,1/2-y,z
loop_
_atom_site_type_symbol
_atom_site_label
_atom_site_fract_x
_atom_site_fract_y
_atom_site_fract_z
Si Si1 0.360999 0.827473 0.882860
Si Si2 0.600625 0.912548 0.668336
Si Si3 0.057244 0.974408 0.075398
Si Si4 0.030472 0.673851 0.042596
Si Si5 0.602545 0.910075 0.826849
Si Si6 0.581230 0.026416 0.928960
Si Si7 0.363109 0.672275 0.607425
Si Si8 0.392502 0.675180 0.040000
O O1 0.303540 0.750000 0.873343
O O2 0.235657 0.885615 0.879222
O O3 0.480014 0.850312 0.825792
O O4 0.439728 0.829735 0.958679
O O5 0.651348 0.925409 0.747725
O O6 0.487375 0.848735 0.663764
O O7 0.514231 0.976187 0.633724
O O8 0.004461 0.895734 0.085445
O O9 0.237315 0.976977 0.070379
O O10 0.000000 0.000000 0.000000
O O11 0.989932 0.750000 0.070144
O O12 0.211003 0.674749 0.034022
O O13 0.943663 0.665689 0.968445
O O14 0.731469 0.880243 0.876660
O O15 0.536688 0.977154 0.864932
O O16 0.550063 0.107602 0.921556
O O17 0.500000 0.000000 0.000000
O O18 0.311340 0.750000 0.614974
O O19 0.436711 0.750000 0.068176
#
# Coordination Sequence:
#
# PCOD9467310 Si02
#       8
#     8   8   8   8   8   8   8   8
#     4  11  22  36  54  78 111 155 194 226 274 340
#     4  12  23  37  55  79 112 155 196 236 275 345
#     4  11  20  37  60  82 108 148 190 233 288 340
#     4   9  17  33  60  85 105 134 184 237 282 335
#     4  12  25  36  51  81 117 152 194 235 288 338
#     4  11  21  37  58  83 114 145 183 241 292 337
#     4  11  21  37  56  80 114 151 189 231 280 336
#     4   9  17  33  58  83 105 139 185 228 279 345
#
# _framework density 19.21593
#
# number of rings (size 3 to 8) (size 9 to 14) (size 15 to 20)
#    0.000    1.250    5.000    2.250    0.000    3.000 
#    0.000    0.000    0.000    0.750    0.000    0.000 
#    0.000    0.000    0.000    0.000    0.000    0.000 
#
# Total GULP energy -356692.934135 kJ/mol
# GULP energy per Si atom -5573.327096 kJ/mol
# Density = 1.917219 g / cm^3
# Si number density = 19.215930 Si / 1000 Ang^3
#
#
#
# Elastic Constant Matrix: (Units=GPa)
#
#
# Indices 1 2 3 4 5 6 
#
# 1 35.6943 19.5746 -4.7173 0.0000 0.0000 0.0000
# 2 19.5746 173.1378 42.0577 0.0000 0.0000 0.0000
# 3 -4.7173 42.0577 41.6491 0.0000 0.0000 0.0000
# 4 0.0000 0.0000 0.0000 16.5777 0.0000 0.0000
# 5 0.0000 0.0000 0.0000 0.0000 10.6781 0.0000
# 6 0.0000 0.0000 0.0000 0.0000 0.0000 25.6145
#
#
#
# Elastic Compliance Matrix: (Units=1/GPa)
#
#
# Indices 1 2 3 4 5 6 
#
# 1 0.032651 -0.006082 0.009839 0.000000 0.000000 0.000000
# 2 -0.006082 0.008786 -0.009561 0.000000 0.000000 0.000000
# 3 0.009839 -0.009561 0.034779 0.000000 0.000000 0.000000
# 4 0.000000 0.000000 0.000000 0.060322 0.000000 0.000000
# 5 0.000000 0.000000 0.000000 0.000000 0.093650 0.000000
# 6 0.000000 0.000000 0.000000 0.000000 0.000000 0.039040
#
#
# Mechanical properties :
#
#
# Convention : Reuss Voigt Hill
#
# Bulk Modulus (GPa) = 15.47744 40.47904 27.97824
# Shear Modulus (GPa) = 16.53596 23.47845 20.00720
#
# Velocity S-wave (km/s) = 2.93667 3.49925 3.23023
# Velocity P-wave (km/s) = 4.42387 6.11861 5.33892
#
# Compressibility (1/GPa) = 0.06461017
#
# Stress axis : x y z
#
# Youngs Moduli (GPa) = 30.62676 113.82025 28.75284
#
# Poissons Ratio (x) = 0.69221 -0.28291
# Poissons Ratio (y) = 0.18626 0.27490
# Poissons Ratio (z) = -0.30135 1.08821
#
# Static dielectric constant tensor:
#      x y z
#    x 1.737890 0.000000 0.000000 
#    y 0.000000 1.725830 0.000000 
#    z 0.000000 0.000000 1.655720 
# 
# From -- ./inp_files/22573.got.cif
#   From: 2010.05.17/outbox.cif.g08.bks.cpg/sg62_12_cif.got.tgz:22573.got - 2010.06.03 15:25:27.
