data_PCOD9467798
_publ_section_title
;
Structure prediction by ZEFSAII (Michael W. Deem and Ramdas Pophale) SiO2 
 PCOD9467798
Probable space group: P N M A
;
_chemical_formula_sum "Si O2"
_cell_formula_units_Z 64
_cell_length_a 15.000000
_cell_length_b 18.000000
_cell_length_c 12.000000
_cell_angle_alpha 90.000000
_cell_angle_beta 90.000000
_cell_angle_gamma 90.000000
_cell_volume 3240.000000
_symmetry_space_group_name_H-M "P N M A"
_symmetry_group_IT_number 62
_symmetry_cell_setting 'orthorhombic'
loop_
_space_group_symop_operation_xyz
x,y,z
1/2-x,-y,1/2+z
1/2+x,1/2-y,1/2-z
-x,1/2+y,-z
-x,-y,-z
1/2+x,y,1/2-z
1/2-x,1/2+y,1/2+z
x,1/2-y,z
loop_
_atom_site_type_symbol
_atom_site_label
_atom_site_fract_x
_atom_site_fract_y
_atom_site_fract_z
Si Si1 0.998922 0.401546 0.887902
Si Si2 0.841100 0.578600 0.720262
Si Si3 0.965400 0.413863 0.501805
Si Si4 0.853714 0.665499 0.512179
Si Si5 0.161629 0.565118 0.698147
Si Si6 0.165417 0.113359 0.737778
Si Si7 0.510470 0.581830 0.640188
Si Si8 0.641504 0.900841 0.215841
O O1 0.905774 0.379306 0.831083
O O2 0.081594 0.370218 0.816702
O O3 0.003351 0.491792 0.874262
O O4 0.001544 0.384631 0.018208
O O5 0.809922 0.611257 0.602331
O O6 0.761569 0.592970 0.804748
O O7 0.849307 0.490152 0.708782
O O8 0.933272 0.605005 0.773775
O O9 0.888073 0.413625 0.412948
O O10 0.928282 0.386392 0.618926
O O11 0.000000 0.500000 0.500000
O O12 0.044230 0.359055 0.471518
O O13 0.836581 0.750000 0.541234
O O14 0.834974 0.651092 0.382871
O O15 0.161523 0.475363 0.711278
O O16 0.104848 0.595522 0.801902
O O17 0.259778 0.130367 0.794984
#
# Coordination Sequence:
#
# PCOD9467798 Si02
#       8
#     8   8   8   8   8   8   8   8
#     4   9  17  30  48  82 121 144 178 239 295 342
#     4  10  20  34  54  87 116 152 193 240 301 351
#     4  12  18  38  62  89 117 150 205 263 295 343
#     4  12  24  40  60  83 123 165 197 245 314 373
#     4  10  19  31  59  87 115 146 196 252 290 342
#     4  10  20  34  54  87 116 152 193 240 301 351
#     4   9  17  30  48  82 121 144 178 239 295 342
#     4  10  19  31  59  87 115 146 196 252 290 342
#
# _framework density 19.753086
#
# number of rings (size 3 to 8) (size 9 to 14) (size 15 to 20)
#    0.000    1.750    5.000    0.750    3.500    0.000 
#    0.000    1.250    0.000    0.750    0.000    0.000 
#    0.000    0.000    0.000    0.000    0.000    0.000 
#
# Total GULP energy -356581.683519 kJ/mol
# GULP energy per Si atom -5571.588805 kJ/mol
# Density = 1.970813 g / cm^3
# Si number density = 19.753086 Si / 1000 Ang^3
#
#
#
# Elastic Constant Matrix: (Units=GPa)
#
#
# Indices 1 2 3 4 5 6 
#
# 1 66.3935 11.9286 -1.5626 0.0000 0.0000 0.0000
# 2 11.9286 -2.8282 7.2888 0.0000 0.0000 0.0000
# 3 -1.5626 7.2888 69.7102 0.0000 0.0000 0.0000
# 4 0.0000 0.0000 0.0000 -2.7087 0.0000 0.0000
# 5 0.0000 0.0000 0.0000 0.0000 27.0421 0.0000
# 6 0.0000 0.0000 0.0000 0.0000 0.0000 -0.4647
#
#
#
# Elastic Compliance Matrix: (Units=1/GPa)
#
#
# Indices 1 2 3 4 5 6 
#
# 1 0.009339 0.031451 -0.003079 0.000000 0.000000 0.000000
# 2 0.031451 -0.172600 0.018752 0.000000 0.000000 0.000000
# 3 -0.003079 0.018752 0.012315 0.000000 0.000000 0.000000
# 4 0.000000 0.000000 0.000000 -0.369179 0.000000 0.000000
# 5 0.000000 0.000000 0.000000 0.000000 0.036979 0.000000
# 6 0.000000 0.000000 0.000000 0.000000 0.000000 -2.151977
#
#
# Mechanical properties :
#
#
# Convention : Reuss Voigt Hill
#
# Bulk Modulus (GPa) = -17.63747 18.73166 0.54710
# Shear Modulus (GPa) = -1.81933 12.48178 5.33123
#
# Velocity S-wave (km/s) = -0.96075 2.51647 1.64463
# Velocity P-wave (km/s) = 3.19046 4.23639 1.97078
#
# Compressibility (1/GPa) = -0.05669747
#
# Stress axis : x y z
#
# Youngs Moduli (GPa) = 107.08314 -5.79376 81.19910
#
# Poissons Ratio (x) = 0.18222 0.25003
# Poissons Ratio (y) = -3.36792 -1.52263
# Poissons Ratio (z) = 0.32973 0.10864
#
# Static dielectric constant tensor:
#      x y z
#    x 1.733260 0.000000 0.000000 
#    y 0.000000 1.677490 0.000000 
#    z 0.000000 0.000000 1.706100 
# 
# From -- ./inp_files/13598.got.cif
#   From: 2010.05.17/outbox.ucp.g08.bks.cvg/sg62_7_cif.got.tgz:13598.got - 2010.06.11 16:29:25.
