data_PCOD9467156
_publ_section_title
;
Structure prediction by ZEFSAII (Michael W. Deem and Ramdas Pophale) SiO2 
 PCOD9467156
Probable space group: P N M A
;
_chemical_formula_sum "Si O2"
_cell_formula_units_Z 56
_cell_length_a 16.352808
_cell_length_b 20.172824
_cell_length_c 8.177153
_cell_angle_alpha 90.000000
_cell_angle_beta 90.000000
_cell_angle_gamma 90.000000
_cell_volume 2697.498184
_symmetry_space_group_name_H-M "P N M A"
_symmetry_group_IT_number 62
_symmetry_cell_setting 'orthorhombic'
loop_
_space_group_symop_operation_xyz
x,y,z
1/2-x,-y,1/2+z
1/2+x,1/2-y,1/2-z
-x,1/2+y,-z
-x,-y,-z
1/2+x,y,1/2-z
1/2-x,1/2+y,1/2+z
x,1/2-y,z
loop_
_atom_site_type_symbol
_atom_site_label
_atom_site_fract_x
_atom_site_fract_y
_atom_site_fract_z
Si Si1 0.144533 0.085295 0.253619
Si Si2 0.199260 0.322192 0.525661
Si Si3 0.552918 0.174913 0.469666
Si Si4 0.823876 0.451416 0.326245
Si Si5 0.601820 0.407726 0.764681
Si Si6 0.374232 0.369443 0.500236
Si Si7 0.921766 0.446055 0.666491
O O1 0.179162 0.112195 0.423163
O O2 0.226683 0.063148 0.156969
O O3 0.085844 0.023435 0.285650
O O4 0.097758 0.150104 0.191440
O O5 0.175193 0.250000 0.462720
O O6 0.148263 0.340641 0.684763
O O7 0.296155 0.324727 0.538561
O O8 0.577165 0.250000 0.513552
O O9 0.575896 0.111579 0.582671
O O10 0.455511 0.171612 0.463347
O O11 0.841727 0.528015 0.282270
O O12 0.870263 0.435704 0.498306
O O13 0.856529 0.411498 0.166171
O O14 0.515847 0.423317 0.855434
O O15 0.388500 0.410026 0.669334
#
# Coordination Sequence:
#
# PCOD9467156 Si02
#       7
#     8   8   8   8   8   8   8
#     4  11  24  38  64  96 126 167 214 261 328 378
#     4  11  23  41  62  89 128 173 215 257 316 391
#     4  11  24  43  65  92 131 171 214 262 314 389
#     4  11  23  40  66  97 131 162 210 272 327 374
#     4  11  23  39  65  93 125 166 210 260 330 374
#     4  10  24  42  68  95 124 171 213 266 329 378
#     4  11  23  41  65 101 129 156 216 274 322 382
#
# _framework density 20.759976999999999
#
# number of rings (size 3 to 8) (size 9 to 14) (size 15 to 20)
#    0.000    1.143    1.429    4.286    8.000    2.286 
#    0.000    0.000    0.000    5.143    0.000    0.000 
#    0.000    0.000    0.000    0.000    0.000    0.000 
#
# Total GULP energy -312049.291453 kJ/mol
# GULP energy per Si atom -5572.308776 kJ/mol
# Density = 2.071273 g / cm^3
# Si number density = 20.759977 Si / 1000 Ang^3
#
#
#
# Elastic Constant Matrix: (Units=GPa)
#
#
# Indices 1 2 3 4 5 6 
#
# 1 77.6697 34.0425 11.2003 0.0000 0.0000 0.0000
# 2 34.0425 121.5495 25.1498 0.0000 0.0000 0.0000
# 3 11.2003 25.1498 65.2489 0.0000 0.0000 0.0000
# 4 0.0000 0.0000 0.0000 -21.6456 0.0000 0.0000
# 5 0.0000 0.0000 0.0000 0.0000 26.0585 0.0000
# 6 0.0000 0.0000 0.0000 0.0000 0.0000 17.0186
#
#
#
# Elastic Compliance Matrix: (Units=1/GPa)
#
#
# Indices 1 2 3 4 5 6 
#
# 1 0.014739 -0.003917 -0.001020 0.000000 0.000000 0.000000
# 2 -0.003917 0.009981 -0.003175 0.000000 0.000000 0.000000
# 3 -0.001020 -0.003175 0.016725 0.000000 0.000000 0.000000
# 4 0.000000 0.000000 0.000000 -0.046199 0.000000 0.000000
# 5 0.000000 0.000000 0.000000 0.000000 0.038375 0.000000
# 6 0.000000 0.000000 0.000000 0.000000 0.000000 0.058759
#
#
# Mechanical properties :
#
#
# Convention : Reuss Voigt Hill
#
# Bulk Modulus (GPa) = 39.64967 45.02812 42.33889
# Shear Modulus (GPa) = 42.73105 17.22468 29.97786
#
# Velocity S-wave (km/s) = 4.54181 2.88359 3.80415
# Velocity P-wave (km/s) = 6.82969 5.72920 6.30351
#
# Compressibility (1/GPa) = 0.02522089
#
# Stress axis : x y z
#
# Youngs Moduli (GPa) = 67.84763 100.19057 59.79161
#
# Poissons Ratio (x) = 0.39243 0.06100
# Poissons Ratio (y) = 0.26575 0.18982
# Poissons Ratio (z) = 0.06922 0.31808
#
# Static dielectric constant tensor:
#      x y z
#    x 1.953500 0.000000 0.000000 
#    y 0.000000 1.680030 0.000000 
#    z 0.000000 0.000000 1.870420 
# 
# From -- ./inp_files/6783.got.cif
#   From: 2010.05.17/outbox.cif.g08.bks.cpg/sg62_4_cif.got.tgz:6783.got - 2010.06.03 15:25:27.
