data_PCOD9467482
_publ_section_title
;
Structure prediction by ZEFSAII (Michael W. Deem and Ramdas Pophale) SiO2 
 PCOD9467482
Probable space group: P N M A
;
_chemical_formula_sum "Si O2"
_cell_formula_units_Z 48
_cell_length_a 7.782355
_cell_length_b 31.730806
_cell_length_c 8.451997
_cell_angle_alpha 90.000000
_cell_angle_beta 90.000000
_cell_angle_gamma 90.000000
_cell_volume 2087.139492
_symmetry_space_group_name_H-M "P N M A"
_symmetry_group_IT_number 62
_symmetry_cell_setting 'orthorhombic'
loop_
_space_group_symop_operation_xyz
x,y,z
1/2-x,-y,1/2+z
1/2+x,1/2-y,1/2-z
-x,1/2+y,-z
-x,-y,-z
1/2+x,y,1/2-z
1/2-x,1/2+y,1/2+z
x,1/2-y,z
loop_
_atom_site_type_symbol
_atom_site_label
_atom_site_fract_x
_atom_site_fract_y
_atom_site_fract_z
Si Si1 0.366048 0.297151 0.323105
Si Si2 0.768907 0.702721 0.003170
Si Si3 0.880479 0.878980 0.174054
Si Si4 0.739179 0.959580 0.002578
Si Si5 0.874767 0.957605 0.674964
Si Si6 0.752663 0.122615 0.002260
O O1 0.294078 0.250000 0.346154
O O2 0.552249 0.297758 0.404374
O O3 0.369932 0.304459 0.134764
O O4 0.258487 0.333700 0.404967
O O5 0.746867 0.750000 0.071504
O O6 0.786562 0.664592 0.124488
O O7 0.886762 0.879867 0.363050
O O8 0.064987 0.880747 0.088942
O O9 0.779054 0.919706 0.111447
O O10 0.879631 0.961803 0.863552
O O11 0.560419 0.955585 0.907036
O O12 0.721159 0.001529 0.105599
O O13 0.778093 0.915077 0.623915
#
# Coordination Sequence:
#
# PCOD9467482 Si02
#       6
#     8   8   8   8   8   8
#     4   9  19  36  57  82 112 147 188 233 282 336
#     4   9  19  36  57  82 112 147 188 233 282 336
#     4  11  23  38  58  84 116 152 191 236 284 336
#     4  11  24  41  62  87 116 150 188 232 282 336
#     4  11  24  41  62  87 116 150 188 232 282 336
#     4  11  23  38  58  84 116 152 191 236 284 336
#
# _framework density 22.997986000000001
#
# number of rings (size 3 to 8) (size 9 to 14) (size 15 to 20)
#    0.000    1.667    0.000    4.000    0.000   11.333 
#    0.000    0.000    0.000    0.000    0.000    0.000 
#    0.000    0.000    0.000    0.000    0.000    0.000 
#
# Total GULP energy -268726.494858 kJ/mol
# GULP energy per Si atom -5598.468643 kJ/mol
# Density = 2.294564 g / cm^3
# Si number density = 22.997986 Si / 1000 Ang^3
#
#
#
# Elastic Constant Matrix: (Units=GPa)
#
#
# Indices 1 2 3 4 5 6 
#
# 1 61.1710 27.6290 -15.2504 0.0000 0.0000 0.0000
# 2 27.6290 116.8124 31.8916 0.0000 0.0000 0.0000
# 3 -15.2504 31.8916 53.9295 0.0000 0.0000 0.0000
# 4 0.0000 0.0000 0.0000 40.6762 0.0000 0.0000
# 5 0.0000 0.0000 0.0000 0.0000 33.7132 0.0000
# 6 0.0000 0.0000 0.0000 0.0000 0.0000 19.5397
#
#
#
# Elastic Compliance Matrix: (Units=1/GPa)
#
#
# Indices 1 2 3 4 5 6 
#
# 1 0.023176 -0.008671 0.011682 0.000000 0.000000 0.000000
# 2 -0.008671 0.013453 -0.010408 0.000000 0.000000 0.000000
# 3 0.011682 -0.010408 0.028001 0.000000 0.000000 0.000000
# 4 0.000000 0.000000 0.000000 0.024584 0.000000 0.000000
# 5 0.000000 0.000000 0.000000 0.000000 0.029662 0.000000
# 6 0.000000 0.000000 0.000000 0.000000 0.000000 0.051178
#
#
# Mechanical properties :
#
#
# Convention : Reuss Voigt Hill
#
# Bulk Modulus (GPa) = 20.06580 35.60591 27.83585
# Shear Modulus (GPa) = 24.81877 31.29535 28.05706
#
# Velocity S-wave (km/s) = 3.28864 3.69289 3.49661
# Velocity P-wave (km/s) = 4.81292 5.80508 5.33213
#
# Compressibility (1/GPa) = 0.04983604
#
# Stress axis : x y z
#
# Youngs Moduli (GPa) = 43.14741 74.33238 35.71339
#
# Poissons Ratio (x) = 0.64454 -0.41719
# Poissons Ratio (y) = 0.37413 0.37169
# Poissons Ratio (z) = -0.50403 0.77362
#
# Static dielectric constant tensor:
#      x y z
#    x 1.928610 0.000000 0.000000 
#    y 0.000000 1.802440 0.000000 
#    z 0.000000 0.000000 1.797900 
# 
# From -- ./inp_files/4506.got.cif
#   From: 2010.05.17/outbox.cif.g08.bks.cpg/sg62_3_cif.got.tgz:4506.got - 2010.06.03 15:25:27.
