data_PCOD9467582
_publ_section_title
;
Structure prediction by ZEFSAII (Michael W. Deem and Ramdas Pophale) SiO2 
 PCOD9467582
Probable space group: P N M A
;
_chemical_formula_sum "Si O2"
_cell_formula_units_Z 40
_cell_length_a 8.980783
_cell_length_b 13.766746
_cell_length_c 14.648755
_cell_angle_alpha 90.000000
_cell_angle_beta 90.000000
_cell_angle_gamma 90.000000
_cell_volume 1811.115794
_symmetry_space_group_name_H-M "P N M A"
_symmetry_group_IT_number 62
_symmetry_cell_setting 'orthorhombic'
loop_
_space_group_symop_operation_xyz
x,y,z
1/2-x,-y,1/2+z
1/2+x,1/2-y,1/2-z
-x,1/2+y,-z
-x,-y,-z
1/2+x,y,1/2-z
1/2-x,1/2+y,1/2+z
x,1/2-y,z
loop_
_atom_site_type_symbol
_atom_site_label
_atom_site_fract_x
_atom_site_fract_y
_atom_site_fract_z
Si Si1 0.596021 0.250000 0.623870
Si Si2 0.775731 0.581669 0.009322
Si Si3 0.799737 0.250000 0.380459
Si Si4 0.733189 0.037640 0.846237
Si Si5 0.732843 0.750000 0.306367
Si Si6 0.595069 0.250000 0.218213
Si Si7 0.104480 0.467131 0.334323
O O1 0.612548 0.347261 0.563252
O O2 0.725557 0.250000 0.699674
O O3 0.443258 0.250000 0.678363
O O4 0.685704 0.659523 0.947854
O O5 0.823822 0.505415 0.931985
O O6 0.678370 0.520732 0.080102
O O7 0.644822 0.250000 0.324167
O O8 0.918389 0.250000 0.299317
O O9 0.706730 0.152249 0.851767
O O10 0.827201 0.015184 0.756200
O O11 0.571590 0.988031 0.836094
O O12 0.642466 0.147731 0.172821
#
# Coordination Sequence:
#
# PCOD9467582 Si02
#       7
#     4   8   4   8   4   4   8
#     4  11  26  48  75 102 148 195 240 304 368 437
#     4  11  25  46  73 105 145 195 238 301 366 425
#     4  11  24  45  76 101 147 188 245 295 365 440
#     4  12  26  46  75 107 147 194 246 305 362 438
#     4  12  26  48  74 105 139 196 246 293 368 437
#     4  12  22  45  75 106 138 197 239 290 369 432
#     4  12  25  46  74 105 148 193 245 304 364 429
#
# _framework density 22.085833000000001
#
# number of rings (size 3 to 8) (size 9 to 14) (size 15 to 20)
#    0.000    0.400    6.000    1.800    0.000    2.400 
#    0.000    2.000    0.000    0.000    0.000    0.000 
#    0.000    0.000    0.000    0.000    0.000    0.000 
#
# Total GULP energy -223517.682555 kJ/mol
# GULP energy per Si atom -5587.942064 kJ/mol
# Density = 2.203556 g / cm^3
# Si number density = 22.085833 Si / 1000 Ang^3
#
#
#
# Elastic Constant Matrix: (Units=GPa)
#
#
# Indices 1 2 3 4 5 6 
#
# 1 48.3006 14.0986 41.1942 0.0000 0.0000 0.0000
# 2 14.0986 198.0295 56.1953 0.0000 0.0000 0.0000
# 3 41.1942 56.1953 143.2489 0.0000 0.0000 0.0000
# 4 0.0000 0.0000 0.0000 95.0405 0.0000 0.0000
# 5 0.0000 0.0000 0.0000 0.0000 0.4602 0.0000
# 6 0.0000 0.0000 0.0000 0.0000 0.0000 21.3842
#
#
#
# Elastic Compliance Matrix: (Units=1/GPa)
#
#
# Indices 1 2 3 4 5 6 
#
# 1 0.027450 0.000322 -0.008020 0.000000 0.000000 0.000000
# 2 0.000322 0.005686 -0.002323 0.000000 0.000000 0.000000
# 3 -0.008020 -0.002323 0.010198 0.000000 0.000000 0.000000
# 4 0.000000 0.000000 0.000000 0.010522 0.000000 0.000000
# 5 0.000000 0.000000 0.000000 0.000000 2.172809 0.000000
# 6 0.000000 0.000000 0.000000 0.000000 0.000000 0.046764
#
#
# Mechanical properties :
#
#
# Convention : Reuss Voigt Hill
#
# Bulk Modulus (GPa) = 42.93415 68.06168 55.49791
# Shear Modulus (GPa) = 2.17275 41.91638 22.04457
#
# Velocity S-wave (km/s) = 0.99293 4.36120 3.16275
# Velocity P-wave (km/s) = 4.56031 7.49959 6.20646
#
# Compressibility (1/GPa) = 0.02329148
#
# Stress axis : x y z
#
# Youngs Moduli (GPa) = 36.43022 175.86802 98.05407
#
# Poissons Ratio (x) = -0.05655 0.78638
# Poissons Ratio (y) = -0.01171 0.22779
# Poissons Ratio (z) = 0.29217 0.40855
#
# Static dielectric constant tensor:
#      x y z
#    x 1.806770 0.000000 0.000000 
#    y 0.000000 1.878850 0.000000 
#    z 0.000000 0.000000 1.782460 
# 
# From -- ./inp_files/16718.got.cif
#   From: 2010.05.17/outbox.cif.g08.bks.cpg/sg62_9_cif.got.tgz:16718.got - 2010.06.03 15:25:27.
