data_PCOD9467317
_publ_section_title
;
Structure prediction by ZEFSAII (Michael W. Deem and Ramdas Pophale) SiO2 
 PCOD9467317
Probable space group: P N M A
;
_chemical_formula_sum "Si O2"
_cell_formula_units_Z 64
_cell_length_a 9.593253
_cell_length_b 21.500833
_cell_length_c 16.386825
_cell_angle_alpha 90.000000
_cell_angle_beta 90.000000
_cell_angle_gamma 90.000000
_cell_volume 3379.994549
_symmetry_space_group_name_H-M "P N M A"
_symmetry_group_IT_number 62
_symmetry_cell_setting 'orthorhombic'
loop_
_space_group_symop_operation_xyz
x,y,z
1/2-x,-y,1/2+z
1/2+x,1/2-y,1/2-z
-x,1/2+y,-z
-x,-y,-z
1/2+x,y,1/2-z
1/2-x,1/2+y,1/2+z
x,1/2-y,z
loop_
_atom_site_type_symbol
_atom_site_label
_atom_site_fract_x
_atom_site_fract_y
_atom_site_fract_z
Si Si1 0.465151 0.996895 0.314618
Si Si2 0.248457 0.444680 0.928279
Si Si3 0.405176 0.134548 0.149008
Si Si4 0.459724 0.992748 0.121739
Si Si5 0.290241 0.677406 0.790153
Si Si6 0.822314 0.045117 0.945562
Si Si7 0.565804 0.626222 0.591395
Si Si8 0.212997 0.319513 0.015812
O O1 0.321351 0.966491 0.344434
O O2 0.482818 0.988836 0.219005
O O3 0.580599 0.961860 0.367601
O O4 0.464672 0.068241 0.347064
O O5 0.402825 0.471847 0.924827
O O6 0.168998 0.481761 0.000531
O O7 0.234263 0.372526 0.947896
O O8 0.554222 0.155362 0.185883
O O9 0.284721 0.138756 0.217971
O O10 0.345751 0.176154 0.075960
O O11 0.420924 0.065399 0.113147
O O12 0.333460 0.951672 0.088235
O O13 0.295334 0.750000 0.766548
O O14 0.183896 0.667516 0.865341
O O15 0.869659 0.097682 0.008438
O O16 0.424565 0.661805 0.568102
O O17 0.197072 0.250000 0.983980
#
# Coordination Sequence:
#
# PCOD9467317 Si02
#       8
#     8   8   8   8   8   8   8   8
#     4  11  20  39  61  90 123 155 197 256 320 375
#     4  11  22  38  61  92 121 164 203 260 321 366
#     4  12  25  41  58  91 131 170 211 251 303 371
#     4  12  24  36  64  94 127 155 204 266 322 367
#     4  12  25  40  58  86 128 174 214 246 294 373
#     4  11  21  38  60  90 121 155 201 260 312 367
#     4  11  21  40  64  88 122 164 205 258 306 369
#     4  12  24  41  62  87 125 171 215 252 303 379
#
# _framework density 18.934943000000001
#
# number of rings (size 3 to 8) (size 9 to 14) (size 15 to 20)
#    0.000    0.500    5.000    5.625    3.500    0.000 
#    0.000    0.000    0.000    0.750    0.000    0.000 
#    0.000    0.000    0.000    0.000    0.000    0.000 
#
# Total GULP energy -357827.064972 kJ/mol
# GULP energy per Si atom -5591.047890 kJ/mol
# Density = 1.889185 g / cm^3
# Si number density = 18.934943 Si / 1000 Ang^3
#
#
#
# Elastic Constant Matrix: (Units=GPa)
#
#
# Indices 1 2 3 4 5 6 
#
# 1 119.2631 26.9097 11.3370 0.0000 0.0000 0.0000
# 2 26.9097 90.3949 17.9157 0.0000 0.0000 0.0000
# 3 11.3370 17.9157 72.8232 0.0000 0.0000 0.0000
# 4 0.0000 0.0000 0.0000 22.9156 0.0000 0.0000
# 5 0.0000 0.0000 0.0000 0.0000 37.2897 0.0000
# 6 0.0000 0.0000 0.0000 0.0000 0.0000 19.5353
#
#
#
# Elastic Compliance Matrix: (Units=1/GPa)
#
#
# Indices 1 2 3 4 5 6 
#
# 1 0.009031 -0.002533 -0.000783 0.000000 0.000000 0.000000
# 2 -0.002533 0.012340 -0.002642 0.000000 0.000000 0.000000
# 3 -0.000783 -0.002642 0.014504 0.000000 0.000000 0.000000
# 4 0.000000 0.000000 0.000000 0.043638 0.000000 0.000000
# 5 0.000000 0.000000 0.000000 0.000000 0.026817 0.000000
# 6 0.000000 0.000000 0.000000 0.000000 0.000000 0.051189
#
#
# Mechanical properties :
#
#
# Convention : Reuss Voigt Hill
#
# Bulk Modulus (GPa) = 41.73674 43.86733 42.80204
# Shear Modulus (GPa) = 28.18153 31.03602 29.60878
#
# Velocity S-wave (km/s) = 3.86208 4.05296 3.95867
# Velocity P-wave (km/s) = 6.47901 6.71711 6.59914
#
# Compressibility (1/GPa) = 0.02395970
#
# Stress axis : x y z
#
# Youngs Moduli (GPa) = 110.73201 81.03569 68.94840
#
# Poissons Ratio (x) = 0.20528 0.05396
# Poissons Ratio (y) = 0.28051 0.18213
# Poissons Ratio (z) = 0.08667 0.21406
#
# Static dielectric constant tensor:
#      x y z
#    x 1.767190 0.000000 0.000000 
#    y 0.000000 1.649860 0.000000 
#    z 0.000000 0.000000 1.668930 
# 
# From -- ./inp_files/22590.got.cif
#   From: 2010.05.17/outbox.cif.g08.bks.cpg/sg62_12_cif.got.tgz:22590.got - 2010.06.03 15:25:27.
