data_PCOD9467401
_publ_section_title
;
Structure prediction by ZEFSAII (Michael W. Deem and Ramdas Pophale) SiO2 
 PCOD9467401
Probable space group: P N M A
;
_chemical_formula_sum "Si O2"
_cell_formula_units_Z 64
_cell_length_a 11.848785
_cell_length_b 8.697436
_cell_length_c 34.053340
_cell_angle_alpha 90.000000
_cell_angle_beta 90.000000
_cell_angle_gamma 90.000000
_cell_volume 3509.334576
_symmetry_space_group_name_H-M "P N M A"
_symmetry_group_IT_number 62
_symmetry_cell_setting 'orthorhombic'
loop_
_space_group_symop_operation_xyz
x,y,z
1/2-x,-y,1/2+z
1/2+x,1/2-y,1/2-z
-x,1/2+y,-z
-x,-y,-z
1/2+x,y,1/2-z
1/2-x,1/2+y,1/2+z
x,1/2-y,z
loop_
_atom_site_type_symbol
_atom_site_label
_atom_site_fract_x
_atom_site_fract_y
_atom_site_fract_z
Si Si1 0.543229 0.566015 0.802245
Si Si2 0.922887 0.935650 0.443999
Si Si3 0.158612 0.064672 0.471538
Si Si4 0.544194 0.434747 0.363264
Si Si5 0.707707 0.433990 0.865285
Si Si6 0.192478 0.567424 0.331219
Si Si7 0.321124 0.435671 0.405929
Si Si8 0.100558 0.565310 0.786386
O O1 0.535043 0.750000 0.804050
O O2 0.648995 0.509959 0.827714
O O3 0.430274 0.494443 0.820299
O O4 0.558801 0.521366 0.756713
O O5 0.930985 0.750000 0.443968
O O6 0.853567 0.983404 0.483089
O O7 0.861667 0.983146 0.404115
O O8 0.047715 0.003095 0.449317
O O9 0.155024 0.250000 0.470889
O O10 0.269312 0.015448 0.447569
O O11 0.559023 0.250000 0.365666
O O12 0.663006 0.515587 0.368757
O O13 0.448007 0.483053 0.394583
O O14 0.490034 0.469467 0.320533
O O15 0.700016 0.250000 0.862132
O O16 0.189713 0.750000 0.334549
O O17 0.239284 0.496840 0.371731
O O18 0.283112 0.515245 0.298507
O O19 0.319625 0.250000 0.403944
O O20 0.119010 0.750000 0.787196
#
# Coordination Sequence:
#
# PCOD9467401 Si02
#       8
#     8   8   8   8   8   8   8   8
#     4  11  23  38  58  79 104 142 185 224 265 319
#     4   9  19  34  51  78 115 146 174 220 279 329
#     4   9  17  32  57  82 105 139 184 229 268 314
#     4   9  19  37  57  77 103 140 184 227 270 322
#     4  11  23  37  53  79 114 147 178 220 279 334
#     4  11  22  35  54  82 113 137 168 220 276 325
#     4   9  18  35  58  80 103 140 189 228 263 316
#     4   9  21  40  59  77 101 139 185 225 265 315
#
# _framework density 18.237076999999999
#
# number of rings (size 3 to 8) (size 9 to 14) (size 15 to 20)
#    0.000    2.250    0.000    3.375    1.750    6.500 
#    0.000    0.625    0.000    0.000    0.000    0.000 
#    0.000    0.000    0.000    0.000    0.000    0.000 
#
# Total GULP energy -357254.565863 kJ/mol
# GULP energy per Si atom -5582.102592 kJ/mol
# Density = 1.819557 g / cm^3
# Si number density = 18.237077 Si / 1000 Ang^3
#
#
#
# Elastic Constant Matrix: (Units=GPa)
#
#
# Indices 1 2 3 4 5 6 
#
# 1 45.5677 5.1204 10.9086 0.0000 0.0000 0.0000
# 2 5.1204 10.1222 5.9667 0.0000 0.0000 0.0000
# 3 10.9086 5.9667 55.9344 0.0000 0.0000 0.0000
# 4 0.0000 0.0000 0.0000 7.4781 0.0000 0.0000
# 5 0.0000 0.0000 0.0000 0.0000 10.9994 0.0000
# 6 0.0000 0.0000 0.0000 0.0000 0.0000 18.9692
#
#
#
# Elastic Compliance Matrix: (Units=1/GPa)
#
#
# Indices 1 2 3 4 5 6 
#
# 1 0.023929 -0.009982 -0.003602 0.000000 0.000000 0.000000
# 2 -0.009982 0.109586 -0.009743 0.000000 0.000000 0.000000
# 3 -0.003602 -0.009743 0.019620 0.000000 0.000000 0.000000
# 4 0.000000 0.000000 0.000000 0.133723 0.000000 0.000000
# 5 0.000000 0.000000 0.000000 0.000000 0.090914 0.000000
# 6 0.000000 0.000000 0.000000 0.000000 0.000000 0.052717
#
#
# Mechanical properties :
#
#
# Convention : Reuss Voigt Hill
#
# Bulk Modulus (GPa) = 9.39135 17.29066 13.34100
# Shear Modulus (GPa) = 9.75349 13.46458 11.60904
#
# Velocity S-wave (km/s) = 2.31512 2.72013 2.52576
# Velocity P-wave (km/s) = 3.50815 4.40081 3.97959
#
# Compressibility (1/GPa) = 0.10648101
#
# Stress axis : x y z
#
# Youngs Moduli (GPa) = 41.78978 9.12529 50.96864
#
# Poissons Ratio (x) = 0.09109 0.18359
# Poissons Ratio (y) = 0.41713 0.49660
# Poissons Ratio (z) = 0.15053 0.08891
#
# Static dielectric constant tensor:
#      x y z
#    x 1.599850 0.000000 0.000000 
#    y 0.000000 1.605640 0.000000 
#    z 0.000000 0.000000 1.637010 
# 
# From -- ./inp_files/32510.got.cif
#   From: 2010.05.17/outbox.cif.g08.bks.cpg/sg62_17_cif.got.tgz:32510.got - 2010.06.03 15:25:27.
