data_PCOD9467785
_publ_section_title
;
Structure prediction by ZEFSAII (Michael W. Deem and Ramdas Pophale) SiO2 
 PCOD9467785
Probable space group: P N M A
;
_chemical_formula_sum "Si O2"
_cell_formula_units_Z 64
_cell_length_a 15.000000
_cell_length_b 9.000000
_cell_length_c 30.000000
_cell_angle_alpha 90.000000
_cell_angle_beta 90.000000
_cell_angle_gamma 90.000000
_cell_volume 4050.000000
_symmetry_space_group_name_H-M "P N M A"
_symmetry_group_IT_number 62
_symmetry_cell_setting 'orthorhombic'
loop_
_space_group_symop_operation_xyz
x,y,z
1/2-x,-y,1/2+z
1/2+x,1/2-y,1/2-z
-x,1/2+y,-z
-x,-y,-z
1/2+x,y,1/2-z
1/2-x,1/2+y,1/2+z
x,1/2-y,z
loop_
_atom_site_type_symbol
_atom_site_label
_atom_site_fract_x
_atom_site_fract_y
_atom_site_fract_z
Si Si1 0.099361 0.073542 0.051665
Si Si2 0.784873 0.928926 0.283913
Si Si3 0.659861 0.926226 0.365152
Si Si4 0.684470 0.073593 0.637889
Si Si5 0.977088 0.419138 0.279956
Si Si6 0.988653 0.081343 0.174542
Si Si7 0.408327 0.573354 0.450847
Si Si8 0.159059 0.571966 0.299724
O O1 0.099739 0.250000 0.055813
O O2 0.165514 0.002253 0.087025
O O3 0.119888 0.032798 0.000647
O O4 0.999311 0.012675 0.060172
O O5 0.792947 0.750000 0.280970
O O6 0.734678 0.968705 0.329557
O O7 0.720442 0.974990 0.242763
O O8 0.882584 0.998782 0.283744
O O9 0.659616 0.750000 0.369901
O O10 0.565573 0.979141 0.345252
O O11 0.670224 0.250000 0.646281
O O12 0.666230 0.045388 0.586038
O O13 0.780641 0.036821 0.657325
O O14 0.607698 0.983857 0.663099
O O15 0.968595 0.250000 0.295919
O O16 0.062545 0.498511 0.301158
O O17 0.998431 0.416521 0.227406
O O18 0.997585 0.250000 0.157457
O O19 0.429067 0.750000 0.450131
O O20 0.147681 0.750000 0.296090
#
# Coordination Sequence:
#
# PCOD9467785 Si02
#       8
#     8   8   8   8   8   8   8   8
#     4  10  19  30  46  71 101 130 162 201 248 296
#     4  10  21  35  52  72  95 130 172 206 239 288
#     4  11  21  33  49  70  97 133 172 205 239 287
#     4  10  19  32  51  72  95 131 170 202 237 284
#     4  11  23  35  49  71 102 133 163 206 251 289
#     4  11  21  30  45  71 101 132 164 201 243 288
#     4   9  18  31  47  70 100 131 163 200 244 295
#     4  10  20  34  52  72  96 130 170 202 237 290
#
# _framework density 15.802469
#
# number of rings (size 3 to 8) (size 9 to 14) (size 15 to 20)
#    0.000    1.750    3.750    1.500    0.000    3.500 
#    0.000    0.000    0.000    0.000    0.000    0.875 
#    0.000    0.000    0.000    0.000    0.000    0.000 
#
# Total GULP energy -356925.065282 kJ/mol
# GULP energy per Si atom -5576.954145 kJ/mol
# Density = 1.576650 g / cm^3
# Si number density = 15.802469 Si / 1000 Ang^3
#
#
#
# Elastic Constant Matrix: (Units=GPa)
#
#
# Indices 1 2 3 4 5 6 
#
# 1 56.2209 25.2197 21.0576 0.0000 0.0000 0.0000
# 2 25.2197 21.8124 32.1806 0.0000 0.0000 0.0000
# 3 21.0576 32.1806 83.7745 0.0000 0.0000 0.0000
# 4 0.0000 0.0000 0.0000 18.8949 0.0000 0.0000
# 5 0.0000 0.0000 0.0000 0.0000 15.1932 0.0000
# 6 0.0000 0.0000 0.0000 0.0000 0.0000 -293.4786
#
#
#
# Elastic Compliance Matrix: (Units=1/GPa)
#
#
# Indices 1 2 3 4 5 6 
#
# 1 0.050312 -0.091197 0.022385 0.000000 0.000000 0.000000
# 2 -0.091197 0.271117 -0.081222 0.000000 0.000000 0.000000
# 3 0.022385 -0.081222 0.037510 0.000000 0.000000 0.000000
# 4 0.000000 0.000000 0.000000 0.052924 0.000000 0.000000
# 5 0.000000 0.000000 0.000000 0.000000 0.065819 0.000000
# 6 0.000000 0.000000 0.000000 0.000000 0.000000 -0.003407
#
#
# Mechanical properties :
#
#
# Convention : Reuss Voigt Hill
#
# Bulk Modulus (GPa) = 16.98587 35.41375 26.19981
# Shear Modulus (GPa) = 6.29750 -46.32144 -20.01197
#
# Velocity S-wave (km/s) = 1.99845 -5.42000 -3.56249
# Velocity P-wave (km/s) = 4.01214 4.08774 0.55335
#
# Compressibility (1/GPa) = 0.05887247
#
# Stress axis : x y z
#
# Youngs Moduli (GPa) = 19.87606 3.68844 26.65953
#
# Poissons Ratio (x) = 0.33637 -0.59678
# Poissons Ratio (y) = 1.81263 2.16534
# Poissons Ratio (z) = -0.44493 0.29958
#
# Static dielectric constant tensor:
#      x y z
#    x 1.488570 0.000000 0.000000 
#    y 0.000000 1.529830 0.000000 
#    z 0.000000 0.000000 1.566120 
# 
# From -- ./inp_files/32701.got.cif
#   From: 2010.05.17/outbox.ucp.g08.bks.cvg/sg62_17_cif.got.tgz:32701.got - 2010.06.11 16:29:25.
