data_PCOD9467615
_publ_section_title
;
Structure prediction by ZEFSAII (Michael W. Deem and Ramdas Pophale) SiO2 
 PCOD9467615
Probable space group: P N M A
;
_chemical_formula_sum "Si O2"
_cell_formula_units_Z 36
_cell_length_a 8.656746
_cell_length_b 19.730125
_cell_length_c 8.238897
_cell_angle_alpha 90.000000
_cell_angle_beta 90.000000
_cell_angle_gamma 90.000000
_cell_volume 1407.192738
_symmetry_space_group_name_H-M "P N M A"
_symmetry_group_IT_number 62
_symmetry_cell_setting 'orthorhombic'
loop_
_space_group_symop_operation_xyz
x,y,z
1/2-x,-y,1/2+z
1/2+x,1/2-y,1/2-z
-x,1/2+y,-z
-x,-y,-z
1/2+x,y,1/2-z
1/2-x,1/2+y,1/2+z
x,1/2-y,z
loop_
_atom_site_type_symbol
_atom_site_label
_atom_site_fract_x
_atom_site_fract_y
_atom_site_fract_z
Si Si1 0.833081 0.100243 0.395611
Si Si2 0.858881 0.750000 0.196432
Si Si3 0.393445 0.250000 0.414551
Si Si4 0.328544 0.483989 0.441171
Si Si5 0.801269 0.250000 0.414302
Si Si6 0.338495 0.638419 0.041834
O O1 0.826584 0.055881 0.230648
O O2 0.742950 0.172142 0.386191
O O3 0.007628 0.120519 0.442256
O O4 0.766137 0.053315 0.538648
O O5 0.878132 0.817314 0.300982
O O6 0.688892 0.750000 0.110129
O O7 0.970069 0.750000 0.042035
O O8 0.435548 0.250000 0.224340
O O9 0.284318 0.313494 0.451702
O O10 0.500000 0.500000 0.500000
O O11 0.248572 0.431730 0.565910
#
# Coordination Sequence:
#
# PCOD9467615 Si02
#       6
#     8   4   4   8   4   8
#     4  12  29  54  83 122 171 221 288 347 429 509
#     4  11  30  49  85 125 168 217 284 357 426 507
#     4  11  26  46  84 121 158 218 281 345 430 507
#     4  12  29  52  83 121 170 229 282 351 425 512
#     4  12  28  51  85 114 160 215 279 348 422 494
#     4  11  27  52  80 123 166 217 283 346 422 500
#
# _framework density 25.582847999999998
#
# number of rings (size 3 to 8) (size 9 to 14) (size 15 to 20)
#    0.000    0.444    2.222    3.333   15.556    0.000 
#    0.000    0.000    0.000    0.000    0.000    0.000 
#    0.000    0.000    0.000    0.000    0.000    0.000 
#
# Total GULP energy -201247.039264 kJ/mol
# GULP energy per Si atom -5590.195535 kJ/mol
# Density = 2.552462 g / cm^3
# Si number density = 25.582848 Si / 1000 Ang^3
#
#
#
# Elastic Constant Matrix: (Units=GPa)
#
#
# Indices 1 2 3 4 5 6 
#
# 1 132.5487 72.8596 55.4445 0.0000 0.0000 0.0000
# 2 72.8596 241.1911 97.7157 0.0000 0.0000 0.0000
# 3 55.4445 97.7157 167.0240 0.0000 0.0000 0.0000
# 4 0.0000 0.0000 0.0000 62.7743 0.0000 0.0000
# 5 0.0000 0.0000 0.0000 0.0000 44.2211 0.0000
# 6 0.0000 0.0000 0.0000 0.0000 0.0000 57.6331
#
#
#
# Elastic Compliance Matrix: (Units=1/GPa)
#
#
# Indices 1 2 3 4 5 6 
#
# 1 0.009500 -0.002087 -0.001933 0.000000 0.000000 0.000000
# 2 -0.002087 0.005892 -0.002755 0.000000 0.000000 0.000000
# 3 -0.001933 -0.002755 0.008240 0.000000 0.000000 0.000000
# 4 0.000000 0.000000 0.000000 0.015930 0.000000 0.000000
# 5 0.000000 0.000000 0.000000 0.000000 0.022614 0.000000
# 6 0.000000 0.000000 0.000000 0.000000 0.000000 0.017351
#
#
# Mechanical properties :
#
#
# Convention : Reuss Voigt Hill
#
# Bulk Modulus (GPa) = 99.16202 110.31150 104.73676
# Shear Modulus (GPa) = 51.84724 53.90864 52.87794
#
# Velocity S-wave (km/s) = 4.50671 4.59542 4.55128
# Velocity P-wave (km/s) = 8.11947 8.44809 8.28541
#
# Compressibility (1/GPa) = 0.01008451
#
# Stress axis : x y z
#
# Youngs Moduli (GPa) = 105.26448 169.70849 121.35475
#
# Poissons Ratio (x) = 0.35414 0.23454
# Poissons Ratio (y) = 0.21966 0.33429
# Poissons Ratio (z) = 0.20345 0.46748
#
# Static dielectric constant tensor:
#      x y z
#    x 2.187730 0.000000 0.000000 
#    y 0.000000 2.042270 0.000000 
#    z 0.000000 0.000000 2.057100 
# 
# From -- ./inp_files/4226.got.cif
#   From: 2010.05.17/outbox.cif.g08.bks.cpg/sg62_3_cif.got.tgz:4226.got - 2010.06.03 15:25:27.
