data_PCOD9467915
_publ_section_title
;
Structure prediction by ZEFSAII (Michael W. Deem and Ramdas Pophale) SiO2 
 PCOD9467915
Probable space group: P N M A
;
_chemical_formula_sum "Si O2"
_cell_formula_units_Z 64
_cell_length_a 21.000000
_cell_length_b 9.000000
_cell_length_c 18.000000
_cell_angle_alpha 90.000000
_cell_angle_beta 90.000000
_cell_angle_gamma 90.000000
_cell_volume 3402.000000
_symmetry_space_group_name_H-M "P N M A"
_symmetry_group_IT_number 62
_symmetry_cell_setting 'orthorhombic'
loop_
_space_group_symop_operation_xyz
x,y,z
1/2-x,-y,1/2+z
1/2+x,1/2-y,1/2-z
-x,1/2+y,-z
-x,-y,-z
1/2+x,y,1/2-z
1/2-x,1/2+y,1/2+z
x,1/2-y,z
loop_
_atom_site_type_symbol
_atom_site_label
_atom_site_fract_x
_atom_site_fract_y
_atom_site_fract_z
Si Si1 0.458528 0.926146 0.711190
Si Si2 0.676646 0.924492 0.093469
Si Si3 0.907995 0.930386 0.217830
Si Si4 0.454918 0.924705 0.890544
Si Si5 0.184981 0.424401 0.152842
Si Si6 0.597867 0.570337 0.881197
Si Si7 0.722418 0.425771 0.952712
Si Si8 0.272354 0.076041 0.297030
O O1 0.469255 0.750000 0.697137
O O2 0.453222 0.944198 0.800691
O O3 0.387376 0.963379 0.679413
O O4 0.522582 0.015495 0.685314
O O5 0.675698 0.750000 0.107625
O O6 0.604486 0.981037 0.080222
O O7 0.712209 0.013052 0.157897
O O8 0.719393 0.969671 0.023994
O O9 0.907944 0.750000 0.223360
O O10 0.907606 0.015948 0.296616
O O11 0.838197 0.985634 0.187826
O O12 0.444013 0.750000 0.906386
O O13 0.527368 0.961626 0.914810
O O14 0.182681 0.250000 0.130173
O O15 0.213503 0.533107 0.091133
O O16 0.241745 0.432646 0.214588
O O17 0.608318 0.750000 0.885612
O O18 0.657240 0.478132 0.912120
O O19 0.719251 0.250000 0.968615
O O20 0.284056 0.250000 0.313408
#
# Coordination Sequence:
#
# PCOD9467915 Si02
#       8
#     8   8   8   8   8   8   8   8
#     4   9  18  35  58  84 114 150 187 230 284 339
#     4  12  25  39  57  82 116 153 194 239 288 344
#     4  11  21  33  54  88 120 148 187 235 283 335
#     4   9  18  35  56  80 112 152 194 232 280 338
#     4  10  20  37  62  86 113 150 192 236 286 339
#     4  10  20  36  56  79 113 154 193 233 281 336
#     4  12  25  39  57  82 116 153 195 239 287 343
#     4  11  21  38  62  85 114 152 192 238 287 336
#
# _framework density 18.812463000000001
#
# number of rings (size 3 to 8) (size 9 to 14) (size 15 to 20)
#    0.000    1.500    2.500    4.875    0.000    4.000 
#    0.000    0.000    0.000    0.750    0.000    0.000 
#    0.000    0.000    0.000    0.000    0.000    0.000 
#
# Total GULP energy -356689.738340 kJ/mol
# GULP energy per Si atom -5573.277162 kJ/mol
# Density = 1.876965 g / cm^3
# Si number density = 18.812463 Si / 1000 Ang^3
#
#
#
# Elastic Constant Matrix: (Units=GPa)
#
#
# Indices 1 2 3 4 5 6 
#
# 1 98.8746 23.6764 -11.5828 0.0000 0.0000 0.0000
# 2 23.6764 5.5469 -22.5600 0.0000 0.0000 0.0000
# 3 -11.5828 -22.5600 6.5143 0.0000 0.0000 0.0000
# 4 0.0000 0.0000 0.0000 18.2572 0.0000 0.0000
# 5 0.0000 0.0000 0.0000 0.0000 16.3497 0.0000
# 6 0.0000 0.0000 0.0000 0.0000 0.0000 38.3730
#
#
#
# Elastic Compliance Matrix: (Units=1/GPa)
#
#
# Indices 1 2 3 4 5 6 
#
# 1 0.012195 -0.002762 0.012119 0.000000 0.000000 0.000000
# 2 -0.002762 -0.013152 -0.050458 0.000000 0.000000 0.000000
# 3 0.012119 -0.050458 0.000313 0.000000 0.000000 0.000000
# 4 0.000000 0.000000 0.000000 0.054773 0.000000 0.000000
# 5 0.000000 0.000000 0.000000 0.000000 0.061163 0.000000
# 6 0.000000 0.000000 0.000000 0.000000 0.000000 0.026060
#
#
# Mechanical properties :
#
#
# Convention : Reuss Voigt Hill
#
# Bulk Modulus (GPa) = -12.07066 10.00034 -1.03516
# Shear Modulus (GPa) = 25.51830 22.68944 24.10387
#
# Velocity S-wave (km/s) = 3.68701 3.47664 3.58337
# Velocity P-wave (km/s) = 3.41981 4.63070 4.07054
#
# Compressibility (1/GPa) = -0.08284549
#
# Stress axis : x y z
#
# Youngs Moduli (GPa) = 82.00183 -76.03331 3196.34565
#
# Poissons Ratio (x) = -0.20997 -38.73764
# Poissons Ratio (y) = 0.22646 161.28212
# Poissons Ratio (z) = -0.99381 -3.83651
#
# Static dielectric constant tensor:
#      x y z
#    x 1.679430 0.000000 0.000000 
#    y 0.000000 1.621210 0.000000 
#    z 0.000000 0.000000 1.845130 
# 
# From -- ./inp_files/24755.got.cif
#   From: 2010.05.17/outbox.ucp.g08.bks.cvg/sg62_13_cif.got.tgz:24755.got - 2010.06.11 16:29:25.
