data_PCOD9467153
_publ_section_title
;
Structure prediction by ZEFSAII (Michael W. Deem and Ramdas Pophale) SiO2 
 PCOD9467153
Probable space group: P N M A
;
_chemical_formula_sum "Si O2"
_cell_formula_units_Z 28
_cell_length_a 13.239942
_cell_length_b 17.809348
_cell_length_c 4.899377
_cell_angle_alpha 90.000000
_cell_angle_beta 90.000000
_cell_angle_gamma 90.000000
_cell_volume 1155.247299
_symmetry_space_group_name_H-M "P N M A"
_symmetry_group_IT_number 62
_symmetry_cell_setting 'orthorhombic'
loop_
_space_group_symop_operation_xyz
x,y,z
1/2-x,-y,1/2+z
1/2+x,1/2-y,1/2-z
-x,1/2+y,-z
-x,-y,-z
1/2+x,y,1/2-z
1/2-x,1/2+y,1/2+z
x,1/2-y,z
loop_
_atom_site_type_symbol
_atom_site_label
_atom_site_fract_x
_atom_site_fract_y
_atom_site_fract_z
Si Si1 0.667040 0.888434 0.719079
Si Si2 0.453689 0.613114 0.451719
Si Si3 0.796294 0.750000 0.940585
Si Si4 0.133997 0.462969 0.450114
O O1 0.567097 0.871259 0.546428
O O2 0.713517 0.815683 0.861002
O O3 0.757402 0.922513 0.534984
O O4 0.644631 0.954085 0.935896
O O5 0.381711 0.684325 0.497228
O O6 0.439501 0.584578 0.145634
O O7 0.408151 0.547504 0.646613
#
# Coordination Sequence:
#
# PCOD9467153 Si02
#       4
#     8   8   4   8
#     4  11  23  46  71 100 139 177 221 287 332 396
#     4  11  25  45  68 101 137 177 225 279 339 400
#     4  10  24  42  66 100 134 176 222 264 336 404
#     4  11  25  43  70 102 131 176 233 275 336 403
#
# _framework density 24.237235999999999
#
# number of rings (size 3 to 8) (size 9 to 14) (size 15 to 20)
#    0.000    1.143    0.000    6.000    0.000   11.429 
#    0.000    2.857    0.000    0.000    0.000    0.000 
#    0.000    0.000    0.000    0.000    0.000    0.000 
#
# Total GULP energy -156039.801540 kJ/mol
# GULP energy per Si atom -5572.850055 kJ/mol
# Density = 2.418207 g / cm^3
# Si number density = 24.237236 Si / 1000 Ang^3
#
#
#
# Elastic Constant Matrix: (Units=GPa)
#
#
# Indices 1 2 3 4 5 6 
#
# 1 152.1727 45.2359 9.5296 0.0000 0.0000 0.0000
# 2 45.2359 191.2567 8.1305 0.0000 0.0000 0.0000
# 3 9.5296 8.1305 60.2235 0.0000 0.0000 0.0000
# 4 0.0000 0.0000 0.0000 -3.5003 0.0000 0.0000
# 5 0.0000 0.0000 0.0000 0.0000 38.8120 0.0000
# 6 0.0000 0.0000 0.0000 0.0000 0.0000 26.8656
#
#
#
# Elastic Compliance Matrix: (Units=1/GPa)
#
#
# Indices 1 2 3 4 5 6 
#
# 1 0.007117 -0.001645 -0.000904 0.000000 0.000000 0.000000
# 2 -0.001645 0.005639 -0.000501 0.000000 0.000000 0.000000
# 3 -0.000904 -0.000501 0.016816 0.000000 0.000000 0.000000
# 4 0.000000 0.000000 0.000000 -0.285689 0.000000 0.000000
# 5 0.000000 0.000000 0.000000 0.000000 0.025765 0.000000
# 6 0.000000 0.000000 0.000000 0.000000 0.000000 0.037222
#
#
# Mechanical properties :
#
#
# Convention : Reuss Voigt Hill
#
# Bulk Modulus (GPa) = 42.60490 58.82723 50.71606
# Shear Modulus (GPa) = -27.90092 35.15257 3.62583
#
# Velocity S-wave (km/s) = -3.39655 3.81248 1.22443
# Velocity P-wave (km/s) = 1.49477 6.61091 4.79262
#
# Compressibility (1/GPa) = 0.02347148
#
# Stress axis : x y z
#
# Youngs Moduli (GPa) = 140.50723 177.33890 59.46891
#
# Poissons Ratio (x) = 0.29170 0.05377
# Poissons Ratio (y) = 0.23112 0.02979
# Poissons Ratio (z) = 0.12704 0.08885
#
# Static dielectric constant tensor:
#      x y z
#    x 1.978510 0.000000 0.000000 
#    y 0.000000 1.850390 0.000000 
#    z 0.000000 0.000000 1.946340 
# 
# From -- ./inp_files/852.got.cif
#   From: 2010.05.17/outbox.cif.g08.bks.cpg/sg62_1_cif.got.tgz:852.got - 2010.06.03 15:25:27.
