data_PCOD9467843
_publ_section_title
;
Structure prediction by ZEFSAII (Michael W. Deem and Ramdas Pophale) SiO2 
 PCOD9467843
Probable space group: P N M A
;
_chemical_formula_sum "Si O2"
_cell_formula_units_Z 64
_cell_length_a 12.000000
_cell_length_b 15.000000
_cell_length_c 18.000000
_cell_angle_alpha 90.000000
_cell_angle_beta 90.000000
_cell_angle_gamma 90.000000
_cell_volume 3240.000000
_symmetry_space_group_name_H-M "P N M A"
_symmetry_group_IT_number 62
_symmetry_cell_setting 'orthorhombic'
loop_
_space_group_symop_operation_xyz
x,y,z
1/2-x,-y,1/2+z
1/2+x,1/2-y,1/2-z
-x,1/2+y,-z
-x,-y,-z
1/2+x,y,1/2-z
1/2-x,1/2+y,1/2+z
x,1/2-y,z
loop_
_atom_site_type_symbol
_atom_site_label
_atom_site_fract_x
_atom_site_fract_y
_atom_site_fract_z
Si Si1 0.265802 0.149378 0.699847
Si Si2 0.456601 0.851622 0.812287
Si Si3 0.954242 0.092959 0.032701
Si Si4 0.738130 0.351223 0.626059
Si Si5 0.257082 0.542655 0.871137
Si Si6 0.519919 0.651111 0.374918
Si Si7 0.829513 0.026968 0.300616
Si Si8 0.143828 0.150857 0.146115
O O1 0.250243 0.250000 0.669767
O O2 0.271716 0.157241 0.788227
O O3 0.382629 0.106610 0.672126
O O4 0.170784 0.078038 0.681551
O O5 0.488890 0.750000 0.831190
O O6 0.359090 0.889525 0.864235
O O7 0.556940 0.921040 0.811571
O O8 0.410619 0.849855 0.727876
O O9 0.841225 0.079374 0.077558
O O10 0.048910 0.131230 0.086320
O O11 0.939826 0.151442 0.959329
O O12 0.000000 0.000000 0.000000
O O13 0.748995 0.250000 0.593106
O O14 0.793416 0.443776 0.600039
O O15 0.607112 0.379020 0.624635
O O16 0.209684 0.534450 0.786034
O O17 0.512016 0.750000 0.342111
O O18 0.739197 0.077232 0.351398
O O19 0.190404 0.250000 0.133234
#
# Coordination Sequence:
#
# PCOD9467843 Si02
#       8
#     8   8   8   8   8   8   8   8
#     4   9  19  33  54  81 112 146 190 238 291 346
#     4  10  21  37  57  82 117 155 198 244 291 346
#     4  12  21  34  56  85 122 153 190 236 290 348
#     4   9  18  33  53  79 110 144 185 234 287 339
#     4  10  21  34  54  84 116 151 192 236 289 346
#     4  10  20  34  53  82 115 149 184 231 289 348
#     4  10  19  35  58  81 116 149 196 245 296 340
#     4  10  21  35  55  86 117 154 196 244 296 347
#
# _framework density 19.753086
#
# number of rings (size 3 to 8) (size 9 to 14) (size 15 to 20)
#    0.000    2.000    2.500    1.500    0.000    4.500 
#    0.000    1.875    0.000    3.000    0.000    1.750 
#    0.000    0.000    0.000    0.000    0.000    0.000 
#
# Total GULP energy -356511.737724 kJ/mol
# GULP energy per Si atom -5570.495902 kJ/mol
# Density = 1.970813 g / cm^3
# Si number density = 19.753086 Si / 1000 Ang^3
#
#
#
# Elastic Constant Matrix: (Units=GPa)
#
#
# Indices 1 2 3 4 5 6 
#
# 1 10.2132 6.1454 -11.0891 0.0000 0.0000 0.0000
# 2 6.1454 81.0621 -12.5771 0.0000 0.0000 0.0000
# 3 -11.0891 -12.5771 19.9110 0.0000 0.0000 0.0000
# 4 0.0000 0.0000 0.0000 13.5871 0.0000 0.0000
# 5 0.0000 0.0000 0.0000 0.0000 14.6665 0.0000
# 6 0.0000 0.0000 0.0000 0.0000 0.0000 99.7304
#
#
#
# Elastic Compliance Matrix: (Units=1/GPa)
#
#
# Indices 1 2 3 4 5 6 
#
# 1 0.248313 0.002918 0.140137 0.000000 0.000000 0.000000
# 2 0.002918 0.013711 0.010286 0.000000 0.000000 0.000000
# 3 0.140137 0.010286 0.134768 0.000000 0.000000 0.000000
# 4 0.000000 0.000000 0.000000 0.073599 0.000000 0.000000
# 5 0.000000 0.000000 0.000000 0.000000 0.068182 0.000000
# 6 0.000000 0.000000 0.000000 0.000000 0.000000 0.010027
#
#
# Mechanical properties :
#
#
# Convention : Reuss Voigt Hill
#
# Bulk Modulus (GPa) = 1.42152 8.46052 4.94102
# Shear Modulus (GPa) = 10.49517 34.17728 22.33623
#
# Velocity S-wave (km/s) = 2.30753 4.16411 3.36634
# Velocity P-wave (km/s) = 2.79657 5.23566 4.19720
#
# Compressibility (1/GPa) = 0.70347364
#
# Stress axis : x y z
#
# Youngs Moduli (GPa) = 4.02718 72.93474 7.42016
#
# Poissons Ratio (x) = -0.21282 -1.03984
# Poissons Ratio (y) = -0.01175 -0.07632
# Poissons Ratio (z) = -0.56436 -0.75019
#
# Static dielectric constant tensor:
#      x y z
#    x 1.724710 0.000000 0.000000 
#    y 0.000000 1.972280 0.000000 
#    z 0.000000 0.000000 1.677230 
# 
# From -- ./inp_files/23211.got.cif
#   From: 2010.05.17/outbox.ucp.g08.bks.cvg/sg62_12_cif.got.tgz:23211.got - 2010.06.11 16:29:25.
