data_PCOD9467955
_publ_section_title
;
Structure prediction by ZEFSAII (Michael W. Deem and Ramdas Pophale) SiO2 
 PCOD9467955
Probable space group: P N M A
;
_chemical_formula_sum "Si O2"
_cell_formula_units_Z 40
_cell_length_a 9.000000
_cell_length_b 12.000000
_cell_length_c 18.000000
_cell_angle_alpha 90.000000
_cell_angle_beta 90.000000
_cell_angle_gamma 90.000000
_cell_volume 1944.000000
_symmetry_space_group_name_H-M "P N M A"
_symmetry_group_IT_number 62
_symmetry_cell_setting 'orthorhombic'
loop_
_space_group_symop_operation_xyz
x,y,z
1/2-x,-y,1/2+z
1/2+x,1/2-y,1/2-z
-x,1/2+y,-z
-x,-y,-z
1/2+x,y,1/2-z
1/2-x,1/2+y,1/2+z
x,1/2-y,z
loop_
_atom_site_type_symbol
_atom_site_label
_atom_site_fract_x
_atom_site_fract_y
_atom_site_fract_z
Si Si1 0.068452 0.621310 0.032904
Si Si2 0.152513 0.465761 0.153133
Si Si3 0.155177 0.621052 0.778451
Si Si4 0.338498 0.128616 0.019421
Si Si5 0.665385 0.082743 0.073443
O O1 0.004771 0.750000 0.029918
O O2 0.106113 0.583835 0.117104
O O3 0.219685 0.631306 0.986210
O O4 0.000000 0.500000 0.000000
O O5 0.283205 0.458477 0.213768
O O6 0.218057 0.397477 0.082947
O O7 0.005977 0.411140 0.189262
O O8 0.153217 0.750000 0.752756
O O9 0.271125 0.610004 0.846385
O O10 0.319980 0.250000 0.989745
O O11 0.498175 0.119544 0.059094
O O12 0.332313 0.046215 0.949993
#
# Coordination Sequence:
#
# PCOD9467955 Si02
#       5
#     8   8   8   8   8
#     4  11  23  43  70 100 134 174 225 281 339 401
#     4  11  25  40  61  97 128 172 221 272 331 396
#     4  12  22  38  60  90 128 169 215 269 324 385
#     4  10  20  38  60  89 126 167 215 269 328 390
#     4  10  22  37  61  95 126 167 217 271 326 388
#
# _framework density 20.576132000000001
#
# number of rings (size 3 to 8) (size 9 to 14) (size 15 to 20)
#    0.000    1.200    2.000    4.800    0.000    4.000 
#    0.000    2.000    0.000    0.000    0.000    0.000 
#    0.000    0.000    0.000    0.000    0.000    0.000 
#
# Total GULP energy -222928.390112 kJ/mol
# GULP energy per Si atom -5573.209753 kJ/mol
# Density = 2.052930 g / cm^3
# Si number density = 20.576132 Si / 1000 Ang^3
#
#
#
# Elastic Constant Matrix: (Units=GPa)
#
#
# Indices 1 2 3 4 5 6 
#
# 1 101.8822 51.3651 18.6426 0.0000 0.0000 0.0000
# 2 51.3651 152.0598 28.8792 0.0000 0.0000 0.0000
# 3 18.6426 28.8792 67.5595 0.0000 0.0000 0.0000
# 4 0.0000 0.0000 0.0000 -194.8496 0.0000 0.0000
# 5 0.0000 0.0000 0.0000 0.0000 40.2839 0.0000
# 6 0.0000 0.0000 0.0000 0.0000 0.0000 -7.3307
#
#
#
# Elastic Compliance Matrix: (Units=1/GPa)
#
#
# Indices 1 2 3 4 5 6 
#
# 1 0.012011 -0.003731 -0.001720 0.000000 0.000000 0.000000
# 2 -0.003731 0.008316 -0.002525 0.000000 0.000000 0.000000
# 3 -0.001720 -0.002525 0.016356 0.000000 0.000000 0.000000
# 4 0.000000 0.000000 0.000000 -0.005132 0.000000 0.000000
# 5 0.000000 0.000000 0.000000 0.000000 0.024824 0.000000
# 6 0.000000 0.000000 0.000000 0.000000 0.000000 -0.136414
#
#
# Mechanical properties :
#
#
# Convention : Reuss Voigt Hill
#
# Bulk Modulus (GPa) = 48.23581 57.69726 52.96653
# Shear Modulus (GPa) = -87.44701 -17.53830 -52.49265
#
# Velocity S-wave (km/s) = -6.52622 -2.92269 -5.05636
# Velocity P-wave (km/s) = 5.77020 4.08806 2.87949
#
# Compressibility (1/GPa) = 0.02073149
#
# Stress axis : x y z
#
# Youngs Moduli (GPa) = 83.25886 120.24781 61.14043
#
# Poissons Ratio (x) = 0.44859 0.10514
# Poissons Ratio (y) = 0.31060 0.15440
# Poissons Ratio (z) = 0.14317 0.30368
#
# Static dielectric constant tensor:
#      x y z
#    x 1.808570 0.000000 0.000000 
#    y 0.000000 1.769440 0.000000 
#    z 0.000000 0.000000 1.737280 
# 
# From -- ./inp_files/21899.got.cif
#   From: 2010.05.17/outbox.ucp.g08.bks.cvg/sg62_11_cif.got.tgz:21899.got - 2010.06.11 16:29:25.
