data_PCOD9467694
_publ_section_title
;
Structure prediction by ZEFSAII (Michael W. Deem and Ramdas Pophale) SiO2 
 PCOD9467694
Probable space group: P N M A
;
_chemical_formula_sum "Si O2"
_cell_formula_units_Z 40
_cell_length_a 7.425014
_cell_length_b 8.188214
_cell_length_c 30.257033
_cell_angle_alpha 90.000000
_cell_angle_beta 90.000000
_cell_angle_gamma 90.000000
_cell_volume 1839.555098
_symmetry_space_group_name_H-M "P N M A"
_symmetry_group_IT_number 62
_symmetry_cell_setting 'orthorhombic'
loop_
_space_group_symop_operation_xyz
x,y,z
1/2-x,-y,1/2+z
1/2+x,1/2-y,1/2-z
-x,1/2+y,-z
-x,-y,-z
1/2+x,y,1/2-z
1/2-x,1/2+y,1/2+z
x,1/2-y,z
loop_
_atom_site_type_symbol
_atom_site_label
_atom_site_fract_x
_atom_site_fract_y
_atom_site_fract_z
Si Si1 0.726725 0.937411 0.286076
Si Si2 0.602759 0.447090 0.599135
Si Si3 0.698578 0.052535 0.880070
Si Si4 0.081229 0.057054 0.453735
Si Si5 0.196029 0.436464 0.807964
O O1 0.794103 0.750000 0.279805
O O2 0.825790 0.007700 0.329282
O O3 0.734066 0.014980 0.237423
O O4 0.519234 0.927808 0.300300
O O5 0.601072 0.250000 0.602496
O O6 0.395349 0.501726 0.602014
O O7 0.717877 0.494692 0.556806
O O8 0.706994 0.510588 0.643233
O O9 0.703004 0.250000 0.876924
O O10 0.547501 0.004788 0.914507
O O11 0.084770 0.250000 0.453310
O O12 0.000000 0.000000 0.500000
O O13 0.270167 0.250000 0.810649
#
# Coordination Sequence:
#
# PCOD9467694 Si02
#       5
#     8   8   8   8   8
#     4   8  14  24  44  80 116 147 184 228 278 326
#     4   9  19  37  60  88 121 153 190 240 292 342
#     4   9  19  37  60  88 121 153 190 240 292 342
#     4  12  26  42  62  86 112 150 198 244 299 354
#     4   8  14  24  44  80 116 147 184 228 278 326
#
# _framework density 21.744388000000001
#
# number of rings (size 3 to 8) (size 9 to 14) (size 15 to 20)
#    0.000    2.800    0.000    4.200    2.800    1.600 
#    0.000    0.000    0.000    1.200    0.000    0.000 
#    0.000    0.000    0.000    0.000    0.000    0.000 
#
# Total GULP energy -223059.518662 kJ/mol
# GULP energy per Si atom -5576.487967 kJ/mol
# Density = 2.169490 g / cm^3
# Si number density = 21.744388 Si / 1000 Ang^3
#
#
#
# Elastic Constant Matrix: (Units=GPa)
#
#
# Indices 1 2 3 4 5 6 
#
# 1 55.5114 3.2199 13.4206 0.0000 0.0000 0.0000
# 2 3.2199 21.1026 1.4257 0.0000 0.0000 0.0000
# 3 13.4206 1.4257 53.6411 0.0000 0.0000 0.0000
# 4 0.0000 0.0000 0.0000 2.6593 0.0000 0.0000
# 5 0.0000 0.0000 0.0000 0.0000 35.7690 0.0000
# 6 0.0000 0.0000 0.0000 0.0000 0.0000 10.1789
#
#
#
# Elastic Compliance Matrix: (Units=1/GPa)
#
#
# Indices 1 2 3 4 5 6 
#
# 1 0.019318 -0.002626 -0.004764 0.000000 0.000000 0.000000
# 2 -0.002626 0.047830 -0.000614 0.000000 0.000000 0.000000
# 3 -0.004764 -0.000614 0.019851 0.000000 0.000000 0.000000
# 4 0.000000 0.000000 0.000000 0.376045 0.000000 0.000000
# 5 0.000000 0.000000 0.000000 0.000000 0.027957 0.000000
# 6 0.000000 0.000000 0.000000 0.000000 0.000000 0.098242
#
#
# Mechanical properties :
#
#
# Convention : Reuss Voigt Hill
#
# Bulk Modulus (GPa) = 14.08623 18.48751 16.28687
# Shear Modulus (GPa) = 7.95022 17.20069 12.57546
#
# Velocity S-wave (km/s) = 1.91420 2.81560 2.40746
# Velocity P-wave (km/s) = 3.37308 4.36930 3.90311
#
# Compressibility (1/GPa) = 0.07099133
#
# Stress axis : x y z
#
# Youngs Moduli (GPa) = 51.76451 20.90751 50.37646
#
# Poissons Ratio (x) = 0.05490 0.23997
# Poissons Ratio (y) = 0.13592 0.03095
# Poissons Ratio (z) = 0.24658 0.01284
#
# Static dielectric constant tensor:
#      x y z
#    x 1.818950 0.000000 0.000000 
#    y 0.000000 2.076560 0.000000 
#    z 0.000000 0.000000 1.741090 
# 
# From -- ./inp_files/31794.got.cif
#   From: 2010.05.17/outbox.cif.g08.bks.cpg/sg62_16_cif.got.tgz:31794.got - 2010.06.03 15:25:27.
