data_PCOD9467208
_publ_section_title
;
Structure prediction by ZEFSAII (Michael W. Deem and Ramdas Pophale) SiO2 
 PCOD9467208
Probable space group: P N M A
;
_chemical_formula_sum "Si O2"
_cell_formula_units_Z 56
_cell_length_a 13.807565
_cell_length_b 31.460662
_cell_length_c 5.049004
_cell_angle_alpha 90.000000
_cell_angle_beta 90.000000
_cell_angle_gamma 90.000000
_cell_volume 2193.262777
_symmetry_space_group_name_H-M "P N M A"
_symmetry_group_IT_number 62
_symmetry_cell_setting 'orthorhombic'
loop_
_space_group_symop_operation_xyz
x,y,z
1/2-x,-y,1/2+z
1/2+x,1/2-y,1/2-z
-x,1/2+y,-z
-x,-y,-z
1/2+x,y,1/2-z
1/2-x,1/2+y,1/2+z
x,1/2-y,z
loop_
_atom_site_type_symbol
_atom_site_label
_atom_site_fract_x
_atom_site_fract_y
_atom_site_fract_z
Si Si1 0.589880 0.750000 0.059666
Si Si2 0.652813 0.324661 0.208589
Si Si3 0.332384 0.323360 0.574792
Si Si4 0.266695 0.021832 0.064831
Si Si5 0.234909 0.611700 0.420051
Si Si6 0.471896 0.373834 0.187501
Si Si7 0.963119 0.750000 0.955057
Si Si8 0.523765 0.529186 0.747090
O O1 0.640964 0.792874 0.176810
O O2 0.493607 0.750000 0.240607
O O3 0.556704 0.750000 0.751768
O O4 0.699175 0.360333 0.394241
O O5 0.561231 0.347545 0.061968
O O6 0.600005 0.290347 0.389149
O O7 0.745676 0.300942 0.082970
O O8 0.269530 0.365708 0.641101
O O9 0.423399 0.343341 0.415516
O O10 0.360216 0.033227 0.236906
O O11 0.202186 0.005203 0.307084
O O12 0.228617 0.064163 0.927754
O O13 0.121293 0.616311 0.503355
O O14 0.508810 0.421330 0.266206
O O15 0.500000 0.500000 0.500000
O O16 0.500000 0.500000 0.000000
#
# Coordination Sequence:
#
# PCOD9467208 Si02
#       8
#     4   8   8   8   8   8   4   8
#     4  12  27  49  78 109 150 196 234 304 365 440
#     4  11  25  45  74 108 143 194 247 305 357 450
#     4  11  25  46  74 106 147 198 242 308 368 445
#     4  11  26  45  71 103 148 191 242 304 369 437
#     4  10  26  43  72 104 146 193 247 301 374 433
#     4  10  24  45  68 100 147 188 244 301 373 429
#     4  12  27  49  76 111 150 190 244 290 377 424
#     4  11  26  44  68 104 140 191 245 304 363 435
#
# _framework density 25.532733
#
# number of rings (size 3 to 8) (size 9 to 14) (size 15 to 20)
#    0.000    1.143    1.429    2.143   18.000    1.714 
#    0.000    0.000    0.000    0.000    0.000    0.000 
#    0.000    0.000    0.000    0.000    0.000    0.000 
#
# Total GULP energy -312530.286965 kJ/mol
# GULP energy per Si atom -5580.897982 kJ/mol
# Density = 2.547462 g / cm^3
# Si number density = 25.532733 Si / 1000 Ang^3
#
#
#
# Elastic Constant Matrix: (Units=GPa)
#
#
# Indices 1 2 3 4 5 6 
#
# 1 93.7356 13.9365 7.1906 0.0000 0.0000 0.0000
# 2 13.9365 133.1295 20.0572 0.0000 0.0000 0.0000
# 3 7.1906 20.0572 78.7390 0.0000 0.0000 0.0000
# 4 0.0000 0.0000 0.0000 22.1876 0.0000 0.0000
# 5 0.0000 0.0000 0.0000 0.0000 19.4345 0.0000
# 6 0.0000 0.0000 0.0000 0.0000 0.0000 141.0426
#
#
#
# Elastic Compliance Matrix: (Units=1/GPa)
#
#
# Indices 1 2 3 4 5 6 
#
# 1 0.010877 -0.001028 -0.000731 0.000000 0.000000 0.000000
# 2 -0.001028 0.007909 -0.001921 0.000000 0.000000 0.000000
# 3 -0.000731 -0.001921 0.013256 0.000000 0.000000 0.000000
# 4 0.000000 0.000000 0.000000 0.045070 0.000000 0.000000
# 5 0.000000 0.000000 0.000000 0.000000 0.051455 0.000000
# 6 0.000000 0.000000 0.000000 0.000000 0.000000 0.007090
#
#
# Mechanical properties :
#
#
# Convention : Reuss Voigt Hill
#
# Bulk Modulus (GPa) = 40.51677 43.10807 41.81242
# Shear Modulus (GPa) = 33.05893 54.16094 43.60993
#
# Velocity S-wave (km/s) = 3.60219 4.61068 4.13728
# Velocity P-wave (km/s) = 5.76229 6.72790 6.26373
#
# Compressibility (1/GPa) = 0.02468114
#
# Stress axis : x y z
#
# Youngs Moduli (GPa) = 91.93437 126.44611 75.43634
#
# Poissons Ratio (x) = 0.13005 0.05517
# Poissons Ratio (y) = 0.09455 0.14488
# Poissons Ratio (z) = 0.06724 0.24285
#
# Static dielectric constant tensor:
#      x y z
#    x 2.134770 0.000000 0.000000 
#    y 0.000000 2.139940 0.000000 
#    z 0.000000 0.000000 2.124320 
# 
# From -- ./inp_files/1297.got.cif
#   From: 2010.05.17/outbox.cif.g08.bks.cpg/sg62_1_cif.got.tgz:1297.got - 2010.06.03 15:25:27.
