data_PCOD9467760
_publ_section_title
;
Structure prediction by ZEFSAII (Michael W. Deem and Ramdas Pophale) SiO2 
 PCOD9467760
Probable space group: P N M A
;
_chemical_formula_sum "Si O2"
_cell_formula_units_Z 64
_cell_length_a 18.000000
_cell_length_b 9.000000
_cell_length_c 24.000000
_cell_angle_alpha 90.000000
_cell_angle_beta 90.000000
_cell_angle_gamma 90.000000
_cell_volume 3888.000000
_symmetry_space_group_name_H-M "P N M A"
_symmetry_group_IT_number 62
_symmetry_cell_setting 'orthorhombic'
loop_
_space_group_symop_operation_xyz
x,y,z
1/2-x,-y,1/2+z
1/2+x,1/2-y,1/2-z
-x,1/2+y,-z
-x,-y,-z
1/2+x,y,1/2-z
1/2-x,1/2+y,1/2+z
x,1/2-y,z
loop_
_atom_site_type_symbol
_atom_site_label
_atom_site_fract_x
_atom_site_fract_y
_atom_site_fract_z
Si Si1 0.791996 0.073015 0.865040
Si Si2 0.027513 0.430334 0.605120
Si Si3 0.178437 0.430140 0.543204
Si Si4 0.187002 0.074842 0.317034
Si Si5 0.471676 0.919997 0.231459
Si Si6 0.866906 0.072287 0.569939
Si Si7 0.203086 0.418299 0.747361
Si Si8 0.091042 0.425528 0.206503
O O1 0.802536 0.250000 0.868019
O O2 0.750362 0.024291 0.920985
O O3 0.736215 0.043352 0.813282
O O4 0.867667 0.996865 0.845909
O O5 0.030974 0.250000 0.608567
O O6 0.104233 0.478123 0.576972
O O7 0.017455 0.482548 0.668867
O O8 0.954417 0.470651 0.570441
O O9 0.177591 0.250000 0.540414
O O10 0.173410 0.497982 0.482168
O O11 0.180537 0.250000 0.327433
O O12 0.135582 0.035135 0.263700
O O13 0.165045 0.985129 0.371609
O O14 0.267372 0.028648 0.294089
O O15 0.500571 0.750000 0.232347
O O16 0.384445 0.916908 0.241643
O O17 0.510892 0.011548 0.279622
O O18 0.861959 0.250000 0.566916
O O19 0.229156 0.250000 0.760614
O O20 0.091991 0.250000 0.200970
#
# Coordination Sequence:
#
# PCOD9467760 Si02
#       8
#     8   8   8   8   8   8   8   8
#     4   9  17  31  50  69  91 126 164 199 240 287
#     4   9  17  30  47  68  96 131 168 200 230 278
#     4  10  19  33  50  69  96 129 168 206 242 282
#     4  10  20  33  47  67  96 129 162 202 246 285
#     4  10  17  30  51  73  97 129 164 196 236 291
#     4  11  21  32  48  69  96 132 171 204 238 282
#     4   9  17  30  51  73  93 122 161 202 242 286
#     4  10  20  31  46  70  99 126 157 201 247 286
#
# _framework density 16.460905
#
# number of rings (size 3 to 8) (size 9 to 14) (size 15 to 20)
#    0.000    2.250    2.500    1.500    0.000    2.000 
#    0.000    1.250    0.000    0.000    0.000    0.875 
#    0.000    0.000    0.000    0.000    0.000    0.000 
#
# Total GULP energy -356673.247599 kJ/mol
# GULP energy per Si atom -5573.019494 kJ/mol
# Density = 1.642344 g / cm^3
# Si number density = 16.460905 Si / 1000 Ang^3
#
#
#
# Elastic Constant Matrix: (Units=GPa)
#
#
# Indices 1 2 3 4 5 6 
#
# 1 13.1238 3.4152 -4.8525 0.0000 0.0000 0.0000
# 2 3.4152 8.0493 11.2210 0.0000 0.0000 0.0000
# 3 -4.8525 11.2210 28.9371 0.0000 0.0000 0.0000
# 4 0.0000 0.0000 0.0000 22.8765 0.0000 0.0000
# 5 0.0000 0.0000 0.0000 0.0000 23.0225 0.0000
# 6 0.0000 0.0000 0.0000 0.0000 0.0000 15.1452
#
#
#
# Elastic Compliance Matrix: (Units=1/GPa)
#
#
# Indices 1 2 3 4 5 6 
#
# 1 0.211728 -0.303267 0.153104 0.000000 0.000000 0.000000
# 2 -0.303267 0.704795 -0.324156 0.000000 0.000000 0.000000
# 3 0.153104 -0.324156 0.185931 0.000000 0.000000 0.000000
# 4 0.000000 0.000000 0.000000 0.043713 0.000000 0.000000
# 5 0.000000 0.000000 0.000000 0.000000 0.043436 0.000000
# 6 0.000000 0.000000 0.000000 0.000000 0.000000 0.066027
#
#
# Mechanical properties :
#
#
# Convention : Reuss Voigt Hill
#
# Bulk Modulus (GPa) = 6.50130 7.74194 7.12162
# Shear Modulus (GPa) = 2.21676 14.89728 8.55702
#
# Velocity S-wave (km/s) = 1.16173 3.01160 2.28247
# Velocity P-wave (km/s) = 2.39950 4.09956 3.35887
#
# Compressibility (1/GPa) = 0.15381534
#
# Stress axis : x y z
#
# Youngs Moduli (GPa) = 4.72304 1.41885 5.37834
#
# Poissons Ratio (x) = 0.43029 -0.82345
# Poissons Ratio (y) = 1.43234 1.74342
# Poissons Ratio (z) = -0.72312 0.45993
#
# Static dielectric constant tensor:
#      x y z
#    x 1.582470 0.000000 0.000000 
#    y 0.000000 1.557060 0.000000 
#    z 0.000000 0.000000 1.534410 
# 
# From -- ./inp_files/27643.got.cif
#   From: 2010.05.17/outbox.ucp.g08.bks.cvg/sg62_14_cif.got.tgz:27643.got - 2010.06.11 16:29:25.
