data_PCOD9467382
_publ_section_title
;
Structure prediction by ZEFSAII (Michael W. Deem and Ramdas Pophale) SiO2 
 PCOD9467382
Probable space group: P N M A
;
_chemical_formula_sum "Si O2"
_cell_formula_units_Z 48
_cell_length_a 14.934831
_cell_length_b 18.619775
_cell_length_c 8.743731
_cell_angle_alpha 90.000000
_cell_angle_beta 90.000000
_cell_angle_gamma 90.000000
_cell_volume 2431.484634
_symmetry_space_group_name_H-M "P N M A"
_symmetry_group_IT_number 62
_symmetry_cell_setting 'orthorhombic'
loop_
_space_group_symop_operation_xyz
x,y,z
1/2-x,-y,1/2+z
1/2+x,1/2-y,1/2-z
-x,1/2+y,-z
-x,-y,-z
1/2+x,y,1/2-z
1/2-x,1/2+y,1/2+z
x,1/2-y,z
loop_
_atom_site_type_symbol
_atom_site_label
_atom_site_fract_x
_atom_site_fract_y
_atom_site_fract_z
Si Si1 0.456729 0.750000 0.558310
Si Si2 0.652636 0.136082 0.606579
Si Si3 0.565087 0.410201 0.116354
Si Si4 0.096447 0.004986 0.700528
Si Si5 0.337145 0.250000 0.377449
Si Si6 0.249104 0.614345 0.705034
Si Si7 0.932169 0.750000 0.611311
Si Si8 0.783434 0.750000 0.348880
O O1 0.430465 0.682043 0.457758
O O2 0.556114 0.750000 0.621399
O O3 0.397749 0.750000 0.713356
O O4 0.722043 0.131863 0.467721
O O5 0.698459 0.180901 0.743598
O O6 0.616412 0.060567 0.664643
O O7 0.493415 0.457314 0.209319
O O8 0.659345 0.403969 0.204176
O O9 0.525433 0.329323 0.093372
O O10 0.584253 0.448342 0.954550
O O11 0.180514 0.951647 0.695952
O O12 0.298565 0.319976 0.292486
O O13 0.307713 0.250000 0.555842
O O14 0.855411 0.750000 0.485041
#
# Coordination Sequence:
#
# PCOD9467382 Si02
#       8
#     4   8   8   8   4   8   4   4
#     4  11  24  41  70 103 130 174 231 274 344 390
#     4  11  23  44  66 100 135 174 220 293 328 403
#     4  11  23  44  66  92 135 180 216 273 331 399
#     4  11  25  42  64 102 133 176 224 265 349 404
#     4  12  23  45  66 100 128 180 227 277 332 415
#     4  12  23  43  69  95 131 179 227 274 335 403
#     4  12  18  45  67  85 123 183 209 262 329 395
#     4  11  21  41  71  90 131 175 223 279 339 382
#
# _framework density 19.741026999999999
#
# number of rings (size 3 to 8) (size 9 to 14) (size 15 to 20)
#    0.000    0.667    5.000    3.000    0.000    0.667 
#   12.000    1.667    0.000    0.000    0.000    0.000 
#    0.000    0.000    0.000    0.000    0.000    0.000 
#
# Total GULP energy -268145.824512 kJ/mol
# GULP energy per Si atom -5586.371344 kJ/mol
# Density = 1.969610 g / cm^3
# Si number density = 19.741027 Si / 1000 Ang^3
#
#
#
# Elastic Constant Matrix: (Units=GPa)
#
#
# Indices 1 2 3 4 5 6 
#
# 1 118.5418 72.5450 52.2399 0.0000 0.0000 0.0000
# 2 72.5450 166.7670 54.0046 0.0000 0.0000 0.0000
# 3 52.2399 54.0046 106.0962 0.0000 0.0000 0.0000
# 4 0.0000 0.0000 0.0000 21.6607 0.0000 0.0000
# 5 0.0000 0.0000 0.0000 0.0000 21.1885 0.0000
# 6 0.0000 0.0000 0.0000 0.0000 0.0000 20.3610
#
#
#
# Elastic Compliance Matrix: (Units=1/GPa)
#
#
# Indices 1 2 3 4 5 6 
#
# 1 0.012877 -0.004249 -0.004178 0.000000 0.000000 0.000000
# 2 -0.004249 0.008582 -0.002276 0.000000 0.000000 0.000000
# 3 -0.004178 -0.002276 0.012641 0.000000 0.000000 0.000000
# 4 0.000000 0.000000 0.000000 0.046167 0.000000 0.000000
# 5 0.000000 0.000000 0.000000 0.000000 0.047195 0.000000
# 6 0.000000 0.000000 0.000000 0.000000 0.000000 0.049113
#
#
# Mechanical properties :
#
#
# Convention : Reuss Voigt Hill
#
# Bulk Modulus (GPa) = 78.77468 83.22045 80.99757
# Shear Modulus (GPa) = 24.72649 26.81641 25.77145
#
# Velocity S-wave (km/s) = 3.54297 3.68966 3.61706
# Velocity P-wave (km/s) = 7.53177 7.77168 7.65267
#
# Compressibility (1/GPa) = 0.01269443
#
# Stress axis : x y z
#
# Youngs Moduli (GPa) = 77.65751 116.52647 79.10697
#
# Poissons Ratio (x) = 0.49509 0.33049
# Poissons Ratio (y) = 0.32995 0.18007
# Poissons Ratio (z) = 0.32444 0.26524
#
# Static dielectric constant tensor:
#      x y z
#    x 1.682580 0.000000 0.000000 
#    y 0.000000 1.717430 0.000000 
#    z 0.000000 0.000000 1.688740 
# 
# From -- ./inp_files/6534.got.cif
#   From: 2010.05.17/outbox.cif.g08.bks.cpg/sg62_4_cif.got.tgz:6534.got - 2010.06.03 15:25:27.
