data_PCOD9467682
_publ_section_title
;
Structure prediction by ZEFSAII (Michael W. Deem and Ramdas Pophale) SiO2 
 PCOD9467682
Probable space group: P N M A
;
_chemical_formula_sum "Si O2"
_cell_formula_units_Z 48
_cell_length_a 15.243945
_cell_length_b 10.015015
_cell_length_c 12.599874
_cell_angle_alpha 90.000000
_cell_angle_beta 90.000000
_cell_angle_gamma 90.000000
_cell_volume 1923.601821
_symmetry_space_group_name_H-M "P N M A"
_symmetry_group_IT_number 62
_symmetry_cell_setting 'orthorhombic'
loop_
_space_group_symop_operation_xyz
x,y,z
1/2-x,-y,1/2+z
1/2+x,1/2-y,1/2-z
-x,1/2+y,-z
-x,-y,-z
1/2+x,y,1/2-z
1/2-x,1/2+y,1/2+z
x,1/2-y,z
loop_
_atom_site_type_symbol
_atom_site_label
_atom_site_fract_x
_atom_site_fract_y
_atom_site_fract_z
Si Si1 0.840860 0.250000 0.935554
Si Si2 0.032851 0.750000 0.577998
Si Si3 0.072020 0.075472 0.522851
Si Si4 0.754156 0.513199 0.565233
Si Si5 0.852036 0.598064 0.245973
Si Si6 0.591943 0.250000 0.283132
Si Si7 0.027600 0.526040 0.121228
Si Si8 0.240755 0.750000 0.581951
O O1 0.794435 0.366464 0.008045
O O2 0.895961 0.133478 0.872152
O O3 0.029341 0.588172 0.535549
O O4 0.137130 0.750000 0.608929
O O5 0.964665 0.750000 0.675240
O O6 0.054688 0.250000 0.525933
O O7 0.143483 0.047957 0.431192
O O8 0.127405 0.068835 0.632651
O O9 0.716365 0.490162 0.682116
O O10 0.741601 0.378784 0.494305
O O11 0.819065 0.750000 0.241602
O O12 0.943649 0.580494 0.184622
O O13 0.556918 0.383983 0.337230
O O14 0.695508 0.250000 0.315457
O O15 0.000000 0.500000 0.000000
#
# Coordination Sequence:
#
# PCOD9467682 Si02
#       8
#     4   4   8   8   8   4   8   4
#     4  12  24  45  79 118 168 208 272 357 408 482
#     4  12  27  53  82 120 172 223 282 349 429 508
#     4  12  27  54  78 116 170 215 271 350 417 510
#     4  12  27  50  80 121 162 216 283 345 414 505
#     4  12  26  48  84 117 160 230 282 338 432 500
#     4  12  27  49  80 124 161 226 284 339 426 500
#     4  12  24  45  75 118 170 209 272 352 419 492
#     4  12  24  51  87 118 173 223 276 353 423 496
#
# _framework density 24.953188000000001
#
# number of rings (size 3 to 8) (size 9 to 14) (size 15 to 20)
#    0.000    0.000    7.500    2.000    0.000    1.333 
#    3.000    2.500    0.000    0.000    0.000    0.000 
#    0.000    0.000    0.000    0.000    0.000    0.000 
#
# Total GULP energy -267637.524358 kJ/mol
# GULP energy per Si atom -5575.781757 kJ/mol
# Density = 2.489639 g / cm^3
# Si number density = 24.953188 Si / 1000 Ang^3
#
#
#
# Elastic Constant Matrix: (Units=GPa)
#
#
# Indices 1 2 3 4 5 6 
#
# 1 131.6571 42.2668 88.7650 0.0000 0.0000 0.0000
# 2 42.2668 222.8974 55.9562 0.0000 0.0000 0.0000
# 3 88.7650 55.9562 121.8121 0.0000 0.0000 0.0000
# 4 0.0000 0.0000 0.0000 46.8456 0.0000 0.0000
# 5 0.0000 0.0000 0.0000 0.0000 31.9698 0.0000
# 6 0.0000 0.0000 0.0000 0.0000 0.0000 27.8978
#
#
#
# Elastic Compliance Matrix: (Units=1/GPa)
#
#
# Indices 1 2 3 4 5 6 
#
# 1 0.014934 -0.000113 -0.010830 0.000000 0.000000 0.000000
# 2 -0.000113 0.005072 -0.002248 0.000000 0.000000 0.000000
# 3 -0.010830 -0.002248 0.017134 0.000000 0.000000 0.000000
# 4 0.000000 0.000000 0.000000 0.021347 0.000000 0.000000
# 5 0.000000 0.000000 0.000000 0.000000 0.031280 0.000000
# 6 0.000000 0.000000 0.000000 0.000000 0.000000 0.035845
#
#
# Mechanical properties :
#
#
# Convention : Reuss Voigt Hill
#
# Bulk Modulus (GPa) = 92.95527 94.48253 93.71890
# Shear Modulus (GPa) = 32.13800 40.63455 36.38627
#
# Velocity S-wave (km/s) = 3.59267 4.03976 3.82276
# Velocity P-wave (km/s) = 7.38528 7.72694 7.55805
#
# Compressibility (1/GPa) = 0.01075786
#
# Stress axis : x y z
#
# Youngs Moduli (GPa) = 66.96234 197.15989 58.36343
#
# Poissons Ratio (x) = 0.02227 0.63210
# Poissons Ratio (y) = 0.00756 0.13118
# Poissons Ratio (z) = 0.72523 0.44314
#
# Static dielectric constant tensor:
#      x y z
#    x 7.944240 0.000000 0.000000 
#    y 0.000000 2.077710 0.000000 
#    z 0.000000 0.000000 2.075810 
# 
# From -- ./inp_files/19725.got.cif
#   From: 2010.05.17/outbox.cif.g08.bks.cpg/sg62_10_cif.got.tgz:19725.got - 2010.06.03 15:25:27.
