data_PCOD9467121
_publ_section_title
;
Structure prediction by ZEFSAII (Michael W. Deem and Ramdas Pophale) SiO2 
 PCOD9467121
Probable space group: P N M A
;
_chemical_formula_sum "Si O2"
_cell_formula_units_Z 56
_cell_length_a 8.544452
_cell_length_b 21.089998
_cell_length_c 14.801443
_cell_angle_alpha 90.000000
_cell_angle_beta 90.000000
_cell_angle_gamma 90.000000
_cell_volume 2667.256671
_symmetry_space_group_name_H-M "P N M A"
_symmetry_group_IT_number 62
_symmetry_cell_setting 'orthorhombic'
loop_
_space_group_symop_operation_xyz
x,y,z
1/2-x,-y,1/2+z
1/2+x,1/2-y,1/2-z
-x,1/2+y,-z
-x,-y,-z
1/2+x,y,1/2-z
1/2-x,1/2+y,1/2+z
x,1/2-y,z
loop_
_atom_site_type_symbol
_atom_site_label
_atom_site_fract_x
_atom_site_fract_y
_atom_site_fract_z
Si Si1 0.125753 0.890826 0.642001
Si Si2 0.587309 0.036314 0.272409
Si Si3 0.073589 0.431201 0.516799
Si Si4 0.673703 0.322636 0.653047
Si Si5 0.916216 0.446847 0.060527
Si Si6 0.615532 0.180616 0.439143
Si Si7 0.470689 0.100680 0.790549
O O1 0.257328 0.943811 0.671177
O O2 0.241224 0.830806 0.631044
O O3 0.978342 0.907923 0.706727
O O4 0.046049 0.891062 0.543565
O O5 0.440106 0.026605 0.339553
O O6 0.605771 0.968415 0.225700
O O7 0.244660 0.434634 0.475065
O O8 0.000000 0.500000 0.500000
O O9 0.078162 0.410227 0.620779
O O10 0.646365 0.250000 0.683245
O O11 0.663458 0.322696 0.544611
O O12 0.841969 0.348193 0.681593
O O13 0.555447 0.370782 0.702898
O O14 0.000329 0.378859 0.067911
O O15 0.000000 0.500000 0.000000
O O16 0.545616 0.250000 0.422657
#
# Coordination Sequence:
#
# PCOD9467121 Si02
#       7
#     8   8   8   8   8   8   8
#     4  11  22  43  64 101 132 174 219 284 347 410
#     4  11  23  38  68  98 137 168 223 284 348 415
#     4  12  24  40  64  99 141 175 224 280 350 413
#     4  11  25  43  62  93 134 178 225 271 326 405
#     4  11  25  42  67 102 139 180 229 288 347 415
#     4  10  23  46  70  94 136 184 227 279 343 414
#     4  12  25  39  66  97 132 178 219 276 338 406
#
# _framework density 20.995355
#
# number of rings (size 3 to 8) (size 9 to 14) (size 15 to 20)
#    0.000    0.857    2.857    4.714    6.000    0.000 
#    0.000    4.286    0.000    0.000    0.000    0.000 
#    0.000    0.000    0.000    0.000    0.000    0.000 
#
# Total GULP energy -312183.580400 kJ/mol
# GULP energy per Si atom -5574.706793 kJ/mol
# Density = 2.094757 g / cm^3
# Si number density = 20.995355 Si / 1000 Ang^3
#
#
#
# Elastic Constant Matrix: (Units=GPa)
#
#
# Indices 1 2 3 4 5 6 
#
# 1 84.4376 37.3445 -3.1530 0.0000 0.0000 0.0000
# 2 37.3445 104.2965 17.6690 0.0000 0.0000 0.0000
# 3 -3.1530 17.6690 66.3593 0.0000 0.0000 0.0000
# 4 0.0000 0.0000 0.0000 28.6404 0.0000 0.0000
# 5 0.0000 0.0000 0.0000 0.0000 25.3920 0.0000
# 6 0.0000 0.0000 0.0000 0.0000 0.0000 26.0545
#
#
#
# Elastic Compliance Matrix: (Units=1/GPa)
#
#
# Indices 1 2 3 4 5 6 
#
# 1 0.014358 -0.005505 0.002148 0.000000 0.000000 0.000000
# 2 -0.005505 0.012152 -0.003497 0.000000 0.000000 0.000000
# 3 0.002148 -0.003497 0.016103 0.000000 0.000000 0.000000
# 4 0.000000 0.000000 0.000000 0.034916 0.000000 0.000000
# 5 0.000000 0.000000 0.000000 0.000000 0.039382 0.000000
# 6 0.000000 0.000000 0.000000 0.000000 0.000000 0.038381
#
#
# Mechanical properties :
#
#
# Convention : Reuss Voigt Hill
#
# Bulk Modulus (GPa) = 34.59709 39.86827 37.23268
# Shear Modulus (GPa) = 27.99017 29.56626 28.77822
#
# Velocity S-wave (km/s) = 3.65521 3.75671 3.70631
# Velocity P-wave (km/s) = 5.85903 6.15203 6.00732
#
# Compressibility (1/GPa) = 0.02890417
#
# Stress axis : x y z
#
# Youngs Moduli (GPa) = 69.64782 82.29374 62.10147
#
# Poissons Ratio (x) = 0.45302 -0.13339
# Poissons Ratio (y) = 0.38341 0.21717
# Poissons Ratio (z) = -0.14960 0.28779
#
# Static dielectric constant tensor:
#      x y z
#    x 1.760790 0.000000 0.000000 
#    y 0.000000 1.754230 0.000000 
#    z 0.000000 0.000000 1.844630 
# 
# From -- ./inp_files/17209.got.cif
#   From: 2010.05.17/outbox.cif.g08.bks.cpg/sg62_9_cif.got.tgz:17209.got - 2010.06.03 15:25:27.
