data_PCOD9467403
_publ_section_title
;
Structure prediction by ZEFSAII (Michael W. Deem and Ramdas Pophale) SiO2 
 PCOD9467403
Probable space group: P N M A
;
_chemical_formula_sum "Si O2"
_cell_formula_units_Z 48
_cell_length_a 18.472670
_cell_length_b 10.261233
_cell_length_c 13.465907
_cell_angle_alpha 90.000000
_cell_angle_beta 90.000000
_cell_angle_gamma 90.000000
_cell_volume 2552.494600
_symmetry_space_group_name_H-M "P N M A"
_symmetry_group_IT_number 62
_symmetry_cell_setting 'orthorhombic'
loop_
_space_group_symop_operation_xyz
x,y,z
1/2-x,-y,1/2+z
1/2+x,1/2-y,1/2-z
-x,1/2+y,-z
-x,-y,-z
1/2+x,y,1/2-z
1/2-x,1/2+y,1/2+z
x,1/2-y,z
loop_
_atom_site_type_symbol
_atom_site_label
_atom_site_fract_x
_atom_site_fract_y
_atom_site_fract_z
Si Si1 0.888329 0.250000 0.945660
Si Si2 0.961335 0.250000 0.152590
Si Si3 0.151313 0.593352 0.565517
Si Si4 0.032679 0.001570 0.709074
Si Si5 0.802580 0.002870 0.862593
Si Si6 0.950774 0.750000 0.157405
Si Si7 0.882074 0.750000 0.947353
Si Si8 0.370150 0.093810 0.833364
O O1 0.842135 0.124703 0.914409
O O2 0.966966 0.250000 0.889268
O O3 0.904314 0.250000 0.062932
O O4 0.958142 0.376912 0.220485
O O5 0.038849 0.250000 0.099992
O O6 0.153923 0.750000 0.586222
O O7 0.079277 0.530724 0.611942
O O8 0.218742 0.518755 0.614230
O O9 0.153192 0.577214 0.446970
O O10 0.058577 0.124710 0.773305
O O11 0.949602 0.032722 0.682594
O O12 0.818039 0.025283 0.746170
O O13 0.841049 0.875849 0.907318
O O14 0.895256 0.750000 0.065448
O O15 0.373216 0.250000 0.813535
#
# Coordination Sequence:
#
# PCOD9467403 Si02
#       8
#     4   4   8   8   8   4   4   8
#     4  11  22  41  64 101 137 169 219 275 331 396
#     4  11  22  35  69 100 131 168 218 285 329 371
#     4  11  27  44  65  99 134 175 225 276 329 393
#     4  12  21  44  66  99 133 176 222 277 323 391
#     4  12  22  44  66  94 134 179 215 270 340 395
#     4  11  22  39  69 104 129 174 222 271 329 393
#     4  11  22  37  66  99 135 171 221 265 337 398
#     4  11  23  46  71  94 133 179 218 276 336 390
#
# _framework density 18.805133000000001
#
# number of rings (size 3 to 8) (size 9 to 14) (size 15 to 20)
#    0.000    0.667    6.667    1.500    0.000    6.000 
#    0.000    2.500    0.000    0.000    0.000    0.000 
#    0.000    0.000    0.000    0.000    0.000    0.000 
#
# Total GULP energy -268261.062095 kJ/mol
# GULP energy per Si atom -5588.772127 kJ/mol
# Density = 1.876233 g / cm^3
# Si number density = 18.805133 Si / 1000 Ang^3
#
#
#
# Elastic Constant Matrix: (Units=GPa)
#
#
# Indices 1 2 3 4 5 6 
#
# 1 49.7753 25.0816 54.3584 0.0000 0.0000 0.0000
# 2 25.0816 136.2077 43.8727 0.0000 0.0000 0.0000
# 3 54.3584 43.8727 123.6665 0.0000 0.0000 0.0000
# 4 0.0000 0.0000 0.0000 56.1495 0.0000 0.0000
# 5 0.0000 0.0000 0.0000 0.0000 20.5855 0.0000
# 6 0.0000 0.0000 0.0000 0.0000 0.0000 105.0396
#
#
#
# Elastic Compliance Matrix: (Units=1/GPa)
#
#
# Indices 1 2 3 4 5 6 
#
# 1 0.039058 -0.001877 -0.016502 0.000000 0.000000 0.000000
# 2 -0.001877 0.008379 -0.002148 0.000000 0.000000 0.000000
# 3 -0.016502 -0.002148 0.016102 0.000000 0.000000 0.000000
# 4 0.000000 0.000000 0.000000 0.017810 0.000000 0.000000
# 5 0.000000 0.000000 0.000000 0.000000 0.048578 0.000000
# 6 0.000000 0.000000 0.000000 0.000000 0.000000 0.009520
#
#
# Mechanical properties :
#
#
# Convention : Reuss Voigt Hill
#
# Bulk Modulus (GPa) = 44.47363 61.80832 53.14098
# Shear Modulus (GPa) = 26.59654 48.77739 37.68696
#
# Velocity S-wave (km/s) = 3.76483 5.09849 4.48155
# Velocity P-wave (km/s) = 6.52684 8.22184 7.42288
#
# Compressibility (1/GPa) = 0.02248523
#
# Stress axis : x y z
#
# Youngs Moduli (GPa) = 25.60323 119.34473 62.10480
#
# Poissons Ratio (x) = 0.22398 1.02486
# Poissons Ratio (y) = 0.04805 0.13338
# Poissons Ratio (z) = 0.42251 0.25631
#
# Static dielectric constant tensor:
#      x y z
#    x 1.645910 0.000000 0.000000 
#    y 0.000000 1.632790 0.000000 
#    z 0.000000 0.000000 1.651000 
# 
# From -- ./inp_files/19723.got.cif
#   From: 2010.05.17/outbox.cif.g08.bks.cpg/sg62_10_cif.got.tgz:19723.got - 2010.06.03 15:25:27.
