data_PCOD9467572
_publ_section_title
;
Structure prediction by ZEFSAII (Michael W. Deem and Ramdas Pophale) SiO2 
 PCOD9467572
Probable space group: P N M A
;
_chemical_formula_sum "Si O2"
_cell_formula_units_Z 48
_cell_length_a 9.115731
_cell_length_b 19.962007
_cell_length_c 13.736904
_cell_angle_alpha 90.000000
_cell_angle_beta 90.000000
_cell_angle_gamma 90.000000
_cell_volume 2499.680876
_symmetry_space_group_name_H-M "P N M A"
_symmetry_group_IT_number 62
_symmetry_cell_setting 'orthorhombic'
loop_
_space_group_symop_operation_xyz
x,y,z
1/2-x,-y,1/2+z
1/2+x,1/2-y,1/2-z
-x,1/2+y,-z
-x,-y,-z
1/2+x,y,1/2-z
1/2-x,1/2+y,1/2+z
x,1/2-y,z
loop_
_atom_site_type_symbol
_atom_site_label
_atom_site_fract_x
_atom_site_fract_y
_atom_site_fract_z
Si Si1 0.786242 0.931229 0.553466
Si Si2 0.322131 0.827109 0.512210
Si Si3 0.412791 0.327732 0.335731
Si Si4 0.776521 0.038020 0.837873
Si Si5 0.901694 0.404027 0.365597
Si Si6 0.380517 0.558910 0.358512
O O1 0.711081 0.867958 0.605327
O O2 0.775782 0.926882 0.437258
O O3 0.951531 0.936469 0.591489
O O4 0.695177 0.996985 0.585141
O O5 0.311549 0.750000 0.481333
O O6 0.440398 0.831054 0.599597
O O7 0.170638 0.854821 0.555797
O O8 0.373578 0.876446 0.427074
O O9 0.373331 0.250000 0.321105
O O10 0.434601 0.364067 0.232965
O O11 0.707593 0.069397 0.741207
O O12 0.952064 0.039617 0.835780
O O13 0.714995 0.962362 0.842635
#
# Coordination Sequence:
#
# PCOD9467572 Si02
#       6
#     8   8   8   8   8   8
#     4  12  24  42  69 101 142 176 220 275 338 402
#     4  11  25  46  68  93 137 186 225 276 341 402
#     4  11  24  44  68  99 139 182 222 271 340 408
#     4  12  25  41  70 102 131 172 225 285 331 403
#     4  12  24  38  69 108 136 173 221 276 336 405
#     4  12  25  44  69  98 134 176 229 281 336 398
#
# _framework density 19.202452000000001
#
# number of rings (size 3 to 8) (size 9 to 14) (size 15 to 20)
#    0.000    0.333    5.000    4.500    2.333    2.667 
#    0.000    1.667    0.000    0.000    0.000    0.000 
#    0.000    0.000    0.000    0.000    0.000    0.000 
#
# Total GULP energy -268750.969763 kJ/mol
# GULP energy per Si atom -5598.978537 kJ/mol
# Density = 1.915875 g / cm^3
# Si number density = 19.202452 Si / 1000 Ang^3
#
#
#
# Elastic Constant Matrix: (Units=GPa)
#
#
# Indices 1 2 3 4 5 6 
#
# 1 117.8332 65.8961 42.4183 0.0000 0.0000 0.0000
# 2 65.8961 99.4279 22.2962 0.0000 0.0000 0.0000
# 3 42.4183 22.2962 98.4803 0.0000 0.0000 0.0000
# 4 0.0000 0.0000 0.0000 24.9663 0.0000 0.0000
# 5 0.0000 0.0000 0.0000 0.0000 22.0305 0.0000
# 6 0.0000 0.0000 0.0000 0.0000 0.0000 16.0494
#
#
#
# Elastic Compliance Matrix: (Units=1/GPa)
#
#
# Indices 1 2 3 4 5 6 
#
# 1 0.015154 -0.009039 -0.004481 0.000000 0.000000 0.000000
# 2 -0.009039 0.015987 0.000274 0.000000 0.000000 0.000000
# 3 -0.004481 0.000274 0.012022 0.000000 0.000000 0.000000
# 4 0.000000 0.000000 0.000000 0.040054 0.000000 0.000000
# 5 0.000000 0.000000 0.000000 0.000000 0.045392 0.000000
# 6 0.000000 0.000000 0.000000 0.000000 0.000000 0.062308
#
#
# Mechanical properties :
#
#
# Convention : Reuss Voigt Hill
#
# Bulk Modulus (GPa) = 59.98253 64.10695 62.04474
# Shear Modulus (GPa) = 22.42493 24.95128 23.68811
#
# Velocity S-wave (km/s) = 3.42104 3.60860 3.51607
# Velocity P-wave (km/s) = 6.84904 7.12881 6.99033
#
# Compressibility (1/GPa) = 0.01667152
#
# Stress axis : x y z
#
# Youngs Moduli (GPa) = 65.98701 62.55226 83.17779
#
# Poissons Ratio (x) = 0.56540 0.37273
# Poissons Ratio (y) = 0.59645 -0.02278
# Poissons Ratio (z) = 0.29569 -0.01713
#
# Static dielectric constant tensor:
#      x y z
#    x 1.671350 0.000000 0.000000 
#    y 0.000000 1.650070 0.000000 
#    z 0.000000 0.000000 1.662140 
# 
# From -- ./inp_files/11326.got.cif
#   From: 2010.05.17/outbox.cif.g08.bks.cpg/sg62_6_cif.got.tgz:11326.got - 2010.06.03 15:25:27.
