data_PCOD9467927
_publ_section_title
;
Structure prediction by ZEFSAII (Michael W. Deem and Ramdas Pophale) SiO2 
 PCOD9467927
Probable space group: P N M A
;
_chemical_formula_sum "Si O2"
_cell_formula_units_Z 56
_cell_length_a 15.000000
_cell_length_b 15.000000
_cell_length_c 12.000000
_cell_angle_alpha 90.000000
_cell_angle_beta 90.000000
_cell_angle_gamma 90.000000
_cell_volume 2700.000000
_symmetry_space_group_name_H-M "P N M A"
_symmetry_group_IT_number 62
_symmetry_cell_setting 'orthorhombic'
loop_
_space_group_symop_operation_xyz
x,y,z
1/2-x,-y,1/2+z
1/2+x,1/2-y,1/2-z
-x,1/2+y,-z
-x,-y,-z
1/2+x,y,1/2-z
1/2-x,1/2+y,1/2+z
x,1/2-y,z
loop_
_atom_site_type_symbol
_atom_site_label
_atom_site_fract_x
_atom_site_fract_y
_atom_site_fract_z
Si Si1 0.993034 0.601684 0.955167
Si Si2 0.184006 0.352991 0.161041
Si Si3 0.014109 0.649411 0.194665
Si Si4 0.291211 0.143969 0.745216
Si Si5 0.882676 0.538504 0.336244
Si Si6 0.791179 0.459942 0.525655
Si Si7 0.325073 0.400591 0.344675
O O1 0.916460 0.610046 0.860515
O O2 0.088241 0.638832 0.909033
O O3 0.000000 0.500000 0.000000
O O4 0.967723 0.647121 0.073381
O O5 0.177932 0.250000 0.132333
O O6 0.239557 0.358573 0.278137
O O7 0.243360 0.403897 0.070525
O O8 0.012979 0.750000 0.236662
O O9 0.117649 0.624099 0.179119
O O10 0.966731 0.590529 0.287953
O O11 0.277418 0.250000 0.751202
O O12 0.205552 0.097956 0.689956
O O13 0.307226 0.101683 0.867248
O O14 0.874644 0.506649 0.463661
O O15 0.873030 0.455198 0.253618
O O16 0.722369 0.534193 0.568207
#
# Coordination Sequence:
#
# PCOD9467927 Si02
#       7
#     8   8   8   8   8   8   8
#     4  12  21  39  67  95 120 165 219 266 311 385
#     4  11  24  40  62  93 132 169 209 266 332 386
#     4  11  23  37  60  91 118 153 207 264 317 370
#     4  10  21  36  58  86 122 156 201 262 318 377
#     4  10  20  36  59  86 117 158 202 261 311 381
#     4  10  20  37  61  86 121 165 210 255 322 384
#     4  10  22  37  62  93 123 162 213 263 314 388
#
# _framework density 20.740741
#
# number of rings (size 3 to 8) (size 9 to 14) (size 15 to 20)
#    0.000    1.429    2.857    3.000    4.000    1.714 
#    0.000    2.857    0.000    3.429    0.000    0.000 
#    0.000    0.000    0.000    0.000    0.000    0.000 
#
# Total GULP energy -312183.766266 kJ/mol
# GULP energy per Si atom -5574.710112 kJ/mol
# Density = 2.069353 g / cm^3
# Si number density = 20.740741 Si / 1000 Ang^3
#
#
#
# Elastic Constant Matrix: (Units=GPa)
#
#
# Indices 1 2 3 4 5 6 
#
# 1 83.8801 18.7534 8.1197 0.0000 0.0000 0.0000
# 2 18.7534 74.5718 21.8331 0.0000 0.0000 0.0000
# 3 8.1197 21.8331 67.4635 0.0000 0.0000 0.0000
# 4 0.0000 0.0000 0.0000 18.7028 0.0000 0.0000
# 5 0.0000 0.0000 0.0000 0.0000 29.3898 0.0000
# 6 0.0000 0.0000 0.0000 0.0000 0.0000 23.5238
#
#
#
# Elastic Compliance Matrix: (Units=1/GPa)
#
#
# Indices 1 2 3 4 5 6 
#
# 1 0.012650 -0.003022 -0.000545 0.000000 0.000000 0.000000
# 2 -0.003022 0.015535 -0.004664 0.000000 0.000000 0.000000
# 3 -0.000545 -0.004664 0.016398 0.000000 0.000000 0.000000
# 4 0.000000 0.000000 0.000000 0.053468 0.000000 0.000000
# 5 0.000000 0.000000 0.000000 0.000000 0.034025 0.000000
# 6 0.000000 0.000000 0.000000 0.000000 0.000000 0.042510
#
#
# Mechanical properties :
#
#
# Convention : Reuss Voigt Hill
#
# Bulk Modulus (GPa) = 35.55880 35.92533 35.74206
# Shear Modulus (GPa) = 24.94742 26.13722 25.54232
#
# Velocity S-wave (km/s) = 3.47194 3.55376 3.51309
# Velocity P-wave (km/s) = 5.76664 5.84788 5.80740
#
# Compressibility (1/GPa) = 0.02812244
#
# Stress axis : x y z
#
# Youngs Moduli (GPa) = 79.05075 64.36939 60.98397
#
# Poissons Ratio (x) = 0.19451 0.03321
# Poissons Ratio (y) = 0.23888 0.28443
# Poissons Ratio (z) = 0.04305 0.30022
#
# Static dielectric constant tensor:
#      x y z
#    x 1.808600 0.000000 0.000000 
#    y 0.000000 1.781980 0.000000 
#    z 0.000000 0.000000 1.736870 
# 
# From -- ./inp_files/13380.got.cif
#   From: 2010.05.17/outbox.ucp.g08.bks.cvg/sg62_7_cif.got.tgz:13380.got - 2010.06.11 16:29:25.
