data_PCOD9467692
_publ_section_title
;
Structure prediction by ZEFSAII (Michael W. Deem and Ramdas Pophale) SiO2 
 PCOD9467692
Probable space group: P N M A
;
_chemical_formula_sum "Si O2"
_cell_formula_units_Z 24
_cell_length_a 8.395541
_cell_length_b 24.342751
_cell_length_c 4.757360
_cell_angle_alpha 90.000000
_cell_angle_beta 90.000000
_cell_angle_gamma 90.000000
_cell_volume 972.264347
_symmetry_space_group_name_H-M "P N M A"
_symmetry_group_IT_number 62
_symmetry_cell_setting 'orthorhombic'
loop_
_space_group_symop_operation_xyz
x,y,z
1/2-x,-y,1/2+z
1/2+x,1/2-y,1/2-z
-x,1/2+y,-z
-x,-y,-z
1/2+x,y,1/2-z
1/2-x,1/2+y,1/2+z
x,1/2-y,z
loop_
_atom_site_type_symbol
_atom_site_label
_atom_site_fract_x
_atom_site_fract_y
_atom_site_fract_z
Si Si1 0.842862 0.479255 0.654347
Si Si2 0.173307 0.855235 0.149313
Si Si3 0.640012 0.313223 0.339621
O O1 0.704843 0.483400 0.419284
O O2 0.857213 0.417633 0.764601
O O3 0.000000 0.500000 0.500000
O O4 0.223798 0.822127 0.425795
O O5 0.317935 0.850625 0.926891
O O6 0.022663 0.829946 0.990933
O O7 0.636017 0.250000 0.248352
#
# Coordination Sequence:
#
# PCOD9467692 Si02
#       3
#     8   8   8
#     4  12  27  50  77 110 149 195 246 305 370 442
#     4  12  27  47  74 109 147 194 248 305 368 441
#     4  12  25  47  74 107 147 195 247 306 369 439
#
# _framework density 24.684642
#
# number of rings (size 3 to 8) (size 9 to 14) (size 15 to 20)
#    0.000    0.000    0.000   10.000    0.000    5.333 
#    0.000    3.333    0.000    0.000    0.000    0.000 
#    0.000    0.000    0.000    0.000    0.000    0.000 
#
# Total GULP energy -134887.721049 kJ/mol
# GULP energy per Si atom -5620.321710 kJ/mol
# Density = 2.462846 g / cm^3
# Si number density = 24.684642 Si / 1000 Ang^3
#
#
#
# Elastic Constant Matrix: (Units=GPa)
#
#
# Indices 1 2 3 4 5 6 
#
# 1 73.2570 19.3497 14.7450 0.0000 0.0000 0.0000
# 2 19.3497 107.9927 15.8466 0.0000 0.0000 0.0000
# 3 14.7450 15.8466 130.3269 0.0000 0.0000 0.0000
# 4 0.0000 0.0000 0.0000 46.4966 0.0000 0.0000
# 5 0.0000 0.0000 0.0000 0.0000 -16.1700 0.0000
# 6 0.0000 0.0000 0.0000 0.0000 0.0000 37.1554
#
#
#
# Elastic Compliance Matrix: (Units=1/GPa)
#
#
# Indices 1 2 3 4 5 6 
#
# 1 0.014560 -0.002410 -0.001354 0.000000 0.000000 0.000000
# 2 -0.002410 0.009827 -0.000922 0.000000 0.000000 0.000000
# 3 -0.001354 -0.000922 0.007938 0.000000 0.000000 0.000000
# 4 0.000000 0.000000 0.000000 0.021507 0.000000 0.000000
# 5 0.000000 0.000000 0.000000 0.000000 -0.061843 0.000000
# 6 0.000000 0.000000 0.000000 0.000000 0.000000 0.026914
#
#
# Mechanical properties :
#
#
# Convention : Reuss Voigt Hill
#
# Bulk Modulus (GPa) = 43.56888 45.71768 44.64328
# Shear Modulus (GPa) = 139.17245 30.93878 85.05562
#
# Velocity S-wave (km/s) = 7.51682 3.54413 5.87637
# Velocity P-wave (km/s) = 9.64496 5.94211 8.01043
#
# Compressibility (1/GPa) = 0.02295216
#
# Stress axis : x y z
#
# Youngs Moduli (GPa) = 68.68266 101.76010 125.97062
#
# Poissons Ratio (x) = 0.24525 0.17059
# Poissons Ratio (y) = 0.16553 0.11617
# Poissons Ratio (z) = 0.09301 0.09384
#
# Static dielectric constant tensor:
#      x y z
#    x 2.029020 0.000000 0.000000 
#    y 0.000000 1.841090 0.000000 
#    z 0.000000 0.000000 1.923670 
# 
# From -- ./inp_files/134.got.cif
#   From: 2010.05.17/outbox.cif.g08.bks.cpg/sg62_1_cif.got.tgz:134.got - 2010.06.03 15:25:27.
