data_PCOD9467477
_publ_section_title
;
Structure prediction by ZEFSAII (Michael W. Deem and Ramdas Pophale) SiO2 
 PCOD9467477
Probable space group: P N M A
;
_chemical_formula_sum "Si O2"
_cell_formula_units_Z 48
_cell_length_a 17.204894
_cell_length_b 8.787477
_cell_length_c 17.306774
_cell_angle_alpha 90.000000
_cell_angle_beta 90.000000
_cell_angle_gamma 90.000000
_cell_volume 2616.569803
_symmetry_space_group_name_H-M "P N M A"
_symmetry_group_IT_number 62
_symmetry_cell_setting 'orthorhombic'
loop_
_space_group_symop_operation_xyz
x,y,z
1/2-x,-y,1/2+z
1/2+x,1/2-y,1/2-z
-x,1/2+y,-z
-x,-y,-z
1/2+x,y,1/2-z
1/2-x,1/2+y,1/2+z
x,1/2-y,z
loop_
_atom_site_type_symbol
_atom_site_label
_atom_site_fract_x
_atom_site_fract_y
_atom_site_fract_z
Si Si1 0.497771 0.068949 0.585623
Si Si2 0.817563 0.565032 0.648887
Si Si3 0.358162 0.433587 0.321452
Si Si4 0.824672 0.067961 0.355183
Si Si5 0.646021 0.066747 0.321781
Si Si6 0.414023 0.567711 0.000377
O O1 0.498091 0.250000 0.580897
O O2 0.500000 0.000000 0.500000
O O3 0.572404 0.011080 0.633141
O O4 0.420858 0.012102 0.629716
O O5 0.817214 0.750000 0.649318
O O6 0.727004 0.519537 0.647310
O O7 0.853530 0.519558 0.731491
O O8 0.866370 0.513984 0.575268
O O9 0.364632 0.250000 0.328912
O O10 0.357866 0.468891 0.229944
O O11 0.832792 0.250000 0.365467
O O12 0.732607 0.033346 0.353124
O O13 0.868754 0.983624 0.423161
O O14 0.635458 0.250000 0.324833
O O15 0.418518 0.750000 0.997494
O O16 0.500000 0.500000 0.000000
#
# Coordination Sequence:
#
# PCOD9467477 Si02
#       6
#     8   8   8   8   8   8
#     4  12  26  40  58  89 122 155 196 242 293 347
#     4   8  18  38  63  86 112 154 198 237 291 350
#     4   9  19  40  65  86 113 153 197 242 295 351
#     4   9  20  39  63  88 117 154 194 241 298 354
#     4   9  19  40  65  87 114 153 198 241 293 354
#     4  11  23  37  57  88 122 156 199 243 290 347
#
# _framework density 18.344629000000001
#
# number of rings (size 3 to 8) (size 9 to 14) (size 15 to 20)
#    0.000    2.333    0.000    4.000    4.667    1.333 
#    0.000    4.167    0.000    0.000    0.000    0.000 
#    0.000    0.000    0.000    0.000    0.000    0.000 
#
# Total GULP energy -268032.760659 kJ/mol
# GULP energy per Si atom -5584.015847 kJ/mol
# Density = 1.830288 g / cm^3
# Si number density = 18.344629 Si / 1000 Ang^3
#
#
#
# Elastic Constant Matrix: (Units=GPa)
#
#
# Indices 1 2 3 4 5 6 
#
# 1 152.5505 75.3726 136.8993 0.0000 0.0000 0.0000
# 2 75.3726 62.7640 74.4950 0.0000 0.0000 0.0000
# 3 136.8993 74.4950 167.7886 0.0000 0.0000 0.0000
# 4 0.0000 0.0000 0.0000 33.7295 0.0000 0.0000
# 5 0.0000 0.0000 0.0000 0.0000 27.8421 0.0000
# 6 0.0000 0.0000 0.0000 0.0000 0.0000 30.7111
#
#
#
# Elastic Compliance Matrix: (Units=1/GPa)
#
#
# Indices 1 2 3 4 5 6 
#
# 1 0.029689 -0.014592 -0.017745 0.000000 0.000000 0.000000
# 2 -0.014592 0.040853 -0.006233 0.000000 0.000000 0.000000
# 3 -0.017745 -0.006233 0.023205 0.000000 0.000000 0.000000
# 4 0.000000 0.000000 0.000000 0.029648 0.000000 0.000000
# 5 0.000000 0.000000 0.000000 0.000000 0.035917 0.000000
# 6 0.000000 0.000000 0.000000 0.000000 0.000000 0.032562
#
#
# Mechanical properties :
#
#
# Convention : Reuss Voigt Hill
#
# Bulk Modulus (GPa) = 60.20850 106.29299 83.25074
# Shear Modulus (GPa) = 18.21166 24.87894 21.54530
#
# Velocity S-wave (km/s) = 3.15421 3.68665 3.43078
# Velocity P-wave (km/s) = 6.79393 8.72869 7.82136
#
# Compressibility (1/GPa) = 0.01660895
#
# Stress axis : x y z
#
# Youngs Moduli (GPa) = 33.68230 24.47778 43.09338
#
# Poissons Ratio (x) = 0.35717 0.76470
# Poissons Ratio (y) = 0.49148 0.26859
# Poissons Ratio (z) = 0.59770 0.15256
#
# Static dielectric constant tensor:
#      x y z
#    x 1.606630 0.000000 0.000000 
#    y 0.000000 1.620270 0.000000 
#    z 0.000000 0.000000 1.614080 
# 
# From -- ./inp_files/23638.got.cif
#   From: 2010.05.17/outbox.cif.g08.bks.cpg/sg62_12_cif.got.tgz:23638.got - 2010.06.03 15:25:27.
