data_PCOD9467336
_publ_section_title
;
Structure prediction by ZEFSAII (Michael W. Deem and Ramdas Pophale) SiO2 
 PCOD9467336
Probable space group: P N M A
;
_chemical_formula_sum "Si O2"
_cell_formula_units_Z 48
_cell_length_a 17.335320
_cell_length_b 17.084228
_cell_length_c 8.041599
_cell_angle_alpha 90.000000
_cell_angle_beta 90.000000
_cell_angle_gamma 90.000000
_cell_volume 2381.604458
_symmetry_space_group_name_H-M "P N M A"
_symmetry_group_IT_number 62
_symmetry_cell_setting 'orthorhombic'
loop_
_space_group_symop_operation_xyz
x,y,z
1/2-x,-y,1/2+z
1/2+x,1/2-y,1/2-z
-x,1/2+y,-z
-x,-y,-z
1/2+x,y,1/2-z
1/2-x,1/2+y,1/2+z
x,1/2-y,z
loop_
_atom_site_type_symbol
_atom_site_label
_atom_site_fract_x
_atom_site_fract_y
_atom_site_fract_z
Si Si1 0.010357 0.922434 0.729341
Si Si2 0.213582 0.011724 0.253999
Si Si3 0.945233 0.662233 0.247431
Si Si4 0.371377 0.661198 0.881816
Si Si5 0.417788 0.419563 0.880479
Si Si6 0.630402 0.486950 0.598934
O O1 0.065436 0.904571 0.573273
O O2 0.945274 0.856513 0.736936
O O3 0.064037 0.947457 0.881746
O O4 0.962511 0.000211 0.673785
O O5 0.189951 0.093328 0.342782
O O6 0.170341 0.939163 0.344051
O O7 0.304488 0.000177 0.261306
O O8 0.176109 0.011788 0.072268
O O9 0.931462 0.750000 0.189558
O O10 0.904984 0.652544 0.430303
O O11 0.909738 0.595840 0.131690
O O12 0.035905 0.645870 0.278804
O O13 0.343676 0.750000 0.861147
#
# Coordination Sequence:
#
# PCOD9467336 Si02
#       6
#     8   8   8   8   8   8
#     4   8  15  30  51  73  97 127 162 199 243 298
#     4  11  21  33  51  74 102 137 174 211 251 298
#     4   9  18  34  55  77 102 131 163 205 257 307
#     4   9  18  34  55  77 102 131 163 205 257 307
#     4   8  15  30  51  73  97 127 162 199 243 298
#     4  11  21  33  51  74 102 137 174 211 251 298
#
# _framework density 20.154481000000001
#
# number of rings (size 3 to 8) (size 9 to 14) (size 15 to 20)
#    0.000    2.667    0.000    5.000    0.000    6.667 
#    0.000    1.667    0.000    6.000    0.000    0.000 
#    0.000    0.000    0.000    0.000    0.000    0.000 
#
# Total GULP energy -267772.735283 kJ/mol
# GULP energy per Si atom -5578.598652 kJ/mol
# Density = 2.010861 g / cm^3
# Si number density = 20.154481 Si / 1000 Ang^3
#
#
#
# Elastic Constant Matrix: (Units=GPa)
#
#
# Indices 1 2 3 4 5 6 
#
# 1 61.5693 11.5750 1.1834 0.0000 0.0000 0.0000
# 2 11.5750 66.2035 5.7267 0.0000 0.0000 0.0000
# 3 1.1834 5.7267 49.8040 0.0000 0.0000 0.0000
# 4 0.0000 0.0000 0.0000 15.0645 0.0000 0.0000
# 5 0.0000 0.0000 0.0000 0.0000 35.3504 0.0000
# 6 0.0000 0.0000 0.0000 0.0000 0.0000 16.4688
#
#
#
# Elastic Compliance Matrix: (Units=1/GPa)
#
#
# Indices 1 2 3 4 5 6 
#
# 1 0.016794 -0.002931 -0.000062 0.000000 0.000000 0.000000
# 2 -0.002931 0.015768 -0.001743 0.000000 0.000000 0.000000
# 3 -0.000062 -0.001743 0.020281 0.000000 0.000000 0.000000
# 4 0.000000 0.000000 0.000000 0.066381 0.000000 0.000000
# 5 0.000000 0.000000 0.000000 0.000000 0.028288 0.000000
# 6 0.000000 0.000000 0.000000 0.000000 0.000000 0.060721
#
#
# Mechanical properties :
#
#
# Convention : Reuss Voigt Hill
#
# Bulk Modulus (GPa) = 23.05736 23.83856 23.44796
# Shear Modulus (GPa) = 21.53659 23.98283 22.75971
#
# Velocity S-wave (km/s) = 3.27245 3.45331 3.36410
# Velocity P-wave (km/s) = 5.07383 5.26821 5.17193
#
# Compressibility (1/GPa) = 0.04337010
#
# Stress axis : x y z
#
# Youngs Moduli (GPa) = 59.54483 63.41882 49.30809
#
# Poissons Ratio (x) = 0.18587 0.00306
# Poissons Ratio (y) = 0.17452 0.08597
# Poissons Ratio (z) = 0.00369 0.11057
#
# Static dielectric constant tensor:
#      x y z
#    x 1.722020 0.000000 0.000000 
#    y 0.000000 1.702430 0.000000 
#    z 0.000000 0.000000 1.796370 
# 
# From -- ./inp_files/7782.got.cif
#   From: 2010.05.17/outbox.cif.g08.bks.cpg/sg62_4_cif.got.tgz:7782.got - 2010.06.03 15:25:27.
