data_PCOD9467997
_publ_section_title
;
Structure prediction by ZEFSAII (Michael W. Deem and Ramdas Pophale) SiO2 
 PCOD9467997
Probable space group: P N M A
;
_chemical_formula_sum "Si O2"
_cell_formula_units_Z 48
_cell_length_a 30.000000
_cell_length_b 9.000000
_cell_length_c 9.000000
_cell_angle_alpha 90.000000
_cell_angle_beta 90.000000
_cell_angle_gamma 90.000000
_cell_volume 2430.000000
_symmetry_space_group_name_H-M "P N M A"
_symmetry_group_IT_number 62
_symmetry_cell_setting 'orthorhombic'
loop_
_space_group_symop_operation_xyz
x,y,z
1/2-x,-y,1/2+z
1/2+x,1/2-y,1/2-z
-x,1/2+y,-z
-x,-y,-z
1/2+x,y,1/2-z
1/2-x,1/2+y,1/2+z
x,1/2-y,z
loop_
_atom_site_type_symbol
_atom_site_label
_atom_site_fract_x
_atom_site_fract_y
_atom_site_fract_z
Si Si1 0.275195 0.916377 0.579554
Si Si2 0.541097 0.418030 0.571107
Si Si3 0.862152 0.574549 0.113546
Si Si4 0.868046 0.422318 0.421130
Si Si5 0.297742 0.585936 0.920791
Si Si6 0.540372 0.417778 0.925915
O O1 0.258848 0.750000 0.535233
O O2 0.322672 0.937928 0.502191
O O3 0.280477 0.917336 0.754574
O O4 0.242515 0.043624 0.527325
O O5 0.500000 0.500000 0.500000
O O6 0.541545 0.250000 0.512959
O O7 0.590699 0.483335 0.550656
O O8 0.534818 0.415884 0.748343
O O9 0.869130 0.750000 0.147390
O O10 0.851037 0.494786 0.267466
O O11 0.872798 0.250000 0.398125
O O12 0.834666 0.463733 0.550883
O O13 0.914738 0.495650 0.457298
O O14 0.315880 0.750000 0.954265
O O15 0.543708 0.250000 0.979959
O O16 0.500000 0.500000 0.000000
#
# Coordination Sequence:
#
# PCOD9467997 Si02
#       6
#     8   8   8   8   8   8
#     4  10  22  39  59  83 110 145 188 230 277 334
#     4   9  19  34  54  81 112 147 186 227 273 324
#     4   9  19  38  59  80 111 148 185 229 278 327
#     4  11  22  37  58  84 112 146 188 230 276 331
#     4  11  23  38  57  83 114 147 183 228 281 333
#     4  10  21  38  58  83 114 149 188 230 278 329
#
# _framework density 19.753086
#
# number of rings (size 3 to 8) (size 9 to 14) (size 15 to 20)
#    0.000    2.000    0.000    4.500    0.000    9.333 
#    0.000    1.667    0.000    0.000    0.000    0.000 
#    0.000    0.000    0.000    0.000    0.000    0.000 
#
# Total GULP energy -267767.603519 kJ/mol
# GULP energy per Si atom -5578.491740 kJ/mol
# Density = 1.970813 g / cm^3
# Si number density = 19.753086 Si / 1000 Ang^3
#
#
#
# Elastic Constant Matrix: (Units=GPa)
#
#
# Indices 1 2 3 4 5 6 
#
# 1 50.3637 45.8854 43.7607 0.0000 0.0000 0.0000
# 2 45.8854 76.9856 25.6659 0.0000 0.0000 0.0000
# 3 43.7607 25.6659 15.9391 0.0000 0.0000 0.0000
# 4 0.0000 0.0000 0.0000 18.4246 0.0000 0.0000
# 5 0.0000 0.0000 0.0000 0.0000 26.5290 0.0000
# 6 0.0000 0.0000 0.0000 0.0000 0.0000 26.3893
#
#
#
# Elastic Compliance Matrix: (Units=1/GPa)
#
#
# Indices 1 2 3 4 5 6 
#
# 1 -0.011531 -0.007949 0.044457 0.000000 0.000000 0.000000
# 2 -0.007949 0.022566 -0.014513 0.000000 0.000000 0.000000
# 3 0.044457 -0.014513 -0.035947 0.000000 0.000000 0.000000
# 4 0.000000 0.000000 0.000000 0.054275 0.000000 0.000000
# 5 0.000000 0.000000 0.000000 0.000000 0.037695 0.000000
# 6 0.000000 0.000000 0.000000 0.000000 0.000000 0.037894
#
#
# Mechanical properties :
#
#
# Convention : Reuss Voigt Hill
#
# Bulk Modulus (GPa) = 52.41718 41.54580 46.98149
# Shear Modulus (GPa) = 74.27060 16.13368 45.20214
#
# Velocity S-wave (km/s) = 6.13849 2.86102 4.78887
# Velocity P-wave (km/s) = 8.76557 5.65616 7.37656
#
# Compressibility (1/GPa) = 0.01907772
#
# Stress axis : x y z
#
# Youngs Moduli (GPa) = -86.72502 44.31542 -27.81884
#
# Poissons Ratio (x) = 0.35225 1.23673
# Poissons Ratio (y) = -0.68934 -0.40374
# Poissons Ratio (z) = 3.85551 0.64316
#
# Static dielectric constant tensor:
#      x y z
#    x 1.710160 0.000000 0.000000 
#    y 0.000000 1.707590 0.000000 
#    z 0.000000 0.000000 1.665750 
# 
# From -- ./inp_files/10127.got.cif
#   From: 2010.05.17/outbox.ucp.g08.bks.cvg/sg62_6_cif.got.tgz:10127.got - 2010.06.11 16:29:25.
