data_PCOD9467708
_publ_section_title
;
Structure prediction by ZEFSAII (Michael W. Deem and Ramdas Pophale) SiO2 
 PCOD9467708
Probable space group: P N M A
;
_chemical_formula_sum "Si O2"
_cell_formula_units_Z 40
_cell_length_a 28.257568
_cell_length_b 7.951983
_cell_length_c 6.819338
_cell_angle_alpha 90.000000
_cell_angle_beta 90.000000
_cell_angle_gamma 90.000000
_cell_volume 1532.330483
_symmetry_space_group_name_H-M "P N M A"
_symmetry_group_IT_number 62
_symmetry_cell_setting 'orthorhombic'
loop_
_space_group_symop_operation_xyz
x,y,z
1/2-x,-y,1/2+z
1/2+x,1/2-y,1/2-z
-x,1/2+y,-z
-x,-y,-z
1/2+x,y,1/2-z
1/2-x,1/2+y,1/2+z
x,1/2-y,z
loop_
_atom_site_type_symbol
_atom_site_label
_atom_site_fract_x
_atom_site_fract_y
_atom_site_fract_z
Si Si1 0.086540 0.457557 0.318032
Si Si2 0.788194 0.938767 0.031237
Si Si3 0.013435 0.548833 0.775192
Si Si4 0.316134 0.938322 0.923665
Si Si5 0.886376 0.548714 0.127013
O O1 0.086507 0.250000 0.327105
O O2 0.132117 0.522488 0.439509
O O3 0.032460 0.515618 0.345917
O O4 0.098230 0.506340 0.091933
O O5 0.779869 0.750000 0.102130
O O6 0.832028 0.016834 0.155898
O O7 0.735852 0.010792 0.008353
O O8 0.808217 0.933861 0.811466
O O9 0.014670 0.750000 0.761698
O O10 0.066815 0.484071 0.744425
O O11 0.000000 0.500000 0.000000
O O12 0.323616 0.750000 0.995912
O O13 0.881151 0.750000 0.119927
#
# Coordination Sequence:
#
# PCOD9467708 Si02
#       5
#     8   8   8   8   8
#     4   7  12  23  37  54  79 109 135 165 208 252
#     4   9  18  31  45  64  91 118 145 182 222 257
#     4   9  14  21  35  55  80 108 137 169 210 256
#     4   9  17  30  46  63  87 118 148 177 213 259
#     4   8  14  25  38  54  81 111 136 169 214 256
#
# _framework density 26.104028
#
# number of rings (size 3 to 8) (size 9 to 14) (size 15 to 20)
#    0.000    3.600    0.000    4.200    0.000    1.600 
#    0.000    9.000    0.000    0.000    0.000    1.400 
#    0.000    0.000    0.000    0.000    0.000    0.000 
#
# Total GULP energy -222962.598999 kJ/mol
# GULP energy per Si atom -5574.064975 kJ/mol
# Density = 2.604461 g / cm^3
# Si number density = 26.104028 Si / 1000 Ang^3
#
#
#
# Elastic Constant Matrix: (Units=GPa)
#
#
# Indices 1 2 3 4 5 6 
#
# 1 350.3261 18.6452 51.3717 0.0000 0.0000 0.0000
# 2 18.6452 23.7239 -16.8106 0.0000 0.0000 0.0000
# 3 51.3717 -16.8106 73.1442 0.0000 0.0000 0.0000
# 4 0.0000 0.0000 0.0000 0.1593 0.0000 0.0000
# 5 0.0000 0.0000 0.0000 0.0000 71.2061 0.0000
# 6 0.0000 0.0000 0.0000 0.0000 0.0000 24.6842
#
#
#
# Elastic Compliance Matrix: (Units=1/GPa)
#
#
# Indices 1 2 3 4 5 6 
#
# 1 0.003738 -0.005731 -0.003942 0.000000 0.000000 0.000000
# 2 -0.005731 0.059139 0.017617 0.000000 0.000000 0.000000
# 3 -0.003942 0.017617 0.020489 0.000000 0.000000 0.000000
# 4 0.000000 0.000000 0.000000 6.275815 0.000000 0.000000
# 5 0.000000 0.000000 0.000000 0.000000 0.014044 0.000000
# 6 0.000000 0.000000 0.000000 0.000000 0.000000 0.040512
#
#
# Mechanical properties :
#
#
# Convention : Reuss Voigt Hill
#
# Bulk Modulus (GPa) = 10.07528 61.51187 35.79358
# Shear Modulus (GPa) = 0.77749 45.47578 23.12664
#
# Velocity S-wave (km/s) = 0.54634 4.17837 2.97971
# Velocity P-wave (km/s) = 2.06544 6.84790 5.05765
#
# Compressibility (1/GPa) = 0.09925285
#
# Stress axis : x y z
#
# Youngs Moduli (GPa) = 267.55399 16.90941 48.80640
#
# Poissons Ratio (x) = 0.09690 0.19240
# Poissons Ratio (y) = 1.53330 -0.85981
# Poissons Ratio (z) = 1.05473 -0.29789
#
# Static dielectric constant tensor:
#      x y z
#    x 2.186930 0.000000 0.000000 
#    y 0.000000 1.953030 0.000000 
#    z 0.000000 0.000000 2.241260 
# 
# From -- ./inp_files/9700.got.cif
#   From: 2010.05.17/outbox.cif.g08.bks.cpg/sg62_5_cif.got.tgz:9700.got - 2010.06.03 15:25:27.
