data_PCOD9467575
_publ_section_title
;
Structure prediction by ZEFSAII (Michael W. Deem and Ramdas Pophale) SiO2 
 PCOD9467575
Probable space group: P N M A
;
_chemical_formula_sum "Si O2"
_cell_formula_units_Z 32
_cell_length_a 10.638934
_cell_length_b 15.622544
_cell_length_c 8.879595
_cell_angle_alpha 90.000000
_cell_angle_beta 90.000000
_cell_angle_gamma 90.000000
_cell_volume 1475.852751
_symmetry_space_group_name_H-M "P N M A"
_symmetry_group_IT_number 62
_symmetry_cell_setting 'orthorhombic'
loop_
_space_group_symop_operation_xyz
x,y,z
1/2-x,-y,1/2+z
1/2+x,1/2-y,1/2-z
-x,1/2+y,-z
-x,-y,-z
1/2+x,y,1/2-z
1/2-x,1/2+y,1/2+z
x,1/2-y,z
loop_
_atom_site_type_symbol
_atom_site_label
_atom_site_fract_x
_atom_site_fract_y
_atom_site_fract_z
Si Si1 0.742992 0.846295 0.658721
Si Si2 0.594975 0.017726 0.634847
Si Si3 0.259817 0.341530 0.000357
Si Si4 0.970681 0.904451 0.447093
O O1 0.693831 0.750000 0.626778
O O2 0.793964 0.843191 0.829802
O O3 0.846396 0.870716 0.532931
O O4 0.643275 0.923024 0.674322
O O5 0.711821 0.073537 0.578294
O O6 0.542427 0.077425 0.768803
O O7 0.500000 0.000000 0.500000
O O8 0.220799 0.250000 0.931511
O O9 0.410730 0.346984 0.992960
O O10 0.000000 0.000000 0.500000
#
# Coordination Sequence:
#
# PCOD9467575 Si02
#       4
#     8   8   8   8
#     4  11  24  44  70 100 135 182 232 283 348 417
#     4  12  26  44  70 102 140 185 230 288 350 414
#     4  11  26  46  70 102 138 179 231 290 351 415
#     4  12  23  44  73  98 137 183 232 283 350 414
#
# _framework density 21.682379000000001
#
# number of rings (size 3 to 8) (size 9 to 14) (size 15 to 20)
#    0.000    0.500    5.000    2.250    3.500    3.000 
#    0.000    0.000    0.000    0.000    0.000    0.000 
#    0.000    0.000    0.000    0.000    0.000    0.000 
#
# Total GULP energy -178517.421432 kJ/mol
# GULP energy per Si atom -5578.669420 kJ/mol
# Density = 2.163303 g / cm^3
# Si number density = 21.682379 Si / 1000 Ang^3
#
#
#
# Elastic Constant Matrix: (Units=GPa)
#
#
# Indices 1 2 3 4 5 6 
#
# 1 47.0808 9.3389 23.7115 0.0000 0.0000 0.0000
# 2 9.3389 158.3204 11.5839 0.0000 0.0000 0.0000
# 3 23.7115 11.5839 102.1886 0.0000 0.0000 0.0000
# 4 0.0000 0.0000 0.0000 9.7806 0.0000 0.0000
# 5 0.0000 0.0000 0.0000 0.0000 31.1247 0.0000
# 6 0.0000 0.0000 0.0000 0.0000 0.0000 2.9829
#
#
#
# Elastic Compliance Matrix: (Units=1/GPa)
#
#
# Indices 1 2 3 4 5 6 
#
# 1 0.024215 -0.001026 -0.005502 0.000000 0.000000 0.000000
# 2 -0.001026 0.006413 -0.000489 0.000000 0.000000 0.000000
# 3 -0.005502 -0.000489 0.011118 0.000000 0.000000 0.000000
# 4 0.000000 0.000000 0.000000 0.102244 0.000000 0.000000
# 5 0.000000 0.000000 0.000000 0.000000 0.032129 0.000000
# 6 0.000000 0.000000 0.000000 0.000000 0.000000 0.335243
#
#
# Mechanical properties :
#
#
# Convention : Reuss Voigt Hill
#
# Bulk Modulus (GPa) = 36.08655 44.09539 40.09097
# Shear Modulus (GPa) = 9.35223 26.30799 17.83011
#
# Velocity S-wave (km/s) = 2.07910 3.48707 2.87074
# Velocity P-wave (km/s) = 4.73740 6.04930 5.43309
#
# Compressibility (1/GPa) = 0.02771116
#
# Stress axis : x y z
#
# Youngs Moduli (GPa) = 41.29706 155.94337 89.94409
#
# Poissons Ratio (x) = 0.15996 0.49491
# Poissons Ratio (y) = 0.04236 0.04397
# Poissons Ratio (z) = 0.22723 0.07624
#
# Static dielectric constant tensor:
#      x y z
#    x 1.870120 0.000000 0.000000 
#    y 0.000000 1.339430 0.000000 
#    z 0.000000 0.000000 1.904290 
# 
# From -- ./inp_files/4811.got.cif
#   From: 2010.05.17/outbox.cif.g08.bks.cpg/sg62_3_cif.got.tgz:4811.got - 2010.06.03 15:25:27.
