data_PCOD9467877
_publ_section_title
;
Structure prediction by ZEFSAII (Michael W. Deem and Ramdas Pophale) SiO2 
 PCOD9467877
Probable space group: P N M A
;
_chemical_formula_sum "Si O2"
_cell_formula_units_Z 48
_cell_length_a 30.000000
_cell_length_b 9.000000
_cell_length_c 9.000000
_cell_angle_alpha 90.000000
_cell_angle_beta 90.000000
_cell_angle_gamma 90.000000
_cell_volume 2430.000000
_symmetry_space_group_name_H-M "P N M A"
_symmetry_group_IT_number 62
_symmetry_cell_setting 'orthorhombic'
loop_
_space_group_symop_operation_xyz
x,y,z
1/2-x,-y,1/2+z
1/2+x,1/2-y,1/2-z
-x,1/2+y,-z
-x,-y,-z
1/2+x,y,1/2-z
1/2-x,1/2+y,1/2+z
x,1/2-y,z
loop_
_atom_site_type_symbol
_atom_site_label
_atom_site_fract_x
_atom_site_fract_y
_atom_site_fract_z
Si Si1 0.857154 0.428413 0.217589
Si Si2 0.435438 0.926403 0.103121
Si Si3 0.806448 0.072829 0.702074
Si Si4 0.888809 0.430100 0.893080
Si Si5 0.220872 0.073871 0.608013
Si Si6 0.968181 0.072184 0.700863
O O1 0.853954 0.250000 0.218448
O O2 0.893922 0.483775 0.334357
O O3 0.810961 0.498371 0.270259
O O4 0.872743 0.480819 0.054412
O O5 0.426498 0.750000 0.100577
O O6 0.479057 0.954762 0.205650
O O7 0.449153 0.984448 0.940785
O O8 0.808311 0.250000 0.671960
O O9 0.854265 0.022614 0.764540
O O10 0.771144 0.049278 0.835265
O O11 0.790499 0.993362 0.552578
O O12 0.886567 0.250000 0.897805
O O13 0.938611 0.470218 0.842889
O O14 0.212896 0.250000 0.604509
O O15 0.962471 0.250000 0.674743
#
# Coordination Sequence:
#
# PCOD9467877 Si02
#       6
#     8   8   8   8   8   8
#     4  11  22  37  57  79 109 150 190 228 278 334
#     4  10  20  34  54  83 114 143 184 235 281 330
#     4  10  21  38  60  84 112 146 183 226 277 330
#     4   9  19  36  57  80 106 143 189 228 269 329
#     4  11  23  38  58  86 116 145 184 230 273 323
#     4   9  18  35  58  81 109 147 188 230 278 333
#
# _framework density 19.753086
#
# number of rings (size 3 to 8) (size 9 to 14) (size 15 to 20)
#    0.000    2.000    0.000    3.500    0.000    5.333 
#    0.000    3.333    0.000    0.000    0.000    0.000 
#    0.000    0.000    0.000    0.000    0.000    0.000 
#
# Total GULP energy -268096.173696 kJ/mol
# GULP energy per Si atom -5585.336952 kJ/mol
# Density = 1.970813 g / cm^3
# Si number density = 19.753086 Si / 1000 Ang^3
#
#
#
# Elastic Constant Matrix: (Units=GPa)
#
#
# Indices 1 2 3 4 5 6 
#
# 1 40.9155 6.1570 -31.2860 0.0000 0.0000 0.0000
# 2 6.1570 28.0787 -8.1117 0.0000 0.0000 0.0000
# 3 -31.2860 -8.1117 19.7449 0.0000 0.0000 0.0000
# 4 0.0000 0.0000 0.0000 26.0619 0.0000 0.0000
# 5 0.0000 0.0000 0.0000 0.0000 26.9273 0.0000
# 6 0.0000 0.0000 0.0000 0.0000 0.0000 22.1034
#
#
#
# Elastic Compliance Matrix: (Units=1/GPa)
#
#
# Indices 1 2 3 4 5 6 
#
# 1 -0.095516 -0.025846 -0.161964 0.000000 0.000000 0.000000
# 2 -0.025846 0.033417 -0.027224 0.000000 0.000000 0.000000
# 3 -0.161964 -0.027224 -0.217173 0.000000 0.000000 0.000000
# 4 0.000000 0.000000 0.000000 0.038370 0.000000 0.000000
# 5 0.000000 0.000000 0.000000 0.000000 0.037137 0.000000
# 6 0.000000 0.000000 0.000000 0.000000 0.000000 0.045242
#
#
# Mechanical properties :
#
#
# Convention : Reuss Voigt Hill
#
# Bulk Modulus (GPa) = -1.40976 2.47308 0.53166
# Shear Modulus (GPa) = 142.45537 23.15050 82.80293
#
# Velocity S-wave (km/s) = 8.50145 3.42715 6.48151
# Velocity P-wave (km/s) = 9.78013 4.11281 7.50220
#
# Compressibility (1/GPa) = -0.70933904
#
# Stress axis : x y z
#
# Youngs Moduli (GPa) = -10.46948 29.92513 -4.60463
#
# Poissons Ratio (x) = 0.77343 -0.74579
# Poissons Ratio (y) = -0.27059 -0.12536
# Poissons Ratio (z) = -1.69568 0.81469
#
# Static dielectric constant tensor:
#      x y z
#    x 1.707800 0.000000 0.000000 
#    y 0.000000 1.656030 0.000000 
#    z 0.000000 0.000000 1.677150 
# 
# From -- ./inp_files/10214.got.cif
#   From: 2010.05.17/outbox.ucp.g08.bks.cvg/sg62_6_cif.got.tgz:10214.got - 2010.06.11 16:29:25.
