data_PCOD9467556
_publ_section_title
;
Structure prediction by ZEFSAII (Michael W. Deem and Ramdas Pophale) SiO2 
 PCOD9467556
Probable space group: P N M A
;
_chemical_formula_sum "Si O2"
_cell_formula_units_Z 40
_cell_length_a 26.986330
_cell_length_b 12.342625
_cell_length_c 5.504403
_cell_angle_alpha 90.000000
_cell_angle_beta 90.000000
_cell_angle_gamma 90.000000
_cell_volume 1833.418393
_symmetry_space_group_name_H-M "P N M A"
_symmetry_group_IT_number 62
_symmetry_cell_setting 'orthorhombic'
loop_
_space_group_symop_operation_xyz
x,y,z
1/2-x,-y,1/2+z
1/2+x,1/2-y,1/2-z
-x,1/2+y,-z
-x,-y,-z
1/2+x,y,1/2-z
1/2-x,1/2+y,1/2+z
x,1/2-y,z
loop_
_atom_site_type_symbol
_atom_site_label
_atom_site_fract_x
_atom_site_fract_y
_atom_site_fract_z
Si Si1 0.530666 0.988511 0.249373
Si Si2 0.720631 0.364127 0.917998
Si Si3 0.625443 0.750000 0.748065
Si Si4 0.316115 0.056052 0.365872
Si Si5 0.426677 0.250000 0.763117
Si Si6 0.869805 0.877269 0.808027
O O1 0.547936 0.864743 0.272128
O O2 0.500000 0.000000 0.500000
O O3 0.576952 0.073243 0.229985
O O4 0.500000 0.000000 0.000000
O O5 0.712302 0.250000 0.782433
O O6 0.718659 0.473521 0.772248
O O7 0.777060 0.365632 0.005443
O O8 0.675396 0.372436 0.111461
O O9 0.653186 0.637432 0.799713
O O10 0.613590 0.750000 0.459406
O O11 0.583495 0.750000 0.948286
O O12 0.351093 0.971511 0.507888
O O13 0.876082 0.750000 0.887589
#
# Coordination Sequence:
#
# PCOD9467556 Si02
#       6
#     8   8   4   8   4   8
#     4  12  29  50  78 108 144 191 247 312 379 446
#     4  11  24  42  67 103 145 196 245 297 363 439
#     4  12  26  44  80 106 147 199 242 312 362 440
#     4  12  23  43  69 106 148 193 246 299 362 444
#     4  12  26  52  76 108 145 191 254 308 380 438
#     4  11  26  47  70 104 144 191 243 306 370 442
#
# _framework density 21.817170999999998
#
# number of rings (size 3 to 8) (size 9 to 14) (size 15 to 20)
#    0.000    0.400    5.000    3.000    5.600    0.000 
#    1.800    0.000    0.000    0.000    0.000    0.000 
#    0.000    0.000    0.000    0.000    0.000    0.000 
#
# Total GULP energy -222728.345022 kJ/mol
# GULP energy per Si atom -5568.208626 kJ/mol
# Density = 2.176751 g / cm^3
# Si number density = 21.817171 Si / 1000 Ang^3
#
#
#
# Elastic Constant Matrix: (Units=GPa)
#
#
# Indices 1 2 3 4 5 6 
#
# 1 104.7837 51.9390 24.9557 0.0000 0.0000 0.0000
# 2 51.9390 207.1878 20.8713 0.0000 0.0000 0.0000
# 3 24.9557 20.8713 45.1119 0.0000 0.0000 0.0000
# 4 0.0000 0.0000 0.0000 23.0905 0.0000 0.0000
# 5 0.0000 0.0000 0.0000 0.0000 31.3073 0.0000
# 6 0.0000 0.0000 0.0000 0.0000 0.0000 33.5045
#
#
#
# Elastic Compliance Matrix: (Units=1/GPa)
#
#
# Indices 1 2 3 4 5 6 
#
# 1 0.012089 -0.002472 -0.005544 0.000000 0.000000 0.000000
# 2 -0.002472 0.005568 -0.001209 0.000000 0.000000 0.000000
# 3 -0.005544 -0.001209 0.025793 0.000000 0.000000 0.000000
# 4 0.000000 0.000000 0.000000 0.043308 0.000000 0.000000
# 5 0.000000 0.000000 0.000000 0.000000 0.031941 0.000000
# 6 0.000000 0.000000 0.000000 0.000000 0.000000 0.029847
#
#
# Mechanical properties :
#
#
# Convention : Reuss Voigt Hill
#
# Bulk Modulus (GPa) = 39.99816 61.40172 50.69994
# Shear Modulus (GPa) = 28.51777 34.86827 31.69302
#
# Velocity S-wave (km/s) = 3.61934 4.00209 3.81552
# Velocity P-wave (km/s) = 5.98659 7.03992 6.53452
#
# Compressibility (1/GPa) = 0.02500115
#
# Stress axis : x y z
#
# Youngs Moduli (GPa) = 82.71834 179.59755 38.77006
#
# Poissons Ratio (x) = 0.44399 0.21494
# Poissons Ratio (y) = 0.20449 0.04685
# Poissons Ratio (z) = 0.45859 0.21705
#
# Static dielectric constant tensor:
#      x y z
#    x 1.829180 0.000000 0.000000 
#    y 0.000000 1.725790 0.000000 
#    z 0.000000 0.000000 1.956050 
# 
# From -- ./inp_files/3061.got.cif
#   From: 2010.05.17/outbox.cif.g08.bks.cpg/sg62_2_cif.got.tgz:3061.got - 2010.06.03 15:25:27.
