data_PCOD9467422
_publ_section_title
;
Structure prediction by ZEFSAII (Michael W. Deem and Ramdas Pophale) SiO2 
 PCOD9467422
Probable space group: P N M A
;
_chemical_formula_sum "Si O2"
_cell_formula_units_Z 56
_cell_length_a 9.584012
_cell_length_b 19.881257
_cell_length_c 13.715337
_cell_angle_alpha 90.000000
_cell_angle_beta 90.000000
_cell_angle_gamma 90.000000
_cell_volume 2613.350563
_symmetry_space_group_name_H-M "P N M A"
_symmetry_group_IT_number 62
_symmetry_cell_setting 'orthorhombic'
loop_
_space_group_symop_operation_xyz
x,y,z
1/2-x,-y,1/2+z
1/2+x,1/2-y,1/2-z
-x,1/2+y,-z
-x,-y,-z
1/2+x,y,1/2-z
1/2-x,1/2+y,1/2+z
x,1/2-y,z
loop_
_atom_site_type_symbol
_atom_site_label
_atom_site_fract_x
_atom_site_fract_y
_atom_site_fract_z
Si Si1 0.148595 0.408071 0.220688
Si Si2 0.538200 0.139692 0.467303
Si Si3 0.718689 0.462454 0.559543
Si Si4 0.721485 0.381311 0.060467
Si Si5 0.087751 0.250000 0.876553
Si Si6 0.391624 0.993790 0.229501
Si Si7 0.381983 0.250000 0.791061
Si Si8 0.512624 0.621295 0.089691
O O1 0.104180 0.354313 0.139784
O O2 0.187223 0.376549 0.325021
O O3 0.277772 0.454550 0.186992
O O4 0.020914 0.459645 0.238269
O O5 0.588121 0.065524 0.499502
O O6 0.372837 0.148892 0.461402
O O7 0.596563 0.187114 0.551215
O O8 0.761070 0.538853 0.539258
O O9 0.676905 0.461760 0.673898
O O10 0.852082 0.414856 0.543966
O O11 0.597292 0.356451 0.992286
O O12 0.215065 0.250000 0.800754
O O13 0.944166 0.250000 0.817071
O O14 0.441167 0.935546 0.157735
O O15 0.438398 0.183806 0.845614
#
# Coordination Sequence:
#
# PCOD9467422 Si02
#       8
#     8   8   8   8   4   8   4   8
#     4  11  23  42  67 103 141 173 229 285 353 414
#     4  12  25  46  69  99 142 184 236 286 344 416
#     4  11  22  40  65 104 139 179 232 282 360 408
#     4  11  25  40  70 108 133 186 225 295 357 408
#     4  12  30  52  77  99 136 190 235 283 343 414
#     4  11  22  38  65 105 140 179 222 289 354 413
#     4  12  30  52  69 103 136 186 233 285 337 422
#     4  12  25  42  69  99 144 184 233 285 343 418
#
# _framework density 21.428432000000001
#
# number of rings (size 3 to 8) (size 9 to 14) (size 15 to 20)
#    0.000    0.571    7.143    2.571    6.000    0.000 
#    0.000    1.429    0.000    0.000    0.000    0.000 
#    0.000    0.000    0.000    0.000    0.000    0.000 
#
# Total GULP energy -313360.670879 kJ/mol
# GULP energy per Si atom -5595.726266 kJ/mol
# Density = 2.137966 g / cm^3
# Si number density = 21.428432 Si / 1000 Ang^3
#
#
#
# Elastic Constant Matrix: (Units=GPa)
#
#
# Indices 1 2 3 4 5 6 
#
# 1 118.0202 2.3775 22.2786 0.0000 0.0000 0.0000
# 2 2.3775 25.9825 1.4380 0.0000 0.0000 0.0000
# 3 22.2786 1.4380 73.3207 0.0000 0.0000 0.0000
# 4 0.0000 0.0000 0.0000 20.3694 0.0000 0.0000
# 5 0.0000 0.0000 0.0000 0.0000 24.9767 0.0000
# 6 0.0000 0.0000 0.0000 0.0000 0.0000 13.9147
#
#
#
# Elastic Compliance Matrix: (Units=1/GPa)
#
#
# Indices 1 2 3 4 5 6 
#
# 1 0.009000 -0.000673 -0.002722 0.000000 0.000000 0.000000
# 2 -0.000673 0.038580 -0.000552 0.000000 0.000000 0.000000
# 3 -0.002722 -0.000552 0.014476 0.000000 0.000000 0.000000
# 4 0.000000 0.000000 0.000000 0.049093 0.000000 0.000000
# 5 0.000000 0.000000 0.000000 0.000000 0.040037 0.000000
# 6 0.000000 0.000000 0.000000 0.000000 0.000000 0.071867
#
#
# Mechanical properties :
#
#
# Convention : Reuss Voigt Hill
#
# Bulk Modulus (GPa) = 18.46276 29.94572 24.20424
# Shear Modulus (GPa) = 20.08021 24.60078 22.34050
#
# Velocity S-wave (km/s) = 3.06450 3.39196 3.23238
# Velocity P-wave (km/s) = 4.59960 5.41716 5.02503
#
# Compressibility (1/GPa) = 0.05416308
#
# Stress axis : x y z
#
# Youngs Moduli (GPa) = 111.10570 25.92048 69.07748
#
# Poissons Ratio (x) = 0.01744 0.18800
# Poissons Ratio (y) = 0.07477 0.03814
# Poissons Ratio (z) = 0.30238 0.01431
#
# Static dielectric constant tensor:
#      x y z
#    x 1.784620 0.000000 0.000000 
#    y 0.000000 1.769230 0.000000 
#    z 0.000000 0.000000 1.781850 
# 
# From -- ./inp_files/17241.got.cif
#   From: 2010.05.17/outbox.cif.g08.bks.cpg/sg62_9_cif.got.tgz:17241.got - 2010.06.03 15:25:27.
