data_PCOD9467404
_publ_section_title
;
Structure prediction by ZEFSAII (Michael W. Deem and Ramdas Pophale) SiO2 
 PCOD9467404
Probable space group: P N M A
;
_chemical_formula_sum "Si O2"
_cell_formula_units_Z 64
_cell_length_a 29.466310
_cell_length_b 8.084447
_cell_length_c 14.620623
_cell_angle_alpha 90.000000
_cell_angle_beta 90.000000
_cell_angle_gamma 90.000000
_cell_volume 3482.907580
_symmetry_space_group_name_H-M "P N M A"
_symmetry_group_IT_number 62
_symmetry_cell_setting 'orthorhombic'
loop_
_space_group_symop_operation_xyz
x,y,z
1/2-x,-y,1/2+z
1/2+x,1/2-y,1/2-z
-x,1/2+y,-z
-x,-y,-z
1/2+x,y,1/2-z
1/2-x,1/2+y,1/2+z
x,1/2-y,z
loop_
_atom_site_type_symbol
_atom_site_label
_atom_site_fract_x
_atom_site_fract_y
_atom_site_fract_z
Si Si1 0.500000 0.449549 0.895001
Si Si2 0.751040 0.551141 0.395369
Si Si3 0.573272 0.449005 0.750058
Si Si4 0.823646 0.547559 0.247491
Si Si5 0.573272 0.550996 0.249941
Si Si6 0.000000 0.446094 0.104964
Si Si7 0.751040 0.448859 0.604633
Si Si8 0.823646 0.047559 0.752511
O O1 0.500000 0.250000 0.891510
O O2 0.543907 0.508107 0.837332
O O3 0.456093 0.508109 0.837332
O O4 0.500000 0.500000 0.000000
O O5 0.750960 0.750000 0.391762
O O6 0.794806 0.495982 0.336622
O O7 0.751893 0.500000 0.500001
O O8 0.706227 0.495120 0.340057
O O9 0.575425 0.250000 0.756233
O O10 0.624699 0.511883 0.747133
O O11 0.543872 0.490511 0.660580
O O12 0.824561 0.750000 0.247017
O O13 0.793773 0.495120 0.159945
O O14 0.575426 0.750000 0.243763
O O15 0.543872 0.509497 0.339420
O O16 0.624699 0.488116 0.252868
O O17 0.000002 0.250000 0.109374
O O18 0.000000 0.500000 0.000000
O O19 0.750959 0.250000 0.608240
O O20 0.794806 0.504018 0.663380
O O21 0.824561 0.250000 0.752985
#
# Coordination Sequence:
#
# PCOD9467404 Si02
#       8
#     8   8   8   8   8   8   8   8
#     4   9  18  30  47  69  95 125 159 199 246 292
#     4   9  17  31  50  73  99 130 163 199 241 288
#     4   9  18  35  54  72  96 131 170 207 244 289
#     4   8  16  32  52  70  96 132 166 197 240 292
#     4   9  18  35  54  72  96 131 170 207 244 289
#     4  11  22  36  53  75 101 129 161 203 250 298
#     4   9  17  31  50  73  99 130 163 199 241 288
#     4   8  16  32  52  70  96 132 166 197 240 292
#
# _framework density 18.375451999999999
#
# number of rings (size 3 to 8) (size 9 to 14) (size 15 to 20)
#    0.000    3.000    0.000    3.375    0.000    4.000 
#    0.000    7.500    0.000    0.000    0.000    0.000 
#    0.000    0.000    0.000    0.000    0.000    0.000 
#
# Total GULP energy -356754.795785 kJ/mol
# GULP energy per Si atom -5574.293684 kJ/mol
# Density = 1.833363 g / cm^3
# Si number density = 18.375452 Si / 1000 Ang^3
#
#
#
# Elastic Constant Matrix: (Units=GPa)
#
#
# Indices 1 2 3 4 5 6 
#
# 1 218.0220 14.1362 115.1131 0.0000 0.0000 0.0000
# 2 14.1362 5.4190 1.4919 0.0000 0.0000 0.0000
# 3 115.1131 1.4919 196.8823 0.0000 0.0000 0.0000
# 4 0.0000 0.0000 0.0000 33.4382 0.0000 0.0000
# 5 0.0000 0.0000 0.0000 0.0000 5.6637 0.0000
# 6 0.0000 0.0000 0.0000 0.0000 0.0000 10.6628
#
#
#
# Elastic Compliance Matrix: (Units=1/GPa)
#
#
# Indices 1 2 3 4 5 6 
#
# 1 0.008461 -0.020754 -0.004790 0.000000 0.000000 0.000000
# 2 -0.020754 0.235828 0.010348 0.000000 0.000000 0.000000
# 3 -0.004790 0.010348 0.007801 0.000000 0.000000 0.000000
# 4 0.000000 0.000000 0.000000 0.029906 0.000000 0.000000
# 5 0.000000 0.000000 0.000000 0.000000 0.176563 0.000000
# 6 0.000000 0.000000 0.000000 0.000000 0.000000 0.093784
#
#
# Mechanical properties :
#
#
# Convention : Reuss Voigt Hill
#
# Bulk Modulus (GPa) = 4.51065 75.75618 40.13342
# Shear Modulus (GPa) = 7.61458 29.25842 18.43650
#
# Velocity S-wave (km/s) = 2.03786 3.99464 3.17096
# Velocity P-wave (km/s) = 2.82794 7.91154 5.94095
#
# Compressibility (1/GPa) = 0.22169735
#
# Stress axis : x y z
#
# Youngs Moduli (GPa) = 118.18376 4.24039 128.18284
#
# Poissons Ratio (x) = 0.08801 0.61399
# Poissons Ratio (y) = 2.45280 -1.32638
# Poissons Ratio (z) = 0.56609 -0.04388
#
# Static dielectric constant tensor:
#      x y z
#    x 1.649500 0.000000 0.000000 
#    y 0.000000 1.644480 0.000000 
#    z 0.000000 0.000000 1.582170 
# 
# From -- ./inp_files/21262.got.cif
#   From: 2010.05.17/outbox.cif.g08.bks.cpg/sg62_11_cif.got.tgz:21262.got - 2010.06.03 15:25:27.
