data_PCOD9467786
_publ_section_title
;
Structure prediction by ZEFSAII (Michael W. Deem and Ramdas Pophale) SiO2 
 PCOD9467786
Probable space group: P N M A
;
_chemical_formula_sum "Si O2"
_cell_formula_units_Z 56
_cell_length_a 21.000000
_cell_length_b 9.000000
_cell_length_c 15.000000
_cell_angle_alpha 90.000000
_cell_angle_beta 90.000000
_cell_angle_gamma 90.000000
_cell_volume 2835.000000
_symmetry_space_group_name_H-M "P N M A"
_symmetry_group_IT_number 62
_symmetry_cell_setting 'orthorhombic'
loop_
_space_group_symop_operation_xyz
x,y,z
1/2-x,-y,1/2+z
1/2+x,1/2-y,1/2-z
-x,1/2+y,-z
-x,-y,-z
1/2+x,y,1/2-z
1/2-x,1/2+y,1/2+z
x,1/2-y,z
loop_
_atom_site_type_symbol
_atom_site_label
_atom_site_fract_x
_atom_site_fract_y
_atom_site_fract_z
Si Si1 0.747032 0.429683 0.289747
Si Si2 0.039236 0.921351 0.076945
Si Si3 0.148106 0.919002 0.946240
Si Si4 0.235741 0.574705 0.509475
Si Si5 0.606659 0.923765 0.743198
Si Si6 0.981699 0.071506 0.722572
Si Si7 0.150580 0.569189 0.353822
O O1 0.737207 0.250000 0.286592
O O2 0.747643 0.483984 0.392435
O O3 0.819892 0.460275 0.261121
O O4 0.695998 0.504587 0.224164
O O5 0.018156 0.750000 0.079722
O O6 0.035330 0.980542 0.176690
O O7 0.110469 0.925158 0.038508
O O8 0.000000 0.000000 0.000000
O O9 0.172961 0.750000 0.933431
O O10 0.101319 0.947189 0.863434
O O11 0.203966 0.036320 0.948564
O O12 0.227257 0.750000 0.521053
O O13 0.176456 0.520114 0.450745
O O14 0.597915 0.750000 0.762375
O O15 0.552288 0.011670 0.794734
O O16 0.983229 0.250000 0.721507
O O17 0.922475 0.024287 0.662058
O O18 0.154463 0.750000 0.349147
#
# Coordination Sequence:
#
# PCOD9467786 Si02
#       7
#     8   8   8   8   8   8   8
#     4  10  21  38  58  83 112 145 185 229 276 328
#     4  10  19  30  46  71 102 134 168 210 262 319
#     4  10  19  33  53  77 107 141 177 221 272 325
#     4  10  21  36  57  82 108 141 183 228 276 326
#     4  10  20  35  55  78 108 144 180 222 271 323
#     4  10  21  35  52  76 109 144 180 225 273 324
#     4  10  21  38  58  82 112 146 183 229 279 327
#
# _framework density 19.753086
#
# number of rings (size 3 to 8) (size 9 to 14) (size 15 to 20)
#    0.000    2.000    2.857    0.857    0.000    4.000 
#    0.000    0.714    0.000    0.000    0.000    0.000 
#    0.000    0.000    0.000    0.000    0.000    0.000 
#
# Total GULP energy -311968.771007 kJ/mol
# GULP energy per Si atom -5570.870911 kJ/mol
# Density = 1.970813 g / cm^3
# Si number density = 19.753086 Si / 1000 Ang^3
#
#
#
# Elastic Constant Matrix: (Units=GPa)
#
#
# Indices 1 2 3 4 5 6 
#
# 1 63.1651 9.6978 -3.0023 0.0000 0.0000 0.0000
# 2 9.6978 -7.8119 5.6034 0.0000 0.0000 0.0000
# 3 -3.0023 5.6034 37.4770 0.0000 0.0000 0.0000
# 4 0.0000 0.0000 0.0000 14.3968 0.0000 0.0000
# 5 0.0000 0.0000 0.0000 0.0000 19.8577 0.0000
# 6 0.0000 0.0000 0.0000 0.0000 0.0000 26.9879
#
#
#
# Elastic Compliance Matrix: (Units=1/GPa)
#
#
# Indices 1 2 3 4 5 6 
#
# 1 0.013364 0.015677 -0.001273 0.000000 0.000000 0.000000
# 2 0.015677 -0.097220 0.015792 0.000000 0.000000 0.000000
# 3 -0.001273 0.015792 0.024220 0.000000 0.000000 0.000000
# 4 0.000000 0.000000 0.000000 0.069460 0.000000 0.000000
# 5 0.000000 0.000000 0.000000 0.000000 0.050358 0.000000
# 6 0.000000 0.000000 0.000000 0.000000 0.000000 0.037054
#
#
# Mechanical properties :
#
#
# Convention : Reuss Voigt Hill
#
# Bulk Modulus (GPa) = 1325.20163 13.04756 669.12459
# Shear Modulus (GPa) = 134.78450 17.61723 76.20086
#
# Velocity S-wave (km/s) = 8.26939 2.98966 6.21775
# Velocity P-wave (km/s) = 27.63181 4.30547 19.77440
#
# Compressibility (1/GPa) = 0.00075460
#
# Stress axis : x y z
#
# Youngs Moduli (GPa) = 74.82744 -10.28592 41.28831
#
# Poissons Ratio (x) = 0.16125 0.05257
# Poissons Ratio (y) = -1.17307 -0.65202
# Poissons Ratio (z) = 0.09528 0.16243
#
# Static dielectric constant tensor:
#      x y z
#    x 1.739540 0.000000 0.000000 
#    y 0.000000 1.685240 0.000000 
#    z 0.000000 0.000000 1.752120 
# 
# From -- ./inp_files/20385.got.cif
#   From: 2010.05.17/outbox.ucp.g08.bks.cvg/sg62_11_cif.got.tgz:20385.got - 2010.06.11 16:29:25.
