data_PCOD9468486
_publ_section_title
;
Structure prediction by ZEFSAII (Michael W. Deem and Ramdas Pophale) SiO2 
 PCOD9468486
Probable space group: C M C M
;
_chemical_formula_sum "Si O2"
_cell_formula_units_Z 80
_cell_length_a 7.587881
_cell_length_b 21.067792
_cell_length_c 25.955479
_cell_angle_alpha 90.000000
_cell_angle_beta 90.000000
_cell_angle_gamma 90.000000
_cell_volume 4149.240242
_symmetry_space_group_name_H-M "C M C M"
_symmetry_group_IT_number 63
_symmetry_cell_setting 'orthorhombic'
loop_
_space_group_symop_operation_xyz
x,y,z
-x,-y,1/2+z
x,-y,-z
-x,y,1/2-z
-x,-y,-z
x,y,1/2-z
-x,y,z
x,-y,1/2+z
1/2+x,1/2+y,z
1/2-x,1/2-y,1/2+z
1/2+x,1/2-y,-z
1/2-x,1/2+y,1/2-z
1/2-x,1/2-y,-z
1/2+x,1/2+y,1/2-z
1/2-x,1/2+y,z
1/2+x,1/2-y,1/2+z
loop_
_atom_site_type_symbol
_atom_site_label
_atom_site_fract_x
_atom_site_fract_y
_atom_site_fract_z
Si Si1 0.712187 0.360721 0.861762
Si Si2 0.698853 0.516938 0.750000
Si Si3 0.784761 0.937957 0.467846
Si Si4 0.211519 0.814834 0.529351
Si Si5 0.200541 0.625557 0.250000
Si Si6 0.715944 0.508670 0.861027
O O1 0.500000 0.360173 0.861928
O O2 0.767243 0.339972 0.804290
O O3 0.767516 0.434751 0.868318
O O4 0.775383 0.321690 0.911532
O O5 0.500000 0.542754 0.750000
O O6 0.689038 0.439636 0.750000
O O7 0.779988 0.532199 0.805302
O O8 0.500000 0.563379 0.532158
O O9 0.722842 0.874516 0.495863
O O10 0.732895 0.000000 0.500000
O O11 0.728306 0.949290 0.409214
O O12 0.250000 0.750000 0.500000
O O13 0.000000 0.820859 0.531968
O O14 0.000000 0.603680 0.250000
O O15 0.500000 0.508440 0.859618
#
# Coordination Sequence:
#
# PCOD9468486 Si02
#       6
#    16   8  16  16   8  16
#     4   9  16  29  47  67  91 123 160 195 233 285
#     4   8  14  24  40  65  94 121 147 185 237 289
#     4   9  14  24  45  71  92 116 158 205 238 266
#     4  10  20  32  49  71  98 131 163 199 244 290
#     4  10  18  26  42  69  96 121 149 193 245 283
#     4   8  12  21  41  67  91 113 150 198 233 267
#
# _framework density 19.280639000000001
#
# number of rings (size 3 to 8) (size 9 to 14) (size 15 to 20)
#    0.000    3.000    2.000    2.100    0.000    0.800 
#    0.000    0.000    0.000    6.600    0.000    2.800 
#    0.000    0.000    0.000    0.000    0.000    0.000 
#
# Total GULP energy -222847.418921 kJ/mol
# GULP energy per Si atom -5571.185473 kJ/mol
# Density = 1.923676 g / cm^3
# Si number density = 19.280639 Si / 1000 Ang^3
#
#
#
# Elastic Constant Matrix: (Units=GPa)
#
#
# Indices 1 2 3 4 5 6 
#
# 1 49.8436 2.3452 10.1241 0.0000 0.0000 0.0000
# 2 2.3452 86.6207 77.2203 0.0000 0.0000 0.0000
# 3 10.1241 77.2203 246.7934 0.0000 0.0000 0.0000
# 4 0.0000 0.0000 0.0000 22.0359 0.0000 0.0000
# 5 0.0000 0.0000 0.0000 0.0000 -0.5212 0.0000
# 6 0.0000 0.0000 0.0000 0.0000 0.0000 4.6510
#
#
#
# Elastic Compliance Matrix: (Units=1/GPa)
#
#
# Indices 1 2 3 4 5 6 
#
# 1 0.020236 0.000266 -0.000914 0.000000 0.000000 0.000000
# 2 0.000266 0.016014 -0.005022 0.000000 0.000000 0.000000
# 3 -0.000914 -0.005022 0.005661 0.000000 0.000000 0.000000
# 4 0.000000 0.000000 0.000000 0.045380 0.000000 0.000000
# 5 0.000000 0.000000 0.000000 0.000000 -1.918770 0.000000
# 6 0.000000 0.000000 0.000000 0.000000 0.000000 0.215006
#
#
# Mechanical properties :
#
#
# Convention : Reuss Voigt Hill
#
# Bulk Modulus (GPa) = 32.70838 62.51519 47.61179
# Shear Modulus (GPa) = -3.13490 24.80437 10.83473
#
# Velocity S-wave (km/s) = -1.27650 3.59066 2.37312
# Velocity P-wave (km/s) = 3.85079 7.04873 5.67949
#
# Compressibility (1/GPa) = 0.03057320
#
# Stress axis : x y z
#
# Youngs Moduli (GPa) = 49.41743 62.44520 176.65697
#
# Poissons Ratio (x) = -0.01664 0.16138
# Poissons Ratio (y) = -0.01317 0.88711
# Poissons Ratio (z) = 0.04514 0.31358
#
# Static dielectric constant tensor:
#      x y z
#    x 1.748540 0.000000 0.000000 
#    y 0.000000 1.615460 0.000000 
#    z 0.000000 0.000000 1.737780 
# 
# From -- ./inp_files/59508.got.cif
#   From: 2010.05.17/outbox.cif.g08.bks.cpg/sg63_30_cif.got.tgz:59508.got - 2010.06.03 15:47:04.
