data_PCOD9468522
_publ_section_title
;
Structure prediction by ZEFSAII (Michael W. Deem and Ramdas Pophale) SiO2 
 PCOD9468522
Probable space group: C M C M
;
_chemical_formula_sum "Si O2"
_cell_formula_units_Z 80
_cell_length_a 7.543113
_cell_length_b 26.644330
_cell_length_c 20.762584
_cell_angle_alpha 90.000000
_cell_angle_beta 90.000000
_cell_angle_gamma 90.000000
_cell_volume 4172.888881
_symmetry_space_group_name_H-M "C M C M"
_symmetry_group_IT_number 63
_symmetry_cell_setting 'orthorhombic'
loop_
_space_group_symop_operation_xyz
x,y,z
-x,-y,1/2+z
x,-y,-z
-x,y,1/2-z
-x,-y,-z
x,y,1/2-z
-x,y,z
x,-y,1/2+z
1/2+x,1/2+y,z
1/2-x,1/2-y,1/2+z
1/2+x,1/2-y,-z
1/2-x,1/2+y,1/2-z
1/2-x,1/2-y,-z
1/2+x,1/2+y,1/2-z
1/2-x,1/2+y,z
1/2+x,1/2-y,1/2+z
loop_
_atom_site_type_symbol
_atom_site_label
_atom_site_fract_x
_atom_site_fract_y
_atom_site_fract_z
Si Si1 0.787814 0.978878 0.068223
Si Si2 0.207487 0.154253 0.393969
Si Si3 0.212250 0.739549 0.575277
Si Si4 0.211272 0.634072 0.542374
Si Si5 0.282381 0.444412 0.676606
O O1 0.751863 0.919838 0.071794
O O2 0.000000 0.985133 0.066758
O O3 0.722876 0.012181 0.127662
O O4 0.718329 0.000000 0.000000
O O5 0.283651 0.210764 0.389205
O O6 0.217941 0.137723 0.469123
O O7 0.280219 0.109277 0.350943
O O8 0.000000 0.158065 0.377478
O O9 0.250000 0.750000 0.500000
O O10 0.276642 0.682384 0.583191
O O11 0.000000 0.739496 0.585186
O O12 0.000000 0.638920 0.536506
O O13 0.227840 0.452300 0.750000
O O14 0.500000 0.443987 0.675528
#
# Coordination Sequence:
#
# PCOD9468522 Si02
#       5
#    16  16  16  16  16
#     4  10  18  30  47  67  89 118 153 189 227 267
#     4   9  15  28  47  65  89 118 148 185 228 267
#     4   8  15  25  40  63  90 116 142 176 217 265
#     4  10  18  27  42  68  96 120 148 183 224 268
#     4   9  17  29  47  69  89 112 150 195 230 265
#
# _framework density 19.171371000000001
#
# number of rings (size 3 to 8) (size 9 to 14) (size 15 to 20)
#    0.000    2.800    2.000    0.600    0.000    1.200 
#    0.000    0.000    0.000    3.600    0.000    2.800 
#    0.000    0.000    0.000    0.000    0.000    0.000 
#
# Total GULP energy -222818.278016 kJ/mol
# GULP energy per Si atom -5570.456950 kJ/mol
# Density = 1.912774 g / cm^3
# Si number density = 19.171371 Si / 1000 Ang^3
#
#
#
# Elastic Constant Matrix: (Units=GPa)
#
#
# Indices 1 2 3 4 5 6 
#
# 1 46.8872 -0.9213 1.7059 0.0000 0.0000 0.0000
# 2 -0.9213 226.4488 91.7114 0.0000 0.0000 0.0000
# 3 1.7059 91.7114 85.0347 0.0000 0.0000 0.0000
# 4 0.0000 0.0000 0.0000 20.4780 0.0000 0.0000
# 5 0.0000 0.0000 0.0000 0.0000 1.0227 0.0000
# 6 0.0000 0.0000 0.0000 0.0000 0.0000 7.0199
#
#
#
# Elastic Compliance Matrix: (Units=1/GPa)
#
#
# Indices 1 2 3 4 5 6 
#
# 1 0.021371 0.000463 -0.000928 0.000000 0.000000 0.000000
# 2 0.000463 0.007851 -0.008477 0.000000 0.000000 0.000000
# 3 -0.000928 -0.008477 0.020921 0.000000 0.000000 0.000000
# 4 0.000000 0.000000 0.000000 0.048833 0.000000 0.000000
# 5 0.000000 0.000000 0.000000 0.000000 0.977760 0.000000
# 6 0.000000 0.000000 0.000000 0.000000 0.000000 0.142452
#
#
# Mechanical properties :
#
#
# Convention : Reuss Voigt Hill
#
# Bulk Modulus (GPa) = 30.99920 60.37362 45.68641
# Shear Modulus (GPa) = 4.00698 23.42911 13.71804
#
# Velocity S-wave (km/s) = 1.44728 3.49963 2.67788
# Velocity P-wave (km/s) = 4.35861 6.92025 5.78305
#
# Compressibility (1/GPa) = 0.03225890
#
# Stress axis : x y z
#
# Youngs Moduli (GPa) = 46.79322 127.37377 47.79954
#
# Poissons Ratio (x) = -0.05893 0.04434
# Poissons Ratio (y) = -0.02165 0.40518
# Poissons Ratio (z) = 0.04341 1.07970
#
# Static dielectric constant tensor:
#      x y z
#    x 0.552830 0.000000 0.000000 
#    y 0.000000 1.731230 0.000000 
#    z 0.000000 0.000000 1.618660 
# 
# From -- ./inp_files/40481.got.cif
#   From: 2010.05.17/outbox.cif.g08.bks.cpg/sg63_21_cif.got.tgz:40481.got - 2010.06.03 15:47:04.
