data_PCOD9468407
_publ_section_title
;
Structure prediction by ZEFSAII (Michael W. Deem and Ramdas Pophale) SiO2 
 PCOD9468407
Probable space group: C M C M
;
_chemical_formula_sum "Si O2"
_cell_formula_units_Z 80
_cell_length_a 26.272829
_cell_length_b 10.027108
_cell_length_c 17.845968
_cell_angle_alpha 90.000000
_cell_angle_beta 90.000000
_cell_angle_gamma 90.000000
_cell_volume 4701.350623
_symmetry_space_group_name_H-M "C M C M"
_symmetry_group_IT_number 63
_symmetry_cell_setting 'orthorhombic'
loop_
_space_group_symop_operation_xyz
x,y,z
-x,-y,1/2+z
x,-y,-z
-x,y,1/2-z
-x,-y,-z
x,y,1/2-z
-x,y,z
x,-y,1/2+z
1/2+x,1/2+y,z
1/2-x,1/2-y,1/2+z
1/2+x,1/2-y,-z
1/2-x,1/2+y,1/2-z
1/2-x,1/2-y,-z
1/2+x,1/2+y,1/2-z
1/2-x,1/2+y,z
1/2+x,1/2-y,1/2+z
loop_
_atom_site_type_symbol
_atom_site_label
_atom_site_fract_x
_atom_site_fract_y
_atom_site_fract_z
Si Si1 0.148060 0.807672 0.446066
Si Si2 0.295709 0.042337 0.412084
Si Si3 0.370952 0.167704 0.665266
Si Si4 0.679469 0.579347 0.393698
Si Si5 0.059575 0.345762 0.476157
O O1 0.180357 0.689629 0.409353
O O2 0.175136 0.851192 0.524040
O O3 0.093858 0.747209 0.470297
O O4 0.147925 0.942145 0.397947
O O5 0.238331 0.044528 0.382103
O O6 0.295226 0.000000 0.500000
O O7 0.331040 0.939611 0.367581
O O8 0.385396 0.135304 0.750000
O O9 0.343647 0.311402 0.660976
O O10 0.417690 0.170127 0.607090
O O11 0.067258 0.500000 0.500000
O O12 0.000000 0.314967 0.480044
#
# Coordination Sequence:
#
# PCOD9468407 Si02
#       5
#    16  16  16  16  16
#     4  10  17  31  53  85 103 129 177 228 264 303
#     4  12  17  33  57  82 105 142 187 222 252 306
#     4  11  23  37  50  77 116 146 177 215 267 327
#     4  10  20  30  54  80 111 142 169 215 268 316
#     4  10  19  36  61  83 101 129 182 237 271 309
#
# _framework density 17.016387000000002
#
# number of rings (size 3 to 8) (size 9 to 14) (size 15 to 20)
#    0.000    1.400    8.000    1.800    0.000    1.200 
#    0.000    9.000    0.000    0.000    0.000    0.000 
#    0.000    0.000    0.000    0.000    0.000    0.000 
#
# Total GULP energy -223216.895652 kJ/mol
# GULP energy per Si atom -5580.422391 kJ/mol
# Density = 1.697766 g / cm^3
# Si number density = 17.016387 Si / 1000 Ang^3
#
#
#
# Elastic Constant Matrix: (Units=GPa)
#
#
# Indices 1 2 3 4 5 6 
#
# 1 124.9462 51.8614 22.3053 0.0000 0.0000 0.0000
# 2 51.8614 127.5348 26.4591 0.0000 0.0000 0.0000
# 3 22.3053 26.4591 53.4837 0.0000 0.0000 0.0000
# 4 0.0000 0.0000 0.0000 7.9826 0.0000 0.0000
# 5 0.0000 0.0000 0.0000 0.0000 5.2782 0.0000
# 6 0.0000 0.0000 0.0000 0.0000 0.0000 5.9797
#
#
#
# Elastic Compliance Matrix: (Units=1/GPa)
#
#
# Indices 1 2 3 4 5 6 
#
# 1 0.009893 -0.003529 -0.002380 0.000000 0.000000 0.000000
# 2 -0.003529 0.009997 -0.003474 0.000000 0.000000 0.000000
# 3 -0.002380 -0.003474 0.021408 0.000000 0.000000 0.000000
# 4 0.000000 0.000000 0.000000 0.125273 0.000000 0.000000
# 5 0.000000 0.000000 0.000000 0.000000 0.189458 0.000000
# 6 0.000000 0.000000 0.000000 0.000000 0.000000 0.167232
#
#
# Mechanical properties :
#
#
# Convention : Reuss Voigt Hill
#
# Bulk Modulus (GPa) = 44.38033 56.35738 50.36885
# Shear Modulus (GPa) = 9.09856 17.53736 13.31796
#
# Velocity S-wave (km/s) = 2.31485 3.21380 2.80063
# Velocity P-wave (km/s) = 5.76908 6.85294 6.33423
#
# Compressibility (1/GPa) = 0.02253250
#
# Stress axis : x y z
#
# Youngs Moduli (GPa) = 101.07946 100.03179 46.71077
#
# Poissons Ratio (x) = 0.35304 0.11117
# Poissons Ratio (y) = 0.35674 0.16226
# Poissons Ratio (z) = 0.24057 0.34748
#
# Static dielectric constant tensor:
#      x y z
#    x 1.557240 0.000000 0.000000 
#    y 0.000000 1.591900 0.000000 
#    z 0.000000 0.000000 1.576220 
# 
# From -- ./inp_files/48805.got.cif
#   From: 2010.05.17/outbox.cif.g08.bks.cpg/sg63_25_cif.got.tgz:48805.got - 2010.06.03 15:47:04.
