data_PCOD9468732
_publ_section_title
;
Structure prediction by ZEFSAII (Michael W. Deem and Ramdas Pophale) SiO2 
 PCOD9468732
Probable space group: C M C M
;
_chemical_formula_sum "Si O2"
_cell_formula_units_Z 72
_cell_length_a 30.203732
_cell_length_b 14.352366
_cell_length_c 8.224922
_cell_angle_alpha 90.000000
_cell_angle_beta 90.000000
_cell_angle_gamma 90.000000
_cell_volume 3565.462696
_symmetry_space_group_name_H-M "C M C M"
_symmetry_group_IT_number 63
_symmetry_cell_setting 'orthorhombic'
loop_
_space_group_symop_operation_xyz
x,y,z
-x,-y,1/2+z
x,-y,-z
-x,y,1/2-z
-x,-y,-z
x,y,1/2-z
-x,y,z
x,-y,1/2+z
1/2+x,1/2+y,z
1/2-x,1/2-y,1/2+z
1/2+x,1/2-y,-z
1/2-x,1/2+y,1/2-z
1/2-x,1/2-y,-z
1/2+x,1/2+y,1/2-z
1/2-x,1/2+y,z
1/2+x,1/2-y,1/2+z
loop_
_atom_site_type_symbol
_atom_site_label
_atom_site_fract_x
_atom_site_fract_y
_atom_site_fract_z
Si Si1 0.770706 0.891739 0.555688
Si Si2 0.088563 0.711350 0.551034
Si Si3 0.822988 0.392889 0.056332
Si Si4 0.131169 0.105781 0.054047
Si Si5 0.000000 0.607049 0.946837
O O1 0.769435 0.887059 0.750000
O O2 0.724564 0.850380 0.493030
O O3 0.819554 0.860585 0.500255
O O4 0.769639 0.000000 0.500000
O O5 0.088137 0.709307 0.750000
O O6 0.132957 0.658098 0.496060
O O7 0.095133 0.818649 0.500841
O O8 0.044207 0.660192 0.495954
O O9 0.824128 0.390921 0.250000
O O10 0.824530 0.500000 0.000000
O O11 0.132082 0.105554 0.250000
O O12 0.123887 0.000000 0.000000
O O13 0.000000 0.609018 0.750000
O O14 0.000000 0.500000 0.000000
#
# Coordination Sequence:
#
# PCOD9468732 Si02
#       5
#    16  16  16  16   8
#     4   9  16  27  45  68  97 132 167 203 243 289
#     4   9  19  34  53  75  99 131 167 203 250 303
#     4  10  18  29  46  70 101 133 166 205 247 294
#     4   9  18  34  52  72 100 133 169 205 243 290
#     4  10  20  38  61  80 102 132 163 200 249 300
#
# _framework density 20.193733000000002
#
# number of rings (size 3 to 8) (size 9 to 14) (size 15 to 20)
#    0.000    2.667    0.000    3.333    0.000    1.778 
#    0.000    5.000    0.000    0.000    0.000    0.000 
#    0.000    0.000    0.000    0.000    0.000    0.000 
#
# Total GULP energy -200794.039571 kJ/mol
# GULP energy per Si atom -5577.612210 kJ/mol
# Density = 2.014777 g / cm^3
# Si number density = 20.193733 Si / 1000 Ang^3
#
#
#
# Elastic Constant Matrix: (Units=GPa)
#
#
# Indices 1 2 3 4 5 6 
#
# 1 171.5998 103.9236 19.1158 0.0000 0.0000 0.0000
# 2 103.9236 132.9661 6.6126 0.0000 0.0000 0.0000
# 3 19.1158 6.6126 18.0824 0.0000 0.0000 0.0000
# 4 0.0000 0.0000 0.0000 13.6903 0.0000 0.0000
# 5 0.0000 0.0000 0.0000 0.0000 1.9611 0.0000
# 6 0.0000 0.0000 0.0000 0.0000 0.0000 33.8664
#
#
#
# Elastic Compliance Matrix: (Units=1/GPa)
#
#
# Indices 1 2 3 4 5 6 
#
# 1 0.012592 -0.009349 -0.009892 0.000000 0.000000 0.000000
# 2 -0.009349 0.014602 0.004544 0.000000 0.000000 0.000000
# 3 -0.009892 0.004544 0.064098 0.000000 0.000000 0.000000
# 4 0.000000 0.000000 0.000000 0.073044 0.000000 0.000000
# 5 0.000000 0.000000 0.000000 0.000000 0.509925 0.000000
# 6 0.000000 0.000000 0.000000 0.000000 0.000000 0.029528
#
#
# Mechanical properties :
#
#
# Convention : Reuss Voigt Hill
#
# Bulk Modulus (GPa) = 16.15604 64.66135 40.40869
# Shear Modulus (GPa) = 6.63291 22.76998 14.70145
#
# Velocity S-wave (km/s) = 1.81432 3.36158 2.70111
# Velocity P-wave (km/s) = 3.52234 6.86710 5.45729
#
# Compressibility (1/GPa) = 0.06189637
#
# Stress axis : x y z
#
# Youngs Moduli (GPa) = 79.41766 68.48340 15.60107
#
# Poissons Ratio (x) = 0.64028 0.15433
# Poissons Ratio (y) = 0.74251 -0.07089
# Poissons Ratio (z) = 0.78562 -0.31118
#
# Static dielectric constant tensor:
#      x y z
#    x 1.737010 0.000000 0.000000 
#    y 0.000000 1.727220 0.000000 
#    z 0.000000 0.000000 1.707730 
# 
# From -- ./inp_files/11735.got.cif
#   From: 2010.05.17/outbox.cif.g08.bks.cpg/sg63_6_cif.got.tgz:11735.got - 2010.06.03 15:47:04.
