data_PCOD9468678
_publ_section_title
;
Structure prediction by ZEFSAII (Michael W. Deem and Ramdas Pophale) SiO2 
 PCOD9468678
Probable space group: C M C M
;
_chemical_formula_sum "Si O2"
_cell_formula_units_Z 104
_cell_length_a 13.303139
_cell_length_b 19.053761
_cell_length_c 24.533331
_cell_angle_alpha 90.000000
_cell_angle_beta 90.000000
_cell_angle_gamma 90.000000
_cell_volume 6218.581930
_symmetry_space_group_name_H-M "C M C M"
_symmetry_group_IT_number 63
_symmetry_cell_setting 'orthorhombic'
loop_
_space_group_symop_operation_xyz
x,y,z
-x,-y,1/2+z
x,-y,-z
-x,y,1/2-z
-x,-y,-z
x,y,1/2-z
-x,y,z
x,-y,1/2+z
1/2+x,1/2+y,z
1/2-x,1/2-y,1/2+z
1/2+x,1/2-y,-z
1/2-x,1/2+y,1/2-z
1/2-x,1/2-y,-z
1/2+x,1/2+y,1/2-z
1/2-x,1/2+y,z
1/2+x,1/2-y,1/2+z
loop_
_atom_site_type_symbol
_atom_site_label
_atom_site_fract_x
_atom_site_fract_y
_atom_site_fract_z
Si Si1 0.885357 0.177468 0.862470
Si Si2 0.185050 0.597139 0.867769
Si Si3 0.881471 0.645587 0.750000
Si Si4 0.115729 0.280901 0.446724
Si Si5 0.618467 0.893665 0.750000
Si Si6 0.693908 0.259960 0.250000
Si Si7 0.691598 0.806442 0.566902
Si Si8 0.380223 0.943584 0.870878
O O1 0.802503 0.117420 0.871761
O O2 0.860211 0.209268 0.803194
O O3 0.865779 0.241679 0.903975
O O4 0.000000 0.153986 0.865861
O O5 0.147782 0.604755 0.805270
O O6 0.129846 0.657468 0.902558
O O7 0.160512 0.519445 0.887889
O O8 0.808784 0.713483 0.750000
O O9 0.000000 0.660291 0.750000
O O10 0.192114 0.217745 0.432746
O O11 0.152493 0.310001 0.505129
O O12 0.000000 0.259440 0.449343
O O13 0.500000 0.873114 0.750000
O O14 0.682910 0.823075 0.750000
O O15 0.636741 0.934572 0.694058
O O16 0.669862 0.878073 0.598484
O O17 0.500000 0.940440 0.880338
#
# Coordination Sequence:
#
# PCOD9468678 Si02
#       8
#    16  16   8  16   8   8  16  16
#     4  10  18  33  53  75 101 131 169 214 254 296
#     4  10  22  34  51  77 104 136 172 203 250 313
#     4  10  19  34  51  72 103 138 169 203 249 304
#     4  10  20  37  54  74 104 136 170 212 253 298
#     4  10  19  30  50  77 106 130 160 211 261 295
#     4  10  18  28  51  79  99 124 171 216 250 299
#     4  10  21  33  54  80 100 131 174 211 255 303
#     4  11  20  33  52  77 107 136 167 211 258 300
#
# _framework density 16.724070000000001
#
# number of rings (size 3 to 8) (size 9 to 14) (size 15 to 20)
#    0.000    1.846    1.538    3.923    0.000    1.231 
#    0.000    2.308    0.000    0.923    0.000    6.462 
#    0.000    0.000    0.000    0.000    0.000    0.000 
#
# Total GULP energy -290205.523655 kJ/mol
# GULP energy per Si atom -5580.875455 kJ/mol
# Density = 1.668600 g / cm^3
# Si number density = 16.724070 Si / 1000 Ang^3
#
#
#
# Elastic Constant Matrix: (Units=GPa)
#
#
# Indices 1 2 3 4 5 6 
#
# 1 139.1993 52.1540 27.6577 0.0000 0.0000 0.0000
# 2 52.1540 102.8100 38.8810 0.0000 0.0000 0.0000
# 3 27.6577 38.8810 87.2295 0.0000 0.0000 0.0000
# 4 0.0000 0.0000 0.0000 4.7495 0.0000 0.0000
# 5 0.0000 0.0000 0.0000 0.0000 -111.5893 0.0000
# 6 0.0000 0.0000 0.0000 0.0000 0.0000 10.8304
#
#
#
# Elastic Compliance Matrix: (Units=1/GPa)
#
#
# Indices 1 2 3 4 5 6 
#
# 1 0.008939 -0.004165 -0.000978 0.000000 0.000000 0.000000
# 2 -0.004165 0.013639 -0.004759 0.000000 0.000000 0.000000
# 3 -0.000978 -0.004759 0.013895 0.000000 0.000000 0.000000
# 4 0.000000 0.000000 0.000000 0.210547 0.000000 0.000000
# 5 0.000000 0.000000 0.000000 0.000000 -0.008961 0.000000
# 6 0.000000 0.000000 0.000000 0.000000 0.000000 0.092332
#
#
# Mechanical properties :
#
#
# Convention : Reuss Voigt Hill
#
# Bulk Modulus (GPa) = 59.98729 62.95822 61.47276
# Shear Modulus (GPa) = 14.05479 -5.16546 4.44466
#
# Velocity S-wave (km/s) = 2.90210 -1.75936 1.63200
# Velocity P-wave (km/s) = 6.86850 5.79654 6.35516
#
# Compressibility (1/GPa) = 0.01667020
#
# Stress axis : x y z
#
# Youngs Moduli (GPa) = 111.87448 73.31881 71.96702
#
# Poissons Ratio (x) = 0.30534 0.07037
# Poissons Ratio (y) = 0.46591 0.34248
# Poissons Ratio (z) = 0.10940 0.34892
#
# Static dielectric constant tensor:
#      x y z
#    x 1.558500 0.000000 0.000000 
#    y 0.000000 1.531410 0.000000 
#    z 0.000000 0.000000 1.583310 
# 
# From -- ./inp_files/68475.got.cif
#   From: 2010.05.17/outbox.cif.g08.bks.cpg/sg63_35_cif.got.tgz:68475.got - 2010.06.03 15:47:04.
