data_PCOD9468673
_publ_section_title
;
Structure prediction by ZEFSAII (Michael W. Deem and Ramdas Pophale) SiO2 
 PCOD9468673
Probable space group: C M C M
;
_chemical_formula_sum "Si O2"
_cell_formula_units_Z 116
_cell_length_a 7.822010
_cell_length_b 24.595612
_cell_length_c 24.512456
_cell_angle_alpha 90.000000
_cell_angle_beta 90.000000
_cell_angle_gamma 90.000000
_cell_volume 4715.880888
_symmetry_space_group_name_H-M "C M C M"
_symmetry_group_IT_number 63
_symmetry_cell_setting 'orthorhombic'
loop_
_space_group_symop_operation_xyz
x,y,z
-x,-y,1/2+z
x,-y,-z
-x,y,1/2-z
-x,-y,-z
x,y,1/2-z
-x,y,z
x,-y,1/2+z
1/2+x,1/2+y,z
1/2-x,1/2-y,1/2+z
1/2+x,1/2-y,-z
1/2-x,1/2+y,1/2-z
1/2-x,1/2-y,-z
1/2+x,1/2+y,1/2-z
1/2-x,1/2+y,z
1/2+x,1/2-y,1/2+z
loop_
_atom_site_type_symbol
_atom_site_label
_atom_site_fract_x
_atom_site_fract_y
_atom_site_fract_z
Si Si1 0.691472 0.788823 0.047109
Si Si2 0.700354 0.026673 0.308576
Si Si3 0.500000 0.141291 0.250000
Si Si4 0.193983 0.584376 0.968802
Si Si5 0.307013 0.708630 0.664329
Si Si6 0.191818 0.172701 0.330232
Si Si7 0.799870 0.087741 0.655041
Si Si8 0.708283 0.093121 0.413256
O O1 0.500000 0.774711 0.066278
O O2 0.685688 0.850247 0.025867
O O3 0.812656 0.787175 0.098868
O O4 0.750000 0.750000 0.000000
O O5 0.780021 0.040946 0.250000
O O6 0.500000 0.041547 0.304634
O O7 0.712092 0.962198 0.315705
O O8 0.766550 0.054257 0.363570
O O9 0.347844 0.147086 0.296877
O O10 0.280355 0.577194 0.910100
O O11 0.000000 0.562341 0.963351
O O12 0.267286 0.569506 0.028202
O O13 0.500000 0.711741 0.686434
O O14 0.208222 0.762736 0.680541
O O15 0.234167 0.647786 0.672045
O O16 0.225646 0.152049 0.392639
O O17 0.000000 0.155806 0.315701
O O18 0.000000 0.087453 0.668233
O O19 0.500000 0.094260 0.416506
#
# Coordination Sequence:
#
# PCOD9468673 Si02
#       8
#    16  16   4  16  16  16  16  16
#     4  10  18  28  49  82 120 162 207 251 308 385
#     4  10  23  42  66  90 121 169 221 274 336 397
#     4  12  26  48  64  90 144 174 226 286 326 400
#     4   9  19  35  58  89 125 168 211 261 332 398
#     4  10  20  39  60  84 125 168 207 267 324 383
#     4  12  25  42  69  99 130 179 224 273 340 398
#     4  10  22  40  64  91 129 172 216 275 334 392
#     4  10  21  40  67  96 134 173 214 275 335 398
#
# _framework density 24.597738
#
# number of rings (size 3 to 8) (size 9 to 14) (size 15 to 20)
#    0.000    1.793    1.379    2.276    0.966    5.241 
#    1.241    2.759    0.000    0.000    0.000    0.000 
#    0.000    0.000    0.000    0.000    0.000    0.000 
#
# Total GULP energy -323631.069515 kJ/mol
# GULP energy per Si atom -5579.846026 kJ/mol
# Density = 2.454175 g / cm^3
# Si number density = 24.597738 Si / 1000 Ang^3
#
#
#
# Elastic Constant Matrix: (Units=GPa)
#
#
# Indices 1 2 3 4 5 6 
#
# 1 110.2016 15.6173 15.8788 0.0000 0.0000 0.0000
# 2 15.6173 117.8403 18.8280 0.0000 0.0000 0.0000
# 3 15.8788 18.8280 99.3700 0.0000 0.0000 0.0000
# 4 0.0000 0.0000 0.0000 146.4784 0.0000 0.0000
# 5 0.0000 0.0000 0.0000 0.0000 -1.2276 0.0000
# 6 0.0000 0.0000 0.0000 0.0000 0.0000 24.0564
#
#
#
# Elastic Compliance Matrix: (Units=1/GPa)
#
#
# Indices 1 2 3 4 5 6 
#
# 1 0.009410 -0.001038 -0.001307 0.000000 0.000000 0.000000
# 2 -0.001038 0.008866 -0.001514 0.000000 0.000000 0.000000
# 3 -0.001307 -0.001514 0.010559 0.000000 0.000000 0.000000
# 4 0.000000 0.000000 0.000000 0.006827 0.000000 0.000000
# 5 0.000000 0.000000 0.000000 0.000000 -0.814576 0.000000
# 6 0.000000 0.000000 0.000000 0.000000 0.000000 0.041569
#
#
# Mechanical properties :
#
#
# Convention : Reuss Voigt Hill
#
# Bulk Modulus (GPa) = 47.35684 47.56223 47.45953
# Shear Modulus (GPa) = -6.91956 52.33396 22.70720
#
# Velocity S-wave (km/s) = -1.67905 4.61759 3.04162
# Velocity P-wave (km/s) = 3.94150 6.91430 5.62774
#
# Compressibility (1/GPa) = 0.02111627
#
# Stress axis : x y z
#
# Youngs Moduli (GPa) = 106.27307 112.79628 94.70525
#
# Poissons Ratio (x) = 0.11711 0.12377
# Poissons Ratio (y) = 0.11034 0.14337
# Poissons Ratio (z) = 0.13889 0.17076
#
# Static dielectric constant tensor:
#      x y z
#    x 1.918980 0.000000 0.000000 
#    y 0.000000 2.037590 0.000000 
#    z 0.000000 0.000000 1.948150 
# 
# From -- ./inp_files/60454.got.cif
#   From: 2010.05.17/outbox.cif.g08.bks.cpg/sg63_31_cif.got.tgz:60454.got - 2010.06.03 15:47:04.
