data_PCOD9468257
_publ_section_title
;
Structure prediction by ZEFSAII (Michael W. Deem and Ramdas Pophale) SiO2 
 PCOD9468257
Probable space group: C M C M
;
_chemical_formula_sum "Si O2"
_cell_formula_units_Z 96
_cell_length_a 8.779943
_cell_length_b 19.517256
_cell_length_c 32.100615
_cell_angle_alpha 90.000000
_cell_angle_beta 90.000000
_cell_angle_gamma 90.000000
_cell_volume 5500.774072
_symmetry_space_group_name_H-M "C M C M"
_symmetry_group_IT_number 63
_symmetry_cell_setting 'orthorhombic'
loop_
_space_group_symop_operation_xyz
x,y,z
-x,-y,1/2+z
x,-y,-z
-x,y,1/2-z
-x,-y,-z
x,y,1/2-z
-x,y,z
x,-y,1/2+z
1/2+x,1/2+y,z
1/2-x,1/2-y,1/2+z
1/2+x,1/2-y,-z
1/2-x,1/2+y,1/2-z
1/2-x,1/2-y,-z
1/2+x,1/2+y,1/2-z
1/2-x,1/2+y,z
1/2+x,1/2-y,1/2+z
loop_
_atom_site_type_symbol
_atom_site_label
_atom_site_fract_x
_atom_site_fract_y
_atom_site_fract_z
Si Si1 0.682655 0.076813 0.540977
Si Si2 0.682304 0.081071 0.866431
Si Si3 0.680822 0.678848 0.702322
Si Si4 0.318207 0.328860 0.797989
Si Si5 0.681783 0.919724 0.870642
Si Si6 0.681715 0.422557 0.543092
O O1 0.500000 0.072680 0.536810
O O2 0.718172 0.106912 0.586566
O O3 0.753537 0.109925 0.499570
O O4 0.749868 0.999747 0.542992
O O5 0.500000 0.086723 0.860872
O O6 0.765590 0.123665 0.831122
O O7 0.721382 0.000217 0.864705
O O8 0.714304 0.656795 0.750000
O O9 0.500000 0.690066 0.699063
O O10 0.765672 0.750728 0.695221
O O11 0.278666 0.346547 0.750000
O O12 0.500000 0.333987 0.802618
O O13 0.236890 0.377308 0.831079
O O14 0.500000 0.915731 0.875717
O O15 0.760281 0.893079 0.913112
O O16 0.500000 0.424853 0.541653
#
# Coordination Sequence:
#
# PCOD9468257 Si02
#       6
#    16  16  16  16  16  16
#     4   9  16  28  45  68 100 135 169 205 250 301
#     4   9  19  33  51  76 104 135 169 208 252 296
#     4  10  21  36  54  75 100 133 171 209 251 303
#     4  10  21  37  56  76 100 132 170 211 254 304
#     4  10  20  34  52  76 106 137 170 210 255 301
#     4  10  17  26  44  71 101 133 169 207 249 297
#
# _framework density 17.452089000000001
#
# number of rings (size 3 to 8) (size 9 to 14) (size 15 to 20)
#    0.000    2.333    0.000    5.500    0.000    6.667 
#    0.000    3.333    0.000    1.000    0.000    0.000 
#    0.000    0.000    0.000    0.000    0.000    0.000 
#
# Total GULP energy -267609.515278 kJ/mol
# GULP energy per Si atom -5575.198235 kJ/mol
# Density = 1.741237 g / cm^3
# Si number density = 17.452089 Si / 1000 Ang^3
#
#
#
# Elastic Constant Matrix: (Units=GPa)
#
#
# Indices 1 2 3 4 5 6 
#
# 1 75.3194 27.0135 64.3443 0.0000 0.0000 0.0000
# 2 27.0135 33.9511 56.9497 0.0000 0.0000 0.0000
# 3 64.3443 56.9497 156.2241 0.0000 0.0000 0.0000
# 4 0.0000 0.0000 0.0000 -15.7973 0.0000 0.0000
# 5 0.0000 0.0000 0.0000 0.0000 37.4286 0.0000
# 6 0.0000 0.0000 0.0000 0.0000 0.0000 24.9717
#
#
#
# Elastic Compliance Matrix: (Units=1/GPa)
#
#
# Indices 1 2 3 4 5 6 
#
# 1 0.020895 -0.005635 -0.006552 0.000000 0.000000 0.000000
# 2 -0.005635 0.077330 -0.025869 0.000000 0.000000 0.000000
# 3 -0.006552 -0.025869 0.018530 0.000000 0.000000 0.000000
# 4 0.000000 0.000000 0.000000 -0.063302 0.000000 0.000000
# 5 0.000000 0.000000 0.000000 0.000000 0.026718 0.000000
# 6 0.000000 0.000000 0.000000 0.000000 0.000000 0.040045
#
#
# Mechanical properties :
#
#
# Convention : Reuss Voigt Hill
#
# Bulk Modulus (GPa) = 24.60433 62.45662 43.53047
# Shear Modulus (GPa) = 23.82363 17.13308 20.47835
#
# Velocity S-wave (km/s) = 3.69872 3.13664 3.42921
# Velocity P-wave (km/s) = 5.68942 6.99880 6.37780
#
# Compressibility (1/GPa) = 0.04064326
#
# Stress axis : x y z
#
# Youngs Moduli (GPa) = 47.85841 12.93152 53.96725
#
# Poissons Ratio (x) = 0.07287 0.35358
# Poissons Ratio (y) = 0.26970 1.39607
# Poissons Ratio (z) = 0.31356 0.33452
#
# Static dielectric constant tensor:
#      x y z
#    x 1.578030 0.000000 0.000000 
#    y 0.000000 1.561000 0.000000 
#    z 0.000000 0.000000 1.638840 
# 
# From -- ./inp_files/66970.got.cif
#   From: 2010.05.17/outbox.cif.g08.bks.cpg/sg63_34_cif.got.tgz:66970.got - 2010.06.03 15:47:04.
