data_PCOD9468092
_publ_section_title
;
Structure prediction by ZEFSAII (Michael W. Deem and Ramdas Pophale) SiO2 
 PCOD9468092
Probable space group: C M C M
;
_chemical_formula_sum "Si O2"
_cell_formula_units_Z 128
_cell_length_a 18.548882
_cell_length_b 21.010860
_cell_length_c 21.458894
_cell_angle_alpha 90.000000
_cell_angle_beta 90.000000
_cell_angle_gamma 90.000000
_cell_volume 8363.131044
_symmetry_space_group_name_H-M "C M C M"
_symmetry_group_IT_number 63
_symmetry_cell_setting 'orthorhombic'
loop_
_space_group_symop_operation_xyz
x,y,z
-x,-y,1/2+z
x,-y,-z
-x,y,1/2-z
-x,-y,-z
x,y,1/2-z
-x,y,z
x,-y,1/2+z
1/2+x,1/2+y,z
1/2-x,1/2-y,1/2+z
1/2+x,1/2-y,-z
1/2-x,1/2+y,1/2-z
1/2-x,1/2-y,-z
1/2+x,1/2+y,1/2-z
1/2-x,1/2+y,z
1/2+x,1/2-y,1/2+z
loop_
_atom_site_type_symbol
_atom_site_label
_atom_site_fract_x
_atom_site_fract_y
_atom_site_fract_z
Si Si1 0.581944 0.834837 0.680559
Si Si2 0.917035 0.214350 0.006298
Si Si3 0.820368 0.243207 0.612394
Si Si4 0.080442 0.436632 0.569324
Si Si5 0.234268 0.623975 0.595602
Si Si6 0.579872 0.142977 0.940563
Si Si7 0.735336 0.012410 0.071751
Si Si8 0.221389 0.148833 0.049102
O O1 0.591444 0.861746 0.750000
O O2 0.500000 0.809570 0.676280
O O3 0.639529 0.780435 0.666857
O O4 0.587770 0.887258 0.626329
O O5 0.881283 0.225205 0.938603
O O6 0.000000 0.193078 0.002600
O O7 0.916053 0.283203 0.039257
O O8 0.862003 0.167850 0.041999
O O9 0.777515 0.179460 0.629755
O O10 0.765500 0.292925 0.579240
O O11 0.085952 0.397388 0.504846
O O12 0.148301 0.482756 0.573229
O O13 0.000000 0.465416 0.571681
O O14 0.148291 0.629080 0.602258
O O15 0.257728 0.551291 0.607815
O O16 0.248714 0.638789 0.521533
O O17 0.500000 0.130742 0.914357
O O18 0.764672 0.082926 0.085766
O O19 0.756599 0.000000 0.000000
#
# Coordination Sequence:
#
# PCOD9468092 Si02
#       8
#    16  16  16  16  16  16  16  16
#     4  10  19  30  46  66  84 105 140 183 219 251
#     4  10  16  23  39  60  84 111 139 168 202 245
#     4  11  16  28  44  59  81 113 142 176 213 252
#     4  10  17  26  40  60  91 122 142 168 208 252
#     4  10  17  25  38  61  86 117 141 168 204 247
#     4  10  15  22  37  61  90 115 141 165 198 249
#     4  10  17  26  38  59  89 119 146 168 198 246
#     4  10  16  26  40  58  84 116 146 166 199 245
#
# _framework density 15.305272
#
# number of rings (size 3 to 8) (size 9 to 14) (size 15 to 20)
#    0.000    1.875    7.500    1.125    0.000    0.750 
#    0.000    0.000    0.000   10.875    0.000    0.000 
#    0.000    2.000    0.000    0.000    0.000    0.000 
#
# Total GULP energy -356461.448586 kJ/mol
# GULP energy per Si atom -5569.710134 kJ/mol
# Density = 1.527044 g / cm^3
# Si number density = 15.305272 Si / 1000 Ang^3
#
#
#
# Elastic Constant Matrix: (Units=GPa)
#
#
# Indices 1 2 3 4 5 6 
#
# 1 94.6601 33.0212 7.8649 0.0000 0.0000 0.0000
# 2 33.0212 85.5728 3.0154 0.0000 0.0000 0.0000
# 3 7.8649 3.0154 18.3395 0.0000 0.0000 0.0000
# 4 0.0000 0.0000 0.0000 4.8151 0.0000 0.0000
# 5 0.0000 0.0000 0.0000 0.0000 10.6842 0.0000
# 6 0.0000 0.0000 0.0000 0.0000 0.0000 22.1880
#
#
#
# Elastic Compliance Matrix: (Units=1/GPa)
#
#
# Indices 1 2 3 4 5 6 
#
# 1 0.012586 -0.004694 -0.004626 0.000000 0.000000 0.000000
# 2 -0.004694 0.013504 -0.000208 0.000000 0.000000 0.000000
# 3 -0.004626 -0.000208 0.056545 0.000000 0.000000 0.000000
# 4 0.000000 0.000000 0.000000 0.207678 0.000000 0.000000
# 5 0.000000 0.000000 0.000000 0.000000 0.093596 0.000000
# 6 0.000000 0.000000 0.000000 0.000000 0.000000 0.045069
#
#
# Mechanical properties :
#
#
# Convention : Reuss Voigt Hill
#
# Bulk Modulus (GPa) = 15.72782 31.81945 23.77364
# Shear Modulus (GPa) = 10.65582 17.84886 14.25234
#
# Velocity S-wave (km/s) = 2.64146 3.41866 3.05487
# Velocity P-wave (km/s) = 4.42735 6.03473 5.29242
#
# Compressibility (1/GPa) = 0.06358160
#
# Stress axis : x y z
#
# Youngs Moduli (GPa) = 79.45479 74.04950 17.68501
#
# Poissons Ratio (x) = 0.34756 0.08180
# Poissons Ratio (y) = 0.37293 0.00367
# Poissons Ratio (z) = 0.36753 0.01537
#
# Static dielectric constant tensor:
#      x y z
#    x 1.539430 0.000000 0.000000 
#    y 0.000000 1.550760 0.000000 
#    z 0.000000 0.000000 1.490040 
# 
# From -- ./inp_files/64094.got.cif
#   From: 2010.05.17/outbox.cif.g08.bks.cpg/sg63_33_cif.got.tgz:64094.got - 2010.06.03 15:47:04.
