data_PCOD9468606
_publ_section_title
;
Structure prediction by ZEFSAII (Michael W. Deem and Ramdas Pophale) SiO2 
 PCOD9468606
Probable space group: C M C M
;
_chemical_formula_sum "Si O2"
_cell_formula_units_Z 116
_cell_length_a 26.715633
_cell_length_b 11.823185
_cell_length_c 16.267566
_cell_angle_alpha 90.000000
_cell_angle_beta 90.000000
_cell_angle_gamma 90.000000
_cell_volume 5138.336374
_symmetry_space_group_name_H-M "C M C M"
_symmetry_group_IT_number 63
_symmetry_cell_setting 'orthorhombic'
loop_
_space_group_symop_operation_xyz
x,y,z
-x,-y,1/2+z
x,-y,-z
-x,y,1/2-z
-x,-y,-z
x,y,1/2-z
-x,y,z
x,-y,1/2+z
1/2+x,1/2+y,z
1/2-x,1/2-y,1/2+z
1/2+x,1/2-y,-z
1/2-x,1/2+y,1/2-z
1/2-x,1/2-y,-z
1/2+x,1/2+y,1/2-z
1/2-x,1/2+y,z
1/2+x,1/2-y,1/2+z
loop_
_atom_site_type_symbol
_atom_site_label
_atom_site_fract_x
_atom_site_fract_y
_atom_site_fract_z
Si Si1 0.166638 0.334504 0.018643
Si Si2 0.573853 0.584249 0.118721
Si Si3 0.073598 0.170227 0.657023
Si Si4 0.767197 0.436624 0.155865
Si Si5 0.554722 0.223612 0.503380
Si Si6 0.315993 0.757448 0.842358
Si Si7 0.185090 0.916491 0.578886
Si Si8 0.000000 0.824753 0.750000
O O1 0.193265 0.417094 0.082707
O O2 0.186811 0.209805 0.043837
O O3 0.106132 0.337720 0.028909
O O4 0.179236 0.338039 0.921556
O O5 0.557138 0.456389 0.133965
O O6 0.633377 0.581547 0.129013
O O7 0.543727 0.663727 0.179813
O O8 0.563189 0.645693 0.032634
O O9 0.058720 0.191523 0.750000
O O10 0.054714 0.263899 0.594442
O O11 0.133891 0.180246 0.651868
O O12 0.786244 0.442006 0.250000
O O13 0.730742 0.326669 0.152160
O O14 0.730792 0.541408 0.134112
O O15 0.500000 0.182252 0.531170
O O16 0.316639 0.808184 0.750000
O O17 0.181734 0.000000 0.500000
#
# Coordination Sequence:
#
# PCOD9468606 Si02
#       8
#    16  16  16  16  16  16  16   4
#     4  10  21  38  56  80 115 153 189 235 288 336
#     4  11  20  33  42  69 100 144 189 220 261 308
#     4  10  18  28  44  69  97 132 181 224 261 318
#     4  11  22  36  57  82 109 148 190 245 286 339
#     4  10  21  34  48  69 103 147 185 221 266 325
#     4   9  17  31  53  75 104 146 186 231 283 331
#     4  11  21  37  58  78 108 152 191 232 287 339
#     4  12  24  28  46  68 102 152 188 230 256 304
#
# _framework density 22.575399000000001
#
# number of rings (size 3 to 8) (size 9 to 14) (size 15 to 20)
#    0.000    1.655    4.138    2.483    1.931    1.379 
#    3.724    0.000    0.000    0.828    0.000    0.000 
#    0.000    0.552    2.345    0.276    0.000    0.069 
#
# Total GULP energy -323481.779625 kJ/mol
# GULP energy per Si atom -5577.272063 kJ/mol
# Density = 2.252402 g / cm^3
# Si number density = 22.575399 Si / 1000 Ang^3
#
#
#
# Elastic Constant Matrix: (Units=GPa)
#
#
# Indices 1 2 3 4 5 6 
#
# 1 157.2564 25.8074 65.4643 0.0000 0.0000 0.0000
# 2 25.8074 66.5347 22.1794 0.0000 0.0000 0.0000
# 3 65.4643 22.1794 157.1073 0.0000 0.0000 0.0000
# 4 0.0000 0.0000 0.0000 -45.6289 0.0000 0.0000
# 5 0.0000 0.0000 0.0000 0.0000 29.7693 0.0000
# 6 0.0000 0.0000 0.0000 0.0000 0.0000 -16.0345
#
#
#
# Elastic Compliance Matrix: (Units=1/GPa)
#
#
# Indices 1 2 3 4 5 6 
#
# 1 0.007959 -0.002079 -0.003023 0.000000 0.000000 0.000000
# 2 -0.002079 0.016315 -0.001437 0.000000 0.000000 0.000000
# 3 -0.003023 -0.001437 0.007827 0.000000 0.000000 0.000000
# 4 0.000000 0.000000 0.000000 -0.021916 0.000000 0.000000
# 5 0.000000 0.000000 0.000000 0.000000 0.033592 0.000000
# 6 0.000000 0.000000 0.000000 0.000000 0.000000 -0.062365
#
#
# Mechanical properties :
#
#
# Convention : Reuss Voigt Hill
#
# Bulk Modulus (GPa) = 52.56652 67.53341 60.04996
# Shear Modulus (GPa) = 6020.39523 11.45099 3015.92311
#
# Velocity S-wave (km/s) = 51.69704 2.25463 36.59008
# Velocity P-wave (km/s) = 59.88974 6.06278 42.56488
#
# Compressibility (1/GPa) = 0.01902352
#
# Stress axis : x y z
#
# Youngs Moduli (GPa) = 125.65017 61.29229 127.75580
#
# Poissons Ratio (x) = 0.12745 0.38617
# Poissons Ratio (y) = 0.26127 0.18357
# Poissons Ratio (z) = 0.37980 0.08807
#
# Static dielectric constant tensor:
#      x y z
#    x 1.879850 0.000000 0.000000 
#    y 0.000000 1.829690 0.000000 
#    z 0.000000 0.000000 1.896320 
# 
# From -- ./inp_files/49170.got.cif
#   From: 2010.05.17/outbox.cif.g08.bks.cpg/sg63_25_cif.got.tgz:49170.got - 2010.06.03 15:47:04.
