data_PCOD9468646
_publ_section_title
;
Structure prediction by ZEFSAII (Michael W. Deem and Ramdas Pophale) SiO2 
 PCOD9468646
Probable space group: C M C M
;
_chemical_formula_sum "Si O2"
_cell_formula_units_Z 104
_cell_length_a 31.657465
_cell_length_b 22.209193
_cell_length_c 7.998851
_cell_angle_alpha 90.000000
_cell_angle_beta 90.000000
_cell_angle_gamma 90.000000
_cell_volume 5623.886154
_symmetry_space_group_name_H-M "C M C M"
_symmetry_group_IT_number 63
_symmetry_cell_setting 'orthorhombic'
loop_
_space_group_symop_operation_xyz
x,y,z
-x,-y,1/2+z
x,-y,-z
-x,y,1/2-z
-x,-y,-z
x,y,1/2-z
-x,y,z
x,-y,1/2+z
1/2+x,1/2+y,z
1/2-x,1/2-y,1/2+z
1/2+x,1/2-y,-z
1/2-x,1/2+y,1/2-z
1/2-x,1/2-y,-z
1/2+x,1/2+y,1/2-z
1/2-x,1/2+y,z
1/2+x,1/2-y,1/2+z
loop_
_atom_site_type_symbol
_atom_site_label
_atom_site_fract_x
_atom_site_fract_y
_atom_site_fract_z
Si Si1 0.157620 0.199232 0.553704
Si Si2 0.069192 0.162115 0.447820
Si Si3 0.000000 0.743857 0.954108
Si Si4 0.160893 0.662848 0.550474
Si Si5 0.000000 0.931039 0.448434
Si Si6 0.747526 0.679715 0.548783
Si Si7 0.000000 0.604948 0.954316
Si Si8 0.407657 0.066704 0.548129
O O1 0.163778 0.209695 0.750000
O O2 0.115116 0.162580 0.526097
O O3 0.152375 0.266085 0.476878
O O4 0.199930 0.165082 0.490629
O O5 0.074459 0.169158 0.250000
O O6 0.041085 0.218807 0.509517
O O7 0.040833 0.103997 0.482700
O O8 0.000000 0.674983 0.004763
O O9 0.000000 0.745239 0.750000
O O10 0.161764 0.653684 0.750000
O O11 0.208710 0.651002 0.484318
O O12 0.124302 0.618683 0.485430
O O13 0.000000 0.925445 0.250000
O O14 0.000000 0.000000 0.500000
O O15 0.748938 0.673311 0.750000
O O16 0.750000 0.750000 0.500000
O O17 0.955934 0.576190 0.012448
O O18 0.000000 0.602823 0.750000
O O19 0.408997 0.070994 0.750000
O O20 0.393134 0.000000 0.500000
#
# Coordination Sequence:
#
# PCOD9468646 Si02
#       8
#    16  16   8  16   8  16   8  16
#     4  10  18  28  46  75 104 127 153 198 252 297
#     4  10  19  32  51  76 104 135 166 196 234 286
#     4   8  15  28  47  69  93 121 156 191 224 269
#     4   9  17  31  49  67  90 127 166 201 246 303
#     4  11  22  38  57  77 102 133 169 206 242 286
#     4   8  15  27  44  67  94 121 153 190 236 291
#     4   9  16  28  45  66  90 118 151 191 237 283
#     4  10  20  32  47  64  86 119 160 201 242 287
#
# _framework density 18.492550999999999
#
# number of rings (size 3 to 8) (size 9 to 14) (size 15 to 20)
#    0.000    2.615    0.000    3.231    0.000    3.692 
#    0.000    0.000    0.000    2.769    0.000    2.154 
#    0.000    0.000    0.000    0.000    0.000    0.000 
#
# Total GULP energy -289721.538725 kJ/mol
# GULP energy per Si atom -5571.568052 kJ/mol
# Density = 1.845046 g / cm^3
# Si number density = 18.492551 Si / 1000 Ang^3
#
#
#
# Elastic Constant Matrix: (Units=GPa)
#
#
# Indices 1 2 3 4 5 6 
#
# 1 173.1812 45.4699 3.7351 0.0000 0.0000 0.0000
# 2 45.4699 71.6452 -8.0164 0.0000 0.0000 0.0000
# 3 3.7351 -8.0164 12.0405 0.0000 0.0000 0.0000
# 4 0.0000 0.0000 0.0000 18.0726 0.0000 0.0000
# 5 0.0000 0.0000 0.0000 0.0000 12.4069 0.0000
# 6 0.0000 0.0000 0.0000 0.0000 0.0000 9.9537
#
#
#
# Elastic Compliance Matrix: (Units=1/GPa)
#
#
# Indices 1 2 3 4 5 6 
#
# 1 0.007281 -0.005266 -0.005765 0.000000 0.000000 0.000000
# 2 -0.005266 0.018890 0.014210 0.000000 0.000000 0.000000
# 3 -0.005765 0.014210 0.094302 0.000000 0.000000 0.000000
# 4 0.000000 0.000000 0.000000 0.055332 0.000000 0.000000
# 5 0.000000 0.000000 0.000000 0.000000 0.080600 0.000000
# 6 0.000000 0.000000 0.000000 0.000000 0.000000 0.100465
#
#
# Mechanical properties :
#
#
# Convention : Reuss Voigt Hill
#
# Bulk Modulus (GPa) = 7.88449 37.69381 22.78915
# Shear Modulus (GPa) = 12.72946 22.46519 17.59733
#
# Velocity S-wave (km/s) = 2.62650 3.48921 3.08813
# Velocity P-wave (km/s) = 3.67027 6.05478 5.00655
#
# Compressibility (1/GPa) = 0.12683122
#
# Stress axis : x y z
#
# Youngs Moduli (GPa) = 137.33831 52.93861 10.60424
#
# Poissons Ratio (x) = 0.27878 0.06113
# Poissons Ratio (y) = 0.72324 -0.15069
# Poissons Ratio (z) = 0.79173 -0.75226
#
# Static dielectric constant tensor:
#      x y z
#    x 1.697250 0.000000 0.000000 
#    y 0.000000 1.588360 0.000000 
#    z 0.000000 0.000000 1.665590 
# 
# From -- ./inp_files/14534.got.cif
#   From: 2010.05.17/outbox.cif.g08.bks.cpg/sg63_8_cif.got.tgz:14534.got - 2010.06.03 15:47:04.
