data_PCOD9468479
_publ_section_title
;
Structure prediction by ZEFSAII (Michael W. Deem and Ramdas Pophale) SiO2 
 PCOD9468479
Probable space group: C M C M
;
_chemical_formula_sum "Si O2"
_cell_formula_units_Z 96
_cell_length_a 29.821484
_cell_length_b 24.136618
_cell_length_c 9.104019
_cell_angle_alpha 90.000000
_cell_angle_beta 90.000000
_cell_angle_gamma 90.000000
_cell_volume 6552.979719
_symmetry_space_group_name_H-M "C M C M"
_symmetry_group_IT_number 63
_symmetry_cell_setting 'orthorhombic'
loop_
_space_group_symop_operation_xyz
x,y,z
-x,-y,1/2+z
x,-y,-z
-x,y,1/2-z
-x,-y,-z
x,y,1/2-z
-x,y,z
x,-y,1/2+z
1/2+x,1/2+y,z
1/2-x,1/2-y,1/2+z
1/2+x,1/2-y,-z
1/2-x,1/2+y,1/2-z
1/2-x,1/2-y,-z
1/2+x,1/2+y,1/2-z
1/2-x,1/2+y,z
1/2+x,1/2-y,1/2+z
loop_
_atom_site_type_symbol
_atom_site_label
_atom_site_fract_x
_atom_site_fract_y
_atom_site_fract_z
Si Si1 0.500000 0.223929 0.575213
Si Si2 0.244628 0.335576 0.076030
Si Si3 0.000000 0.604582 0.425414
Si Si4 0.812289 0.557071 0.925427
Si Si5 0.320055 0.270331 0.576638
Si Si6 0.091312 0.269002 0.576266
Si Si7 0.401093 0.097510 0.077990
O O1 0.500000 0.228106 0.750000
O O2 0.500000 0.159716 0.523311
O O3 0.545529 0.247331 0.505317
O O4 0.254963 0.337222 0.250000
O O5 0.220631 0.392517 0.032692
O O6 0.208598 0.286203 0.054306
O O7 0.288684 0.318820 0.986574
O O8 0.951888 0.576579 0.452233
O O9 0.000000 0.620276 0.250000
O O10 0.812293 0.552387 0.750000
O O11 0.798326 0.500000 0.000000
O O12 0.862330 0.571743 0.980264
O O13 0.327725 0.276826 0.750000
O O14 0.366272 0.262224 0.491143
O O15 0.087392 0.259807 0.750000
O O16 0.098117 0.335664 0.555762
O O17 0.391168 0.087202 0.250000
#
# Coordination Sequence:
#
# PCOD9468479 Si02
#       7
#     8  16   8  16  16  16  16
#     4  10  18  26  40  63  91 120 153 185 219 265
#     4   9  19  33  46  65  91 116 145 184 229 274
#     4   8  16  30  45  63  84 110 143 185 233 279
#     4  11  22  35  49  65  87 114 150 189 230 276
#     4  10  18  29  48  71  92 114 147 185 225 270
#     4  10  18  29  45  65  92 122 150 183 226 271
#     4   9  17  30  47  64  84 111 146 186 230 274
#
# _framework density 14.649823
#
# number of rings (size 3 to 8) (size 9 to 14) (size 15 to 20)
#    0.000    2.333    1.667    3.250    0.000    4.667 
#    0.000    0.417    0.000    0.000    0.000    0.000 
#    0.000    0.000    0.000    0.750    0.000   10.167 
#
# Total GULP energy -267647.527951 kJ/mol
# GULP energy per Si atom -5575.990166 kJ/mol
# Density = 1.461648 g / cm^3
# Si number density = 14.649823 Si / 1000 Ang^3
#
#
#
# Elastic Constant Matrix: (Units=GPa)
#
#
# Indices 1 2 3 4 5 6 
#
# 1 88.2964 43.8373 62.3980 0.0000 0.0000 0.0000
# 2 43.8373 64.2892 37.7493 0.0000 0.0000 0.0000
# 3 62.3980 37.7493 72.4645 0.0000 0.0000 0.0000
# 4 0.0000 0.0000 0.0000 16.5665 0.0000 0.0000
# 5 0.0000 0.0000 0.0000 0.0000 29.3836 0.0000
# 6 0.0000 0.0000 0.0000 0.0000 0.0000 6.7084
#
#
#
# Elastic Compliance Matrix: (Units=1/GPa)
#
#
# Indices 1 2 3 4 5 6 
#
# 1 0.031557 -0.008014 -0.022999 0.000000 0.000000 0.000000
# 2 -0.008014 0.024444 -0.005834 0.000000 0.000000 0.000000
# 3 -0.022999 -0.005834 0.036642 0.000000 0.000000 0.000000
# 4 0.000000 0.000000 0.000000 0.060363 0.000000 0.000000
# 5 0.000000 0.000000 0.000000 0.000000 0.034033 0.000000
# 6 0.000000 0.000000 0.000000 0.000000 0.000000 0.149066
#
#
# Mechanical properties :
#
#
# Convention : Reuss Voigt Hill
#
# Bulk Modulus (GPa) = 52.76413 57.00216 54.88314
# Shear Modulus (GPa) = 12.01594 15.93608 13.97601
#
# Velocity S-wave (km/s) = 2.86704 3.30176 3.09205
# Velocity P-wave (km/s) = 6.85966 7.31640 7.09171
#
# Compressibility (1/GPa) = 0.01895227
#
# Stress axis : x y z
#
# Youngs Moduli (GPa) = 31.68884 40.90930 27.29077
#
# Poissons Ratio (x) = 0.32783 0.62765
# Poissons Ratio (y) = 0.25394 0.15920
# Poissons Ratio (z) = 0.72880 0.23865
#
# Static dielectric constant tensor:
#      x y z
#    x 1.491190 0.000000 0.000000 
#    y 0.000000 1.464880 0.000000 
#    z 0.000000 0.000000 1.481110 
# 
# From -- ./inp_files/12820.got.cif
#   From: 2010.05.17/outbox.cif.g08.bks.cpg/sg63_7_cif.got.tgz:12820.got - 2010.06.03 15:47:04.
