data_PCOD9468662
_publ_section_title
;
Structure prediction by ZEFSAII (Michael W. Deem and Ramdas Pophale) SiO2 
 PCOD9468662
Probable space group: C M C M
;
_chemical_formula_sum "Si O2"
_cell_formula_units_Z 80
_cell_length_a 7.809350
_cell_length_b 18.527771
_cell_length_c 27.253544
_cell_angle_alpha 90.000000
_cell_angle_beta 90.000000
_cell_angle_gamma 90.000000
_cell_volume 3943.311151
_symmetry_space_group_name_H-M "C M C M"
_symmetry_group_IT_number 63
_symmetry_cell_setting 'orthorhombic'
loop_
_space_group_symop_operation_xyz
x,y,z
-x,-y,1/2+z
x,-y,-z
-x,y,1/2-z
-x,-y,-z
x,y,1/2-z
-x,y,z
x,-y,1/2+z
1/2+x,1/2+y,z
1/2-x,1/2-y,1/2+z
1/2+x,1/2-y,-z
1/2-x,1/2+y,1/2-z
1/2-x,1/2-y,-z
1/2+x,1/2+y,1/2-z
1/2-x,1/2+y,z
1/2+x,1/2-y,1/2+z
loop_
_atom_site_type_symbol
_atom_site_label
_atom_site_fract_x
_atom_site_fract_y
_atom_site_fract_z
Si Si1 0.196354 0.056844 0.250000
Si Si2 0.203251 0.461180 0.451502
Si Si3 0.706770 0.959694 0.854801
Si Si4 0.290118 0.791764 0.643653
Si Si5 0.804708 0.281386 0.750000
Si Si6 0.295437 0.295083 0.451711
O O1 0.232544 0.016711 0.300849
O O2 0.306310 0.130608 0.250000
O O3 0.000000 0.080479 0.250000
O O4 0.275164 0.500000 0.500000
O O5 0.271440 0.493482 0.400426
O O6 0.227193 0.375973 0.454818
O O7 0.000000 0.476771 0.450763
O O8 0.500000 0.961502 0.853998
O O9 0.759495 0.875834 0.861597
O O10 0.500000 0.790873 0.644811
O O11 0.228514 0.763222 0.696809
O O12 0.232463 0.745628 0.597243
O O13 0.000000 0.254568 0.750000
O O14 0.500000 0.298972 0.448402
O O15 0.250000 0.250000 0.500000
#
# Coordination Sequence:
#
# PCOD9468662 Si02
#       6
#     8  16  16  16   8  16
#     4  10  18  28  47  78 111 135 165 213 261 302
#     4  10  21  38  58  78 103 138 179 221 268 321
#     4   9  17  33  56  76 100 138 179 212 251 312
#     4   8  15  30  54  78  98 130 174 213 249 300
#     4   8  14  30  53  72  95 133 177 209 245 304
#     4  11  22  36  54  78 108 139 175 217 265 320
#
# _framework density 20.287519
#
# number of rings (size 3 to 8) (size 9 to 14) (size 15 to 20)
#    0.000    2.600    0.000    3.900    0.000    4.400 
#    0.000   13.000    0.000    1.200    0.000    0.000 
#    0.000    0.000    0.000    0.000    0.000    0.000 
#
# Total GULP energy -223121.132687 kJ/mol
# GULP energy per Si atom -5578.028317 kJ/mol
# Density = 2.024134 g / cm^3
# Si number density = 20.287519 Si / 1000 Ang^3
#
#
#
# Elastic Constant Matrix: (Units=GPa)
#
#
# Indices 1 2 3 4 5 6 
#
# 1 34.5264 -10.3276 3.5101 0.0000 0.0000 0.0000
# 2 -10.3276 80.7025 89.0173 0.0000 0.0000 0.0000
# 3 3.5101 89.0173 248.2736 0.0000 0.0000 0.0000
# 4 0.0000 0.0000 0.0000 36.2952 0.0000 0.0000
# 5 0.0000 0.0000 0.0000 0.0000 -4.7369 0.0000
# 6 0.0000 0.0000 0.0000 0.0000 0.0000 14.6501
#
#
#
# Elastic Compliance Matrix: (Units=1/GPa)
#
#
# Indices 1 2 3 4 5 6 
#
# 1 0.031521 0.007486 -0.003130 0.000000 0.000000 0.000000
# 2 0.007486 0.022276 -0.008093 0.000000 0.000000 0.000000
# 3 -0.003130 -0.008093 0.006974 0.000000 0.000000 0.000000
# 4 0.000000 0.000000 0.000000 0.027552 0.000000 0.000000
# 5 0.000000 0.000000 0.000000 0.000000 -0.211108 0.000000
# 6 0.000000 0.000000 0.000000 0.000000 0.000000 0.068259
#
#
# Mechanical properties :
#
#
# Convention : Reuss Voigt Hill
#
# Bulk Modulus (GPa) = 18.76276 58.65578 38.70927
# Shear Modulus (GPa) = -170.71500 27.99517 -71.35991
#
# Velocity S-wave (km/s) = -9.18316 3.71876 -5.93723
# Velocity P-wave (km/s) = 10.15737 6.88578 5.28007
#
# Compressibility (1/GPa) = 0.05329705
#
# Stress axis : x y z
#
# Youngs Moduli (GPa) = 31.72518 44.89217 143.39714
#
# Poissons Ratio (x) = -0.33606 0.44878
# Poissons Ratio (y) = -0.23749 1.16046
# Poissons Ratio (z) = 0.09929 0.36330
#
# Static dielectric constant tensor:
#      x y z
#    x 1.755730 0.000000 0.000000 
#    y 0.000000 1.642850 0.000000 
#    z 0.000000 0.000000 1.751450 
# 
# From -- ./inp_files/66666.got.cif
#   From: 2010.05.17/outbox.cif.g08.bks.cpg/sg63_34_cif.got.tgz:66666.got - 2010.06.03 15:47:04.
