data_PCOD9468274
_publ_section_title
;
Structure prediction by ZEFSAII (Michael W. Deem and Ramdas Pophale) SiO2 
 PCOD9468274
Probable space group: C M C M
;
_chemical_formula_sum "Si O2"
_cell_formula_units_Z 112
_cell_length_a 12.753287
_cell_length_b 26.146004
_cell_length_c 22.702828
_cell_angle_alpha 90.000000
_cell_angle_beta 90.000000
_cell_angle_gamma 90.000000
_cell_volume 7570.201079
_symmetry_space_group_name_H-M "C M C M"
_symmetry_group_IT_number 63
_symmetry_cell_setting 'orthorhombic'
loop_
_space_group_symop_operation_xyz
x,y,z
-x,-y,1/2+z
x,-y,-z
-x,y,1/2-z
-x,-y,-z
x,y,1/2-z
-x,y,z
x,-y,1/2+z
1/2+x,1/2+y,z
1/2-x,1/2-y,1/2+z
1/2+x,1/2-y,-z
1/2-x,1/2+y,1/2-z
1/2-x,1/2-y,-z
1/2+x,1/2+y,1/2-z
1/2-x,1/2+y,z
1/2+x,1/2-y,1/2+z
loop_
_atom_site_type_symbol
_atom_site_label
_atom_site_fract_x
_atom_site_fract_y
_atom_site_fract_z
Si Si1 0.376165 0.388679 0.578341
Si Si2 0.733436 0.279698 0.586602
Si Si3 0.621557 0.993756 0.908424
Si Si4 0.801314 0.578660 0.992594
Si Si5 0.881264 0.318326 0.680960
Si Si6 0.267867 0.073225 0.180867
Si Si7 0.876039 0.692524 0.523702
O O1 0.500000 0.394622 0.573153
O O2 0.343134 0.328838 0.581530
O O3 0.311700 0.412361 0.523138
O O4 0.329997 0.414625 0.637842
O O5 0.797792 0.284288 0.646593
O O6 0.820210 0.287079 0.535515
O O7 0.671999 0.227587 0.575149
O O8 0.500000 0.008622 0.903390
O O9 0.670840 0.974408 0.847576
O O10 0.688447 0.038386 0.939692
O O11 0.630854 0.946082 0.954151
O O12 0.845525 0.633118 0.972761
O O13 0.880779 0.306647 0.750000
O O14 0.843145 0.377032 0.674431
O O15 0.000000 0.313043 0.658288
O O16 0.242878 0.067436 0.250000
O O17 0.000000 0.698317 0.520843
#
# Coordination Sequence:
#
# PCOD9468274 Si02
#       7
#    16  16  16  16  16  16  16
#     4   9  17  30  45  61  88 120 147 179 215 253
#     4   9  18  27  41  67  90 112 145 177 211 258
#     4  10  17  28  46  66  91 115 138 175 222 266
#     4   9  18  29  43  66  88 113 148 177 211 261
#     4   9  16  28  46  66  89 114 140 175 218 260
#     4   9  18  29  43  67  91 112 144 180 216 261
#     4  10  17  27  43  62  90 119 141 173 215 257
#
# _framework density 14.794852000000001
#
# number of rings (size 3 to 8) (size 9 to 14) (size 15 to 20)
#    0.000    2.714    0.000    3.857    0.000    1.143 
#    0.000    6.429    0.000    2.143    0.000    0.000 
#    0.000    0.000    0.000    0.000    0.000    0.000 
#
# Total GULP energy -311891.009983 kJ/mol
# GULP energy per Si atom -5569.482321 kJ/mol
# Density = 1.476118 g / cm^3
# Si number density = 14.794852 Si / 1000 Ang^3
#
#
#
# Elastic Constant Matrix: (Units=GPa)
#
#
# Indices 1 2 3 4 5 6 
#
# 1 126.5321 43.3485 43.7770 0.0000 0.0000 0.0000
# 2 43.3485 81.0571 41.2383 0.0000 0.0000 0.0000
# 3 43.7770 41.2383 67.3874 0.0000 0.0000 0.0000
# 4 0.0000 0.0000 0.0000 21.4134 0.0000 0.0000
# 5 0.0000 0.0000 0.0000 0.0000 14.7230 0.0000
# 6 0.0000 0.0000 0.0000 0.0000 0.0000 9.6665
#
#
#
# Elastic Compliance Matrix: (Units=1/GPa)
#
#
# Indices 1 2 3 4 5 6 
#
# 1 0.010732 -0.003183 -0.005024 0.000000 0.000000 0.000000
# 2 -0.003183 0.018859 -0.009473 0.000000 0.000000 0.000000
# 3 -0.005024 -0.009473 0.023900 0.000000 0.000000 0.000000
# 4 0.000000 0.000000 0.000000 0.046700 0.000000 0.000000
# 5 0.000000 0.000000 0.000000 0.000000 0.067921 0.000000
# 6 0.000000 0.000000 0.000000 0.000000 0.000000 0.103450
#
#
# Mechanical properties :
#
#
# Convention : Reuss Voigt Hill
#
# Bulk Modulus (GPa) = 55.15409 59.07824 57.11617
# Shear Modulus (GPa) = 15.97627 18.93478 17.45552
#
# Velocity S-wave (km/s) = 3.28968 3.58134 3.43860
# Velocity P-wave (km/s) = 7.19649 7.55775 7.37933
#
# Compressibility (1/GPa) = 0.01813102
#
# Stress axis : x y z
#
# Youngs Moduli (GPa) = 93.18122 53.02572 41.84114
#
# Poissons Ratio (x) = 0.16881 0.21019
# Poissons Ratio (y) = 0.29664 0.39635
# Poissons Ratio (z) = 0.46810 0.50230
#
# Static dielectric constant tensor:
#      x y z
#    x 1.481000 0.000000 0.000000 
#    y 0.000000 1.492690 0.000000 
#    z 0.000000 0.000000 1.495200 
# 
# From -- ./inp_files/53357.got.cif
#   From: 2010.05.17/outbox.cif.g08.bks.cpg/sg63_27_cif.got.tgz:53357.got - 2010.06.03 15:47:04.
