data_PCOD9468808
_publ_section_title
;
Structure prediction by ZEFSAII (Michael W. Deem and Ramdas Pophale) SiO2 
 PCOD9468808
Probable space group: C M C M
;
_chemical_formula_sum "Si O2"
_cell_formula_units_Z 88
_cell_length_a 17.447751
_cell_length_b 14.093219
_cell_length_c 13.865664
_cell_angle_alpha 90.000000
_cell_angle_beta 90.000000
_cell_angle_gamma 90.000000
_cell_volume 3409.497115
_symmetry_space_group_name_H-M "C M C M"
_symmetry_group_IT_number 63
_symmetry_cell_setting 'orthorhombic'
loop_
_space_group_symop_operation_xyz
x,y,z
-x,-y,1/2+z
x,-y,-z
-x,y,1/2-z
-x,-y,-z
x,y,1/2-z
-x,y,z
x,-y,1/2+z
1/2+x,1/2+y,z
1/2-x,1/2-y,1/2+z
1/2+x,1/2-y,-z
1/2-x,1/2+y,1/2-z
1/2-x,1/2-y,-z
1/2+x,1/2+y,1/2-z
1/2-x,1/2+y,z
1/2+x,1/2-y,1/2+z
loop_
_atom_site_type_symbol
_atom_site_label
_atom_site_fract_x
_atom_site_fract_y
_atom_site_fract_z
Si Si1 0.331829 0.524365 0.138167
Si Si2 0.352577 0.216195 0.420885
Si Si3 0.000000 0.218756 0.994142
Si Si4 0.691244 0.749051 0.137345
Si Si5 0.500000 0.926843 0.408517
Si Si6 0.500000 0.538747 0.367331
Si Si7 0.155490 0.495315 0.612995
O O1 0.342508 0.520485 0.250000
O O2 0.321821 0.636710 0.113631
O O3 0.417094 0.493800 0.103115
O O4 0.245610 0.481310 0.128467
O O5 0.427487 0.278440 0.424506
O O6 0.336729 0.202437 0.537205
O O7 0.281741 0.265616 0.369902
O O8 0.359704 0.115731 0.367033
O O9 0.000000 0.139445 0.076277
O O10 0.000000 0.679118 0.950542
O O11 0.666215 0.765696 0.250000
O O12 0.580305 0.947137 0.353967
O O13 0.500000 0.000000 0.500000
O O14 0.500000 0.552152 0.250000
O O15 0.151700 0.500000 0.500000
#
# Coordination Sequence:
#
# PCOD9468808 Si02
#       7
#    16  16   8  16   8   8  16
#     4   9  18  32  51  73 102 136 175 224 275 320
#     4  10  18  29  52  76 103 143 176 217 273 322
#     4  12  18  30  53  84 107 135 179 217 277 336
#     4   9  18  32  48  74 106 137 180 225 269 325
#     4  10  18  32  50  72 112 150 172 217 260 318
#     4  10  20  34  53  80 110 133 168 238 294 320
#     4  10  18  33  51  73 105 143 183 210 257 324
#
# _framework density 25.810258000000001
#
# number of rings (size 3 to 8) (size 9 to 14) (size 15 to 20)
#    0.000    2.182    5.455    0.000    0.000    0.000 
#    0.000    3.182    0.000    4.364    0.000    0.000 
#    0.000    0.000    0.000    0.000    0.000    0.000 
#
# Total GULP energy -244940.869242 kJ/mol
# GULP energy per Si atom -5566.837937 kJ/mol
# Density = 2.575151 g / cm^3
# Si number density = 25.810258 Si / 1000 Ang^3
#
#
#
# Elastic Constant Matrix: (Units=GPa)
#
#
# Indices 1 2 3 4 5 6 
#
# 1 248.2775 41.2058 -15.2007 0.0000 0.0000 0.0000
# 2 41.2058 109.7155 15.5656 0.0000 0.0000 0.0000
# 3 -15.2007 15.5656 64.5510 0.0000 0.0000 0.0000
# 4 0.0000 0.0000 0.0000 10.0057 0.0000 0.0000
# 5 0.0000 0.0000 0.0000 0.0000 49.5875 0.0000
# 6 0.0000 0.0000 0.0000 0.0000 0.0000 29.3351
#
#
#
# Elastic Compliance Matrix: (Units=1/GPa)
#
#
# Indices 1 2 3 4 5 6 
#
# 1 0.004431 -0.001876 0.001496 0.000000 0.000000 0.000000
# 2 -0.001876 0.010232 -0.002909 0.000000 0.000000 0.000000
# 3 0.001496 -0.002909 0.016545 0.000000 0.000000 0.000000
# 4 0.000000 0.000000 0.000000 0.099943 0.000000 0.000000
# 5 0.000000 0.000000 0.000000 0.000000 0.020166 0.000000
# 6 0.000000 0.000000 0.000000 0.000000 0.000000 0.034089
#
#
# Mechanical properties :
#
#
# Convention : Reuss Voigt Hill
#
# Bulk Modulus (GPa) = 40.60286 56.18728 48.39507
# Shear Modulus (GPa) = 24.97565 43.18387 34.07976
#
# Velocity S-wave (km/s) = 3.11410 4.09483 3.63767
# Velocity P-wave (km/s) = 5.35683 6.64631 6.03610
#
# Compressibility (1/GPa) = 0.02462881
#
# Stress axis : x y z
#
# Youngs Moduli (GPa) = 225.69663 97.73381 60.43994
#
# Poissons Ratio (x) = 0.18337 -0.09041
# Poissons Ratio (y) = 0.42347 0.17583
# Poissons Ratio (z) = -0.33760 0.28432
#
# Static dielectric constant tensor:
#      x y z
#    x 2.083990 0.000000 0.000000 
#    y 0.000000 0.883290 0.000000 
#    z 0.000000 0.000000 1.976480 
# 
# From -- ./inp_files/32145.got.cif
#   From: 2010.05.17/outbox.cif.g08.bks.cpg/sg63_17_cif.got.tgz:32145.got - 2010.06.03 15:47:04.
