data_PCOD9468478
_publ_section_title
;
Structure prediction by ZEFSAII (Michael W. Deem and Ramdas Pophale) SiO2 
 PCOD9468478
Probable space group: C M C M
;
_chemical_formula_sum "Si O2"
_cell_formula_units_Z 96
_cell_length_a 13.799981
_cell_length_b 24.800111
_cell_length_c 14.294044
_cell_angle_alpha 90.000000
_cell_angle_beta 90.000000
_cell_angle_gamma 90.000000
_cell_volume 4892.008779
_symmetry_space_group_name_H-M "C M C M"
_symmetry_group_IT_number 63
_symmetry_cell_setting 'orthorhombic'
loop_
_space_group_symop_operation_xyz
x,y,z
-x,-y,1/2+z
x,-y,-z
-x,y,1/2-z
-x,-y,-z
x,y,1/2-z
-x,y,z
x,-y,1/2+z
1/2+x,1/2+y,z
1/2-x,1/2-y,1/2+z
1/2+x,1/2-y,-z
1/2-x,1/2+y,1/2-z
1/2-x,1/2-y,-z
1/2+x,1/2+y,1/2-z
1/2-x,1/2+y,z
1/2+x,1/2-y,1/2+z
loop_
_atom_site_type_symbol
_atom_site_label
_atom_site_fract_x
_atom_site_fract_y
_atom_site_fract_z
Si Si1 0.381551 0.754126 0.140615
Si Si2 0.297793 0.037260 0.862531
Si Si3 0.883376 0.421157 0.855242
Si Si4 0.615353 0.363171 0.637384
Si Si5 0.117171 0.360245 0.032901
Si Si6 0.889168 0.981514 0.636064
O O1 0.353681 0.761637 0.250000
O O2 0.500000 0.753228 0.140009
O O3 0.348541 0.695200 0.104755
O O4 0.349299 0.804110 0.077439
O O5 0.302839 0.042578 0.750000
O O6 0.351153 0.980925 0.886025
O O7 0.344555 0.089165 0.908087
O O8 0.186518 0.027135 0.891682
O O9 0.845928 0.412203 0.750000
O O10 0.000000 0.421695 0.852170
O O11 0.854559 0.374333 0.926655
O O12 0.624701 0.361134 0.750000
O O13 0.500000 0.364977 0.617800
O O14 0.649368 0.422297 0.606339
O O15 0.000000 0.360356 0.037481
O O16 0.889849 0.980394 0.750000
O O17 0.000000 0.989884 0.606659
#
# Coordination Sequence:
#
# PCOD9468478 Si02
#       6
#    16  16  16  16  16  16
#     4   8  13  21  36  61  90 116 140 168 210 264
#     4  10  18  26  40  63  90 118 145 174 214 265
#     4   9  18  31  44  58  79 112 153 188 217 257
#     4   7  10  19  36  57  82 112 144 177 213 252
#     4  10  18  27  41  62  91 121 143 172 218 270
#     4   8  14  25  41  61  86 116 148 182 218 253
#
# _framework density 19.623840000000001
#
# number of rings (size 3 to 8) (size 9 to 14) (size 15 to 20)
#    0.000    3.333    0.000    3.500    0.000    3.000 
#    0.000    0.000    0.000    3.000    0.000    0.000 
#    0.000    4.000    0.000   28.167    0.000    1.000 
#
# Total GULP energy -267605.038976 kJ/mol
# GULP energy per Si atom -5575.104979 kJ/mol
# Density = 1.957918 g / cm^3
# Si number density = 19.623840 Si / 1000 Ang^3
#
#
#
# Elastic Constant Matrix: (Units=GPa)
#
#
# Indices 1 2 3 4 5 6 
#
# 1 44.3581 4.5094 6.3231 0.0000 0.0000 0.0000
# 2 4.5094 64.3745 26.3216 0.0000 0.0000 0.0000
# 3 6.3231 26.3216 60.7805 0.0000 0.0000 0.0000
# 4 0.0000 0.0000 0.0000 12.5080 0.0000 0.0000
# 5 0.0000 0.0000 0.0000 0.0000 3.6519 0.0000
# 6 0.0000 0.0000 0.0000 0.0000 0.0000 21.9006
#
#
#
# Elastic Compliance Matrix: (Units=1/GPa)
#
#
# Indices 1 2 3 4 5 6 
#
# 1 0.022914 -0.000766 -0.002052 0.000000 0.000000 0.000000
# 2 -0.000766 0.018902 -0.008106 0.000000 0.000000 0.000000
# 3 -0.002052 -0.008106 0.020177 0.000000 0.000000 0.000000
# 4 0.000000 0.000000 0.000000 0.079949 0.000000 0.000000
# 5 0.000000 0.000000 0.000000 0.000000 0.273831 0.000000
# 6 0.000000 0.000000 0.000000 0.000000 0.000000 0.045661
#
#
# Mechanical properties :
#
#
# Convention : Reuss Voigt Hill
#
# Bulk Modulus (GPa) = 24.91003 27.09128 26.00065
# Shear Modulus (GPa) = 10.06717 16.43603 13.25160
#
# Velocity S-wave (km/s) = 2.26742 2.89719 2.60144
# Velocity P-wave (km/s) = 4.42451 5.00269 4.72245
#
# Compressibility (1/GPa) = 0.04014447
#
# Stress axis : x y z
#
# Youngs Moduli (GPa) = 43.64112 52.90391 49.56254
#
# Poissons Ratio (x) = 0.04053 0.10170
# Poissons Ratio (y) = 0.03343 0.40176
# Poissons Ratio (z) = 0.08955 0.42884
#
# Static dielectric constant tensor:
#      x y z
#    x 1.709520 0.000000 0.000000 
#    y 0.000000 1.676350 0.000000 
#    z 0.000000 0.000000 1.719050 
# 
# From -- ./inp_files/31963.got.cif
#   From: 2010.05.17/outbox.cif.g08.bks.cpg/sg63_16_cif.got.tgz:31963.got - 2010.06.03 15:47:04.
