data_PCOD9468951
_publ_section_title
;
Structure prediction by ZEFSAII (Michael W. Deem and Ramdas Pophale) SiO2 
 PCOD9468951
Probable space group: C M C M
;
_chemical_formula_sum "Si O2"
_cell_formula_units_Z 72
_cell_length_a 22.812476
_cell_length_b 20.161130
_cell_length_c 8.084808
_cell_angle_alpha 90.000000
_cell_angle_beta 90.000000
_cell_angle_gamma 90.000000
_cell_volume 3718.407698
_symmetry_space_group_name_H-M "C M C M"
_symmetry_group_IT_number 63
_symmetry_cell_setting 'orthorhombic'
loop_
_space_group_symop_operation_xyz
x,y,z
-x,-y,1/2+z
x,-y,-z
-x,y,1/2-z
-x,-y,-z
x,y,1/2-z
-x,y,z
x,-y,1/2+z
1/2+x,1/2+y,z
1/2-x,1/2-y,1/2+z
1/2+x,1/2-y,-z
1/2-x,1/2+y,1/2-z
1/2-x,1/2-y,-z
1/2+x,1/2+y,1/2-z
1/2-x,1/2+y,z
1/2+x,1/2-y,1/2+z
loop_
_atom_site_type_symbol
_atom_site_label
_atom_site_fract_x
_atom_site_fract_y
_atom_site_fract_z
Si Si1 0.000000 0.076252 0.050733
Si Si2 0.432113 0.802789 0.452546
Si Si3 0.355324 0.074674 0.946671
Si Si4 0.387042 0.339883 0.952366
Si Si5 0.778197 0.074890 0.052308
O O1 0.941740 0.114616 0.994061
O O2 0.000000 0.079358 0.250000
O O3 0.000000 0.000000 0.000000
O O4 0.432064 0.803175 0.250000
O O5 0.500000 0.801251 0.503920
O O6 0.398253 0.868219 0.511569
O O7 0.399379 0.735421 0.504295
O O8 0.358668 0.076134 0.750000
O O9 0.287899 0.088043 0.994450
O O10 0.370409 0.000000 0.000000
O O11 0.386478 0.340162 0.750000
O O12 0.326431 0.372876 0.009056
O O13 0.778024 0.076565 0.250000
O O14 0.794295 0.000000 0.000000
#
# Coordination Sequence:
#
# PCOD9468951 Si02
#       5
#     8  16  16  16  16
#     4  10  18  30  50  74 101 132 168 208 243 286
#     4   9  17  32  53  76 101 130 169 211 250 299
#     4  10  20  34  54  77 100 130 167 210 256 302
#     4   9  17  30  50  75 101 132 169 207 246 291
#     4  10  19  32  51  75 104 136 168 206 249 296
#
# _framework density 19.363126999999999
#
# number of rings (size 3 to 8) (size 9 to 14) (size 15 to 20)
#    0.000    2.444    1.111    3.333    0.000    1.333 
#    0.000    1.111    0.000    8.667    0.000    0.000 
#    0.000    0.000    0.000    0.000    0.000    0.000 
#
# Total GULP energy -200916.881779 kJ/mol
# GULP energy per Si atom -5581.024494 kJ/mol
# Density = 1.931906 g / cm^3
# Si number density = 19.363127 Si / 1000 Ang^3
#
#
#
# Elastic Constant Matrix: (Units=GPa)
#
#
# Indices 1 2 3 4 5 6 
#
# 1 111.7252 116.1405 5.9751 0.0000 0.0000 0.0000
# 2 116.1405 189.3220 9.0237 0.0000 0.0000 0.0000
# 3 5.9751 9.0237 19.6321 0.0000 0.0000 0.0000
# 4 0.0000 0.0000 0.0000 11.8004 0.0000 0.0000
# 5 0.0000 0.0000 0.0000 0.0000 10.5230 0.0000
# 6 0.0000 0.0000 0.0000 0.0000 0.0000 42.1787
#
#
#
# Elastic Compliance Matrix: (Units=1/GPa)
#
#
# Indices 1 2 3 4 5 6 
#
# 1 0.024711 -0.015132 -0.000566 0.000000 0.000000 0.000000
# 2 -0.015132 0.014667 -0.002136 0.000000 0.000000 0.000000
# 3 -0.000566 -0.002136 0.052091 0.000000 0.000000 0.000000
# 4 0.000000 0.000000 0.000000 0.084743 0.000000 0.000000
# 5 0.000000 0.000000 0.000000 0.000000 0.095030 0.000000
# 6 0.000000 0.000000 0.000000 0.000000 0.000000 0.023709
#
#
# Mechanical properties :
#
#
# Convention : Reuss Voigt Hill
#
# Bulk Modulus (GPa) = 17.92074 64.77308 41.34691
# Shear Modulus (GPa) = 14.31775 25.53643 19.92709
#
# Velocity S-wave (km/s) = 2.72220 3.63549 3.21148
# Velocity P-wave (km/s) = 4.37672 7.15170 5.92885
#
# Compressibility (1/GPa) = 0.05580127
#
# Stress axis : x y z
#
# Youngs Moduli (GPa) = 40.46822 68.18218 19.19728
#
# Poissons Ratio (x) = 1.03173 0.01086
# Poissons Ratio (y) = 0.61236 0.04100
# Poissons Ratio (z) = 0.02289 0.14563
#
# Static dielectric constant tensor:
#      x y z
#    x 1.664670 0.000000 0.000000 
#    y 0.000000 1.664770 0.000000 
#    z 0.000000 0.000000 1.686980 
# 
# From -- ./inp_files/7838.got.cif
#   From: 2010.05.17/outbox.cif.g08.bks.cpg/sg63_4_cif.got.tgz:7838.got - 2010.06.03 15:47:04.
