data_PCOD9468633
_publ_section_title
;
Structure prediction by ZEFSAII (Michael W. Deem and Ramdas Pophale) SiO2 
 PCOD9468633
Probable space group: C M C M
;
_chemical_formula_sum "Si O2"
_cell_formula_units_Z 112
_cell_length_a 7.370806
_cell_length_b 26.082835
_cell_length_c 26.253340
_cell_angle_alpha 90.000000
_cell_angle_beta 90.000000
_cell_angle_gamma 90.000000
_cell_volume 5047.244434
_symmetry_space_group_name_H-M "C M C M"
_symmetry_group_IT_number 63
_symmetry_cell_setting 'orthorhombic'
loop_
_space_group_symop_operation_xyz
x,y,z
-x,-y,1/2+z
x,-y,-z
-x,y,1/2-z
-x,-y,-z
x,y,1/2-z
-x,y,z
x,-y,1/2+z
1/2+x,1/2+y,z
1/2-x,1/2-y,1/2+z
1/2+x,1/2-y,-z
1/2-x,1/2+y,1/2-z
1/2-x,1/2-y,-z
1/2+x,1/2+y,1/2-z
1/2-x,1/2+y,z
1/2+x,1/2-y,1/2+z
loop_
_atom_site_type_symbol
_atom_site_label
_atom_site_fract_x
_atom_site_fract_y
_atom_site_fract_z
Si Si1 0.778240 0.902101 0.992967
Si Si2 0.782724 0.655018 0.693724
Si Si3 0.715836 0.709011 0.043651
Si Si4 0.283946 0.571892 0.893609
Si Si5 0.221054 0.877190 0.806456
Si Si6 0.221254 0.957709 0.891896
Si Si7 0.278269 0.734135 0.156578
O O1 0.715096 0.912839 0.050238
O O2 0.000000 0.901755 0.994214
O O3 0.716236 0.846485 0.973461
O O4 0.726164 0.942571 0.949432
O O5 0.716878 0.639484 0.750000
O O6 0.745843 0.614556 0.649188
O O7 0.716213 0.712173 0.679959
O O8 0.000000 0.658561 0.696334
O O9 0.500000 0.703046 0.049786
O O10 0.782468 0.728509 0.098092
O O11 0.750000 0.750000 0.000000
O O12 0.500000 0.567287 0.899098
O O13 0.217861 0.515123 0.879139
O O14 0.276197 0.894083 0.750000
O O15 0.281758 0.914940 0.851406
O O16 0.276550 0.818364 0.815830
O O17 0.000000 0.877300 0.807877
O O18 0.000000 0.956447 0.890639
O O19 0.500000 0.735201 0.157837
#
# Coordination Sequence:
#
# PCOD9468633 Si02
#       7
#    16  16  16  16  16  16  16
#     4   9  16  29  47  71 102 134 164 197 246 300
#     4  10  21  36  52  70  96 132 169 203 246 300
#     4  10  18  28  46  70  99 130 160 198 244 293
#     4  10  20  32  51  76 102 132 166 204 245 293
#     4   9  15  24  42  69  97 122 155 206 256 286
#     4   9  16  28  46  72 103 132 164 203 247 293
#     4   9  16  29  47  68  93 123 161 204 246 290
#
# _framework density 22.190325999999999
#
# number of rings (size 3 to 8) (size 9 to 14) (size 15 to 20)
#    0.000    2.571    1.429    1.714    0.000    4.286 
#    0.000    1.429    0.000    2.571    0.000    0.000 
#    0.000    1.143    0.000    0.000    0.000    0.000 
#
# Total GULP energy -312859.589902 kJ/mol
# GULP energy per Si atom -5586.778391 kJ/mol
# Density = 2.213982 g / cm^3
# Si number density = 22.190326 Si / 1000 Ang^3
#
#
#
# Elastic Constant Matrix: (Units=GPa)
#
#
# Indices 1 2 3 4 5 6 
#
# 1 76.6095 2.7760 1.1026 0.0000 0.0000 0.0000
# 2 2.7760 159.6287 91.6171 0.0000 0.0000 0.0000
# 3 1.1026 91.6171 194.7836 0.0000 0.0000 0.0000
# 4 0.0000 0.0000 0.0000 13.2705 0.0000 0.0000
# 5 0.0000 0.0000 0.0000 0.0000 5.5861 0.0000
# 6 0.0000 0.0000 0.0000 0.0000 0.0000 -103.6957
#
#
#
# Elastic Compliance Matrix: (Units=1/GPa)
#
#
# Indices 1 2 3 4 5 6 
#
# 1 0.013062 -0.000253 0.000045 0.000000 0.000000 0.000000
# 2 -0.000253 0.008586 -0.004037 0.000000 0.000000 0.000000
# 3 0.000045 -0.004037 0.007032 0.000000 0.000000 0.000000
# 4 0.000000 0.000000 0.000000 0.075355 0.000000 0.000000
# 5 0.000000 0.000000 0.000000 0.000000 0.179015 0.000000
# 6 0.000000 0.000000 0.000000 0.000000 0.000000 -0.009644
#
#
# Mechanical properties :
#
#
# Convention : Reuss Voigt Hill
#
# Bulk Modulus (GPa) = 49.52885 69.11258 59.32071
# Shear Modulus (GPa) = 17.32347 5.40061 11.36204
#
# Velocity S-wave (km/s) = 2.79709 1.56175 2.26526
# Velocity P-wave (km/s) = 5.72714 5.87069 5.79936
#
# Compressibility (1/GPa) = 0.02019025
#
# Stress axis : x y z
#
# Youngs Moduli (GPa) = 76.55951 116.46976 142.19784
#
# Poissons Ratio (x) = 0.02947 -0.00641
# Poissons Ratio (y) = 0.01937 0.57405
# Poissons Ratio (z) = -0.00345 0.47019
#
# Static dielectric constant tensor:
#      x y z
#    x 1.900540 0.000000 0.000000 
#    y 0.000000 1.767460 0.000000 
#    z 0.000000 0.000000 1.774600 
# 
# From -- ./inp_files/61912.got.cif
#   From: 2010.05.17/outbox.cif.g08.bks.cpg/sg63_31_cif.got.tgz:61912.got - 2010.06.03 15:47:04.
