data_PCOD9468938
_publ_section_title
;
Structure prediction by ZEFSAII (Michael W. Deem and Ramdas Pophale) SiO2 
 PCOD9468938
Probable space group: C M C M
;
_chemical_formula_sum "Si O2"
_cell_formula_units_Z 116
_cell_length_a 15.087768
_cell_length_b 14.359430
_cell_length_c 21.307077
_cell_angle_alpha 90.000000
_cell_angle_beta 90.000000
_cell_angle_gamma 90.000000
_cell_volume 4616.215486
_symmetry_space_group_name_H-M "C M C M"
_symmetry_group_IT_number 63
_symmetry_cell_setting 'orthorhombic'
loop_
_space_group_symop_operation_xyz
x,y,z
-x,-y,1/2+z
x,-y,-z
-x,y,1/2-z
-x,-y,-z
x,y,1/2-z
-x,y,z
x,-y,1/2+z
1/2+x,1/2+y,z
1/2-x,1/2-y,1/2+z
1/2+x,1/2-y,-z
1/2-x,1/2+y,1/2-z
1/2-x,1/2-y,-z
1/2+x,1/2+y,1/2-z
1/2-x,1/2+y,z
1/2+x,1/2-y,1/2+z
loop_
_atom_site_type_symbol
_atom_site_label
_atom_site_fract_x
_atom_site_fract_y
_atom_site_fract_z
Si Si1 0.844809 0.090547 0.557540
Si Si2 0.802856 0.803915 0.319550
Si Si3 0.379942 0.568586 0.133224
Si Si4 0.903641 0.729949 0.824395
Si Si5 0.175659 0.388594 0.872344
Si Si6 0.500000 0.518066 0.250000
Si Si7 0.100359 0.721218 0.488683
Si Si8 0.136310 0.555125 0.939605
O O1 0.850747 0.142261 0.625004
O O2 0.870642 0.171769 0.509512
O O3 0.741749 0.065729 0.550221
O O4 0.895517 0.994539 0.571379
O O5 0.820549 0.838846 0.250000
O O6 0.695968 0.811417 0.331926
O O7 0.834803 0.696144 0.324162
O O8 0.407571 0.676003 0.135115
O O9 0.274161 0.575105 0.139291
O O10 0.424589 0.524632 0.194053
O O11 0.901641 0.759803 0.750000
O O12 0.000000 0.680141 0.830158
O O13 0.162698 0.333166 0.938645
O O14 0.120566 0.484422 0.881872
O O15 0.102970 0.660372 0.552231
O O16 0.000000 0.718573 0.464343
O O17 0.099452 0.500000 0.000000
#
# Coordination Sequence:
#
# PCOD9468938 Si02
#       8
#    16  16  16  16  16   4  16  16
#     4  10  21  34  50  79 116 144 179 227 287 344
#     4   9  18  30  48  73 111 151 178 207 270 339
#     4  10  18  30  49  78 110 143 183 227 264 316
#     4   9  14  26  45  68  94 133 180 216 243 296
#     4   8  18  33  51  80 106 140 189 233 270 327
#     4  12  20  28  52  88 112 152 194 226 258 332
#     4  10  20  35  58  85 106 143 188 243 299 346
#     4   9  18  36  59  76  99 143 188 238 288 333
#
# _framework density 25.128809
#
# number of rings (size 3 to 8) (size 9 to 14) (size 15 to 20)
#    0.000    2.621    1.379    0.414    2.897    2.483 
#    0.000    0.690    0.000    4.966    5.379    0.000 
#    0.000    0.000    0.000    0.000    0.000    0.000 
#
# Total GULP energy -322971.168819 kJ/mol
# GULP energy per Si atom -5568.468428 kJ/mol
# Density = 2.507161 g / cm^3
# Si number density = 25.128809 Si / 1000 Ang^3
#
#
#
# Elastic Constant Matrix: (Units=GPa)
#
#
# Indices 1 2 3 4 5 6 
#
# 1 78.7246 20.6978 20.2505 0.0000 0.0000 0.0000
# 2 20.6978 150.3176 44.5008 0.0000 0.0000 0.0000
# 3 20.2505 44.5008 88.5535 0.0000 0.0000 0.0000
# 4 0.0000 0.0000 0.0000 35.1107 0.0000 0.0000
# 5 0.0000 0.0000 0.0000 0.0000 31.2506 0.0000
# 6 0.0000 0.0000 0.0000 0.0000 0.0000 -21.8949
#
#
#
# Elastic Compliance Matrix: (Units=1/GPa)
#
#
# Indices 1 2 3 4 5 6 
#
# 1 0.013656 -0.001123 -0.002559 0.000000 0.000000 0.000000
# 2 -0.001123 0.007908 -0.003717 0.000000 0.000000 0.000000
# 3 -0.002559 -0.003717 0.013746 0.000000 0.000000 0.000000
# 4 0.000000 0.000000 0.000000 0.028481 0.000000 0.000000
# 5 0.000000 0.000000 0.000000 0.000000 0.031999 0.000000
# 6 0.000000 0.000000 0.000000 0.000000 0.000000 -0.045673
#
#
# Mechanical properties :
#
#
# Convention : Reuss Voigt Hill
#
# Bulk Modulus (GPa) = 48.75155 54.27711 51.51433
# Shear Modulus (GPa) = 69.68515 24.36973 47.02744
#
# Velocity S-wave (km/s) = 5.27175 3.11753 4.33073
# Velocity P-wave (km/s) = 7.51651 5.88261 6.74919
#
# Compressibility (1/GPa) = 0.02051217
#
# Stress axis : x y z
#
# Youngs Moduli (GPa) = 73.22854 126.46054 72.75043
#
# Poissons Ratio (x) = 0.14200 0.18614
# Poissons Ratio (y) = 0.08223 0.27042
# Poissons Ratio (z) = 0.18736 0.47006
#
# Static dielectric constant tensor:
#      x y z
#    x 1.983720 0.000000 0.000000 
#    y 0.000000 2.102400 0.000000 
#    z 0.000000 0.000000 2.009070 
# 
# From -- ./inp_files/63932.got.cif
#   From: 2010.05.17/outbox.cif.g08.bks.cpg/sg63_32_cif.got.tgz:63932.got - 2010.06.03 15:47:04.
