data_PCOD9468357
_publ_section_title
;
Structure prediction by ZEFSAII (Michael W. Deem and Ramdas Pophale) SiO2 
 PCOD9468357
Probable space group: C M C M
;
_chemical_formula_sum "Si O2"
_cell_formula_units_Z 96
_cell_length_a 8.246728
_cell_length_b 30.713898
_cell_length_c 21.333372
_cell_angle_alpha 90.000000
_cell_angle_beta 90.000000
_cell_angle_gamma 90.000000
_cell_volume 5403.511930
_symmetry_space_group_name_H-M "C M C M"
_symmetry_group_IT_number 63
_symmetry_cell_setting 'orthorhombic'
loop_
_space_group_symop_operation_xyz
x,y,z
-x,-y,1/2+z
x,-y,-z
-x,y,1/2-z
-x,-y,-z
x,y,1/2-z
-x,y,z
x,-y,1/2+z
1/2+x,1/2+y,z
1/2-x,1/2-y,1/2+z
1/2+x,1/2-y,-z
1/2-x,1/2+y,1/2-z
1/2-x,1/2-y,-z
1/2+x,1/2+y,1/2-z
1/2-x,1/2+y,z
1/2+x,1/2-y,1/2+z
loop_
_atom_site_type_symbol
_atom_site_label
_atom_site_fract_x
_atom_site_fract_y
_atom_site_fract_z
Si Si1 0.311851 0.385569 0.023652
Si Si2 0.196315 0.536341 0.448039
Si Si3 0.697885 0.003874 0.682643
Si Si4 0.691190 0.303954 0.319142
Si Si5 0.688083 0.100730 0.842984
Si Si6 0.308058 0.209749 0.958198
O O1 0.500000 0.391076 0.040459
O O2 0.202651 0.400897 0.081949
O O3 0.276002 0.334477 0.017141
O O4 0.267731 0.417083 0.966866
O O5 0.242761 0.500000 0.500000
O O6 0.251663 0.520624 0.379650
O O7 0.000000 0.538992 0.448573
O O8 0.745707 0.984920 0.750000
O O9 0.500000 0.004822 0.680138
O O10 0.749421 0.054365 0.680309
O O11 0.751883 0.289320 0.250000
O O12 0.500000 0.295049 0.322118
O O13 0.718944 0.356133 0.322282
O O14 0.768133 0.286121 0.383674
O O15 0.500000 0.106039 0.825089
O O16 0.500000 0.204456 0.964117
O O17 0.250000 0.250000 0.000000
#
# Coordination Sequence:
#
# PCOD9468357 Si02
#       6
#    16  16  16  16  16  16
#     4  11  21  33  51  77 106 136 176 217 264 315
#     4  10  18  32  51  72 100 136 179 219 259 307
#     4   9  17  28  45  69  98 133 175 220 262 307
#     4  10  20  33  50  77 113 146 175 212 261 319
#     4  10  17  29  48  72 102 137 177 214 258 313
#     4  11  22  38  60  83 109 139 177 222 274 325
#
# _framework density 17.766224000000001
#
# number of rings (size 3 to 8) (size 9 to 14) (size 15 to 20)
#    0.000    1.833    1.667    6.500    0.000    2.333 
#    0.000    0.000    0.000    3.500    0.000    2.333 
#    0.000    0.000    0.000    0.000    0.000    0.000 
#
# Total GULP energy -267781.591025 kJ/mol
# GULP energy per Si atom -5578.783146 kJ/mol
# Density = 1.772579 g / cm^3
# Si number density = 17.766224 Si / 1000 Ang^3
#
#
#
# Elastic Constant Matrix: (Units=GPa)
#
#
# Indices 1 2 3 4 5 6 
#
# 1 43.0059 5.9110 10.5079 0.0000 0.0000 0.0000
# 2 5.9110 74.1208 64.0857 0.0000 0.0000 0.0000
# 3 10.5079 64.0857 149.2052 0.0000 0.0000 0.0000
# 4 0.0000 0.0000 0.0000 16.7396 0.0000 0.0000
# 5 0.0000 0.0000 0.0000 0.0000 9.1302 0.0000
# 6 0.0000 0.0000 0.0000 0.0000 0.0000 19.4085
#
#
#
# Elastic Compliance Matrix: (Units=1/GPa)
#
#
# Indices 1 2 3 4 5 6 
#
# 1 0.023683 -0.000710 -0.001363 0.000000 0.000000 0.000000
# 2 -0.000710 0.021483 -0.009177 0.000000 0.000000 0.000000
# 3 -0.001363 -0.009177 0.010740 0.000000 0.000000 0.000000
# 4 0.000000 0.000000 0.000000 0.059738 0.000000 0.000000
# 5 0.000000 0.000000 0.000000 0.000000 0.109527 0.000000
# 6 0.000000 0.000000 0.000000 0.000000 0.000000 0.051524
#
#
# Mechanical properties :
#
#
# Convention : Reuss Voigt Hill
#
# Bulk Modulus (GPa) = 29.93545 47.48236 38.70890
# Shear Modulus (GPa) = 16.11182 21.44414 18.77798
#
# Velocity S-wave (km/s) = 3.01471 3.47798 3.25460
# Velocity P-wave (km/s) = 5.38555 6.55078 5.99654
#
# Compressibility (1/GPa) = 0.03340521
#
# Stress axis : x y z
#
# Youngs Moduli (GPa) = 42.22394 46.54895 93.11124
#
# Poissons Ratio (x) = 0.03307 0.12689
# Poissons Ratio (y) = 0.03000 0.85449
# Poissons Ratio (z) = 0.05754 0.42718
#
# Static dielectric constant tensor:
#      x y z
#    x 1.610810 0.000000 0.000000 
#    y 0.000000 1.583820 0.000000 
#    z 0.000000 0.000000 1.681120 
# 
# From -- ./inp_files/60224.got.cif
#   From: 2010.05.17/outbox.cif.g08.bks.cpg/sg63_31_cif.got.tgz:60224.got - 2010.06.03 15:47:04.
