data_PCOD9468878
_publ_section_title
;
Structure prediction by ZEFSAII (Michael W. Deem and Ramdas Pophale) SiO2 
 PCOD9468878
Probable space group: C M C M
;
_chemical_formula_sum "Si O2"
_cell_formula_units_Z 72
_cell_length_a 33.861456
_cell_length_b 15.033725
_cell_length_c 8.645598
_cell_angle_alpha 90.000000
_cell_angle_beta 90.000000
_cell_angle_gamma 90.000000
_cell_volume 4401.161123
_symmetry_space_group_name_H-M "C M C M"
_symmetry_group_IT_number 63
_symmetry_cell_setting 'orthorhombic'
loop_
_space_group_symop_operation_xyz
x,y,z
-x,-y,1/2+z
x,-y,-z
-x,y,1/2-z
-x,-y,-z
x,y,1/2-z
-x,y,z
x,-y,1/2+z
1/2+x,1/2+y,z
1/2-x,1/2-y,1/2+z
1/2+x,1/2-y,-z
1/2-x,1/2+y,1/2-z
1/2-x,1/2-y,-z
1/2+x,1/2+y,1/2-z
1/2-x,1/2+y,z
1/2+x,1/2-y,1/2+z
loop_
_atom_site_type_symbol
_atom_site_label
_atom_site_fract_x
_atom_site_fract_y
_atom_site_fract_z
Si Si1 0.317949 0.595997 0.934883
Si Si2 0.417486 0.100191 0.935778
Si Si3 0.656634 0.776848 0.436438
Si Si4 0.226841 0.596299 0.936603
Si Si5 0.000000 0.399260 0.565214
O O1 0.318546 0.593078 0.750000
O O2 0.272158 0.611458 0.986061
O O3 0.330004 0.500000 0.000000
O O4 0.343133 0.678533 0.994904
O O5 0.420036 0.094639 0.750000
O O6 0.380902 0.162886 0.978935
O O7 0.458751 0.137967 0.001798
O O8 0.411730 0.000000 0.000000
O O9 0.657583 0.770798 0.250000
O O10 0.696283 0.828587 0.488519
O O11 0.226012 0.593306 0.750000
O O12 0.214467 0.500000 0.000000
O O13 0.000000 0.500000 0.500000
O O14 0.000000 0.400283 0.750000
#
# Coordination Sequence:
#
# PCOD9468878 Si02
#       5
#    16  16  16  16   8
#     4  10  20  33  49  66  89 123 162 201 239 278
#     4  10  19  31  48  71  99 128 156 189 228 275
#     4  10  20  32  47  69  96 123 156 197 237 276
#     4   9  18  31  46  67  94 125 158 194 235 278
#     4  10  18  30  48  68  95 128 157 186 222 274
#
# _framework density 16.359318999999999
#
# number of rings (size 3 to 8) (size 9 to 14) (size 15 to 20)
#    0.000    2.222    0.000    5.000    0.000    3.556 
#    0.000    0.000    0.000    0.000    0.000    0.778 
#    0.000    0.000    0.000    0.000    0.000    0.000 
#
# Total GULP energy -200854.554674 kJ/mol
# GULP energy per Si atom -5579.293185 kJ/mol
# Density = 1.632208 g / cm^3
# Si number density = 16.359319 Si / 1000 Ang^3
#
#
#
# Elastic Constant Matrix: (Units=GPa)
#
#
# Indices 1 2 3 4 5 6 
#
# 1 75.2284 64.1800 32.4646 0.0000 0.0000 0.0000
# 2 64.1800 118.3802 32.0889 0.0000 0.0000 0.0000
# 3 32.4646 32.0889 39.4814 0.0000 0.0000 0.0000
# 4 0.0000 0.0000 0.0000 27.9227 0.0000 0.0000
# 5 0.0000 0.0000 0.0000 0.0000 19.1453 0.0000
# 6 0.0000 0.0000 0.0000 0.0000 0.0000 15.4555
#
#
#
# Elastic Compliance Matrix: (Units=1/GPa)
#
#
# Indices 1 2 3 4 5 6 
#
# 1 0.030250 -0.012386 -0.014807 0.000000 0.000000 0.000000
# 2 -0.012386 0.015906 -0.002743 0.000000 0.000000 0.000000
# 3 -0.014807 -0.002743 0.039733 0.000000 0.000000 0.000000
# 4 0.000000 0.000000 0.000000 0.035813 0.000000 0.000000
# 5 0.000000 0.000000 0.000000 0.000000 0.052232 0.000000
# 6 0.000000 0.000000 0.000000 0.000000 0.000000 0.064702
#
#
# Mechanical properties :
#
#
# Convention : Reuss Voigt Hill
#
# Bulk Modulus (GPa) = 38.43625 54.50634 46.47130
# Shear Modulus (GPa) = 16.27712 19.46181 17.86947
#
# Velocity S-wave (km/s) = 3.15775 3.45287 3.30860
# Velocity P-wave (km/s) = 6.06969 7.02047 6.56232
#
# Compressibility (1/GPa) = 0.02601711
#
# Stress axis : x y z
#
# Youngs Moduli (GPa) = 33.05797 62.86872 25.16821
#
# Poissons Ratio (x) = 0.77872 0.37265
# Poissons Ratio (y) = 0.40947 0.06903
# Poissons Ratio (z) = 0.48947 0.17244
#
# Static dielectric constant tensor:
#      x y z
#    x 1.574060 0.000000 0.000000 
#    y 0.000000 1.533980 0.000000 
#    z 0.000000 0.000000 1.546660 
# 
# From -- ./inp_files/13889.got.cif
#   From: 2010.05.17/outbox.cif.g08.bks.cpg/sg63_7_cif.got.tgz:13889.got - 2010.06.03 15:47:04.
