data_PCOD9468747
_publ_section_title
;
Structure prediction by ZEFSAII (Michael W. Deem and Ramdas Pophale) SiO2 
 PCOD9468747
Probable space group: C M C M
;
_chemical_formula_sum "Si O2"
_cell_formula_units_Z 96
_cell_length_a 9.192989
_cell_length_b 27.608970
_cell_length_c 23.345323
_cell_angle_alpha 90.000000
_cell_angle_beta 90.000000
_cell_angle_gamma 90.000000
_cell_volume 5925.252093
_symmetry_space_group_name_H-M "C M C M"
_symmetry_group_IT_number 63
_symmetry_cell_setting 'orthorhombic'
loop_
_space_group_symop_operation_xyz
x,y,z
-x,-y,1/2+z
x,-y,-z
-x,y,1/2-z
-x,-y,-z
x,y,1/2-z
-x,y,z
x,-y,1/2+z
1/2+x,1/2+y,z
1/2-x,1/2-y,1/2+z
1/2+x,1/2-y,-z
1/2-x,1/2+y,1/2-z
1/2-x,1/2-y,-z
1/2+x,1/2+y,1/2-z
1/2-x,1/2+y,z
1/2+x,1/2-y,1/2+z
loop_
_atom_site_type_symbol
_atom_site_label
_atom_site_fract_x
_atom_site_fract_y
_atom_site_fract_z
Si Si1 0.172213 0.603820 0.546287
Si Si2 0.825583 0.701231 0.478853
Si Si3 0.669657 0.347135 0.873670
Si Si4 0.666335 0.554647 0.444790
Si Si5 0.677530 0.507914 0.250000
Si Si6 0.173050 0.039805 0.868928
Si Si7 0.322531 0.620784 0.250000
O O1 0.210176 0.657315 0.522911
O O2 0.226959 0.568297 0.495766
O O3 0.248656 0.586066 0.604111
O O4 0.000000 0.600806 0.552385
O O5 0.750000 0.750000 0.500000
O O6 0.763146 0.685061 0.417039
O O7 0.000000 0.706091 0.476547
O O8 0.500000 0.331430 0.874857
O O9 0.672839 0.401680 0.899124
O O10 0.721105 0.352072 0.808252
O O11 0.500000 0.553296 0.467276
O O12 0.697053 0.505148 0.412189
O O13 0.500000 0.509484 0.250000
O O14 0.722634 0.479220 0.193043
O O15 0.725023 0.564296 0.250000
O O16 0.000000 0.048355 0.866312
O O17 0.500000 0.619560 0.250000
#
# Coordination Sequence:
#
# PCOD9468747 Si02
#       7
#    16  16  16  16   8  16   8
#     4  10  21  33  46  68  98 127 156 198 250 297
#     4  10  21  37  55  74  96 124 162 211 264 311
#     4   9  16  28  50  77 104 133 164 200 243 292
#     4   9  16  27  45  70  98 130 167 199 229 274
#     4   9  16  28  47  72 101 136 175 210 233 264
#     4  10  18  29  47  70  98 133 171 203 231 271
#     4   9  14  26  49  76 105 136 169 200 233 282
#
# _framework density 16.201841999999999
#
# number of rings (size 3 to 8) (size 9 to 14) (size 15 to 20)
#    0.000    2.500    1.667    1.500    0.000    4.667 
#    0.000    0.833    0.000    2.000    0.000    1.167 
#    0.000    0.000    0.000    0.000    0.000    0.000 
#
# Total GULP energy -267592.884494 kJ/mol
# GULP energy per Si atom -5574.851760 kJ/mol
# Density = 1.616497 g / cm^3
# Si number density = 16.201842 Si / 1000 Ang^3
#
#
#
# Elastic Constant Matrix: (Units=GPa)
#
#
# Indices 1 2 3 4 5 6 
#
# 1 40.8482 53.5957 45.2449 0.0000 0.0000 0.0000
# 2 53.5957 90.4659 79.0867 0.0000 0.0000 0.0000
# 3 45.2449 79.0867 112.5611 0.0000 0.0000 0.0000
# 4 0.0000 0.0000 0.0000 15.8438 0.0000 0.0000
# 5 0.0000 0.0000 0.0000 0.0000 5.9921 0.0000
# 6 0.0000 0.0000 0.0000 0.0000 0.0000 21.1549
#
#
#
# Elastic Compliance Matrix: (Units=1/GPa)
#
#
# Indices 1 2 3 4 5 6 
#
# 1 0.110666 -0.069149 0.004102 0.000000 0.000000 0.000000
# 2 -0.069149 0.071861 -0.022696 0.000000 0.000000 0.000000
# 3 0.004102 -0.022696 0.023182 0.000000 0.000000 0.000000
# 4 0.000000 0.000000 0.000000 0.063116 0.000000 0.000000
# 5 0.000000 0.000000 0.000000 0.000000 0.166887 0.000000
# 6 0.000000 0.000000 0.000000 0.000000 0.000000 0.047270
#
#
# Mechanical properties :
#
#
# Convention : Reuss Voigt Hill
#
# Bulk Modulus (GPa) = 33.08707 66.63665 49.86186
# Shear Modulus (GPa) = 7.47895 12.99467 10.23681
#
# Velocity S-wave (km/s) = 2.15084 2.83512 2.51635
# Velocity P-wave (km/s) = 5.16084 7.20663 6.26777
#
# Compressibility (1/GPa) = 0.03022328
#
# Stress axis : x y z
#
# Youngs Moduli (GPa) = 9.03619 13.91566 43.13745
#
# Poissons Ratio (x) = 0.96225 -0.17693
# Poissons Ratio (y) = 0.62484 0.97904
# Poissons Ratio (z) = -0.03706 0.31583
#
# Static dielectric constant tensor:
#      x y z
#    x 1.541100 0.000000 0.000000 
#    y 0.000000 1.529160 0.000000 
#    z 0.000000 0.000000 1.559250 
# 
# From -- ./inp_files/59977.got.cif
#   From: 2010.05.17/outbox.cif.g08.bks.cpg/sg63_30_cif.got.tgz:59977.got - 2010.06.03 15:47:04.
