data_PCOD9468118
_publ_section_title
;
Structure prediction by ZEFSAII (Michael W. Deem and Ramdas Pophale) SiO2 
 PCOD9468118
Probable space group: C M C M
;
_chemical_formula_sum "Si O2"
_cell_formula_units_Z 112
_cell_length_a 29.253085
_cell_length_b 28.225299
_cell_length_c 7.512872
_cell_angle_alpha 90.000000
_cell_angle_beta 90.000000
_cell_angle_gamma 90.000000
_cell_volume 6203.206146
_symmetry_space_group_name_H-M "C M C M"
_symmetry_group_IT_number 63
_symmetry_cell_setting 'orthorhombic'
loop_
_space_group_symop_operation_xyz
x,y,z
-x,-y,1/2+z
x,-y,-z
-x,y,1/2-z
-x,-y,-z
x,y,1/2-z
-x,y,z
x,-y,1/2+z
1/2+x,1/2+y,z
1/2-x,1/2-y,1/2+z
1/2+x,1/2-y,-z
1/2-x,1/2+y,1/2-z
1/2-x,1/2-y,-z
1/2+x,1/2+y,1/2-z
1/2-x,1/2+y,z
1/2+x,1/2-y,1/2+z
loop_
_atom_site_type_symbol
_atom_site_label
_atom_site_fract_x
_atom_site_fract_y
_atom_site_fract_z
Si Si1 0.212496 0.851649 0.032163
Si Si2 0.949615 0.619638 0.037443
Si Si3 0.240461 0.446878 0.462755
Si Si4 0.636622 0.713789 0.545627
Si Si5 0.806579 0.304659 0.465541
Si Si6 0.351681 0.902673 0.462406
Si Si7 0.948263 0.728219 0.032636
O O1 0.211122 0.851465 0.250000
O O2 0.227178 0.904177 0.973101
O O3 0.164748 0.830175 0.967196
O O4 0.254848 0.817441 0.982673
O O5 0.952575 0.622718 0.250000
O O6 0.941425 0.673736 0.971986
O O7 0.000000 0.604119 0.972460
O O8 0.904696 0.588920 0.001321
O O9 0.255342 0.500000 0.500000
O O10 0.239241 0.441817 0.250000
O O11 0.188508 0.437162 0.529511
O O12 0.625708 0.701425 0.750000
O O13 0.672546 0.757234 0.543139
O O14 0.590652 0.736248 0.465860
O O15 0.808404 0.301353 0.250000
O O16 0.836971 0.349925 0.523108
O O17 0.348085 0.902167 0.250000
O O18 0.945348 0.727301 0.250000
O O19 0.000000 0.741922 0.985930
#
# Coordination Sequence:
#
# PCOD9468118 Si02
#       7
#    16  16  16  16  16  16  16
#     4   8  16  28  41  59  82 106 132 162 201 242
#     4   9  16  26  40  59  83 108 138 177 206 228
#     4   9  18  33  48  62  81 103 130 169 211 251
#     4  10  16  24  41  59  79 112 142 161 189 234
#     4   9  16  26  37  54  84 112 131 161 197 229
#     4   9  17  28  42  59  81 108 135 165 206 248
#     4   8  14  23  35  55  83 111 139 170 196 217
#
# _framework density 18.05518
#
# number of rings (size 3 to 8) (size 9 to 14) (size 15 to 20)
#    0.000    3.143    1.429    3.000    0.000    0.857 
#    0.000    2.857    0.000    0.857    0.000    0.000 
#    0.000    0.571    0.000    0.429    0.000    0.857 
#
# Total GULP energy -311996.976323 kJ/mol
# GULP energy per Si atom -5571.374577 kJ/mol
# Density = 1.801409 g / cm^3
# Si number density = 18.055180 Si / 1000 Ang^3
#
#
#
# Elastic Constant Matrix: (Units=GPa)
#
#
# Indices 1 2 3 4 5 6 
#
# 1 45.1115 24.0379 -2.4748 0.0000 0.0000 0.0000
# 2 24.0379 62.1053 -3.0021 0.0000 0.0000 0.0000
# 3 -2.4748 -3.0021 46.4224 0.0000 0.0000 0.0000
# 4 0.0000 0.0000 0.0000 -283.4503 0.0000 0.0000
# 5 0.0000 0.0000 0.0000 0.0000 3.9036 0.0000
# 6 0.0000 0.0000 0.0000 0.0000 0.0000 13.8198
#
#
#
# Elastic Compliance Matrix: (Units=1/GPa)
#
#
# Indices 1 2 3 4 5 6 
#
# 1 0.027956 -0.010782 0.000793 0.000000 0.000000 0.000000
# 2 -0.010782 0.020311 0.000739 0.000000 0.000000 0.000000
# 3 0.000793 0.000739 0.021631 0.000000 0.000000 0.000000
# 4 0.000000 0.000000 0.000000 -0.003528 0.000000 0.000000
# 5 0.000000 0.000000 0.000000 0.000000 0.256171 0.000000
# 6 0.000000 0.000000 0.000000 0.000000 0.000000 0.072360
#
#
# Mechanical properties :
#
#
# Convention : Reuss Voigt Hill
#
# Bulk Modulus (GPa) = 19.45623 21.19569 20.32596
# Shear Modulus (GPa) = 11.61348 -44.14016 -16.26334
#
# Velocity S-wave (km/s) = 2.53893 -4.94979 -3.00452
# Velocity P-wave (km/s) = 4.40389 4.57191 0.86836
#
# Compressibility (1/GPa) = 0.05139742
#
# Stress axis : x y z
#
# Youngs Moduli (GPa) = 35.77042 49.23540 46.22910
#
# Poissons Ratio (x) = 0.53086 -0.03666
# Poissons Ratio (y) = 0.38568 -0.03415
# Poissons Ratio (z) = -0.02837 -0.03637
#
# Static dielectric constant tensor:
#      x y z
#    x 1.667870 0.000000 0.000000 
#    y 0.000000 1.616210 0.000000 
#    z 0.000000 0.000000 1.700260 
# 
# From -- ./inp_files/25199.got.cif
#   From: 2010.05.17/outbox.cif.g08.bks.cpg/sg63_13_cif.got.tgz:25199.got - 2010.06.03 15:47:04.
