data_PCOD9468165
_publ_section_title
;
Structure prediction by ZEFSAII (Michael W. Deem and Ramdas Pophale) SiO2 
 PCOD9468165
Probable space group: C M C M
;
_chemical_formula_sum "Si O2"
_cell_formula_units_Z 56
_cell_length_a 18.092089
_cell_length_b 15.792536
_cell_length_c 9.637689
_cell_angle_alpha 90.000000
_cell_angle_beta 90.000000
_cell_angle_gamma 90.000000
_cell_volume 2753.680182
_symmetry_space_group_name_H-M "C M C M"
_symmetry_group_IT_number 63
_symmetry_cell_setting 'orthorhombic'
loop_
_space_group_symop_operation_xyz
x,y,z
-x,-y,1/2+z
x,-y,-z
-x,y,1/2-z
-x,-y,-z
x,y,1/2-z
-x,y,z
x,-y,1/2+z
1/2+x,1/2+y,z
1/2-x,1/2-y,1/2+z
1/2+x,1/2-y,-z
1/2-x,1/2+y,1/2-z
1/2-x,1/2-y,-z
1/2+x,1/2+y,1/2-z
1/2-x,1/2+y,z
1/2+x,1/2-y,1/2+z
loop_
_atom_site_type_symbol
_atom_site_label
_atom_site_fract_x
_atom_site_fract_y
_atom_site_fract_z
Si Si1 0.753785 0.920808 0.750000
Si Si2 0.151553 0.000000 0.000000
Si Si3 0.195368 0.401363 0.250000
Si Si4 0.127908 0.111886 0.750000
Si Si5 0.419195 0.100459 0.974155
Si Si6 0.621026 0.806925 0.750000
O O1 0.708781 0.833518 0.750000
O O2 0.800046 0.941484 0.608227
O O3 0.693150 0.995990 0.750000
O O4 0.109168 0.059963 0.890360
O O5 0.281837 0.383223 0.250000
O O6 0.149746 0.371563 0.381642
O O7 0.103860 0.207967 0.750000
O O8 0.500000 0.115891 0.910483
O O9 0.413043 0.149890 0.116101
O O10 0.413848 0.000000 0.000000
#
# Coordination Sequence:
#
# PCOD9468165 Si02
#       6
#     8   8   8   8  16   8
#     4  10  16  28  49  70 107 145 180 221 265 311
#     4   8  18  34  48  70 108 148 182 222 278 336
#     4  10  19  33  51  74 108 155 184 220 264 334
#     4  10  22  34  56  80 107 153 186 231 289 324
#     4  11  21  34  53  79 115 156 187 216 269 333
#     4  12  21  33  53  84 112 145 193 232 266 331
#
# _framework density 20.336421000000001
#
# number of rings (size 3 to 8) (size 9 to 14) (size 15 to 20)
#    0.000    2.000    2.857    4.286    2.000    6.857 
#    0.000    1.429    0.000    0.000    0.000    4.000 
#    0.000    0.000    0.000    0.000    0.000    0.000 
#
# Total GULP energy -156095.239709 kJ/mol
# GULP energy per Si atom -5574.829990 kJ/mol
# Density = 2.029013 g / cm^3
# Si number density = 20.336421 Si / 1000 Ang^3
#
#
#
# Elastic Constant Matrix: (Units=GPa)
#
#
# Indices 1 2 3 4 5 6 
#
# 1 17.9859 -3.0840 5.9808 0.0000 0.0000 0.0000
# 2 -3.0840 120.6785 54.7204 0.0000 0.0000 0.0000
# 3 5.9808 54.7204 154.8345 0.0000 0.0000 0.0000
# 4 0.0000 0.0000 0.0000 20.1886 0.0000 0.0000
# 5 0.0000 0.0000 0.0000 0.0000 -35.5242 0.0000
# 6 0.0000 0.0000 0.0000 0.0000 0.0000 -3.2393
#
#
#
# Elastic Compliance Matrix: (Units=1/GPa)
#
#
# Indices 1 2 3 4 5 6 
#
# 1 0.057181 0.002933 -0.003245 0.000000 0.000000 0.000000
# 2 0.002933 0.010018 -0.003654 0.000000 0.000000 0.000000
# 3 -0.003245 -0.003654 0.007875 0.000000 0.000000 0.000000
# 4 0.000000 0.000000 0.000000 0.049533 0.000000 0.000000
# 5 0.000000 0.000000 0.000000 0.000000 -0.028150 0.000000
# 6 0.000000 0.000000 0.000000 0.000000 0.000000 -0.308710
#
#
# Mechanical properties :
#
#
# Convention : Reuss Voigt Hill
#
# Bulk Modulus (GPa) = 14.89379 45.41481 30.15430
# Shear Modulus (GPa) = -27.48164 12.01048 -7.73558
#
# Velocity S-wave (km/s) = -3.68006 2.43284 -1.95245
# Velocity P-wave (km/s) = 3.27376 5.50199 3.12685
#
# Compressibility (1/GPa) = 0.06714209
#
# Stress axis : x y z
#
# Youngs Moduli (GPa) = 17.48825 99.81805 126.98130
#
# Poissons Ratio (x) = -0.29275 0.41209
# Poissons Ratio (y) = -0.05129 0.46397
# Poissons Ratio (z) = 0.05675 0.36472
#
# Static dielectric constant tensor:
#      x y z
#    x 1.741780 0.000000 0.000000 
#    y 0.000000 1.719800 0.000000 
#    z 0.000000 0.000000 1.669940 
# 
# From -- ./inp_files/7459.got.cif
#   From: 2010.05.17/outbox.cif.g08.bks.cpg/sg63_4_cif.got.tgz:7459.got - 2010.06.03 15:47:04.
