data_PCOD9468441
_publ_section_title
;
Structure prediction by ZEFSAII (Michael W. Deem and Ramdas Pophale) SiO2 
 PCOD9468441
Probable space group: C M C M
;
_chemical_formula_sum "Si O2"
_cell_formula_units_Z 84
_cell_length_a 11.357283
_cell_length_b 14.845338
_cell_length_c 24.972460
_cell_angle_alpha 90.000000
_cell_angle_beta 90.000000
_cell_angle_gamma 90.000000
_cell_volume 4210.424304
_symmetry_space_group_name_H-M "C M C M"
_symmetry_group_IT_number 63
_symmetry_cell_setting 'orthorhombic'
loop_
_space_group_symop_operation_xyz
x,y,z
-x,-y,1/2+z
x,-y,-z
-x,y,1/2-z
-x,-y,-z
x,y,1/2-z
-x,y,z
x,-y,1/2+z
1/2+x,1/2+y,z
1/2-x,1/2-y,1/2+z
1/2+x,1/2-y,-z
1/2-x,1/2+y,1/2-z
1/2-x,1/2-y,-z
1/2+x,1/2+y,1/2-z
1/2-x,1/2+y,z
1/2+x,1/2-y,1/2+z
loop_
_atom_site_type_symbol
_atom_site_label
_atom_site_fract_x
_atom_site_fract_y
_atom_site_fract_z
Si Si1 0.000000 0.571582 0.250000
Si Si2 0.716640 0.208654 0.942544
Si Si3 0.000000 0.433031 0.864053
Si Si4 0.246745 0.673997 0.250000
Si Si5 0.500000 0.923736 0.454984
Si Si6 0.263589 0.626263 0.367864
Si Si7 0.140066 0.931056 0.370582
Si Si8 0.641295 0.632304 0.750000
O O1 0.000000 0.521845 0.305474
O O2 0.116267 0.631400 0.250000
O O3 0.611527 0.140696 0.955160
O O4 0.688740 0.293867 0.904606
O O5 0.808856 0.148300 0.908045
O O6 0.750000 0.250000 0.000000
O O7 0.880273 0.375333 0.870424
O O8 0.000000 0.516234 0.902634
O O9 0.301514 0.642820 0.306118
O O10 0.222554 0.779754 0.250000
O O11 0.500000 0.000000 0.500000
O O12 0.305080 0.527563 0.385558
O O13 0.165454 0.915900 0.306890
O O14 0.000000 0.933699 0.376518
O O15 0.500000 0.653904 0.750000
#
# Coordination Sequence:
#
# PCOD9468441 Si02
#       8
#     4  16   8   8   8  16  16   8
#     4   8  18  28  60 100 124 162 216 264 330 378
#     4  12  28  44  70  98 129 179 229 281 342 402
#     4  10  20  40  68  93 131 171 218 278 325 397
#     4  10  17  33  65  95 132 168 218 270 322 402
#     4  12  26  50  70  93 130 174 232 288 338 393
#     4  11  23  42  65 100 135 173 223 273 339 392
#     4  11  25  43  69  99 139 178 224 278 339 411
#     4  10  19  38  65 102 134 177 225 269 339 406
#
# _framework density 19.950482999999998
#
# number of rings (size 3 to 8) (size 9 to 14) (size 15 to 20)
#    0.000    1.143    4.286    1.714    4.000    0.000 
#    0.000    1.905    0.000    0.000    0.000    0.000 
#    0.000    0.000    0.000    0.000    0.000    0.000 
#
# Total GULP energy -234427.333984 kJ/mol
# GULP energy per Si atom -5581.603190 kJ/mol
# Density = 1.990508 g / cm^3
# Si number density = 19.950483 Si / 1000 Ang^3
#
#
#
# Elastic Constant Matrix: (Units=GPa)
#
#
# Indices 1 2 3 4 5 6 
#
# 1 63.8577 28.5603 38.6166 0.0000 0.0000 0.0000
# 2 28.5603 138.9901 76.6135 0.0000 0.0000 0.0000
# 3 38.6166 76.6135 154.2314 0.0000 0.0000 0.0000
# 4 0.0000 0.0000 0.0000 43.6050 0.0000 0.0000
# 5 0.0000 0.0000 0.0000 0.0000 2.1593 0.0000
# 6 0.0000 0.0000 0.0000 0.0000 0.0000 44.5218
#
#
#
# Elastic Compliance Matrix: (Units=1/GPa)
#
#
# Indices 1 2 3 4 5 6 
#
# 1 0.018756 -0.001743 -0.003830 0.000000 0.000000 0.000000
# 2 -0.001743 0.010069 -0.004566 0.000000 0.000000 0.000000
# 3 -0.003830 -0.004566 0.009711 0.000000 0.000000 0.000000
# 4 0.000000 0.000000 0.000000 0.022933 0.000000 0.000000
# 5 0.000000 0.000000 0.000000 0.000000 0.463114 0.000000
# 6 0.000000 0.000000 0.000000 0.000000 0.000000 0.022461
#
#
# Mechanical properties :
#
#
# Convention : Reuss Voigt Hill
#
# Bulk Modulus (GPa) = 54.76890 71.62887 63.19889
# Shear Modulus (GPa) = 8.71981 32.27647 20.49814
#
# Velocity S-wave (km/s) = 2.09290 4.02659 3.20886
# Velocity P-wave (km/s) = 5.77515 7.58941 6.74357
#
# Compressibility (1/GPa) = 0.01825854
#
# Stress axis : x y z
#
# Youngs Moduli (GPa) = 53.31754 99.30992 102.97828
#
# Poissons Ratio (x) = 0.17306 0.39445
# Poissons Ratio (y) = 0.09291 0.47016
# Poissons Ratio (z) = 0.20423 0.45341
#
# Static dielectric constant tensor:
#      x y z
#    x 1.777060 0.000000 0.000000 
#    y 0.000000 1.704790 0.000000 
#    z 0.000000 0.000000 1.728080 
# 
# From -- ./inp_files/61317.got.cif
#   From: 2010.05.17/outbox.cif.g08.bks.cpg/sg63_31_cif.got.tgz:61317.got - 2010.06.03 15:47:04.
