data_PCOD9468183
_publ_section_title
;
Structure prediction by ZEFSAII (Michael W. Deem and Ramdas Pophale) SiO2 
 PCOD9468183
Probable space group: C M C M
;
_chemical_formula_sum "Si O2"
_cell_formula_units_Z 72
_cell_length_a 24.364811
_cell_length_b 9.198433
_cell_length_c 16.686857
_cell_angle_alpha 90.000000
_cell_angle_beta 90.000000
_cell_angle_gamma 90.000000
_cell_volume 3739.826378
_symmetry_space_group_name_H-M "C M C M"
_symmetry_group_IT_number 63
_symmetry_cell_setting 'orthorhombic'
loop_
_space_group_symop_operation_xyz
x,y,z
-x,-y,1/2+z
x,-y,-z
-x,y,1/2-z
-x,-y,-z
x,y,1/2-z
-x,y,z
x,-y,1/2+z
1/2+x,1/2+y,z
1/2-x,1/2-y,1/2+z
1/2+x,1/2-y,-z
1/2-x,1/2+y,1/2-z
1/2-x,1/2-y,-z
1/2+x,1/2+y,1/2-z
1/2-x,1/2+y,z
1/2+x,1/2-y,1/2+z
loop_
_atom_site_type_symbol
_atom_site_label
_atom_site_fract_x
_atom_site_fract_y
_atom_site_fract_z
Si Si1 0.731857 0.000000 0.500000
Si Si2 0.651637 0.833463 0.895047
Si Si3 0.063210 0.677497 0.510329
Si Si4 0.636905 0.837340 0.339704
Si Si5 0.239212 0.874197 0.162729
O O1 0.690660 0.127618 0.471688
O O2 0.764352 0.035028 0.580560
O O3 0.596767 0.768141 0.932983
O O4 0.688038 0.732501 0.840173
O O5 0.639903 0.987167 0.852617
O O6 0.064825 0.500000 0.500000
O O7 0.096781 0.716613 0.590613
O O8 0.000000 0.721282 0.513596
O O9 0.617584 0.803683 0.250000
O O10 0.701330 0.795149 0.345149
O O11 0.240820 0.949794 0.250000
#
# Coordination Sequence:
#
# PCOD9468183 Si02
#       5
#     8  16  16  16  16
#     4  10  18  30  45  68  97 124 150 192 240 280
#     4  10  16  30  44  65  94 124 150 189 228 277
#     4   9  16  27  42  61  88 123 155 181 222 274
#     4   9  17  28  41  65  94 119 151 189 230 274
#     4  10  19  29  47  69  93 125 156 191 239 283
#
# _framework density 19.252231999999999
#
# number of rings (size 3 to 8) (size 9 to 14) (size 15 to 20)
#    0.000    2.444    5.556    1.333    0.000    1.333 
#    0.000    0.000    0.000    2.000    0.000    0.778 
#    0.000    0.000    0.000    0.000    0.000    0.000 
#
# Total GULP energy -200457.460750 kJ/mol
# GULP energy per Si atom -5568.262799 kJ/mol
# Density = 1.920841 g / cm^3
# Si number density = 19.252232 Si / 1000 Ang^3
#
#
#
# Elastic Constant Matrix: (Units=GPa)
#
#
# Indices 1 2 3 4 5 6 
#
# 1 125.0779 13.5981 46.8058 0.0000 0.0000 0.0000
# 2 13.5981 4.9116 12.8866 0.0000 0.0000 0.0000
# 3 46.8058 12.8866 133.1236 0.0000 0.0000 0.0000
# 4 0.0000 0.0000 0.0000 18.8386 0.0000 0.0000
# 5 0.0000 0.0000 0.0000 0.0000 15.3791 0.0000
# 6 0.0000 0.0000 0.0000 0.0000 0.0000 15.1983
#
#
#
# Elastic Compliance Matrix: (Units=1/GPa)
#
#
# Indices 1 2 3 4 5 6 
#
# 1 0.011603 -0.028713 -0.001300 0.000000 0.000000 0.000000
# 2 -0.028713 0.343969 -0.023202 0.000000 0.000000 0.000000
# 3 -0.001300 -0.023202 0.010215 0.000000 0.000000 0.000000
# 4 0.000000 0.000000 0.000000 0.053083 0.000000 0.000000
# 5 0.000000 0.000000 0.000000 0.000000 0.065023 0.000000
# 6 0.000000 0.000000 0.000000 0.000000 0.000000 0.065797
#
#
# Mechanical properties :
#
#
# Convention : Reuss Voigt Hill
#
# Bulk Modulus (GPa) = 3.85568 45.52155 24.68861
# Shear Modulus (GPa) = 6.73336 22.53805 14.63570
#
# Velocity S-wave (km/s) = 1.87217 3.42522 2.76018
# Velocity P-wave (km/s) = 2.58466 6.27208 4.79684
#
# Compressibility (1/GPa) = 0.25935783
#
# Stress axis : x y z
#
# Youngs Moduli (GPa) = 86.18366 2.90724 97.89622
#
# Poissons Ratio (x) = 0.08348 0.12728
# Poissons Ratio (y) = 2.47458 2.27134
# Poissons Ratio (z) = 0.11205 0.06745
#
# Static dielectric constant tensor:
#      x y z
#    x 1.690490 0.000000 0.000000 
#    y 0.000000 1.733740 0.000000 
#    z 0.000000 0.000000 1.723290 
# 
# From -- ./inp_files/36388.got.cif
#   From: 2010.05.17/outbox.cif.g08.bks.cpg/sg63_19_cif.got.tgz:36388.got - 2010.06.03 15:47:04.
