data_PCOD9468214
_publ_section_title
;
Structure prediction by ZEFSAII (Michael W. Deem and Ramdas Pophale) SiO2 
 PCOD9468214
Probable space group: C M C M
;
_chemical_formula_sum "Si O2"
_cell_formula_units_Z 84
_cell_length_a 11.905711
_cell_length_b 14.492567
_cell_length_c 21.182169
_cell_angle_alpha 90.000000
_cell_angle_beta 90.000000
_cell_angle_gamma 90.000000
_cell_volume 3654.862827
_symmetry_space_group_name_H-M "C M C M"
_symmetry_group_IT_number 63
_symmetry_cell_setting 'orthorhombic'
loop_
_space_group_symop_operation_xyz
x,y,z
-x,-y,1/2+z
x,-y,-z
-x,y,1/2-z
-x,-y,-z
x,y,1/2-z
-x,y,z
x,-y,1/2+z
1/2+x,1/2+y,z
1/2-x,1/2-y,1/2+z
1/2+x,1/2-y,-z
1/2-x,1/2+y,1/2-z
1/2-x,1/2-y,-z
1/2+x,1/2+y,1/2-z
1/2-x,1/2+y,z
1/2+x,1/2-y,1/2+z
loop_
_atom_site_type_symbol
_atom_site_label
_atom_site_fract_x
_atom_site_fract_y
_atom_site_fract_z
Si Si1 0.864919 0.140623 0.116957
Si Si2 0.792232 0.208909 0.250000
Si Si3 0.365761 0.566594 0.891604
Si Si4 0.500000 0.901073 0.961370
Si Si5 0.633868 0.628224 0.750000
Si Si6 0.179212 0.670274 0.547348
Si Si7 0.000000 0.550619 0.877675
Si Si8 0.500000 0.148596 0.750000
O O1 0.808769 0.153271 0.185525
O O2 0.837542 0.039204 0.091744
O O3 0.833607 0.226244 0.072507
O O4 0.000000 0.144670 0.126397
O O5 0.679138 0.267799 0.250000
O O6 0.892073 0.285205 0.250000
O O7 0.500000 0.578527 0.895410
O O8 0.331080 0.584981 0.817994
O O9 0.303486 0.634029 0.940047
O O10 0.500000 0.942242 0.891891
O O11 0.388954 0.846609 0.982528
O O12 0.500000 0.000000 0.000000
O O13 0.500000 0.622702 0.750000
O O14 0.107184 0.602964 0.592912
O O15 0.000000 0.580347 0.807347
#
# Coordination Sequence:
#
# PCOD9468214 Si02
#       8
#    16   8  16   8   8  16   8   4
#     4  11  18  30  52  82 107 143 193 246 287 330
#     4  12  17  29  53  77 109 146 191 240 284 336
#     4  10  21  31  50  80 113 148 192 241 293 346
#     4   8  18  32  60  82 108 151 188 231 296 338
#     4  10  19  32  43  67 115 157 184 225 300 358
#     4  10  16  34  54  79 110 151 192 235 275 339
#     4  10  18  32  60  90 114 143 186 237 294 336
#     4  12  16  26  56 100 104 126 188 252 266 328
#
# _framework density 22.983077999999999
#
# number of rings (size 3 to 8) (size 9 to 14) (size 15 to 20)
#    0.000    1.905    6.667    0.571    0.000    1.524 
#    0.000    0.000    8.381   15.429    2.476    0.000 
#    0.000    0.000    0.000    0.000    0.000    0.000 
#
# Total GULP energy -234754.478001 kJ/mol
# GULP energy per Si atom -5589.392333 kJ/mol
# Density = 2.293077 g / cm^3
# Si number density = 22.983078 Si / 1000 Ang^3
#
#
#
# Elastic Constant Matrix: (Units=GPa)
#
#
# Indices 1 2 3 4 5 6 
#
# 1 54.0795 31.7989 20.9621 0.0000 0.0000 0.0000
# 2 31.7989 84.3012 23.8231 0.0000 0.0000 0.0000
# 3 20.9621 23.8231 61.7447 0.0000 0.0000 0.0000
# 4 0.0000 0.0000 0.0000 35.2705 0.0000 0.0000
# 5 0.0000 0.0000 0.0000 0.0000 6.8976 0.0000
# 6 0.0000 0.0000 0.0000 0.0000 0.0000 42.1927
#
#
#
# Elastic Compliance Matrix: (Units=1/GPa)
#
#
# Indices 1 2 3 4 5 6 
#
# 1 0.025331 -0.007997 -0.005514 0.000000 0.000000 0.000000
# 2 -0.007997 0.015838 -0.003396 0.000000 0.000000 0.000000
# 3 -0.005514 -0.003396 0.019378 0.000000 0.000000 0.000000
# 4 0.000000 0.000000 0.000000 0.028352 0.000000 0.000000
# 5 0.000000 0.000000 0.000000 0.000000 0.144979 0.000000
# 6 0.000000 0.000000 0.000000 0.000000 0.000000 0.023701
#
#
# Mechanical properties :
#
#
# Convention : Reuss Voigt Hill
#
# Bulk Modulus (GPa) = 37.40679 39.25483 38.33081
# Shear Modulus (GPa) = 16.64978 25.10824 20.87901
#
# Velocity S-wave (km/s) = 2.69446 3.30883 3.01732
# Velocity P-wave (km/s) = 5.09816 5.63159 5.37150
#
# Compressibility (1/GPa) = 0.02673311
#
# Stress axis : x y z
#
# Youngs Moduli (GPa) = 39.47769 63.13807 51.60441
#
# Poissons Ratio (x) = 0.50489 0.28457
# Poissons Ratio (y) = 0.31569 0.17526
# Poissons Ratio (z) = 0.21770 0.21442
#
# Static dielectric constant tensor:
#      x y z
#    x 1.892280 0.000000 0.000000 
#    y 0.000000 1.819410 0.000000 
#    z 0.000000 0.000000 1.967690 
# 
# From -- ./inp_files/61328.got.cif
#   From: 2010.05.17/outbox.cif.g08.bks.cpg/sg63_31_cif.got.tgz:61328.got - 2010.06.03 15:47:04.
