data_PCOD9468002
_publ_section_title
;
Structure prediction by ZEFSAII (Michael W. Deem and Ramdas Pophale) SiO2 
 PCOD9468002
Probable space group: P N M A
;
_chemical_formula_sum "Si O2"
_cell_formula_units_Z 48
_cell_length_a 18.000000
_cell_length_b 9.000000
_cell_length_c 15.000000
_cell_angle_alpha 90.000000
_cell_angle_beta 90.000000
_cell_angle_gamma 90.000000
_cell_volume 2430.000000
_symmetry_space_group_name_H-M "P N M A"
_symmetry_group_IT_number 62
_symmetry_cell_setting 'orthorhombic'
loop_
_space_group_symop_operation_xyz
x,y,z
1/2-x,-y,1/2+z
1/2+x,1/2-y,1/2-z
-x,1/2+y,-z
-x,-y,-z
1/2+x,y,1/2-z
1/2-x,1/2+y,1/2+z
x,1/2-y,z
loop_
_atom_site_type_symbol
_atom_site_label
_atom_site_fract_x
_atom_site_fract_y
_atom_site_fract_z
Si Si1 0.706836 0.926043 0.595108
Si Si2 0.377952 0.925100 0.095423
Si Si3 0.086011 0.424476 0.233348
Si Si4 0.132957 0.926037 0.409932
Si Si5 0.075679 0.572620 0.774579
Si Si6 0.201135 0.920976 0.110162
O O1 0.723622 0.750000 0.609349
O O2 0.642878 0.975819 0.662184
O O3 0.679924 0.939468 0.493288
O O4 0.782361 0.017492 0.603984
O O5 0.392184 0.750000 0.088342
O O6 0.289482 0.946174 0.112984
O O7 0.417915 0.996068 0.179264
O O8 0.395061 0.002816 0.001943
O O9 0.090444 0.250000 0.253224
O O10 0.089556 0.514101 0.324966
O O11 0.154305 0.472891 0.172438
O O12 0.006555 0.455546 0.187733
O O13 0.130574 0.750000 0.415689
O O14 0.083307 0.750000 0.763272
O O15 0.187048 0.750000 0.136969
#
# Coordination Sequence:
#
# PCOD9468002 Si02
#       6
#     8   8   8   8   8   8
#     4   9  19  38  61  83 110 143 182 230 275 318
#     4  10  21  38  60  84 110 142 182 230 279 325
#     4  11  23  37  54  80 115 151 184 222 272 327
#     4  11  22  37  59  84 109 142 185 229 274 327
#     4  10  22  38  56  81 113 149 186 224 271 326
#     4   9  19  36  58  84 111 141 181 227 273 322
#
# _framework density 19.753086
#
# number of rings (size 3 to 8) (size 9 to 14) (size 15 to 20)
#    0.000    2.000    0.000    4.500    0.000    9.333 
#    0.000    0.000    0.000    0.000    0.000    0.000 
#    0.000    0.000    0.000    0.000    0.000    0.000 
#
# Total GULP energy -268141.804242 kJ/mol
# GULP energy per Si atom -5586.287588 kJ/mol
# Density = 1.970813 g / cm^3
# Si number density = 19.753086 Si / 1000 Ang^3
#
#
#
# Elastic Constant Matrix: (Units=GPa)
#
#
# Indices 1 2 3 4 5 6 
#
# 1 -7.0015 10.4515 11.2148 0.0000 0.0000 0.0000
# 2 10.4515 24.2713 5.5610 0.0000 0.0000 0.0000
# 3 11.2148 5.5610 32.1277 0.0000 0.0000 0.0000
# 4 0.0000 0.0000 0.0000 29.9716 0.0000 0.0000
# 5 0.0000 0.0000 0.0000 0.0000 -201.6627 0.0000
# 6 0.0000 0.0000 0.0000 0.0000 0.0000 5.4035
#
#
#
# Elastic Compliance Matrix: (Units=1/GPa)
#
#
# Indices 1 2 3 4 5 6 
#
# 1 -0.071309 0.026036 0.020385 0.000000 0.000000 0.000000
# 2 0.026036 0.033396 -0.014869 0.000000 0.000000 0.000000
# 3 0.020385 -0.014869 0.026584 0.000000 0.000000 0.000000
# 4 0.000000 0.000000 0.000000 0.033365 0.000000 0.000000
# 5 0.000000 0.000000 0.000000 0.000000 -0.004959 0.000000
# 6 0.000000 0.000000 0.000000 0.000000 0.000000 0.185066
#
#
# Mechanical properties :
#
#
# Convention : Reuss Voigt Hill
#
# Bulk Modulus (GPa) = 19.31415 11.53913 15.42664
# Shear Modulus (GPa) = 31.99025 -31.77952 0.10536
#
# Velocity S-wave (km/s) = 4.02867 -4.01538 0.23121
# Velocity P-wave (km/s) = 5.60708 3.95517 2.81033
#
# Compressibility (1/GPa) = 0.05177550
#
# Stress axis : x y z
#
# Youngs Moduli (GPa) = -14.02350 29.94343 37.61727
#
# Poissons Ratio (x) = -0.77960 -0.76684
# Poissons Ratio (y) = 0.36511 0.55933
# Poissons Ratio (z) = 0.28587 0.44523
#
# Static dielectric constant tensor:
#      x y z
#    x 1.718890 0.000000 0.000000 
#    y 0.000000 1.657360 0.000000 
#    z 0.000000 0.000000 1.672040 
# 
# From -- ./inp_files/19549.got.cif
#   From: 2010.05.17/outbox.ucp.g08.bks.cvg/sg62_10_cif.got.tgz:19549.got - 2010.06.11 16:29:25.
