data_PCOD9468655
_publ_section_title
;
Structure prediction by ZEFSAII (Michael W. Deem and Ramdas Pophale) SiO2 
 PCOD9468655
Probable space group: C M C M
;
_chemical_formula_sum "Si O2"
_cell_formula_units_Z 80
_cell_length_a 7.771297
_cell_length_b 21.390606
_cell_length_c 25.716125
_cell_angle_alpha 90.000000
_cell_angle_beta 90.000000
_cell_angle_gamma 90.000000
_cell_volume 4274.862236
_symmetry_space_group_name_H-M "C M C M"
_symmetry_group_IT_number 63
_symmetry_cell_setting 'orthorhombic'
loop_
_space_group_symop_operation_xyz
x,y,z
-x,-y,1/2+z
x,-y,-z
-x,y,1/2-z
-x,-y,-z
x,y,1/2-z
-x,y,z
x,-y,1/2+z
1/2+x,1/2+y,z
1/2-x,1/2-y,1/2+z
1/2+x,1/2-y,-z
1/2-x,1/2+y,1/2-z
1/2-x,1/2-y,-z
1/2+x,1/2+y,1/2-z
1/2-x,1/2+y,z
1/2+x,1/2-y,1/2+z
loop_
_atom_site_type_symbol
_atom_site_label
_atom_site_fract_x
_atom_site_fract_y
_atom_site_fract_z
Si Si1 0.800520 0.353634 0.750000
Si Si2 0.795366 0.009091 0.863456
Si Si3 0.707236 0.815055 0.973176
Si Si4 0.790483 0.998393 0.750000
Si Si5 0.702604 0.939081 0.028725
Si Si6 0.708186 0.861797 0.863035
O O1 0.789501 0.429190 0.750000
O O2 0.725328 0.337721 0.693154
O O3 0.000000 0.333539 0.750000
O O4 0.751650 0.935375 0.869841
O O5 0.000000 0.014999 0.866519
O O6 0.740474 0.028069 0.805038
O O7 0.719655 0.049097 0.910163
O O8 0.500000 0.818260 0.971091
O O9 0.768830 0.824671 0.913823
O O10 0.750000 0.750000 0.000000
O O11 0.772989 0.874054 0.006896
O O12 0.000000 0.991453 0.750000
O O13 0.500000 0.938101 0.015788
O O14 0.778798 0.000000 0.000000
O O15 0.500000 0.858594 0.860829
#
# Coordination Sequence:
#
# PCOD9468655 Si02
#       6
#     8  16  16   8  16  16
#     4   8  14  24  46  71  90 119 163 199 231 287
#     4  10  18  28  47  74 101 128 162 203 244 291
#     4  10  21  35  51  70  99 133 163 201 246 292
#     4   8  16  28  40  65 104 131 149 193 255 291
#     4  10  19  34  52  70  98 132 164 200 244 288
#     4   9  16  30  48  70  98 128 159 198 245 290
#
# _framework density 18.714053
#
# number of rings (size 3 to 8) (size 9 to 14) (size 15 to 20)
#    0.000    2.600    2.000    0.600    0.000    2.800 
#    0.000    0.000    0.000    1.200    0.000    5.600 
#    0.000    0.000    0.000    0.000    0.000    0.000 
#
# Total GULP energy -222812.152203 kJ/mol
# GULP energy per Si atom -5570.303805 kJ/mol
# Density = 1.867146 g / cm^3
# Si number density = 18.714053 Si / 1000 Ang^3
#
#
#
# Elastic Constant Matrix: (Units=GPa)
#
#
# Indices 1 2 3 4 5 6 
#
# 1 24.9819 6.2433 0.1677 0.0000 0.0000 0.0000
# 2 6.2433 96.9120 85.9306 0.0000 0.0000 0.0000
# 3 0.1677 85.9306 184.3703 0.0000 0.0000 0.0000
# 4 0.0000 0.0000 0.0000 19.1896 0.0000 0.0000
# 5 0.0000 0.0000 0.0000 0.0000 12.6109 0.0000
# 6 0.0000 0.0000 0.0000 0.0000 0.0000 18.0409
#
#
#
# Elastic Compliance Matrix: (Units=1/GPa)
#
#
# Indices 1 2 3 4 5 6 
#
# 1 0.041130 -0.004459 0.002041 0.000000 0.000000 0.000000
# 2 -0.004459 0.018070 -0.008418 0.000000 0.000000 0.000000
# 3 0.002041 -0.008418 0.009345 0.000000 0.000000 0.000000
# 4 0.000000 0.000000 0.000000 0.052112 0.000000 0.000000
# 5 0.000000 0.000000 0.000000 0.000000 0.079296 0.000000
# 6 0.000000 0.000000 0.000000 0.000000 0.000000 0.055430
#
#
# Mechanical properties :
#
#
# Convention : Reuss Voigt Hill
#
# Bulk Modulus (GPa) = 21.33448 54.54970 37.94209
# Shear Modulus (GPa) = 17.08354 24.22979 20.65667
#
# Velocity S-wave (km/s) = 3.02466 3.60215 3.32596
# Velocity P-wave (km/s) = 4.86035 6.82004 5.92183
#
# Compressibility (1/GPa) = 0.04687249
#
# Stress axis : x y z
#
# Youngs Moduli (GPa) = 24.31331 55.34035 107.00439
#
# Poissons Ratio (x) = 0.24678 -0.21840
# Poissons Ratio (y) = 0.10842 0.90076
# Poissons Ratio (z) = -0.04962 0.46585
#
# Static dielectric constant tensor:
#      x y z
#    x 1.712610 0.000000 0.000000 
#    y 0.000000 1.601000 0.000000 
#    z 0.000000 0.000000 1.725980 
# 
# From -- ./inp_files/59770.got.cif
#   From: 2010.05.17/outbox.cif.g08.bks.cpg/sg63_30_cif.got.tgz:59770.got - 2010.06.03 15:47:04.
