data_PCOD9468242
_publ_section_title
;
Structure prediction by ZEFSAII (Michael W. Deem and Ramdas Pophale) SiO2 
 PCOD9468242
Probable space group: C M C M
;
_chemical_formula_sum "Si O2"
_cell_formula_units_Z 88
_cell_length_a 20.602064
_cell_length_b 24.711282
_cell_length_c 8.383827
_cell_angle_alpha 90.000000
_cell_angle_beta 90.000000
_cell_angle_gamma 90.000000
_cell_volume 4268.234942
_symmetry_space_group_name_H-M "C M C M"
_symmetry_group_IT_number 63
_symmetry_cell_setting 'orthorhombic'
loop_
_space_group_symop_operation_xyz
x,y,z
-x,-y,1/2+z
x,-y,-z
-x,y,1/2-z
-x,-y,-z
x,y,1/2-z
-x,y,z
x,-y,1/2+z
1/2+x,1/2+y,z
1/2-x,1/2-y,1/2+z
1/2+x,1/2-y,-z
1/2-x,1/2+y,1/2-z
1/2-x,1/2-y,-z
1/2+x,1/2+y,1/2-z
1/2-x,1/2+y,z
1/2+x,1/2-y,1/2+z
loop_
_atom_site_type_symbol
_atom_site_label
_atom_site_fract_x
_atom_site_fract_y
_atom_site_fract_z
Si Si1 0.363040 0.608697 0.055869
Si Si2 0.359566 0.274827 0.937750
Si Si3 0.000000 0.937937 0.439749
Si Si4 0.000000 0.772428 0.432336
Si Si5 0.146655 0.651958 0.560386
Si Si6 0.264614 0.943510 0.561483
Si Si7 0.500000 0.840819 0.062227
O O1 0.365792 0.610282 0.250000
O O2 0.334312 0.667512 0.000547
O O3 0.308879 0.566064 0.001200
O O4 0.434329 0.592195 0.996720
O O5 0.346028 0.272062 0.750000
O O6 0.344596 0.214390 0.001736
O O7 0.435732 0.285221 0.970148
O O8 0.000000 0.938466 0.250000
O O9 0.000000 0.000000 0.500000
O O10 0.000000 0.707613 0.436398
O O11 0.000000 0.792832 0.250000
O O12 0.158646 0.653561 0.750000
O O13 0.192526 0.607990 0.483652
O O14 0.070994 0.633939 0.540931
O O15 0.261063 0.946596 0.750000
O O16 0.291808 0.000000 0.500000
O O17 0.500000 0.820976 0.250000
#
# Coordination Sequence:
#
# PCOD9468242 Si02
#       7
#    16  16   8   8  16  16   8
#     4  10  22  40  61  85 116 154 194 237 287 343
#     4   9  18  34  55  80 114 154 188 223 281 348
#     4  12  25  40  61  89 119 155 202 250 291 333
#     4  10  17  25  44  78 116 148 181 224 268 316
#     4   9  18  35  60  87 116 151 188 227 277 342
#     4  11  24  41  60  82 110 148 193 239 289 344
#     4   8  16  33  56  81 111 149 184 216 269 335
#
# _framework density 20.617421
#
# number of rings (size 3 to 8) (size 9 to 14) (size 15 to 20)
#    0.000    2.182    0.000    4.364    0.000    9.455 
#    0.000    0.455    0.000    0.000    0.000    0.000 
#    0.000    0.000    0.000    0.000    0.000    0.000 
#
# Total GULP energy -245108.873540 kJ/mol
# GULP energy per Si atom -5570.656217 kJ/mol
# Density = 2.057050 g / cm^3
# Si number density = 20.617421 Si / 1000 Ang^3
#
#
#
# Elastic Constant Matrix: (Units=GPa)
#
#
# Indices 1 2 3 4 5 6 
#
# 1 62.6530 53.8127 22.2251 0.0000 0.0000 0.0000
# 2 53.8127 158.7491 20.0247 0.0000 0.0000 0.0000
# 3 22.2251 20.0247 19.2628 0.0000 0.0000 0.0000
# 4 0.0000 0.0000 0.0000 18.6155 0.0000 0.0000
# 5 0.0000 0.0000 0.0000 0.0000 17.8371 0.0000
# 6 0.0000 0.0000 0.0000 0.0000 0.0000 15.0994
#
#
#
# Elastic Compliance Matrix: (Units=1/GPa)
#
#
# Indices 1 2 3 4 5 6 
#
# 1 0.033142 -0.007379 -0.030568 0.000000 0.000000 0.000000
# 2 -0.007379 0.008893 -0.000731 0.000000 0.000000 0.000000
# 3 -0.030568 -0.000731 0.087943 0.000000 0.000000 0.000000
# 4 0.000000 0.000000 0.000000 0.053719 0.000000 0.000000
# 5 0.000000 0.000000 0.000000 0.000000 0.056063 0.000000
# 6 0.000000 0.000000 0.000000 0.000000 0.000000 0.066228
#
#
# Mechanical properties :
#
#
# Convention : Reuss Voigt Hill
#
# Bulk Modulus (GPa) = 19.00365 48.08776 33.54571
# Shear Modulus (GPa) = 12.47247 19.95055 16.21151
#
# Velocity S-wave (km/s) = 2.46224 3.11409 2.80715
# Velocity P-wave (km/s) = 4.16182 6.02533 5.17809
#
# Compressibility (1/GPa) = 0.05262146
#
# Stress axis : x y z
#
# Youngs Moduli (GPa) = 30.17325 112.45236 11.37105
#
# Poissons Ratio (x) = 0.82974 0.34759
# Poissons Ratio (y) = 0.22264 0.00831
# Poissons Ratio (z) = 0.92234 0.08221
#
# Static dielectric constant tensor:
#      x y z
#    x 1.797100 0.000000 0.000000 
#    y 0.000000 1.790630 0.000000 
#    z 0.000000 0.000000 1.703530 
# 
# From -- ./inp_files/8298.got.cif
#   From: 2010.05.17/outbox.cif.g08.bks.cpg/sg63_5_cif.got.tgz:8298.got - 2010.06.03 15:47:04.
