data_PCOD9468406
_publ_section_title
;
Structure prediction by ZEFSAII (Michael W. Deem and Ramdas Pophale) SiO2 
 PCOD9468406
Probable space group: C M C M
;
_chemical_formula_sum "Si O2"
_cell_formula_units_Z 96
_cell_length_a 17.445029
_cell_length_b 23.713069
_cell_length_c 12.556355
_cell_angle_alpha 90.000000
_cell_angle_beta 90.000000
_cell_angle_gamma 90.000000
_cell_volume 5194.252369
_symmetry_space_group_name_H-M "C M C M"
_symmetry_group_IT_number 63
_symmetry_cell_setting 'orthorhombic'
loop_
_space_group_symop_operation_xyz
x,y,z
-x,-y,1/2+z
x,-y,-z
-x,y,1/2-z
-x,-y,-z
x,y,1/2-z
-x,y,z
x,-y,1/2+z
1/2+x,1/2+y,z
1/2-x,1/2-y,1/2+z
1/2+x,1/2-y,-z
1/2-x,1/2+y,1/2-z
1/2-x,1/2-y,-z
1/2+x,1/2+y,1/2-z
1/2-x,1/2+y,z
1/2+x,1/2-y,1/2+z
loop_
_atom_site_type_symbol
_atom_site_label
_atom_site_fract_x
_atom_site_fract_y
_atom_site_fract_z
Si Si1 0.880069 0.524701 0.380863
Si Si2 0.652838 0.845701 0.875565
Si Si3 0.213325 0.031636 0.870610
Si Si4 0.914527 0.062203 0.123756
Si Si5 0.585811 0.272807 0.122408
Si Si6 0.809146 0.143235 0.004215
O O1 0.909233 0.500000 0.500000
O O2 0.905319 0.513911 0.250000
O O3 0.881928 0.592189 0.394816
O O4 0.792135 0.503227 0.379159
O O5 0.669323 0.843615 0.750000
O O6 0.598364 0.793293 0.901830
O O7 0.732829 0.837857 0.936166
O O8 0.204299 0.050373 0.750000
O O9 0.142502 0.990309 0.893830
O O10 0.214769 0.087831 0.938370
O O11 0.920287 0.066633 0.250000
O O12 0.873795 0.118206 0.081842
O O13 0.000000 0.054887 0.078744
O O14 0.591195 0.279607 0.250000
O O15 0.500000 0.290489 0.089750
O O16 0.651129 0.309443 0.066868
#
# Coordination Sequence:
#
# PCOD9468406 Si02
#       6
#    16  16  16  16  16  16
#     4  10  17  31  53  82 111 142 176 223 279 331
#     4  10  20  35  57  79 105 140 183 229 274 331
#     4  10  19  30  46  73 109 140 173 213 265 321
#     4  10  20  31  44  68 105 145 180 212 254 319
#     4  10  23  40  54  74 105 142 185 231 277 329
#     4  12  19  32  53  78 102 134 177 225 274 320
#
# _framework density 18.481967000000001
#
# number of rings (size 3 to 8) (size 9 to 14) (size 15 to 20)
#    0.000    1.667    3.333    2.500    0.000    2.000 
#    0.000    1.667    0.000    1.500    0.000    0.000 
#    0.000    0.000    0.000    0.000    0.000    0.000 
#
# Total GULP energy -267215.084262 kJ/mol
# GULP energy per Si atom -5566.980922 kJ/mol
# Density = 1.843990 g / cm^3
# Si number density = 18.481967 Si / 1000 Ang^3
#
#
#
# Elastic Constant Matrix: (Units=GPa)
#
#
# Indices 1 2 3 4 5 6 
#
# 1 53.3789 2.7622 11.2473 0.0000 0.0000 0.0000
# 2 2.7622 72.5248 16.6582 0.0000 0.0000 0.0000
# 3 11.2473 16.6582 85.1636 0.0000 0.0000 0.0000
# 4 0.0000 0.0000 0.0000 24.5120 0.0000 0.0000
# 5 0.0000 0.0000 0.0000 0.0000 -3.5537 0.0000
# 6 0.0000 0.0000 0.0000 0.0000 0.0000 18.7454
#
#
#
# Elastic Compliance Matrix: (Units=1/GPa)
#
#
# Indices 1 2 3 4 5 6 
#
# 1 0.019272 -0.000156 -0.002515 0.000000 0.000000 0.000000
# 2 -0.000156 0.014438 -0.002803 0.000000 0.000000 0.000000
# 3 -0.002515 -0.002803 0.012623 0.000000 0.000000 0.000000
# 4 0.000000 0.000000 0.000000 0.040796 0.000000 0.000000
# 5 0.000000 0.000000 0.000000 0.000000 -0.281400 0.000000
# 6 0.000000 0.000000 0.000000 0.000000 0.000000 0.053346
#
#
# Mechanical properties :
#
#
# Convention : Reuss Voigt Hill
#
# Bulk Modulus (GPa) = 28.26154 30.26695 29.26424
# Shear Modulus (GPa) = -42.30798 19.96740 -11.17029
#
# Velocity S-wave (km/s) = -4.78970 3.29047 -2.46110
# Velocity P-wave (km/s) = 3.90687 5.55412 2.79147
#
# Compressibility (1/GPa) = 0.03538378
#
# Stress axis : x y z
#
# Youngs Moduli (GPa) = 51.88896 69.26032 79.22317
#
# Poissons Ratio (x) = 0.01083 0.19921
# Poissons Ratio (y) = 0.00812 0.22210
# Poissons Ratio (z) = 0.13048 0.19417
#
# Static dielectric constant tensor:
#      x y z
#    x 1.644290 0.000000 0.000000 
#    y 0.000000 1.620330 0.000000 
#    z 0.000000 0.000000 1.719840 
# 
# From -- ./inp_files/21334.got.cif
#   From: 2010.05.17/outbox.cif.g08.bks.cpg/sg63_11_cif.got.tgz:21334.got - 2010.06.03 15:47:04.
