data_PCOD9468496
_publ_section_title
;
Structure prediction by ZEFSAII (Michael W. Deem and Ramdas Pophale) SiO2 
 PCOD9468496
Probable space group: C M C M
;
_chemical_formula_sum "Si O2"
_cell_formula_units_Z 80
_cell_length_a 30.323398
_cell_length_b 23.543762
_cell_length_c 8.553070
_cell_angle_alpha 90.000000
_cell_angle_beta 90.000000
_cell_angle_gamma 90.000000
_cell_volume 6106.266456
_symmetry_space_group_name_H-M "C M C M"
_symmetry_group_IT_number 63
_symmetry_cell_setting 'orthorhombic'
loop_
_space_group_symop_operation_xyz
x,y,z
-x,-y,1/2+z
x,-y,-z
-x,y,1/2-z
-x,-y,-z
x,y,1/2-z
-x,y,z
x,-y,1/2+z
1/2+x,1/2+y,z
1/2-x,1/2-y,1/2+z
1/2+x,1/2-y,-z
1/2-x,1/2+y,1/2-z
1/2-x,1/2-y,-z
1/2+x,1/2+y,1/2-z
1/2-x,1/2+y,z
1/2+x,1/2-y,1/2+z
loop_
_atom_site_type_symbol
_atom_site_label
_atom_site_fract_x
_atom_site_fract_y
_atom_site_fract_z
Si Si1 0.314290 0.266896 0.063013
Si Si2 0.449647 0.562470 0.438681
Si Si3 0.368029 0.362457 0.562487
Si Si4 0.766687 0.340467 0.934287
Si Si5 0.286650 0.436795 0.065139
O O1 0.307420 0.273002 0.250000
O O2 0.307951 0.200315 0.025096
O O3 0.357484 0.301383 0.013254
O O4 0.275413 0.300452 0.973176
O O5 0.437243 0.500000 0.500000
O O6 0.449135 0.560556 0.250000
O O7 0.500000 0.574161 0.489596
O O8 0.413894 0.608975 0.487859
O O9 0.367301 0.357137 0.750000
O O10 0.328717 0.405170 0.511731
O O11 0.767660 0.352481 0.750000
O O12 0.755932 0.398132 0.024484
O O13 0.293290 0.437820 0.250000
O O14 0.282605 0.500000 0.000000
#
# Coordination Sequence:
#
# PCOD9468496 Si02
#       5
#    16  16  16  16  16
#     4   9  16  25  38  54  71  90 113 144 178 212
#     4   9  18  30  41  53  69  91 119 151 187 223
#     4  10  18  27  40  55  71  91 118 152 185 219
#     4   9  16  26  38  52  70  91 116 144 175 210
#     4  11  20  28  38  52  72  95 120 150 181 214
#
# _framework density 13.101295
#
# number of rings (size 3 to 8) (size 9 to 14) (size 15 to 20)
#    0.000    2.400    0.000    6.600    0.000    5.600 
#    0.000    0.000    0.000    0.000    0.000    0.000 
#    0.000    0.000    0.000    0.000    0.000    1.000 
#
# Total GULP energy -222723.274164 kJ/mol
# GULP energy per Si atom -5568.081854 kJ/mol
# Density = 1.307148 g / cm^3
# Si number density = 13.101295 Si / 1000 Ang^3
#
#
#
# Elastic Constant Matrix: (Units=GPa)
#
#
# Indices 1 2 3 4 5 6 
#
# 1 52.3811 31.5262 6.0362 0.0000 0.0000 0.0000
# 2 31.5262 55.9558 8.5556 0.0000 0.0000 0.0000
# 3 6.0362 8.5556 27.5966 0.0000 0.0000 0.0000
# 4 0.0000 0.0000 0.0000 21.4053 0.0000 0.0000
# 5 0.0000 0.0000 0.0000 0.0000 11.7754 0.0000
# 6 0.0000 0.0000 0.0000 0.0000 0.0000 23.6548
#
#
#
# Elastic Compliance Matrix: (Units=1/GPa)
#
#
# Indices 1 2 3 4 5 6 
#
# 1 0.028933 -0.016097 -0.001338 0.000000 0.000000 0.000000
# 2 -0.016097 0.027716 -0.005072 0.000000 0.000000 0.000000
# 3 -0.001338 -0.005072 0.038101 0.000000 0.000000 0.000000
# 4 0.000000 0.000000 0.000000 0.046718 0.000000 0.000000
# 5 0.000000 0.000000 0.000000 0.000000 0.084923 0.000000
# 6 0.000000 0.000000 0.000000 0.000000 0.000000 0.042275
#
#
# Mechanical properties :
#
#
# Convention : Reuss Voigt Hill
#
# Bulk Modulus (GPa) = 20.10569 25.35216 22.72893
# Shear Modulus (GPa) = 15.13971 17.35479 16.24725
#
# Velocity S-wave (km/s) = 3.40308 3.64354 3.52536
# Velocity P-wave (km/s) = 5.55166 6.09043 5.82728
#
# Compressibility (1/GPa) = 0.04973716
#
# Stress axis : x y z
#
# Youngs Moduli (GPa) = 34.56267 36.08061 26.24572
#
# Poissons Ratio (x) = 0.58077 0.03512
# Poissons Ratio (y) = 0.55634 0.13311
# Poissons Ratio (z) = 0.04625 0.18299
#
# Static dielectric constant tensor:
#      x y z
#    x 1.436580 0.000000 0.000000 
#    y 0.000000 1.446570 0.000000 
#    z 0.000000 0.000000 1.439740 
# 
# From -- ./inp_files/14557.got.cif
#   From: 2010.05.17/outbox.cif.g08.bks.cpg/sg63_8_cif.got.tgz:14557.got - 2010.06.03 15:47:04.
