data_PCOD9468671
_publ_section_title
;
Structure prediction by ZEFSAII (Michael W. Deem and Ramdas Pophale) SiO2 
 PCOD9468671
Probable space group: C M C M
;
_chemical_formula_sum "Si O2"
_cell_formula_units_Z 76
_cell_length_a 9.348924
_cell_length_b 17.577188
_cell_length_c 18.021477
_cell_angle_alpha 90.000000
_cell_angle_beta 90.000000
_cell_angle_gamma 90.000000
_cell_volume 2961.429573
_symmetry_space_group_name_H-M "C M C M"
_symmetry_group_IT_number 63
_symmetry_cell_setting 'orthorhombic'
loop_
_space_group_symop_operation_xyz
x,y,z
-x,-y,1/2+z
x,-y,-z
-x,y,1/2-z
-x,-y,-z
x,y,1/2-z
-x,y,z
x,-y,1/2+z
1/2+x,1/2+y,z
1/2-x,1/2-y,1/2+z
1/2+x,1/2-y,-z
1/2-x,1/2+y,1/2-z
1/2-x,1/2-y,-z
1/2+x,1/2+y,1/2-z
1/2-x,1/2+y,z
1/2+x,1/2-y,1/2+z
loop_
_atom_site_type_symbol
_atom_site_label
_atom_site_fract_x
_atom_site_fract_y
_atom_site_fract_z
Si Si1 0.000000 0.023069 0.089437
Si Si2 0.653523 0.728447 0.250000
Si Si3 0.664575 0.010721 0.397926
Si Si4 0.160073 0.266651 0.885438
Si Si5 0.306896 0.092901 0.750000
Si Si6 0.843453 0.649273 0.958876
Si Si7 0.500000 0.436811 0.250000
O O1 0.174002 0.048304 0.095878
O O2 0.000000 0.979673 0.170002
O O3 0.000000 0.000000 0.000000
O O4 0.500000 0.691371 0.250000
O O5 0.738467 0.704175 0.322047
O O6 0.637251 0.820649 0.250000
O O7 0.500000 0.046991 0.399543
O O8 0.662037 0.960726 0.320723
O O9 0.662648 0.940295 0.455944
O O10 0.217870 0.184766 0.910994
O O11 0.000000 0.262418 0.858574
O O12 0.167249 0.316592 0.959528
O O13 0.140589 0.111582 0.750000
O O14 0.000000 0.674356 0.929169
#
# Coordination Sequence:
#
# PCOD9468671 Si02
#       7
#     8   8  16  16   8  16   4
#     4  10  22  38  58  88 110 138 176 222 282 338
#     4  12  21  29  42  65 100 137 172 217 262 304
#     4  10  19  33  54  78 108 141 172 215 268 325
#     4  10  20  29  44  65  96 137 177 216 247 293
#     4  10  18  28  49  77 108 137 168 206 268 331
#     4   9  18  32  45  68  98 133 174 209 251 299
#     4   8  20  36  56  80 110 136 166 222 270 342
#
# _framework density 25.663283
#
# number of rings (size 3 to 8) (size 9 to 14) (size 15 to 20)
#    0.000    2.105    2.105    1.895    2.947    1.263 
#    0.000    0.000    0.000    1.263    0.000    1.474 
#    0.000    0.000    0.000    0.000    0.000    0.000 
#
# Total GULP energy -211799.495365 kJ/mol
# GULP energy per Si atom -5573.670931 kJ/mol
# Density = 2.560487 g / cm^3
# Si number density = 25.663283 Si / 1000 Ang^3
#
#
#
# Elastic Constant Matrix: (Units=GPa)
#
#
# Indices 1 2 3 4 5 6 
#
# 1 266.0295 25.6023 56.8503 0.0000 0.0000 0.0000
# 2 25.6023 64.0574 25.4741 0.0000 0.0000 0.0000
# 3 56.8503 25.4741 121.4310 0.0000 0.0000 0.0000
# 4 0.0000 0.0000 0.0000 21.0484 0.0000 0.0000
# 5 0.0000 0.0000 0.0000 0.0000 47.7975 0.0000
# 6 0.0000 0.0000 0.0000 0.0000 0.0000 -27.3772
#
#
#
# Elastic Compliance Matrix: (Units=1/GPa)
#
#
# Indices 1 2 3 4 5 6 
#
# 1 0.004233 -0.000986 -0.001775 0.000000 0.000000 0.000000
# 2 -0.000986 0.017262 -0.003160 0.000000 0.000000 0.000000
# 3 -0.001775 -0.003160 0.009729 0.000000 0.000000 0.000000
# 4 0.000000 0.000000 0.000000 0.047509 0.000000 0.000000
# 5 0.000000 0.000000 0.000000 0.000000 0.020922 0.000000
# 6 0.000000 0.000000 0.000000 0.000000 0.000000 -0.036527
#
#
# Mechanical properties :
#
#
# Convention : Reuss Voigt Hill
#
# Bulk Modulus (GPa) = 51.59277 74.15235 62.87256
# Shear Modulus (GPa) = 61.40236 31.19982 46.30109
#
# Velocity S-wave (km/s) = 4.89674 3.49053 4.25217
# Velocity P-wave (km/s) = 7.21929 6.72325 6.97568
#
# Compressibility (1/GPa) = 0.01938256
#
# Stress axis : x y z
#
# Youngs Moduli (GPa) = 236.22837 57.93211 102.78601
#
# Poissons Ratio (x) = 0.05712 0.18245
# Poissons Ratio (y) = 0.23293 0.32476
# Poissons Ratio (z) = 0.41931 0.18304
#
# Static dielectric constant tensor:
#      x y z
#    x 2.052120 0.000000 0.000000 
#    y 0.000000 2.025080 0.000000 
#    z 0.000000 0.000000 2.263950 
# 
# From -- ./inp_files/40663.got.cif
#   From: 2010.05.17/outbox.cif.g08.bks.cpg/sg63_21_cif.got.tgz:40663.got - 2010.06.03 15:47:04.
