data_PCOD9468963
_publ_section_title
;
Structure prediction by ZEFSAII (Michael W. Deem and Ramdas Pophale) SiO2 
 PCOD9468963
Probable space group: C M C M
;
_chemical_formula_sum "Si O2"
_cell_formula_units_Z 96
_cell_length_a 14.022801
_cell_length_b 20.431564
_cell_length_c 18.731549
_cell_angle_alpha 90.000000
_cell_angle_beta 90.000000
_cell_angle_gamma 90.000000
_cell_volume 5366.734072
_symmetry_space_group_name_H-M "C M C M"
_symmetry_group_IT_number 63
_symmetry_cell_setting 'orthorhombic'
loop_
_space_group_symop_operation_xyz
x,y,z
-x,-y,1/2+z
x,-y,-z
-x,y,1/2-z
-x,-y,-z
x,y,1/2-z
-x,y,z
x,-y,1/2+z
1/2+x,1/2+y,z
1/2-x,1/2-y,1/2+z
1/2+x,1/2-y,-z
1/2-x,1/2+y,1/2-z
1/2-x,1/2-y,-z
1/2+x,1/2+y,1/2-z
1/2-x,1/2+y,z
1/2+x,1/2-y,1/2+z
loop_
_atom_site_type_symbol
_atom_site_label
_atom_site_fract_x
_atom_site_fract_y
_atom_site_fract_z
Si Si1 0.894442 0.167383 0.622646
Si Si2 0.240083 0.771153 0.829785
Si Si3 0.262556 0.051358 0.436886
Si Si4 0.611005 0.484700 0.334277
Si Si5 0.608225 0.890030 0.669737
Si Si6 0.317673 0.691347 0.026131
O O1 0.805970 0.207871 0.654628
O O2 0.881190 0.090903 0.640605
O O3 0.892265 0.180988 0.537443
O O4 0.000000 0.186486 0.650575
O O5 0.200288 0.768235 0.750000
O O6 0.317527 0.830105 0.833051
O O7 0.163716 0.787034 0.891920
O O8 0.357027 0.059603 0.389617
O O9 0.235889 0.121941 0.468947
O O10 0.271587 0.000000 0.500000
O O11 0.179284 0.028440 0.382894
O O12 0.634054 0.489494 0.250000
O O13 0.500000 0.503649 0.343575
O O14 0.613629 0.917630 0.750000
O O15 0.500000 0.867778 0.657437
O O16 0.250000 0.750000 0.000000
#
# Coordination Sequence:
#
# PCOD9468963 Si02
#       6
#    16  16  16  16  16  16
#     4  10  18  30  50  76 105 135 170 216 267 314
#     4   9  17  30  51  75 100 130 167 217 269 315
#     4  11  20  33  52  74 104 138 172 212 261 316
#     4  10  21  34  50  77 109 141 180 220 258 309
#     4   9  18  32  50  73  99 128 167 214 264 313
#     4   9  19  34  50  73 103 134 172 210 258 315
#
# _framework density 17.887974
#
# number of rings (size 3 to 8) (size 9 to 14) (size 15 to 20)
#    0.000    2.333    1.667    1.500    0.000    3.667 
#    0.000    0.000    0.000    0.500    0.000    0.000 
#    0.000    2.667    0.000    0.000    0.000    0.000 
#
# Total GULP energy -267314.438953 kJ/mol
# GULP energy per Si atom -5569.050812 kJ/mol
# Density = 1.784726 g / cm^3
# Si number density = 17.887974 Si / 1000 Ang^3
#
#
#
# Elastic Constant Matrix: (Units=GPa)
#
#
# Indices 1 2 3 4 5 6 
#
# 1 23.1495 8.4076 15.6758 0.0000 0.0000 0.0000
# 2 8.4076 78.7094 25.3994 0.0000 0.0000 0.0000
# 3 15.6758 25.3994 102.5256 0.0000 0.0000 0.0000
# 4 0.0000 0.0000 0.0000 12.3955 0.0000 0.0000
# 5 0.0000 0.0000 0.0000 0.0000 18.1907 0.0000
# 6 0.0000 0.0000 0.0000 0.0000 0.0000 2.1409
#
#
#
# Elastic Compliance Matrix: (Units=1/GPa)
#
#
# Indices 1 2 3 4 5 6 
#
# 1 0.048852 -0.003052 -0.006713 0.000000 0.000000 0.000000
# 2 -0.003052 0.014000 -0.003002 0.000000 0.000000 0.000000
# 3 -0.006713 -0.003002 0.011524 0.000000 0.000000 0.000000
# 4 0.000000 0.000000 0.000000 0.080674 0.000000 0.000000
# 5 0.000000 0.000000 0.000000 0.000000 0.054973 0.000000
# 6 0.000000 0.000000 0.000000 0.000000 0.000000 0.467085
#
#
# Mechanical properties :
#
#
# Convention : Reuss Voigt Hill
#
# Bulk Modulus (GPa) = 20.47436 33.70559 27.08998
# Shear Modulus (GPa) = 6.95486 16.87220 11.91353
#
# Velocity S-wave (km/s) = 1.97394 3.07451 2.58351
# Velocity P-wave (km/s) = 4.08240 5.61133 4.90678
#
# Compressibility (1/GPa) = 0.04884157
#
# Stress axis : x y z
#
# Youngs Moduli (GPa) = 20.47010 71.43077 86.77775
#
# Poissons Ratio (x) = 0.21800 0.58256
# Poissons Ratio (y) = 0.06247 0.26047
# Poissons Ratio (z) = 0.13742 0.21441
#
# Static dielectric constant tensor:
#      x y z
#    x 1.592070 0.000000 0.000000 
#    y 0.000000 1.605690 0.000000 
#    z 0.000000 0.000000 1.672890 
# 
# From -- ./inp_files/45729.got.cif
#   From: 2010.05.17/outbox.cif.g08.bks.cpg/sg63_23_cif.got.tgz:45729.got - 2010.06.03 15:47:04.
