data_PCOD9468108
_publ_section_title
;
Structure prediction by ZEFSAII (Michael W. Deem and Ramdas Pophale) SiO2 
 PCOD9468108
Probable space group: C M C M
;
_chemical_formula_sum "Si O2"
_cell_formula_units_Z 80
_cell_length_a 7.888063
_cell_length_b 14.494808
_cell_length_c 28.374726
_cell_angle_alpha 90.000000
_cell_angle_beta 90.000000
_cell_angle_gamma 90.000000
_cell_volume 3244.251499
_symmetry_space_group_name_H-M "C M C M"
_symmetry_group_IT_number 63
_symmetry_cell_setting 'orthorhombic'
loop_
_space_group_symop_operation_xyz
x,y,z
-x,-y,1/2+z
x,-y,-z
-x,y,1/2-z
-x,-y,-z
x,y,1/2-z
-x,y,z
x,-y,1/2+z
1/2+x,1/2+y,z
1/2-x,1/2-y,1/2+z
1/2+x,1/2-y,-z
1/2-x,1/2+y,1/2-z
1/2-x,1/2-y,-z
1/2+x,1/2+y,1/2-z
1/2-x,1/2+y,z
1/2+x,1/2-y,1/2+z
loop_
_atom_site_type_symbol
_atom_site_label
_atom_site_fract_x
_atom_site_fract_y
_atom_site_fract_z
Si Si1 0.814456 0.238038 0.052365
Si Si2 0.197003 0.538551 0.052261
Si Si3 0.303958 0.974516 0.750000
Si Si4 0.803737 0.235032 0.250000
Si Si5 0.708579 0.276917 0.849690
Si Si6 0.298056 0.505598 0.350171
O O1 0.815859 0.127274 0.057331
O O2 0.725979 0.265558 0.101410
O O3 0.000000 0.281105 0.052725
O O4 0.750000 0.250000 0.000000
O O5 0.227511 0.475840 0.098552
O O6 0.000000 0.568012 0.053131
O O7 0.228932 0.500000 0.000000
O O8 0.500000 0.947759 0.750000
O O9 0.198334 0.878212 0.750000
O O10 0.267469 0.027186 0.799096
O O11 0.727877 0.262326 0.300223
O O12 0.000000 0.264946 0.250000
O O13 0.500000 0.271767 0.850377
O O14 0.752343 0.385371 0.848873
O O15 0.500000 0.497067 0.350816
#
# Coordination Sequence:
#
# PCOD9468108 Si02
#       6
#    16  16   8   8  16  16
#     4  10  19  31  47  68  95 127 161 195 233 280
#     4  10  20  33  49  71  98 125 156 198 245 290
#     4  10  16  22  36  60  89 118 149 188 235 279
#     4   8  12  22  38  56  81 112 145 182 227 277
#     4   7  12  22  38  59  82 110 144 183 225 270
#     4   9  16  27  42  61  88 121 155 189 230 282
#
# _framework density 24.658999000000001
#
# number of rings (size 3 to 8) (size 9 to 14) (size 15 to 20)
#    0.000    3.000    0.000    5.100    0.000    1.600 
#    0.000    1.000    0.000    0.000    0.000    1.400 
#    0.000    4.800    0.000    0.000    0.000    0.000 
#
# Total GULP energy -222829.775816 kJ/mol
# GULP energy per Si atom -5570.744395 kJ/mol
# Density = 2.460287 g / cm^3
# Si number density = 24.658999 Si / 1000 Ang^3
#
#
#
# Elastic Constant Matrix: (Units=GPa)
#
#
# Indices 1 2 3 4 5 6 
#
# 1 56.4693 -5.2262 28.5942 0.0000 0.0000 0.0000
# 2 -5.2262 64.9708 1.8488 0.0000 0.0000 0.0000
# 3 28.5942 1.8488 336.0230 0.0000 0.0000 0.0000
# 4 0.0000 0.0000 0.0000 5.8610 0.0000 0.0000
# 5 0.0000 0.0000 0.0000 0.0000 31.4220 0.0000
# 6 0.0000 0.0000 0.0000 0.0000 0.0000 3.8532
#
#
#
# Elastic Compliance Matrix: (Units=1/GPa)
#
#
# Indices 1 2 3 4 5 6 
#
# 1 0.018660 0.001546 -0.001596 0.000000 0.000000 0.000000
# 2 0.001546 0.015522 -0.000217 0.000000 0.000000 0.000000
# 3 -0.001596 -0.000217 0.003113 0.000000 0.000000 0.000000
# 4 0.000000 0.000000 0.000000 0.170619 0.000000 0.000000
# 5 0.000000 0.000000 0.000000 0.000000 0.031825 0.000000
# 6 0.000000 0.000000 0.000000 0.000000 0.000000 0.259527
#
#
# Mechanical properties :
#
#
# Convention : Reuss Voigt Hill
#
# Bulk Modulus (GPa) = 27.20246 56.43297 41.81772
# Shear Modulus (GPa) = 9.76459 37.04366 23.40412
#
# Velocity S-wave (km/s) = 1.99210 3.88008 3.08411
# Velocity P-wave (km/s) = 4.04310 6.55807 5.44771
#
# Compressibility (1/GPa) = 0.03676138
#
# Stress axis : x y z
#
# Youngs Moduli (GPa) = 53.58993 64.42430 321.23050
#
# Poissons Ratio (x) = -0.09963 0.51282
# Poissons Ratio (y) = -0.08287 0.06971
# Poissons Ratio (z) = 0.08555 0.01398
#
# Static dielectric constant tensor:
#      x y z
#    x 1.918240 0.000000 0.000000 
#    y 0.000000 2.077360 0.000000 
#    z 0.000000 0.000000 2.129610 
# 
# From -- ./inp_files/59537.got.cif
#   From: 2010.05.17/outbox.cif.g08.bks.cpg/sg63_30_cif.got.tgz:59537.got - 2010.06.03 15:47:04.
