data_PCOD9468053
_publ_section_title
;
Structure prediction by ZEFSAII (Michael W. Deem and Ramdas Pophale) SiO2 
 PCOD9468053
Probable space group: P N M A
;
_chemical_formula_sum "Si O2"
_cell_formula_units_Z 56
_cell_length_a 9.000000
_cell_length_b 21.000000
_cell_length_c 15.000000
_cell_angle_alpha 90.000000
_cell_angle_beta 90.000000
_cell_angle_gamma 90.000000
_cell_volume 2835.000000
_symmetry_space_group_name_H-M "P N M A"
_symmetry_group_IT_number 62
_symmetry_cell_setting 'orthorhombic'
loop_
_space_group_symop_operation_xyz
x,y,z
1/2-x,-y,1/2+z
1/2+x,1/2-y,1/2-z
-x,1/2+y,-z
-x,-y,-z
1/2+x,y,1/2-z
1/2-x,1/2+y,1/2+z
x,1/2-y,z
loop_
_atom_site_type_symbol
_atom_site_label
_atom_site_fract_x
_atom_site_fract_y
_atom_site_fract_z
Si Si1 0.902143 0.418345 0.574023
Si Si2 0.367906 0.250000 0.375024
Si Si3 0.792006 0.474396 0.750149
Si Si4 0.694148 0.250000 0.298469
Si Si5 0.044295 0.941119 0.732872
Si Si6 0.267577 0.534543 0.044746
Si Si7 0.940314 0.116836 0.079140
Si Si8 0.783606 0.131707 0.417165
O O1 0.844344 0.424206 0.675629
O O2 0.821756 0.474448 0.515743
O O3 0.859951 0.358000 0.512781
O O4 0.077544 0.429998 0.567218
O O5 0.518169 0.250000 0.315013
O O6 0.233791 0.250000 0.305247
O O7 0.379513 0.312450 0.434429
O O8 0.618724 0.491382 0.741147
O O9 0.811185 0.469326 0.857271
O O10 0.873572 0.540663 0.722333
O O11 0.761511 0.190336 0.350822
O O12 0.071031 0.895335 0.814991
O O13 0.116403 0.915991 0.642633
O O14 0.155008 0.570294 0.980153
O O15 0.115274 0.110235 0.062082
#
# Coordination Sequence:
#
# PCOD9468053 Si02
#       8
#     8   4   8   4   8   8   8   8
#     4  11  22  37  56  83 117 152 190 235 288 348
#     4  10  22  38  58  85 114 153 194 239 288 340
#     4  12  23  36  53  86 118 150 191 231 285 344
#     4  10  22  38  58  85 116 151 196 237 290 340
#     4  12  20  33  56  83 118 150 186 230 280 342
#     4  11  23  37  57  83 116 154 190 235 290 344
#     4  11  23  36  57  84 117 154 193 236 287 344
#     4  11  23  37  56  85 117 155 193 237 286 342
#
# _framework density 19.753086
#
# number of rings (size 3 to 8) (size 9 to 14) (size 15 to 20)
#    0.000    0.857    7.143    0.857    2.000    2.286 
#    0.000    0.000    0.000    0.857    0.000    0.000 
#    0.000    0.000    0.000    0.000    0.000    0.000 
#
# Total GULP energy -312059.451379 kJ/mol
# GULP energy per Si atom -5572.490203 kJ/mol
# Density = 1.970813 g / cm^3
# Si number density = 19.753086 Si / 1000 Ang^3
#
#
#
# Elastic Constant Matrix: (Units=GPa)
#
#
# Indices 1 2 3 4 5 6 
#
# 1 65.3297 20.5467 24.5057 0.0000 0.0000 0.0000
# 2 20.5467 18.5934 12.8450 0.0000 0.0000 0.0000
# 3 24.5057 12.8450 96.1391 0.0000 0.0000 0.0000
# 4 0.0000 0.0000 0.0000 8.7196 0.0000 0.0000
# 5 0.0000 0.0000 0.0000 0.0000 35.7935 0.0000
# 6 0.0000 0.0000 0.0000 0.0000 0.0000 7.7944
#
#
#
# Elastic Compliance Matrix: (Units=1/GPa)
#
#
# Indices 1 2 3 4 5 6 
#
# 1 0.024151 -0.024717 -0.002854 0.000000 0.000000 0.000000
# 2 -0.024717 0.084547 -0.004996 0.000000 0.000000 0.000000
# 3 -0.002854 -0.004996 0.011797 0.000000 0.000000 0.000000
# 4 0.000000 0.000000 0.000000 0.114684 0.000000 0.000000
# 5 0.000000 0.000000 0.000000 0.000000 0.027938 0.000000
# 6 0.000000 0.000000 0.000000 0.000000 0.000000 0.128297
#
#
# Mechanical properties :
#
#
# Convention : Reuss Voigt Hill
#
# Bulk Modulus (GPa) = 18.06299 32.87300 25.46800
# Shear Modulus (GPa) = 10.52631 18.60582 14.56606
#
# Velocity S-wave (km/s) = 2.31095 3.07240 2.71847
# Velocity P-wave (km/s) = 4.03546 5.40965 4.77227
#
# Compressibility (1/GPa) = 0.05536183
#
# Stress axis : x y z
#
# Youngs Moduli (GPa) = 41.40618 11.82774 84.77087
#
# Poissons Ratio (x) = 0.29234 0.24191
# Poissons Ratio (y) = 1.02342 0.42352
# Poissons Ratio (z) = 0.11816 0.05909
#
# Static dielectric constant tensor:
#      x y z
#    x 1.700110 0.000000 0.000000 
#    y 0.000000 1.810050 0.000000 
#    z 0.000000 0.000000 1.691380 
# 
# From -- ./inp_files/17253.got.cif
#   From: 2010.05.17/outbox.ucp.g08.bks.cvg/sg62_9_cif.got.tgz:17253.got - 2010.06.11 16:29:25.
