data_PCOD9468868
_publ_section_title
;
Structure prediction by ZEFSAII (Michael W. Deem and Ramdas Pophale) SiO2 
 PCOD9468868
Probable space group: C M C M
;
_chemical_formula_sum "Si O2"
_cell_formula_units_Z 80
_cell_length_a 7.755270
_cell_length_b 20.964849
_cell_length_c 28.842910
_cell_angle_alpha 90.000000
_cell_angle_beta 90.000000
_cell_angle_gamma 90.000000
_cell_volume 4689.512912
_symmetry_space_group_name_H-M "C M C M"
_symmetry_group_IT_number 63
_symmetry_cell_setting 'orthorhombic'
loop_
_space_group_symop_operation_xyz
x,y,z
-x,-y,1/2+z
x,-y,-z
-x,y,1/2-z
-x,-y,-z
x,y,1/2-z
-x,y,z
x,-y,1/2+z
1/2+x,1/2+y,z
1/2-x,1/2-y,1/2+z
1/2+x,1/2-y,-z
1/2-x,1/2+y,1/2-z
1/2-x,1/2-y,-z
1/2+x,1/2+y,1/2-z
1/2-x,1/2+y,z
1/2+x,1/2-y,1/2+z
loop_
_atom_site_type_symbol
_atom_site_label
_atom_site_fract_x
_atom_site_fract_y
_atom_site_fract_z
Si Si1 0.293489 0.309753 0.532519
Si Si2 0.000000 0.394666 0.303127
Si Si3 0.203454 0.106794 0.874398
Si Si4 0.789664 0.934311 0.476714
Si Si5 0.306972 0.759271 0.630529
Si Si6 0.500000 0.260317 0.697434
O O1 0.500000 0.312967 0.537801
O O2 0.250000 0.250000 0.500000
O O3 0.232923 0.373796 0.507036
O O4 0.215229 0.297142 0.582824
O O5 0.169880 0.412431 0.332718
O O6 0.000000 0.417762 0.250000
O O7 0.000000 0.317173 0.301042
O O8 0.258219 0.075149 0.923003
O O9 0.219196 0.183742 0.880384
O O10 0.000000 0.093592 0.865701
O O11 0.000000 0.933604 0.476980
O O12 0.732249 0.000000 0.500000
O O13 0.500000 0.766338 0.648656
O O14 0.167021 0.779286 0.668131
O O15 0.500000 0.283708 0.750000
#
# Coordination Sequence:
#
# PCOD9468868 Si02
#       6
#    16   8  16  16  16   8
#     4  11  19  29  49  74 102 139 173 209 248 303
#     4   9  18  30  47  71  99 128 165 212 256 305
#     4   9  17  30  48  69  99 135 163 204 255 300
#     4   9  18  32  49  72 105 139 173 208 253 303
#     4  10  18  30  47  73 102 130 170 208 248 306
#     4   9  18  32  48  71 102 132 164 210 265 305
#
# _framework density 17.059341
#
# number of rings (size 3 to 8) (size 9 to 14) (size 15 to 20)
#    0.000    2.400    3.000    0.600    0.000    0.800 
#    1.800    4.500    0.000    0.000    0.000    1.400 
#    0.000    0.000    0.000    0.000    0.000    0.000 
#
# Total GULP energy -223073.330316 kJ/mol
# GULP energy per Si atom -5576.833258 kJ/mol
# Density = 1.702051 g / cm^3
# Si number density = 17.059341 Si / 1000 Ang^3
#
#
#
# Elastic Constant Matrix: (Units=GPa)
#
#
# Indices 1 2 3 4 5 6 
#
# 1 90.0595 24.1271 71.3865 0.0000 0.0000 0.0000
# 2 24.1271 70.8328 47.3624 0.0000 0.0000 0.0000
# 3 71.3865 47.3624 174.6670 0.0000 0.0000 0.0000
# 4 0.0000 0.0000 0.0000 13.3343 0.0000 0.0000
# 5 0.0000 0.0000 0.0000 0.0000 20.8357 0.0000
# 6 0.0000 0.0000 0.0000 0.0000 0.0000 8.4316
#
#
#
# Elastic Compliance Matrix: (Units=1/GPa)
#
#
# Indices 1 2 3 4 5 6 
#
# 1 0.016531 -0.001360 -0.006388 0.000000 0.000000 0.000000
# 2 -0.001360 0.017356 -0.004151 0.000000 0.000000 0.000000
# 3 -0.006388 -0.004151 0.009461 0.000000 0.000000 0.000000
# 4 0.000000 0.000000 0.000000 0.074995 0.000000 0.000000
# 5 0.000000 0.000000 0.000000 0.000000 0.047995 0.000000
# 6 0.000000 0.000000 0.000000 0.000000 0.000000 0.118602
#
#
# Mechanical properties :
#
#
# Convention : Reuss Voigt Hill
#
# Bulk Modulus (GPa) = 51.14354 69.03459 60.08906
# Shear Modulus (GPa) = 15.86027 21.36586 18.61307
#
# Velocity S-wave (km/s) = 3.05243 3.54283 3.30673
# Velocity P-wave (km/s) = 6.51674 7.56906 7.06253
#
# Compressibility (1/GPa) = 0.01955281
#
# Stress axis : x y z
#
# Youngs Moduli (GPa) = 60.49140 57.61643 105.69426
#
# Poissons Ratio (x) = 0.07835 0.67514
# Poissons Ratio (y) = 0.08226 0.43869
# Poissons Ratio (z) = 0.38640 0.23914
#
# Static dielectric constant tensor:
#      x y z
#    x 1.607660 0.000000 0.000000 
#    y 0.000000 1.533900 0.000000 
#    z 0.000000 0.000000 1.554420 
# 
# From -- ./inp_files/66701.got.cif
#   From: 2010.05.17/outbox.cif.g08.bks.cpg/sg63_34_cif.got.tgz:66701.got - 2010.06.03 15:47:04.
