data_PCOD9468569
_publ_section_title
;
Structure prediction by ZEFSAII (Michael W. Deem and Ramdas Pophale) SiO2 
 PCOD9468569
Probable space group: C M C M
;
_chemical_formula_sum "Si O2"
_cell_formula_units_Z 120
_cell_length_a 27.910167
_cell_length_b 29.711940
_cell_length_c 7.474786
_cell_angle_alpha 90.000000
_cell_angle_beta 90.000000
_cell_angle_gamma 90.000000
_cell_volume 6198.579962
_symmetry_space_group_name_H-M "C M C M"
_symmetry_group_IT_number 63
_symmetry_cell_setting 'orthorhombic'
loop_
_space_group_symop_operation_xyz
x,y,z
-x,-y,1/2+z
x,-y,-z
-x,y,1/2-z
-x,-y,-z
x,y,1/2-z
-x,y,z
x,-y,1/2+z
1/2+x,1/2+y,z
1/2-x,1/2-y,1/2+z
1/2+x,1/2-y,-z
1/2-x,1/2+y,1/2-z
1/2-x,1/2-y,-z
1/2+x,1/2+y,1/2-z
1/2-x,1/2+y,z
1/2+x,1/2-y,1/2+z
loop_
_atom_site_type_symbol
_atom_site_label
_atom_site_fract_x
_atom_site_fract_y
_atom_site_fract_z
Si Si1 0.626624 0.122356 0.468263
Si Si2 0.706506 0.052221 0.464949
Si Si3 0.315313 0.551256 0.036143
Si Si4 0.945066 0.696331 0.040918
Si Si5 0.000000 0.053187 0.036085
Si Si6 0.445422 0.699919 0.034343
Si Si7 0.594524 0.606983 0.030598
Si Si8 0.446718 0.951746 0.537219
O O1 0.631088 0.124552 0.250000
O O2 0.673690 0.094222 0.528458
O O3 0.601928 0.169371 0.527601
O O4 0.584904 0.088396 0.526293
O O5 0.706786 0.055380 0.250000
O O6 0.761106 0.056688 0.533149
O O7 0.691024 0.000000 0.500000
O O8 0.312614 0.556989 0.250000
O O9 0.356090 0.584737 0.968989
O O10 0.330492 0.500000 0.000000
O O11 0.948694 0.683695 0.250000
O O12 0.000000 0.688116 0.967508
O O13 0.935705 0.749562 0.028035
O O14 0.951560 0.077728 0.971851
O O15 0.000000 0.058967 0.250000
O O16 0.000000 0.000000 0.000000
O O17 0.444089 0.701267 0.250000
O O18 0.500000 0.688753 0.981297
O O19 0.412511 0.658718 0.975091
O O20 0.594551 0.606224 0.250000
O O21 0.449981 0.946972 0.750000
O O22 0.500000 0.951521 0.460478
O O23 0.424390 0.000000 0.500000
#
# Coordination Sequence:
#
# PCOD9468569 Si02
#       8
#    16  16  16  16   8  16  16  16
#     4   9  16  27  43  60  80 108 140 171 210 256
#     4   9  17  29  45  64  85 112 145 178 210 249
#     4   9  17  29  45  65  88 114 145 176 206 244
#     4   9  17  29  45  64  85 109 139 179 220 257
#     4  10  18  28  42  64  92 120 144 168 203 248
#     4   9  16  29  47  64  83 111 145 176 209 253
#     4   9  16  28  46  64  86 117 146 170 204 253
#     4   9  16  25  37  54  77 105 133 161 198 249
#
# _framework density 19.359272000000001
#
# number of rings (size 3 to 8) (size 9 to 14) (size 15 to 20)
#    0.000    2.933    0.667    1.200    0.000    1.600 
#    0.000    2.667    0.000    4.000    0.000    0.000 
#    0.000    0.000    0.000    0.000    0.000    0.000 
#
# Total GULP energy -334134.002365 kJ/mol
# GULP energy per Si atom -5568.900039 kJ/mol
# Density = 1.931521 g / cm^3
# Si number density = 19.359272 Si / 1000 Ang^3
#
#
#
# Elastic Constant Matrix: (Units=GPa)
#
#
# Indices 1 2 3 4 5 6 
#
# 1 125.4538 82.7936 6.9844 0.0000 0.0000 0.0000
# 2 82.7936 128.5091 -1.5454 0.0000 0.0000 0.0000
# 3 6.9844 -1.5454 52.6868 0.0000 0.0000 0.0000
# 4 0.0000 0.0000 0.0000 18.9343 0.0000 0.0000
# 5 0.0000 0.0000 0.0000 0.0000 191.3343 0.0000
# 6 0.0000 0.0000 0.0000 0.0000 0.0000 31.6476
#
#
#
# Elastic Compliance Matrix: (Units=1/GPa)
#
#
# Indices 1 2 3 4 5 6 
#
# 1 0.014104 -0.009112 -0.002137 0.000000 0.000000 0.000000
# 2 -0.009112 0.013671 0.001609 0.000000 0.000000 0.000000
# 3 -0.002137 0.001609 0.019311 0.000000 0.000000 0.000000
# 4 0.000000 0.000000 0.000000 0.052814 0.000000 0.000000
# 5 0.000000 0.000000 0.000000 0.000000 0.005226 0.000000
# 6 0.000000 0.000000 0.000000 0.000000 0.000000 0.031598
#
#
# Mechanical properties :
#
#
# Convention : Reuss Voigt Hill
#
# Bulk Modulus (GPa) = 35.96413 53.67944 44.82178
# Shear Modulus (GPa) = 30.25298 62.94438 46.59868
#
# Velocity S-wave (km/s) = 3.95740 5.70827 4.91149
# Velocity P-wave (km/s) = 6.28482 8.44003 7.44087
#
# Compressibility (1/GPa) = 0.02780549
#
# Stress axis : x y z
#
# Youngs Moduli (GPa) = 70.90391 73.14487 51.78517
#
# Poissons Ratio (x) = 0.66650 0.11066
# Poissons Ratio (y) = 0.64608 -0.08332
# Poissons Ratio (z) = 0.15152 -0.11769
#
# Static dielectric constant tensor:
#      x y z
#    x 1.701510 0.000000 0.000000 
#    y 0.000000 1.673010 0.000000 
#    z 0.000000 0.000000 1.738010 
# 
# From -- ./inp_files/26163.got.cif
#   From: 2010.05.17/outbox.cif.g08.bks.cpg/sg63_14_cif.got.tgz:26163.got - 2010.06.03 15:47:04.
