data_PCOD9468226
_publ_section_title
;
Structure prediction by ZEFSAII (Michael W. Deem and Ramdas Pophale) SiO2 
 PCOD9468226
Probable space group: C M C M
;
_chemical_formula_sum "Si O2"
_cell_formula_units_Z 96
_cell_length_a 7.343650
_cell_length_b 24.903503
_cell_length_c 27.101182
_cell_angle_alpha 90.000000
_cell_angle_beta 90.000000
_cell_angle_gamma 90.000000
_cell_volume 4956.334893
_symmetry_space_group_name_H-M "C M C M"
_symmetry_group_IT_number 63
_symmetry_cell_setting 'orthorhombic'
loop_
_space_group_symop_operation_xyz
x,y,z
-x,-y,1/2+z
x,-y,-z
-x,y,1/2-z
-x,-y,-z
x,y,1/2-z
-x,y,z
x,-y,1/2+z
1/2+x,1/2+y,z
1/2-x,1/2-y,1/2+z
1/2+x,1/2-y,-z
1/2-x,1/2+y,1/2-z
1/2-x,1/2-y,-z
1/2+x,1/2+y,1/2-z
1/2-x,1/2+y,z
1/2+x,1/2-y,1/2+z
loop_
_atom_site_type_symbol
_atom_site_label
_atom_site_fract_x
_atom_site_fract_y
_atom_site_fract_z
Si Si1 0.280096 0.085243 0.387770
Si Si2 0.222652 0.482409 0.444383
Si Si3 0.782522 0.242472 0.882480
Si Si4 0.216359 0.638754 0.568528
Si Si5 0.277406 0.832218 0.806435
Si Si6 0.220339 0.321595 0.964879
O O1 0.500000 0.082663 0.384390
O O2 0.218821 0.115849 0.338384
O O3 0.238810 0.125756 0.432586
O O4 0.216939 0.026779 0.404597
O O5 0.276263 0.500000 0.500000
O O6 0.283551 0.422330 0.430790
O O7 0.000000 0.482983 0.444585
O O8 0.744280 0.179445 0.886265
O O9 0.719812 0.278825 0.836593
O O10 0.712094 0.271846 0.932292
O O11 0.000000 0.248015 0.882736
O O12 0.290445 0.668322 0.519556
O O13 0.000000 0.634069 0.562000
O O14 0.217515 0.832817 0.750000
O O15 0.500000 0.832437 0.806290
O O16 0.000000 0.316897 0.967365
#
# Coordination Sequence:
#
# PCOD9468226 Si02
#       6
#    16  16  16  16  16  16
#     4   8  12  20  35  57  80  98 127 172 207 227
#     4   9  14  21  35  56  81 109 139 165 191 234
#     4   9  17  27  39  57  81 105 132 167 206 239
#     4  10  17  24  38  59  84 111 138 159 186 238
#     4   8  14  25  42  60  75  96 131 174 213 243
#     4   8  13  22  36  56  80 106 133 163 193 228
#
# _framework density 19.369150000000001
#
# number of rings (size 3 to 8) (size 9 to 14) (size 15 to 20)
#    0.000    3.333    1.667    2.500    0.000    0.000 
#    0.000    0.000    0.000    2.000    0.000    3.500 
#    0.000    0.000    0.000    0.000    0.000    0.000 
#
# Total GULP energy -267517.262117 kJ/mol
# GULP energy per Si atom -5573.276294 kJ/mol
# Density = 1.932507 g / cm^3
# Si number density = 19.369150 Si / 1000 Ang^3
#
#
#
# Elastic Constant Matrix: (Units=GPa)
#
#
# Indices 1 2 3 4 5 6 
#
# 1 72.5893 3.6673 3.1921 0.0000 0.0000 0.0000
# 2 3.6673 176.8920 96.0612 0.0000 0.0000 0.0000
# 3 3.1921 96.0612 129.4492 0.0000 0.0000 0.0000
# 4 0.0000 0.0000 0.0000 10.1016 0.0000 0.0000
# 5 0.0000 0.0000 0.0000 0.0000 -22.1361 0.0000
# 6 0.0000 0.0000 0.0000 0.0000 0.0000 26.8078
#
#
#
# Elastic Compliance Matrix: (Units=1/GPa)
#
#
# Indices 1 2 3 4 5 6 
#
# 1 0.013794 -0.000170 -0.000214 0.000000 0.000000 0.000000
# 2 -0.000170 0.009471 -0.007024 0.000000 0.000000 0.000000
# 3 -0.000214 -0.007024 0.012943 0.000000 0.000000 0.000000
# 4 0.000000 0.000000 0.000000 0.098994 0.000000 0.000000
# 5 0.000000 0.000000 0.000000 0.000000 -0.045175 0.000000
# 6 0.000000 0.000000 0.000000 0.000000 0.000000 0.037303
#
#
# Mechanical properties :
#
#
# Convention : Reuss Voigt Hill
#
# Bulk Modulus (GPa) = 46.74649 64.97464 55.86056
# Shear Modulus (GPa) = 33.49498 21.35533 27.42516
#
# Velocity S-wave (km/s) = 4.16299 3.32406 3.76695
# Velocity P-wave (km/s) = 6.87708 6.95347 6.91538
#
# Compressibility (1/GPa) = 0.02139198
#
# Stress axis : x y z
#
# Youngs Moduli (GPa) = 72.49461 105.58406 77.26333
#
# Poissons Ratio (x) = 0.01791 0.01656
# Poissons Ratio (y) = 0.01230 0.54271
# Poissons Ratio (z) = 0.01553 0.74163
#
# Static dielectric constant tensor:
#      x y z
#    x 1.775960 0.000000 0.000000 
#    y 0.000000 1.706420 0.000000 
#    z 0.000000 0.000000 1.649860 
# 
# From -- ./inp_files/61866.got.cif
#   From: 2010.05.17/outbox.cif.g08.bks.cpg/sg63_31_cif.got.tgz:61866.got - 2010.06.03 15:47:04.
