data_PCOD9468367
_publ_section_title
;
Structure prediction by ZEFSAII (Michael W. Deem and Ramdas Pophale) SiO2 
 PCOD9468367
Probable space group: C M C M
;
_chemical_formula_sum "Si O2"
_cell_formula_units_Z 128
_cell_length_a 24.355017
_cell_length_b 19.365104
_cell_length_c 15.082506
_cell_angle_alpha 90.000000
_cell_angle_beta 90.000000
_cell_angle_gamma 90.000000
_cell_volume 7113.474475
_symmetry_space_group_name_H-M "C M C M"
_symmetry_group_IT_number 63
_symmetry_cell_setting 'orthorhombic'
loop_
_space_group_symop_operation_xyz
x,y,z
-x,-y,1/2+z
x,-y,-z
-x,y,1/2-z
-x,-y,-z
x,y,1/2-z
-x,y,z
x,-y,1/2+z
1/2+x,1/2+y,z
1/2-x,1/2-y,1/2+z
1/2+x,1/2-y,-z
1/2-x,1/2+y,1/2-z
1/2-x,1/2-y,-z
1/2+x,1/2+y,1/2-z
1/2-x,1/2+y,z
1/2+x,1/2-y,1/2+z
loop_
_atom_site_type_symbol
_atom_site_label
_atom_site_fract_x
_atom_site_fract_y
_atom_site_fract_z
Si Si1 0.248071 0.821393 0.857407
Si Si2 0.937664 0.818782 0.358114
Si Si3 0.721431 0.830268 0.358327
Si Si4 0.838645 0.537220 0.594752
Si Si5 0.227491 0.025735 0.398815
Si Si6 0.835185 0.100885 0.852504
Si Si7 0.124538 0.321882 0.642012
Si Si8 0.938647 0.542364 0.145288
O O1 0.247786 0.823856 0.750000
O O2 0.218715 0.750005 0.883070
O O3 0.222569 0.892756 0.890908
O O4 0.312007 0.818838 0.886394
O O5 0.940863 0.820760 0.250000
O O6 0.893663 0.875949 0.389721
O O7 0.910318 0.745495 0.382152
O O8 0.000000 0.826069 0.390652
O O9 0.717451 0.836160 0.250000
O O10 0.678312 0.883013 0.401206
O O11 0.781697 0.858254 0.387319
O O12 0.840944 0.500000 0.500000
O O13 0.786722 0.497944 0.641103
O O14 0.897767 0.521688 0.634716
O O15 0.228120 0.000000 0.500000
O O16 0.179756 0.979524 0.357089
O O17 0.836879 0.122237 0.750000
O O18 0.126156 0.323647 0.750000
O O19 0.093615 0.390511 0.609493
O O20 0.944017 0.554619 0.250000
O O21 0.000000 0.534297 0.108392
#
# Coordination Sequence:
#
# PCOD9468367 Si02
#       8
#    16  16  16  16  16  16  16  16
#     4  10  17  29  51  74  95 126 162 200 247 291
#     4   9  15  24  41  66  95 120 145 186 240 294
#     4   9  17  30  50  72  95 124 162 205 244 288
#     4  10  20  33  46  67  99 131 163 199 248 296
#     4  10  20  32  45  66  97 128 163 198 243 296
#     4   9  16  28  45  67  92 122 156 193 236 284
#     4   9  15  25  41  67  96 119 149 189 237 292
#     4  10  19  30  47  69  93 127 168 206 243 285
#
# _framework density 17.994021
#
# number of rings (size 3 to 8) (size 9 to 14) (size 15 to 20)
#    0.000    2.500    2.500    1.125    0.000    2.750 
#    0.000    6.875    0.000    0.375    0.000    0.875 
#    0.000    3.000    0.000    0.000    0.000    0.000 
#
# Total GULP energy -356620.598254 kJ/mol
# GULP energy per Si atom -5572.196848 kJ/mol
# Density = 1.795307 g / cm^3
# Si number density = 17.994021 Si / 1000 Ang^3
#
#
#
# Elastic Constant Matrix: (Units=GPa)
#
#
# Indices 1 2 3 4 5 6 
#
# 1 105.9890 78.1558 2.4733 0.0000 0.0000 0.0000
# 2 78.1558 164.4720 13.6839 0.0000 0.0000 0.0000
# 3 2.4733 13.6839 25.2610 0.0000 0.0000 0.0000
# 4 0.0000 0.0000 0.0000 14.9050 0.0000 0.0000
# 5 0.0000 0.0000 0.0000 0.0000 5.9309 0.0000
# 6 0.0000 0.0000 0.0000 0.0000 0.0000 8.3362
#
#
#
# Elastic Compliance Matrix: (Units=1/GPa)
#
#
# Indices 1 2 3 4 5 6 
#
# 1 0.014668 -0.007174 0.002450 0.000000 0.000000 0.000000
# 2 -0.007174 0.009876 -0.004647 0.000000 0.000000 0.000000
# 3 0.002450 -0.004647 0.041864 0.000000 0.000000 0.000000
# 4 0.000000 0.000000 0.000000 0.067092 0.000000 0.000000
# 5 0.000000 0.000000 0.000000 0.000000 0.168608 0.000000
# 6 0.000000 0.000000 0.000000 0.000000 0.000000 0.119959
#
#
# Mechanical properties :
#
#
# Convention : Reuss Voigt Hill
#
# Bulk Modulus (GPa) = 20.97956 53.81646 37.39801
# Shear Modulus (GPa) = 10.94816 19.26168 15.10492
#
# Velocity S-wave (km/s) = 2.46932 3.27532 2.90045
# Velocity P-wave (km/s) = 4.45135 6.65406 5.66088
#
# Compressibility (1/GPa) = 0.04766543
#
# Stress axis : x y z
#
# Youngs Moduli (GPa) = 68.17706 101.25923 23.88667
#
# Poissons Ratio (x) = 0.72641 -0.05852
# Poissons Ratio (y) = 0.48909 0.11101
# Poissons Ratio (z) = -0.16703 0.47058
#
# Static dielectric constant tensor:
#      x y z
#    x 1.637550 0.000000 0.000000 
#    y 0.000000 1.640620 0.000000 
#    z 0.000000 0.000000 1.692460 
# 
# From -- ./inp_files/48413.got.cif
#   From: 2010.05.17/outbox.cif.g08.bks.cpg/sg63_25_cif.got.tgz:48413.got - 2010.06.03 15:47:04.
