data_PCOD9468520
_publ_section_title
;
Structure prediction by ZEFSAII (Michael W. Deem and Ramdas Pophale) SiO2 
 PCOD9468520
Probable space group: C M C M
;
_chemical_formula_sum "Si O2"
_cell_formula_units_Z 96
_cell_length_a 19.135936
_cell_length_b 34.132829
_cell_length_c 7.480149
_cell_angle_alpha 90.000000
_cell_angle_beta 90.000000
_cell_angle_gamma 90.000000
_cell_volume 4885.761283
_symmetry_space_group_name_H-M "C M C M"
_symmetry_group_IT_number 63
_symmetry_cell_setting 'orthorhombic'
loop_
_space_group_symop_operation_xyz
x,y,z
-x,-y,1/2+z
x,-y,-z
-x,y,1/2-z
-x,-y,-z
x,y,1/2-z
-x,y,z
x,-y,1/2+z
1/2+x,1/2+y,z
1/2-x,1/2-y,1/2+z
1/2+x,1/2-y,-z
1/2-x,1/2+y,1/2-z
1/2-x,1/2-y,-z
1/2+x,1/2+y,1/2-z
1/2-x,1/2+y,z
1/2+x,1/2-y,1/2+z
loop_
_atom_site_type_symbol
_atom_site_label
_atom_site_fract_x
_atom_site_fract_y
_atom_site_fract_z
Si Si1 0.160306 0.161718 0.537989
Si Si2 0.781719 0.955283 0.964238
Si Si3 0.800338 0.381876 0.955690
Si Si4 0.080544 0.237554 0.532038
Si Si5 0.077787 0.916271 0.535137
Si Si6 0.419698 0.173972 0.468551
O O1 0.171628 0.164676 0.750000
O O2 0.232607 0.146374 0.457346
O O3 0.131191 0.203045 0.470336
O O4 0.102893 0.127853 0.505763
O O5 0.783759 0.949944 0.750000
O O6 0.727569 0.922745 0.035156
O O7 0.859530 0.944125 0.031123
O O8 0.763909 0.000000 0.000000
O O9 0.819541 0.390123 0.750000
O O10 0.865229 0.358275 0.034906
O O11 0.081291 0.236797 0.750000
O O12 0.099516 0.281665 0.476454
O O13 0.000000 0.230133 0.478761
O O14 0.075274 0.920031 0.750000
O O15 0.000000 0.924103 0.465820
O O16 0.417748 0.174025 0.250000
O O17 0.500000 0.166683 0.520277
#
# Coordination Sequence:
#
# PCOD9468520 Si02
#       6
#    16  16  16  16  16  16
#     4  10  18  27  42  66  95 126 157 184 213 255
#     4   9  18  31  46  65  88 114 144 180 222 267
#     4   9  18  32  48  67  90 114 145 186 226 264
#     4   8  14  24  39  63  93 120 150 189 222 246
#     4   9  18  32  47  64  90 122 154 189 224 253
#     4   8  14  27  48  69  87 113 149 185 222 264
#
# _framework density 19.648934000000001
#
# number of rings (size 3 to 8) (size 9 to 14) (size 15 to 20)
#    0.000    3.167    0.000    3.000    0.000    4.667 
#    0.000    0.000    0.000    2.000    0.000    4.667 
#    0.000    0.000    0.000    0.000    0.000    0.333 
#
# Total GULP energy -267645.409807 kJ/mol
# GULP energy per Si atom -5575.946038 kJ/mol
# Density = 1.960421 g / cm^3
# Si number density = 19.648934 Si / 1000 Ang^3
#
#
#
# Elastic Constant Matrix: (Units=GPa)
#
#
# Indices 1 2 3 4 5 6 
#
# 1 81.8150 99.4067 -6.1028 0.0000 0.0000 0.0000
# 2 99.4067 170.1856 -1.8518 0.0000 0.0000 0.0000
# 3 -6.1028 -1.8518 56.0029 0.0000 0.0000 0.0000
# 4 0.0000 0.0000 0.0000 -5.4365 0.0000 0.0000
# 5 0.0000 0.0000 0.0000 0.0000 3.6881 0.0000
# 6 0.0000 0.0000 0.0000 0.0000 0.0000 -0.3680
#
#
#
# Elastic Compliance Matrix: (Units=1/GPa)
#
#
# Indices 1 2 3 4 5 6 
#
# 1 0.042918 -0.025027 0.003849 0.000000 0.000000 0.000000
# 2 -0.025027 0.020472 -0.002050 0.000000 0.000000 0.000000
# 3 0.003849 -0.002050 0.018208 0.000000 0.000000 0.000000
# 4 0.000000 0.000000 0.000000 -0.183941 0.000000 0.000000
# 5 0.000000 0.000000 0.000000 0.000000 0.271144 0.000000
# 6 0.000000 0.000000 0.000000 0.000000 0.000000 -2.717237
#
#
# Mechanical properties :
#
#
# Convention : Reuss Voigt Hill
#
# Bulk Modulus (GPa) = 28.45585 54.54531 41.50058
# Shear Modulus (GPa) = -2.00782 14.01346 6.00282
#
# Velocity S-wave (km/s) = -1.01196 2.67346 1.74976
# Velocity P-wave (km/s) = 3.62604 6.11147 5.02485
#
# Compressibility (1/GPa) = 0.03514216
#
# Stress axis : x y z
#
# Youngs Moduli (GPa) = 23.30043 48.84743 54.92126
#
# Poissons Ratio (x) = 1.22249 -0.21141
# Poissons Ratio (y) = 0.58313 0.11260
# Poissons Ratio (z) = -0.08969 0.10015
#
# Static dielectric constant tensor:
#      x y z
#    x 1.676600 0.000000 0.000000 
#    y 0.000000 1.683280 0.000000 
#    z 0.000000 0.000000 1.731580 
# 
# From -- ./inp_files/8635.got.cif
#   From: 2010.05.17/outbox.cif.g08.bks.cpg/sg63_5_cif.got.tgz:8635.got - 2010.06.03 15:47:04.
