data_PCOD9468654
_publ_section_title
;
Structure prediction by ZEFSAII (Michael W. Deem and Ramdas Pophale) SiO2 
 PCOD9468654
Probable space group: C M C M
;
_chemical_formula_sum "Si O2"
_cell_formula_units_Z 80
_cell_length_a 21.739139
_cell_length_b 13.161966
_cell_length_c 17.451188
_cell_angle_alpha 90.000000
_cell_angle_beta 90.000000
_cell_angle_gamma 90.000000
_cell_volume 4993.305079
_symmetry_space_group_name_H-M "C M C M"
_symmetry_group_IT_number 63
_symmetry_cell_setting 'orthorhombic'
loop_
_space_group_symop_operation_xyz
x,y,z
-x,-y,1/2+z
x,-y,-z
-x,y,1/2-z
-x,-y,-z
x,y,1/2-z
-x,y,z
x,-y,1/2+z
1/2+x,1/2+y,z
1/2-x,1/2-y,1/2+z
1/2+x,1/2-y,-z
1/2-x,1/2+y,1/2-z
1/2-x,1/2-y,-z
1/2+x,1/2+y,1/2-z
1/2-x,1/2+y,z
1/2+x,1/2-y,1/2+z
loop_
_atom_site_type_symbol
_atom_site_label
_atom_site_fract_x
_atom_site_fract_y
_atom_site_fract_z
Si Si1 0.794236 0.428992 0.339627
Si Si2 0.709619 0.856580 0.587548
Si Si3 0.836295 0.748968 0.931905
Si Si4 0.428088 0.618219 0.521383
Si Si5 0.340922 0.333888 0.336990
O O1 0.802206 0.452809 0.250000
O O2 0.803293 0.527824 0.391705
O O3 0.836558 0.334044 0.364683
O O4 0.723451 0.392702 0.351108
O O5 0.782187 0.829852 0.586290
O O6 0.685019 0.817091 0.505865
O O7 0.677432 0.783362 0.649450
O O8 0.896127 0.810776 0.957188
O O9 0.421779 0.500000 0.500000
O O10 0.500000 0.642129 0.529666
O O11 0.390677 0.636639 0.599752
O O12 0.360698 0.352439 0.250000
#
# Coordination Sequence:
#
# PCOD9468654 Si02
#       5
#    16  16  16  16  16
#     4  10  18  28  47  74 101 127 153 189 243 296
#     4   9  16  28  48  71  97 125 153 189 238 292
#     4   9  18  30  47  70  96 124 158 197 236 279
#     4  10  20  34  51  68  90 125 164 197 232 278
#     4   9  18  30  46  72  99 121 152 196 240 282
#
# _framework density 16.021452
#
# number of rings (size 3 to 8) (size 9 to 14) (size 15 to 20)
#    0.000    2.600    0.000    3.600    0.000    1.200 
#    0.000    1.000    0.000   11.400    0.000    0.000 
#    0.000    0.000    0.000    0.000    0.000    0.000 
#
# Total GULP energy -222900.101199 kJ/mol
# GULP energy per Si atom -5572.502530 kJ/mol
# Density = 1.598499 g / cm^3
# Si number density = 16.021452 Si / 1000 Ang^3
#
#
#
# Elastic Constant Matrix: (Units=GPa)
#
#
# Indices 1 2 3 4 5 6 
#
# 1 84.8747 33.7321 40.6209 0.0000 0.0000 0.0000
# 2 33.7321 76.8058 22.1737 0.0000 0.0000 0.0000
# 3 40.6209 22.1737 56.4658 0.0000 0.0000 0.0000
# 4 0.0000 0.0000 0.0000 19.6352 0.0000 0.0000
# 5 0.0000 0.0000 0.0000 0.0000 15.2640 0.0000
# 6 0.0000 0.0000 0.0000 0.0000 0.0000 18.7201
#
#
#
# Elastic Compliance Matrix: (Units=1/GPa)
#
#
# Indices 1 2 3 4 5 6 
#
# 1 0.019604 -0.005119 -0.012093 0.000000 0.000000 0.000000
# 2 -0.005119 0.016021 -0.002609 0.000000 0.000000 0.000000
# 3 -0.012093 -0.002609 0.027434 0.000000 0.000000 0.000000
# 4 0.000000 0.000000 0.000000 0.050929 0.000000 0.000000
# 5 0.000000 0.000000 0.000000 0.000000 0.065513 0.000000
# 6 0.000000 0.000000 0.000000 0.000000 0.000000 0.053419
#
#
# Mechanical properties :
#
#
# Convention : Reuss Voigt Hill
#
# Bulk Modulus (GPa) = 42.70249 45.68887 44.19568
# Shear Modulus (GPa) = 17.83376 18.83185 18.33280
#
# Velocity S-wave (km/s) = 3.33996 3.43215 3.38637
# Velocity P-wave (km/s) = 6.44864 6.65473 6.55250
#
# Compressibility (1/GPa) = 0.02341784
#
# Stress axis : x y z
#
# Youngs Moduli (GPa) = 51.00993 62.41759 36.45122
#
# Poissons Ratio (x) = 0.31949 0.44080
# Poissons Ratio (y) = 0.26110 0.09511
# Poissons Ratio (z) = 0.61686 0.16285
#
# Static dielectric constant tensor:
#      x y z
#    x 1.510380 0.000000 0.000000 
#    y 0.000000 1.540920 0.000000 
#    z 0.000000 0.000000 1.563460 
# 
# From -- ./inp_files/36473.got.cif
#   From: 2010.05.17/outbox.cif.g08.bks.cpg/sg63_19_cif.got.tgz:36473.got - 2010.06.03 15:47:04.
