data_PCOD9468279
_publ_section_title
;
Structure prediction by ZEFSAII (Michael W. Deem and Ramdas Pophale) SiO2 
 PCOD9468279
Probable space group: C M C M
;
_chemical_formula_sum "Si O2"
_cell_formula_units_Z 96
_cell_length_a 27.087499
_cell_length_b 29.755249
_cell_length_c 8.840416
_cell_angle_alpha 90.000000
_cell_angle_beta 90.000000
_cell_angle_gamma 90.000000
_cell_volume 7125.333547
_symmetry_space_group_name_H-M "C M C M"
_symmetry_group_IT_number 63
_symmetry_cell_setting 'orthorhombic'
loop_
_space_group_symop_operation_xyz
x,y,z
-x,-y,1/2+z
x,-y,-z
-x,y,1/2-z
-x,-y,-z
x,y,1/2-z
-x,y,z
x,-y,1/2+z
1/2+x,1/2+y,z
1/2-x,1/2-y,1/2+z
1/2+x,1/2-y,-z
1/2-x,1/2+y,1/2-z
1/2-x,1/2-y,-z
1/2+x,1/2+y,1/2-z
1/2-x,1/2+y,z
1/2+x,1/2-y,1/2+z
loop_
_atom_site_type_symbol
_atom_site_label
_atom_site_fract_x
_atom_site_fract_y
_atom_site_fract_z
Si Si1 0.354329 0.306798 0.068082
Si Si2 0.260365 0.639842 0.431756
Si Si3 0.296439 0.776437 0.931477
Si Si4 0.556709 0.639167 0.069470
Si Si5 0.096054 0.952145 0.430207
Si Si6 0.213836 0.047732 0.570199
O O1 0.353647 0.311622 0.250000
O O2 0.343077 0.254597 0.027034
O O3 0.309201 0.336172 0.000146
O O4 0.404741 0.326335 0.003379
O O5 0.264930 0.638452 0.250000
O O6 0.213780 0.671835 0.473575
O O7 0.258808 0.589964 0.497066
O O8 0.293134 0.774578 0.750000
O O9 0.250000 0.750000 0.000000
O O10 0.563550 0.638373 0.250000
O O11 0.500000 0.650671 0.035804
O O12 0.568756 0.589838 0.004292
O O13 0.088671 0.952371 0.250000
O O14 0.154908 0.946623 0.459756
O O15 0.080926 0.000000 0.500000
O O16 0.220486 0.047338 0.750000
O O17 0.228535 0.000000 0.500000
#
# Coordination Sequence:
#
# PCOD9468279 Si02
#       6
#    16  16  16  16  16  16
#     4  10  18  30  45  61  81 103 130 165 200 241
#     4  10  17  27  44  63  84 107 129 160 198 238
#     4   8  16  27  41  62  83 103 127 155 194 237
#     4  11  23  35  46  60  78 102 133 169 211 254
#     4  10  20  33  48  61  76  99 130 169 211 252
#     4  10  19  29  42  61  82 107 136 167 201 242
#
# _framework density 13.473053
#
# number of rings (size 3 to 8) (size 9 to 14) (size 15 to 20)
#    0.000    2.167    1.667    2.500    0.000    4.333 
#    0.000    0.000    0.000    0.000    0.000    0.000 
#    0.000    0.000    0.000    0.000    0.000    0.833 
#
# Total GULP energy -267518.767461 kJ/mol
# GULP energy per Si atom -5573.307655 kJ/mol
# Density = 1.344239 g / cm^3
# Si number density = 13.473053 Si / 1000 Ang^3
#
#
#
# Elastic Constant Matrix: (Units=GPa)
#
#
# Indices 1 2 3 4 5 6 
#
# 1 55.3039 58.4184 30.1506 0.0000 0.0000 0.0000
# 2 58.4184 119.5814 45.2865 0.0000 0.0000 0.0000
# 3 30.1506 45.2865 38.6686 0.0000 0.0000 0.0000
# 4 0.0000 0.0000 0.0000 22.0725 0.0000 0.0000
# 5 0.0000 0.0000 0.0000 0.0000 12.3030 0.0000
# 6 0.0000 0.0000 0.0000 0.0000 0.0000 15.8904
#
#
#
# Elastic Compliance Matrix: (Units=1/GPa)
#
#
# Indices 1 2 3 4 5 6 
#
# 1 0.042069 -0.014608 -0.015693 0.000000 0.000000 0.000000
# 2 -0.014608 0.020100 -0.012150 0.000000 0.000000 0.000000
# 3 -0.015693 -0.012150 0.052326 0.000000 0.000000 0.000000
# 4 0.000000 0.000000 0.000000 0.045305 0.000000 0.000000
# 5 0.000000 0.000000 0.000000 0.000000 0.081281 0.000000
# 6 0.000000 0.000000 0.000000 0.000000 0.000000 0.062931
#
#
# Mechanical properties :
#
#
# Convention : Reuss Voigt Hill
#
# Bulk Modulus (GPa) = 33.79251 53.47388 43.63319
# Shear Modulus (GPa) = 12.53823 15.36639 13.95231
#
# Velocity S-wave (km/s) = 3.05391 3.38083 3.22152
# Velocity P-wave (km/s) = 6.12953 7.41726 6.80393
#
# Compressibility (1/GPa) = 0.02959235
#
# Stress axis : x y z
#
# Youngs Moduli (GPa) = 23.77065 49.75026 19.11082
#
# Poissons Ratio (x) = 0.72678 0.29991
# Poissons Ratio (y) = 0.34725 0.23220
# Poissons Ratio (z) = 0.37304 0.60446
#
# Static dielectric constant tensor:
#      x y z
#    x 1.422090 0.000000 0.000000 
#    y 0.000000 1.462030 0.000000 
#    z 0.000000 0.000000 1.448020 
# 
# From -- ./inp_files/10735.got.cif
#   From: 2010.05.17/outbox.cif.g08.bks.cpg/sg63_6_cif.got.tgz:10735.got - 2010.06.03 15:47:04.
