data_PCOD9468222
_publ_section_title
;
Structure prediction by ZEFSAII (Michael W. Deem and Ramdas Pophale) SiO2 
 PCOD9468222
Probable space group: C M C M
;
_chemical_formula_sum "Si O2"
_cell_formula_units_Z 96
_cell_length_a 13.829420
_cell_length_b 13.365587
_cell_length_c 19.819961
_cell_angle_alpha 90.000000
_cell_angle_beta 90.000000
_cell_angle_gamma 90.000000
_cell_volume 3663.488218
_symmetry_space_group_name_H-M "C M C M"
_symmetry_group_IT_number 63
_symmetry_cell_setting 'orthorhombic'
loop_
_space_group_symop_operation_xyz
x,y,z
-x,-y,1/2+z
x,-y,-z
-x,y,1/2-z
-x,-y,-z
x,y,1/2-z
-x,y,z
x,-y,1/2+z
1/2+x,1/2+y,z
1/2-x,1/2-y,1/2+z
1/2+x,1/2-y,-z
1/2-x,1/2+y,1/2-z
1/2-x,1/2-y,-z
1/2+x,1/2+y,1/2-z
1/2-x,1/2+y,z
1/2+x,1/2-y,1/2+z
loop_
_atom_site_type_symbol
_atom_site_label
_atom_site_fract_x
_atom_site_fract_y
_atom_site_fract_z
Si Si1 0.105618 0.215299 0.327747
Si Si2 0.616598 0.014906 0.104184
Si Si3 0.107585 0.160989 0.935646
Si Si4 0.678734 0.804917 0.827804
Si Si5 0.883532 0.337223 0.017122
Si Si6 0.387526 0.524574 0.676234
O O1 0.103027 0.250751 0.250000
O O2 0.106390 0.094434 0.327012
O O3 0.000000 0.243511 0.358133
O O4 0.215350 0.232396 0.350441
O O5 0.500000 0.021300 0.112279
O O6 0.666343 0.075259 0.164330
O O7 0.647684 0.085791 0.041450
O O8 0.636310 0.900025 0.084967
O O9 0.107115 0.246189 0.877165
O O10 0.148438 0.223767 0.999285
O O11 0.153539 0.069716 0.893562
O O12 0.000000 0.128793 0.956515
O O13 0.663110 0.780487 0.750000
O O14 0.000000 0.334511 0.009948
O O15 0.344821 0.551567 0.750000
O O16 0.500000 0.559424 0.677389
#
# Coordination Sequence:
#
# PCOD9468222 Si02
#       6
#    16  16  16  16  16  16
#     4   8  15  27  38  48  67  97 128 148 167 208
#     4   8  13  21  32  48  73 100 120 137 165 213
#     4   9  15  22  36  60  82  93 109 143 184 221
#     4  10  17  22  33  55  77  95 115 145 185 213
#     4   7  11  20  32  47  70  99 122 136 160 206
#     4   8  13  22  36  52  72  96 116 142 183 220
#
# _framework density 26.204533000000001
#
# number of rings (size 3 to 8) (size 9 to 14) (size 15 to 20)
#    0.000    3.667    0.000    4.000    0.000    2.000 
#    0.000    0.000    0.000    1.000    0.000   11.667 
#    0.000    8.000    0.000    0.000    0.000    0.000 
#
# Total GULP energy -267376.554398 kJ/mol
# GULP energy per Si atom -5570.344883 kJ/mol
# Density = 2.614489 g / cm^3
# Si number density = 26.204533 Si / 1000 Ang^3
#
#
#
# Elastic Constant Matrix: (Units=GPa)
#
#
# Indices 1 2 3 4 5 6 
#
# 1 123.9692 -9.9399 13.6712 0.0000 0.0000 0.0000
# 2 -9.9399 52.0923 24.6309 0.0000 0.0000 0.0000
# 3 13.6712 24.6309 51.1198 0.0000 0.0000 0.0000
# 4 0.0000 0.0000 0.0000 28.3488 0.0000 0.0000
# 5 0.0000 0.0000 0.0000 0.0000 15.5697 0.0000
# 6 0.0000 0.0000 0.0000 0.0000 0.0000 -1.1061
#
#
#
# Elastic Compliance Matrix: (Units=1/GPa)
#
#
# Indices 1 2 3 4 5 6 
#
# 1 0.008809 0.003619 -0.004100 0.000000 0.000000 0.000000
# 2 0.003619 0.026348 -0.013663 0.000000 0.000000 0.000000
# 3 -0.004100 -0.013663 0.027241 0.000000 0.000000 0.000000
# 4 0.000000 0.000000 0.000000 0.035275 0.000000 0.000000
# 5 0.000000 0.000000 0.000000 0.000000 0.064227 0.000000
# 6 0.000000 0.000000 0.000000 0.000000 0.000000 -0.904068
#
#
# Mechanical properties :
#
#
# Convention : Reuss Voigt Hill
#
# Bulk Modulus (GPa) = 29.31580 31.54508 30.43044
# Shear Modulus (GPa) = -7.11732 21.81707 7.34987
#
# Velocity S-wave (km/s) = -1.64984 2.88856 1.67657
# Velocity P-wave (km/s) = 2.75360 4.81551 3.92247
#
# Compressibility (1/GPa) = 0.03411130
#
# Stress axis : x y z
#
# Youngs Moduli (GPa) = 113.52251 37.95424 36.70882
#
# Poissons Ratio (x) = -0.13737 0.15049
# Poissons Ratio (y) = -0.41087 0.50155
# Poissons Ratio (z) = 0.46540 0.51856
#
# Static dielectric constant tensor:
#      x y z
#    x 2.120240 0.000000 0.000000 
#    y 0.000000 2.095290 0.000000 
#    z 0.000000 0.000000 2.113070 
# 
# From -- ./inp_files/68545.got.cif
#   From: 2010.05.17/outbox.cif.g08.bks.cpg/sg63_35_cif.got.tgz:68545.got - 2010.06.03 15:47:04.
