data_PCOD9468986
_publ_section_title
;
Structure prediction by ZEFSAII (Michael W. Deem and Ramdas Pophale) SiO2 
 PCOD9468986
Probable space group: C M C M
;
_chemical_formula_sum "Si O2"
_cell_formula_units_Z 96
_cell_length_a 26.094924
_cell_length_b 14.125147
_cell_length_c 14.654375
_cell_angle_alpha 90.000000
_cell_angle_beta 90.000000
_cell_angle_gamma 90.000000
_cell_volume 5401.524040
_symmetry_space_group_name_H-M "C M C M"
_symmetry_group_IT_number 63
_symmetry_cell_setting 'orthorhombic'
loop_
_space_group_symop_operation_xyz
x,y,z
-x,-y,1/2+z
x,-y,-z
-x,y,1/2-z
-x,-y,-z
x,y,1/2-z
-x,y,z
x,-y,1/2+z
1/2+x,1/2+y,z
1/2-x,1/2-y,1/2+z
1/2+x,1/2-y,-z
1/2-x,1/2+y,1/2-z
1/2-x,1/2-y,-z
1/2+x,1/2+y,1/2-z
1/2-x,1/2+y,z
1/2+x,1/2-y,1/2+z
loop_
_atom_site_type_symbol
_atom_site_label
_atom_site_fract_x
_atom_site_fract_y
_atom_site_fract_z
Si Si1 0.389830 0.408727 0.934790
Si Si2 0.217551 0.903547 0.854535
Si Si3 0.278163 0.632551 0.644551
Si Si4 0.804914 0.386942 0.994914
Si Si5 0.061336 0.788626 0.250000
Si Si6 0.061068 0.987369 0.750000
Si Si7 0.879913 0.238565 0.929378
O O1 0.333648 0.373053 0.905448
O O2 0.417621 0.438659 0.841672
O O3 0.386283 0.500000 0.000000
O O4 0.411117 0.325672 0.998677
O O5 0.218046 0.873963 0.750000
O O6 0.267457 0.871410 0.908383
O O7 0.215087 0.018389 0.857650
O O8 0.271238 0.660472 0.750000
O O9 0.228319 0.648684 0.581499
O O10 0.329591 0.679436 0.604760
O O11 0.856651 0.330504 0.977526
O O12 0.812684 0.500000 0.000000
O O13 0.086147 0.744421 0.340309
O O14 0.000000 0.782122 0.250000
O O15 0.075813 0.901256 0.250000
O O16 0.000000 0.982283 0.750000
#
# Coordination Sequence:
#
# PCOD9468986 Si02
#       7
#    16  16  16  16   8   8  16
#     4  12  20  34  56  81 115 153 188 225 279 342
#     4  10  18  30  51  77 115 154 185 223 268 334
#     4  10  18  31  51  80 117 149 181 223 274 335
#     4  10  22  38  52  82 118 153 193 234 279 334
#     4  11  24  40  61  89 115 141 188 245 295 343
#     4  11  24  40  57  83 117 149 186 235 291 347
#     4  12  22  36  59  84 114 154 192 238 282 337
#
# _framework density 17.772762
#
# number of rings (size 3 to 8) (size 9 to 14) (size 15 to 20)
#    0.000    1.167    6.667    1.000    1.167    1.000 
#    1.500    0.000    0.000    0.500    0.000    1.167 
#    0.000    0.000    0.000    0.000    0.000    0.000 
#
# Total GULP energy -268162.547488 kJ/mol
# GULP energy per Si atom -5586.719739 kJ/mol
# Density = 1.773231 g / cm^3
# Si number density = 17.772762 Si / 1000 Ang^3
#
#
#
# Elastic Constant Matrix: (Units=GPa)
#
#
# Indices 1 2 3 4 5 6 
#
# 1 48.3681 14.4718 27.7845 0.0000 0.0000 0.0000
# 2 14.4718 41.5306 17.0822 0.0000 0.0000 0.0000
# 3 27.7845 17.0822 144.2875 0.0000 0.0000 0.0000
# 4 0.0000 0.0000 0.0000 3.4732 0.0000 0.0000
# 5 0.0000 0.0000 0.0000 0.0000 -41.4794 0.0000
# 6 0.0000 0.0000 0.0000 0.0000 0.0000 17.1991
#
#
#
# Elastic Compliance Matrix: (Units=1/GPa)
#
#
# Indices 1 2 3 4 5 6 
#
# 1 0.025092 -0.007102 -0.003991 0.000000 0.000000 0.000000
# 2 -0.007102 0.027321 -0.001867 0.000000 0.000000 0.000000
# 3 -0.003991 -0.001867 0.007920 0.000000 0.000000 0.000000
# 4 0.000000 0.000000 0.000000 0.287920 0.000000 0.000000
# 5 0.000000 0.000000 0.000000 0.000000 -0.024108 0.000000
# 6 0.000000 0.000000 0.000000 0.000000 0.000000 0.058142
#
#
# Mechanical properties :
#
#
# Convention : Reuss Voigt Hill
#
# Bulk Modulus (GPa) = 29.05831 39.20705 34.13268
# Shear Modulus (GPa) = 11.91384 7.49510 9.70447
#
# Velocity S-wave (km/s) = 2.59191 2.05581 2.33926
# Velocity P-wave (km/s) = 5.03415 5.26718 5.15199
#
# Compressibility (1/GPa) = 0.03441356
#
# Stress axis : x y z
#
# Youngs Moduli (GPa) = 39.85279 36.60142 126.25994
#
# Poissons Ratio (x) = 0.25995 0.50391
# Poissons Ratio (y) = 0.28304 0.23572
# Poissons Ratio (z) = 0.15905 0.06833
#
# Static dielectric constant tensor:
#      x y z
#    x 1.578170 0.000000 0.000000 
#    y 0.000000 1.631300 0.000000 
#    z 0.000000 0.000000 1.630660 
# 
# From -- ./inp_files/36802.got.cif
#   From: 2010.05.17/outbox.cif.g08.bks.cpg/sg63_19_cif.got.tgz:36802.got - 2010.06.03 15:47:04.
