data_PCOD9468640
_publ_section_title
;
Structure prediction by ZEFSAII (Michael W. Deem and Ramdas Pophale) SiO2 
 PCOD9468640
Probable space group: C M C M
;
_chemical_formula_sum "Si O2"
_cell_formula_units_Z 80
_cell_length_a 18.398424
_cell_length_b 27.990060
_cell_length_c 7.512908
_cell_angle_alpha 90.000000
_cell_angle_beta 90.000000
_cell_angle_gamma 90.000000
_cell_volume 3868.944709
_symmetry_space_group_name_H-M "C M C M"
_symmetry_group_IT_number 63
_symmetry_cell_setting 'orthorhombic'
loop_
_space_group_symop_operation_xyz
x,y,z
-x,-y,1/2+z
x,-y,-z
-x,y,1/2-z
-x,-y,-z
x,y,1/2-z
-x,y,z
x,-y,1/2+z
1/2+x,1/2+y,z
1/2-x,1/2-y,1/2+z
1/2+x,1/2-y,-z
1/2-x,1/2+y,1/2-z
1/2-x,1/2-y,-z
1/2+x,1/2+y,1/2-z
1/2-x,1/2+y,z
1/2+x,1/2-y,1/2+z
loop_
_atom_site_type_symbol
_atom_site_label
_atom_site_fract_x
_atom_site_fract_y
_atom_site_fract_z
Si Si1 0.283245 0.154138 0.534250
Si Si2 0.263602 0.551829 0.962829
Si Si3 0.580298 0.216035 0.532367
Si Si4 0.119656 0.821370 0.957760
Si Si5 0.078435 0.926856 0.455299
O O1 0.284012 0.155009 0.750000
O O2 0.278907 0.098808 0.474767
O O3 0.353375 0.183018 0.471641
O O4 0.206973 0.177310 0.476758
O O5 0.269332 0.556925 0.750000
O O6 0.346375 0.554134 0.036774
O O7 0.231564 0.500000 0.000000
O O8 0.582898 0.216715 0.750000
O O9 0.500000 0.199289 0.480424
O O10 0.591474 0.270785 0.473690
O O11 0.100419 0.824807 0.750000
O O12 0.088559 0.869354 0.044036
O O13 0.076580 0.942724 0.250000
O O14 0.000000 0.938947 0.536309
#
# Coordination Sequence:
#
# PCOD9468640 Si02
#       5
#    16  16  16  16  16
#     4   9  18  33  50  67  91 123 156 187 223 273
#     4   9  18  31  47  66  86 114 153 193 232 272
#     4   9  17  29  47  71  96 121 152 190 226 263
#     4  10  18  28  46  72  99 125 154 186 219 259
#     4   9  18  32  47  65  94 128 157 185 220 267
#
# _framework density 20.677472999999999
#
# number of rings (size 3 to 8) (size 9 to 14) (size 15 to 20)
#    0.000    2.800    0.000    3.000    0.000    4.800 
#    0.000    1.000    0.000    3.600    0.000    0.000 
#    0.000    0.000    0.000    0.000    0.000    0.400 
#
# Total GULP energy -223256.927115 kJ/mol
# GULP energy per Si atom -5581.423178 kJ/mol
# Density = 2.063041 g / cm^3
# Si number density = 20.677473 Si / 1000 Ang^3
#
#
#
# Elastic Constant Matrix: (Units=GPa)
#
#
# Indices 1 2 3 4 5 6 
#
# 1 82.1509 32.0070 -7.3438 0.0000 0.0000 0.0000
# 2 32.0070 92.3141 -2.5142 0.0000 0.0000 0.0000
# 3 -7.3438 -2.5142 57.5385 0.0000 0.0000 0.0000
# 4 0.0000 0.0000 0.0000 17.6972 0.0000 0.0000
# 5 0.0000 0.0000 0.0000 0.0000 8.2635 0.0000
# 6 0.0000 0.0000 0.0000 0.0000 0.0000 -3.6192
#
#
#
# Elastic Compliance Matrix: (Units=1/GPa)
#
#
# Indices 1 2 3 4 5 6 
#
# 1 0.014220 -0.004887 0.001601 0.000000 0.000000 0.000000
# 2 -0.004887 0.012525 -0.000076 0.000000 0.000000 0.000000
# 3 0.001601 -0.000076 0.017581 0.000000 0.000000 0.000000
# 4 0.000000 0.000000 0.000000 0.056506 0.000000 0.000000
# 5 0.000000 0.000000 0.000000 0.000000 0.121013 0.000000
# 6 0.000000 0.000000 0.000000 0.000000 0.000000 -0.276300
#
#
# Mechanical properties :
#
#
# Convention : Reuss Voigt Hill
#
# Bulk Modulus (GPa) = 26.59438 30.70017 28.64727
# Shear Modulus (GPa) = -142.05258 18.45861 -61.79699
#
# Velocity S-wave (km/s) = -8.29749 2.99104 -5.47275
# Velocity P-wave (km/s) = 8.88304 5.17762 5.10395
#
# Compressibility (1/GPa) = 0.03760194
#
# Stress axis : x y z
#
# Youngs Moduli (GPa) = 70.32465 79.84171 56.88052
#
# Poissons Ratio (x) = 0.39016 -0.09109
# Poissons Ratio (y) = 0.34365 0.00435
# Poissons Ratio (z) = -0.11262 0.00610
#
# Static dielectric constant tensor:
#      x y z
#    x 1.730450 0.000000 0.000000 
#    y 0.000000 1.740410 0.000000 
#    z 0.000000 0.000000 1.765520 
# 
# From -- ./inp_files/6344.got.cif
#   From: 2010.05.17/outbox.cif.g08.bks.cpg/sg63_4_cif.got.tgz:6344.got - 2010.06.03 15:47:04.
