data_PCOD9468171
_publ_section_title
;
Structure prediction by ZEFSAII (Michael W. Deem and Ramdas Pophale) SiO2 
 PCOD9468171
Probable space group: C M C M
;
_chemical_formula_sum "Si O2"
_cell_formula_units_Z 96
_cell_length_a 22.564187
_cell_length_b 12.392535
_cell_length_c 14.222162
_cell_angle_alpha 90.000000
_cell_angle_beta 90.000000
_cell_angle_gamma 90.000000
_cell_volume 3976.907280
_symmetry_space_group_name_H-M "C M C M"
_symmetry_group_IT_number 63
_symmetry_cell_setting 'orthorhombic'
loop_
_space_group_symop_operation_xyz
x,y,z
-x,-y,1/2+z
x,-y,-z
-x,y,1/2-z
-x,-y,-z
x,y,1/2-z
-x,y,z
x,-y,1/2+z
1/2+x,1/2+y,z
1/2-x,1/2-y,1/2+z
1/2+x,1/2-y,-z
1/2-x,1/2+y,1/2-z
1/2-x,1/2-y,-z
1/2+x,1/2+y,1/2-z
1/2-x,1/2+y,z
1/2+x,1/2-y,1/2+z
loop_
_atom_site_type_symbol
_atom_site_label
_atom_site_fract_x
_atom_site_fract_y
_atom_site_fract_z
Si Si1 0.383213 0.058870 0.136294
Si Si2 0.500000 0.437130 0.097809
Si Si3 0.330284 0.689379 0.356600
Si Si4 0.500000 0.803215 0.637206
Si Si5 0.131831 0.037479 0.893206
Si Si6 0.432256 0.168071 0.865129
Si Si7 0.296923 0.758523 0.635339
O O1 0.377326 0.051020 0.250000
O O2 0.442195 0.127342 0.117342
O O3 0.329025 0.131722 0.102469
O O4 0.396126 0.937928 0.103599
O O5 0.500000 0.309082 0.084491
O O6 0.564135 0.460517 0.144490
O O7 0.500000 0.500000 0.000000
O O8 0.330773 0.731138 0.250000
O O9 0.329960 0.560419 0.351626
O O10 0.392759 0.730634 0.396933
O O11 0.270809 0.738267 0.399391
O O12 0.500000 0.779007 0.750000
O O13 0.164672 0.152130 0.886810
O O14 0.127379 0.000000 0.000000
O O15 0.436780 0.166170 0.750000
O O16 0.500000 0.167307 0.898727
O O17 0.295672 0.762569 0.750000
#
# Coordination Sequence:
#
# PCOD9468171 Si02
#       7
#    16   8  16   8  16  16  16
#     4   9  16  28  51  83 114 143 182 236 289 338
#     4  10  22  38  55  82 116 162 201 244 290 332
#     4  10  23  38  59  88 118 151 189 239 295 354
#     4  10  16  28  53  88 115 142 196 248 291 345
#     4  11  24  41  60  83 117 162 202 242 292 348
#     4   9  17  31  52  82 117 147 178 227 292 350
#     4  10  21  37  60  88 116 147 192 247 291 342
#
# _framework density 24.13936
#
# number of rings (size 3 to 8) (size 9 to 14) (size 15 to 20)
#    0.000    2.167    2.500    0.500    3.500    1.333 
#    0.000    0.000    0.000    0.000    0.000    3.500 
#    0.000    0.000    0.000    0.000    0.000    0.000 
#
# Total GULP energy -268276.274709 kJ/mol
# GULP energy per Si atom -5589.089056 kJ/mol
# Density = 2.408442 g / cm^3
# Si number density = 24.139360 Si / 1000 Ang^3
#
#
#
# Elastic Constant Matrix: (Units=GPa)
#
#
# Indices 1 2 3 4 5 6 
#
# 1 172.2175 61.0291 9.6912 0.0000 0.0000 0.0000
# 2 61.0291 130.1448 8.6500 0.0000 0.0000 0.0000
# 3 9.6912 8.6500 64.7769 0.0000 0.0000 0.0000
# 4 0.0000 0.0000 0.0000 26.3836 0.0000 0.0000
# 5 0.0000 0.0000 0.0000 0.0000 -47.1261 0.0000
# 6 0.0000 0.0000 0.0000 0.0000 0.0000 25.8459
#
#
#
# Elastic Compliance Matrix: (Units=1/GPa)
#
#
# Indices 1 2 3 4 5 6 
#
# 1 0.006988 -0.003236 -0.000613 0.000000 0.000000 0.000000
# 2 -0.003236 0.009251 -0.000751 0.000000 0.000000 0.000000
# 3 -0.000613 -0.000751 0.015630 0.000000 0.000000 0.000000
# 4 0.000000 0.000000 0.000000 0.037902 0.000000 0.000000
# 5 0.000000 0.000000 0.000000 0.000000 -0.021220 0.000000
# 6 0.000000 0.000000 0.000000 0.000000 0.000000 0.038691
#
#
# Mechanical properties :
#
#
# Convention : Reuss Voigt Hill
#
# Bulk Modulus (GPa) = 44.11601 58.43110 51.27355
# Shear Modulus (GPa) = 48.07725 20.20528 34.14127
#
# Velocity S-wave (km/s) = 4.46764 2.89628 3.76485
# Velocity P-wave (km/s) = 6.70285 5.95339 6.33921
#
# Compressibility (1/GPa) = 0.02266751
#
# Stress axis : x y z
#
# Youngs Moduli (GPa) = 143.10447 108.09430 63.98089
#
# Poissons Ratio (x) = 0.34980 0.03924
# Poissons Ratio (y) = 0.46310 0.04806
# Poissons Ratio (z) = 0.08777 0.08120
#
# Static dielectric constant tensor:
#      x y z
#    x 1.916070 0.000000 0.000000 
#    y 0.000000 1.855530 0.000000 
#    z 0.000000 0.000000 1.974690 
# 
# From -- ./inp_files/56595.got.cif
#   From: 2010.05.17/outbox.cif.g08.bks.cpg/sg63_29_cif.got.tgz:56595.got - 2010.06.03 15:47:04.
