data_PCOD9468875
_publ_section_title
;
Structure prediction by ZEFSAII (Michael W. Deem and Ramdas Pophale) SiO2 
 PCOD9468875
Probable space group: C M C M
;
_chemical_formula_sum "Si O2"
_cell_formula_units_Z 128
_cell_length_a 23.360295
_cell_length_b 12.039675
_cell_length_c 27.612539
_cell_angle_alpha 90.000000
_cell_angle_beta 90.000000
_cell_angle_gamma 90.000000
_cell_volume 7766.036526
_symmetry_space_group_name_H-M "C M C M"
_symmetry_group_IT_number 63
_symmetry_cell_setting 'orthorhombic'
loop_
_space_group_symop_operation_xyz
x,y,z
-x,-y,1/2+z
x,-y,-z
-x,y,1/2-z
-x,-y,-z
x,y,1/2-z
-x,y,z
x,-y,1/2+z
1/2+x,1/2+y,z
1/2-x,1/2-y,1/2+z
1/2+x,1/2-y,-z
1/2-x,1/2+y,1/2-z
1/2-x,1/2-y,-z
1/2+x,1/2+y,1/2-z
1/2-x,1/2+y,z
1/2+x,1/2-y,1/2+z
loop_
_atom_site_type_symbol
_atom_site_label
_atom_site_fract_x
_atom_site_fract_y
_atom_site_fract_z
Si Si1 0.931074 0.924202 0.192935
Si Si2 0.702188 0.793230 0.550432
Si Si3 0.931828 0.332748 0.693432
Si Si4 0.678443 0.382835 0.525046
Si Si5 0.653617 0.568608 0.369496
Si Si6 0.160918 0.563628 0.134186
Si Si7 0.741780 0.305921 0.806939
Si Si8 0.748398 0.883697 0.124753
O O1 0.916497 0.943416 0.250000
O O2 0.915135 0.795441 0.181453
O O3 0.000000 0.933095 0.188882
O O4 0.898814 0.007926 0.157038
O O5 0.669189 0.722711 0.510020
O O6 0.752326 0.874541 0.531867
O O7 0.662202 0.861841 0.586078
O O8 0.737974 0.705075 0.583130
O O9 0.917705 0.349280 0.750000
O O10 0.898769 0.420705 0.660779
O O11 0.000000 0.340392 0.688234
O O12 0.664277 0.500000 0.500000
O O13 0.647306 0.378765 0.577102
O O14 0.683604 0.654925 0.333132
O O15 0.702067 0.474781 0.378368
O O16 0.207542 0.619344 0.170615
O O17 0.187390 0.444244 0.121838
O O18 0.739014 0.317404 0.750000
O O19 0.753099 0.181047 0.824621
#
# Coordination Sequence:
#
# PCOD9468875 Si02
#       8
#    16  16  16  16  16  16  16  16
#     4   9  18  32  51  71  93 128 168 201 239 290
#     4  10  18  31  46  68 102 128 159 194 234 299
#     4   9  18  31  47  69  95 125 164 206 241 276
#     4  11  19  29  48  71 100 131 156 195 244 291
#     4  11  19  31  48  70  99 128 160 199 243 293
#     4  10  18  30  48  68  94 127 164 194 240 288
#     4  10  20  30  43  69 101 129 153 192 244 297
#     4  10  18  31  44  71  97 127 160 193 240 294
#
# _framework density 16.482023999999999
#
# number of rings (size 3 to 8) (size 9 to 14) (size 15 to 20)
#    0.000    2.000    5.000    3.000    0.000    4.000 
#    0.000    0.000    0.000    1.875    0.000    1.750 
#    0.000    5.000    0.000    0.000    0.000    0.000 
#
# Total GULP energy -356645.769145 kJ/mol
# GULP energy per Si atom -5572.590143 kJ/mol
# Density = 1.644451 g / cm^3
# Si number density = 16.482024 Si / 1000 Ang^3
#
#
#
# Elastic Constant Matrix: (Units=GPa)
#
#
# Indices 1 2 3 4 5 6 
#
# 1 21.3791 -5.5169 -2.6521 0.0000 0.0000 0.0000
# 2 -5.5169 24.5304 -1.3525 0.0000 0.0000 0.0000
# 3 -2.6521 -1.3525 63.1036 0.0000 0.0000 0.0000
# 4 0.0000 0.0000 0.0000 20.1392 0.0000 0.0000
# 5 0.0000 0.0000 0.0000 0.0000 20.3707 0.0000
# 6 0.0000 0.0000 0.0000 0.0000 0.0000 17.6224
#
#
#
# Elastic Compliance Matrix: (Units=1/GPa)
#
#
# Indices 1 2 3 4 5 6 
#
# 1 0.050001 0.011374 0.002345 0.000000 0.000000 0.000000
# 2 0.011374 0.043401 0.001408 0.000000 0.000000 0.000000
# 3 0.002345 0.001408 0.015976 0.000000 0.000000 0.000000
# 4 0.000000 0.000000 0.000000 0.049654 0.000000 0.000000
# 5 0.000000 0.000000 0.000000 0.000000 0.049090 0.000000
# 6 0.000000 0.000000 0.000000 0.000000 0.000000 0.056746
#
#
# Mechanical properties :
#
#
# Convention : Reuss Voigt Hill
#
# Bulk Modulus (GPa) = 7.16159 9.99668 8.57913
# Shear Modulus (GPa) = 17.78364 19.52876 18.65620
#
# Velocity S-wave (km/s) = 3.28833 3.44590 3.36804
# Velocity P-wave (km/s) = 4.33267 4.68089 4.51014
#
# Compressibility (1/GPa) = 0.13963386
#
# Stress axis : x y z
#
# Youngs Moduli (GPa) = 19.99968 23.04069 62.59503
#
# Poissons Ratio (x) = -0.26208 -0.14680
# Poissons Ratio (y) = -0.22749 -0.08815
# Poissons Ratio (z) = -0.04690 -0.03245
#
# Static dielectric constant tensor:
#      x y z
#    x 1.536010 0.000000 0.000000 
#    y 0.000000 1.592460 0.000000 
#    z 0.000000 0.000000 1.590520 
# 
# From -- ./inp_files/70829.got.cif
#   From: 2010.05.17/outbox.cif.g08.bks.cpg/sg63_36_cif.got.tgz:70829.got - 2010.06.03 15:47:04.
