data_PCOD9468914
_publ_section_title
;
Structure prediction by ZEFSAII (Michael W. Deem and Ramdas Pophale) SiO2 
 PCOD9468914
Probable space group: C M C M
;
_chemical_formula_sum "Si O2"
_cell_formula_units_Z 128
_cell_length_a 12.877660
_cell_length_b 22.635608
_cell_length_c 27.531070
_cell_angle_alpha 90.000000
_cell_angle_beta 90.000000
_cell_angle_gamma 90.000000
_cell_volume 8025.132460
_symmetry_space_group_name_H-M "C M C M"
_symmetry_group_IT_number 63
_symmetry_cell_setting 'orthorhombic'
loop_
_space_group_symop_operation_xyz
x,y,z
-x,-y,1/2+z
x,-y,-z
-x,y,1/2-z
-x,-y,-z
x,y,1/2-z
-x,y,z
x,-y,1/2+z
1/2+x,1/2+y,z
1/2-x,1/2-y,1/2+z
1/2+x,1/2-y,-z
1/2-x,1/2+y,1/2-z
1/2-x,1/2-y,-z
1/2+x,1/2+y,1/2-z
1/2-x,1/2+y,z
1/2+x,1/2-y,1/2+z
loop_
_atom_site_type_symbol
_atom_site_label
_atom_site_fract_x
_atom_site_fract_y
_atom_site_fract_z
Si Si1 0.878810 0.584910 0.892704
Si Si2 0.624181 0.674892 0.411063
Si Si3 0.620420 0.547929 0.365163
Si Si4 0.377878 0.653990 0.693432
Si Si5 0.311617 0.462794 0.451013
Si Si6 0.880481 0.832609 0.025116
Si Si7 0.239002 0.707596 0.889055
Si Si8 0.245332 0.535178 0.694061
O O1 0.803188 0.554578 0.932163
O O2 0.843021 0.653342 0.889782
O O3 0.846995 0.553587 0.842046
O O4 0.000000 0.579734 0.902997
O O5 0.500000 0.683285 0.407603
O O6 0.648119 0.612520 0.385576
O O7 0.649505 0.672185 0.468567
O O8 0.682990 0.729820 0.387550
O O9 0.500000 0.548060 0.349607
O O10 0.634602 0.501719 0.409435
O O11 0.697405 0.523751 0.324086
O O12 0.364821 0.671387 0.750000
O O13 0.500000 0.653056 0.682058
O O14 0.315071 0.694626 0.656117
O O15 0.329515 0.588363 0.688507
O O16 0.308965 0.500000 0.500000
O O17 0.370231 0.401251 0.459684
O O18 0.806073 0.797724 0.061590
O O19 0.000000 0.813670 0.030336
O O20 0.214107 0.532088 0.750000
#
# Coordination Sequence:
#
# PCOD9468914 Si02
#       8
#    16  16  16  16  16  16  16  16
#     4   9  19  32  48  70  94 126 166 203 239 277
#     4  10  20  32  47  68  99 136 167 196 233 284
#     4  10  19  30  48  74 102 130 156 192 245 296
#     4   9  17  31  53  78  99 120 152 200 254 295
#     4  10  18  30  49  72  99 126 158 199 242 289
#     4  10  19  30  49  75  99 128 164 200 244 290
#     4  10  19  32  49  69  99 131 166 203 236 279
#     4   9  18  32  52  77 100 122 154 200 250 299
#
# _framework density 15.949892999999999
#
# number of rings (size 3 to 8) (size 9 to 14) (size 15 to 20)
#    0.000    2.375    1.250    2.625    0.000    1.750 
#    0.000    0.625    0.000    8.625    0.000    0.000 
#    0.000    0.000    0.000    0.000    0.000    0.000 
#
# Total GULP energy -356911.790462 kJ/mol
# GULP energy per Si atom -5576.746726 kJ/mol
# Density = 1.591359 g / cm^3
# Si number density = 15.949893 Si / 1000 Ang^3
#
#
#
# Elastic Constant Matrix: (Units=GPa)
#
#
# Indices 1 2 3 4 5 6 
#
# 1 53.9668 10.6282 2.3321 0.0000 0.0000 0.0000
# 2 10.6282 64.9235 1.8195 0.0000 0.0000 0.0000
# 3 2.3321 1.8195 38.7230 0.0000 0.0000 0.0000
# 4 0.0000 0.0000 0.0000 12.0678 0.0000 0.0000
# 5 0.0000 0.0000 0.0000 0.0000 9.5750 0.0000
# 6 0.0000 0.0000 0.0000 0.0000 0.0000 18.7991
#
#
#
# Elastic Compliance Matrix: (Units=1/GPa)
#
#
# Indices 1 2 3 4 5 6 
#
# 1 0.019187 -0.003113 -0.001009 0.000000 0.000000 0.000000
# 2 -0.003113 0.015928 -0.000561 0.000000 0.000000 0.000000
# 3 -0.001009 -0.000561 0.025912 0.000000 0.000000 0.000000
# 4 0.000000 0.000000 0.000000 0.082865 0.000000 0.000000
# 5 0.000000 0.000000 0.000000 0.000000 0.104439 0.000000
# 6 0.000000 0.000000 0.000000 0.000000 0.000000 0.053194
#
#
# Mechanical properties :
#
#
# Convention : Reuss Voigt Hill
#
# Bulk Modulus (GPa) = 19.35719 20.79700 20.07710
# Shear Modulus (GPa) = 15.23880 17.61062 16.42471
#
# Velocity S-wave (km/s) = 3.09434 3.32644 3.21248
# Velocity P-wave (km/s) = 4.99291 5.27455 5.13566
#
# Compressibility (1/GPa) = 0.05166039
#
# Stress axis : x y z
#
# Youngs Moduli (GPa) = 52.11990 62.78254 38.59281
#
# Poissons Ratio (x) = 0.19542 0.03895
# Poissons Ratio (y) = 0.16223 0.02165
# Poissons Ratio (z) = 0.05260 0.03522
#
# Static dielectric constant tensor:
#      x y z
#    x 1.510650 0.000000 0.000000 
#    y 0.000000 1.513580 0.000000 
#    z 0.000000 0.000000 1.538460 
# 
# From -- ./inp_files/68790.got.cif
#   From: 2010.05.17/outbox.cif.g08.bks.cpg/sg63_35_cif.got.tgz:68790.got - 2010.06.03 15:47:04.
