data_PCOD9468547
_publ_section_title
;
Structure prediction by ZEFSAII (Michael W. Deem and Ramdas Pophale) SiO2 
 PCOD9468547
Probable space group: C M C M
;
_chemical_formula_sum "Si O2"
_cell_formula_units_Z 104
_cell_length_a 20.985109
_cell_length_b 12.482465
_cell_length_c 23.379725
_cell_angle_alpha 90.000000
_cell_angle_beta 90.000000
_cell_angle_gamma 90.000000
_cell_volume 6124.222841
_symmetry_space_group_name_H-M "C M C M"
_symmetry_group_IT_number 63
_symmetry_cell_setting 'orthorhombic'
loop_
_space_group_symop_operation_xyz
x,y,z
-x,-y,1/2+z
x,-y,-z
-x,y,1/2-z
-x,-y,-z
x,y,1/2-z
-x,y,z
x,-y,1/2+z
1/2+x,1/2+y,z
1/2-x,1/2-y,1/2+z
1/2+x,1/2-y,-z
1/2-x,1/2+y,1/2-z
1/2-x,1/2-y,-z
1/2+x,1/2+y,1/2-z
1/2-x,1/2+y,z
1/2+x,1/2-y,1/2+z
loop_
_atom_site_type_symbol
_atom_site_label
_atom_site_fract_x
_atom_site_fract_y
_atom_site_fract_z
Si Si1 0.313427 0.230281 0.572867
Si Si2 0.852332 0.948716 0.624945
Si Si3 0.169805 0.684634 0.056867
Si Si4 0.661769 0.555385 0.250000
Si Si5 0.297210 0.986960 0.130785
Si Si6 0.376513 0.678961 0.750000
Si Si7 0.574140 0.340365 0.121857
Si Si8 0.305834 0.904663 0.750000
O O1 0.348754 0.339882 0.589445
O O2 0.238499 0.260706 0.569342
O O3 0.336638 0.189392 0.511277
O O4 0.316849 0.134077 0.618019
O O5 0.871262 0.919987 0.690203
O O6 0.779942 0.996986 0.627729
O O7 0.897819 0.043456 0.604439
O O8 0.174681 0.566001 0.082656
O O9 0.116062 0.751592 0.089628
O O10 0.669526 0.425419 0.250000
O O11 0.729697 0.612636 0.250000
O O12 0.319367 0.029926 0.192327
O O13 0.414933 0.670717 0.690563
O O14 0.339777 0.790724 0.750000
O O15 0.500000 0.330979 0.108901
#
# Coordination Sequence:
#
# PCOD9468547 Si02
#       8
#    16  16  16   8  16   8  16   8
#     4  10  20  33  53  76 115 148 177 230 280 334
#     4   9  19  32  49  81 110 143 183 219 282 328
#     4  10  20  34  53  79 108 149 190 223 275 326
#     4   8  18  27  49  74 113 144 159 229 278 333
#     4  10  18  32  53  81 113 140 175 233 282 335
#     4  10  19  36  52  83 115 140 188 221 279 335
#     4  11  21  37  58  81 111 145 188 232 268 328
#     4  10  18  27  53  83 110 138 170 230 283 328
#
# _framework density 16.981746999999999
#
# number of rings (size 3 to 8) (size 9 to 14) (size 15 to 20)
#    0.000    2.154    3.077    0.692    0.000    1.231 
#    0.000    1.538    0.000    2.769    0.000    0.000 
#    0.000    0.000    0.000    0.000    0.000    0.000 
#
# Total GULP energy -289901.282133 kJ/mol
# GULP energy per Si atom -5575.024656 kJ/mol
# Density = 1.694310 g / cm^3
# Si number density = 16.981747 Si / 1000 Ang^3
#
#
#
# Elastic Constant Matrix: (Units=GPa)
#
#
# Indices 1 2 3 4 5 6 
#
# 1 62.1794 22.4881 10.2578 0.0000 0.0000 0.0000
# 2 22.4881 70.4078 18.0652 0.0000 0.0000 0.0000
# 3 10.2578 18.0652 49.2320 0.0000 0.0000 0.0000
# 4 0.0000 0.0000 0.0000 18.7936 0.0000 0.0000
# 5 0.0000 0.0000 0.0000 0.0000 10.5816 0.0000
# 6 0.0000 0.0000 0.0000 0.0000 0.0000 11.7029
#
#
#
# Elastic Compliance Matrix: (Units=1/GPa)
#
#
# Indices 1 2 3 4 5 6 
#
# 1 0.018333 -0.005382 -0.001845 0.000000 0.000000 0.000000
# 2 -0.005382 0.017259 -0.005212 0.000000 0.000000 0.000000
# 3 -0.001845 -0.005212 0.022609 0.000000 0.000000 0.000000
# 4 0.000000 0.000000 0.000000 0.053209 0.000000 0.000000
# 5 0.000000 0.000000 0.000000 0.000000 0.094504 0.000000
# 6 0.000000 0.000000 0.000000 0.000000 0.000000 0.085449
#
#
# Mechanical properties :
#
#
# Convention : Reuss Voigt Hill
#
# Bulk Modulus (GPa) = 30.00868 31.49349 30.75108
# Shear Modulus (GPa) = 15.27421 16.94951 16.11186
#
# Velocity S-wave (km/s) = 3.00233 3.16270 3.08356
# Velocity P-wave (km/s) = 5.45236 5.65001 5.55206
#
# Compressibility (1/GPa) = 0.03332370
#
# Stress axis : x y z
#
# Youngs Moduli (GPa) = 54.54516 57.93985 44.23068
#
# Poissons Ratio (x) = 0.31185 0.08160
# Poissons Ratio (y) = 0.29358 0.23052
# Poissons Ratio (z) = 0.10063 0.30196
#
# Static dielectric constant tensor:
#      x y z
#    x 1.545870 0.000000 0.000000 
#    y 0.000000 1.561200 0.000000 
#    z 0.000000 0.000000 1.611100 
# 
# From -- ./inp_files/69989.got.cif
#   From: 2010.05.17/outbox.cif.g08.bks.cpg/sg63_35_cif.got.tgz:69989.got - 2010.06.03 15:47:04.
