data_PCOD9468470
_publ_section_title
;
Structure prediction by ZEFSAII (Michael W. Deem and Ramdas Pophale) SiO2 
 PCOD9468470
Probable space group: C M C M
;
_chemical_formula_sum "Si O2"
_cell_formula_units_Z 80
_cell_length_a 7.569545
_cell_length_b 21.109608
_cell_length_c 25.926333
_cell_angle_alpha 90.000000
_cell_angle_beta 90.000000
_cell_angle_gamma 90.000000
_cell_volume 4142.772061
_symmetry_space_group_name_H-M "C M C M"
_symmetry_group_IT_number 63
_symmetry_cell_setting 'orthorhombic'
loop_
_space_group_symop_operation_xyz
x,y,z
-x,-y,1/2+z
x,-y,-z
-x,y,1/2-z
-x,-y,-z
x,y,1/2-z
-x,y,z
x,-y,1/2+z
1/2+x,1/2+y,z
1/2-x,1/2-y,1/2+z
1/2+x,1/2-y,-z
1/2-x,1/2+y,1/2-z
1/2-x,1/2-y,-z
1/2+x,1/2+y,1/2-z
1/2-x,1/2+y,z
1/2+x,1/2-y,1/2+z
loop_
_atom_site_type_symbol
_atom_site_label
_atom_site_fract_x
_atom_site_fract_y
_atom_site_fract_z
Si Si1 0.783399 0.641072 0.361941
Si Si2 0.287871 0.993664 0.139177
Si Si3 0.288296 0.815681 0.972191
Si Si4 0.800718 0.651943 0.250000
Si Si5 0.284089 0.938688 0.466527
Si Si6 0.701460 0.490708 0.750000
O O1 0.730319 0.567101 0.367542
O O2 0.725346 0.677882 0.413070
O O3 0.720654 0.666362 0.306163
O O4 0.000000 0.641580 0.359820
O O5 0.500000 0.994600 0.136766
O O6 0.224349 0.951006 0.091947
O O7 0.236585 0.973604 0.196770
O O8 0.500000 0.822438 0.969454
O O9 0.250000 0.750000 0.000000
O O10 0.221843 0.874831 0.006101
O O11 0.810327 0.574735 0.250000
O O12 0.000000 0.677851 0.250000
O O13 0.500000 0.936890 0.466204
O O14 0.234384 0.000000 0.500000
O O15 0.500000 0.469501 0.750000
#
# Coordination Sequence:
#
# PCOD9468470 Si02
#       6
#    16  16  16   8  16   8
#     4   8  13  24  45  69  91 113 149 196 233 267
#     4   9  15  27  48  70  89 117 160 204 234 266
#     4  10  19  31  47  70  99 128 155 193 240 286
#     4   8  14  26  46  69  86 113 157 201 233 265
#     4   9  15  27  51  75  91 116 162 208 233 260
#     4  10  18  26  38  65 102 129 145 181 243 299
#
# _framework density 19.310741
#
# number of rings (size 3 to 8) (size 9 to 14) (size 15 to 20)
#    0.000    3.000    2.000    2.100    0.000    0.000 
#    0.000    5.000    0.000    2.400    0.000    2.800 
#    0.000    0.000    0.000    0.000    0.000    0.000 
#
# Total GULP energy -222874.637901 kJ/mol
# GULP energy per Si atom -5571.865948 kJ/mol
# Density = 1.926679 g / cm^3
# Si number density = 19.310741 Si / 1000 Ang^3
#
#
#
# Elastic Constant Matrix: (Units=GPa)
#
#
# Indices 1 2 3 4 5 6 
#
# 1 46.4358 0.3456 5.9400 0.0000 0.0000 0.0000
# 2 0.3456 90.0634 82.4075 0.0000 0.0000 0.0000
# 3 5.9400 82.4075 251.2600 0.0000 0.0000 0.0000
# 4 0.0000 0.0000 0.0000 21.3242 0.0000 0.0000
# 5 0.0000 0.0000 0.0000 0.0000 -2.9018 0.0000
# 6 0.0000 0.0000 0.0000 0.0000 0.0000 6.7409
#
#
#
# Elastic Compliance Matrix: (Units=1/GPa)
#
#
# Indices 1 2 3 4 5 6 
#
# 1 0.021619 0.000550 -0.000691 0.000000 0.000000 0.000000
# 2 0.000550 0.015878 -0.005221 0.000000 0.000000 0.000000
# 3 -0.000691 -0.005221 0.005709 0.000000 0.000000 0.000000
# 4 0.000000 0.000000 0.000000 0.046895 0.000000 0.000000
# 5 0.000000 0.000000 0.000000 0.000000 -0.344614 0.000000
# 6 0.000000 0.000000 0.000000 0.000000 0.000000 0.148349
#
#
# Mechanical properties :
#
#
# Convention : Reuss Voigt Hill
#
# Bulk Modulus (GPa) = 30.78693 62.79391 46.79042
# Shear Modulus (GPa) = -59.09341 24.97039 -17.06151
#
# Velocity S-wave (km/s) = -5.53785 3.59985 -2.97564
# Velocity P-wave (km/s) = 4.99127 7.06164 3.53227
#
# Compressibility (1/GPa) = 0.03248131
#
# Stress axis : x y z
#
# Youngs Moduli (GPa) = 46.25463 62.98014 175.17649
#
# Poissons Ratio (x) = -0.03462 0.12111
# Poissons Ratio (y) = -0.02542 0.91453
# Poissons Ratio (z) = 0.03198 0.32880
#
# Static dielectric constant tensor:
#      x y z
#    x 1.741490 0.000000 0.000000 
#    y 0.000000 1.615430 0.000000 
#    z 0.000000 0.000000 1.738480 
# 
# From -- ./inp_files/66693.got.cif
#   From: 2010.05.17/outbox.cif.g08.bks.cpg/sg63_34_cif.got.tgz:66693.got - 2010.06.03 15:47:04.
