data_PCOD9468903
_publ_section_title
;
Structure prediction by ZEFSAII (Michael W. Deem and Ramdas Pophale) SiO2 
 PCOD9468903
Probable space group: C M C M
;
_chemical_formula_sum "Si O2"
_cell_formula_units_Z 96
_cell_length_a 8.226691
_cell_length_b 28.241518
_cell_length_c 24.574325
_cell_angle_alpha 90.000000
_cell_angle_beta 90.000000
_cell_angle_gamma 90.000000
_cell_volume 5709.457170
_symmetry_space_group_name_H-M "C M C M"
_symmetry_group_IT_number 63
_symmetry_cell_setting 'orthorhombic'
loop_
_space_group_symop_operation_xyz
x,y,z
-x,-y,1/2+z
x,-y,-z
-x,y,1/2-z
-x,-y,-z
x,y,1/2-z
-x,y,z
x,-y,1/2+z
1/2+x,1/2+y,z
1/2-x,1/2-y,1/2+z
1/2+x,1/2-y,-z
1/2-x,1/2+y,1/2-z
1/2-x,1/2-y,-z
1/2+x,1/2+y,1/2-z
1/2-x,1/2+y,z
1/2+x,1/2-y,1/2+z
loop_
_atom_site_type_symbol
_atom_site_label
_atom_site_fract_x
_atom_site_fract_y
_atom_site_fract_z
Si Si1 0.306509 0.324635 0.021791
Si Si2 0.303282 0.264466 0.583964
Si Si3 0.190395 0.987869 0.585272
Si Si4 0.801604 0.069801 0.311730
Si Si5 0.198299 0.821393 0.811538
Si Si6 0.687177 0.070431 0.986721
O O1 0.500000 0.330526 0.019799
O O2 0.253548 0.299720 0.965117
O O3 0.261256 0.287202 0.068542
O O4 0.227849 0.375839 0.027476
O O5 0.500000 0.262619 0.583806
O O6 0.247474 0.286160 0.641160
O O7 0.254046 0.965658 0.641362
O O8 0.209445 0.948436 0.537943
O O9 0.000000 0.998913 0.591389
O O10 0.277449 0.034443 0.562583
O O11 0.752222 0.057816 0.250000
O O12 0.752524 0.124216 0.322990
O O13 0.000000 0.069466 0.312988
O O14 0.249642 0.809290 0.750000
O O15 0.000000 0.821081 0.811937
O O16 0.500000 0.065945 0.002603
#
# Coordination Sequence:
#
# PCOD9468903 Si02
#       6
#    16  16  16  16  16  16
#     4  10  19  31  47  67  91 120 153 188 228 272
#     4   9  17  29  46  69  94 119 148 184 225 268
#     4  10  18  30  49  71  95 122 153 188 227 273
#     4   8  14  25  44  71  98 122 149 183 223 268
#     4   8  13  23  42  68  95 120 146 177 216 265
#     4  11  21  32  46  66  94 124 155 191 230 272
#
# _framework density 16.814208000000001
#
# number of rings (size 3 to 8) (size 9 to 14) (size 15 to 20)
#    0.000    2.667    0.000    5.500    0.000    3.333 
#    0.000    0.000    0.000    3.500    0.000    4.667 
#    0.000    0.000    0.000    0.000    0.000    0.000 
#
# Total GULP energy -267629.563119 kJ/mol
# GULP energy per Si atom -5575.615898 kJ/mol
# Density = 1.677594 g / cm^3
# Si number density = 16.814208 Si / 1000 Ang^3
#
#
#
# Elastic Constant Matrix: (Units=GPa)
#
#
# Indices 1 2 3 4 5 6 
#
# 1 14.8795 3.6206 -2.6320 0.0000 0.0000 0.0000
# 2 3.6206 112.5859 57.7260 0.0000 0.0000 0.0000
# 3 -2.6320 57.7260 98.1665 0.0000 0.0000 0.0000
# 4 0.0000 0.0000 0.0000 23.7829 0.0000 0.0000
# 5 0.0000 0.0000 0.0000 0.0000 5.1158 0.0000
# 6 0.0000 0.0000 0.0000 0.0000 0.0000 19.0781
#
#
#
# Elastic Compliance Matrix: (Units=1/GPa)
#
#
# Indices 1 2 3 4 5 6 
#
# 1 0.069112 -0.004542 0.004524 0.000000 0.000000 0.000000
# 2 -0.004542 0.013015 -0.007775 0.000000 0.000000 0.000000
# 3 0.004524 -0.007775 0.014880 0.000000 0.000000 0.000000
# 4 0.000000 0.000000 0.000000 0.042047 0.000000 0.000000
# 5 0.000000 0.000000 0.000000 0.000000 0.195472 0.000000
# 6 0.000000 0.000000 0.000000 0.000000 0.000000 0.052416
#
#
# Mechanical properties :
#
#
# Convention : Reuss Voigt Hill
#
# Bulk Modulus (GPa) = 12.28189 38.11791 25.19990
# Shear Modulus (GPa) = 11.63689 20.72319 16.18004
#
# Velocity S-wave (km/s) = 2.63361 3.51448 3.10544
# Velocity P-wave (km/s) = 4.07040 6.26003 5.27997
#
# Compressibility (1/GPa) = 0.08142067
#
# Stress axis : x y z
#
# Youngs Moduli (GPa) = 14.46923 76.83679 67.20414
#
# Poissons Ratio (x) = 0.34900 -0.30403
# Poissons Ratio (y) = 0.06572 0.52251
# Poissons Ratio (z) = -0.06546 0.59740
#
# Static dielectric constant tensor:
#      x y z
#    x 1.580740 0.000000 0.000000 
#    y 0.000000 1.543770 0.000000 
#    z 0.000000 0.000000 1.570790 
# 
# From -- ./inp_files/60195.got.cif
#   From: 2010.05.17/outbox.cif.g08.bks.cpg/sg63_31_cif.got.tgz:60195.got - 2010.06.03 15:47:04.
