data_PCOD9468623
_publ_section_title
;
Structure prediction by ZEFSAII (Michael W. Deem and Ramdas Pophale) SiO2 
 PCOD9468623
Probable space group: C M C M
;
_chemical_formula_sum "Si O2"
_cell_formula_units_Z 80
_cell_length_a 26.086607
_cell_length_b 21.161953
_cell_length_c 8.153677
_cell_angle_alpha 90.000000
_cell_angle_beta 90.000000
_cell_angle_gamma 90.000000
_cell_volume 4501.184807
_symmetry_space_group_name_H-M "C M C M"
_symmetry_group_IT_number 63
_symmetry_cell_setting 'orthorhombic'
loop_
_space_group_symop_operation_xyz
x,y,z
-x,-y,1/2+z
x,-y,-z
-x,y,1/2-z
-x,-y,-z
x,y,1/2-z
-x,y,z
x,-y,1/2+z
1/2+x,1/2+y,z
1/2-x,1/2-y,1/2+z
1/2+x,1/2-y,-z
1/2-x,1/2+y,1/2-z
1/2-x,1/2-y,-z
1/2+x,1/2+y,1/2-z
1/2-x,1/2+y,z
1/2+x,1/2-y,1/2+z
loop_
_atom_site_type_symbol
_atom_site_label
_atom_site_fract_x
_atom_site_fract_y
_atom_site_fract_z
Si Si1 0.000000 0.733328 0.558740
Si Si2 0.281424 0.811769 0.051706
Si Si3 0.107817 0.115144 0.054625
Si Si4 0.110746 0.737497 0.549305
Si Si5 0.716850 0.431557 0.445788
Si Si6 0.500000 0.625072 0.559739
O O1 0.055171 0.713826 0.489172
O O2 0.000000 0.715655 0.750000
O O3 0.000000 0.809979 0.545368
O O4 0.282252 0.813958 0.250000
O O5 0.339891 0.801619 0.995044
O O6 0.252280 0.874197 0.991346
O O7 0.250000 0.750000 0.000000
O O8 0.102784 0.114321 0.250000
O O9 0.115870 0.188624 0.001111
O O10 0.158654 0.078326 0.005368
O O11 0.053853 0.092011 0.980456
O O12 0.109820 0.737018 0.750000
O O13 0.735730 0.500000 0.500000
O O14 0.716378 0.428633 0.250000
O O15 0.500000 0.642814 0.750000
#
# Coordination Sequence:
#
# PCOD9468623 Si02
#       6
#     8  16  16  16  16   8
#     4   8  14  26  44  69 100 131 161 197 254 304
#     4  10  19  32  51  76 101 129 168 210 253 303
#     4  10  18  32  52  71  97 132 170 209 255 299
#     4   8  14  26  47  73  99 126 158 202 247 297
#     4  11  23  36  51  72 101 135 172 211 256 306
#     4  10  18  28  45  71 102 131 167 209 248 292
#
# _framework density 17.773098999999998
#
# number of rings (size 3 to 8) (size 9 to 14) (size 15 to 20)
#    0.000    2.400    2.000    3.300    0.000    0.800 
#    0.000    0.500    0.000    0.000    0.000    0.700 
#    0.000    0.000    0.000    0.000    0.000    0.000 
#
# Total GULP energy -223001.436173 kJ/mol
# GULP energy per Si atom -5575.035904 kJ/mol
# Density = 1.773265 g / cm^3
# Si number density = 17.773099 Si / 1000 Ang^3
#
#
#
# Elastic Constant Matrix: (Units=GPa)
#
#
# Indices 1 2 3 4 5 6 
#
# 1 153.4404 57.2483 5.8105 0.0000 0.0000 0.0000
# 2 57.2483 87.9156 7.4590 0.0000 0.0000 0.0000
# 3 5.8105 7.4590 25.9471 0.0000 0.0000 0.0000
# 4 0.0000 0.0000 0.0000 12.3902 0.0000 0.0000
# 5 0.0000 0.0000 0.0000 0.0000 13.7877 0.0000
# 6 0.0000 0.0000 0.0000 0.0000 0.0000 15.6058
#
#
#
# Elastic Compliance Matrix: (Units=1/GPa)
#
#
# Indices 1 2 3 4 5 6 
#
# 1 0.008611 -0.005580 -0.000324 0.000000 0.000000 0.000000
# 2 -0.005580 0.015275 -0.003141 0.000000 0.000000 0.000000
# 3 -0.000324 -0.003141 0.039516 0.000000 0.000000 0.000000
# 4 0.000000 0.000000 0.000000 0.080709 0.000000 0.000000
# 5 0.000000 0.000000 0.000000 0.000000 0.072528 0.000000
# 6 0.000000 0.000000 0.000000 0.000000 0.000000 0.064079
#
#
# Mechanical properties :
#
#
# Convention : Reuss Voigt Hill
#
# Bulk Modulus (GPa) = 22.07011 45.37098 33.72055
# Shear Modulus (GPa) = 15.92804 21.47578 18.70191
#
# Velocity S-wave (km/s) = 2.99689 3.47988 3.24737
# Velocity P-wave (km/s) = 4.94164 6.45983 5.75105
#
# Compressibility (1/GPa) = 0.04531014
#
# Stress axis : x y z
#
# Youngs Moduli (GPa) = 116.12601 65.46820 25.30642
#
# Poissons Ratio (x) = 0.36531 0.00821
# Poissons Ratio (y) = 0.64798 0.07950
# Poissons Ratio (z) = 0.03766 0.20566
#
# Static dielectric constant tensor:
#      x y z
#    x 1.658930 0.000000 0.000000 
#    y 0.000000 1.598630 0.000000 
#    z 0.000000 0.000000 1.620630 
# 
# From -- ./inp_files/10128.got.cif
#   From: 2010.05.17/outbox.cif.g08.bks.cpg/sg63_6_cif.got.tgz:10128.got - 2010.06.03 15:47:04.
