data_PCOD9468418
_publ_section_title
;
Structure prediction by ZEFSAII (Michael W. Deem and Ramdas Pophale) SiO2 
 PCOD9468418
Probable space group: C M C M
;
_chemical_formula_sum "Si O2"
_cell_formula_units_Z 88
_cell_length_a 8.960662
_cell_length_b 14.870487
_cell_length_c 26.117604
_cell_angle_alpha 90.000000
_cell_angle_beta 90.000000
_cell_angle_gamma 90.000000
_cell_volume 3480.155266
_symmetry_space_group_name_H-M "C M C M"
_symmetry_group_IT_number 63
_symmetry_cell_setting 'orthorhombic'
loop_
_space_group_symop_operation_xyz
x,y,z
-x,-y,1/2+z
x,-y,-z
-x,y,1/2-z
-x,-y,-z
x,y,1/2-z
-x,y,z
x,-y,1/2+z
1/2+x,1/2+y,z
1/2-x,1/2-y,1/2+z
1/2+x,1/2-y,-z
1/2-x,1/2+y,1/2-z
1/2-x,1/2-y,-z
1/2+x,1/2+y,1/2-z
1/2-x,1/2+y,z
1/2+x,1/2-y,1/2+z
loop_
_atom_site_type_symbol
_atom_site_label
_atom_site_fract_x
_atom_site_fract_y
_atom_site_fract_z
Si Si1 0.500000 0.687477 0.950276
Si Si2 0.500000 0.487719 0.938365
Si Si3 0.000000 0.750137 0.161862
Si Si4 0.668022 0.751668 0.156150
Si Si5 0.500000 0.074360 0.457866
Si Si6 0.000000 0.462552 0.841071
Si Si7 0.702611 0.327833 0.547665
Si Si8 0.333068 0.458159 0.810661
O O1 0.500000 0.589862 0.922809
O O2 0.500000 0.747969 0.899949
O O3 0.368944 0.689377 0.992357
O O4 0.363950 0.421295 0.927978
O O5 0.500000 0.500000 0.000000
O O6 0.832390 0.788014 0.175030
O O7 0.000000 0.643681 0.176129
O O8 0.500000 0.789130 0.168527
O O9 0.677136 0.742552 0.093683
O O10 0.668509 0.648967 0.176870
O O11 0.500000 0.032775 0.401990
O O12 0.362970 0.138468 0.464885
O O13 0.500000 0.000000 0.500000
O O14 0.832133 0.496203 0.826192
O O15 0.337507 0.469716 0.750000
O O16 0.500000 0.490007 0.830001
#
# Coordination Sequence:
#
# PCOD9468418 Si02
#       8
#     8   8   8  16   8   8  16  16
#     4  10  20  32  45  66  92 130 179 203 240 293
#     4   8  16  30  48  63  81 126 172 212 242 278
#     4  10  20  33  46  68  99 134 166 197 253 299
#     4  10  17  32  49  70  99 131 160 200 259 301
#     4  12  20  31  49  70  96 136 182 217 244 295
#     4  10  19  34  48  71 104 140 161 205 265 301
#     4  10  17  33  47  63  92 130 172 209 246 286
#     4   9  17  29  50  75 101 129 161 201 257 327
#
# _framework density 25.286228000000001
#
# number of rings (size 3 to 8) (size 9 to 14) (size 15 to 20)
#    0.000    2.364    5.455    1.909    0.000    0.727 
#    1.636    0.000    0.000    0.000    0.000    0.000 
#    0.000   11.636    0.000    8.364    0.000    0.545 
#
# Total GULP energy -245038.275699 kJ/mol
# GULP energy per Si atom -5569.051720 kJ/mol
# Density = 2.522868 g / cm^3
# Si number density = 25.286228 Si / 1000 Ang^3
#
#
#
# Elastic Constant Matrix: (Units=GPa)
#
#
# Indices 1 2 3 4 5 6 
#
# 1 307.2453 17.5214 33.9381 0.0000 0.0000 0.0000
# 2 17.5214 38.7393 6.9601 0.0000 0.0000 0.0000
# 3 33.9381 6.9601 69.5051 0.0000 0.0000 0.0000
# 4 0.0000 0.0000 0.0000 13.7354 0.0000 0.0000
# 5 0.0000 0.0000 0.0000 0.0000 18.1465 0.0000
# 6 0.0000 0.0000 0.0000 0.0000 0.0000 12.7631
#
#
#
# Elastic Compliance Matrix: (Units=1/GPa)
#
#
# Indices 1 2 3 4 5 6 
#
# 1 0.003503 -0.001301 -0.001580 0.000000 0.000000 0.000000
# 2 -0.001301 0.026769 -0.002046 0.000000 0.000000 0.000000
# 3 -0.001580 -0.002046 0.015364 0.000000 0.000000 0.000000
# 4 0.000000 0.000000 0.000000 0.072804 0.000000 0.000000
# 5 0.000000 0.000000 0.000000 0.000000 0.055107 0.000000
# 6 0.000000 0.000000 0.000000 0.000000 0.000000 0.078351
#
#
# Mechanical properties :
#
#
# Convention : Reuss Voigt Hill
#
# Bulk Modulus (GPa) = 27.94580 59.14766 43.54673
# Shear Modulus (GPa) = 18.26950 32.73369 25.50159
#
# Velocity S-wave (km/s) = 2.69087 3.60186 3.17916
# Velocity P-wave (km/s) = 4.55304 6.38278 5.54391
#
# Compressibility (1/GPa) = 0.03578355
#
# Stress axis : x y z
#
# Youngs Moduli (GPa) = 285.43097 37.35611 65.08738
#
# Poissons Ratio (x) = 0.04859 0.10287
# Poissons Ratio (y) = 0.37124 0.13314
# Poissons Ratio (z) = 0.45111 0.07641
#
# Static dielectric constant tensor:
#      x y z
#    x 2.030160 0.000000 0.000000 
#    y 0.000000 1.812640 0.000000 
#    z 0.000000 0.000000 1.959390 
# 
# From -- ./inp_files/71752.got.cif
#   From: 2010.05.17/outbox.cif.g08.bks.cpg/sg63_36_cif.got.tgz:71752.got - 2010.06.03 15:47:04.
