data_PCOD9468681
_publ_section_title
;
Structure prediction by ZEFSAII (Michael W. Deem and Ramdas Pophale) SiO2 
 PCOD9468681
Probable space group: C M C M
;
_chemical_formula_sum "Si O2"
_cell_formula_units_Z 96
_cell_length_a 12.265900
_cell_length_b 21.247674
_cell_length_c 21.447728
_cell_angle_alpha 90.000000
_cell_angle_beta 90.000000
_cell_angle_gamma 90.000000
_cell_volume 5589.746432
_symmetry_space_group_name_H-M "C M C M"
_symmetry_group_IT_number 63
_symmetry_cell_setting 'orthorhombic'
loop_
_space_group_symop_operation_xyz
x,y,z
-x,-y,1/2+z
x,-y,-z
-x,y,1/2-z
-x,-y,-z
x,y,1/2-z
-x,y,z
x,-y,1/2+z
1/2+x,1/2+y,z
1/2-x,1/2-y,1/2+z
1/2+x,1/2-y,-z
1/2-x,1/2+y,1/2-z
1/2-x,1/2-y,-z
1/2+x,1/2+y,1/2-z
1/2-x,1/2+y,z
1/2+x,1/2-y,1/2+z
loop_
_atom_site_type_symbol
_atom_site_label
_atom_site_fract_x
_atom_site_fract_y
_atom_site_fract_z
Si Si1 0.242937 0.532616 0.568995
Si Si2 0.875197 0.919127 0.878510
Si Si3 0.213298 0.325177 0.818495
Si Si4 0.686545 0.351690 0.495473
Si Si5 0.000000 0.413238 0.681606
Si Si6 0.000000 0.515181 0.926088
Si Si7 0.873927 0.718736 0.441774
O O1 0.241307 0.500000 0.500000
O O2 0.302923 0.482221 0.613014
O O3 0.306885 0.597464 0.559303
O O4 0.117555 0.546165 0.586643
O O5 0.815515 0.870137 0.832961
O O6 0.000000 0.932652 0.861998
O O7 0.871165 0.884276 0.945843
O O8 0.222088 0.296181 0.750000
O O9 0.190320 0.278844 0.876042
O O10 0.107394 0.370282 0.819538
O O11 0.808841 0.333858 0.518889
O O12 0.635219 0.285795 0.475512
O O13 0.000000 0.455643 0.620294
O O14 0.000000 0.446500 0.750000
O O15 0.000000 0.500000 0.000000
O O16 0.000000 0.702326 0.433282
#
# Coordination Sequence:
#
# PCOD9468681 Si02
#       7
#    16  16  16  16   8   8  16
#     4   9  18  29  47  74 103 132 163 204 257 308
#     4  10  19  32  50  72 104 137 166 201 254 312
#     4  10  20  33  52  76  99 127 169 215 256 296
#     4   9  20  32  45  76 105 133 166 206 255 303
#     4  10  18  32  52  78 106 128 161 214 266 308
#     4  10  18  28  52  80 104 130 162 214 263 310
#     4  10  19  31  50  70 101 134 170 208 251 302
#
# _framework density 17.174302999999998
#
# number of rings (size 3 to 8) (size 9 to 14) (size 15 to 20)
#    0.000    2.333    2.500    0.500    3.500    4.000 
#    0.000    0.000    0.000    2.000    0.000    2.333 
#    0.000    0.000    0.000    0.000    0.000    0.000 
#
# Total GULP energy -267346.849424 kJ/mol
# GULP energy per Si atom -5569.726030 kJ/mol
# Density = 1.713521 g / cm^3
# Si number density = 17.174303 Si / 1000 Ang^3
#
#
#
# Elastic Constant Matrix: (Units=GPa)
#
#
# Indices 1 2 3 4 5 6 
#
# 1 100.2160 -0.5066 -1.5363 0.0000 0.0000 0.0000
# 2 -0.5066 35.5901 9.4533 0.0000 0.0000 0.0000
# 3 -1.5363 9.4533 57.7568 0.0000 0.0000 0.0000
# 4 0.0000 0.0000 0.0000 17.1752 0.0000 0.0000
# 5 0.0000 0.0000 0.0000 0.0000 -14.2999 0.0000
# 6 0.0000 0.0000 0.0000 0.0000 0.0000 7.9672
#
#
#
# Elastic Compliance Matrix: (Units=1/GPa)
#
#
# Indices 1 2 3 4 5 6 
#
# 1 0.009983 0.000075 0.000253 0.000000 0.000000 0.000000
# 2 0.000075 0.029375 -0.004806 0.000000 0.000000 0.000000
# 3 0.000253 -0.004806 0.018107 0.000000 0.000000 0.000000
# 4 0.000000 0.000000 0.000000 0.058224 0.000000 0.000000
# 5 0.000000 0.000000 0.000000 0.000000 -0.069931 0.000000
# 6 0.000000 0.000000 0.000000 0.000000 0.000000 0.125515
#
#
# Mechanical properties :
#
#
# Convention : Reuss Voigt Hill
#
# Bulk Modulus (GPa) = 20.61449 23.15375 21.88412
# Shear Modulus (GPa) = 25.45837 14.57865 20.01851
#
# Velocity S-wave (km/s) = 3.85431 2.91669 3.41780
# Velocity P-wave (km/s) = 5.64241 4.98534 5.32402
#
# Compressibility (1/GPa) = 0.04850958
#
# Stress axis : x y z
#
# Youngs Moduli (GPa) = 100.17318 34.04214 55.22618
#
# Poissons Ratio (x) = -0.00255 -0.01399
# Poissons Ratio (y) = -0.00749 0.26542
# Poissons Ratio (z) = -0.02537 0.16361
#
# Static dielectric constant tensor:
#      x y z
#    x 1.611230 0.000000 0.000000 
#    y 0.000000 1.563420 0.000000 
#    z 0.000000 0.000000 1.628690 
# 
# From -- ./inp_files/52904.got.cif
#   From: 2010.05.17/outbox.cif.g08.bks.cpg/sg63_27_cif.got.tgz:52904.got - 2010.06.03 15:47:04.
