data_PCOD9468071
_publ_section_title
;
Structure prediction by ZEFSAII (Michael W. Deem and Ramdas Pophale) SiO2 
 PCOD9468071
Probable space group: P N M A
;
_chemical_formula_sum "Si O2"
_cell_formula_units_Z 64
_cell_length_a 12.000000
_cell_length_b 24.000000
_cell_length_c 12.000000
_cell_angle_alpha 90.000000
_cell_angle_beta 90.000000
_cell_angle_gamma 90.000000
_cell_volume 3456.000000
_symmetry_space_group_name_H-M "P N M A"
_symmetry_group_IT_number 62
_symmetry_cell_setting 'orthorhombic'
loop_
_space_group_symop_operation_xyz
x,y,z
1/2-x,-y,1/2+z
1/2+x,1/2-y,1/2-z
-x,1/2+y,-z
-x,-y,-z
1/2+x,y,1/2-z
1/2-x,1/2+y,1/2+z
x,1/2-y,z
loop_
_atom_site_type_symbol
_atom_site_label
_atom_site_fract_x
_atom_site_fract_y
_atom_site_fract_z
Si Si1 0.139656 0.120520 0.024039
Si Si2 0.606468 0.519825 0.164485
Si Si3 0.299762 0.407676 0.633915
Si Si4 0.975207 0.084066 0.224235
Si Si5 0.384734 0.176810 0.091006
Si Si6 0.041745 0.125990 0.604536
Si Si7 0.509724 0.817321 0.341021
Si Si8 0.672866 0.507933 0.558647
O O1 0.261453 0.149910 0.054944
O O2 0.060420 0.111893 0.133470
O O3 0.078243 0.159875 0.933159
O O4 0.142521 0.057110 0.969824
O O5 0.682405 0.556279 0.252393
O O6 0.544456 0.464554 0.210678
O O7 0.521305 0.566382 0.118826
O O8 0.695134 0.496889 0.076968
O O9 0.174015 0.389209 0.601250
O O10 0.376233 0.352307 0.638137
O O11 0.348564 0.451708 0.545303
O O12 0.923652 0.135289 0.302403
O O13 0.884795 0.043703 0.159292
O O14 0.381323 0.250000 0.102941
O O15 0.476900 0.159543 0.995495
O O16 0.027019 0.162223 0.717768
O O17 0.521072 0.750000 0.346278
#
# Coordination Sequence:
#
# PCOD9468071 Si02
#       8
#     8   8   8   8   8   8   8   8
#     4  12  24  48  73 102 141 189 237 298 361 426
#     4  11  22  38  69 104 139 174 223 284 363 424
#     4  11  23  42  65 104 138 171 225 293 355 415
#     4  12  25  43  71 105 141 189 233 296 360 428
#     4  12  29  49  70 102 147 198 246 288 355 442
#     4  11  25  44  70 104 140 180 233 296 358 420
#     4  11  25  44  69  98 132 187 240 288 351 419
#     4  12  22  41  68 104 139 175 230 291 359 426
#
# _framework density 18.518519000000001
#
# number of rings (size 3 to 8) (size 9 to 14) (size 15 to 20)
#    0.000    0.500    3.750    5.625    3.500    3.000 
#    0.000    0.000    0.000    0.000    0.000    0.000 
#    0.000    0.000    0.000    0.000    0.000    0.000 
#
# Total GULP energy -356524.771866 kJ/mol
# GULP energy per Si atom -5570.699560 kJ/mol
# Density = 1.847637 g / cm^3
# Si number density = 18.518519 Si / 1000 Ang^3
#
#
#
# Elastic Constant Matrix: (Units=GPa)
#
#
# Indices 1 2 3 4 5 6 
#
# 1 110.2353 36.8834 28.3142 0.0000 0.0000 0.0000
# 2 36.8834 177.3251 43.7901 0.0000 0.0000 0.0000
# 3 28.3142 43.7901 85.1853 0.0000 0.0000 0.0000
# 4 0.0000 0.0000 0.0000 38.9164 0.0000 0.0000
# 5 0.0000 0.0000 0.0000 0.0000 42.4250 0.0000
# 6 0.0000 0.0000 0.0000 0.0000 0.0000 39.6797
#
#
#
# Elastic Compliance Matrix: (Units=1/GPa)
#
#
# Indices 1 2 3 4 5 6 
#
# 1 0.010246 -0.001478 -0.002646 0.000000 0.000000 0.000000
# 2 -0.001478 0.006672 -0.002939 0.000000 0.000000 0.000000
# 3 -0.002646 -0.002939 0.014129 0.000000 0.000000 0.000000
# 4 0.000000 0.000000 0.000000 0.025696 0.000000 0.000000
# 5 0.000000 0.000000 0.000000 0.000000 0.023571 0.000000
# 6 0.000000 0.000000 0.000000 0.000000 0.000000 0.025202
#
#
# Mechanical properties :
#
#
# Convention : Reuss Voigt Hill
#
# Bulk Modulus (GPa) = 59.09290 65.63569 62.36430
# Shear Modulus (GPa) = 39.91003 41.78808 40.84906
#
# Velocity S-wave (km/s) = 4.64739 4.75548 4.70174
# Velocity P-wave (km/s) = 7.79596 8.10389 7.95142
#
# Compressibility (1/GPa) = 0.01692251
#
# Stress axis : x y z
#
# Youngs Moduli (GPa) = 97.60382 149.86972 70.77496
#
# Poissons Ratio (x) = 0.22146 0.18726
# Poissons Ratio (y) = 0.14423 0.20800
# Poissons Ratio (z) = 0.25824 0.44045
#
# Static dielectric constant tensor:
#      x y z
#    x 1.670250 0.000000 0.000000 
#    y 0.000000 1.648550 0.000000 
#    z 0.000000 0.000000 1.709350 
# 
# From -- ./inp_files/12548.got.cif
#   From: 2010.05.17/outbox.ucp.g08.bks.cvg/sg62_7_cif.got.tgz:12548.got - 2010.06.11 16:29:25.
