data_PCOD9468461
_publ_section_title
;
Structure prediction by ZEFSAII (Michael W. Deem and Ramdas Pophale) SiO2 
 PCOD9468461
Probable space group: C M C M
;
_chemical_formula_sum "Si O2"
_cell_formula_units_Z 44
_cell_length_a 11.693097
_cell_length_b 13.720573
_cell_length_c 14.455170
_cell_angle_alpha 90.000000
_cell_angle_beta 90.000000
_cell_angle_gamma 90.000000
_cell_volume 2319.129524
_symmetry_space_group_name_H-M "C M C M"
_symmetry_group_IT_number 63
_symmetry_cell_setting 'orthorhombic'
loop_
_space_group_symop_operation_xyz
x,y,z
-x,-y,1/2+z
x,-y,-z
-x,y,1/2-z
-x,-y,-z
x,y,1/2-z
-x,y,z
x,-y,1/2+z
1/2+x,1/2+y,z
1/2-x,1/2-y,1/2+z
1/2+x,1/2-y,-z
1/2-x,1/2+y,1/2-z
1/2-x,1/2-y,-z
1/2+x,1/2+y,1/2-z
1/2-x,1/2+y,z
1/2+x,1/2-y,1/2+z
loop_
_atom_site_type_symbol
_atom_site_label
_atom_site_fract_x
_atom_site_fract_y
_atom_site_fract_z
Si Si1 0.863923 0.655209 0.250000
Si Si2 0.000000 0.689304 0.750000
Si Si3 0.244525 0.869999 0.250000
Si Si4 0.500000 0.378164 0.857378
Si Si5 0.733754 0.471848 0.600580
O O1 0.804005 0.761086 0.250000
O O2 0.818031 0.594757 0.338441
O O3 0.000000 0.663885 0.250000
O O4 0.882672 0.631851 0.750000
O O5 0.000000 0.762611 0.661953
O O6 0.208860 0.931266 0.339762
O O7 0.500000 0.417135 0.750000
O O8 0.385812 0.413862 0.906166
O O9 0.777837 0.500000 0.500000
#
# Coordination Sequence:
#
# PCOD9468461 Si02
#       5
#     8   4   8   8  16
#     4  11  24  43  59  91 129 160 201 251 303 365
#     4  10  18  40  66  84 116 170 198 244 308 360
#     4  11  22  41  66  83 124 164 202 247 310 353
#     4  10  17  43  64  84 125 158 200 261 291 358
#     4  11  24  41  64  93 123 160 205 252 302 359
#
# _framework density 18.972636000000001
#
# number of rings (size 3 to 8) (size 9 to 14) (size 15 to 20)
#    0.545    0.727    7.273    0.545    7.636    2.182 
#    0.000    0.000    0.000    0.000    0.000    0.000 
#    0.000    0.000    0.000    0.000    0.000    0.000 
#
# Total GULP energy -122783.561961 kJ/mol
# GULP energy per Si atom -5581.070998 kJ/mol
# Density = 1.892945 g / cm^3
# Si number density = 18.972636 Si / 1000 Ang^3
#
#
#
# Elastic Constant Matrix: (Units=GPa)
#
#
# Indices 1 2 3 4 5 6 
#
# 1 90.2359 -12.2503 -10.6032 0.0000 0.0000 0.0000
# 2 -12.2503 74.7234 29.4444 0.0000 0.0000 0.0000
# 3 -10.6032 29.4444 107.0000 0.0000 0.0000 0.0000
# 4 0.0000 0.0000 0.0000 -2.6665 0.0000 0.0000
# 5 0.0000 0.0000 0.0000 0.0000 9.0310 0.0000
# 6 0.0000 0.0000 0.0000 0.0000 0.0000 17.6847
#
#
#
# Elastic Compliance Matrix: (Units=1/GPa)
#
#
# Indices 1 2 3 4 5 6 
#
# 1 0.011379 0.001594 0.000689 0.000000 0.000000 0.000000
# 2 0.001594 0.015234 -0.004034 0.000000 0.000000 0.000000
# 3 0.000689 -0.004034 0.010524 0.000000 0.000000 0.000000
# 4 0.000000 0.000000 0.000000 -0.375027 0.000000 0.000000
# 5 0.000000 0.000000 0.000000 0.000000 0.110730 0.000000
# 6 0.000000 0.000000 0.000000 0.000000 0.000000 0.056546
#
#
# Mechanical properties :
#
#
# Convention : Reuss Voigt Hill
#
# Bulk Modulus (GPa) = 29.73074 31.68238 30.70656
# Shear Modulus (GPa) = -32.07170 22.50108 -4.78531
#
# Velocity S-wave (km/s) = -4.11593 3.44754 -1.58987
# Velocity P-wave (km/s) = 2.62364 5.70811 3.58462
#
# Compressibility (1/GPa) = 0.03363522
#
# Stress axis : x y z
#
# Youngs Moduli (GPa) = 87.87789 65.64432 95.01947
#
# Poissons Ratio (x) = -0.10464 -0.06547
# Poissons Ratio (y) = -0.14008 0.38331
# Poissons Ratio (z) = -0.06055 0.26481
#
# Static dielectric constant tensor:
#      x y z
#    x 1.648560 0.000000 0.000000 
#    y 0.000000 1.647260 0.000000 
#    z 0.000000 0.000000 1.663340 
# 
# From -- ./inp_files/28555.got.cif
#   From: 2010.05.17/outbox.cif.g08.bks.cpg/sg63_15_cif.got.tgz:28555.got - 2010.06.03 15:47:04.
