data_PCOD9468775
_publ_section_title
;
Structure prediction by ZEFSAII (Michael W. Deem and Ramdas Pophale) SiO2 
 PCOD9468775
Probable space group: C M C M
;
_chemical_formula_sum "Si O2"
_cell_formula_units_Z 80
_cell_length_a 17.224495
_cell_length_b 24.079614
_cell_length_c 9.140125
_cell_angle_alpha 90.000000
_cell_angle_beta 90.000000
_cell_angle_gamma 90.000000
_cell_volume 3790.950850
_symmetry_space_group_name_H-M "C M C M"
_symmetry_group_IT_number 63
_symmetry_cell_setting 'orthorhombic'
loop_
_space_group_symop_operation_xyz
x,y,z
-x,-y,1/2+z
x,-y,-z
-x,y,1/2-z
-x,-y,-z
x,y,1/2-z
-x,y,z
x,-y,1/2+z
1/2+x,1/2+y,z
1/2-x,1/2-y,1/2+z
1/2+x,1/2-y,-z
1/2-x,1/2+y,1/2-z
1/2-x,1/2-y,-z
1/2+x,1/2+y,1/2-z
1/2-x,1/2+y,z
1/2+x,1/2-y,1/2+z
loop_
_atom_site_type_symbol
_atom_site_label
_atom_site_fract_x
_atom_site_fract_y
_atom_site_fract_z
Si Si1 0.217550 0.698421 0.086484
Si Si2 0.000000 0.381744 0.574494
Si Si3 0.000000 0.741638 0.926138
Si Si4 0.388418 0.657021 0.087480
Si Si5 0.347231 0.099745 0.923032
Si Si6 0.171746 0.057464 0.576816
O O1 0.184635 0.708612 0.250000
O O2 0.296976 0.665135 0.105457
O O3 0.250000 0.750000 0.000000
O O4 0.165824 0.662941 0.977308
O O5 0.076089 0.414335 0.515072
O O6 0.000000 0.378641 0.750000
O O7 0.000000 0.317622 0.509410
O O8 0.071635 0.784611 0.958544
O O9 0.000000 0.730512 0.750000
O O10 0.418444 0.643573 0.250000
O O11 0.387318 0.605559 0.977577
O O12 0.362042 0.096835 0.750000
O O13 0.264395 0.070137 0.953457
O O14 0.166071 0.053314 0.750000
O O15 0.152514 0.000000 0.500000
#
# Coordination Sequence:
#
# PCOD9468775 Si02
#       6
#    16   8   8  16  16  16
#     4  10  18  29  48  75 106 142 183 228 274 325
#     4  12  24  36  55  84 117 152 185 224 272 332
#     4  10  20  36  57  82 117 158 189 222 272 328
#     4   9  19  34  53  78 109 144 184 226 271 325
#     4  10  21  37  55  77 107 144 184 227 275 331
#     4  10  21  38  62  85 107 139 182 234 286 331
#
# _framework density 21.102886000000002
#
# number of rings (size 3 to 8) (size 9 to 14) (size 15 to 20)
#    0.000    2.000    0.000    3.900    0.000    5.600 
#    0.000    1.000    0.000    0.000    0.000    0.000 
#    0.000    0.000    0.000    0.000    0.000    0.000 
#
# Total GULP energy -222683.302388 kJ/mol
# GULP energy per Si atom -5567.082560 kJ/mol
# Density = 2.105485 g / cm^3
# Si number density = 21.102886 Si / 1000 Ang^3
#
#
#
# Elastic Constant Matrix: (Units=GPa)
#
#
# Indices 1 2 3 4 5 6 
#
# 1 61.4457 -18.9912 9.9745 0.0000 0.0000 0.0000
# 2 -18.9912 44.6800 27.2386 0.0000 0.0000 0.0000
# 3 9.9745 27.2386 91.6708 0.0000 0.0000 0.0000
# 4 0.0000 0.0000 0.0000 27.6607 0.0000 0.0000
# 5 0.0000 0.0000 0.0000 0.0000 5.1093 0.0000
# 6 0.0000 0.0000 0.0000 0.0000 0.0000 15.5443
#
#
#
# Elastic Compliance Matrix: (Units=1/GPa)
#
#
# Indices 1 2 3 4 5 6 
#
# 1 0.021193 0.012718 -0.006085 0.000000 0.000000 0.000000
# 2 0.012718 0.034964 -0.011773 0.000000 0.000000 0.000000
# 3 -0.006085 -0.011773 0.015069 0.000000 0.000000 0.000000
# 4 0.000000 0.000000 0.000000 0.036152 0.000000 0.000000
# 5 0.000000 0.000000 0.000000 0.000000 0.195722 0.000000
# 6 0.000000 0.000000 0.000000 0.000000 0.000000 0.064332
#
#
# Mechanical properties :
#
#
# Convention : Reuss Voigt Hill
#
# Bulk Modulus (GPa) = 16.40805 26.02671 21.21738
# Shear Modulus (GPa) = 12.56195 21.63451 17.09823
#
# Velocity S-wave (km/s) = 2.44247 3.20534 2.84955
# Velocity P-wave (km/s) = 3.96816 5.10479 4.57194
#
# Compressibility (1/GPa) = 0.06094571
#
# Stress axis : x y z
#
# Youngs Moduli (GPa) = 47.18552 28.60075 66.36231
#
# Poissons Ratio (x) = -0.36373 0.40380
# Poissons Ratio (y) = -0.60008 0.78127
# Poissons Ratio (z) = 0.28711 0.33671
#
# Static dielectric constant tensor:
#      x y z
#    x 1.828540 0.000000 0.000000 
#    y 0.000000 3.664380 0.000000 
#    z 0.000000 0.000000 1.754630 
# 
# From -- ./inp_files/6540.got.cif
#   From: 2010.05.17/outbox.cif.g08.bks.cpg/sg63_4_cif.got.tgz:6540.got - 2010.06.03 15:47:04.
