data_PCOD9468835
_publ_section_title
;
Structure prediction by ZEFSAII (Michael W. Deem and Ramdas Pophale) SiO2 
 PCOD9468835
Probable space group: C M C M
;
_chemical_formula_sum "Si O2"
_cell_formula_units_Z 80
_cell_length_a 19.839414
_cell_length_b 34.209788
_cell_length_c 8.681871
_cell_angle_alpha 90.000000
_cell_angle_beta 90.000000
_cell_angle_gamma 90.000000
_cell_volume 5892.404488
_symmetry_space_group_name_H-M "C M C M"
_symmetry_group_IT_number 63
_symmetry_cell_setting 'orthorhombic'
loop_
_space_group_symop_operation_xyz
x,y,z
-x,-y,1/2+z
x,-y,-z
-x,y,1/2-z
-x,-y,-z
x,y,1/2-z
-x,y,z
x,-y,1/2+z
1/2+x,1/2+y,z
1/2-x,1/2-y,1/2+z
1/2+x,1/2-y,-z
1/2-x,1/2+y,1/2-z
1/2-x,1/2-y,-z
1/2+x,1/2+y,1/2-z
1/2-x,1/2+y,z
1/2+x,1/2-y,1/2+z
loop_
_atom_site_type_symbol
_atom_site_label
_atom_site_fract_x
_atom_site_fract_y
_atom_site_fract_z
Si Si1 0.220321 0.188960 0.434362
Si Si2 0.000000 0.832480 0.934048
Si Si3 0.368675 0.624209 0.565099
Si Si4 0.000000 0.254957 0.935901
Si Si5 0.078344 0.041957 0.935334
Si Si6 0.851636 0.265335 0.564266
O O1 0.216024 0.186987 0.250000
O O2 0.194977 0.148453 0.504786
O O3 0.172028 0.224122 0.492629
O O4 0.295619 0.202643 0.479519
O O5 0.000000 0.833534 0.750000
O O6 0.065803 0.853864 0.999238
O O7 0.000000 0.788170 0.992979
O O8 0.370626 0.626068 0.750000
O O9 0.376628 0.578943 0.517410
O O10 0.071312 0.274252 0.979796
O O11 0.000000 0.251419 0.750000
O O12 0.078694 0.040164 0.750000
O O13 0.000000 0.048837 0.983337
O O14 0.099346 0.000000 0.000000
O O15 0.848533 0.261143 0.750000
#
# Coordination Sequence:
#
# PCOD9468835 Si02
#       6
#    16   8  16   8  16  16
#     4  10  19  29  41  61  83 105 138 176 208 241
#     4  12  22  28  39  63  82 102 141 183 209 238
#     4  11  20  32  45  58  81 112 139 169 210 253
#     4  10  18  30  46  59  77 110 141 171 215 254
#     4   9  18  31  44  59  79 104 135 169 205 243
#     4   9  18  30  43  58  81 109 137 172 213 250
#
# _framework density 13.576801
#
# number of rings (size 3 to 8) (size 9 to 14) (size 15 to 20)
#    0.000    2.000    3.000    2.100    0.000    2.400 
#    0.000    0.000    0.000    0.000    0.000    0.000 
#    0.000    0.000    0.000    0.900    0.000    9.400 
#
# Total GULP energy -223015.974660 kJ/mol
# GULP energy per Si atom -5575.399367 kJ/mol
# Density = 1.354590 g / cm^3
# Si number density = 13.576801 Si / 1000 Ang^3
#
#
#
# Elastic Constant Matrix: (Units=GPa)
#
#
# Indices 1 2 3 4 5 6 
#
# 1 102.6419 54.7205 24.5606 0.0000 0.0000 0.0000
# 2 54.7205 103.6267 22.2203 0.0000 0.0000 0.0000
# 3 24.5606 22.2203 16.0824 0.0000 0.0000 0.0000
# 4 0.0000 0.0000 0.0000 20.5313 0.0000 0.0000
# 5 0.0000 0.0000 0.0000 0.0000 15.8929 0.0000
# 6 0.0000 0.0000 0.0000 0.0000 0.0000 18.7772
#
#
#
# Elastic Compliance Matrix: (Units=1/GPa)
#
#
# Indices 1 2 3 4 5 6 
#
# 1 0.016889 -0.004814 -0.019142 0.000000 0.000000 0.000000
# 2 -0.004814 0.015085 -0.013490 0.000000 0.000000 0.000000
# 3 -0.019142 -0.013490 0.110051 0.000000 0.000000 0.000000
# 4 0.000000 0.000000 0.000000 0.048706 0.000000 0.000000
# 5 0.000000 0.000000 0.000000 0.000000 0.062921 0.000000
# 6 0.000000 0.000000 0.000000 0.000000 0.000000 0.053256
#
#
# Mechanical properties :
#
#
# Convention : Reuss Voigt Hill
#
# Bulk Modulus (GPa) = 14.89568 47.26154 31.07861
# Shear Modulus (GPa) = 12.37080 19.09691 15.73385
#
# Velocity S-wave (km/s) = 3.02184 3.75451 3.40792
# Velocity P-wave (km/s) = 4.81358 7.32675 6.19886
#
# Compressibility (1/GPa) = 0.06713357
#
# Stress axis : x y z
#
# Youngs Moduli (GPa) = 59.20876 66.29234 9.08671
#
# Poissons Ratio (x) = 0.31913 0.17394
# Poissons Ratio (y) = 0.28503 0.12258
# Poissons Ratio (z) = 1.13336 0.89428
#
# Static dielectric constant tensor:
#      x y z
#    x 1.462620 0.000000 0.000000 
#    y 0.000000 1.433330 0.000000 
#    z 0.000000 0.000000 1.455240 
# 
# From -- ./inp_files/8939.got.cif
#   From: 2010.05.17/outbox.cif.g08.bks.cpg/sg63_5_cif.got.tgz:8939.got - 2010.06.03 15:47:04.
