data_PCOD9468549
_publ_section_title
;
Structure prediction by ZEFSAII (Michael W. Deem and Ramdas Pophale) SiO2 
 PCOD9468549
Probable space group: C M C M
;
_chemical_formula_sum "Si O2"
_cell_formula_units_Z 88
_cell_length_a 20.482926
_cell_length_b 33.510637
_cell_length_c 8.934361
_cell_angle_alpha 90.000000
_cell_angle_beta 90.000000
_cell_angle_gamma 90.000000
_cell_volume 6132.508741
_symmetry_space_group_name_H-M "C M C M"
_symmetry_group_IT_number 63
_symmetry_cell_setting 'orthorhombic'
loop_
_space_group_symop_operation_xyz
x,y,z
-x,-y,1/2+z
x,-y,-z
-x,y,1/2-z
-x,-y,-z
x,y,1/2-z
-x,y,z
x,-y,1/2+z
1/2+x,1/2+y,z
1/2-x,1/2-y,1/2+z
1/2+x,1/2-y,-z
1/2-x,1/2+y,1/2-z
1/2-x,1/2-y,-z
1/2+x,1/2+y,1/2-z
1/2-x,1/2+y,z
1/2+x,1/2-y,1/2+z
loop_
_atom_site_type_symbol
_atom_site_label
_atom_site_fract_x
_atom_site_fract_y
_atom_site_fract_z
Si Si1 0.000000 0.955372 0.069545
Si Si2 0.865630 0.956353 0.570181
Si Si3 0.572741 0.325811 0.930199
Si Si4 0.278704 0.189051 0.577204
Si Si5 0.800984 0.123087 0.429156
Si Si6 0.353215 0.256751 0.422832
O O1 0.000000 0.955687 0.250000
O O2 0.932558 0.939268 0.002443
O O3 0.000000 0.000000 0.000000
O O4 0.874479 0.959795 0.750000
O O5 0.809898 0.923717 0.539309
O O6 0.853554 0.000000 0.500000
O O7 0.572229 0.325935 0.750000
O O8 0.500000 0.336746 0.983070
O O9 0.631025 0.355439 0.976755
O O10 0.593428 0.282130 0.987679
O O11 0.296226 0.184496 0.750000
O O12 0.257306 0.147175 0.505779
O O13 0.333582 0.214252 0.491475
O O14 0.213050 0.216434 0.569543
O O15 0.795477 0.128075 0.250000
O O16 0.371689 0.253083 0.250000
#
# Coordination Sequence:
#
# PCOD9468549 Si02
#       6
#     8  16  16  16  16  16
#     4  10  18  28  40  52  66  88 120 156 192 232
#     4  10  19  30  43  55  72  96 126 160 198 241
#     4   9  17  28  41  56  75 100 129 159 193 232
#     4   9  16  26  41  58  75  94 121 155 189 226
#     4   9  18  29  42  57  74  98 127 161 199 236
#     4   9  16  26  40  56  76  98 121 151 187 228
#
# _framework density 14.349755
#
# number of rings (size 3 to 8) (size 9 to 14) (size 15 to 20)
#    0.000    2.727    0.000    3.545    1.273    6.182 
#    0.000    0.000    0.000    0.000    0.000    0.000 
#    0.000    0.000    0.000    0.000    0.000    0.909 
#
# Total GULP energy -244990.059903 kJ/mol
# GULP energy per Si atom -5567.955907 kJ/mol
# Density = 1.431709 g / cm^3
# Si number density = 14.349755 Si / 1000 Ang^3
#
#
#
# Elastic Constant Matrix: (Units=GPa)
#
#
# Indices 1 2 3 4 5 6 
#
# 1 10.0199 14.0803 1.8922 0.0000 0.0000 0.0000
# 2 14.0803 82.1741 27.5478 0.0000 0.0000 0.0000
# 3 1.8922 27.5478 40.6508 0.0000 0.0000 0.0000
# 4 0.0000 0.0000 0.0000 18.9244 0.0000 0.0000
# 5 0.0000 0.0000 0.0000 0.0000 14.9920 0.0000
# 6 0.0000 0.0000 0.0000 0.0000 0.0000 21.8273
#
#
#
# Elastic Compliance Matrix: (Units=1/GPa)
#
#
# Indices 1 2 3 4 5 6 
#
# 1 0.136005 -0.027409 0.012243 0.000000 0.000000 0.000000
# 2 -0.027409 0.021270 -0.013138 0.000000 0.000000 0.000000
# 3 0.012243 -0.013138 0.032933 0.000000 0.000000 0.000000
# 4 0.000000 0.000000 0.000000 0.052842 0.000000 0.000000
# 5 0.000000 0.000000 0.000000 0.000000 0.066702 0.000000
# 6 0.000000 0.000000 0.000000 0.000000 0.000000 0.045814
#
#
# Mechanical properties :
#
#
# Convention : Reuss Voigt Hill
#
# Bulk Modulus (GPa) = 7.48495 24.43171 15.95833
# Shear Modulus (GPa) = 10.94792 17.10369 14.02581
#
# Velocity S-wave (km/s) = 2.76512 3.45616 3.12977
# Velocity P-wave (km/s) = 3.92708 5.74365 4.91993
#
# Compressibility (1/GPa) = 0.13360135
#
# Stress axis : x y z
#
# Youngs Moduli (GPa) = 7.35268 47.01430 30.36435
#
# Poissons Ratio (x) = 1.28859 -0.37176
# Poissons Ratio (y) = 0.20153 0.39894
# Poissons Ratio (z) = -0.09002 0.61769
#
# Static dielectric constant tensor:
#      x y z
#    x 1.466810 0.000000 0.000000 
#    y 0.000000 1.497510 0.000000 
#    z 0.000000 0.000000 1.480510 
# 
# From -- ./inp_files/8959.got.cif
#   From: 2010.05.17/outbox.cif.g08.bks.cpg/sg63_5_cif.got.tgz:8959.got - 2010.06.03 15:47:04.
