data_PCOD9468631
_publ_section_title
;
Structure prediction by ZEFSAII (Michael W. Deem and Ramdas Pophale) SiO2 
 PCOD9468631
Probable space group: C M C M
;
_chemical_formula_sum "Si O2"
_cell_formula_units_Z 96
_cell_length_a 17.178531
_cell_length_b 19.292652
_cell_length_c 14.445339
_cell_angle_alpha 90.000000
_cell_angle_beta 90.000000
_cell_angle_gamma 90.000000
_cell_volume 4787.465880
_symmetry_space_group_name_H-M "C M C M"
_symmetry_group_IT_number 63
_symmetry_cell_setting 'orthorhombic'
loop_
_space_group_symop_operation_xyz
x,y,z
-x,-y,1/2+z
x,-y,-z
-x,y,1/2-z
-x,-y,-z
x,y,1/2-z
-x,y,z
x,-y,1/2+z
1/2+x,1/2+y,z
1/2-x,1/2-y,1/2+z
1/2+x,1/2-y,-z
1/2-x,1/2+y,1/2-z
1/2-x,1/2-y,-z
1/2+x,1/2+y,1/2-z
1/2-x,1/2+y,z
1/2+x,1/2-y,1/2+z
loop_
_atom_site_type_symbol
_atom_site_label
_atom_site_fract_x
_atom_site_fract_y
_atom_site_fract_z
Si Si1 0.769194 0.543628 0.137459
Si Si2 0.836007 0.166978 0.363734
Si Si3 0.192272 0.323308 0.137068
Si Si4 0.000000 0.957977 0.094161
Si Si5 0.165314 0.911639 0.138452
Si Si6 0.000000 0.890916 0.647294
Si Si7 0.088871 0.545105 0.863289
O O1 0.770345 0.544712 0.250000
O O2 0.733945 0.616355 0.106079
O O3 0.708813 0.482857 0.110839
O O4 0.854363 0.517908 0.107837
O O5 0.834869 0.165739 0.250000
O O6 0.826912 0.246050 0.394118
O O7 0.918598 0.134618 0.394643
O O8 0.190604 0.322602 0.250000
O O9 0.278241 0.349336 0.109853
O O10 0.130942 0.382937 0.109101
O O11 0.000000 0.026290 0.158068
O O12 0.922570 0.913940 0.105561
O O13 0.000000 0.000000 0.000000
O O14 0.163072 0.911701 0.250000
O O15 0.000000 0.858996 0.750000
O O16 0.088146 0.545026 0.750000
O O17 0.000000 0.540169 0.894529
#
# Coordination Sequence:
#
# PCOD9468631 Si02
#       7
#    16  16  16   8  16   8  16
#     4   8  13  22  38  57  81 116 148 173 209 263
#     4   9  15  23  39  64  90 112 144 183 219 265
#     4   8  15  24  39  63  89 115 142 176 218 273
#     4  12  22  30  46  70  92 113 156 206 229 260
#     4   9  16  30  47  64  90 124 151 175 226 283
#     4  10  18  28  46  70  94 119 143 184 242 277
#     4   8  13  20  31  51  82 114 138 165 210 259
#
# _framework density 20.052361999999999
#
# number of rings (size 3 to 8) (size 9 to 14) (size 15 to 20)
#    0.000    3.167    1.667    2.750    1.167    0.000 
#    0.000    0.000    1.833    1.000    0.000    0.000 
#    0.000   10.667    0.000    0.000    0.000    0.000 
#
# Total GULP energy -267687.878788 kJ/mol
# GULP energy per Si atom -5576.830808 kJ/mol
# Density = 2.000672 g / cm^3
# Si number density = 20.052362 Si / 1000 Ang^3
#
#
#
# Elastic Constant Matrix: (Units=GPa)
#
#
# Indices 1 2 3 4 5 6 
#
# 1 211.2682 86.6826 8.0538 0.0000 0.0000 0.0000
# 2 86.6826 124.0481 11.7658 0.0000 0.0000 0.0000
# 3 8.0538 11.7658 50.4662 0.0000 0.0000 0.0000
# 4 0.0000 0.0000 0.0000 7.2639 0.0000 0.0000
# 5 0.0000 0.0000 0.0000 0.0000 -2.1185 0.0000
# 6 0.0000 0.0000 0.0000 0.0000 0.0000 19.6718
#
#
#
# Elastic Compliance Matrix: (Units=1/GPa)
#
#
# Indices 1 2 3 4 5 6 
#
# 1 0.006636 -0.004639 0.000023 0.000000 0.000000 0.000000
# 2 -0.004639 0.011487 -0.001938 0.000000 0.000000 0.000000
# 3 0.000023 -0.001938 0.020263 0.000000 0.000000 0.000000
# 4 0.000000 0.000000 0.000000 0.137667 0.000000 0.000000
# 5 0.000000 0.000000 0.000000 0.000000 -0.472038 0.000000
# 6 0.000000 0.000000 0.000000 0.000000 0.000000 0.050834
#
#
# Mechanical properties :
#
#
# Convention : Reuss Voigt Hill
#
# Bulk Modulus (GPa) = 39.56074 66.53188 53.04631
# Shear Modulus (GPa) = -22.35971 23.58213 0.61121
#
# Velocity S-wave (km/s) = -3.34288 3.43305 0.55269
# Velocity P-wave (km/s) = 2.20720 6.99754 5.18832
#
# Compressibility (1/GPa) = 0.02527759
#
# Stress axis : x y z
#
# Youngs Moduli (GPa) = 150.69549 87.05526 49.35002
#
# Poissons Ratio (x) = 0.40387 -0.00111
# Poissons Ratio (y) = 0.69910 0.09563
# Poissons Ratio (z) = -0.00340 0.16869
#
# Static dielectric constant tensor:
#      x y z
#    x 1.702700 0.000000 0.000000 
#    y 0.000000 1.678270 0.000000 
#    z 0.000000 0.000000 1.549120 
# 
# From -- ./inp_files/45794.got.cif
#   From: 2010.05.17/outbox.cif.g08.bks.cpg/sg63_23_cif.got.tgz:45794.got - 2010.06.03 15:47:04.
