data_PCOD9468158
_publ_section_title
;
Structure prediction by ZEFSAII (Michael W. Deem and Ramdas Pophale) SiO2 
 PCOD9468158
Probable space group: C M C M
;
_chemical_formula_sum "Si O2"
_cell_formula_units_Z 96
_cell_length_a 27.008013
_cell_length_b 7.416413
_cell_length_c 22.239917
_cell_angle_alpha 90.000000
_cell_angle_beta 90.000000
_cell_angle_gamma 90.000000
_cell_volume 4454.712726
_symmetry_space_group_name_H-M "C M C M"
_symmetry_group_IT_number 63
_symmetry_cell_setting 'orthorhombic'
loop_
_space_group_symop_operation_xyz
x,y,z
-x,-y,1/2+z
x,-y,-z
-x,y,1/2-z
-x,-y,-z
x,y,1/2-z
-x,y,z
x,-y,1/2+z
1/2+x,1/2+y,z
1/2-x,1/2-y,1/2+z
1/2+x,1/2-y,-z
1/2-x,1/2+y,1/2-z
1/2-x,1/2-y,-z
1/2+x,1/2+y,1/2-z
1/2-x,1/2+y,z
1/2+x,1/2-y,1/2+z
loop_
_atom_site_type_symbol
_atom_site_label
_atom_site_fract_x
_atom_site_fract_y
_atom_site_fract_z
Si Si1 0.832173 0.872740 0.750000
Si Si2 0.608594 0.963528 0.822017
Si Si3 0.500000 0.017538 0.180695
Si Si4 0.293277 0.060972 0.125665
Si Si5 0.500000 0.545524 0.820686
Si Si6 0.267964 0.264216 0.250000
Si Si7 0.892271 0.967199 0.353909
Si Si8 0.303255 0.412549 0.064061
O O1 0.796428 0.048320 0.750000
O O2 0.867267 0.900049 0.693752
O O3 0.791469 0.717033 0.750000
O O4 0.612423 0.995933 0.750000
O O5 0.554447 0.029880 0.843739
O O6 0.655112 0.037291 0.859660
O O7 0.610591 0.743295 0.830885
O O8 0.500000 0.956339 0.250000
O O9 0.500000 0.236156 0.181261
O O10 0.282669 0.163899 0.188575
O O11 0.303987 0.197462 0.070726
O O12 0.243148 0.962254 0.107098
O O13 0.500000 0.488359 0.750000
O O14 0.549840 0.489562 0.854597
O O15 0.856266 0.976586 0.410787
O O16 0.294425 0.500000 0.000000
#
# Coordination Sequence:
#
# PCOD9468158 Si02
#       8
#     8  16   8  16   8   8  16  16
#     4  12  18  29  48  74 112 125 156 199 259 301
#     4   9  13  23  41  68  97 119 146 191 251 294
#     4   7  12  18  34  63  97 121 136 178 243 302
#     4  11  19  32  51  70  99 124 160 204 245 293
#     4   9  14  22  45  71  96 117 154 195 257 300
#     4  12  18  30  48  78 100 124 154 205 259 297
#     4  10  16  28  45  69  98 129 154 202 244 296
#     4  11  23  35  47  67 100 139 170 196 234 290
#
# _framework density 21.550212999999999
#
# number of rings (size 3 to 8) (size 9 to 14) (size 15 to 20)
#    0.000    1.833    7.500    1.500    0.000    0.000 
#    0.000    0.417    0.000    0.000    0.000    1.750 
#    0.000    4.000    0.000    0.000    0.000    0.000 
#
# Total GULP energy -267976.497355 kJ/mol
# GULP energy per Si atom -5582.843695 kJ/mol
# Density = 2.150116 g / cm^3
# Si number density = 21.550213 Si / 1000 Ang^3
#
#
#
# Elastic Constant Matrix: (Units=GPa)
#
#
# Indices 1 2 3 4 5 6 
#
# 1 249.3225 20.3914 43.5901 0.0000 0.0000 0.0000
# 2 20.3914 46.2670 5.6677 0.0000 0.0000 0.0000
# 3 43.5901 5.6677 47.2784 0.0000 0.0000 0.0000
# 4 0.0000 0.0000 0.0000 14.1710 0.0000 0.0000
# 5 0.0000 0.0000 0.0000 0.0000 19.5010 0.0000
# 6 0.0000 0.0000 0.0000 0.0000 0.0000 15.4059
#
#
#
# Elastic Compliance Matrix: (Units=1/GPa)
#
#
# Indices 1 2 3 4 5 6 
#
# 1 0.004900 -0.001630 -0.004322 0.000000 0.000000 0.000000
# 2 -0.001630 0.022478 -0.001192 0.000000 0.000000 0.000000
# 3 -0.004322 -0.001192 0.025279 0.000000 0.000000 0.000000
# 4 0.000000 0.000000 0.000000 0.070567 0.000000 0.000000
# 5 0.000000 0.000000 0.000000 0.000000 0.051279 0.000000
# 6 0.000000 0.000000 0.000000 0.000000 0.000000 0.064910
#
#
# Mechanical properties :
#
#
# Convention : Reuss Voigt Hill
#
# Bulk Modulus (GPa) = 26.06265 53.57403 39.81834
# Shear Modulus (GPa) = 18.76235 28.03016 23.39626
#
# Velocity S-wave (km/s) = 2.95385 3.61042 3.29851
# Velocity P-wave (km/s) = 4.87379 6.50340 5.74665
#
# Compressibility (1/GPa) = 0.03836908
#
# Stress axis : x y z
#
# Youngs Moduli (GPa) = 204.08775 44.48778 39.55827
#
# Poissons Ratio (x) = 0.07252 0.17098
# Poissons Ratio (y) = 0.33268 0.04714
# Poissons Ratio (z) = 0.88211 0.05302
#
# Static dielectric constant tensor:
#      x y z
#    x 1.877860 0.000000 0.000000 
#    y 0.000000 1.894070 0.000000 
#    z 0.000000 0.000000 1.738350 
# 
# From -- ./inp_files/65092.got.cif
#   From: 2010.05.17/outbox.cif.g08.bks.cpg/sg63_33_cif.got.tgz:65092.got - 2010.06.03 15:47:04.
