data_PCOD9468979
_publ_section_title
;
Structure prediction by ZEFSAII (Michael W. Deem and Ramdas Pophale) SiO2 
 PCOD9468979
Probable space group: C M C M
;
_chemical_formula_sum "Si O2"
_cell_formula_units_Z 64
_cell_length_a 7.932032
_cell_length_b 20.895622
_cell_length_c 20.381583
_cell_angle_alpha 90.000000
_cell_angle_beta 90.000000
_cell_angle_gamma 90.000000
_cell_volume 3378.140223
_symmetry_space_group_name_H-M "C M C M"
_symmetry_group_IT_number 63
_symmetry_cell_setting 'orthorhombic'
loop_
_space_group_symop_operation_xyz
x,y,z
-x,-y,1/2+z
x,-y,-z
-x,y,1/2-z
-x,-y,-z
x,y,1/2-z
-x,y,z
x,-y,1/2+z
1/2+x,1/2+y,z
1/2-x,1/2-y,1/2+z
1/2+x,1/2-y,-z
1/2-x,1/2+y,1/2-z
1/2-x,1/2-y,-z
1/2+x,1/2+y,1/2-z
1/2-x,1/2+y,z
1/2+x,1/2-y,1/2+z
loop_
_atom_site_type_symbol
_atom_site_label
_atom_site_fract_x
_atom_site_fract_y
_atom_site_fract_z
Si Si1 0.296261 0.275811 0.571966
Si Si2 0.697105 0.943162 0.082032
Si Si3 0.705977 0.830705 0.175403
Si Si4 0.195621 0.081622 0.064372
O O1 0.500000 0.278096 0.574440
O O2 0.250000 0.250000 0.500000
O O3 0.238049 0.226678 0.627783
O O4 0.234033 0.348468 0.581330
O O5 0.500000 0.929972 0.069435
O O6 0.753930 0.897380 0.140635
O O7 0.718260 0.018631 0.093694
O O8 0.790611 0.925724 0.014568
O O9 0.765295 0.825330 0.250000
O O10 0.500000 0.829098 0.176884
O O11 0.000000 0.079023 0.083161
#
# Coordination Sequence:
#
# PCOD9468979 Si02
#       4
#    16  16  16  16
#     4  10  19  32  52  76 101 132 168 210 254 298
#     4  10  18  30  51  74  97 130 169 207 246 295
#     4   9  18  33  52  74 100 133 174 212 250 301
#     4  10  19  30  48  75 105 129 158 207 258 296
#
# _framework density 18.945333999999999
#
# number of rings (size 3 to 8) (size 9 to 14) (size 15 to 20)
#    0.000    2.250    2.500    3.000    0.000    1.000 
#    0.000    1.250    0.000    8.250    0.000    0.000 
#    0.000    0.000    0.000    0.000    0.000    0.000 
#
# Total GULP energy -178515.772629 kJ/mol
# GULP energy per Si atom -5578.617895 kJ/mol
# Density = 1.890221 g / cm^3
# Si number density = 18.945334 Si / 1000 Ang^3
#
#
#
# Elastic Constant Matrix: (Units=GPa)
#
#
# Indices 1 2 3 4 5 6 
#
# 1 20.3289 -0.9523 -2.2839 0.0000 0.0000 0.0000
# 2 -0.9523 189.2219 91.5652 0.0000 0.0000 0.0000
# 3 -2.2839 91.5652 127.7811 0.0000 0.0000 0.0000
# 4 0.0000 0.0000 0.0000 25.7395 0.0000 0.0000
# 5 0.0000 0.0000 0.0000 0.0000 12.9504 0.0000
# 6 0.0000 0.0000 0.0000 0.0000 0.0000 10.3036
#
#
#
# Elastic Compliance Matrix: (Units=1/GPa)
#
#
# Indices 1 2 3 4 5 6 
#
# 1 0.049299 -0.000273 0.001077 0.000000 0.000000 0.000000
# 2 -0.000273 0.008092 -0.005803 0.000000 0.000000 0.000000
# 3 0.001077 -0.005803 0.012004 0.000000 0.000000 0.000000
# 4 0.000000 0.000000 0.000000 0.038851 0.000000 0.000000
# 5 0.000000 0.000000 0.000000 0.000000 0.077218 0.000000
# 6 0.000000 0.000000 0.000000 0.000000 0.000000 0.097053
#
#
# Mechanical properties :
#
#
# Convention : Reuss Voigt Hill
#
# Bulk Modulus (GPa) = 16.83620 57.10998 36.97309
# Shear Modulus (GPa) = 16.00956 26.39890 21.20423
#
# Velocity S-wave (km/s) = 2.91011 3.73691 3.34912
# Velocity P-wave (km/s) = 4.49418 6.98780 5.87482
#
# Compressibility (1/GPa) = 0.05939582
#
# Stress axis : x y z
#
# Youngs Moduli (GPa) = 20.28424 123.58518 83.30882
#
# Poissons Ratio (x) = 0.03373 -0.08970
# Poissons Ratio (y) = 0.00554 0.48345
# Poissons Ratio (z) = -0.02184 0.71718
#
# Static dielectric constant tensor:
#      x y z
#    x 1.684670 0.000000 0.000000 
#    y 0.000000 1.690130 0.000000 
#    z 0.000000 0.000000 1.616590 
# 
# From -- ./inp_files/50618.got.cif
#   From: 2010.05.17/outbox.cif.g08.bks.cpg/sg63_26_cif.got.tgz:50618.got - 2010.06.03 15:47:04.
