data_PCOD9468656
_publ_section_title
;
Structure prediction by ZEFSAII (Michael W. Deem and Ramdas Pophale) SiO2 
 PCOD9468656
Probable space group: C M C M
;
_chemical_formula_sum "Si O2"
_cell_formula_units_Z 80
_cell_length_a 21.284196
_cell_length_b 14.544560
_cell_length_c 14.967908
_cell_angle_alpha 90.000000
_cell_angle_beta 90.000000
_cell_angle_gamma 90.000000
_cell_volume 4633.604290
_symmetry_space_group_name_H-M "C M C M"
_symmetry_group_IT_number 63
_symmetry_cell_setting 'orthorhombic'
loop_
_space_group_symop_operation_xyz
x,y,z
-x,-y,1/2+z
x,-y,-z
-x,y,1/2-z
-x,-y,-z
x,y,1/2-z
-x,y,z
x,-y,1/2+z
1/2+x,1/2+y,z
1/2-x,1/2-y,1/2+z
1/2+x,1/2-y,-z
1/2-x,1/2+y,1/2-z
1/2-x,1/2-y,-z
1/2+x,1/2+y,1/2-z
1/2-x,1/2+y,z
1/2+x,1/2-y,1/2+z
loop_
_atom_site_type_symbol
_atom_site_label
_atom_site_fract_x
_atom_site_fract_y
_atom_site_fract_z
Si Si1 0.264704 0.581757 0.645293
Si Si2 0.863173 0.400777 0.029637
Si Si3 0.786138 0.721403 0.090503
Si Si4 0.573324 0.252951 0.643600
Si Si5 0.672415 0.599937 0.352321
O O1 0.249878 0.565092 0.750000
O O2 0.200845 0.582948 0.587437
O O3 0.297403 0.681277 0.637179
O O4 0.308799 0.499370 0.610518
O O5 0.907759 0.338515 0.090526
O O6 0.887625 0.500000 0.000000
O O7 0.843243 0.341050 0.942771
O O8 0.735980 0.660251 0.143763
O O9 0.750000 0.750000 0.000000
O O10 0.586646 0.240281 0.750000
O O11 0.500000 0.273811 0.633677
O O12 0.617795 0.335769 0.608666
O O13 0.653614 0.583363 0.250000
#
# Coordination Sequence:
#
# PCOD9468656 Si02
#       5
#    16  16  16  16  16
#     4  10  19  30  48  76 108 135 164 207 260 319
#     4  11  20  32  50  79 104 134 167 215 266 306
#     4  10  18  28  47  74 104 133 156 211 262 307
#     4  10  21  37  54  72 101 141 181 214 246 302
#     4  10  18  30  50  75 101 131 169 209 254 306
#
# _framework density 17.265177000000001
#
# number of rings (size 3 to 8) (size 9 to 14) (size 15 to 20)
#    0.000    1.800    6.000    1.200    0.000    0.400 
#    0.000    0.000    0.000    2.400    0.000    0.000 
#    0.000    0.000    0.000    0.000    0.000    0.000 
#
# Total GULP energy -222853.117930 kJ/mol
# GULP energy per Si atom -5571.327948 kJ/mol
# Density = 1.722588 g / cm^3
# Si number density = 17.265177 Si / 1000 Ang^3
#
#
#
# Elastic Constant Matrix: (Units=GPa)
#
#
# Indices 1 2 3 4 5 6 
#
# 1 56.6986 41.4993 15.4402 0.0000 0.0000 0.0000
# 2 41.4993 144.6153 14.3210 0.0000 0.0000 0.0000
# 3 15.4402 14.3210 41.5142 0.0000 0.0000 0.0000
# 4 0.0000 0.0000 0.0000 27.0866 0.0000 0.0000
# 5 0.0000 0.0000 0.0000 0.0000 15.7065 0.0000
# 6 0.0000 0.0000 0.0000 0.0000 0.0000 11.9742
#
#
#
# Elastic Compliance Matrix: (Units=1/GPa)
#
#
# Indices 1 2 3 4 5 6 
#
# 1 0.024045 -0.006227 -0.006795 0.000000 0.000000 0.000000
# 2 -0.006227 0.008772 -0.000710 0.000000 0.000000 0.000000
# 3 -0.006795 -0.000710 0.026860 0.000000 0.000000 0.000000
# 4 0.000000 0.000000 0.000000 0.036919 0.000000 0.000000
# 5 0.000000 0.000000 0.000000 0.000000 0.063668 0.000000
# 6 0.000000 0.000000 0.000000 0.000000 0.000000 0.083513
#
#
# Mechanical properties :
#
#
# Convention : Reuss Voigt Hill
#
# Bulk Modulus (GPa) = 31.04290 42.81657 36.92974
# Shear Modulus (GPa) = 17.73178 22.39130 20.06154
#
# Velocity S-wave (km/s) = 3.20820 3.60516 3.41246
# Velocity P-wave (km/s) = 5.63405 6.49483 6.07969
#
# Compressibility (1/GPa) = 0.03221348
#
# Stress axis : x y z
#
# Youngs Moduli (GPa) = 41.58798 113.99634 37.22969
#
# Poissons Ratio (x) = 0.70989 0.25297
# Poissons Ratio (y) = 0.25898 0.02643
# Poissons Ratio (z) = 0.28259 0.08094
#
# Static dielectric constant tensor:
#      x y z
#    x 1.567760 0.000000 0.000000 
#    y 0.000000 1.639450 0.000000 
#    z 0.000000 0.000000 1.504510 
# 
# From -- ./inp_files/35087.got.cif
#   From: 2010.05.17/outbox.cif.g08.bks.cpg/sg63_18_cif.got.tgz:35087.got - 2010.06.03 15:47:04.
