data_PCOD9468377
_publ_section_title
;
Structure prediction by ZEFSAII (Michael W. Deem and Ramdas Pophale) SiO2 
 PCOD9468377
Probable space group: C M C M
;
_chemical_formula_sum "Si O2"
_cell_formula_units_Z 104
_cell_length_a 29.138110
_cell_length_b 21.428877
_cell_length_c 9.728607
_cell_angle_alpha 90.000000
_cell_angle_beta 90.000000
_cell_angle_gamma 90.000000
_cell_volume 6074.512784
_symmetry_space_group_name_H-M "C M C M"
_symmetry_group_IT_number 63
_symmetry_cell_setting 'orthorhombic'
loop_
_space_group_symop_operation_xyz
x,y,z
-x,-y,1/2+z
x,-y,-z
-x,y,1/2-z
-x,-y,-z
x,y,1/2-z
-x,y,z
x,-y,1/2+z
1/2+x,1/2+y,z
1/2-x,1/2-y,1/2+z
1/2+x,1/2-y,-z
1/2-x,1/2+y,1/2-z
1/2-x,1/2-y,-z
1/2+x,1/2+y,1/2-z
1/2-x,1/2+y,z
1/2+x,1/2-y,1/2+z
loop_
_atom_site_type_symbol
_atom_site_label
_atom_site_fract_x
_atom_site_fract_y
_atom_site_fract_z
Si Si1 0.369514 0.198951 0.582792
Si Si2 0.210601 0.938555 0.586099
Si Si3 0.053834 0.062239 0.413723
Si Si4 0.051146 0.610478 0.911525
Si Si5 0.884069 0.500000 0.500000
Si Si6 0.685265 0.897005 0.905997
Si Si7 0.132151 0.157790 0.416223
O O1 0.366077 0.195277 0.750000
O O2 0.417879 0.167902 0.537409
O O3 0.331534 0.155130 0.512678
O O4 0.366546 0.270654 0.537874
O O5 0.204901 0.949912 0.750000
O O6 0.263510 0.920125 0.562475
O O7 0.176724 0.882439 0.545588
O O8 0.199302 0.000000 0.500000
O O9 0.060720 0.050821 0.250000
O O10 0.087163 0.118470 0.456766
O O11 0.000000 0.077257 0.433825
O O12 0.064326 0.000000 0.500000
O O13 0.046064 0.621114 0.750000
O O14 0.000000 0.604780 0.972439
O O15 0.081863 0.548575 0.927051
O O16 0.849900 0.544597 0.414811
O O17 0.684651 0.872542 0.750000
O O18 0.131298 0.160683 0.250000
#
# Coordination Sequence:
#
# PCOD9468377 Si02
#       7
#    16  16  16  16   8  16  16
#     4   9  19  34  51  70  96 132 167 201 242 293
#     4  10  20  34  52  75 100 128 163 204 247 292
#     4   9  17  30  50  75 100 128 163 204 250 298
#     4   9  17  28  45  70  95 121 160 204 241 282
#     4  10  17  30  48  68  96 130 161 198 244 298
#     4  10  20  33  50  72  98 128 163 204 245 293
#     4   9  18  33  51  72 100 131 164 203 246 290
#
# _framework density 17.120715000000001
#
# number of rings (size 3 to 8) (size 9 to 14) (size 15 to 20)
#    0.000    2.615    0.769    1.154    0.000    2.462 
#    0.000    4.615    0.000    4.154    0.000    0.000 
#    0.000    0.000    0.000    0.000    0.000    0.000 
#
# Total GULP energy -289581.592659 kJ/mol
# GULP energy per Si atom -5568.876782 kJ/mol
# Density = 1.708175 g / cm^3
# Si number density = 17.120715 Si / 1000 Ang^3
#
#
#
# Elastic Constant Matrix: (Units=GPa)
#
#
# Indices 1 2 3 4 5 6 
#
# 1 99.0587 74.0371 21.8908 0.0000 0.0000 0.0000
# 2 74.0371 156.1076 34.7975 0.0000 0.0000 0.0000
# 3 21.8908 34.7975 25.7012 0.0000 0.0000 0.0000
# 4 0.0000 0.0000 0.0000 23.9870 0.0000 0.0000
# 5 0.0000 0.0000 0.0000 0.0000 15.9454 0.0000
# 6 0.0000 0.0000 0.0000 0.0000 0.0000 21.7190
#
#
#
# Elastic Compliance Matrix: (Units=1/GPa)
#
#
# Indices 1 2 3 4 5 6 
#
# 1 0.016044 -0.006536 -0.004817 0.000000 0.000000 0.000000
# 2 -0.006536 0.011837 -0.010460 0.000000 0.000000 0.000000
# 3 -0.004817 -0.010460 0.057173 0.000000 0.000000 0.000000
# 4 0.000000 0.000000 0.000000 0.041689 0.000000 0.000000
# 5 0.000000 0.000000 0.000000 0.000000 0.062714 0.000000
# 6 0.000000 0.000000 0.000000 0.000000 0.000000 0.046043
#
#
# Mechanical properties :
#
#
# Convention : Reuss Voigt Hill
#
# Bulk Modulus (GPa) = 24.13714 60.25760 42.19737
# Shear Modulus (GPa) = 17.06863 22.33975 19.70419
#
# Velocity S-wave (km/s) = 3.16089 3.61617 3.39617
# Velocity P-wave (km/s) = 5.23932 7.26001 6.33080
#
# Compressibility (1/GPa) = 0.04142992
#
# Stress axis : x y z
#
# Youngs Moduli (GPa) = 62.32776 84.48067 17.49070
#
# Poissons Ratio (x) = 0.55213 0.08425
# Poissons Ratio (y) = 0.40735 0.18295
# Poissons Ratio (z) = 0.30023 0.88365
#
# Static dielectric constant tensor:
#      x y z
#    x 1.602420 0.000000 0.000000 
#    y 0.000000 1.565060 0.000000 
#    z 0.000000 0.000000 1.577380 
# 
# From -- ./inp_files/25065.got.cif
#   From: 2010.05.17/outbox.cif.g08.bks.cpg/sg63_13_cif.got.tgz:25065.got - 2010.06.03 15:47:04.
