data_PCOD9468263
_publ_section_title
;
Structure prediction by ZEFSAII (Michael W. Deem and Ramdas Pophale) SiO2 
 PCOD9468263
Probable space group: C M C M
;
_chemical_formula_sum "Si O2"
_cell_formula_units_Z 112
_cell_length_a 15.779730
_cell_length_b 17.759947
_cell_length_c 18.977794
_cell_angle_alpha 90.000000
_cell_angle_beta 90.000000
_cell_angle_gamma 90.000000
_cell_volume 5318.473032
_symmetry_space_group_name_H-M "C M C M"
_symmetry_group_IT_number 63
_symmetry_cell_setting 'orthorhombic'
loop_
_space_group_symop_operation_xyz
x,y,z
-x,-y,1/2+z
x,-y,-z
-x,y,1/2-z
-x,-y,-z
x,y,1/2-z
-x,y,z
x,-y,1/2+z
1/2+x,1/2+y,z
1/2-x,1/2-y,1/2+z
1/2+x,1/2-y,-z
1/2-x,1/2+y,1/2-z
1/2-x,1/2-y,-z
1/2+x,1/2+y,1/2-z
1/2-x,1/2+y,z
1/2+x,1/2-y,1/2+z
loop_
_atom_site_type_symbol
_atom_site_label
_atom_site_fract_x
_atom_site_fract_y
_atom_site_fract_z
Si Si1 0.904158 0.333532 0.526465
Si Si2 0.407330 0.402448 0.405004
Si Si3 0.223693 0.560799 0.941608
Si Si4 0.599789 0.096082 0.831181
Si Si5 0.822789 0.238073 0.171659
Si Si6 0.091872 0.827584 0.949282
Si Si7 0.122741 0.744919 0.168958
O O1 0.824658 0.374822 0.489185
O O2 0.902326 0.250467 0.492176
O O3 0.896758 0.318836 0.610445
O O4 0.000000 0.364959 0.512038
O O5 0.500000 0.440464 0.390750
O O6 0.310205 0.429221 0.396392
O O7 0.404171 0.388295 0.489515
O O8 0.410899 0.323791 0.362159
O O9 0.151130 0.544185 0.884464
O O10 0.242182 0.500000 0.000000
O O11 0.619485 0.079060 0.750000
O O12 0.500000 0.091099 0.841873
O O13 0.628866 0.183153 0.843278
O O14 0.847850 0.213420 0.250000
O O15 0.841204 0.176701 0.112316
O O16 0.723847 0.254403 0.170228
O O17 0.000000 0.831021 0.914397
O O18 0.096070 0.730930 0.250000
#
# Coordination Sequence:
#
# PCOD9468263 Si02
#       7
#    16  16  16  16  16  16  16
#     4  10  20  34  53  80 112 143 179 225 275 332
#     4  10  21  36  56  81 110 144 184 235 288 335
#     4  12  24  38  58  80 108 153 200 236 273 326
#     4  10  20  35  55  80 111 144 183 232 277 320
#     4  10  17  26  48  80 112 142 170 212 271 332
#     4   9  16  29  50  76 106 137 169 216 280 339
#     4  10  19  33  56  86 117 145 177 223 286 350
#
# _framework density 21.058675999999998
#
# number of rings (size 3 to 8) (size 9 to 14) (size 15 to 20)
#    0.000    1.857    2.857    3.000    0.000    5.714 
#    0.000    0.714    0.000    0.857    0.000    0.000 
#    0.000    0.000    0.000    0.000    0.000    0.000 
#
# Total GULP energy -311834.822663 kJ/mol
# GULP energy per Si atom -5568.478976 kJ/mol
# Density = 2.101075 g / cm^3
# Si number density = 21.058676 Si / 1000 Ang^3
#
#
#
# Elastic Constant Matrix: (Units=GPa)
#
#
# Indices 1 2 3 4 5 6 
#
# 1 106.4138 8.5458 23.5238 0.0000 0.0000 0.0000
# 2 8.5458 2.7728 -5.2328 0.0000 0.0000 0.0000
# 3 23.5238 -5.2328 129.3437 0.0000 0.0000 0.0000
# 4 0.0000 0.0000 0.0000 20.3675 0.0000 0.0000
# 5 0.0000 0.0000 0.0000 0.0000 44.2018 0.0000
# 6 0.0000 0.0000 0.0000 0.0000 0.0000 6.4373
#
#
#
# Elastic Compliance Matrix: (Units=1/GPa)
#
#
# Indices 1 2 3 4 5 6 
#
# 1 0.014944 -0.055420 -0.004960 0.000000 0.000000 0.000000
# 2 -0.055420 0.595981 0.034191 0.000000 0.000000 0.000000
# 3 -0.004960 0.034191 0.010017 0.000000 0.000000 0.000000
# 4 0.000000 0.000000 0.000000 0.049098 0.000000 0.000000
# 5 0.000000 0.000000 0.000000 0.000000 0.022623 0.000000
# 6 0.000000 0.000000 0.000000 0.000000 0.000000 0.155346
#
#
# Mechanical properties :
#
#
# Convention : Reuss Voigt Hill
#
# Bulk Modulus (GPa) = 1.75882 32.46709 17.11295
# Shear Modulus (GPa) = 4.58754 28.31421 16.45087
#
# Velocity S-wave (km/s) = 1.47756 3.67077 2.79801
# Velocity P-wave (km/s) = 1.93596 5.78075 4.31074
#
# Compressibility (1/GPa) = 0.56856424
#
# Stress axis : x y z
#
# Youngs Moduli (GPa) = 66.91494 1.67790 99.83353
#
# Poissons Ratio (x) = 0.09299 0.49518
# Poissons Ratio (y) = 3.70841 -3.41338
# Poissons Ratio (z) = 0.33190 -0.05737
#
# Static dielectric constant tensor:
#      x y z
#    x 1.833960 0.000000 0.000000 
#    y 0.000000 1.776630 0.000000 
#    z 0.000000 0.000000 1.772790 
# 
# From -- ./inp_files/55850.got.cif
#   From: 2010.05.17/outbox.cif.g08.bks.cpg/sg63_28_cif.got.tgz:55850.got - 2010.06.03 15:47:04.
