data_PCOD9468256
_publ_section_title
;
Structure prediction by ZEFSAII (Michael W. Deem and Ramdas Pophale) SiO2 
 PCOD9468256
Probable space group: C M C M
;
_chemical_formula_sum "Si O2"
_cell_formula_units_Z 80
_cell_length_a 18.076757
_cell_length_b 26.996285
_cell_length_c 8.318334
_cell_angle_alpha 90.000000
_cell_angle_beta 90.000000
_cell_angle_gamma 90.000000
_cell_volume 4059.390945
_symmetry_space_group_name_H-M "C M C M"
_symmetry_group_IT_number 63
_symmetry_cell_setting 'orthorhombic'
loop_
_space_group_symop_operation_xyz
x,y,z
-x,-y,1/2+z
x,-y,-z
-x,y,1/2-z
-x,-y,-z
x,y,1/2-z
-x,y,z
x,-y,1/2+z
1/2+x,1/2+y,z
1/2-x,1/2-y,1/2+z
1/2+x,1/2-y,-z
1/2-x,1/2+y,1/2-z
1/2-x,1/2-y,-z
1/2+x,1/2+y,1/2-z
1/2-x,1/2+y,z
1/2+x,1/2-y,1/2+z
loop_
_atom_site_type_symbol
_atom_site_label
_atom_site_fract_x
_atom_site_fract_y
_atom_site_fract_z
Si Si1 0.298873 0.844679 0.944520
Si Si2 0.884575 0.052730 0.061606
Si Si3 0.373444 0.660033 0.055546
Si Si4 0.080648 0.733591 0.443509
Si Si5 0.283977 0.949246 0.440539
O O1 0.300318 0.846598 0.750000
O O2 0.213278 0.836907 0.993031
O O3 0.352218 0.800815 0.001681
O O4 0.322562 0.898148 0.011419
O O5 0.898924 0.053081 0.250000
O O6 0.906359 0.107190 0.997059
O O7 0.795990 0.052134 0.029168
O O8 0.913460 0.000000 0.000000
O O9 0.376292 0.659311 0.250000
O O10 0.410869 0.709703 0.995585
O O11 0.082911 0.732183 0.250000
O O12 0.000000 0.714990 0.496540
O O13 0.271558 0.951251 0.250000
O O14 0.320998 0.000000 0.500000
#
# Coordination Sequence:
#
# PCOD9468256 Si02
#       5
#    16  16  16  16  16
#     4   9  18  33  50  71 100 128 160 201 241 284
#     4   9  16  27  44  70 101 129 158 194 240 286
#     4   9  18  31  49  73  99 128 160 197 239 284
#     4  10  21  35  51  71  96 128 163 201 246 291
#     4  10  17  26  44  71 100 128 158 193 238 286
#
# _framework density 19.70739
#
# number of rings (size 3 to 8) (size 9 to 14) (size 15 to 20)
#    0.000    2.600    0.000    5.400    0.000    5.200 
#    0.000    0.000    0.000    1.200    0.000    0.000 
#    0.000    0.000    0.000    0.000    0.000    0.000 
#
# Total GULP energy -222984.060305 kJ/mol
# GULP energy per Si atom -5574.601508 kJ/mol
# Density = 1.966253 g / cm^3
# Si number density = 19.707390 Si / 1000 Ang^3
#
#
#
# Elastic Constant Matrix: (Units=GPa)
#
#
# Indices 1 2 3 4 5 6 
#
# 1 64.1016 44.3076 12.1849 0.0000 0.0000 0.0000
# 2 44.3076 144.4700 7.7419 0.0000 0.0000 0.0000
# 3 12.1849 7.7419 7.7628 0.0000 0.0000 0.0000
# 4 0.0000 0.0000 0.0000 34.9813 0.0000 0.0000
# 5 0.0000 0.0000 0.0000 0.0000 5.1828 0.0000
# 6 0.0000 0.0000 0.0000 0.0000 0.0000 -19.9533
#
#
#
# Elastic Compliance Matrix: (Units=1/GPa)
#
#
# Indices 1 2 3 4 5 6 
#
# 1 0.026728 -0.006285 -0.035685 0.000000 0.000000 0.000000
# 2 -0.006285 0.008791 0.001098 0.000000 0.000000 0.000000
# 3 -0.035685 0.001098 0.183738 0.000000 0.000000 0.000000
# 4 0.000000 0.000000 0.000000 0.028587 0.000000 0.000000
# 5 0.000000 0.000000 0.000000 0.000000 0.192945 0.000000
# 6 0.000000 0.000000 0.000000 0.000000 0.000000 -0.050117
#
#
# Mechanical properties :
#
#
# Convention : Reuss Voigt Hill
#
# Bulk Modulus (GPa) = 7.27209 38.31145 22.79177
# Shear Modulus (GPa) = 9.64781 14.18215 11.91498
#
# Velocity S-wave (km/s) = 2.21498 2.68551 2.46152
# Velocity P-wave (km/s) = 3.19993 5.39429 4.43497
#
# Compressibility (1/GPa) = 0.13751212
#
# Stress axis : x y z
#
# Youngs Moduli (GPa) = 37.41438 113.75917 5.44254
#
# Poissons Ratio (x) = 0.71496 0.19422
# Poissons Ratio (y) = 0.23514 -0.00598
# Poissons Ratio (z) = 1.33514 -0.12493
#
# Static dielectric constant tensor:
#      x y z
#    x 1.687220 0.000000 0.000000 
#    y 0.000000 1.746770 0.000000 
#    z 0.000000 0.000000 1.664690 
# 
# From -- ./inp_files/6349.got.cif
#   From: 2010.05.17/outbox.cif.g08.bks.cpg/sg63_4_cif.got.tgz:6349.got - 2010.06.03 15:47:04.
