data_PCOD9468724
_publ_section_title
;
Structure prediction by ZEFSAII (Michael W. Deem and Ramdas Pophale) SiO2 
 PCOD9468724
Probable space group: C M C M
;
_chemical_formula_sum "Si O2"
_cell_formula_units_Z 96
_cell_length_a 7.829898
_cell_length_b 23.806567
_cell_length_c 28.168141
_cell_angle_alpha 90.000000
_cell_angle_beta 90.000000
_cell_angle_gamma 90.000000
_cell_volume 5250.625743
_symmetry_space_group_name_H-M "C M C M"
_symmetry_group_IT_number 63
_symmetry_cell_setting 'orthorhombic'
loop_
_space_group_symop_operation_xyz
x,y,z
-x,-y,1/2+z
x,-y,-z
-x,y,1/2-z
-x,-y,-z
x,y,1/2-z
-x,y,z
x,-y,1/2+z
1/2+x,1/2+y,z
1/2-x,1/2-y,1/2+z
1/2+x,1/2-y,-z
1/2-x,1/2+y,1/2-z
1/2-x,1/2-y,-z
1/2+x,1/2+y,1/2-z
1/2-x,1/2+y,z
1/2+x,1/2-y,1/2+z
loop_
_atom_site_type_symbol
_atom_site_label
_atom_site_fract_x
_atom_site_fract_y
_atom_site_fract_z
Si Si1 0.702302 0.150908 0.647207
Si Si2 0.293288 0.480662 0.354509
Si Si3 0.697567 0.728668 0.936144
Si Si4 0.205993 0.636146 0.750000
Si Si5 0.303867 0.508143 0.750000
Si Si6 0.790766 0.036266 0.453622
Si Si7 0.300235 0.338749 0.973745
O O1 0.500000 0.157032 0.641014
O O2 0.746079 0.085107 0.641175
O O3 0.790035 0.191412 0.610251
O O4 0.748574 0.166095 0.701208
O O5 0.500000 0.483820 0.352717
O O6 0.230146 0.504308 0.302961
O O7 0.235061 0.511357 0.402709
O O8 0.500000 0.739814 0.947094
O O9 0.783770 0.789590 0.934940
O O10 0.772963 0.690495 0.978832
O O11 0.297571 0.576054 0.750000
O O12 0.000000 0.625056 0.750000
O O13 0.500000 0.488099 0.750000
O O14 0.730752 0.100481 0.460255
O O15 0.000000 0.035121 0.452556
O O16 0.739873 0.000000 0.500000
O O17 0.500000 0.348655 0.983744
#
# Coordination Sequence:
#
# PCOD9468724 Si02
#       7
#    16  16  16   8   8  16  16
#     4  10  18  29  46  68  93 119 148 182 224 268
#     4   9  16  27  44  66  91 117 146 180 219 263
#     4  10  19  31  48  67  88 116 151 189 226 267
#     4   8  16  28  42  63  90 117 145 180 220 266
#     4   8  14  24  40  63  88 113 143 180 218 256
#     4   9  16  27  45  67  90 117 148 182 220 264
#     4   9  18  32  48  66  89 119 153 185 221 266
#
# _framework density 18.283534
#
# number of rings (size 3 to 8) (size 9 to 14) (size 15 to 20)
#    0.000    2.833    0.000    2.000    0.000    4.000 
#    0.000    0.833    0.000    3.000    0.000    4.667 
#    0.000    0.000    0.000    0.000    0.000    0.000 
#
# Total GULP energy -267247.194166 kJ/mol
# GULP energy per Si atom -5567.649878 kJ/mol
# Density = 1.824192 g / cm^3
# Si number density = 18.283534 Si / 1000 Ang^3
#
#
#
# Elastic Constant Matrix: (Units=GPa)
#
#
# Indices 1 2 3 4 5 6 
#
# 1 21.2682 0.8961 11.9149 0.0000 0.0000 0.0000
# 2 0.8961 109.7180 72.3691 0.0000 0.0000 0.0000
# 3 11.9149 72.3691 148.2049 0.0000 0.0000 0.0000
# 4 0.0000 0.0000 0.0000 26.5246 0.0000 0.0000
# 5 0.0000 0.0000 0.0000 0.0000 18.4400 0.0000
# 6 0.0000 0.0000 0.0000 0.0000 0.0000 12.8605
#
#
#
# Elastic Compliance Matrix: (Units=1/GPa)
#
#
# Indices 1 2 3 4 5 6 
#
# 1 0.050038 0.003311 -0.005640 0.000000 0.000000 0.000000
# 2 0.003311 0.013664 -0.006938 0.000000 0.000000 0.000000
# 3 -0.005640 -0.006938 0.010589 0.000000 0.000000 0.000000
# 4 0.000000 0.000000 0.000000 0.037701 0.000000 0.000000
# 5 0.000000 0.000000 0.000000 0.000000 0.054230 0.000000
# 6 0.000000 0.000000 0.000000 0.000000 0.000000 0.077758
#
#
# Mechanical properties :
#
#
# Convention : Reuss Voigt Hill
#
# Bulk Modulus (GPa) = 17.93481 49.95015 33.94248
# Shear Modulus (GPa) = 17.78735 24.49908 21.14321
#
# Velocity S-wave (km/s) = 3.12246 3.66451 3.40429
# Velocity P-wave (km/s) = 4.77810 6.72933 5.83584
#
# Compressibility (1/GPa) = 0.05575750
#
# Stress axis : x y z
#
# Youngs Moduli (GPa) = 19.98461 73.18696 94.43948
#
# Poissons Ratio (x) = -0.24234 0.53261
# Poissons Ratio (y) = -0.06617 0.65524
# Poissons Ratio (z) = 0.11271 0.50779
#
# Static dielectric constant tensor:
#      x y z
#    x 1.675130 0.000000 0.000000 
#    y 0.000000 1.597540 0.000000 
#    z 0.000000 0.000000 1.684340 
# 
# From -- ./inp_files/67273.got.cif
#   From: 2010.05.17/outbox.cif.g08.bks.cpg/sg63_34_cif.got.tgz:67273.got - 2010.06.03 15:47:04.
