data_PCOD9468760
_publ_section_title
;
Structure prediction by ZEFSAII (Michael W. Deem and Ramdas Pophale) SiO2 
 PCOD9468760
Probable space group: C M C M
;
_chemical_formula_sum "Si O2"
_cell_formula_units_Z 96
_cell_length_a 7.587175
_cell_length_b 21.684086
_cell_length_c 25.038416
_cell_angle_alpha 90.000000
_cell_angle_beta 90.000000
_cell_angle_gamma 90.000000
_cell_volume 4119.344117
_symmetry_space_group_name_H-M "C M C M"
_symmetry_group_IT_number 63
_symmetry_cell_setting 'orthorhombic'
loop_
_space_group_symop_operation_xyz
x,y,z
-x,-y,1/2+z
x,-y,-z
-x,y,1/2-z
-x,-y,-z
x,y,1/2-z
-x,y,z
x,-y,1/2+z
1/2+x,1/2+y,z
1/2-x,1/2-y,1/2+z
1/2+x,1/2-y,-z
1/2-x,1/2+y,1/2-z
1/2-x,1/2-y,-z
1/2+x,1/2+y,1/2-z
1/2-x,1/2+y,z
1/2+x,1/2-y,1/2+z
loop_
_atom_site_type_symbol
_atom_site_label
_atom_site_fract_x
_atom_site_fract_y
_atom_site_fract_z
Si Si1 0.287662 0.108779 0.308221
Si Si2 0.286264 0.664071 0.497480
Si Si3 0.292151 0.152264 0.877381
Si Si4 0.788942 0.783105 0.609158
Si Si5 0.801618 0.522946 0.658350
Si Si6 0.701168 0.462294 0.553983
O O1 0.232312 0.132490 0.250000
O O2 0.500000 0.104199 0.309501
O O3 0.241810 0.156562 0.355013
O O4 0.220966 0.038095 0.314395
O O5 0.500000 0.665154 0.500324
O O6 0.223595 0.652789 0.557812
O O7 0.225102 0.714363 0.453013
O O8 0.231870 0.603617 0.463779
O O9 0.500000 0.150398 0.865158
O O10 0.220807 0.220314 0.863462
O O11 0.217494 0.090941 0.848727
O O12 0.000000 0.777292 0.604705
O O13 0.809354 0.498518 0.597572
O O14 0.000000 0.530386 0.680302
O O15 0.693388 0.500000 0.500000
O O16 0.500000 0.455807 0.574497
#
# Coordination Sequence:
#
# PCOD9468760 Si02
#       6
#    16  16  16  16  16  16
#     4  10  22  40  60  79  99 130 176 226 273 321
#     4  10  19  31  50  77 111 150 184 214 252 305
#     4  10  21  34  51  80 115 145 176 213 258 317
#     4  10  21  37  55  79 111 144 180 219 260 313
#     4  10  20  34  53  77 105 136 173 218 266 312
#     4  10  18  29  47  74 108 144 179 212 250 301
#
# _framework density 23.304680999999999
#
# number of rings (size 3 to 8) (size 9 to 14) (size 15 to 20)
#    0.000    2.000    3.333    0.500    0.000    2.667 
#    0.000    0.833    0.000    3.000    0.000    0.000 
#    0.000    0.000    0.000    0.000    0.000    0.000 
#
# Total GULP energy -267484.374120 kJ/mol
# GULP energy per Si atom -5572.591128 kJ/mol
# Density = 2.325164 g / cm^3
# Si number density = 23.304681 Si / 1000 Ang^3
#
#
#
# Elastic Constant Matrix: (Units=GPa)
#
#
# Indices 1 2 3 4 5 6 
#
# 1 52.0240 0.8447 -8.0155 0.0000 0.0000 0.0000
# 2 0.8447 144.1314 29.5146 0.0000 0.0000 0.0000
# 3 -8.0155 29.5146 89.3241 0.0000 0.0000 0.0000
# 4 0.0000 0.0000 0.0000 23.4925 0.0000 0.0000
# 5 0.0000 0.0000 0.0000 0.0000 12.1714 0.0000
# 6 0.0000 0.0000 0.0000 0.0000 0.0000 13.3878
#
#
#
# Elastic Compliance Matrix: (Units=1/GPa)
#
#
# Indices 1 2 3 4 5 6 
#
# 1 0.019526 -0.000508 0.001920 0.000000 0.000000 0.000000
# 2 -0.000508 0.007455 -0.002509 0.000000 0.000000 0.000000
# 3 0.001920 -0.002509 0.012196 0.000000 0.000000 0.000000
# 4 0.000000 0.000000 0.000000 0.042567 0.000000 0.000000
# 5 0.000000 0.000000 0.000000 0.000000 0.082160 0.000000
# 6 0.000000 0.000000 0.000000 0.000000 0.000000 0.074695
#
#
# Mechanical properties :
#
#
# Convention : Reuss Voigt Hill
#
# Bulk Modulus (GPa) = 27.03855 36.68523 31.86189
# Shear Modulus (GPa) = 19.75346 27.35269 23.55308
#
# Velocity S-wave (km/s) = 2.91455 3.42965 3.18253
# Velocity P-wave (km/s) = 4.79098 5.60884 5.21596
#
# Compressibility (1/GPa) = 0.03698423
#
# Stress axis : x y z
#
# Youngs Moduli (GPa) = 51.21391 134.14129 81.99128
#
# Poissons Ratio (x) = 0.06809 -0.15741
# Poissons Ratio (y) = 0.02600 0.20570
# Poissons Ratio (z) = -0.09832 0.33653
#
# Static dielectric constant tensor:
#      x y z
#    x 1.925950 0.000000 0.000000 
#    y 0.000000 1.999780 0.000000 
#    z 0.000000 0.000000 1.875090 
# 
# From -- ./inp_files/66896.got.cif
#   From: 2010.05.17/outbox.cif.g08.bks.cpg/sg63_34_cif.got.tgz:66896.got - 2010.06.03 15:47:04.
