data_PCOD9468036
_publ_section_title
;
Structure prediction by ZEFSAII (Michael W. Deem and Ramdas Pophale) SiO2 
 PCOD9468036
Probable space group: P N M A
;
_chemical_formula_sum "Si O2"
_cell_formula_units_Z 64
_cell_length_a 12.000000
_cell_length_b 9.000000
_cell_length_c 30.000000
_cell_angle_alpha 90.000000
_cell_angle_beta 90.000000
_cell_angle_gamma 90.000000
_cell_volume 3240.000000
_symmetry_space_group_name_H-M "P N M A"
_symmetry_group_IT_number 62
_symmetry_cell_setting 'orthorhombic'
loop_
_space_group_symop_operation_xyz
x,y,z
1/2-x,-y,1/2+z
1/2+x,1/2-y,1/2-z
-x,1/2+y,-z
-x,-y,-z
1/2+x,y,1/2-z
1/2-x,1/2+y,1/2+z
x,1/2-y,z
loop_
_atom_site_type_symbol
_atom_site_label
_atom_site_fract_x
_atom_site_fract_y
_atom_site_fract_z
Si Si1 0.800696 0.574002 0.049598
Si Si2 0.965898 0.577510 0.936935
Si Si3 0.919529 0.071922 0.390818
Si Si4 0.191643 0.073183 0.787364
Si Si5 0.348222 0.072990 0.864968
Si Si6 0.733674 0.928192 0.805873
Si Si7 0.017353 0.078887 0.169693
Si Si8 0.732146 0.072303 0.964207
O O1 0.801489 0.750000 0.040591
O O2 0.749227 0.551339 0.098515
O O3 0.925002 0.507856 0.045719
O O4 0.723667 0.488297 0.014406
O O5 0.964523 0.750000 0.952106
O O6 0.977783 0.578489 0.883602
O O7 0.850045 0.497045 0.947903
O O8 0.917458 0.250000 0.397014
O O9 0.840494 0.033771 0.348724
O O10 0.042696 0.015061 0.379614
O O11 0.865374 0.991900 0.433330
O O12 0.195016 0.250000 0.784452
O O13 0.297642 0.025554 0.817421
O O14 0.191799 0.002653 0.738888
O O15 0.080914 0.022040 0.812562
O O16 0.372940 0.250000 0.863713
O O17 0.730148 0.750000 0.801493
O O18 0.861868 0.971362 0.813561
O O19 0.998366 0.250000 0.184209
O O20 0.735285 0.250000 0.962656
#
# Coordination Sequence:
#
# PCOD9468036 Si02
#       8
#     8   8   8   8   8   8   8   8
#     4  11  23  42  65  91 127 166 208 256 310 371
#     4  11  21  39  65  95 128 162 208 257 310 367
#     4  11  24  44  67  91 122 164 212 259 308 369
#     4  11  24  41  63  95 129 162 207 257 310 366
#     4  10  24  44  63  90 126 164 207 257 310 368
#     4  10  23  43  64  92 125 164 210 254 308 369
#     4  10  21  40  66  92 125 163 206 255 305 367
#     4  12  25  41  64  94 127 163 206 255 314 373
#
# _framework density 19.753086
#
# number of rings (size 3 to 8) (size 9 to 14) (size 15 to 20)
#    0.000    1.250    2.500    3.000    1.750    4.500 
#    0.000    0.000    0.000    0.000    0.000    0.000 
#    0.000    0.000    0.000    0.000    0.000    0.000 
#
# Total GULP energy -357860.427180 kJ/mol
# GULP energy per Si atom -5591.569175 kJ/mol
# Density = 1.970813 g / cm^3
# Si number density = 19.753086 Si / 1000 Ang^3
#
#
#
# Elastic Constant Matrix: (Units=GPa)
#
#
# Indices 1 2 3 4 5 6 
#
# 1 54.4850 13.5477 -16.4589 0.0000 0.0000 0.0000
# 2 13.5477 58.8067 10.4133 0.0000 0.0000 0.0000
# 3 -16.4589 10.4133 48.7034 0.0000 0.0000 0.0000
# 4 0.0000 0.0000 0.0000 25.7668 0.0000 0.0000
# 5 0.0000 0.0000 0.0000 0.0000 9.8277 0.0000
# 6 0.0000 0.0000 0.0000 0.0000 0.0000 35.6154
#
#
#
# Elastic Compliance Matrix: (Units=1/GPa)
#
#
# Indices 1 2 3 4 5 6 
#
# 1 0.022844 -0.006891 0.009193 0.000000 0.000000 0.000000
# 2 -0.006891 0.019753 -0.006552 0.000000 0.000000 0.000000
# 3 0.009193 -0.006552 0.025040 0.000000 0.000000 0.000000
# 4 0.000000 0.000000 0.000000 0.038810 0.000000 0.000000
# 5 0.000000 0.000000 0.000000 0.000000 0.101753 0.000000
# 6 0.000000 0.000000 0.000000 0.000000 0.000000 0.028078
#
#
# Mechanical properties :
#
#
# Convention : Reuss Voigt Hill
#
# Bulk Modulus (GPa) = 16.90959 19.66662 18.28810
# Shear Modulus (GPa) = 18.90442 24.54150 21.72296
#
# Velocity S-wave (km/s) = 3.09696 3.52861 3.31981
# Velocity P-wave (km/s) = 4.62247 5.15551 4.89625
#
# Compressibility (1/GPa) = 0.05913805
#
# Stress axis : x y z
#
# Youngs Moduli (GPa) = 43.77490 50.62645 39.93589
#
# Poissons Ratio (x) = 0.34885 -0.36714
# Poissons Ratio (y) = 0.30164 0.26166
# Poissons Ratio (z) = -0.40243 0.33170
#
# Static dielectric constant tensor:
#      x y z
#    x 1.663730 0.000000 0.000000 
#    y 0.000000 1.663660 0.000000 
#    z 0.000000 0.000000 1.709950 
# 
# From -- ./inp_files/32618.got.cif
#   From: 2010.05.17/outbox.ucp.g08.bks.cvg/sg62_17_cif.got.tgz:32618.got - 2010.06.11 16:29:25.
