data_PCOD9468097
_publ_section_title
;
Structure prediction by ZEFSAII (Michael W. Deem and Ramdas Pophale) SiO2 
 PCOD9468097
Probable space group: C M C M
;
_chemical_formula_sum "Si O2"
_cell_formula_units_Z 112
_cell_length_a 22.349045
_cell_length_b 17.683992
_cell_length_c 18.630091
_cell_angle_alpha 90.000000
_cell_angle_beta 90.000000
_cell_angle_gamma 90.000000
_cell_volume 7362.990769
_symmetry_space_group_name_H-M "C M C M"
_symmetry_group_IT_number 63
_symmetry_cell_setting 'orthorhombic'
loop_
_space_group_symop_operation_xyz
x,y,z
-x,-y,1/2+z
x,-y,-z
-x,y,1/2-z
-x,-y,-z
x,y,1/2-z
-x,y,z
x,-y,1/2+z
1/2+x,1/2+y,z
1/2-x,1/2-y,1/2+z
1/2+x,1/2-y,-z
1/2-x,1/2+y,1/2-z
1/2-x,1/2-y,-z
1/2+x,1/2+y,1/2-z
1/2-x,1/2+y,z
1/2+x,1/2-y,1/2+z
loop_
_atom_site_type_symbol
_atom_site_label
_atom_site_fract_x
_atom_site_fract_y
_atom_site_fract_z
Si Si1 0.429147 0.115670 0.665644
Si Si2 0.647483 0.770647 0.080543
Si Si3 0.786959 0.954085 0.097718
Si Si4 0.678362 0.827809 0.922318
Si Si5 0.351887 0.993289 0.916331
Si Si6 0.186843 0.889408 0.557893
Si Si7 0.770783 0.801869 0.333139
O O1 0.415259 0.123538 0.750000
O O2 0.500000 0.106003 0.657300
O O3 0.405463 0.188215 0.622187
O O4 0.393306 0.044932 0.632662
O O5 0.643751 0.679938 0.075477
O O6 0.708584 0.792624 0.123035
O O7 0.654082 0.802034 0.999639
O O8 0.791154 0.888429 0.155972
O O9 0.716498 0.975234 0.087947
O O10 0.818032 0.035599 0.106443
O O11 0.812612 0.917693 0.024294
O O12 0.646743 0.904626 0.896493
O O13 0.746958 0.854241 0.933321
O O14 0.682869 0.757165 0.868756
O O15 0.369287 0.000000 0.000000
O O16 0.761383 0.784430 0.250000
#
# Coordination Sequence:
#
# PCOD9468097 Si02
#       7
#    16  16  16  16  16  16  16
#     4  11  24  37  49  68  95 127 164 207 249 283
#     4  11  17  32  49  66  91 130 165 196 234 282
#     4  10  15  27  45  74  99 126 154 186 233 285
#     4  10  17  29  46  70  92 123 164 194 224 285
#     4  11  17  31  52  69  92 127 165 199 238 278
#     4   9  15  25  47  68  93 123 157 188 224 276
#     4  11  19  27  43  69 102 132 154 186 238 290
#
# _framework density 15.211209999999999
#
# number of rings (size 3 to 8) (size 9 to 14) (size 15 to 20)
#    0.000    1.571    8.571    1.286    0.000    0.857 
#    0.000    6.429    0.000    0.000    0.000    2.000 
#    0.000    0.000    0.000    1.000    0.000    0.000 
#
# Total GULP energy -311960.725790 kJ/mol
# GULP energy per Si atom -5570.727246 kJ/mol
# Density = 1.517659 g / cm^3
# Si number density = 15.211210 Si / 1000 Ang^3
#
#
#
# Elastic Constant Matrix: (Units=GPa)
#
#
# Indices 1 2 3 4 5 6 
#
# 1 31.4466 29.3147 24.3627 0.0000 0.0000 0.0000
# 2 29.3147 135.3793 48.0983 0.0000 0.0000 0.0000
# 3 24.3627 48.0983 70.0298 0.0000 0.0000 0.0000
# 4 0.0000 0.0000 0.0000 19.3952 0.0000 0.0000
# 5 0.0000 0.0000 0.0000 0.0000 14.9575 0.0000
# 6 0.0000 0.0000 0.0000 0.0000 0.0000 8.1565
#
#
#
# Elastic Compliance Matrix: (Units=1/GPa)
#
#
# Indices 1 2 3 4 5 6 
#
# 1 0.046676 -0.005738 -0.012297 0.000000 0.000000 0.000000
# 2 -0.005738 0.010476 -0.005199 0.000000 0.000000 0.000000
# 3 -0.012297 -0.005199 0.022129 0.000000 0.000000 0.000000
# 4 0.000000 0.000000 0.000000 0.051559 0.000000 0.000000
# 5 0.000000 0.000000 0.000000 0.000000 0.066856 0.000000
# 6 0.000000 0.000000 0.000000 0.000000 0.000000 0.122602
#
#
# Mechanical properties :
#
#
# Convention : Reuss Voigt Hill
#
# Bulk Modulus (GPa) = 30.47643 48.93412 39.70528
# Shear Modulus (GPa) = 13.23787 17.50716 15.37251
#
# Velocity S-wave (km/s) = 2.95324 3.39623 3.18245
# Velocity P-wave (km/s) = 5.63097 6.90064 6.29788
#
# Compressibility (1/GPa) = 0.03281224
#
# Stress axis : x y z
#
# Youngs Moduli (GPa) = 21.42424 95.45278 45.19040
#
# Poissons Ratio (x) = 0.54773 0.55571
# Poissons Ratio (y) = 0.12294 0.23495
# Poissons Ratio (z) = 0.26345 0.49628
#
# Static dielectric constant tensor:
#      x y z
#    x 1.475210 0.000000 0.000000 
#    y 0.000000 1.560590 0.000000 
#    z 0.000000 0.000000 1.506120 
# 
# From -- ./inp_files/48339.got.cif
#   From: 2010.05.17/outbox.cif.g08.bks.cpg/sg63_25_cif.got.tgz:48339.got - 2010.06.03 15:47:04.
