data_PCOD9468177
_publ_section_title
;
Structure prediction by ZEFSAII (Michael W. Deem and Ramdas Pophale) SiO2 
 PCOD9468177
Probable space group: C M C M
;
_chemical_formula_sum "Si O2"
_cell_formula_units_Z 112
_cell_length_a 30.506730
_cell_length_b 16.060274
_cell_length_c 15.702267
_cell_angle_alpha 90.000000
_cell_angle_beta 90.000000
_cell_angle_gamma 90.000000
_cell_volume 7693.269858
_symmetry_space_group_name_H-M "C M C M"
_symmetry_group_IT_number 63
_symmetry_cell_setting 'orthorhombic'
loop_
_space_group_symop_operation_xyz
x,y,z
-x,-y,1/2+z
x,-y,-z
-x,y,1/2-z
-x,-y,-z
x,y,1/2-z
-x,y,z
x,-y,1/2+z
1/2+x,1/2+y,z
1/2-x,1/2-y,1/2+z
1/2+x,1/2-y,-z
1/2-x,1/2+y,1/2-z
1/2-x,1/2-y,-z
1/2+x,1/2+y,1/2-z
1/2-x,1/2+y,z
1/2+x,1/2-y,1/2+z
loop_
_atom_site_type_symbol
_atom_site_label
_atom_site_fract_x
_atom_site_fract_y
_atom_site_fract_z
Si Si1 0.450555 0.414415 0.054529
Si Si2 0.826420 0.717502 0.650554
Si Si3 0.377821 0.661019 0.451837
Si Si4 0.693244 0.363819 0.095030
Si Si5 0.125261 0.993756 0.155024
Si Si6 0.714280 0.094732 0.985718
Si Si7 0.766560 0.696121 0.155549
O O1 0.500000 0.391097 0.078612
O O2 0.417334 0.439187 0.129975
O O3 0.453245 0.500000 0.000000
O O4 0.424997 0.346466 0.997241
O O5 0.829647 0.692514 0.750000
O O6 0.868582 0.767462 0.616480
O O7 0.814519 0.644129 0.584316
O O8 0.784948 0.781465 0.644925
O O9 0.340677 0.668989 0.524004
O O10 0.370899 0.570771 0.408899
O O11 0.667115 0.434418 0.145229
O O12 0.736214 0.401858 0.051026
O O13 0.709382 0.285350 0.149187
O O14 0.121356 0.026339 0.250000
O O15 0.716836 0.142075 0.076326
O O16 0.700385 0.000000 0.000000
O O17 0.773079 0.659672 0.250000
#
# Coordination Sequence:
#
# PCOD9468177 Si02
#       7
#    16  16  16  16  16  16  16
#     4   8  16  29  44  61  86 121 152 179 222 269
#     4  10  19  31  46  65  88 118 152 191 233 271
#     4  10  16  29  46  62  89 119 152 188 223 270
#     4  10  17  31  44  61  86 120 154 193 225 263
#     4  10  19  26  41  68  90 117 156 189 223 264
#     4  11  20  32  45  61  90 121 157 195 232 272
#     4  10  19  31  46  62  86 118 153 192 236 271
#
# _framework density 14.558179000000001
#
# number of rings (size 3 to 8) (size 9 to 14) (size 15 to 20)
#    0.000    2.143    2.857    3.857    0.000    1.429 
#    0.000    0.000    0.000    1.286    0.000    0.000 
#    0.000    0.571    0.000    0.000    0.000    0.000 
#
# Total GULP energy -311964.099506 kJ/mol
# GULP energy per Si atom -5570.787491 kJ/mol
# Density = 1.452504 g / cm^3
# Si number density = 14.558179 Si / 1000 Ang^3
#
#
#
# Elastic Constant Matrix: (Units=GPa)
#
#
# Indices 1 2 3 4 5 6 
#
# 1 64.8698 15.0906 8.4757 0.0000 0.0000 0.0000
# 2 15.0906 53.9759 21.0173 0.0000 0.0000 0.0000
# 3 8.4757 21.0173 77.5686 0.0000 0.0000 0.0000
# 4 0.0000 0.0000 0.0000 7.4851 0.0000 0.0000
# 5 0.0000 0.0000 0.0000 0.0000 6.6490 0.0000
# 6 0.0000 0.0000 0.0000 0.0000 0.0000 14.3596
#
#
#
# Elastic Compliance Matrix: (Units=1/GPa)
#
#
# Indices 1 2 3 4 5 6 
#
# 1 0.016514 -0.004376 -0.000619 0.000000 0.000000 0.000000
# 2 -0.004376 0.021872 -0.005448 0.000000 0.000000 0.000000
# 3 -0.000619 -0.005448 0.014436 0.000000 0.000000 0.000000
# 4 0.000000 0.000000 0.000000 0.133599 0.000000 0.000000
# 5 0.000000 0.000000 0.000000 0.000000 0.150399 0.000000
# 6 0.000000 0.000000 0.000000 0.000000 0.000000 0.069640
#
#
# Mechanical properties :
#
#
# Convention : Reuss Voigt Hill
#
# Bulk Modulus (GPa) = 31.31283 31.73127 31.52205
# Shear Modulus (GPa) = 11.41576 15.82078 13.61827
#
# Velocity S-wave (km/s) = 2.80330 3.30013 3.06181
# Velocity P-wave (km/s) = 5.65981 6.03031 5.84800
#
# Compressibility (1/GPa) = 0.03193579
#
# Stress axis : x y z
#
# Youngs Moduli (GPa) = 60.55337 45.72134 69.27340
#
# Poissons Ratio (x) = 0.20008 0.04286
# Poissons Ratio (y) = 0.26499 0.37740
# Poissons Ratio (z) = 0.03747 0.24909
#
# Static dielectric constant tensor:
#      x y z
#    x 1.473280 0.000000 0.000000 
#    y 0.000000 1.474550 0.000000 
#    z 0.000000 0.000000 1.515340 
# 
# From -- ./inp_files/38689.got.cif
#   From: 2010.05.17/outbox.cif.g08.bks.cpg/sg63_20_cif.got.tgz:38689.got - 2010.06.03 15:47:04.
