data_PCOD9468761
_publ_section_title
;
Structure prediction by ZEFSAII (Michael W. Deem and Ramdas Pophale) SiO2 
 PCOD9468761
Probable space group: C M C M
;
_chemical_formula_sum "Si O2"
_cell_formula_units_Z 116
_cell_length_a 23.784470
_cell_length_b 27.786537
_cell_length_c 8.801663
_cell_angle_alpha 90.000000
_cell_angle_beta 90.000000
_cell_angle_gamma 90.000000
_cell_volume 5816.913947
_symmetry_space_group_name_H-M "C M C M"
_symmetry_group_IT_number 63
_symmetry_cell_setting 'orthorhombic'
loop_
_space_group_symop_operation_xyz
x,y,z
-x,-y,1/2+z
x,-y,-z
-x,y,1/2-z
-x,-y,-z
x,y,1/2-z
-x,y,z
x,-y,1/2+z
1/2+x,1/2+y,z
1/2-x,1/2-y,1/2+z
1/2+x,1/2-y,-z
1/2-x,1/2+y,1/2-z
1/2-x,1/2-y,-z
1/2+x,1/2+y,1/2-z
1/2-x,1/2+y,z
1/2+x,1/2-y,1/2+z
loop_
_atom_site_type_symbol
_atom_site_label
_atom_site_fract_x
_atom_site_fract_y
_atom_site_fract_z
Si Si1 0.739886 0.302368 0.070137
Si Si2 0.562625 0.389340 0.929924
Si Si3 0.376922 0.293284 0.569927
Si Si4 0.563473 0.196957 0.932018
Si Si5 0.898841 0.600040 0.081879
Si Si6 0.665990 0.552842 0.569418
Si Si7 0.000000 0.557553 0.250000
Si Si8 0.223873 0.398597 0.930360
O O1 0.749615 0.302699 0.250000
O O2 0.750000 0.250000 0.000000
O O3 0.675123 0.312223 0.027502
O O4 0.776237 0.343665 0.989931
O O5 0.566447 0.400504 0.750000
O O6 0.500000 0.401788 0.983567
O O7 0.573572 0.332128 0.943558
O O8 0.612721 0.416496 0.013206
O O9 0.360770 0.291523 0.750000
O O10 0.396396 0.240514 0.518148
O O11 0.561873 0.200718 0.750000
O O12 0.500000 0.203926 0.991446
O O13 0.582722 0.143734 0.976260
O O14 0.889266 0.623150 0.250000
O O15 0.838045 0.579775 0.036897
O O16 0.949791 0.563774 0.118222
O O17 0.661010 0.500000 0.500000
O O18 0.666663 0.550978 0.750000
O O19 0.724517 0.424446 0.488100
O O20 0.234406 0.399973 0.750000
#
# Coordination Sequence:
#
# PCOD9468761 Si02
#       8
#    16  16  16  16  16  16   4  16
#     4  12  24  37  53  80 119 165 212 258 311 368
#     4  10  21  40  65  91 122 163 208 255 319 380
#     4  10  20  34  53  77 114 160 204 259 311 368
#     4  10  18  29  47  76 113 154 205 253 295 346
#     4   9  18  33  55  79 118 156 200 239 294 350
#     4  12  26  45  69  95 126 159 202 261 317 376
#     4   8  16  36  54  84 122 156 206 240 294 352
#     4  11  22  39  63  91 121 160 200 249 308 372
#
# _framework density 19.941846000000002
#
# number of rings (size 3 to 8) (size 9 to 14) (size 15 to 20)
#    0.414    1.103    2.069    4.138    0.000    6.069 
#    0.000    0.000    0.000    2.483    0.000    0.483 
#    0.000    0.000    0.000    0.000    0.000    0.000 
#
# Total GULP energy -323140.726048 kJ/mol
# GULP energy per Si atom -5571.391828 kJ/mol
# Density = 1.989646 g / cm^3
# Si number density = 19.941846 Si / 1000 Ang^3
#
#
#
# Elastic Constant Matrix: (Units=GPa)
#
#
# Indices 1 2 3 4 5 6 
#
# 1 133.7370 1.1142 28.3708 0.0000 0.0000 0.0000
# 2 1.1142 25.7289 5.0803 0.0000 0.0000 0.0000
# 3 28.3708 5.0803 62.3304 0.0000 0.0000 0.0000
# 4 0.0000 0.0000 0.0000 20.1751 0.0000 0.0000
# 5 0.0000 0.0000 0.0000 0.0000 18.3843 0.0000
# 6 0.0000 0.0000 0.0000 0.0000 0.0000 9.7696
#
#
#
# Elastic Compliance Matrix: (Units=1/GPa)
#
#
# Indices 1 2 3 4 5 6 
#
# 1 0.008280 0.000392 -0.003801 0.000000 0.000000 0.000000
# 2 0.000392 0.039521 -0.003400 0.000000 0.000000 0.000000
# 3 -0.003801 -0.003400 0.018051 0.000000 0.000000 0.000000
# 4 0.000000 0.000000 0.000000 0.049566 0.000000 0.000000
# 5 0.000000 0.000000 0.000000 0.000000 0.054394 0.000000
# 6 0.000000 0.000000 0.000000 0.000000 0.000000 0.102359
#
#
# Mechanical properties :
#
#
# Convention : Reuss Voigt Hill
#
# Bulk Modulus (GPa) = 19.14424 32.32522 25.73473
# Shear Modulus (GPa) = 16.49075 22.14785 19.31930
#
# Velocity S-wave (km/s) = 2.87878 3.33621 3.11590
# Velocity P-wave (km/s) = 4.54650 5.57543 5.08705
#
# Compressibility (1/GPa) = 0.05223504
#
# Stress axis : x y z
#
# Youngs Moduli (GPa) = 120.76672 25.30289 55.39952
#
# Poissons Ratio (x) = -0.00992 0.21057
# Poissons Ratio (y) = -0.04733 0.18834
# Poissons Ratio (z) = 0.45903 0.08602
#
# Static dielectric constant tensor:
#      x y z
#    x 1.753990 0.000000 0.000000 
#    y 0.000000 1.704960 0.000000 
#    z 0.000000 0.000000 1.691350 
# 
# From -- ./inp_files/12941.got.cif
#   From: 2010.05.17/outbox.cif.g08.bks.cpg/sg63_7_cif.got.tgz:12941.got - 2010.06.03 15:47:04.
