data_PCOD9468988
_publ_section_title
;
Structure prediction by ZEFSAII (Michael W. Deem and Ramdas Pophale) SiO2 
 PCOD9468988
Probable space group: C M C M
;
_chemical_formula_sum "Si O2"
_cell_formula_units_Z 64
_cell_length_a 21.833720
_cell_length_b 18.760853
_cell_length_c 8.409650
_cell_angle_alpha 90.000000
_cell_angle_beta 90.000000
_cell_angle_gamma 90.000000
_cell_volume 3444.754201
_symmetry_space_group_name_H-M "C M C M"
_symmetry_group_IT_number 63
_symmetry_cell_setting 'orthorhombic'
loop_
_space_group_symop_operation_xyz
x,y,z
-x,-y,1/2+z
x,-y,-z
-x,y,1/2-z
-x,-y,-z
x,y,1/2-z
-x,y,z
x,-y,1/2+z
1/2+x,1/2+y,z
1/2-x,1/2-y,1/2+z
1/2+x,1/2-y,-z
1/2-x,1/2+y,1/2-z
1/2-x,1/2-y,-z
1/2+x,1/2+y,1/2-z
1/2-x,1/2+y,z
1/2+x,1/2-y,1/2+z
loop_
_atom_site_type_symbol
_atom_site_label
_atom_site_fract_x
_atom_site_fract_y
_atom_site_fract_z
Si Si1 0.000000 0.418267 0.938981
Si Si2 0.000000 0.081737 0.941818
Si Si3 0.133288 0.081440 0.557529
Si Si4 0.129626 0.581479 0.940523
Si Si5 0.248665 0.330637 0.442352
O O1 0.000000 0.418078 0.750000
O O2 0.000000 0.500000 0.000000
O O3 0.935596 0.388130 0.000435
O O4 0.933730 0.110744 0.994162
O O5 0.000000 0.082998 0.750000
O O6 0.000000 0.000000 0.000000
O O7 0.134166 0.080638 0.750000
O O8 0.190662 0.127650 0.501899
O O9 0.139127 0.000000 0.500000
O O10 0.128467 0.579617 0.750000
O O11 0.187426 0.627931 0.995041
O O12 0.136018 0.500000 0.000000
O O13 0.248762 0.331372 0.250000
O O14 0.250000 0.250000 0.500000
#
# Coordination Sequence:
#
# PCOD9468988 Si02
#       5
#     8   8  16  16  16
#     4  10  18  30  51  78 103 129 161 205 255 306
#     4   8  14  26  47  72  99 123 151 195 241 284
#     4   9  17  31  51  76 100 127 162 201 244 291
#     4  10  19  33  53  77 102 131 167 211 257 304
#     4  10  22  36  50  70 101 137 172 209 250 294
#
# _framework density 18.578975
#
# number of rings (size 3 to 8) (size 9 to 14) (size 15 to 20)
#    0.000    2.500    0.000    4.125    0.000    3.000 
#    0.000    1.250    0.000    1.500    0.000    0.000 
#    0.000    0.000    0.000    0.000    0.000    0.000 
#
# Total GULP energy -178373.514488 kJ/mol
# GULP energy per Si atom -5574.172328 kJ/mol
# Density = 1.853669 g / cm^3
# Si number density = 18.578975 Si / 1000 Ang^3
#
#
#
# Elastic Constant Matrix: (Units=GPa)
#
#
# Indices 1 2 3 4 5 6 
#
# 1 250.0692 89.0758 33.3308 0.0000 0.0000 0.0000
# 2 89.0758 78.3680 11.0691 0.0000 0.0000 0.0000
# 3 33.3308 11.0691 32.7817 0.0000 0.0000 0.0000
# 4 0.0000 0.0000 0.0000 24.2725 0.0000 0.0000
# 5 0.0000 0.0000 0.0000 0.0000 16.2865 0.0000
# 6 0.0000 0.0000 0.0000 0.0000 0.0000 -4.8736
#
#
#
# Elastic Compliance Matrix: (Units=1/GPa)
#
#
# Indices 1 2 3 4 5 6 
#
# 1 0.007406 -0.007722 -0.004922 0.000000 0.000000 0.000000
# 2 -0.007722 0.021452 0.000608 0.000000 0.000000 0.000000
# 3 -0.004922 0.000608 0.035304 0.000000 0.000000 0.000000
# 4 0.000000 0.000000 0.000000 0.041199 0.000000 0.000000
# 5 0.000000 0.000000 0.000000 0.000000 0.061401 0.000000
# 6 0.000000 0.000000 0.000000 0.000000 0.000000 -0.205187
#
#
# Mechanical properties :
#
#
# Convention : Reuss Voigt Hill
#
# Bulk Modulus (GPa) = 24.94445 69.79672 47.37058
# Shear Modulus (GPa) = -5049.04934 22.31995 -2513.36470
#
# Velocity S-wave (km/s) = -52.18730 3.46982 -36.82034
# Velocity P-wave (km/s) = 60.14896 7.32816 42.21490
#
# Compressibility (1/GPa) = 0.04008909
#
# Stress axis : x y z
#
# Youngs Moduli (GPa) = 135.03130 46.61595 28.32529
#
# Poissons Ratio (x) = 0.35998 0.13942
# Poissons Ratio (y) = 1.04276 -0.01723
# Poissons Ratio (z) = 0.66465 -0.02835
#
# Static dielectric constant tensor:
#      x y z
#    x 1.709950 0.000000 0.000000 
#    y 0.000000 1.577440 0.000000 
#    z 0.000000 0.000000 1.630370 
# 
# From -- ./inp_files/7533.got.cif
#   From: 2010.05.17/outbox.cif.g08.bks.cpg/sg63_4_cif.got.tgz:7533.got - 2010.06.03 15:47:04.
