data_PCOD9468560
_publ_section_title
;
Structure prediction by ZEFSAII (Michael W. Deem and Ramdas Pophale) SiO2 
 PCOD9468560
Probable space group: C M C M
;
_chemical_formula_sum "Si O2"
_cell_formula_units_Z 116
_cell_length_a 16.170467
_cell_length_b 19.608799
_cell_length_c 14.267729
_cell_angle_alpha 90.000000
_cell_angle_beta 90.000000
_cell_angle_gamma 90.000000
_cell_volume 4524.060551
_symmetry_space_group_name_H-M "C M C M"
_symmetry_group_IT_number 63
_symmetry_cell_setting 'orthorhombic'
loop_
_space_group_symop_operation_xyz
x,y,z
-x,-y,1/2+z
x,-y,-z
-x,y,1/2-z
-x,-y,-z
x,y,1/2-z
-x,y,z
x,-y,1/2+z
1/2+x,1/2+y,z
1/2-x,1/2-y,1/2+z
1/2+x,1/2-y,-z
1/2-x,1/2+y,1/2-z
1/2-x,1/2-y,-z
1/2+x,1/2+y,1/2-z
1/2-x,1/2+y,z
1/2+x,1/2-y,1/2+z
loop_
_atom_site_type_symbol
_atom_site_label
_atom_site_fract_x
_atom_site_fract_y
_atom_site_fract_z
Si Si1 0.911225 0.235947 0.109146
Si Si2 0.407497 0.501259 0.886328
Si Si3 0.616849 0.897332 0.612386
Si Si4 0.700637 0.376997 0.608632
Si Si5 0.000000 0.472204 0.750000
Si Si6 0.592101 0.737044 0.882680
Si Si7 0.716778 0.380350 0.117926
Si Si8 0.906709 0.394884 0.388294
O O1 0.830658 0.196237 0.141009
O O2 0.911233 0.314485 0.133574
O O3 0.000000 0.205778 0.137645
O O4 0.908039 0.233483 0.995953
O O5 0.500000 0.512536 0.854583
O O6 0.370501 0.428433 0.862314
O O7 0.346194 0.560232 0.855999
O O8 0.408191 0.500000 0.000000
O O9 0.711801 0.902993 0.639219
O O10 0.570498 0.954746 0.669003
O O11 0.595927 0.818192 0.638208
O O12 0.597043 0.905299 0.501247
O O13 0.714077 0.375090 0.495747
O O14 0.500000 0.712068 0.853679
O O15 0.670203 0.690404 0.852406
O O16 0.810319 0.404988 0.142843
O O17 0.000000 0.420074 0.353106
#
# Coordination Sequence:
#
# PCOD9468560 Si02
#       8
#    16  16  16  16   4  16  16  16
#     4   8  13  21  38  62  86 115 143 166 204 259
#     4   9  16  26  39  61  92 121 147 175 203 247
#     4  10  18  28  42  58  83 113 147 189 232 265
#     4   9  16  25  39  59  88 117 149 178 212 262
#     4  12  20  32  44  60  80 116 146 200 240 264
#     4   9  14  24  38  61  89 114 141 174 213 268
#     4   9  16  23  40  61  89 124 149 166 208 267
#     4   9  15  26  39  58  88 120 150 179 210 262
#
# _framework density 25.640682999999999
#
# number of rings (size 3 to 8) (size 9 to 14) (size 15 to 20)
#    0.000    2.897    1.379    2.483    0.000    6.621 
#    0.000    0.000    1.517    2.069    0.000    2.897 
#    0.000    0.000    0.000    0.000    0.000    0.000 
#
# Total GULP energy -323170.402563 kJ/mol
# GULP energy per Si atom -5571.903492 kJ/mol
# Density = 2.558232 g / cm^3
# Si number density = 25.640683 Si / 1000 Ang^3
#
#
#
# Elastic Constant Matrix: (Units=GPa)
#
#
# Indices 1 2 3 4 5 6 
#
# 1 240.3373 39.1075 -10.0758 0.0000 0.0000 0.0000
# 2 39.1075 54.7543 -28.1103 0.0000 0.0000 0.0000
# 3 -10.0758 -28.1103 120.1401 0.0000 0.0000 0.0000
# 4 0.0000 0.0000 0.0000 -74.4867 0.0000 0.0000
# 5 0.0000 0.0000 0.0000 0.0000 83.0001 0.0000
# 6 0.0000 0.0000 0.0000 0.0000 0.0000 24.3843
#
#
#
# Elastic Compliance Matrix: (Units=1/GPa)
#
#
# Indices 1 2 3 4 5 6 
#
# 1 0.004729 -0.003607 -0.000447 0.000000 0.000000 0.000000
# 2 -0.003607 0.023508 0.005198 0.000000 0.000000 0.000000
# 3 -0.000447 0.005198 0.009502 0.000000 0.000000 0.000000
# 4 0.000000 0.000000 0.000000 -0.013425 0.000000 0.000000
# 5 0.000000 0.000000 0.000000 0.000000 0.012048 0.000000
# 6 0.000000 0.000000 0.000000 0.000000 0.000000 0.041010
#
#
# Mechanical properties :
#
#
# Convention : Reuss Voigt Hill
#
# Bulk Modulus (GPa) = 24.98366 46.34160 35.66263
# Shear Modulus (GPa) = 56.54279 34.20021 45.37150
#
# Velocity S-wave (km/s) = 4.70105 3.65612 4.21112
# Velocity P-wave (km/s) = 6.26350 5.99464 6.13054
#
# Compressibility (1/GPa) = 0.04002617
#
# Stress axis : x y z
#
# Youngs Moduli (GPa) = 211.45905 42.53782 105.23761
#
# Poissons Ratio (x) = 0.15345 0.04709
# Poissons Ratio (y) = 0.76281 -0.54702
# Poissons Ratio (z) = 0.09461 -0.22111
#
# Static dielectric constant tensor:
#      x y z
#    x 2.048110 0.000000 0.000000 
#    y 0.000000 2.011150 0.000000 
#    z 0.000000 0.000000 2.056450 
# 
# From -- ./inp_files/44617.got.cif
#   From: 2010.05.17/outbox.cif.g08.bks.cpg/sg63_23_cif.got.tgz:44617.got - 2010.06.03 15:47:04.
