data_PCOD9468457
_publ_section_title
;
Structure prediction by ZEFSAII (Michael W. Deem and Ramdas Pophale) SiO2 
 PCOD9468457
Probable space group: C M C M
;
_chemical_formula_sum "Si O2"
_cell_formula_units_Z 56
_cell_length_a 9.882719
_cell_length_b 11.684317
_cell_length_c 19.962504
_cell_angle_alpha 90.000000
_cell_angle_beta 90.000000
_cell_angle_gamma 90.000000
_cell_volume 2305.126663
_symmetry_space_group_name_H-M "C M C M"
_symmetry_group_IT_number 63
_symmetry_cell_setting 'orthorhombic'
loop_
_space_group_symop_operation_xyz
x,y,z
-x,-y,1/2+z
x,-y,-z
-x,y,1/2-z
-x,-y,-z
x,y,1/2-z
-x,y,z
x,-y,1/2+z
1/2+x,1/2+y,z
1/2-x,1/2-y,1/2+z
1/2+x,1/2-y,-z
1/2-x,1/2+y,1/2-z
1/2-x,1/2-y,-z
1/2+x,1/2+y,1/2-z
1/2-x,1/2+y,z
1/2+x,1/2-y,1/2+z
loop_
_atom_site_type_symbol
_atom_site_label
_atom_site_fract_x
_atom_site_fract_y
_atom_site_fract_z
Si Si1 0.500000 0.198222 0.250000
Si Si2 0.500000 0.744765 0.105503
Si Si3 0.269154 0.611169 0.750000
Si Si4 0.730349 0.059949 0.603004
Si Si5 0.000000 0.138338 0.965015
Si Si6 0.500000 0.886773 0.898202
Si Si7 0.000000 0.241621 0.250000
O O1 0.625428 0.284900 0.250000
O O2 0.500000 0.124464 0.317438
O O3 0.368494 0.828196 0.100964
O O4 0.500000 0.682899 0.177747
O O5 0.500000 0.660177 0.043797
O O6 0.276661 0.543801 0.680427
O O7 0.125700 0.673098 0.750000
O O8 0.863003 0.080071 0.560068
O O9 0.634008 0.956033 0.581819
O O10 0.000000 0.263006 0.930110
#
# Coordination Sequence:
#
# PCOD9468457 Si02
#       7
#     4   8   8  16   8   8   4
#     4  12  20  39  68  97 126 182 230 271 328 397
#     4   9  20  38  67  94 131 177 217 278 343 396
#     4  10  17  36  62  92 127 173 223 275 328 390
#     4  10  21  39  62  96 135 172 222 281 333 391
#     4  12  22  41  67  98 130 178 229 269 337 413
#     4  11  24  40  65  95 138 180 220 278 341 394
#     4   8  18  35  62  95 122 168 224 261 342 399
#
# _framework density 24.293676000000001
#
# number of rings (size 3 to 8) (size 9 to 14) (size 15 to 20)
#    0.000    1.714    2.857    2.571    0.000    3.429 
#    0.000    4.286    0.000    3.429    0.000    0.000 
#    0.000    0.000    0.000    0.000    0.000    0.000 
#
# Total GULP energy -156979.889980 kJ/mol
# GULP energy per Si atom -5606.424642 kJ/mol
# Density = 2.423838 g / cm^3
# Si number density = 24.293676 Si / 1000 Ang^3
#
#
#
# Elastic Constant Matrix: (Units=GPa)
#
#
# Indices 1 2 3 4 5 6 
#
# 1 187.2322 82.9334 60.5706 0.0000 0.0000 0.0000
# 2 82.9334 108.7410 51.8483 0.0000 0.0000 0.0000
# 3 60.5706 51.8483 196.1879 0.0000 0.0000 0.0000
# 4 0.0000 0.0000 0.0000 35.3640 0.0000 0.0000
# 5 0.0000 0.0000 0.0000 0.0000 25.1944 0.0000
# 6 0.0000 0.0000 0.0000 0.0000 0.0000 31.7249
#
#
#
# Elastic Compliance Matrix: (Units=1/GPa)
#
#
# Indices 1 2 3 4 5 6 
#
# 1 0.008237 -0.005800 -0.001010 0.000000 0.000000 0.000000
# 2 -0.005800 0.014607 -0.002069 0.000000 0.000000 0.000000
# 3 -0.001010 -0.002069 0.005956 0.000000 0.000000 0.000000
# 4 0.000000 0.000000 0.000000 0.028277 0.000000 0.000000
# 5 0.000000 0.000000 0.000000 0.000000 0.039691 0.000000
# 6 0.000000 0.000000 0.000000 0.000000 0.000000 0.031521
#
#
# Mechanical properties :
#
#
# Convention : Reuss Voigt Hill
#
# Bulk Modulus (GPa) = 90.58303 98.09618 94.33960
# Shear Modulus (GPa) = 33.39362 38.24393 35.81877
#
# Velocity S-wave (km/s) = 3.71156 3.97197 3.84397
# Velocity P-wave (km/s) = 7.46560 7.84234 7.65629
#
# Compressibility (1/GPa) = 0.01103960
#
# Stress axis : x y z
#
# Youngs Moduli (GPa) = 121.40284 68.46164 167.90000
#
# Poissons Ratio (x) = 0.39711 0.16960
# Poissons Ratio (y) = 0.70420 0.34745
# Poissons Ratio (z) = 0.12263 0.14168
#
# Static dielectric constant tensor:
#      x y z
#    x 1.860420 0.000000 0.000000 
#    y 0.000000 1.873530 0.000000 
#    z 0.000000 0.000000 1.956130 
# 
# From -- ./inp_files/50206.got.cif
#   From: 2010.05.17/outbox.cif.g08.bks.cpg/sg63_26_cif.got.tgz:50206.got - 2010.06.03 15:47:04.
