data_PCOD9468959
_publ_section_title
;
Structure prediction by ZEFSAII (Michael W. Deem and Ramdas Pophale) SiO2 
 PCOD9468959
Probable space group: C M C M
;
_chemical_formula_sum "Si O2"
_cell_formula_units_Z 96
_cell_length_a 9.242395
_cell_length_b 23.150027
_cell_length_c 27.080823
_cell_angle_alpha 90.000000
_cell_angle_beta 90.000000
_cell_angle_gamma 90.000000
_cell_volume 5794.258758
_symmetry_space_group_name_H-M "C M C M"
_symmetry_group_IT_number 63
_symmetry_cell_setting 'orthorhombic'
loop_
_space_group_symop_operation_xyz
x,y,z
-x,-y,1/2+z
x,-y,-z
-x,y,1/2-z
-x,-y,-z
x,y,1/2-z
-x,y,z
x,-y,1/2+z
1/2+x,1/2+y,z
1/2-x,1/2-y,1/2+z
1/2+x,1/2-y,-z
1/2-x,1/2+y,1/2-z
1/2-x,1/2-y,-z
1/2+x,1/2+y,1/2-z
1/2-x,1/2+y,z
1/2+x,1/2-y,1/2+z
loop_
_atom_site_type_symbol
_atom_site_label
_atom_site_fract_x
_atom_site_fract_y
_atom_site_fract_z
Si Si1 0.666729 0.644534 0.750000
Si Si2 0.166440 0.995888 0.250000
Si Si3 0.327922 0.854431 0.150500
Si Si4 0.167233 0.167942 0.463798
Si Si5 0.172091 0.508483 0.649522
Si Si6 0.325952 0.046188 0.456856
Si Si7 0.166885 0.775456 0.427311
O O1 0.500000 0.663201 0.750000
O O2 0.667993 0.574340 0.750000
O O3 0.751976 0.663016 0.798541
O O4 0.245481 0.012472 0.198799
O O5 0.000000 0.015000 0.250000
O O6 0.500000 0.846496 0.152654
O O7 0.300065 0.922897 0.143098
O O8 0.257472 0.817169 0.107653
O O9 0.242931 0.105899 0.464964
O O10 0.168043 0.195627 0.518494
O O11 0.257764 0.213102 0.431025
O O12 0.000000 0.163663 0.447787
O O13 0.209661 0.478028 0.597805
O O14 0.000000 0.501691 0.657724
O O15 0.500000 0.055332 0.459053
O O16 0.290322 0.000000 0.500000
O O17 0.000000 0.770652 0.411357
#
# Coordination Sequence:
#
# PCOD9468959 Si02
#       7
#     8   8  16  16  16  16  16
#     4   9  17  29  45  70 103 132 161 201 248 294
#     4   9  17  29  47  70  97 130 169 211 248 286
#     4  10  18  30  50  75 101 130 166 205 245 289
#     4  10  21  35  51  73  99 129 166 205 245 292
#     4   9  18  31  49  73 102 135 167 202 246 297
#     4  10  20  34  52  75 104 136 167 201 247 302
#     4  10  20  34  52  72  97 130 165 202 246 296
#
# _framework density 16.568124999999998
#
# number of rings (size 3 to 8) (size 9 to 14) (size 15 to 20)
#    0.000    2.333    0.000    3.000    0.000    7.000 
#    0.000    0.000    0.000    1.000    0.000    3.500 
#    0.000    0.000    0.000    0.000    0.000    0.000 
#
# Total GULP energy -267686.161893 kJ/mol
# GULP energy per Si atom -5576.795039 kJ/mol
# Density = 1.653041 g / cm^3
# Si number density = 16.568125 Si / 1000 Ang^3
#
#
#
# Elastic Constant Matrix: (Units=GPa)
#
#
# Indices 1 2 3 4 5 6 
#
# 1 100.2590 59.5549 44.3284 0.0000 0.0000 0.0000
# 2 59.5549 85.0899 32.1279 0.0000 0.0000 0.0000
# 3 44.3284 32.1279 69.5927 0.0000 0.0000 0.0000
# 4 0.0000 0.0000 0.0000 22.0098 0.0000 0.0000
# 5 0.0000 0.0000 0.0000 0.0000 28.5804 0.0000
# 6 0.0000 0.0000 0.0000 0.0000 0.0000 25.1667
#
#
#
# Elastic Compliance Matrix: (Units=1/GPa)
#
#
# Indices 1 2 3 4 5 6 
#
# 1 0.019891 -0.011067 -0.007561 0.000000 0.000000 0.000000
# 2 -0.011067 0.020391 -0.002364 0.000000 0.000000 0.000000
# 3 -0.007561 -0.002364 0.020277 0.000000 0.000000 0.000000
# 4 0.000000 0.000000 0.000000 0.045434 0.000000 0.000000
# 5 0.000000 0.000000 0.000000 0.000000 0.034989 0.000000
# 6 0.000000 0.000000 0.000000 0.000000 0.000000 0.039735
#
#
# Mechanical properties :
#
#
# Convention : Reuss Voigt Hill
#
# Bulk Modulus (GPa) = 53.83710 58.55154 56.19432
# Shear Modulus (GPa) = 21.84431 23.08007 22.46219
#
# Velocity S-wave (km/s) = 3.63499 3.73640 3.68604
# Velocity P-wave (km/s) = 7.08396 7.35056 7.21849
#
# Compressibility (1/GPa) = 0.01857455
#
# Stress axis : x y z
#
# Youngs Moduli (GPa) = 50.27390 49.04164 49.31756
#
# Poissons Ratio (x) = 0.54275 0.37288
# Poissons Ratio (y) = 0.55638 0.11659
# Poissons Ratio (z) = 0.38011 0.11594
#
# Static dielectric constant tensor:
#      x y z
#    x 1.556070 0.000000 0.000000 
#    y 0.000000 1.526140 0.000000 
#    z 0.000000 0.000000 1.560780 
# 
# From -- ./inp_files/67271.got.cif
#   From: 2010.05.17/outbox.cif.g08.bks.cpg/sg63_34_cif.got.tgz:67271.got - 2010.06.03 15:47:04.
