data_PCOD9468328
_publ_section_title
;
Structure prediction by ZEFSAII (Michael W. Deem and Ramdas Pophale) SiO2 
 PCOD9468328
Probable space group: C M C M
;
_chemical_formula_sum "Si O2"
_cell_formula_units_Z 120
_cell_length_a 20.844820
_cell_length_b 19.618062
_cell_length_c 13.131516
_cell_angle_alpha 90.000000
_cell_angle_beta 90.000000
_cell_angle_gamma 90.000000
_cell_volume 5369.936116
_symmetry_space_group_name_H-M "C M C M"
_symmetry_group_IT_number 63
_symmetry_cell_setting 'orthorhombic'
loop_
_space_group_symop_operation_xyz
x,y,z
-x,-y,1/2+z
x,-y,-z
-x,y,1/2-z
-x,-y,-z
x,y,1/2-z
-x,y,z
x,-y,1/2+z
1/2+x,1/2+y,z
1/2-x,1/2-y,1/2+z
1/2+x,1/2-y,-z
1/2-x,1/2+y,1/2-z
1/2-x,1/2-y,-z
1/2+x,1/2+y,1/2-z
1/2-x,1/2+y,z
1/2+x,1/2-y,1/2+z
loop_
_atom_site_type_symbol
_atom_site_label
_atom_site_fract_x
_atom_site_fract_y
_atom_site_fract_z
Si Si1 0.577629 0.051351 0.142609
Si Si2 0.643424 0.221650 0.528751
Si Si3 0.076769 0.401176 0.417745
Si Si4 0.296683 0.383625 0.137085
Si Si5 0.681081 0.500000 0.000000
Si Si6 0.428797 0.562669 0.131483
Si Si7 0.254178 0.773925 0.864991
Si Si8 0.430449 0.663622 0.556576
O O1 0.601007 0.080371 0.250000
O O2 0.500000 0.050098 0.144566
O O3 0.596670 0.971902 0.133434
O O4 0.591635 0.088598 0.037825
O O5 0.616697 0.165845 0.606267
O O6 0.693185 0.197182 0.441893
O O7 0.683469 0.279993 0.588485
O O8 0.585781 0.258271 0.469520
O O9 0.000000 0.392576 0.403056
O O10 0.284461 0.411738 0.250000
O O11 0.264989 0.308649 0.132918
O O12 0.372141 0.366578 0.121227
O O13 0.279829 0.436829 0.047510
O O14 0.632119 0.520744 0.090875
O O15 0.421328 0.581027 0.250000
O O16 0.500000 0.528147 0.122251
O O17 0.431346 0.624425 0.051420
O O18 0.259748 0.798086 0.750000
O O19 0.500000 0.656286 0.604964
#
# Coordination Sequence:
#
# PCOD9468328 Si02
#       8
#    16  16  16  16   8  16  16  16
#     4   8  15  29  46  68 104 140 161 185 231 290
#     4  10  19  33  54  74  94 126 166 207 244 287
#     4   9  17  29  49  77 103 128 160 197 240 291
#     4   9  18  33  51  71  98 130 164 202 242 288
#     4  10  17  28  48  70  90 122 165 204 240 282
#     4   9  17  28  41  62  95 128 155 187 231 287
#     4   9  20  37  52  68  94 129 167 207 249 288
#     4   9  18  31  48  74 104 128 153 193 246 296
#
# _framework density 22.346633000000001
#
# number of rings (size 3 to 8) (size 9 to 14) (size 15 to 20)
#    0.000    2.933    0.000    1.800    0.000    2.400 
#    0.000    1.333    0.000    7.200    0.000    0.000 
#    0.000    0.000    0.000    0.000    0.000    0.000 
#
# Total GULP energy -334503.113732 kJ/mol
# GULP energy per Si atom -5575.051896 kJ/mol
# Density = 2.229577 g / cm^3
# Si number density = 22.346633 Si / 1000 Ang^3
#
#
#
# Elastic Constant Matrix: (Units=GPa)
#
#
# Indices 1 2 3 4 5 6 
#
# 1 43.7443 11.8375 2.8548 0.0000 0.0000 0.0000
# 2 11.8375 32.8457 -20.8834 0.0000 0.0000 0.0000
# 3 2.8548 -20.8834 92.3886 0.0000 0.0000 0.0000
# 4 0.0000 0.0000 0.0000 12.8899 0.0000 0.0000
# 5 0.0000 0.0000 0.0000 0.0000 8.3179 0.0000
# 6 0.0000 0.0000 0.0000 0.0000 0.0000 24.4886
#
#
#
# Elastic Compliance Matrix: (Units=1/GPa)
#
#
# Indices 1 2 3 4 5 6 
#
# 1 0.026236 -0.011644 -0.003443 0.000000 0.000000 0.000000
# 2 -0.011644 0.040723 0.009565 0.000000 0.000000 0.000000
# 3 -0.003443 0.009565 0.013092 0.000000 0.000000 0.000000
# 4 0.000000 0.000000 0.000000 0.077580 0.000000 0.000000
# 5 0.000000 0.000000 0.000000 0.000000 0.120223 0.000000
# 6 0.000000 0.000000 0.000000 0.000000 0.000000 0.040835
#
#
# Mechanical properties :
#
#
# Convention : Reuss Voigt Hill
#
# Bulk Modulus (GPa) = 14.49121 17.39958 15.94540
# Shear Modulus (GPa) = 14.17489 20.81726 17.49608
#
# Velocity S-wave (km/s) = 2.52130 3.05546 2.80114
# Velocity P-wave (km/s) = 3.86972 4.50010 4.19677
#
# Compressibility (1/GPa) = 0.06900733
#
# Stress axis : x y z
#
# Youngs Moduli (GPa) = 38.11592 24.55593 76.38096
#
# Poissons Ratio (x) = 0.28593 0.26296
# Poissons Ratio (y) = 0.44383 -0.73058
# Poissons Ratio (z) = 0.13122 -0.23487
#
# Static dielectric constant tensor:
#      x y z
#    x 1.851090 0.000000 0.000000 
#    y 0.000000 1.866130 0.000000 
#    z 0.000000 0.000000 1.849060 
# 
# From -- ./inp_files/37193.got.cif
#   From: 2010.05.17/outbox.cif.g08.bks.cpg/sg63_19_cif.got.tgz:37193.got - 2010.06.03 15:47:04.
