data_PCOD9468351
_publ_section_title
;
Structure prediction by ZEFSAII (Michael W. Deem and Ramdas Pophale) SiO2 
 PCOD9468351
Probable space group: C M C M
;
_chemical_formula_sum "Si O2"
_cell_formula_units_Z 96
_cell_length_a 24.255979
_cell_length_b 27.518258
_cell_length_c 7.705963
_cell_angle_alpha 90.000000
_cell_angle_beta 90.000000
_cell_angle_gamma 90.000000
_cell_volume 5143.593816
_symmetry_space_group_name_H-M "C M C M"
_symmetry_group_IT_number 63
_symmetry_cell_setting 'orthorhombic'
loop_
_space_group_symop_operation_xyz
x,y,z
-x,-y,1/2+z
x,-y,-z
-x,y,1/2-z
-x,-y,-z
x,y,1/2-z
-x,y,z
x,-y,1/2+z
1/2+x,1/2+y,z
1/2-x,1/2-y,1/2+z
1/2+x,1/2-y,-z
1/2-x,1/2+y,1/2-z
1/2-x,1/2-y,-z
1/2+x,1/2+y,1/2-z
1/2-x,1/2+y,z
1/2+x,1/2-y,1/2+z
loop_
_atom_site_type_symbol
_atom_site_label
_atom_site_fract_x
_atom_site_fract_y
_atom_site_fract_z
Si Si1 0.314360 0.792894 0.550850
Si Si2 0.500000 0.132760 0.538983
Si Si3 0.789616 0.148104 0.036794
Si Si4 0.777346 0.445315 0.543826
Si Si5 0.500000 0.246431 0.963649
Si Si6 0.379938 0.112702 0.545878
Si Si7 0.888113 0.206011 0.447957
O O1 0.309162 0.776904 0.750000
O O2 0.255144 0.810978 0.483867
O O3 0.351262 0.841626 0.545849
O O4 0.346680 0.751920 0.448146
O O5 0.500000 0.132007 0.750000
O O6 0.500000 0.189655 0.485297
O O7 0.442748 0.108102 0.483645
O O8 0.790092 0.148756 0.250000
O O9 0.764868 0.096403 0.979951
O O10 0.850349 0.163145 0.975370
O O11 0.761425 0.500000 0.500000
O O12 0.779465 0.440384 0.750000
O O13 0.838457 0.432060 0.477059
O O14 0.500000 0.245636 0.750000
O O15 0.554912 0.274247 0.024848
O O16 0.381401 0.124864 0.750000
O O17 0.901085 0.192035 0.250000
#
# Coordination Sequence:
#
# PCOD9468351 Si02
#       7
#    16   8  16  16   8  16  16
#     4  10  18  28  41  65  97 126 157 194 228 272
#     4   9  16  28  45  69  94 123 166 200 220 262
#     4   8  17  30  46  67  92 118 150 193 234 276
#     4  10  20  36  53  73  94 114 149 194 244 292
#     4   9  16  26  44  69  94 125 165 196 218 260
#     4  10  18  31  50  69  92 126 162 196 233 270
#     4  10  17  29  46  65  92 127 159 190 228 269
#
# _framework density 18.663992
#
# number of rings (size 3 to 8) (size 9 to 14) (size 15 to 20)
#    0.000    2.500    1.667    3.000    0.000    0.000 
#    0.000    7.500    0.000    0.000    0.000    0.583 
#    0.000    0.000    0.000    0.000    0.000    0.000 
#
# Total GULP energy -267652.122078 kJ/mol
# GULP energy per Si atom -5576.085877 kJ/mol
# Density = 1.862151 g / cm^3
# Si number density = 18.663992 Si / 1000 Ang^3
#
#
#
# Elastic Constant Matrix: (Units=GPa)
#
#
# Indices 1 2 3 4 5 6 
#
# 1 96.6401 54.3836 -0.2517 0.0000 0.0000 0.0000
# 2 54.3836 83.3280 -1.4855 0.0000 0.0000 0.0000
# 3 -0.2517 -1.4855 44.1255 0.0000 0.0000 0.0000
# 4 0.0000 0.0000 0.0000 12.1907 0.0000 0.0000
# 5 0.0000 0.0000 0.0000 0.0000 7.4677 0.0000
# 6 0.0000 0.0000 0.0000 0.0000 0.0000 12.3086
#
#
#
# Elastic Compliance Matrix: (Units=1/GPa)
#
#
# Indices 1 2 3 4 5 6 
#
# 1 0.016357 -0.010680 -0.000266 0.000000 0.000000 0.000000
# 2 -0.010680 0.018981 0.000578 0.000000 0.000000 0.000000
# 3 -0.000266 0.000578 0.022681 0.000000 0.000000 0.000000
# 4 0.000000 0.000000 0.000000 0.082030 0.000000 0.000000
# 5 0.000000 0.000000 0.000000 0.000000 0.133911 0.000000
# 6 0.000000 0.000000 0.000000 0.000000 0.000000 0.081244
#
#
# Mechanical properties :
#
#
# Convention : Reuss Voigt Hill
#
# Bulk Modulus (GPa) = 26.82219 36.59847 31.71033
# Shear Modulus (GPa) = 12.87440 17.82321 15.34880
#
# Velocity S-wave (km/s) = 2.62925 3.09358 2.87082
# Velocity P-wave (km/s) = 4.86000 5.69316 5.29300
#
# Compressibility (1/GPa) = 0.03728256
#
# Stress axis : x y z
#
# Youngs Moduli (GPa) = 61.13526 52.68311 44.09057
#
# Poissons Ratio (x) = 0.56266 0.01174
# Poissons Ratio (y) = 0.65293 -0.02549
# Poissons Ratio (z) = 0.01628 -0.03046
#
# Static dielectric constant tensor:
#      x y z
#    x 1.685780 0.000000 0.000000 
#    y 0.000000 1.645220 0.000000 
#    z 0.000000 0.000000 1.718060 
# 
# From -- ./inp_files/10755.got.cif
#   From: 2010.05.17/outbox.cif.g08.bks.cpg/sg63_6_cif.got.tgz:10755.got - 2010.06.03 15:47:04.
