data_PCOD9468102
_publ_section_title
;
Structure prediction by ZEFSAII (Michael W. Deem and Ramdas Pophale) SiO2 
 PCOD9468102
Probable space group: C M C M
;
_chemical_formula_sum "Si O2"
_cell_formula_units_Z 80
_cell_length_a 28.597361
_cell_length_b 7.347188
_cell_length_c 14.116373
_cell_angle_alpha 90.000000
_cell_angle_beta 90.000000
_cell_angle_gamma 90.000000
_cell_volume 2965.993779
_symmetry_space_group_name_H-M "C M C M"
_symmetry_group_IT_number 63
_symmetry_cell_setting 'orthorhombic'
loop_
_space_group_symop_operation_xyz
x,y,z
-x,-y,1/2+z
x,-y,-z
-x,y,1/2-z
-x,-y,-z
x,y,1/2-z
-x,y,z
x,-y,1/2+z
1/2+x,1/2+y,z
1/2-x,1/2-y,1/2+z
1/2+x,1/2-y,-z
1/2-x,1/2+y,1/2-z
1/2-x,1/2-y,-z
1/2+x,1/2+y,1/2-z
1/2-x,1/2+y,z
1/2+x,1/2-y,1/2+z
loop_
_atom_site_type_symbol
_atom_site_label
_atom_site_fract_x
_atom_site_fract_y
_atom_site_fract_z
Si Si1 0.300250 0.328477 0.641147
Si Si2 0.899244 0.404440 0.636614
Si Si3 0.199258 0.393336 0.858417
Si Si4 0.400446 0.674641 0.133261
Si Si5 0.000000 0.135167 0.355693
Si Si6 0.500000 0.940321 0.606784
O O1 0.296658 0.397093 0.750000
O O2 0.249730 0.361495 0.595524
O O3 0.305758 0.110923 0.645606
O O4 0.349899 0.400660 0.604492
O O5 0.892048 0.408287 0.750000
O O6 0.850026 0.325894 0.598917
O O7 0.902456 0.613759 0.602664
O O8 0.951859 0.333818 0.624687
O O9 0.202817 0.321893 0.750000
O O10 0.400845 0.671473 0.250000
O O11 0.449558 0.591801 0.100837
O O12 0.000000 0.056314 0.250000
O O13 0.000000 0.358888 0.344699
O O14 0.500000 0.000000 0.500000
#
# Coordination Sequence:
#
# PCOD9468102 Si02
#       6
#    16  16  16  16   8   8
#     4   8  12  18  28  47  70  91 115 145 174 205
#     4   8  13  22  33  46  66  94 119 141 173 218
#     4   8  13  20  32  49  70  93 119 146 175 209
#     4   7  10  16  28  44  62  82 108 137 166 199
#     4   8  12  20  32  46  65  90 113 138 176 218
#     4  10  16  20  30  50  71  90 112 146 184 214
#
# _framework density 26.97241
#
# number of rings (size 3 to 8) (size 9 to 14) (size 15 to 20)
#    0.000    4.000    0.000    4.500    0.000    0.000 
#    0.000    0.000    0.000    0.000    0.000   14.000 
#    0.000    9.600    0.000   16.200    0.000   18.000 
#
# Total GULP energy -222984.980621 kJ/mol
# GULP energy per Si atom -5574.624516 kJ/mol
# Density = 2.691102 g / cm^3
# Si number density = 26.972410 Si / 1000 Ang^3
#
#
#
# Elastic Constant Matrix: (Units=GPa)
#
#
# Indices 1 2 3 4 5 6 
#
# 1 428.2613 16.4519 15.2026 0.0000 0.0000 0.0000
# 2 16.4519 96.8402 8.0939 0.0000 0.0000 0.0000
# 3 15.2026 8.0939 81.0730 0.0000 0.0000 0.0000
# 4 0.0000 0.0000 0.0000 7.9455 0.0000 0.0000
# 5 0.0000 0.0000 0.0000 0.0000 -30.9857 0.0000
# 6 0.0000 0.0000 0.0000 0.0000 0.0000 9.8290
#
#
#
# Elastic Compliance Matrix: (Units=1/GPa)
#
#
# Indices 1 2 3 4 5 6 
#
# 1 0.002364 -0.000368 -0.000407 0.000000 0.000000 0.000000
# 2 -0.000368 0.010470 -0.000976 0.000000 0.000000 0.000000
# 3 -0.000407 -0.000976 0.012508 0.000000 0.000000 0.000000
# 4 0.000000 0.000000 0.000000 0.125857 0.000000 0.000000
# 5 0.000000 0.000000 0.000000 0.000000 -0.032273 0.000000
# 6 0.000000 0.000000 0.000000 0.000000 0.000000 0.101740
#
#
# Mechanical properties :
#
#
# Convention : Reuss Voigt Hill
#
# Bulk Modulus (GPa) = 45.78489 76.18570 60.98529
# Shear Modulus (GPa) = 21.60319 35.11950 28.36134
#
# Velocity S-wave (km/s) = 2.83315 3.61231 3.24619
# Velocity P-wave (km/s) = 5.26440 6.76058 6.05885
#
# Compressibility (1/GPa) = 0.02184127
#
# Stress axis : x y z
#
# Youngs Moduli (GPa) = 423.08812 95.50789 79.94709
#
# Poissons Ratio (x) = 0.03511 0.03250
# Poissons Ratio (y) = 0.15551 0.07806
# Poissons Ratio (z) = 0.17199 0.09325
#
# Static dielectric constant tensor:
#      x y z
#    x 2.230790 0.000000 0.000000 
#    y 0.000000 2.273920 0.000000 
#    z 0.000000 0.000000 2.033970 
# 
# From -- ./inp_files/47926.got.cif
#   From: 2010.05.17/outbox.cif.g08.bks.cpg/sg63_24_cif.got.tgz:47926.got - 2010.06.03 15:47:04.
