data_PCOD9468039
_publ_section_title
;
Structure prediction by ZEFSAII (Michael W. Deem and Ramdas Pophale) SiO2 
 PCOD9468039
Probable space group: P N M A
;
_chemical_formula_sum "Si O2"
_cell_formula_units_Z 56
_cell_length_a 21.000000
_cell_length_b 9.000000
_cell_length_c 15.000000
_cell_angle_alpha 90.000000
_cell_angle_beta 90.000000
_cell_angle_gamma 90.000000
_cell_volume 2835.000000
_symmetry_space_group_name_H-M "P N M A"
_symmetry_group_IT_number 62
_symmetry_cell_setting 'orthorhombic'
loop_
_space_group_symop_operation_xyz
x,y,z
1/2-x,-y,1/2+z
1/2+x,1/2-y,1/2-z
-x,1/2+y,-z
-x,-y,-z
1/2+x,y,1/2-z
1/2-x,1/2+y,1/2+z
x,1/2-y,z
loop_
_atom_site_type_symbol
_atom_site_label
_atom_site_fract_x
_atom_site_fract_y
_atom_site_fract_z
Si Si1 0.269897 0.429481 0.534079
Si Si2 0.893945 0.429242 0.299691
Si Si3 0.177075 0.071234 0.376389
Si Si4 0.568936 0.429080 0.988048
Si Si5 0.509324 0.927324 0.647239
Si Si6 0.734926 0.427869 0.764505
Si Si7 0.411560 0.428319 0.531281
O O1 0.271404 0.250000 0.528376
O O2 0.224725 0.477709 0.455258
O O3 0.246128 0.464386 0.632008
O O4 0.340625 0.486729 0.523036
O O5 0.890230 0.250000 0.307348
O O6 0.900674 0.502860 0.397436
O O7 0.955244 0.467731 0.238427
O O8 0.832055 0.489912 0.246589
O O9 0.180927 0.250000 0.362503
O O10 0.109114 0.039222 0.421658
O O11 0.205119 0.988792 0.290894
O O12 0.567319 0.250000 0.978291
O O13 0.500000 0.500000 0.000000
O O14 0.499972 0.750000 0.648437
O O15 0.553208 0.964583 0.561304
O O16 0.444590 0.006917 0.619298
O O17 0.728949 0.250000 0.753620
O O18 0.411629 0.250000 0.538724
#
# Coordination Sequence:
#
# PCOD9468039 Si02
#       7
#     8   8   8   8   8   8   8
#     4   9  18  36  58  80 113 151 188 237 300 358
#     4  11  22  39  62  87 119 162 208 250 305 374
#     4  10  21  41  63  85 120 163 201 249 313 374
#     4  11  24  43  66  90 123 164 208 260 316 375
#     4   9  19  34  53  79 113 150 191 239 290 352
#     4  11  22  37  60  91 120 152 201 258 309 365
#     4   9  17  32  55  80 109 148 191 237 293 354
#
# _framework density 19.753086
#
# number of rings (size 3 to 8) (size 9 to 14) (size 15 to 20)
#    0.000    2.000    1.429    2.143    0.000    5.714 
#    0.000    7.857    0.000    0.000    0.000    0.000 
#    0.000    0.000    0.000    0.000    0.000    0.000 
#
# Total GULP energy -312361.610345 kJ/mol
# GULP energy per Si atom -5577.885899 kJ/mol
# Density = 1.970813 g / cm^3
# Si number density = 19.753086 Si / 1000 Ang^3
#
#
#
# Elastic Constant Matrix: (Units=GPa)
#
#
# Indices 1 2 3 4 5 6 
#
# 1 85.3330 19.8900 -9.1134 0.0000 0.0000 0.0000
# 2 19.8900 35.6908 21.3447 0.0000 0.0000 0.0000
# 3 -9.1134 21.3447 20.7754 0.0000 0.0000 0.0000
# 4 0.0000 0.0000 0.0000 31.2000 0.0000 0.0000
# 5 0.0000 0.0000 0.0000 0.0000 31.3570 0.0000
# 6 0.0000 0.0000 0.0000 0.0000 0.0000 25.5100
#
#
#
# Elastic Compliance Matrix: (Units=1/GPa)
#
#
# Indices 1 2 3 4 5 6 
#
# 1 0.052220 -0.111007 0.136956 0.000000 0.000000 0.000000
# 2 -0.111007 0.308642 -0.365795 0.000000 0.000000 0.000000
# 3 0.136956 -0.365795 0.484031 0.000000 0.000000 0.000000
# 4 0.000000 0.000000 0.000000 0.032051 0.000000 0.000000
# 5 0.000000 0.000000 0.000000 0.000000 0.031891 0.000000
# 6 0.000000 0.000000 0.000000 0.000000 0.000000 0.039200
#
#
# Mechanical properties :
#
#
# Convention : Reuss Voigt Hill
#
# Bulk Modulus (GPa) = 6.05324 22.89353 14.47339
# Shear Modulus (GPa) = 2.97125 24.92525 13.94825
#
# Velocity S-wave (km/s) = 1.22779 3.55609 2.66019
# Velocity P-wave (km/s) = 2.25412 5.33630 4.09616
#
# Compressibility (1/GPa) = 0.16520068
#
# Stress axis : x y z
#
# Youngs Moduli (GPa) = 19.14982 3.24000 2.06598
#
# Poissons Ratio (x) = 0.35966 -0.28295
# Poissons Ratio (y) = 2.12576 0.75573
# Poissons Ratio (z) = -2.62268 1.18517
#
# Static dielectric constant tensor:
#      x y z
#    x 1.764160 0.000000 0.000000 
#    y 0.000000 1.658870 0.000000 
#    z 0.000000 0.000000 1.678810 
# 
# From -- ./inp_files/20252.got.cif
#   From: 2010.05.17/outbox.ucp.g08.bks.cvg/sg62_11_cif.got.tgz:20252.got - 2010.06.11 16:29:25.
