data_PCOD9468462
_publ_section_title
;
Structure prediction by ZEFSAII (Michael W. Deem and Ramdas Pophale) SiO2 
 PCOD9468462
Probable space group: C M C M
;
_chemical_formula_sum "Si O2"
_cell_formula_units_Z 96
_cell_length_a 15.022197
_cell_length_b 22.775277
_cell_length_c 14.283406
_cell_angle_alpha 90.000000
_cell_angle_beta 90.000000
_cell_angle_gamma 90.000000
_cell_volume 4886.848796
_symmetry_space_group_name_H-M "C M C M"
_symmetry_group_IT_number 63
_symmetry_cell_setting 'orthorhombic'
loop_
_space_group_symop_operation_xyz
x,y,z
-x,-y,1/2+z
x,-y,-z
-x,y,1/2-z
-x,-y,-z
x,y,1/2-z
-x,y,z
x,-y,1/2+z
1/2+x,1/2+y,z
1/2-x,1/2-y,1/2+z
1/2+x,1/2-y,-z
1/2-x,1/2+y,1/2-z
1/2-x,1/2-y,-z
1/2+x,1/2+y,1/2-z
1/2-x,1/2+y,z
1/2+x,1/2-y,1/2+z
loop_
_atom_site_type_symbol
_atom_site_label
_atom_site_fract_x
_atom_site_fract_y
_atom_site_fract_z
Si Si1 0.000000 0.868549 0.144109
Si Si2 0.500000 0.506538 0.389641
Si Si3 0.719430 0.131326 0.139029
Si Si4 0.904477 0.799464 0.860142
Si Si5 0.197600 0.014397 0.358966
Si Si6 0.806617 0.119369 0.635757
Si Si7 0.323701 0.201708 0.526262
O O1 0.000000 0.939958 0.150155
O O2 0.097064 0.855067 0.102191
O O3 0.000000 0.844563 0.250000
O O4 0.500000 0.500000 0.500000
O O5 0.594171 0.534438 0.363175
O O6 0.697544 0.134616 0.250000
O O7 0.817429 0.160603 0.126309
O O8 0.735419 0.064271 0.107340
O O9 0.655374 0.166674 0.069184
O O10 0.902769 0.784131 0.750000
O O11 0.896071 0.740210 0.920467
O O12 0.000000 0.828569 0.880610
O O13 0.219247 0.008093 0.250000
O O14 0.199639 0.948363 0.397959
O O15 0.808428 0.120413 0.750000
O O16 0.725941 0.156637 0.595727
O O17 0.250000 0.250000 0.500000
#
# Coordination Sequence:
#
# PCOD9468462 Si02
#       7
#     8   8  16  16  16  16  16
#     4   8  16  30  42  62  94 132 162 193 230 282
#     4  10  18  22  36  62  96 132 162 196 226 273
#     4   9  19  32  48  71 102 134 166 202 248 298
#     4   9  18  34  53  74  98 128 169 216 258 293
#     4   9  18  30  43  66  97 132 164 196 242 299
#     4   9  17  31  50  70 100 132 165 201 243 291
#     4  10  20  33  48  72  94 131 170 209 251 287
#
# _framework density 19.644560999999999
#
# number of rings (size 3 to 8) (size 9 to 14) (size 15 to 20)
#    0.000    2.833    0.000    2.250    5.833    0.667 
#    6.000    0.000    0.000    0.500    0.000    2.333 
#    0.000    4.000    0.000    0.000    0.000    0.000 
#
# Total GULP energy -267366.595260 kJ/mol
# GULP energy per Si atom -5570.137401 kJ/mol
# Density = 1.959985 g / cm^3
# Si number density = 19.644561 Si / 1000 Ang^3
#
#
#
# Elastic Constant Matrix: (Units=GPa)
#
#
# Indices 1 2 3 4 5 6 
#
# 1 17.1644 2.9561 3.4554 0.0000 0.0000 0.0000
# 2 2.9561 62.1451 8.0856 0.0000 0.0000 0.0000
# 3 3.4554 8.0856 61.9296 0.0000 0.0000 0.0000
# 4 0.0000 0.0000 0.0000 14.2360 0.0000 0.0000
# 5 0.0000 0.0000 0.0000 0.0000 14.8292 0.0000
# 6 0.0000 0.0000 0.0000 0.0000 0.0000 24.8702
#
#
#
# Elastic Compliance Matrix: (Units=1/GPa)
#
#
# Indices 1 2 3 4 5 6 
#
# 1 0.059281 -0.002431 -0.002990 0.000000 0.000000 0.000000
# 2 -0.002431 0.016469 -0.002015 0.000000 0.000000 0.000000
# 3 -0.002990 -0.002015 0.016577 0.000000 0.000000 0.000000
# 4 0.000000 0.000000 0.000000 0.070244 0.000000 0.000000
# 5 0.000000 0.000000 0.000000 0.000000 0.067434 0.000000
# 6 0.000000 0.000000 0.000000 0.000000 0.000000 0.040209
#
#
# Mechanical properties :
#
#
# Convention : Reuss Voigt Hill
#
# Bulk Modulus (GPa) = 12.91058 18.91482 15.91270
# Shear Modulus (GPa) = 16.08211 19.23656 17.65933
#
# Velocity S-wave (km/s) = 2.86432 3.13266 3.00149
# Velocity P-wave (km/s) = 4.18634 4.76804 4.48663
#
# Compressibility (1/GPa) = 0.07745586
#
# Stress axis : x y z
#
# Youngs Moduli (GPa) = 16.86887 60.71969 60.32367
#
# Poissons Ratio (x) = 0.14760 0.18038
# Poissons Ratio (y) = 0.04100 0.12153
# Poissons Ratio (z) = 0.05044 0.12233
#
# Static dielectric constant tensor:
#      x y z
#    x 1.686720 0.000000 0.000000 
#    y 0.000000 1.721400 0.000000 
#    z 0.000000 0.000000 1.799570 
# 
# From -- ./inp_files/32176.got.cif
#   From: 2010.05.17/outbox.cif.g08.bks.cpg/sg63_17_cif.got.tgz:32176.got - 2010.06.03 15:47:04.
