data_PCOD9468692
_publ_section_title
;
Structure prediction by ZEFSAII (Michael W. Deem and Ramdas Pophale) SiO2 
 PCOD9468692
Probable space group: C M C M
;
_chemical_formula_sum "Si O2"
_cell_formula_units_Z 88
_cell_length_a 19.323387
_cell_length_b 30.135194
_cell_length_c 7.404283
_cell_angle_alpha 90.000000
_cell_angle_beta 90.000000
_cell_angle_gamma 90.000000
_cell_volume 4311.617769
_symmetry_space_group_name_H-M "C M C M"
_symmetry_group_IT_number 63
_symmetry_cell_setting 'orthorhombic'
loop_
_space_group_symop_operation_xyz
x,y,z
-x,-y,1/2+z
x,-y,-z
-x,y,1/2-z
-x,-y,-z
x,y,1/2-z
-x,y,z
x,-y,1/2+z
1/2+x,1/2+y,z
1/2-x,1/2-y,1/2+z
1/2+x,1/2-y,-z
1/2-x,1/2+y,1/2-z
1/2-x,1/2-y,-z
1/2+x,1/2+y,1/2-z
1/2-x,1/2+y,z
1/2+x,1/2-y,1/2+z
loop_
_atom_site_type_symbol
_atom_site_label
_atom_site_fract_x
_atom_site_fract_y
_atom_site_fract_z
Si Si1 0.077557 0.257177 0.968520
Si Si2 0.348378 0.447528 0.465832
Si Si3 0.078009 0.360279 0.037863
Si Si4 0.705633 0.293823 0.034990
Si Si5 0.225389 0.615224 0.971801
Si Si6 0.000000 0.946949 0.465816
O O1 0.078910 0.257018 0.750000
O O2 0.130461 0.220153 0.034425
O O3 0.000000 0.248534 0.029613
O O4 0.095078 0.307686 0.022673
O O5 0.342903 0.500000 0.500000
O O6 0.350146 0.441007 0.250000
O O7 0.280217 0.421951 0.530984
O O8 0.424378 0.431545 0.534221
O O9 0.073327 0.370518 0.250000
O O10 0.145324 0.386223 0.966679
O O11 0.000000 0.366756 0.961677
O O12 0.700015 0.300113 0.250000
O O13 0.742065 0.337913 0.967025
O O14 0.750000 0.250000 0.000000
O O15 0.223020 0.614763 0.750000
O O16 0.000000 0.939565 0.250000
O O17 0.000000 0.000000 0.500000
#
# Coordination Sequence:
#
# PCOD9468692 Si02
#       6
#    16  16  16  16  16   8
#     4   9  17  28  41  60  87 118 149 182 219 255
#     4   9  17  31  49  68  89 113 143 181 219 261
#     4   9  16  27  45  65  84 113 151 183 211 253
#     4  10  18  29  44  63  90 121 149 182 219 258
#     4   9  17  29  45  66  90 114 144 181 220 259
#     4   8  14  26  46  68  86 110 142 174 214 258
#
# _framework density 20.409973000000001
#
# number of rings (size 3 to 8) (size 9 to 14) (size 15 to 20)
#    0.000    2.909    1.818    0.000    0.000    0.000 
#    1.636    1.818    0.000    0.545    0.000    0.000 
#    0.000    0.000    0.000    0.000    0.000    0.000 
#
# Total GULP energy -245148.880334 kJ/mol
# GULP energy per Si atom -5571.565462 kJ/mol
# Density = 2.036352 g / cm^3
# Si number density = 20.409973 Si / 1000 Ang^3
#
#
#
# Elastic Constant Matrix: (Units=GPa)
#
#
# Indices 1 2 3 4 5 6 
#
# 1 221.2013 72.0339 8.9689 0.0000 0.0000 0.0000
# 2 72.0339 62.2398 -3.1787 0.0000 0.0000 0.0000
# 3 8.9689 -3.1787 70.0546 0.0000 0.0000 0.0000
# 4 0.0000 0.0000 0.0000 12.8539 0.0000 0.0000
# 5 0.0000 0.0000 0.0000 0.0000 1.6681 0.0000
# 6 0.0000 0.0000 0.0000 0.0000 0.0000 28.4451
#
#
#
# Elastic Compliance Matrix: (Units=1/GPa)
#
#
# Indices 1 2 3 4 5 6 
#
# 1 0.007378 -0.008607 -0.001335 0.000000 0.000000 0.000000
# 2 -0.008607 0.026145 0.002288 0.000000 0.000000 0.000000
# 3 -0.001335 0.002288 0.014549 0.000000 0.000000 0.000000
# 4 0.000000 0.000000 0.000000 0.077797 0.000000 0.000000
# 5 0.000000 0.000000 0.000000 0.000000 0.599468 0.000000
# 6 0.000000 0.000000 0.000000 0.000000 0.000000 0.035155
#
#
# Mechanical properties :
#
#
# Convention : Reuss Voigt Hill
#
# Bulk Modulus (GPa) = 30.52069 56.57154 43.54612
# Shear Modulus (GPa) = 6.35549 26.97154 16.66351
#
# Velocity S-wave (km/s) = 1.76654 3.63917 2.86044
# Velocity P-wave (km/s) = 4.37575 6.74061 5.68256
#
# Compressibility (1/GPa) = 0.03276466
#
# Stress axis : x y z
#
# Youngs Moduli (GPa) = 135.54326 38.24818 68.73168
#
# Poissons Ratio (x) = 0.32920 0.09176
# Poissons Ratio (y) = 1.16660 -0.15728
# Poissons Ratio (z) = 0.18096 -0.08752
#
# Static dielectric constant tensor:
#      x y z
#    x 1.809590 0.000000 0.000000 
#    y 0.000000 1.668420 0.000000 
#    z 0.000000 0.000000 1.804010 
# 
# From -- ./inp_files/21716.got.cif
#   From: 2010.05.17/outbox.cif.g08.bks.cpg/sg63_11_cif.got.tgz:21716.got - 2010.06.03 15:47:04.
