data_PCOD9468229
_publ_section_title
;
Structure prediction by ZEFSAII (Michael W. Deem and Ramdas Pophale) SiO2 
 PCOD9468229
Probable space group: C M C M
;
_chemical_formula_sum "Si O2"
_cell_formula_units_Z 96
_cell_length_a 39.925211
_cell_length_b 5.578485
_cell_length_c 18.404818
_cell_angle_alpha 90.000000
_cell_angle_beta 90.000000
_cell_angle_gamma 90.000000
_cell_volume 4099.161384
_symmetry_space_group_name_H-M "C M C M"
_symmetry_group_IT_number 63
_symmetry_cell_setting 'orthorhombic'
loop_
_space_group_symop_operation_xyz
x,y,z
-x,-y,1/2+z
x,-y,-z
-x,y,1/2-z
-x,-y,-z
x,y,1/2-z
-x,y,z
x,-y,1/2+z
1/2+x,1/2+y,z
1/2-x,1/2-y,1/2+z
1/2+x,1/2-y,-z
1/2-x,1/2+y,1/2-z
1/2-x,1/2-y,-z
1/2+x,1/2+y,1/2-z
1/2-x,1/2+y,z
1/2+x,1/2-y,1/2+z
loop_
_atom_site_type_symbol
_atom_site_label
_atom_site_fract_x
_atom_site_fract_y
_atom_site_fract_z
Si Si1 0.962009 0.636922 0.113137
Si Si2 0.060698 0.864030 0.590775
Si Si3 0.584007 0.344087 0.750000
Si Si4 0.338727 0.961030 0.584249
Si Si5 0.411669 0.844446 0.750000
Si Si6 0.638561 0.461060 0.581216
Si Si7 0.237803 0.289703 0.916491
O O1 0.956122 0.885097 0.070439
O O2 0.935477 0.647814 0.179085
O O3 0.000000 0.632630 0.139973
O O4 0.954865 0.390059 0.071212
O O5 0.060812 0.852779 0.679278
O O6 0.099980 0.883886 0.573133
O O7 0.605529 0.102355 0.750000
O O8 0.605292 0.586309 0.750000
O O9 0.358898 0.729898 0.613778
O O10 0.300399 0.877061 0.585265
O O11 0.349562 0.000000 0.500000
O O12 0.343809 0.228268 0.616088
O O13 0.653556 0.500000 0.500000
O O14 0.257808 0.520525 0.884874
O O15 0.250000 0.250000 0.000000
#
# Coordination Sequence:
#
# PCOD9468229 Si02
#       7
#    16  16   8  16   8  16  16
#     4  10  18  29  48  68  90 112 142 188 239 290
#     4  10  19  33  47  67  91 116 151 185 233 275
#     4   8  16  28  47  66  88 116 140 181 227 276
#     4  10  18  29  43  65  89 121 164 176 212 257
#     4   8  15  26  42  70  94 110 130 169 235 300
#     4  10  21  32  47  62  88 127 160 189 211 258
#     4  10  17  24  41  63  92 122 148 175 215 263
#
# _framework density 23.419426000000001
#
# number of rings (size 3 to 8) (size 9 to 14) (size 15 to 20)
#    0.000    2.333    1.667    2.750    4.667    0.000 
#    0.000    5.000    0.000    3.000    0.000    0.000 
#    0.000    0.000    0.000   15.000    0.000    0.000 
#
# Total GULP energy -267599.142676 kJ/mol
# GULP energy per Si atom -5574.982139 kJ/mol
# Density = 2.336612 g / cm^3
# Si number density = 23.419426 Si / 1000 Ang^3
#
#
#
# Elastic Constant Matrix: (Units=GPa)
#
#
# Indices 1 2 3 4 5 6 
#
# 1 86.8974 34.6672 -2.8524 0.0000 0.0000 0.0000
# 2 34.6672 303.4745 21.1565 0.0000 0.0000 0.0000
# 3 -2.8524 21.1565 57.7517 0.0000 0.0000 0.0000
# 4 0.0000 0.0000 0.0000 17.4694 0.0000 0.0000
# 5 0.0000 0.0000 0.0000 0.0000 5.2548 0.0000
# 6 0.0000 0.0000 0.0000 0.0000 0.0000 39.0730
#
#
#
# Elastic Compliance Matrix: (Units=1/GPa)
#
#
# Indices 1 2 3 4 5 6 
#
# 1 0.012129 -0.001465 0.001136 0.000000 0.000000 0.000000
# 2 -0.001465 0.003558 -0.001376 0.000000 0.000000 0.000000
# 3 0.001136 -0.001376 0.017876 0.000000 0.000000 0.000000
# 4 0.000000 0.000000 0.000000 0.057243 0.000000 0.000000
# 5 0.000000 0.000000 0.000000 0.000000 0.190300 0.000000
# 6 0.000000 0.000000 0.000000 0.000000 0.000000 0.025593
#
#
# Mechanical properties :
#
#
# Convention : Reuss Voigt Hill
#
# Bulk Modulus (GPa) = 33.16364 61.56290 47.36327
# Shear Modulus (GPa) = 15.61714 38.70294 27.16004
#
# Velocity S-wave (km/s) = 2.58514 4.06963 3.40916
# Velocity P-wave (km/s) = 4.80646 6.95893 5.98033
#
# Compressibility (1/GPa) = 0.03015350
#
# Stress axis : x y z
#
# Youngs Moduli (GPa) = 82.44388 281.02374 55.94204
#
# Poissons Ratio (x) = 0.41164 -0.06353
# Poissons Ratio (y) = 0.12076 0.07697
# Poissons Ratio (z) = -0.09363 0.38667
#
# Static dielectric constant tensor:
#      x y z
#    x 1.830630 0.000000 0.000000 
#    y 0.000000 2.055990 0.000000 
#    z 0.000000 0.000000 1.936790 
# 
# From -- ./inp_files/74482.got.cif
#   From: 2010.05.17/outbox.cif.g08.bks.cpg/sg63_38_cif.got.tgz:74482.got - 2010.06.03 15:47:04.
