data_PCOD9468821
_publ_section_title
;
Structure prediction by ZEFSAII (Michael W. Deem and Ramdas Pophale) SiO2 
 PCOD9468821
Probable space group: C M C M
;
_chemical_formula_sum "Si O2"
_cell_formula_units_Z 72
_cell_length_a 17.164408
_cell_length_b 29.254402
_cell_length_c 8.580290
_cell_angle_alpha 90.000000
_cell_angle_beta 90.000000
_cell_angle_gamma 90.000000
_cell_volume 4308.459558
_symmetry_space_group_name_H-M "C M C M"
_symmetry_group_IT_number 63
_symmetry_cell_setting 'orthorhombic'
loop_
_space_group_symop_operation_xyz
x,y,z
-x,-y,1/2+z
x,-y,-z
-x,y,1/2-z
-x,-y,-z
x,y,1/2-z
-x,y,z
x,-y,1/2+z
1/2+x,1/2+y,z
1/2-x,1/2-y,1/2+z
1/2+x,1/2-y,-z
1/2-x,1/2+y,1/2-z
1/2-x,1/2-y,-z
1/2+x,1/2+y,1/2-z
1/2-x,1/2+y,z
1/2+x,1/2-y,1/2+z
loop_
_atom_site_type_symbol
_atom_site_label
_atom_site_fract_x
_atom_site_fract_y
_atom_site_fract_z
Si Si1 0.335710 0.948897 0.934551
Si Si2 0.000000 0.551907 0.564001
Si Si3 0.235325 0.363350 0.436313
Si Si4 0.323541 0.278395 0.062809
Si Si5 0.412775 0.807347 0.561188
O O1 0.342055 0.951625 0.750000
O O2 0.418303 0.929866 0.000362
O O3 0.270729 0.912799 0.985906
O O4 0.323730 0.000000 0.000000
O O5 0.000000 0.500000 0.500000
O O6 0.000000 0.552585 0.750000
O O7 0.236660 0.368701 0.250000
O O8 0.306969 0.330471 0.487456
O O9 0.156599 0.336141 0.484740
O O10 0.319853 0.279099 0.250000
O O11 0.396528 0.246289 0.022164
O O12 0.250000 0.250000 0.000000
O O13 0.407136 0.812484 0.750000
O O14 0.500000 0.820645 0.513159
#
# Coordination Sequence:
#
# PCOD9468821 Si02
#       5
#    16   8  16  16  16
#     4  11  21  33  46  61  83 111 145 181 218 253
#     4  10  18  30  44  58  78 106 138 174 214 248
#     4  10  19  30  44  62  86 116 149 180 215 257
#     4   8  15  28  44  61  83 112 142 176 216 257
#     4   9  17  29  45  65  88 113 145 182 218 256
#
# _framework density 16.711310000000001
#
# number of rings (size 3 to 8) (size 9 to 14) (size 15 to 20)
#    0.000    2.444    0.000    5.000    1.556    1.333 
#    0.000    0.000    0.000    0.000    0.000    0.000 
#    0.000    0.889    0.000    1.556    0.000    2.222 
#
# Total GULP energy -200488.991930 kJ/mol
# GULP energy per Si atom -5569.138665 kJ/mol
# Density = 1.667327 g / cm^3
# Si number density = 16.711310 Si / 1000 Ang^3
#
#
#
# Elastic Constant Matrix: (Units=GPa)
#
#
# Indices 1 2 3 4 5 6 
#
# 1 13.8195 9.1010 1.5049 0.0000 0.0000 0.0000
# 2 9.1010 99.0802 24.9525 0.0000 0.0000 0.0000
# 3 1.5049 24.9525 72.2643 0.0000 0.0000 0.0000
# 4 0.0000 0.0000 0.0000 24.0569 0.0000 0.0000
# 5 0.0000 0.0000 0.0000 0.0000 11.4254 0.0000
# 6 0.0000 0.0000 0.0000 0.0000 0.0000 29.4469
#
#
#
# Elastic Compliance Matrix: (Units=1/GPa)
#
#
# Indices 1 2 3 4 5 6 
#
# 1 0.077076 -0.007311 0.000919 0.000000 0.000000 0.000000
# 2 -0.007311 0.011748 -0.003904 0.000000 0.000000 0.000000
# 3 0.000919 -0.003904 0.015167 0.000000 0.000000 0.000000
# 4 0.000000 0.000000 0.000000 0.041568 0.000000 0.000000
# 5 0.000000 0.000000 0.000000 0.000000 0.087524 0.000000
# 6 0.000000 0.000000 0.000000 0.000000 0.000000 0.033959
#
#
# Mechanical properties :
#
#
# Convention : Reuss Voigt Hill
#
# Bulk Modulus (GPa) = 11.99056 28.47564 20.23310
# Shear Modulus (GPa) = 15.85116 22.95956 19.40536
#
# Velocity S-wave (km/s) = 3.08316 3.71063 3.41135
# Velocity P-wave (km/s) = 4.45704 5.95274 5.25834
#
# Compressibility (1/GPa) = 0.08339893
#
# Stress axis : x y z
#
# Youngs Moduli (GPa) = 12.97415 85.12351 65.93249
#
# Poissons Ratio (x) = 0.62237 -0.06062
# Poissons Ratio (y) = 0.09486 0.25741
# Poissons Ratio (z) = -0.01193 0.33233
#
# Static dielectric constant tensor:
#      x y z
#    x 1.567750 0.000000 0.000000 
#    y 0.000000 1.618670 0.000000 
#    z 0.000000 0.000000 1.561820 
# 
# From -- ./inp_files/8372.got.cif
#   From: 2010.05.17/outbox.cif.g08.bks.cpg/sg63_5_cif.got.tgz:8372.got - 2010.06.03 15:47:04.
