data_PCOD9468550
_publ_section_title
;
Structure prediction by ZEFSAII (Michael W. Deem and Ramdas Pophale) SiO2 
 PCOD9468550
Probable space group: C M C M
;
_chemical_formula_sum "Si O2"
_cell_formula_units_Z 80
_cell_length_a 24.871206
_cell_length_b 27.164211
_cell_length_c 7.639406
_cell_angle_alpha 90.000000
_cell_angle_beta 90.000000
_cell_angle_gamma 90.000000
_cell_volume 5161.233783
_symmetry_space_group_name_H-M "C M C M"
_symmetry_group_IT_number 63
_symmetry_cell_setting 'orthorhombic'
loop_
_space_group_symop_operation_xyz
x,y,z
-x,-y,1/2+z
x,-y,-z
-x,y,1/2-z
-x,-y,-z
x,y,1/2-z
-x,y,z
x,-y,1/2+z
1/2+x,1/2+y,z
1/2-x,1/2-y,1/2+z
1/2+x,1/2-y,-z
1/2-x,1/2+y,1/2-z
1/2-x,1/2-y,-z
1/2+x,1/2+y,1/2-z
1/2-x,1/2+y,z
1/2+x,1/2-y,1/2+z
loop_
_atom_site_type_symbol
_atom_site_label
_atom_site_fract_x
_atom_site_fract_y
_atom_site_fract_z
Si Si1 0.714776 0.798559 0.457305
Si Si2 0.000000 0.898454 0.463622
Si Si3 0.500000 0.716961 0.963841
Si Si4 0.686397 0.355273 0.035037
Si Si5 0.383386 0.738689 0.957043
Si Si6 0.887156 0.056824 0.540088
O O1 0.711055 0.803223 0.250000
O O2 0.750000 0.750000 0.500000
O O3 0.752766 0.842825 0.523049
O O4 0.655106 0.785720 0.520020
O O5 0.945624 0.925047 0.524783
O O6 0.000000 0.899927 0.250000
O O7 0.000000 0.840905 0.510949
O O8 0.500000 0.719411 0.750000
O O9 0.444019 0.740537 0.026255
O O10 0.686927 0.354666 0.250000
O O11 0.648239 0.309828 0.976284
O O12 0.659028 0.405825 0.977240
O O13 0.387782 0.730468 0.750000
O O14 0.888690 0.061947 0.750000
O O15 0.877844 0.000000 0.500000
#
# Coordination Sequence:
#
# PCOD9468550 Si02
#       6
#    16   8   8  16  16  16
#     4   9  16  26  40  57  74  95 123 157 194 233
#     4   9  15  25  42  54  68 100 138 167 189 223
#     4   9  14  23  42  60  74 102 139 161 180 225
#     4   8  14  25  40  53  69  96 129 157 187 230
#     4   9  15  25  41  59  75  97 129 160 187 223
#     4  10  18  28  40  55  72  96 131 168 200 227
#
# _framework density 15.500171
#
# number of rings (size 3 to 8) (size 9 to 14) (size 15 to 20)
#    0.000    3.000    2.000    2.100    0.000    0.000 
#    0.000    5.500    0.000    1.200    0.000    0.000 
#    0.000    0.000    0.000    0.900    0.000   10.800 
#
# Total GULP energy -222683.816084 kJ/mol
# GULP energy per Si atom -5567.095402 kJ/mol
# Density = 1.546489 g / cm^3
# Si number density = 15.500171 Si / 1000 Ang^3
#
#
#
# Elastic Constant Matrix: (Units=GPa)
#
#
# Indices 1 2 3 4 5 6 
#
# 1 150.6658 78.6367 4.2551 0.0000 0.0000 0.0000
# 2 78.6367 77.9653 -1.8207 0.0000 0.0000 0.0000
# 3 4.2551 -1.8207 23.4255 0.0000 0.0000 0.0000
# 4 0.0000 0.0000 0.0000 13.2727 0.0000 0.0000
# 5 0.0000 0.0000 0.0000 0.0000 10.0874 0.0000
# 6 0.0000 0.0000 0.0000 0.0000 0.0000 18.3887
#
#
#
# Elastic Compliance Matrix: (Units=1/GPa)
#
#
# Indices 1 2 3 4 5 6 
#
# 1 0.014334 -0.014544 -0.003734 0.000000 0.000000 0.000000
# 2 -0.014544 0.027608 0.004788 0.000000 0.000000 0.000000
# 3 -0.003734 0.004788 0.043739 0.000000 0.000000 0.000000
# 4 0.000000 0.000000 0.000000 0.075343 0.000000 0.000000
# 5 0.000000 0.000000 0.000000 0.000000 0.099134 0.000000
# 6 0.000000 0.000000 0.000000 0.000000 0.000000 0.054381
#
#
# Mechanical properties :
#
#
# Convention : Reuss Voigt Hill
#
# Bulk Modulus (GPa) = 17.03616 46.02208 31.52912
# Shear Modulus (GPa) = 13.84711 19.74879 16.79795
#
# Velocity S-wave (km/s) = 2.99214 3.57333 3.29557
# Velocity P-wave (km/s) = 4.79083 6.83964 5.90477
#
# Compressibility (1/GPa) = 0.05869869
#
# Stress axis : x y z
#
# Youngs Moduli (GPa) = 69.76510 36.22177 22.86294
#
# Poissons Ratio (x) = 0.52683 0.08537
# Poissons Ratio (y) = 1.01469 -0.10946
# Poissons Ratio (z) = 0.26051 -0.17342
#
# Static dielectric constant tensor:
#      x y z
#    x 1.560130 0.000000 0.000000 
#    y 0.000000 1.495280 0.000000 
#    z 0.000000 0.000000 1.590890 
# 
# From -- ./inp_files/10966.got.cif
#   From: 2010.05.17/outbox.cif.g08.bks.cpg/sg63_6_cif.got.tgz:10966.got - 2010.06.03 15:47:04.
