data_PCOD9468195
_publ_section_title
;
Structure prediction by ZEFSAII (Michael W. Deem and Ramdas Pophale) SiO2 
 PCOD9468195
Probable space group: C M C M
;
_chemical_formula_sum "Si O2"
_cell_formula_units_Z 88
_cell_length_a 9.142848
_cell_length_b 20.372618
_cell_length_c 25.381765
_cell_angle_alpha 90.000000
_cell_angle_beta 90.000000
_cell_angle_gamma 90.000000
_cell_volume 4727.702724
_symmetry_space_group_name_H-M "C M C M"
_symmetry_group_IT_number 63
_symmetry_cell_setting 'orthorhombic'
loop_
_space_group_symop_operation_xyz
x,y,z
-x,-y,1/2+z
x,-y,-z
-x,y,1/2-z
-x,-y,-z
x,y,1/2-z
-x,y,z
x,-y,1/2+z
1/2+x,1/2+y,z
1/2-x,1/2-y,1/2+z
1/2+x,1/2-y,-z
1/2-x,1/2+y,1/2-z
1/2-x,1/2-y,-z
1/2+x,1/2+y,1/2-z
1/2-x,1/2+y,z
1/2+x,1/2-y,1/2+z
loop_
_atom_site_type_symbol
_atom_site_label
_atom_site_fract_x
_atom_site_fract_y
_atom_site_fract_z
Si Si1 0.326138 0.585320 0.188629
Si Si2 0.667132 0.147307 0.485103
Si Si3 0.176237 0.329323 0.398730
Si Si4 0.247550 0.000000 0.500000
Si Si5 0.176418 0.698998 0.372635
Si Si6 0.165926 0.962758 0.384221
O O1 0.302278 0.570836 0.250000
O O2 0.500000 0.597551 0.180773
O O3 0.235938 0.648278 0.170146
O O4 0.286731 0.523378 0.152060
O O5 0.500000 0.169824 0.484783
O O6 0.731227 0.173772 0.539958
O O7 0.669069 0.068176 0.489119
O O8 0.730282 0.170898 0.429749
O O9 0.252554 0.270508 0.367878
O O10 0.228434 0.400538 0.379461
O O11 0.000000 0.324653 0.397562
O O12 0.165591 0.985654 0.445309
O O13 0.000000 0.701603 0.371539
O O14 0.000000 0.944144 0.369671
#
# Coordination Sequence:
#
# PCOD9468195 Si02
#       6
#    16  16  16   8  16  16
#     4  10  22  41  62  83 111 149 192 236 284 340
#     4   9  18  30  50  81 117 153 187 228 280 341
#     4  10  21  36  55  82 117 156 190 228 284 346
#     4  10  16  30  52  84 115 150 183 232 285 350
#     4  11  21  36  57  84 115 150 192 238 283 334
#     4  10  20  35  56  85 115 147 188 238 289 342
#
# _framework density 18.613690999999999
#
# number of rings (size 3 to 8) (size 9 to 14) (size 15 to 20)
#    0.000    2.000    1.818    2.182    0.000    1.818 
#    0.000    2.727    0.000    3.273    0.000    0.000 
#    0.000    0.000    0.000    0.000    0.000    0.000 
#
# Total GULP energy -245318.751500 kJ/mol
# GULP energy per Si atom -5575.426170 kJ/mol
# Density = 1.857133 g / cm^3
# Si number density = 18.613691 Si / 1000 Ang^3
#
#
#
# Elastic Constant Matrix: (Units=GPa)
#
#
# Indices 1 2 3 4 5 6 
#
# 1 60.6347 48.6052 35.4230 0.0000 0.0000 0.0000
# 2 48.6052 119.0807 57.8836 0.0000 0.0000 0.0000
# 3 35.4230 57.8836 75.2109 0.0000 0.0000 0.0000
# 4 0.0000 0.0000 0.0000 22.2155 0.0000 0.0000
# 5 0.0000 0.0000 0.0000 0.0000 20.8785 0.0000
# 6 0.0000 0.0000 0.0000 0.0000 0.0000 26.7649
#
#
#
# Elastic Compliance Matrix: (Units=1/GPa)
#
#
# Indices 1 2 3 4 5 6 
#
# 1 0.026428 -0.007568 -0.006623 0.000000 0.000000 0.000000
# 2 -0.007568 0.015584 -0.008429 0.000000 0.000000 0.000000
# 3 -0.006623 -0.008429 0.022903 0.000000 0.000000 0.000000
# 4 0.000000 0.000000 0.000000 0.045014 0.000000 0.000000
# 5 0.000000 0.000000 0.000000 0.000000 0.047896 0.000000
# 6 0.000000 0.000000 0.000000 0.000000 0.000000 0.037362
#
#
# Mechanical properties :
#
#
# Convention : Reuss Voigt Hill
#
# Bulk Modulus (GPa) = 50.82742 59.86111 55.34427
# Shear Modulus (GPa) = 20.24422 21.50609 20.87516
#
# Velocity S-wave (km/s) = 3.30145 3.40279 3.35251
# Velocity P-wave (km/s) = 6.47291 6.90422 6.69204
#
# Compressibility (1/GPa) = 0.01967442
#
# Stress axis : x y z
#
# Youngs Moduli (GPa) = 37.83936 64.16810 43.66323
#
# Poissons Ratio (x) = 0.48561 0.28916
# Poissons Ratio (y) = 0.28636 0.36806
# Poissons Ratio (z) = 0.25060 0.54090
#
# Static dielectric constant tensor:
#      x y z
#    x 1.643170 0.000000 0.000000 
#    y 0.000000 1.633720 0.000000 
#    z 0.000000 0.000000 1.654950 
# 
# From -- ./inp_files/59628.got.cif
#   From: 2010.05.17/outbox.cif.g08.bks.cpg/sg63_30_cif.got.tgz:59628.got - 2010.06.03 15:47:04.
