data_PCOD9468024
_publ_section_title
;
Structure prediction by ZEFSAII (Michael W. Deem and Ramdas Pophale) SiO2 
 PCOD9468024
Probable space group: P N M A
;
_chemical_formula_sum "Si O2"
_cell_formula_units_Z 64
_cell_length_a 30.000000
_cell_length_b 9.000000
_cell_length_c 12.000000
_cell_angle_alpha 90.000000
_cell_angle_beta 90.000000
_cell_angle_gamma 90.000000
_cell_volume 3240.000000
_symmetry_space_group_name_H-M "P N M A"
_symmetry_group_IT_number 62
_symmetry_cell_setting 'orthorhombic'
loop_
_space_group_symop_operation_xyz
x,y,z
1/2-x,-y,1/2+z
1/2+x,1/2-y,1/2-z
-x,1/2+y,-z
-x,-y,-z
1/2+x,y,1/2-z
1/2-x,1/2+y,1/2+z
x,1/2-y,z
loop_
_atom_site_type_symbol
_atom_site_label
_atom_site_fract_x
_atom_site_fract_y
_atom_site_fract_z
Si Si1 0.821558 0.573993 0.328514
Si Si2 0.731043 0.073902 0.249963
Si Si3 0.846247 0.074778 0.894280
Si Si4 0.517028 0.428190 0.621182
Si Si5 0.093180 0.916689 0.302013
Si Si6 0.990103 0.572191 0.627323
Si Si7 0.816071 0.082010 0.558810
Si Si8 0.376794 0.576993 0.387393
O O1 0.820323 0.750000 0.350081
O O2 0.774743 0.516631 0.281752
O O3 0.829000 0.484184 0.440913
O O4 0.858333 0.543405 0.235002
O O5 0.737421 0.250000 0.257559
O O6 0.691919 0.020334 0.333581
O O7 0.717130 0.024342 0.125769
O O8 0.835438 0.250000 0.885207
O O9 0.892375 0.052106 0.825098
O O10 0.853834 0.024119 0.019700
O O11 0.500000 0.500000 0.500000
O O12 0.505101 0.250000 0.623380
O O13 0.506189 0.500457 0.748013
O O14 0.570311 0.440119 0.611454
O O15 0.073206 0.750000 0.310171
O O16 0.139625 0.911569 0.367028
O O17 0.062117 0.039123 0.356085
O O18 0.000602 0.750000 0.624648
O O19 0.000000 0.500000 0.500000
O O20 0.797987 0.250000 0.549037
O O21 0.365954 0.750000 0.411972
#
# Coordination Sequence:
#
# PCOD9468024 Si02
#       8
#     8   8   8   8   8   8   8   8
#     4  11  24  41  61  88 124 164 208 259 312 368
#     4  11  23  40  63  90 122 165 210 254 308 370
#     4  10  21  39  65  94 125 162 208 259 308 368
#     4  11  24  45  70 100 134 173 219 270 330 395
#     4   9  20  40  64  92 124 161 206 258 312 373
#     4  12  26  42  65  96 131 173 217 269 327 390
#     4  10  22  41  64  91 123 159 204 258 312 371
#     4  10  24  42  63  92 128 166 208 258 316 379
#
# _framework density 19.753086
#
# number of rings (size 3 to 8) (size 9 to 14) (size 15 to 20)
#    0.000    1.500    0.000    5.250    3.500    7.000 
#    0.000    0.000    0.000    0.000    0.000    0.000 
#    0.000    0.000    0.000    0.000    0.000    0.000 
#
# Total GULP energy -356816.106646 kJ/mol
# GULP energy per Si atom -5575.251666 kJ/mol
# Density = 1.970813 g / cm^3
# Si number density = 19.753086 Si / 1000 Ang^3
#
#
#
# Elastic Constant Matrix: (Units=GPa)
#
#
# Indices 1 2 3 4 5 6 
#
# 1 32.1419 -2.1859 7.8831 0.0000 0.0000 0.0000
# 2 -2.1859 56.7154 31.3336 0.0000 0.0000 0.0000
# 3 7.8831 31.3336 123.0337 0.0000 0.0000 0.0000
# 4 0.0000 0.0000 0.0000 39.0018 0.0000 0.0000
# 5 0.0000 0.0000 0.0000 0.0000 23.5533 0.0000
# 6 0.0000 0.0000 0.0000 0.0000 0.0000 27.9678
#
#
#
# Elastic Compliance Matrix: (Units=1/GPa)
#
#
# Indices 1 2 3 4 5 6 
#
# 1 0.031973 0.002751 -0.002749 0.000000 0.000000 0.000000
# 2 0.002751 0.020756 -0.005462 0.000000 0.000000 0.000000
# 3 -0.002749 -0.005462 0.009695 0.000000 0.000000 0.000000
# 4 0.000000 0.000000 0.000000 0.025640 0.000000 0.000000
# 5 0.000000 0.000000 0.000000 0.000000 0.042457 0.000000
# 6 0.000000 0.000000 0.000000 0.000000 0.000000 0.035755
#
#
# Mechanical properties :
#
#
# Convention : Reuss Voigt Hill
#
# Bulk Modulus (GPa) = 19.41610 31.77250 25.59430
# Shear Modulus (GPa) = 25.72482 29.76192 27.74337
#
# Velocity S-wave (km/s) = 3.61268 3.88583 3.75174
# Velocity P-wave (km/s) = 5.22041 6.02102 5.63495
#
# Compressibility (1/GPa) = 0.05150366
#
# Stress axis : x y z
#
# Youngs Moduli (GPa) = 31.27591 48.17965 103.14490
#
# Poissons Ratio (x) = -0.13255 0.28358
# Poissons Ratio (y) = -0.08605 0.56340
# Poissons Ratio (z) = 0.08599 0.26317
#
# Static dielectric constant tensor:
#      x y z
#    x 1.746570 0.000000 0.000000 
#    y 0.000000 1.697450 0.000000 
#    z 0.000000 0.000000 1.742360 
# 
# From -- ./inp_files/15897.got.cif
#   From: 2010.05.17/outbox.ucp.g08.bks.cvg/sg62_8_cif.got.tgz:15897.got - 2010.06.11 16:29:25.
