data_PCOD9468339
_publ_section_title
;
Structure prediction by ZEFSAII (Michael W. Deem and Ramdas Pophale) SiO2 
 PCOD9468339
Probable space group: C M C M
;
_chemical_formula_sum "Si O2"
_cell_formula_units_Z 128
_cell_length_a 21.024473
_cell_length_b 21.336720
_cell_length_c 18.740118
_cell_angle_alpha 90.000000
_cell_angle_beta 90.000000
_cell_angle_gamma 90.000000
_cell_volume 8406.691255
_symmetry_space_group_name_H-M "C M C M"
_symmetry_group_IT_number 63
_symmetry_cell_setting 'orthorhombic'
loop_
_space_group_symop_operation_xyz
x,y,z
-x,-y,1/2+z
x,-y,-z
-x,y,1/2-z
-x,-y,-z
x,y,1/2-z
-x,y,z
x,-y,1/2+z
1/2+x,1/2+y,z
1/2-x,1/2-y,1/2+z
1/2+x,1/2-y,-z
1/2-x,1/2+y,1/2-z
1/2-x,1/2-y,-z
1/2+x,1/2+y,1/2-z
1/2-x,1/2+y,z
1/2+x,1/2-y,1/2+z
loop_
_atom_site_type_symbol
_atom_site_label
_atom_site_fract_x
_atom_site_fract_y
_atom_site_fract_z
Si Si1 0.318306 0.147311 0.422013
Si Si2 0.425735 0.378770 0.168602
Si Si3 0.648289 0.045934 0.669576
Si Si4 0.231100 0.635068 0.577831
Si Si5 0.074151 0.459055 0.570876
Si Si6 0.263769 0.445408 0.831014
Si Si7 0.820222 0.226844 0.665990
Si Si8 0.655779 0.467061 0.074403
O O1 0.293660 0.159694 0.502034
O O2 0.378834 0.100383 0.426017
O O3 0.263569 0.110155 0.378992
O O4 0.331611 0.209751 0.377544
O O5 0.415233 0.402704 0.250000
O O6 0.500000 0.365675 0.159896
O O7 0.382567 0.317002 0.162207
O O8 0.399994 0.427791 0.111033
O O9 0.634928 0.066710 0.750000
O O10 0.673346 0.101831 0.619881
O O11 0.591548 0.006157 0.635165
O O12 0.707278 0.997049 0.671901
O O13 0.264425 0.687092 0.627395
O O14 0.284634 0.581077 0.564067
O O15 0.087926 0.500000 0.500000
O O16 0.000000 0.441540 0.571281
O O17 0.278027 0.426311 0.750000
O O18 0.321050 0.480135 0.870217
O O19 0.806353 0.237911 0.750000
O O20 0.640337 0.500000 0.000000
#
# Coordination Sequence:
#
# PCOD9468339 Si02
#       8
#    16  16  16  16  16  16  16  16
#     4  11  19  31  51  72  98 131 164 198 246 294
#     4   9  19  35  51  67  94 131 164 196 236 281
#     4   9  17  29  48  69  94 131 168 200 241 289
#     4  10  18  31  49  71  98 130 159 201 245 292
#     4  10  20  33  49  71 102 135 166 204 249 292
#     4   9  17  27  44  71 101 127 154 191 240 292
#     4  10  21  34  49  71  99 128 165 203 239 289
#     4  10  17  28  49  74  98 124 156 194 239 289
#
# _framework density 15.225966
#
# number of rings (size 3 to 8) (size 9 to 14) (size 15 to 20)
#    0.000    2.250    2.500    1.500    0.000    4.500 
#    0.000    0.000    0.000    0.000    0.000    0.000 
#    0.000    0.000    0.000    0.000    0.000    0.000 
#
# Total GULP energy -356670.777896 kJ/mol
# GULP energy per Si atom -5572.980905 kJ/mol
# Density = 1.519131 g / cm^3
# Si number density = 15.225966 Si / 1000 Ang^3
#
#
#
# Elastic Constant Matrix: (Units=GPa)
#
#
# Indices 1 2 3 4 5 6 
#
# 1 58.0771 36.5659 41.0308 0.0000 0.0000 0.0000
# 2 36.5659 77.8739 55.4200 0.0000 0.0000 0.0000
# 3 41.0308 55.4200 144.5636 0.0000 0.0000 0.0000
# 4 0.0000 0.0000 0.0000 27.9490 0.0000 0.0000
# 5 0.0000 0.0000 0.0000 0.0000 17.4063 0.0000
# 6 0.0000 0.0000 0.0000 0.0000 0.0000 8.2204
#
#
#
# Elastic Compliance Matrix: (Units=1/GPa)
#
#
# Indices 1 2 3 4 5 6 
#
# 1 0.025797 -0.009492 -0.003683 0.000000 0.000000 0.000000
# 2 -0.009492 0.021152 -0.005415 0.000000 0.000000 0.000000
# 3 -0.003683 -0.005415 0.010038 0.000000 0.000000 0.000000
# 4 0.000000 0.000000 0.000000 0.035779 0.000000 0.000000
# 5 0.000000 0.000000 0.000000 0.000000 0.057450 0.000000
# 6 0.000000 0.000000 0.000000 0.000000 0.000000 0.121648
#
#
# Mechanical properties :
#
#
# Convention : Reuss Voigt Hill
#
# Bulk Modulus (GPa) = 50.48525 60.72755 55.60640
# Shear Modulus (GPa) = 15.84052 20.54834 18.19443
#
# Velocity S-wave (km/s) = 3.22896 3.67762 3.46057
# Velocity P-wave (km/s) = 6.86520 7.61603 7.25034
#
# Compressibility (1/GPa) = 0.01980777
#
# Stress axis : x y z
#
# Youngs Moduli (GPa) = 38.76478 47.27772 99.61697
#
# Poissons Ratio (x) = 0.44875 0.36688
# Poissons Ratio (y) = 0.36795 0.53939
# Poissons Ratio (z) = 0.14277 0.25599
#
# Static dielectric constant tensor:
#      x y z
#    x 1.483150 0.000000 0.000000 
#    y 0.000000 1.490920 0.000000 
#    z 0.000000 0.000000 1.516530 
# 
# From -- ./inp_files/47569.got.cif
#   From: 2010.05.17/outbox.cif.g08.bks.cpg/sg63_24_cif.got.tgz:47569.got - 2010.06.03 15:47:04.
