data_PCOD9468731
_publ_section_title
;
Structure prediction by ZEFSAII (Michael W. Deem and Ramdas Pophale) SiO2 
 PCOD9468731
Probable space group: C M C M
;
_chemical_formula_sum "Si O2"
_cell_formula_units_Z 88
_cell_length_a 21.426260
_cell_length_b 25.668096
_cell_length_c 8.512905
_cell_angle_alpha 90.000000
_cell_angle_beta 90.000000
_cell_angle_gamma 90.000000
_cell_volume 4681.853418
_symmetry_space_group_name_H-M "C M C M"
_symmetry_group_IT_number 63
_symmetry_cell_setting 'orthorhombic'
loop_
_space_group_symop_operation_xyz
x,y,z
-x,-y,1/2+z
x,-y,-z
-x,y,1/2-z
-x,-y,-z
x,y,1/2-z
-x,y,z
x,-y,1/2+z
1/2+x,1/2+y,z
1/2-x,1/2-y,1/2+z
1/2+x,1/2-y,-z
1/2-x,1/2+y,1/2-z
1/2-x,1/2-y,-z
1/2+x,1/2+y,1/2-z
1/2-x,1/2+y,z
1/2+x,1/2-y,1/2+z
loop_
_atom_site_type_symbol
_atom_site_label
_atom_site_fract_x
_atom_site_fract_y
_atom_site_fract_z
Si Si1 0.000000 0.559248 0.561453
Si Si2 0.069542 0.168569 0.939914
Si Si3 0.634806 0.059266 0.560456
Si Si4 0.260593 0.394295 0.566494
Si Si5 0.802650 0.787820 0.431716
Si Si6 0.609864 0.443908 0.565356
O O1 0.000000 0.500000 0.500000
O O2 0.933154 0.582736 0.515831
O O3 0.000000 0.556670 0.750000
O O4 0.071753 0.169670 0.750000
O O5 0.126617 0.205216 0.998695
O O6 0.000000 0.184309 0.991052
O O7 0.081162 0.108465 0.990315
O O8 0.641744 0.060473 0.750000
O O9 0.692772 0.085987 0.477861
O O10 0.634497 0.000000 0.500000
O O11 0.263722 0.378546 0.750000
O O12 0.276566 0.345799 0.456889
O O13 0.315278 0.436697 0.542674
O O14 0.808873 0.774057 0.250000
O O15 0.750000 0.750000 0.500000
O O16 0.589855 0.500000 0.500000
O O17 0.596534 0.442452 0.750000
#
# Coordination Sequence:
#
# PCOD9468731 Si02
#       6
#     8  16  16  16  16  16
#     4   8  16  28  42  62  90 126 166 204 244 296
#     4   9  19  36  57  80 106 138 175 215 259 309
#     4  10  18  29  46  69  98 133 170 209 254 305
#     4  10  20  33  50  74 101 131 171 215 259 307
#     4  10  20  36  59  82 104 131 167 213 263 315
#     4  10  20  32  48  73 107 144 179 215 253 300
#
# _framework density 18.795976
#
# number of rings (size 3 to 8) (size 9 to 14) (size 15 to 20)
#    0.000    2.364    0.000    2.727    0.000    5.818 
#    0.000    0.000    2.000    0.000    0.000    0.000 
#    0.000    0.000    0.000    0.000    0.000    0.000 
#
# Total GULP energy -245111.651556 kJ/mol
# GULP energy per Si atom -5570.719354 kJ/mol
# Density = 1.875320 g / cm^3
# Si number density = 18.795976 Si / 1000 Ang^3
#
#
#
# Elastic Constant Matrix: (Units=GPa)
#
#
# Indices 1 2 3 4 5 6 
#
# 1 155.6672 25.0932 15.3849 0.0000 0.0000 0.0000
# 2 25.0932 43.9656 6.6232 0.0000 0.0000 0.0000
# 3 15.3849 6.6232 24.6961 0.0000 0.0000 0.0000
# 4 0.0000 0.0000 0.0000 25.6638 0.0000 0.0000
# 5 0.0000 0.0000 0.0000 0.0000 21.1400 0.0000
# 6 0.0000 0.0000 0.0000 0.0000 0.0000 7.7063
#
#
#
# Elastic Compliance Matrix: (Units=1/GPa)
#
#
# Indices 1 2 3 4 5 6 
#
# 1 0.007371 -0.003663 -0.003610 0.000000 0.000000 0.000000
# 2 -0.003663 0.025523 -0.004563 0.000000 0.000000 0.000000
# 3 -0.003610 -0.004563 0.043965 0.000000 0.000000 0.000000
# 4 0.000000 0.000000 0.000000 0.038965 0.000000 0.000000
# 5 0.000000 0.000000 0.000000 0.000000 0.047304 0.000000
# 6 0.000000 0.000000 0.000000 0.000000 0.000000 0.129765
#
#
# Mechanical properties :
#
#
# Convention : Reuss Voigt Hill
#
# Bulk Modulus (GPa) = 18.80142 35.39238 27.09690
# Shear Modulus (GPa) = 14.95692 22.71719 18.83705
#
# Velocity S-wave (km/s) = 2.82397 3.48029 3.16917
# Velocity P-wave (km/s) = 4.54507 5.91782 5.27628
#
# Compressibility (1/GPa) = 0.05318748
#
# Stress axis : x y z
#
# Youngs Moduli (GPa) = 135.66270 39.17991 22.74560
#
# Poissons Ratio (x) = 0.14353 0.08210
# Poissons Ratio (y) = 0.49698 0.10379
# Poissons Ratio (z) = 0.48969 0.17877
#
# Static dielectric constant tensor:
#      x y z
#    x 1.728980 0.000000 0.000000 
#    y 0.000000 1.628860 0.000000 
#    z 0.000000 0.000000 1.647420 
# 
# From -- ./inp_files/8212.got.cif
#   From: 2010.05.17/outbox.cif.g08.bks.cpg/sg63_5_cif.got.tgz:8212.got - 2010.06.03 15:47:04.
