data_PCOD9468272
_publ_section_title
;
Structure prediction by ZEFSAII (Michael W. Deem and Ramdas Pophale) SiO2 
 PCOD9468272
Probable space group: C M C M
;
_chemical_formula_sum "Si O2"
_cell_formula_units_Z 112
_cell_length_a 7.296205
_cell_length_b 27.988313
_cell_length_c 24.172608
_cell_angle_alpha 90.000000
_cell_angle_beta 90.000000
_cell_angle_gamma 90.000000
_cell_volume 4936.251278
_symmetry_space_group_name_H-M "C M C M"
_symmetry_group_IT_number 63
_symmetry_cell_setting 'orthorhombic'
loop_
_space_group_symop_operation_xyz
x,y,z
-x,-y,1/2+z
x,-y,-z
-x,y,1/2-z
-x,-y,-z
x,y,1/2-z
-x,y,z
x,-y,1/2+z
1/2+x,1/2+y,z
1/2-x,1/2-y,1/2+z
1/2+x,1/2-y,-z
1/2-x,1/2+y,1/2-z
1/2-x,1/2-y,-z
1/2+x,1/2+y,1/2-z
1/2-x,1/2+y,z
1/2+x,1/2-y,1/2+z
loop_
_atom_site_type_symbol
_atom_site_label
_atom_site_fract_x
_atom_site_fract_y
_atom_site_fract_z
Si Si1 0.718093 0.280456 0.121278
Si Si2 0.719791 0.572430 0.989918
Si Si3 0.718610 0.323141 0.616087
Si Si4 0.276228 0.374216 0.313768
Si Si5 0.776726 0.927430 0.617826
Si Si6 0.723870 0.469622 0.377324
Si Si7 0.720364 0.319059 0.009330
O O1 0.500000 0.286258 0.117626
O O2 0.748528 0.227521 0.144952
O O3 0.785542 0.325601 0.156168
O O4 0.789747 0.284989 0.057947
O O5 0.500000 0.566210 0.993077
O O6 0.782911 0.537970 0.941251
O O7 0.754875 0.626716 0.970941
O O8 0.780729 0.569483 0.053186
O O9 0.500000 0.327772 0.612029
O O10 0.783197 0.374808 0.638150
O O11 0.791513 0.316644 0.553174
O O12 0.222122 0.373957 0.250000
O O13 0.500000 0.374165 0.315792
O O14 0.217376 0.423267 0.343218
O O15 0.000000 0.927438 0.619642
O O16 0.719023 0.977973 0.643617
O O17 0.500000 0.468965 0.377330
O O18 0.500000 0.313553 0.005615
#
# Coordination Sequence:
#
# PCOD9468272 Si02
#       7
#    16  16  16  16  16  16  16
#     4  10  17  27  43  60  82 112 144 175 209 249
#     4   8  11  17  30  52  81 107 130 161 204 249
#     4   9  17  27  39  60  90 116 139 168 203 248
#     4   9  17  27  40  60  82 104 136 180 222 251
#     4   8  14  21  33  55  83 111 135 161 199 250
#     4   9  13  20  35  54  79 107 132 166 211 253
#     4   8  13  22  36  57  85 113 138 168 206 247
#
# _framework density 22.689283
#
# number of rings (size 3 to 8) (size 9 to 14) (size 15 to 20)
#    0.000    3.286    1.429    2.571    0.000    1.714 
#    0.000    0.000    0.000    1.286    0.000    3.000 
#    0.000    2.571    0.000    0.000    0.000    0.000 
#
# Total GULP energy -312189.996884 kJ/mol
# GULP energy per Si atom -5574.821373 kJ/mol
# Density = 2.263764 g / cm^3
# Si number density = 22.689283 Si / 1000 Ang^3
#
#
#
# Elastic Constant Matrix: (Units=GPa)
#
#
# Indices 1 2 3 4 5 6 
#
# 1 92.6855 3.8208 -0.4277 0.0000 0.0000 0.0000
# 2 3.8208 233.7531 39.5532 0.0000 0.0000 0.0000
# 3 -0.4277 39.5532 31.9000 0.0000 0.0000 0.0000
# 4 0.0000 0.0000 0.0000 11.9733 0.0000 0.0000
# 5 0.0000 0.0000 0.0000 0.0000 -66.3651 0.0000
# 6 0.0000 0.0000 0.0000 0.0000 0.0000 6.8704
#
#
#
# Elastic Compliance Matrix: (Units=1/GPa)
#
#
# Indices 1 2 3 4 5 6 
#
# 1 0.010802 -0.000254 0.000460 0.000000 0.000000 0.000000
# 2 -0.000254 0.005420 -0.006724 0.000000 0.000000 0.000000
# 3 0.000460 -0.006724 0.039691 0.000000 0.000000 0.000000
# 4 0.000000 0.000000 0.000000 0.083519 0.000000 0.000000
# 5 0.000000 0.000000 0.000000 0.000000 -0.015068 0.000000
# 6 0.000000 0.000000 0.000000 0.000000 0.000000 0.145551
#
#
# Mechanical properties :
#
#
# Convention : Reuss Voigt Hill
#
# Bulk Modulus (GPa) = 23.32253 49.35900 36.34076
# Shear Modulus (GPa) = 16.82128 11.52189 14.17158
#
# Velocity S-wave (km/s) = 2.72578 2.25591 2.50190
# Velocity P-wave (km/s) = 4.49532 5.34669 4.93938
#
# Compressibility (1/GPa) = 0.04287700
#
# Stress axis : x y z
#
# Youngs Moduli (GPa) = 92.57727 184.50645 25.19481
#
# Poissons Ratio (x) = 0.04695 -0.01160
# Poissons Ratio (y) = 0.02356 0.16940
# Poissons Ratio (z) = -0.04262 1.24054
#
# Static dielectric constant tensor:
#      x y z
#    x 1.929040 0.000000 0.000000 
#    y 0.000000 1.921290 0.000000 
#    z 0.000000 0.000000 1.783380 
# 
# From -- ./inp_files/68758.got.cif
#   From: 2010.05.17/outbox.cif.g08.bks.cpg/sg63_35_cif.got.tgz:68758.got - 2010.06.03 15:47:04.
