data_PCOD9468715
_publ_section_title
;
Structure prediction by ZEFSAII (Michael W. Deem and Ramdas Pophale) SiO2 
 PCOD9468715
Probable space group: C M C M
;
_chemical_formula_sum "Si O2"
_cell_formula_units_Z 96
_cell_length_a 18.499969
_cell_length_b 14.077395
_cell_length_c 17.542752
_cell_angle_alpha 90.000000
_cell_angle_beta 90.000000
_cell_angle_gamma 90.000000
_cell_volume 4568.682956
_symmetry_space_group_name_H-M "C M C M"
_symmetry_group_IT_number 63
_symmetry_cell_setting 'orthorhombic'
loop_
_space_group_symop_operation_xyz
x,y,z
-x,-y,1/2+z
x,-y,-z
-x,y,1/2-z
-x,-y,-z
x,y,1/2-z
-x,y,z
x,-y,1/2+z
1/2+x,1/2+y,z
1/2-x,1/2-y,1/2+z
1/2+x,1/2-y,-z
1/2-x,1/2+y,1/2-z
1/2-x,1/2-y,-z
1/2+x,1/2+y,1/2-z
1/2-x,1/2+y,z
1/2+x,1/2-y,1/2+z
loop_
_atom_site_type_symbol
_atom_site_label
_atom_site_fract_x
_atom_site_fract_y
_atom_site_fract_z
Si Si1 0.693899 0.869685 0.955544
Si Si2 0.716715 0.702565 0.834599
Si Si3 0.919424 0.894165 0.396255
Si Si4 0.294672 0.991695 0.334491
Si Si5 0.836257 0.083973 0.407921
Si Si6 0.582457 0.747994 0.041970
O O1 0.712848 0.782032 0.899126
O O2 0.664266 0.956813 0.903963
O O3 0.776382 0.900367 0.976794
O O4 0.635536 0.831642 0.014451
O O5 0.726555 0.743014 0.750000
O O6 0.639252 0.650875 0.840430
O O7 0.774970 0.618472 0.845899
O O8 0.920745 0.826270 0.470665
O O9 0.000000 0.897301 0.364664
O O10 0.892929 0.999550 0.417159
O O11 0.325315 0.004873 0.250000
O O12 0.217839 0.047328 0.342202
O O13 0.877800 0.182413 0.395596
O O14 0.500000 0.775704 0.060014
#
# Coordination Sequence:
#
# PCOD9468715 Si02
#       6
#    16  16  16  16  16  16
#     4   9  18  28  46  67  95 121 159 191 225 277
#     4   9  16  28  44  65  93 124 152 190 232 268
#     4   9  17  28  43  68  98 128 152 181 232 289
#     4   8  16  28  44  65  90 116 152 193 229 268
#     4   9  17  27  44  65  94 120 158 190 222 273
#     4  10  18  29  45  68  98 126 151 187 236 286
#
# _framework density 21.012619999999998
#
# number of rings (size 3 to 8) (size 9 to 14) (size 15 to 20)
#    1.000    2.000    0.000    2.000    0.000    1.667 
#    0.000    0.000    0.000    3.000    0.000    3.500 
#    0.000    2.667    0.000    0.000    0.000    0.000 
#
# Total GULP energy -267321.965950 kJ/mol
# GULP energy per Si atom -5569.207624 kJ/mol
# Density = 2.096479 g / cm^3
# Si number density = 21.012620 Si / 1000 Ang^3
#
#
#
# Elastic Constant Matrix: (Units=GPa)
#
#
# Indices 1 2 3 4 5 6 
#
# 1 93.2881 34.8546 5.0970 0.0000 0.0000 0.0000
# 2 34.8546 98.1405 16.2013 0.0000 0.0000 0.0000
# 3 5.0970 16.2013 41.1381 0.0000 0.0000 0.0000
# 4 0.0000 0.0000 0.0000 22.4259 0.0000 0.0000
# 5 0.0000 0.0000 0.0000 0.0000 8.4453 0.0000
# 6 0.0000 0.0000 0.0000 0.0000 0.0000 27.5869
#
#
#
# Elastic Compliance Matrix: (Units=1/GPa)
#
#
# Indices 1 2 3 4 5 6 
#
# 1 0.012361 -0.004425 0.000211 0.000000 0.000000 0.000000
# 2 -0.004425 0.012482 -0.004367 0.000000 0.000000 0.000000
# 3 0.000211 -0.004367 0.026002 0.000000 0.000000 0.000000
# 4 0.000000 0.000000 0.000000 0.044591 0.000000 0.000000
# 5 0.000000 0.000000 0.000000 0.000000 0.118410 0.000000
# 6 0.000000 0.000000 0.000000 0.000000 0.000000 0.036249
#
#
# Mechanical properties :
#
#
# Convention : Reuss Voigt Hill
#
# Bulk Modulus (GPa) = 29.68873 38.31916 34.00394
# Shear Modulus (GPa) = 17.95423 23.45252 20.70338
#
# Velocity S-wave (km/s) = 2.92627 3.34446 3.14233
# Velocity P-wave (km/s) = 5.05738 5.76105 5.42064
#
# Compressibility (1/GPa) = 0.03368282
#
# Stress axis : x y z
#
# Youngs Moduli (GPa) = 80.89828 80.11549 38.45819
#
# Poissons Ratio (x) = 0.35451 -0.00812
# Poissons Ratio (y) = 0.35797 0.16797
# Poissons Ratio (z) = -0.01708 0.34990
#
# Static dielectric constant tensor:
#      x y z
#    x 1.761810 0.000000 0.000000 
#    y 0.000000 1.812050 0.000000 
#    z 0.000000 0.000000 1.811330 
# 
# From -- ./inp_files/63970.got.cif
#   From: 2010.05.17/outbox.cif.g08.bks.cpg/sg63_32_cif.got.tgz:63970.got - 2010.06.03 15:47:04.
