data_PCOD9468781
_publ_section_title
;
Structure prediction by ZEFSAII (Michael W. Deem and Ramdas Pophale) SiO2 
 PCOD9468781
Probable space group: C M C M
;
_chemical_formula_sum "Si O2"
_cell_formula_units_Z 96
_cell_length_a 13.546226
_cell_length_b 12.426556
_cell_length_c 32.325037
_cell_angle_alpha 90.000000
_cell_angle_beta 90.000000
_cell_angle_gamma 90.000000
_cell_volume 5441.368384
_symmetry_space_group_name_H-M "C M C M"
_symmetry_group_IT_number 63
_symmetry_cell_setting 'orthorhombic'
loop_
_space_group_symop_operation_xyz
x,y,z
-x,-y,1/2+z
x,-y,-z
-x,y,1/2-z
-x,-y,-z
x,y,1/2-z
-x,y,z
x,-y,1/2+z
1/2+x,1/2+y,z
1/2-x,1/2-y,1/2+z
1/2+x,1/2-y,-z
1/2-x,1/2+y,1/2-z
1/2-x,1/2-y,-z
1/2+x,1/2+y,1/2-z
1/2-x,1/2+y,z
1/2+x,1/2-y,1/2+z
loop_
_atom_site_type_symbol
_atom_site_label
_atom_site_fract_x
_atom_site_fract_y
_atom_site_fract_z
Si Si1 0.881420 0.838662 0.702161
Si Si2 0.308721 0.490471 0.137508
Si Si3 0.614009 0.142803 0.641397
Si Si4 0.809634 0.815186 0.919089
Si Si5 0.889574 0.212929 0.904028
Si Si6 0.384434 0.624142 0.997186
O O1 0.851766 0.835250 0.750000
O O2 0.860215 0.725981 0.678715
O O3 0.000000 0.851913 0.699819
O O4 0.833975 0.938214 0.677474
O O5 0.195115 0.450816 0.138338
O O6 0.338301 0.569612 0.099701
O O7 0.369200 0.380992 0.129220
O O8 0.500000 0.108483 0.645322
O O9 0.627423 0.219500 0.601289
O O10 0.698652 0.797423 0.902703
O O11 0.822611 0.814253 0.968051
O O12 0.000000 0.255566 0.899650
O O13 0.877936 0.163469 0.950204
O O14 0.500000 0.631763 0.009471
O O15 0.354360 0.500000 0.000000
#
# Coordination Sequence:
#
# PCOD9468781 Si02
#       6
#    16  16  16  16  16  16
#     4   9  18  33  53  75  97 122 154 193 235 281
#     4  10  19  32  51  74  97 126 158 196 239 284
#     4   9  19  33  50  72  98 127 160 196 237 284
#     4  10  19  32  49  69  97 128 163 202 241 283
#     4  10  20  32  48  71  97 128 163 200 242 285
#     4  10  18  29  49  71  92 125 167 205 241 281
#
# _framework density 17.642620999999998
#
# number of rings (size 3 to 8) (size 9 to 14) (size 15 to 20)
#    0.000    2.333    1.667    1.500    0.000    2.667 
#    0.000    0.000    0.000    0.500    0.000    0.000 
#    0.000    0.000    0.000    0.000    0.000    0.000 
#
# Total GULP energy -267472.879760 kJ/mol
# GULP energy per Si atom -5572.351662 kJ/mol
# Density = 1.760247 g / cm^3
# Si number density = 17.642621 Si / 1000 Ang^3
#
#
#
# Elastic Constant Matrix: (Units=GPa)
#
#
# Indices 1 2 3 4 5 6 
#
# 1 40.8060 -7.2370 -2.6058 0.0000 0.0000 0.0000
# 2 -7.2370 29.2206 6.3629 0.0000 0.0000 0.0000
# 3 -2.6058 6.3629 72.4192 0.0000 0.0000 0.0000
# 4 0.0000 0.0000 0.0000 13.0592 0.0000 0.0000
# 5 0.0000 0.0000 0.0000 0.0000 20.0231 0.0000
# 6 0.0000 0.0000 0.0000 0.0000 0.0000 11.8899
#
#
#
# Elastic Compliance Matrix: (Units=1/GPa)
#
#
# Indices 1 2 3 4 5 6 
#
# 1 0.025642 0.006270 0.000372 0.000000 0.000000 0.000000
# 2 0.006270 0.036423 -0.002975 0.000000 0.000000 0.000000
# 3 0.000372 -0.002975 0.014083 0.000000 0.000000 0.000000
# 4 0.000000 0.000000 0.000000 0.076574 0.000000 0.000000
# 5 0.000000 0.000000 0.000000 0.000000 0.049942 0.000000
# 6 0.000000 0.000000 0.000000 0.000000 0.000000 0.084105
#
#
# Mechanical properties :
#
#
# Convention : Reuss Voigt Hill
#
# Bulk Modulus (GPa) = 11.97868 15.05402 13.51635
# Shear Modulus (GPa) = 16.27269 18.72282 17.49775
#
# Velocity S-wave (km/s) = 3.04032 3.26118 3.15268
# Velocity P-wave (km/s) = 4.37368 4.76778 4.57497
#
# Compressibility (1/GPa) = 0.08348168
#
# Stress axis : x y z
#
# Youngs Moduli (GPa) = 38.99875 27.45523 71.00643
#
# Poissons Ratio (x) = -0.17214 -0.02640
# Poissons Ratio (y) = -0.24451 0.21122
# Poissons Ratio (z) = -0.01450 0.08167
#
# Static dielectric constant tensor:
#      x y z
#    x 1.619700 0.000000 0.000000 
#    y 0.000000 1.581050 0.000000 
#    z 0.000000 0.000000 1.604470 
# 
# From -- ./inp_files/73485.got.cif
#   From: 2010.05.17/outbox.cif.g08.bks.cpg/sg63_37_cif.got.tgz:73485.got - 2010.06.03 15:47:04.
