data_PCOD9468521
_publ_section_title
;
Structure prediction by ZEFSAII (Michael W. Deem and Ramdas Pophale) SiO2 
 PCOD9468521
Probable space group: C M C M
;
_chemical_formula_sum "Si O2"
_cell_formula_units_Z 96
_cell_length_a 23.363096
_cell_length_b 26.984566
_cell_length_c 8.879612
_cell_angle_alpha 90.000000
_cell_angle_beta 90.000000
_cell_angle_gamma 90.000000
_cell_volume 5598.089281
_symmetry_space_group_name_H-M "C M C M"
_symmetry_group_IT_number 63
_symmetry_cell_setting 'orthorhombic'
loop_
_space_group_symop_operation_xyz
x,y,z
-x,-y,1/2+z
x,-y,-z
-x,y,1/2-z
-x,-y,-z
x,y,1/2-z
-x,y,z
x,-y,1/2+z
1/2+x,1/2+y,z
1/2-x,1/2-y,1/2+z
1/2+x,1/2-y,-z
1/2-x,1/2+y,1/2-z
1/2-x,1/2-y,-z
1/2+x,1/2+y,1/2-z
1/2-x,1/2+y,z
1/2+x,1/2-y,1/2+z
loop_
_atom_site_type_symbol
_atom_site_label
_atom_site_fract_x
_atom_site_fract_y
_atom_site_fract_z
Si Si1 0.721012 0.554092 0.430707
Si Si2 0.431888 0.726094 0.929046
Si Si3 0.332685 0.884441 0.927846
Si Si4 0.736421 0.199357 0.919923
Si Si5 0.352718 0.637389 0.579715
Si Si6 0.066664 0.332933 0.070120
O O1 0.714082 0.500000 0.500000
O O2 0.720491 0.552750 0.250000
O O3 0.783956 0.575982 0.477355
O O4 0.670060 0.590306 0.486881
O O5 0.419149 0.730753 0.750000
O O6 0.500000 0.719808 0.947508
O O7 0.399424 0.676353 0.982947
O O8 0.416224 0.778250 0.007227
O O9 0.340674 0.889626 0.750000
O O10 0.303131 0.832766 0.972271
O O11 0.393733 0.877285 0.007619
O O12 0.712710 0.204619 0.750000
O O13 0.795776 0.170313 0.907854
O O14 0.750000 0.250000 0.000000
O O15 0.370145 0.622219 0.750000
O O16 0.070811 0.331807 0.250000
O O17 0.000000 0.339931 0.027142
#
# Coordination Sequence:
#
# PCOD9468521 Si02
#       6
#    16  16  16  16  16  16
#     4  10  21  36  55  76  96 121 156 202 255 304
#     4   9  17  30  49  73 103 139 173 203 237 282
#     4  10  20  33  49  70  95 126 163 200 243 295
#     4  10  18  27  42  66  97 130 161 197 240 288
#     4   9  18  31  47  69  97 128 162 199 241 289
#     4  10  20  32  48  73 104 137 170 203 239 281
#
# _framework density 17.148707999999999
#
# number of rings (size 3 to 8) (size 9 to 14) (size 15 to 20)
#    0.000    2.333    0.000    3.000    0.000    5.667 
#    0.000    0.000    0.000    1.000    0.000    0.000 
#    0.000    0.000    0.000    0.000    0.000    0.000 
#
# Total GULP energy -267354.364378 kJ/mol
# GULP energy per Si atom -5569.882591 kJ/mol
# Density = 1.710968 g / cm^3
# Si number density = 17.148708 Si / 1000 Ang^3
#
#
#
# Elastic Constant Matrix: (Units=GPa)
#
#
# Indices 1 2 3 4 5 6 
#
# 1 46.6852 -1.2380 8.2157 0.0000 0.0000 0.0000
# 2 -1.2380 44.8077 22.2767 0.0000 0.0000 0.0000
# 3 8.2157 22.2767 34.1634 0.0000 0.0000 0.0000
# 4 0.0000 0.0000 0.0000 18.3645 0.0000 0.0000
# 5 0.0000 0.0000 0.0000 0.0000 22.8528 0.0000
# 6 0.0000 0.0000 0.0000 0.0000 0.0000 25.3937
#
#
#
# Elastic Compliance Matrix: (Units=1/GPa)
#
#
# Indices 1 2 3 4 5 6 
#
# 1 0.023109 0.005033 -0.008839 0.000000 0.000000 0.000000
# 2 0.005033 0.034119 -0.023458 0.000000 0.000000 0.000000
# 3 -0.008839 -0.023458 0.046693 0.000000 0.000000 0.000000
# 4 0.000000 0.000000 0.000000 0.054453 0.000000 0.000000
# 5 0.000000 0.000000 0.000000 0.000000 0.043758 0.000000
# 6 0.000000 0.000000 0.000000 0.000000 0.000000 0.039380
#
#
# Mechanical properties :
#
#
# Convention : Reuss Voigt Hill
#
# Bulk Modulus (GPa) = 20.24601 20.46280 20.35440
# Shear Modulus (GPa) = 15.99978 19.74900 17.87439
#
# Velocity S-wave (km/s) = 3.05782 3.39725 3.23200
# Velocity P-wave (km/s) = 4.92938 5.22943 5.08162
#
# Compressibility (1/GPa) = 0.04939245
#
# Stress axis : x y z
#
# Youngs Moduli (GPa) = 43.27317 29.30913 21.41659
#
# Poissons Ratio (x) = -0.14751 0.18930
# Poissons Ratio (y) = -0.21779 0.50239
# Poissons Ratio (z) = 0.38249 0.68754
#
# Static dielectric constant tensor:
#      x y z
#    x 1.628260 0.000000 0.000000 
#    y 0.000000 1.544930 0.000000 
#    z 0.000000 0.000000 1.590900 
# 
# From -- ./inp_files/10445.got.cif
#   From: 2010.05.17/outbox.cif.g08.bks.cpg/sg63_6_cif.got.tgz:10445.got - 2010.06.03 15:47:04.
