data_PCOD9468423
_publ_section_title
;
Structure prediction by ZEFSAII (Michael W. Deem and Ramdas Pophale) SiO2 
 PCOD9468423
Probable space group: C M C M
;
_chemical_formula_sum "Si O2"
_cell_formula_units_Z 116
_cell_length_a 7.817925
_cell_length_b 27.398504
_cell_length_c 27.244096
_cell_angle_alpha 90.000000
_cell_angle_beta 90.000000
_cell_angle_gamma 90.000000
_cell_volume 5835.670362
_symmetry_space_group_name_H-M "C M C M"
_symmetry_group_IT_number 63
_symmetry_cell_setting 'orthorhombic'
loop_
_space_group_symop_operation_xyz
x,y,z
-x,-y,1/2+z
x,-y,-z
-x,y,1/2-z
-x,-y,-z
x,y,1/2-z
-x,y,z
x,-y,1/2+z
1/2+x,1/2+y,z
1/2-x,1/2-y,1/2+z
1/2+x,1/2-y,-z
1/2-x,1/2+y,1/2-z
1/2-x,1/2-y,-z
1/2+x,1/2+y,1/2-z
1/2-x,1/2+y,z
1/2+x,1/2-y,1/2+z
loop_
_atom_site_type_symbol
_atom_site_label
_atom_site_fract_x
_atom_site_fract_y
_atom_site_fract_z
Si Si1 0.809210 0.368749 0.670314
Si Si2 0.291056 0.571099 0.898531
Si Si3 0.293384 0.421263 0.988492
Si Si4 0.805016 0.315644 0.500853
Si Si5 0.195278 0.822032 0.391420
Si Si6 0.792920 0.965568 0.886997
Si Si7 0.000000 0.862208 0.750000
Si Si8 0.304654 0.282847 0.602658
O O1 0.783680 0.420568 0.642696
O O2 0.652181 0.362917 0.707557
O O3 0.798174 0.323284 0.632428
O O4 0.000000 0.368300 0.691966
O O5 0.500000 0.572876 0.897595
O O6 0.232176 0.624155 0.879183
O O7 0.238983 0.520613 0.872963
O O8 0.240540 0.567259 0.955921
O O9 0.500000 0.416416 0.988786
O O10 0.211410 0.369453 0.975823
O O11 0.252271 0.457819 0.944673
O O12 0.698122 0.320573 0.451053
O O13 0.748477 0.281408 0.545309
O O14 0.000000 0.305304 0.486707
O O15 0.285172 0.771855 0.376283
O O16 0.000000 0.819345 0.374352
O O17 0.000000 0.962798 0.882136
O O18 0.500000 0.298548 0.603983
#
# Coordination Sequence:
#
# PCOD9468423 Si02
#       8
#    16  16  16  16  16  16   4  16
#     4  12  25  43  68  97 124 153 191 247 311 382
#     4   8  16  29  49  78 117 164 212 246 285 330
#     4   9  16  27  46  73 111 161 208 249 282 335
#     4  11  20  30  46  73 112 161 207 256 295 339
#     4  10  20  34  50  77 116 164 213 251 292 337
#     4  10  17  32  56  84 118 158 203 243 296 355
#     4  12  26  52  68  98 122 148 186 252 326 388
#     4  12  22  37  56  81 115 156 203 248 302 360
#
# _framework density 19.877749999999999
#
# number of rings (size 3 to 8) (size 9 to 14) (size 15 to 20)
#    0.000    1.655    2.759    4.759    0.000    1.655 
#    0.000    3.448    0.000    4.138    0.000    0.966 
#    0.000    0.000    0.000    0.000    0.000    0.000 
#
# Total GULP energy -323011.994202 kJ/mol
# GULP energy per Si atom -5569.172314 kJ/mol
# Density = 1.983251 g / cm^3
# Si number density = 19.877750 Si / 1000 Ang^3
#
#
#
# Elastic Constant Matrix: (Units=GPa)
#
#
# Indices 1 2 3 4 5 6 
#
# 1 83.0606 5.6406 13.7275 0.0000 0.0000 0.0000
# 2 5.6406 140.6861 14.3855 0.0000 0.0000 0.0000
# 3 13.7275 14.3855 43.1709 0.0000 0.0000 0.0000
# 4 0.0000 0.0000 0.0000 -5.1509 0.0000 0.0000
# 5 0.0000 0.0000 0.0000 0.0000 8.2409 0.0000
# 6 0.0000 0.0000 0.0000 0.0000 0.0000 19.0066
#
#
#
# Elastic Compliance Matrix: (Units=1/GPa)
#
#
# Indices 1 2 3 4 5 6 
#
# 1 0.012709 -0.000100 -0.004008 0.000000 0.000000 0.000000
# 2 -0.000100 0.007360 -0.002421 0.000000 0.000000 0.000000
# 3 -0.004008 -0.002421 0.025245 0.000000 0.000000 0.000000
# 4 0.000000 0.000000 0.000000 -0.194142 0.000000 0.000000
# 5 0.000000 0.000000 0.000000 0.000000 0.121346 0.000000
# 6 0.000000 0.000000 0.000000 0.000000 0.000000 0.052613
#
#
# Mechanical properties :
#
#
# Convention : Reuss Voigt Hill
#
# Bulk Modulus (GPa) = 31.00153 37.15830 34.07991
# Shear Modulus (GPa) = 102.16942 19.96360 61.06651
#
# Velocity S-wave (km/s) = 7.17708 3.17254 5.54867
# Velocity P-wave (km/s) = 9.18208 5.67045 7.63101
#
# Compressibility (1/GPa) = 0.03225647
#
# Stress axis : x y z
#
# Youngs Moduli (GPa) = 78.68722 135.87815 39.61215
#
# Poissons Ratio (x) = 0.01355 0.15876
# Poissons Ratio (y) = 0.00785 0.09589
# Poissons Ratio (z) = 0.31536 0.32891
#
# Static dielectric constant tensor:
#      x y z
#    x 1.715410 0.000000 0.000000 
#    y 0.000000 1.816760 0.000000 
#    z 0.000000 0.000000 1.665290 
# 
# From -- ./inp_files/67598.got.cif
#   From: 2010.05.17/outbox.cif.g08.bks.cpg/sg63_34_cif.got.tgz:67598.got - 2010.06.03 15:47:04.
