data_PCOD9468511
_publ_section_title
;
Structure prediction by ZEFSAII (Michael W. Deem and Ramdas Pophale) SiO2 
 PCOD9468511
Probable space group: C M C M
;
_chemical_formula_sum "Si O2"
_cell_formula_units_Z 96
_cell_length_a 23.604051
_cell_length_b 27.975104
_cell_length_c 7.584696
_cell_angle_alpha 90.000000
_cell_angle_beta 90.000000
_cell_angle_gamma 90.000000
_cell_volume 5008.370314
_symmetry_space_group_name_H-M "C M C M"
_symmetry_group_IT_number 63
_symmetry_cell_setting 'orthorhombic'
loop_
_space_group_symop_operation_xyz
x,y,z
-x,-y,1/2+z
x,-y,-z
-x,y,1/2-z
-x,-y,-z
x,y,1/2-z
-x,y,z
x,-y,1/2+z
1/2+x,1/2+y,z
1/2-x,1/2-y,1/2+z
1/2+x,1/2-y,-z
1/2-x,1/2+y,1/2-z
1/2-x,1/2-y,-z
1/2+x,1/2+y,1/2-z
1/2-x,1/2+y,z
1/2+x,1/2-y,1/2+z
loop_
_atom_site_type_symbol
_atom_site_label
_atom_site_fract_x
_atom_site_fract_y
_atom_site_fract_z
Si Si1 0.317218 0.804875 0.962268
Si Si2 0.500000 0.117391 0.533395
Si Si3 0.799077 0.149359 0.040572
Si Si4 0.761839 0.445949 0.458759
Si Si5 0.500000 0.229111 0.966813
Si Si6 0.377768 0.096895 0.541086
Si Si7 0.889445 0.216097 0.452017
O O1 0.316570 0.800660 0.750000
O O2 0.255280 0.820934 0.027297
O O3 0.358893 0.848191 0.013645
O O4 0.340833 0.756564 0.042825
O O5 0.500000 0.117265 0.750000
O O6 0.500000 0.173450 0.479580
O O7 0.441701 0.092768 0.472516
O O8 0.800925 0.157994 0.250000
O O9 0.858146 0.169847 0.968330
O O10 0.782649 0.094192 0.017476
O O11 0.746218 0.500000 0.500000
O O12 0.765766 0.440603 0.250000
O O13 0.824773 0.433347 0.533037
O O14 0.500000 0.227627 0.750000
O O15 0.555419 0.257998 0.028887
O O16 0.380667 0.087272 0.750000
O O17 0.905200 0.204881 0.250000
#
# Coordination Sequence:
#
# PCOD9468511 Si02
#       7
#    16   8  16  16   8  16  16
#     4  10  18  27  41  65  96 126 155 193 232 271
#     4   9  14  26  47  67  89 122 169 202 218 258
#     4   9  19  32  47  68  94 122 154 193 235 278
#     4  10  20  34  53  72  92 117 150 194 245 291
#     4   9  16  26  46  69  92 128 166 195 218 257
#     4   9  17  30  48  67  88 123 163 197 229 272
#     4  10  18  30  46  66  94 128 162 191 223 270
#
# _framework density 19.167912000000001
#
# number of rings (size 3 to 8) (size 9 to 14) (size 15 to 20)
#    0.000    2.500    1.667    1.500    0.000    2.000 
#    0.000    2.083    0.000    0.000    0.000    0.583 
#    0.000    0.000    0.000    0.000    0.000    0.000 
#
# Total GULP energy -267627.140699 kJ/mol
# GULP energy per Si atom -5575.565431 kJ/mol
# Density = 1.912428 g / cm^3
# Si number density = 19.167912 Si / 1000 Ang^3
#
#
#
# Elastic Constant Matrix: (Units=GPa)
#
#
# Indices 1 2 3 4 5 6 
#
# 1 34.9021 31.7322 -2.7066 0.0000 0.0000 0.0000
# 2 31.7322 82.0242 -13.7705 0.0000 0.0000 0.0000
# 3 -2.7066 -13.7705 35.3122 0.0000 0.0000 0.0000
# 4 0.0000 0.0000 0.0000 10.7989 0.0000 0.0000
# 5 0.0000 0.0000 0.0000 0.0000 4.5367 0.0000
# 6 0.0000 0.0000 0.0000 0.0000 0.0000 8.8578
#
#
#
# Elastic Compliance Matrix: (Units=1/GPa)
#
#
# Indices 1 2 3 4 5 6 
#
# 1 0.044607 -0.017852 -0.003542 0.000000 0.000000 0.000000
# 2 -0.017852 0.020190 0.006505 0.000000 0.000000 0.000000
# 3 -0.003542 0.006505 0.030584 0.000000 0.000000 0.000000
# 4 0.000000 0.000000 0.000000 0.092602 0.000000 0.000000
# 5 0.000000 0.000000 0.000000 0.000000 0.220424 0.000000
# 6 0.000000 0.000000 0.000000 0.000000 0.000000 0.112895
#
#
# Mechanical properties :
#
#
# Convention : Reuss Voigt Hill
#
# Bulk Modulus (GPa) = 15.24323 20.30539 17.77431
# Shear Modulus (GPa) = 8.72681 13.97092 11.34886
#
# Velocity S-wave (km/s) = 2.13605 2.70269 2.43590
# Velocity P-wave (km/s) = 3.74878 4.51174 4.14784
#
# Compressibility (1/GPa) = 0.06560290
#
# Stress axis : x y z
#
# Youngs Moduli (GPa) = 22.41792 49.53006 32.69678
#
# Poissons Ratio (x) = 0.88419 0.11583
# Poissons Ratio (y) = 0.40020 -0.21269
# Poissons Ratio (z) = 0.07941 -0.32219
#
# Static dielectric constant tensor:
#      x y z
#    x 1.725400 0.000000 0.000000 
#    y 0.000000 1.617280 0.000000 
#    z 0.000000 0.000000 1.665780 
# 
# From -- ./inp_files/10748.got.cif
#   From: 2010.05.17/outbox.cif.g08.bks.cpg/sg63_6_cif.got.tgz:10748.got - 2010.06.03 15:47:04.
