data_PCOD9468323
_publ_section_title
;
Structure prediction by ZEFSAII (Michael W. Deem and Ramdas Pophale) SiO2 
 PCOD9468323
Probable space group: C M C M
;
_chemical_formula_sum "Si O2"
_cell_formula_units_Z 128
_cell_length_a 24.351414
_cell_length_b 19.593946
_cell_length_c 17.799981
_cell_angle_alpha 90.000000
_cell_angle_beta 90.000000
_cell_angle_gamma 90.000000
_cell_volume 8493.088113
_symmetry_space_group_name_H-M "C M C M"
_symmetry_group_IT_number 63
_symmetry_cell_setting 'orthorhombic'
loop_
_space_group_symop_operation_xyz
x,y,z
-x,-y,1/2+z
x,-y,-z
-x,y,1/2-z
-x,-y,-z
x,y,1/2-z
-x,y,z
x,-y,1/2+z
1/2+x,1/2+y,z
1/2-x,1/2-y,1/2+z
1/2+x,1/2-y,-z
1/2-x,1/2+y,1/2-z
1/2-x,1/2-y,-z
1/2+x,1/2+y,1/2-z
1/2-x,1/2+y,z
1/2+x,1/2-y,1/2+z
loop_
_atom_site_type_symbol
_atom_site_label
_atom_site_fract_x
_atom_site_fract_y
_atom_site_fract_z
Si Si1 0.218271 0.366171 0.884568
Si Si2 0.729074 0.770478 0.161977
Si Si3 0.061481 0.197032 0.659021
Si Si4 0.754367 0.014801 0.912931
Si Si5 0.561911 0.080452 0.013221
Si Si6 0.405295 0.852809 0.835682
Si Si7 0.327511 0.131580 0.552538
Si Si8 0.829097 0.874255 0.339579
O O1 0.259481 0.307559 0.858709
O O2 0.241292 0.442486 0.875067
O O3 0.160662 0.357102 0.841507
O O4 0.203459 0.357069 0.972924
O O5 0.715933 0.777554 0.250000
O O6 0.685016 0.806960 0.108761
O O7 0.785936 0.812331 0.148008
O O8 0.061120 0.191572 0.750000
O O9 0.076127 0.275983 0.643797
O O10 0.111203 0.149291 0.632072
O O11 0.000000 0.181205 0.631815
O O12 0.700255 0.063191 0.913076
O O13 0.802593 0.059251 0.876710
O O14 0.767006 0.000000 0.000000
O O15 0.500000 0.099592 0.991728
O O16 0.570916 0.097639 0.101001
O O17 0.609405 0.119045 0.967733
O O18 0.569232 0.000000 0.000000
O O19 0.422625 0.866748 0.750000
O O20 0.832076 0.884652 0.250000
#
# Coordination Sequence:
#
# PCOD9468323 Si02
#       8
#    16  16  16  16  16  16  16  16
#     4  10  17  28  47  71  97 126 152 186 239 298
#     4  10  18  29  46  69  96 121 155 197 237 278
#     4   9  16  27  44  67  94 120 146 182 233 289
#     4   9  18  31  46  65  94 124 158 190 233 279
#     4  10  20  34  49  65  93 129 164 199 233 281
#     4  10  18  29  48  73  99 118 148 197 246 290
#     4   9  18  32  47  66  93 128 159 192 237 289
#     4   9  17  29  44  66  94 122 149 186 231 282
#
# _framework density 15.071078
#
# number of rings (size 3 to 8) (size 9 to 14) (size 15 to 20)
#    0.000    2.500    1.250    3.000    0.000    1.750 
#    0.000    3.125    0.000    1.500    0.000    0.875 
#    0.000    0.000    0.000    0.000    0.000    0.000 
#
# Total GULP energy -356684.605167 kJ/mol
# GULP energy per Si atom -5573.196956 kJ/mol
# Density = 1.503678 g / cm^3
# Si number density = 15.071078 Si / 1000 Ang^3
#
#
#
# Elastic Constant Matrix: (Units=GPa)
#
#
# Indices 1 2 3 4 5 6 
#
# 1 101.8065 44.5821 41.2528 0.0000 0.0000 0.0000
# 2 44.5821 71.9088 31.5004 0.0000 0.0000 0.0000
# 3 41.2528 31.5004 38.7076 0.0000 0.0000 0.0000
# 4 0.0000 0.0000 0.0000 22.4579 0.0000 0.0000
# 5 0.0000 0.0000 0.0000 0.0000 8.9665 0.0000
# 6 0.0000 0.0000 0.0000 0.0000 0.0000 17.2058
#
#
#
# Elastic Compliance Matrix: (Units=1/GPa)
#
#
# Indices 1 2 3 4 5 6 
#
# 1 0.018109 -0.004309 -0.015793 0.000000 0.000000 0.000000
# 2 -0.004309 0.022636 -0.013829 0.000000 0.000000 0.000000
# 3 -0.015793 -0.013829 0.053920 0.000000 0.000000 0.000000
# 4 0.000000 0.000000 0.000000 0.044528 0.000000 0.000000
# 5 0.000000 0.000000 0.000000 0.000000 0.111527 0.000000
# 6 0.000000 0.000000 0.000000 0.000000 0.000000 0.058120
#
#
# Mechanical properties :
#
#
# Convention : Reuss Voigt Hill
#
# Bulk Modulus (GPa) = 37.30884 49.67705 43.49295
# Shear Modulus (GPa) = 12.96559 16.06519 14.51539
#
# Velocity S-wave (km/s) = 2.93626 3.26845 3.10680
# Velocity P-wave (km/s) = 6.02532 6.87583 6.46458
#
# Compressibility (1/GPa) = 0.02680330
#
# Stress axis : x y z
#
# Youngs Moduli (GPa) = 55.22132 44.17778 18.54586
#
# Poissons Ratio (x) = 0.19036 0.29290
# Poissons Ratio (y) = 0.23794 0.25647
# Poissons Ratio (z) = 0.87212 0.61093
#
# Static dielectric constant tensor:
#      x y z
#    x 1.504600 0.000000 0.000000 
#    y 0.000000 1.494700 0.000000 
#    z 0.000000 0.000000 1.504120 
# 
# From -- ./inp_files/48401.got.cif
#   From: 2010.05.17/outbox.cif.g08.bks.cpg/sg63_25_cif.got.tgz:48401.got - 2010.06.03 15:47:04.
