data_PCOD9468795
_publ_section_title
;
Structure prediction by ZEFSAII (Michael W. Deem and Ramdas Pophale) SiO2 
 PCOD9468795
Probable space group: C M C M
;
_chemical_formula_sum "Si O2"
_cell_formula_units_Z 128
_cell_length_a 23.102858
_cell_length_b 19.325186
_cell_length_c 19.302868
_cell_angle_alpha 90.000000
_cell_angle_beta 90.000000
_cell_angle_gamma 90.000000
_cell_volume 8618.094107
_symmetry_space_group_name_H-M "C M C M"
_symmetry_group_IT_number 63
_symmetry_cell_setting 'orthorhombic'
loop_
_space_group_symop_operation_xyz
x,y,z
-x,-y,1/2+z
x,-y,-z
-x,y,1/2-z
-x,-y,-z
x,y,1/2-z
-x,y,z
x,-y,1/2+z
1/2+x,1/2+y,z
1/2-x,1/2-y,1/2+z
1/2+x,1/2-y,-z
1/2-x,1/2+y,1/2-z
1/2-x,1/2-y,-z
1/2+x,1/2+y,1/2-z
1/2-x,1/2+y,z
1/2+x,1/2-y,1/2+z
loop_
_atom_site_type_symbol
_atom_site_label
_atom_site_fract_x
_atom_site_fract_y
_atom_site_fract_z
Si Si1 0.935652 0.837352 0.332001
Si Si2 0.742122 0.170535 0.572860
Si Si3 0.261831 0.883226 0.832703
Si Si4 0.320296 0.691882 0.437401
Si Si5 0.067335 0.105764 0.046476
Si Si6 0.252735 0.482091 0.080110
Si Si7 0.891328 0.033423 0.595888
Si Si8 0.331535 0.751579 0.832823
O O1 0.940044 0.827094 0.250000
O O2 0.907743 0.912311 0.345144
O O3 0.892657 0.777930 0.358758
O O4 0.000000 0.834878 0.362466
O O5 0.690818 0.225823 0.562929
O O6 0.780945 0.166234 0.502591
O O7 0.726170 0.093259 0.593904
O O8 0.783576 0.204968 0.629912
O O9 0.254052 0.889359 0.750000
O O10 0.208095 0.844338 0.870080
O O11 0.315535 0.831179 0.846782
O O12 0.267887 0.956882 0.869772
O O13 0.385808 0.666256 0.443849
O O14 0.000000 0.124824 0.049074
O O15 0.080639 0.042469 0.099464
O O16 0.083481 0.071073 0.972613
O O17 0.322449 0.475290 0.089037
O O18 0.241694 0.500000 0.000000
O O19 0.328122 0.742154 0.750000
#
# Coordination Sequence:
#
# PCOD9468795 Si02
#       8
#    16  16  16  16  16  16  16  16
#     4  10  19  29  42  62  91 123 153 185 221 267
#     4  10  18  29  50  65  91 118 152 196 230 268
#     4  10  20  32  48  67  94 123 151 191 236 277
#     4  10  18  32  46  69  89 119 158 191 228 266
#     4  11  19  29  45  63  91 125 155 187 219 260
#     4  12  18  31  48  70  92 121 156 190 229 277
#     4  11  17  29  41  64  90 120 155 182 213 263
#     4   9  18  31  45  67  94 123 155 190 231 273
#
# _framework density 14.852471
#
# number of rings (size 3 to 8) (size 9 to 14) (size 15 to 20)
#    0.000    1.625    6.250    1.500    0.000    1.000 
#    0.000    0.000    0.000    0.375    0.000    0.875 
#    0.000    1.000    0.000    0.000    0.000    0.000 
#
# Total GULP energy -356591.896219 kJ/mol
# GULP energy per Si atom -5571.748378 kJ/mol
# Density = 1.481867 g / cm^3
# Si number density = 14.852471 Si / 1000 Ang^3
#
#
#
# Elastic Constant Matrix: (Units=GPa)
#
#
# Indices 1 2 3 4 5 6 
#
# 1 78.2864 55.3765 17.5593 0.0000 0.0000 0.0000
# 2 55.3765 130.2188 35.3496 0.0000 0.0000 0.0000
# 3 17.5593 35.3496 40.4068 0.0000 0.0000 0.0000
# 4 0.0000 0.0000 0.0000 23.3112 0.0000 0.0000
# 5 0.0000 0.0000 0.0000 0.0000 10.3307 0.0000
# 6 0.0000 0.0000 0.0000 0.0000 0.0000 17.0264
#
#
#
# Elastic Compliance Matrix: (Units=1/GPa)
#
#
# Indices 1 2 3 4 5 6 
#
# 1 0.018339 -0.007390 -0.001504 0.000000 0.000000 0.000000
# 2 -0.007390 0.013049 -0.008205 0.000000 0.000000 0.000000
# 3 -0.001504 -0.008205 0.032580 0.000000 0.000000 0.000000
# 4 0.000000 0.000000 0.000000 0.042898 0.000000 0.000000
# 5 0.000000 0.000000 0.000000 0.000000 0.096799 0.000000
# 6 0.000000 0.000000 0.000000 0.000000 0.000000 0.058732
#
#
# Mechanical properties :
#
#
# Convention : Reuss Voigt Hill
#
# Bulk Modulus (GPa) = 33.59100 51.72030 42.65565
# Shear Modulus (GPa) = 16.31229 19.50878 17.91054
#
# Velocity S-wave (km/s) = 3.31764 3.62816 3.47637
# Velocity P-wave (km/s) = 6.11074 7.24222 6.70041
#
# Compressibility (1/GPa) = 0.02976988
#
# Stress axis : x y z
#
# Youngs Moduli (GPa) = 54.52993 76.63171 30.69407
#
# Poissons Ratio (x) = 0.56634 0.04616
# Poissons Ratio (y) = 0.40300 0.25183
# Poissons Ratio (z) = 0.08201 0.62873
#
# Static dielectric constant tensor:
#      x y z
#    x 1.492730 0.000000 0.000000 
#    y 0.000000 1.517340 0.000000 
#    z 0.000000 0.000000 1.528850 
# 
# From -- ./inp_files/48460.got.cif
#   From: 2010.05.17/outbox.cif.g08.bks.cpg/sg63_25_cif.got.tgz:48460.got - 2010.06.03 15:47:04.
