data_PCOD9468111
_publ_section_title
;
Structure prediction by ZEFSAII (Michael W. Deem and Ramdas Pophale) SiO2 
 PCOD9468111
Probable space group: C M C M
;
_chemical_formula_sum "Si O2"
_cell_formula_units_Z 88
_cell_length_a 26.316141
_cell_length_b 28.917293
_cell_length_c 8.592526
_cell_angle_alpha 90.000000
_cell_angle_beta 90.000000
_cell_angle_gamma 90.000000
_cell_volume 6538.839764
_symmetry_space_group_name_H-M "C M C M"
_symmetry_group_IT_number 63
_symmetry_cell_setting 'orthorhombic'
loop_
_space_group_symop_operation_xyz
x,y,z
-x,-y,1/2+z
x,-y,-z
-x,y,1/2-z
-x,-y,-z
x,y,1/2-z
-x,y,z
x,-y,1/2+z
1/2+x,1/2+y,z
1/2-x,1/2-y,1/2+z
1/2+x,1/2-y,-z
1/2-x,1/2+y,1/2-z
1/2-x,1/2-y,-z
1/2+x,1/2+y,1/2-z
1/2-x,1/2+y,z
1/2+x,1/2-y,1/2+z
loop_
_atom_site_type_symbol
_atom_site_label
_atom_site_fract_x
_atom_site_fract_y
_atom_site_fract_z
Si Si1 0.802455 0.272569 0.435303
Si Si2 0.500000 0.447852 0.436403
Si Si3 0.295096 0.448803 0.937152
Si Si4 0.399977 0.397759 0.937454
Si Si5 0.848031 0.812652 0.064179
Si Si6 0.755859 0.641835 0.063700
O O1 0.802571 0.269232 0.250000
O O2 0.750000 0.250000 0.500000
O O3 0.846474 0.240299 0.506237
O O4 0.798715 0.325905 0.487688
O O5 0.500000 0.500000 0.500000
O O6 0.500000 0.448449 0.250000
O O7 0.549922 0.421966 0.498847
O O8 0.295338 0.450129 0.750000
O O9 0.350176 0.427971 0.984774
O O10 0.251852 0.411556 0.983940
O O11 0.287901 0.500000 0.000000
O O12 0.400850 0.395522 0.750000
O O13 0.392480 0.346289 0.006032
O O14 0.843619 0.813965 0.250000
O O15 0.797921 0.835593 0.986730
O O16 0.760340 0.644650 0.250000
#
# Coordination Sequence:
#
# PCOD9468111 Si02
#       6
#    16   8  16  16  16  16
#     4  10  16  23  36  54  73  94 116 142 176 217
#     4  12  24  36  48  62  76  96 124 158 199 240
#     4   9  18  28  40  54  71  94 122 154 189 224
#     4  10  20  34  46  58  74  94 121 157 195 234
#     4  10  17  26  40  57  74  93 114 143 182 226
#     4   9  16  26  36  51  73  96 120 148 180 217
#
# _framework density 13.458045
#
# number of rings (size 3 to 8) (size 9 to 14) (size 15 to 20)
#    0.000    2.182    0.000    9.000    0.000    5.818 
#    0.000    0.000    0.000    0.000    0.000    0.000 
#    0.000    0.000    0.000    0.000    0.000    0.000 
#
# Total GULP energy -245067.755815 kJ/mol
# GULP energy per Si atom -5569.721723 kJ/mol
# Density = 1.342741 g / cm^3
# Si number density = 13.458045 Si / 1000 Ang^3
#
#
#
# Elastic Constant Matrix: (Units=GPa)
#
#
# Indices 1 2 3 4 5 6 
#
# 1 32.8178 47.7494 14.9439 0.0000 0.0000 0.0000
# 2 47.7494 124.0152 27.6117 0.0000 0.0000 0.0000
# 3 14.9439 27.6117 56.9712 0.0000 0.0000 0.0000
# 4 0.0000 0.0000 0.0000 25.9611 0.0000 0.0000
# 5 0.0000 0.0000 0.0000 0.0000 14.2134 0.0000
# 6 0.0000 0.0000 0.0000 0.0000 0.0000 25.0159
#
#
#
# Elastic Compliance Matrix: (Units=1/GPa)
#
#
# Indices 1 2 3 4 5 6 
#
# 1 0.071089 -0.026028 -0.006032 0.000000 0.000000 0.000000
# 2 -0.026028 0.018569 -0.002172 0.000000 0.000000 0.000000
# 3 -0.006032 -0.002172 0.020188 0.000000 0.000000 0.000000
# 4 0.000000 0.000000 0.000000 0.038519 0.000000 0.000000
# 5 0.000000 0.000000 0.000000 0.000000 0.070356 0.000000
# 6 0.000000 0.000000 0.000000 0.000000 0.000000 0.039975
#
#
# Mechanical properties :
#
#
# Convention : Reuss Voigt Hill
#
# Bulk Modulus (GPa) = 24.16617 43.82381 33.99499
# Shear Modulus (GPa) = 14.66475 21.27137 17.96806
#
# Velocity S-wave (km/s) = 3.30459 3.97995 3.65789
# Velocity P-wave (km/s) = 5.70579 7.33171 6.56925
#
# Compressibility (1/GPa) = 0.04138017
#
# Stress axis : x y z
#
# Youngs Moduli (GPa) = 14.06691 53.85391 49.53485
#
# Poissons Ratio (x) = 1.40172 0.29881
# Poissons Ratio (y) = 0.36614 0.10760
# Poissons Ratio (z) = 0.08486 0.11698
#
# Static dielectric constant tensor:
#      x y z
#    x 1.428180 0.000000 0.000000 
#    y 0.000000 1.499640 0.000000 
#    z 0.000000 0.000000 1.443970 
# 
# From -- ./inp_files/14805.got.cif
#   From: 2010.05.17/outbox.cif.g08.bks.cpg/sg63_8_cif.got.tgz:14805.got - 2010.06.03 15:47:04.
