data_PCOD9468764
_publ_section_title
;
Structure prediction by ZEFSAII (Michael W. Deem and Ramdas Pophale) SiO2 
 PCOD9468764
Probable space group: C M C M
;
_chemical_formula_sum "Si O2"
_cell_formula_units_Z 112
_cell_length_a 25.264135
_cell_length_b 13.629943
_cell_length_c 19.318422
_cell_angle_alpha 90.000000
_cell_angle_beta 90.000000
_cell_angle_gamma 90.000000
_cell_volume 6652.273888
_symmetry_space_group_name_H-M "C M C M"
_symmetry_group_IT_number 63
_symmetry_cell_setting 'orthorhombic'
loop_
_space_group_symop_operation_xyz
x,y,z
-x,-y,1/2+z
x,-y,-z
-x,y,1/2-z
-x,-y,-z
x,y,1/2-z
-x,y,z
x,-y,1/2+z
1/2+x,1/2+y,z
1/2-x,1/2-y,1/2+z
1/2+x,1/2-y,-z
1/2-x,1/2+y,1/2-z
1/2-x,1/2-y,-z
1/2+x,1/2+y,1/2-z
1/2-x,1/2+y,z
1/2+x,1/2-y,1/2+z
loop_
_atom_site_type_symbol
_atom_site_label
_atom_site_fract_x
_atom_site_fract_y
_atom_site_fract_z
Si Si1 0.595984 0.113335 0.327017
Si Si2 0.442451 0.112614 0.474874
Si Si3 0.832829 0.581184 0.825506
Si Si4 0.669340 0.819082 0.028094
Si Si5 0.288763 0.484246 0.171569
Si Si6 0.736076 0.356173 0.935970
Si Si7 0.692802 0.736891 0.670567
O O1 0.572665 0.119890 0.250000
O O2 0.558065 0.116360 0.391960
O O3 0.639653 0.199413 0.334103
O O4 0.627661 0.010484 0.332034
O O5 0.500000 0.148372 0.500796
O O6 0.388836 0.167120 0.497260
O O7 0.436726 0.000000 0.500000
O O8 0.841881 0.628691 0.750000
O O9 0.835694 0.648938 0.892260
O O10 0.774009 0.537003 0.824875
O O11 0.693124 0.709717 0.024307
O O12 0.714846 0.881848 0.987374
O O13 0.304577 0.517063 0.250000
O O14 0.292288 0.559439 0.108151
O O15 0.314675 0.378374 0.156773
O O16 0.764613 0.285346 0.879824
O O17 0.712083 0.744411 0.750000
#
# Coordination Sequence:
#
# PCOD9468764 Si02
#       7
#    16  16  16  16  16  16  16
#     4  10  19  33  52  73 101 138 175 211 253 306
#     4  11  22  36  55  77 106 142 176 215 260 305
#     4  10  18  29  48  69  99 139 172 210 253 304
#     4  11  22  34  48  75 103 138 179 213 256 310
#     4  10  19  30  46  73 106 140 173 208 249 309
#     4  11  21  31  50  75 105 143 173 209 260 313
#     4  10  18  30  48  73 105 138 172 209 255 306
#
# _framework density 16.836348000000001
#
# number of rings (size 3 to 8) (size 9 to 14) (size 15 to 20)
#    0.000    1.571    5.714    0.429    0.000    0.857 
#    0.000    0.000    0.000    0.429    0.000    2.000 
#    0.000    1.143    0.000    0.000    0.000    0.000 
#
# Total GULP energy -312181.264246 kJ/mol
# GULP energy per Si atom -5574.665433 kJ/mol
# Density = 1.679803 g / cm^3
# Si number density = 16.836348 Si / 1000 Ang^3
#
#
#
# Elastic Constant Matrix: (Units=GPa)
#
#
# Indices 1 2 3 4 5 6 
#
# 1 85.9016 21.6550 31.2531 0.0000 0.0000 0.0000
# 2 21.6550 45.3062 34.1477 0.0000 0.0000 0.0000
# 3 31.2531 34.1477 103.7943 0.0000 0.0000 0.0000
# 4 0.0000 0.0000 0.0000 10.6336 0.0000 0.0000
# 5 0.0000 0.0000 0.0000 0.0000 6.2997 0.0000
# 6 0.0000 0.0000 0.0000 0.0000 0.0000 -0.3892
#
#
#
# Elastic Compliance Matrix: (Units=1/GPa)
#
#
# Indices 1 2 3 4 5 6 
#
# 1 0.013756 -0.004592 -0.002631 0.000000 0.000000 0.000000
# 2 -0.004592 0.030882 -0.008778 0.000000 0.000000 0.000000
# 3 -0.002631 -0.008778 0.013315 0.000000 0.000000 0.000000
# 4 0.000000 0.000000 0.000000 0.094041 0.000000 0.000000
# 5 0.000000 0.000000 0.000000 0.000000 0.158738 0.000000
# 6 0.000000 0.000000 0.000000 0.000000 0.000000 -2.569281
#
#
# Mechanical properties :
#
#
# Convention : Reuss Voigt Hill
#
# Bulk Modulus (GPa) = 38.53299 45.45707 41.99503
# Shear Modulus (GPa) = -2.25439 13.17191 5.45876
#
# Velocity S-wave (km/s) = -1.15841 2.80009 1.80258
# Velocity P-wave (km/s) = 4.59861 6.12470 5.41568
#
# Compressibility (1/GPa) = 0.02595179
#
# Stress axis : x y z
#
# Youngs Moduli (GPa) = 72.69491 32.38085 75.10589
#
# Poissons Ratio (x) = 0.14868 0.19763
# Poissons Ratio (y) = 0.33379 0.65925
# Poissons Ratio (z) = 0.19129 0.28422
#
# Static dielectric constant tensor:
#      x y z
#    x 1.549310 0.000000 0.000000 
#    y 0.000000 1.602130 0.000000 
#    z 0.000000 0.000000 1.646330 
# 
# From -- ./inp_files/58317.got.cif
#   From: 2010.05.17/outbox.cif.g08.bks.cpg/sg63_30_cif.got.tgz:58317.got - 2010.06.03 15:47:04.
