data_PCOD9468573
_publ_section_title
;
Structure prediction by ZEFSAII (Michael W. Deem and Ramdas Pophale) SiO2 
 PCOD9468573
Probable space group: C M C M
;
_chemical_formula_sum "Si O2"
_cell_formula_units_Z 104
_cell_length_a 29.347297
_cell_length_b 24.683628
_cell_length_c 8.651553
_cell_angle_alpha 90.000000
_cell_angle_beta 90.000000
_cell_angle_gamma 90.000000
_cell_volume 6267.165631
_symmetry_space_group_name_H-M "C M C M"
_symmetry_group_IT_number 63
_symmetry_cell_setting 'orthorhombic'
loop_
_space_group_symop_operation_xyz
x,y,z
-x,-y,1/2+z
x,-y,-z
-x,y,1/2-z
-x,-y,-z
x,y,1/2-z
-x,y,z
x,-y,1/2+z
1/2+x,1/2+y,z
1/2-x,1/2-y,1/2+z
1/2+x,1/2-y,-z
1/2-x,1/2+y,1/2-z
1/2-x,1/2-y,-z
1/2+x,1/2+y,1/2-z
1/2-x,1/2+y,z
1/2+x,1/2-y,1/2+z
loop_
_atom_site_type_symbol
_atom_site_label
_atom_site_fract_x
_atom_site_fract_y
_atom_site_fract_z
Si Si1 0.589183 0.628016 0.438591
Si Si2 0.371632 0.939127 0.433456
Si Si3 0.000000 0.060605 0.436957
Si Si4 0.946126 0.757394 0.565516
Si Si5 0.323201 0.561065 0.436676
Si Si6 0.777447 0.561202 0.064784
Si Si7 0.947158 0.360118 0.934290
O O1 0.589145 0.628579 0.250000
O O2 0.545349 0.592728 0.486327
O O3 0.581860 0.690077 0.487253
O O4 0.635579 0.599132 0.489720
O O5 0.369586 0.942719 0.250000
O O6 0.323682 0.914861 0.495354
O O7 0.413334 0.902223 0.486960
O O8 0.376539 0.000000 0.500000
O O9 0.000000 0.059052 0.250000
O O10 0.000000 0.000000 0.500000
O O11 0.939687 0.750164 0.750000
O O12 0.935198 0.701292 0.482129
O O13 0.000000 0.769133 0.541743
O O14 0.328441 0.500000 0.500000
O O15 0.324873 0.557688 0.250000
O O16 0.272685 0.583051 0.477686
O O17 0.781347 0.560321 0.250000
O O18 0.776618 0.500000 0.000000
O O19 0.944257 0.365931 0.750000
O O20 0.000000 0.368921 0.981301
#
# Coordination Sequence:
#
# PCOD9468573 Si02
#       7
#    16  16   8  16  16  16  16
#     4   9  16  28  46  67  93 128 168 207 248 293
#     4  11  21  34  54  78 103 130 158 190 231 283
#     4  10  18  28  42  64  96 132 165 204 251 298
#     4   9  16  30  51  70  90 125 171 209 241 286
#     4   9  17  28  44  67  96 129 165 205 249 294
#     4   9  16  28  46  68  95 127 162 200 240 286
#     4  10  21  36  53  75 103 130 156 193 236 281
#
# _framework density 16.594422999999999
#
# number of rings (size 3 to 8) (size 9 to 14) (size 15 to 20)
#    0.000    2.462    0.769    3.692    0.000    1.846 
#    0.000    1.538    0.000    0.923    0.000    0.000 
#    0.000    0.000    0.000    0.000    0.000    0.000 
#
# Total GULP energy -289836.350822 kJ/mol
# GULP energy per Si atom -5573.775977 kJ/mol
# Density = 1.655665 g / cm^3
# Si number density = 16.594423 Si / 1000 Ang^3
#
#
#
# Elastic Constant Matrix: (Units=GPa)
#
#
# Indices 1 2 3 4 5 6 
#
# 1 151.1020 80.0228 45.8669 0.0000 0.0000 0.0000
# 2 80.0228 86.3512 32.4768 0.0000 0.0000 0.0000
# 3 45.8669 32.4768 48.6476 0.0000 0.0000 0.0000
# 4 0.0000 0.0000 0.0000 22.8997 0.0000 0.0000
# 5 0.0000 0.0000 0.0000 0.0000 15.6689 0.0000
# 6 0.0000 0.0000 0.0000 0.0000 0.0000 9.2230
#
#
#
# Elastic Compliance Matrix: (Units=1/GPa)
#
#
# Indices 1 2 3 4 5 6 
#
# 1 0.014262 -0.010895 -0.006173 0.000000 0.000000 0.000000
# 2 -0.010895 0.023786 -0.005607 0.000000 0.000000 0.000000
# 3 -0.006173 -0.005607 0.030120 0.000000 0.000000 0.000000
# 4 0.000000 0.000000 0.000000 0.043669 0.000000 0.000000
# 5 0.000000 0.000000 0.000000 0.000000 0.063821 0.000000
# 6 0.000000 0.000000 0.000000 0.000000 0.000000 0.108425
#
#
# Mechanical properties :
#
#
# Convention : Reuss Voigt Hill
#
# Bulk Modulus (GPa) = 43.82738 66.98154 55.40446
# Shear Modulus (GPa) = 14.83512 18.07393 16.45452
#
# Velocity S-wave (km/s) = 2.99320 3.30382 3.15234
# Velocity P-wave (km/s) = 6.19789 7.41654 6.83444
#
# Compressibility (1/GPa) = 0.02281679
#
# Stress axis : x y z
#
# Youngs Moduli (GPa) = 70.11768 42.04182 33.20077
#
# Poissons Ratio (x) = 0.45804 0.20496
# Poissons Ratio (y) = 0.76392 0.18617
# Poissons Ratio (z) = 0.43285 0.23574
#
# Static dielectric constant tensor:
#      x y z
#    x 1.588250 0.000000 0.000000 
#    y 0.000000 1.519740 0.000000 
#    z 0.000000 0.000000 1.558810 
# 
# From -- ./inp_files/12842.got.cif
#   From: 2010.05.17/outbox.cif.g08.bks.cpg/sg63_7_cif.got.tgz:12842.got - 2010.06.03 15:47:04.
