data_PCOD9468953
_publ_section_title
;
Structure prediction by ZEFSAII (Michael W. Deem and Ramdas Pophale) SiO2 
 PCOD9468953
Probable space group: C M C M
;
_chemical_formula_sum "Si O2"
_cell_formula_units_Z 72
_cell_length_a 18.455958
_cell_length_b 24.394778
_cell_length_c 7.769693
_cell_angle_alpha 90.000000
_cell_angle_beta 90.000000
_cell_angle_gamma 90.000000
_cell_volume 3498.141096
_symmetry_space_group_name_H-M "C M C M"
_symmetry_group_IT_number 63
_symmetry_cell_setting 'orthorhombic'
loop_
_space_group_symop_operation_xyz
x,y,z
-x,-y,1/2+z
x,-y,-z
-x,y,1/2-z
-x,-y,-z
x,y,1/2-z
-x,y,z
x,-y,1/2+z
1/2+x,1/2+y,z
1/2-x,1/2-y,1/2+z
1/2+x,1/2-y,-z
1/2-x,1/2+y,1/2-z
1/2-x,1/2-y,-z
1/2+x,1/2+y,1/2-z
1/2-x,1/2+y,z
1/2+x,1/2-y,1/2+z
loop_
_atom_site_type_symbol
_atom_site_label
_atom_site_fract_x
_atom_site_fract_y
_atom_site_fract_z
Si Si1 0.500000 0.563968 0.043468
Si Si2 0.717625 0.936498 0.546624
Si Si3 0.643283 0.628907 0.038541
Si Si4 0.918154 0.365104 0.043323
Si Si5 0.084435 0.242791 0.040684
O O1 0.500000 0.568928 0.250000
O O2 0.572771 0.594312 0.982941
O O3 0.500000 0.500000 0.000000
O O4 0.723929 0.933212 0.750000
O O5 0.784006 0.900358 0.474855
O O6 0.640892 0.910220 0.499282
O O7 0.723433 0.000000 0.500000
O O8 0.643665 0.628969 0.250000
O O9 0.632488 0.691772 0.982231
O O10 0.922027 0.362013 0.250000
O O11 0.895971 0.304040 0.981235
O O12 0.000000 0.376615 0.980570
O O13 0.086942 0.242957 0.250000
O O14 0.000000 0.233029 0.994812
#
# Coordination Sequence:
#
# PCOD9468953 Si02
#       5
#     8  16  16  16  16
#     4  10  18  30  50  74 104 142 183 218 247 292
#     4  11  23  37  53  76 108 142 177 219 264 311
#     4   9  17  30  51  79 107 139 177 215 254 302
#     4   9  19  36  59  83 104 132 172 218 267 319
#     4   8  13  27  53  82 108 134 171 214 255 309
#
# _framework density 20.582359
#
# number of rings (size 3 to 8) (size 9 to 14) (size 15 to 20)
#    0.000    2.667    1.111    2.667    0.000    1.778 
#    0.000    1.111    0.000    2.667    0.000    0.000 
#    0.000    0.000    0.000    0.000    0.000    0.000 
#
# Total GULP energy -200898.829859 kJ/mol
# GULP energy per Si atom -5580.523052 kJ/mol
# Density = 2.053551 g / cm^3
# Si number density = 20.582359 Si / 1000 Ang^3
#
#
#
# Elastic Constant Matrix: (Units=GPa)
#
#
# Indices 1 2 3 4 5 6 
#
# 1 105.9668 49.1675 8.1510 0.0000 0.0000 0.0000
# 2 49.1675 78.0799 4.0125 0.0000 0.0000 0.0000
# 3 8.1510 4.0125 27.2571 0.0000 0.0000 0.0000
# 4 0.0000 0.0000 0.0000 -2.5636 0.0000 0.0000
# 5 0.0000 0.0000 0.0000 0.0000 7.2537 0.0000
# 6 0.0000 0.0000 0.0000 0.0000 0.0000 39.6427
#
#
#
# Elastic Compliance Matrix: (Units=1/GPa)
#
#
# Indices 1 2 3 4 5 6 
#
# 1 0.013543 -0.008384 -0.002816 0.000000 0.000000 0.000000
# 2 -0.008384 0.018095 -0.000157 0.000000 0.000000 0.000000
# 3 -0.002816 -0.000157 0.037553 0.000000 0.000000 0.000000
# 4 0.000000 0.000000 0.000000 -0.390080 0.000000 0.000000
# 5 0.000000 0.000000 0.000000 0.000000 0.137861 0.000000
# 6 0.000000 0.000000 0.000000 0.000000 0.000000 0.025225
#
#
# Mechanical properties :
#
#
# Convention : Reuss Voigt Hill
#
# Bulk Modulus (GPa) = 21.51532 37.10732 29.31132
# Shear Modulus (GPa) = -41.80717 18.86474 -11.47122
#
# Velocity S-wave (km/s) = -4.51179 3.03074 -2.36335
# Velocity P-wave (km/s) = 4.08236 5.50591 2.61241
#
# Compressibility (1/GPa) = 0.04647852
#
# Stress axis : x y z
#
# Youngs Moduli (GPa) = 73.83629 55.26472 26.62918
#
# Poissons Ratio (x) = 0.46332 0.07498
# Poissons Ratio (y) = 0.61902 0.00417
# Poissons Ratio (z) = 0.20792 0.00866
#
# Static dielectric constant tensor:
#      x y z
#    x 1.738420 0.000000 0.000000 
#    y 0.000000 1.665390 0.000000 
#    z 0.000000 0.000000 1.762770 
# 
# From -- ./inp_files/6115.got.cif
#   From: 2010.05.17/outbox.cif.g08.bks.cpg/sg63_4_cif.got.tgz:6115.got - 2010.06.03 15:47:04.
