data_PCOD9468075
_publ_section_title
;
Structure prediction by ZEFSAII (Michael W. Deem and Ramdas Pophale) SiO2 
 PCOD9468075
Probable space group: P N M A
;
_chemical_formula_sum "Si O2"
_cell_formula_units_Z 56
_cell_length_a 15.000000
_cell_length_b 9.000000
_cell_length_c 21.000000
_cell_angle_alpha 90.000000
_cell_angle_beta 90.000000
_cell_angle_gamma 90.000000
_cell_volume 2835.000000
_symmetry_space_group_name_H-M "P N M A"
_symmetry_group_IT_number 62
_symmetry_cell_setting 'orthorhombic'
loop_
_space_group_symop_operation_xyz
x,y,z
1/2-x,-y,1/2+z
1/2+x,1/2-y,1/2-z
-x,1/2+y,-z
-x,-y,-z
1/2+x,y,1/2-z
1/2-x,1/2+y,1/2+z
x,1/2-y,z
loop_
_atom_site_type_symbol
_atom_site_label
_atom_site_fract_x
_atom_site_fract_y
_atom_site_fract_z
Si Si1 0.741044 0.572713 0.111307
Si Si2 0.176465 0.574395 0.155210
Si Si3 0.510790 0.925869 0.258064
Si Si4 0.939829 0.573570 0.636223
Si Si5 0.260505 0.572623 0.530110
Si Si6 0.813339 0.069523 0.240651
Si Si7 0.431096 0.928321 0.049988
O O1 0.740093 0.750000 0.125296
O O2 0.640572 0.512299 0.102142
O O3 0.776865 0.480983 0.171292
O O4 0.789755 0.549712 0.043476
O O5 0.200397 0.750000 0.150499
O O6 0.181557 0.493721 0.087128
O O7 0.247683 0.498104 0.204491
O O8 0.074633 0.567284 0.180419
O O9 0.506299 0.750000 0.239658
O O10 0.566569 0.026954 0.209064
O O11 0.412257 0.996145 0.259071
O O12 0.937180 0.750000 0.625310
O O13 0.032439 0.499775 0.614832
O O14 0.247722 0.750000 0.538086
O O15 0.167043 0.487407 0.538217
O O16 0.817094 0.250000 0.246413
O O17 0.435744 0.750000 0.049108
O O18 0.500000 0.000000 0.000000
#
# Coordination Sequence:
#
# PCOD9468075 Si02
#       7
#     8   8   8   8   8   8   8
#     4  11  23  41  64  91 127 169 212 258 319 384
#     4  11  24  43  68  95 130 171 215 267 325 388
#     4  11  24  43  67  93 127 169 216 267 322 384
#     4  12  23  37  61  91 125 164 208 260 318 382
#     4  11  24  41  63  91 129 169 212 266 323 387
#     4  12  25  42  68  98 131 168 217 273 323 384
#     4  12  23  36  56  85 124 164 207 255 313 383
#
# _framework density 19.753086
#
# number of rings (size 3 to 8) (size 9 to 14) (size 15 to 20)
#    0.000    0.571    2.857    6.429    0.000    3.429 
#    0.000    0.714    0.000    0.000    0.000    0.000 
#    0.000    0.000    0.000    0.000    0.000    0.000 
#
# Total GULP energy -312768.703013 kJ/mol
# GULP energy per Si atom -5585.155411 kJ/mol
# Density = 1.970813 g / cm^3
# Si number density = 19.753086 Si / 1000 Ang^3
#
#
#
# Elastic Constant Matrix: (Units=GPa)
#
#
# Indices 1 2 3 4 5 6 
#
# 1 57.9632 10.6986 6.6372 0.0000 0.0000 0.0000
# 2 10.6986 145.4390 20.8746 0.0000 0.0000 0.0000
# 3 6.6372 20.8746 85.7970 0.0000 0.0000 0.0000
# 4 0.0000 0.0000 0.0000 35.8477 0.0000 0.0000
# 5 0.0000 0.0000 0.0000 0.0000 32.9665 0.0000
# 6 0.0000 0.0000 0.0000 0.0000 0.0000 32.7902
#
#
#
# Elastic Compliance Matrix: (Units=1/GPa)
#
#
# Indices 1 2 3 4 5 6 
#
# 1 0.017586 -0.001138 -0.001084 0.000000 0.000000 0.000000
# 2 -0.001138 0.007198 -0.001663 0.000000 0.000000 0.000000
# 3 -0.001084 -0.001663 0.012144 0.000000 0.000000 0.000000
# 4 0.000000 0.000000 0.000000 0.027896 0.000000 0.000000
# 5 0.000000 0.000000 0.000000 0.000000 0.030334 0.000000
# 6 0.000000 0.000000 0.000000 0.000000 0.000000 0.030497
#
#
# Mechanical properties :
#
#
# Convention : Reuss Voigt Hill
#
# Bulk Modulus (GPa) = 34.29521 40.62443 37.45982
# Shear Modulus (GPa) = 34.92971 37.05348 35.99159
#
# Velocity S-wave (km/s) = 4.20970 4.33579 4.27321
# Velocity P-wave (km/s) = 6.40534 6.75841 6.58424
#
# Compressibility (1/GPa) = 0.02915859
#
# Stress axis : x y z
#
# Youngs Moduli (GPa) = 56.86184 138.92385 82.34575
#
# Poissons Ratio (x) = 0.15812 0.08923
# Poissons Ratio (y) = 0.06472 0.13696
# Poissons Ratio (z) = 0.06161 0.23107
#
# Static dielectric constant tensor:
#      x y z
#    x 1.724070 0.000000 0.000000 
#    y 0.000000 1.650720 0.000000 
#    z 0.000000 0.000000 1.876050 
# 
# From -- ./inp_files/27116.got.cif
#   From: 2010.05.17/outbox.ucp.g08.bks.cvg/sg62_14_cif.got.tgz:27116.got - 2010.06.11 16:29:25.
