data_PCOD9468374
_publ_section_title
;
Structure prediction by ZEFSAII (Michael W. Deem and Ramdas Pophale) SiO2 
 PCOD9468374
Probable space group: C M C M
;
_chemical_formula_sum "Si O2"
_cell_formula_units_Z 40
_cell_length_a 21.699615
_cell_length_b 7.617130
_cell_length_c 10.177100
_cell_angle_alpha 90.000000
_cell_angle_beta 90.000000
_cell_angle_gamma 90.000000
_cell_volume 1682.160528
_symmetry_space_group_name_H-M "C M C M"
_symmetry_group_IT_number 63
_symmetry_cell_setting 'orthorhombic'
loop_
_space_group_symop_operation_xyz
x,y,z
-x,-y,1/2+z
x,-y,-z
-x,y,1/2-z
-x,-y,-z
x,y,1/2-z
-x,y,z
x,-y,1/2+z
1/2+x,1/2+y,z
1/2-x,1/2-y,1/2+z
1/2+x,1/2-y,-z
1/2-x,1/2+y,1/2-z
1/2-x,1/2-y,-z
1/2+x,1/2+y,1/2-z
1/2-x,1/2+y,z
1/2+x,1/2-y,1/2+z
loop_
_atom_site_type_symbol
_atom_site_label
_atom_site_fract_x
_atom_site_fract_y
_atom_site_fract_z
Si Si1 0.349933 0.506027 0.750000
Si Si2 0.657170 0.000000 0.000000
Si Si3 0.570807 0.293184 0.596152
Si Si4 0.225812 0.641573 0.750000
O O1 0.395776 0.477842 0.871091
O O2 0.299768 0.655886 0.750000
O O3 0.305987 0.332252 0.750000
O O4 0.611121 0.833683 0.005634
O O5 0.701592 0.960240 0.122136
O O6 0.570886 0.216667 0.750000
O O7 0.500000 0.305996 0.556347
#
# Coordination Sequence:
#
# PCOD9468374 Si02
#       4
#     8   8  16   8
#     4   8  17  32  46  72  93 126 156 194 236 280
#     4  10  17  30  46  74  97 124 154 198 242 276
#     4   8  15  28  45  68  91 119 157 195 231 274
#     4  10  20  30  48  70 102 124 158 192 236 286
#
# _framework density 23.778945
#
# number of rings (size 3 to 8) (size 9 to 14) (size 15 to 20)
#    1.200    2.000    2.000    0.600    0.000    6.400 
#    0.000    0.000    0.000    0.000    0.000   47.600 
#    0.000    0.000    0.000    0.000    0.000    0.000 
#
# Total GULP energy -111451.149089 kJ/mol
# GULP energy per Si atom -5572.557454 kJ/mol
# Density = 2.372482 g / cm^3
# Si number density = 23.778945 Si / 1000 Ang^3
#
#
#
# Elastic Constant Matrix: (Units=GPa)
#
#
# Indices 1 2 3 4 5 6 
#
# 1 163.7841 -7.2355 -14.7265 0.0000 0.0000 0.0000
# 2 -7.2355 58.2174 -7.0986 0.0000 0.0000 0.0000
# 3 -14.7265 -7.0986 76.8716 0.0000 0.0000 0.0000
# 4 0.0000 0.0000 0.0000 25.8715 0.0000 0.0000
# 5 0.0000 0.0000 0.0000 0.0000 19.1331 0.0000
# 6 0.0000 0.0000 0.0000 0.0000 0.0000 23.3020
#
#
#
# Elastic Compliance Matrix: (Units=1/GPa)
#
#
# Indices 1 2 3 4 5 6 
#
# 1 0.006263 0.000935 0.001286 0.000000 0.000000 0.000000
# 2 0.000935 0.017512 0.001796 0.000000 0.000000 0.000000
# 3 0.001286 0.001796 0.013421 0.000000 0.000000 0.000000
# 4 0.000000 0.000000 0.000000 0.038653 0.000000 0.000000
# 5 0.000000 0.000000 0.000000 0.000000 0.052265 0.000000
# 6 0.000000 0.000000 0.000000 0.000000 0.000000 0.042915
#
#
# Mechanical properties :
#
#
# Convention : Reuss Voigt Hill
#
# Bulk Modulus (GPa) = 22.10881 26.75021 24.42951
# Shear Modulus (GPa) = 28.07878 35.52357 31.80118
#
# Velocity S-wave (km/s) = 3.44004 3.86930 3.66097
# Velocity P-wave (km/s) = 5.00963 5.58892 5.30718
#
# Compressibility (1/GPa) = 0.04523084
#
# Stress axis : x y z
#
# Youngs Moduli (GPa) = 159.67938 57.10287 74.51034
#
# Poissons Ratio (x) = -0.05340 -0.09583
# Poissons Ratio (y) = -0.14932 -0.13384
# Poissons Ratio (z) = -0.20536 -0.10257
#
# Static dielectric constant tensor:
#      x y z
#    x 1.896540 0.000000 0.000000 
#    y 0.000000 1.945040 0.000000 
#    z 0.000000 0.000000 1.970440 
# 
# From -- ./inp_files/9352.got.cif
#   From: 2010.05.17/outbox.cif.g08.bks.cpg/sg63_5_cif.got.tgz:9352.got - 2010.06.03 15:47:04.
