data_PCOD9468539
_publ_section_title
;
Structure prediction by ZEFSAII (Michael W. Deem and Ramdas Pophale) SiO2 
 PCOD9468539
Probable space group: C M C M
;
_chemical_formula_sum "Si O2"
_cell_formula_units_Z 128
_cell_length_a 21.523053
_cell_length_b 20.917585
_cell_length_c 17.942891
_cell_angle_alpha 90.000000
_cell_angle_beta 90.000000
_cell_angle_gamma 90.000000
_cell_volume 8078.074171
_symmetry_space_group_name_H-M "C M C M"
_symmetry_group_IT_number 63
_symmetry_cell_setting 'orthorhombic'
loop_
_space_group_symop_operation_xyz
x,y,z
-x,-y,1/2+z
x,-y,-z
-x,y,1/2-z
-x,-y,-z
x,y,1/2-z
-x,y,z
x,-y,1/2+z
1/2+x,1/2+y,z
1/2-x,1/2-y,1/2+z
1/2+x,1/2-y,-z
1/2-x,1/2+y,1/2-z
1/2-x,1/2-y,-z
1/2+x,1/2+y,1/2-z
1/2-x,1/2+y,z
1/2+x,1/2-y,1/2+z
loop_
_atom_site_type_symbol
_atom_site_label
_atom_site_fract_x
_atom_site_fract_y
_atom_site_fract_z
Si Si1 0.278817 0.358782 0.332537
Si Si2 0.429643 0.865287 0.896285
Si Si3 0.357635 0.209294 0.665446
Si Si4 0.241740 0.074482 0.517136
Si Si5 0.671292 0.756898 0.911323
Si Si6 0.117058 0.604021 0.551913
Si Si7 0.925109 0.500354 0.166473
Si Si8 0.807963 0.811723 0.931606
O O1 0.289063 0.384435 0.250000
O O2 0.210546 0.325106 0.333945
O O3 0.280804 0.409460 0.399153
O O4 0.325419 0.301732 0.353996
O O5 0.500000 0.847411 0.876900
O O6 0.383185 0.805982 0.894761
O O7 0.409783 0.925228 0.845661
O O8 0.426834 0.892083 0.980784
O O9 0.381517 0.207602 0.750000
O O10 0.392761 0.165145 0.605540
O O11 0.349204 0.281251 0.634164
O O12 0.312864 0.100883 0.518717
O O13 0.200230 0.115525 0.459113
O O14 0.241900 0.000000 0.500000
O O15 0.737906 0.791697 0.909906
O O16 0.670362 0.726906 0.994437
O O17 0.106416 0.542609 0.603621
O O18 0.907165 0.479570 0.250000
O O19 0.000000 0.494446 0.159441
#
# Coordination Sequence:
#
# PCOD9468539 Si02
#       8
#    16  16  16  16  16  16  16  16
#     4   8  16  28  44  63  86 112 148 186 224 276
#     4  11  20  30  46  67  89 119 160 198 228 267
#     4   9  16  27  46  67  85 112 150 194 235 269
#     4  10  18  27  45  66  91 119 148 183 230 273
#     4   9  15  28  46  64  81 115 149 189 228 265
#     4  11  18  30  47  63  86 120 164 196 226 264
#     4  10  22  35  42  56  89 130 167 203 235 259
#     4   9  15  29  46  63  86 112 150 184 226 282
#
# _framework density 15.845359999999999
#
# number of rings (size 3 to 8) (size 9 to 14) (size 15 to 20)
#    0.000    2.375    2.500    3.375    0.000    2.000 
#    0.000    0.625    0.000    0.000    0.000    0.000 
#    0.000    8.000    0.000    0.000    0.500    0.000 
#
# Total GULP energy -356387.928003 kJ/mol
# GULP energy per Si atom -5568.561375 kJ/mol
# Density = 1.580930 g / cm^3
# Si number density = 15.845360 Si / 1000 Ang^3
#
#
#
# Elastic Constant Matrix: (Units=GPa)
#
#
# Indices 1 2 3 4 5 6 
#
# 1 15.8276 4.4743 -5.8969 0.0000 0.0000 0.0000
# 2 4.4743 53.2655 18.9040 0.0000 0.0000 0.0000
# 3 -5.8969 18.9040 59.9080 0.0000 0.0000 0.0000
# 4 0.0000 0.0000 0.0000 15.7893 0.0000 0.0000
# 5 0.0000 0.0000 0.0000 0.0000 5.1195 0.0000
# 6 0.0000 0.0000 0.0000 0.0000 0.0000 15.5713
#
#
#
# Elastic Compliance Matrix: (Units=1/GPa)
#
#
# Indices 1 2 3 4 5 6 
#
# 1 0.069451 -0.009302 0.009771 0.000000 0.000000 0.000000
# 2 -0.009302 0.022387 -0.007980 0.000000 0.000000 0.000000
# 3 0.009771 -0.007980 0.020172 0.000000 0.000000 0.000000
# 4 0.000000 0.000000 0.000000 0.063334 0.000000 0.000000
# 5 0.000000 0.000000 0.000000 0.000000 0.195333 0.000000
# 6 0.000000 0.000000 0.000000 0.000000 0.000000 0.064221
#
#
# Mechanical properties :
#
#
# Convention : Reuss Voigt Hill
#
# Bulk Modulus (GPa) = 10.31035 18.21819 14.26427
# Shear Modulus (GPa) = 10.36811 14.73067 12.54939
#
# Velocity S-wave (km/s) = 2.56076 3.05233 2.81729
# Velocity P-wave (km/s) = 3.90696 4.89333 4.42770
#
# Compressibility (1/GPa) = 0.09698991
#
# Stress axis : x y z
#
# Youngs Moduli (GPa) = 14.39867 44.66819 49.57329
#
# Poissons Ratio (x) = 0.41549 -0.48440
# Poissons Ratio (y) = 0.13393 0.39559
# Poissons Ratio (z) = -0.14070 0.35645
#
# Static dielectric constant tensor:
#      x y z
#    x 1.523400 0.000000 0.000000 
#    y 0.000000 1.538610 0.000000 
#    z 0.000000 0.000000 1.560650 
# 
# From -- ./inp_files/47521.got.cif
#   From: 2010.05.17/outbox.cif.g08.bks.cpg/sg63_24_cif.got.tgz:47521.got - 2010.06.03 15:47:04.
