data_PCOD9468689
_publ_section_title
;
Structure prediction by ZEFSAII (Michael W. Deem and Ramdas Pophale) SiO2 
 PCOD9468689
Probable space group: C M C M
;
_chemical_formula_sum "Si O2"
_cell_formula_units_Z 104
_cell_length_a 25.589724
_cell_length_b 20.576606
_cell_length_c 7.710800
_cell_angle_alpha 90.000000
_cell_angle_beta 90.000000
_cell_angle_gamma 90.000000
_cell_volume 4060.119183
_symmetry_space_group_name_H-M "C M C M"
_symmetry_group_IT_number 63
_symmetry_cell_setting 'orthorhombic'
loop_
_space_group_symop_operation_xyz
x,y,z
-x,-y,1/2+z
x,-y,-z
-x,y,1/2-z
-x,-y,-z
x,y,1/2-z
-x,y,z
x,-y,1/2+z
1/2+x,1/2+y,z
1/2-x,1/2-y,1/2+z
1/2+x,1/2-y,-z
1/2-x,1/2+y,1/2-z
1/2-x,1/2-y,-z
1/2+x,1/2+y,1/2-z
1/2-x,1/2+y,z
1/2+x,1/2-y,1/2+z
loop_
_atom_site_type_symbol
_atom_site_label
_atom_site_fract_x
_atom_site_fract_y
_atom_site_fract_z
Si Si1 0.944191 0.110100 0.955349
Si Si2 0.169361 0.900353 0.944344
Si Si3 0.557322 0.761597 0.047369
Si Si4 0.171901 0.246835 0.951812
Si Si5 0.389143 0.075356 0.457831
Si Si6 0.000000 0.577415 0.041357
Si Si7 0.778524 0.623380 0.463442
O O1 0.946366 0.118606 0.750000
O O2 0.000000 0.079648 0.012573
O O3 0.887383 0.079312 0.988231
O O4 0.942853 0.182307 0.034516
O O5 0.171537 0.925513 0.750000
O O6 0.226161 0.911900 0.028603
O O7 0.170568 0.820915 0.947246
O O8 0.559068 0.777070 0.250000
O O9 0.500000 0.780003 0.971472
O O10 0.613375 0.778272 0.963216
O O11 0.180407 0.231207 0.750000
O O12 0.212924 0.301078 0.011902
O O13 0.388070 0.084935 0.250000
O O14 0.444364 0.104214 0.524739
O O15 0.332606 0.093707 0.526980
O O16 0.393888 0.000000 0.500000
O O17 0.000000 0.582737 0.250000
O O18 0.000000 0.500000 0.000000
O O19 0.777081 0.621904 0.250000
#
# Coordination Sequence:
#
# PCOD9468689 Si02
#       7
#    16  16  16  16  16   8  16
#     4   9  16  26  41  61  84 111 146 187 222 254
#     4  10  18  29  45  63  88 124 155 187 225 264
#     4   9  16  26  39  55  79 111 147 187 228 265
#     4  10  18  29  43  61  86 119 155 191 224 264
#     4   9  17  33  52  72  93 116 149 191 236 282
#     4   8  14  26  50  72  88 112 144 184 232 278
#     4   9  19  32  45  65  93 119 150 187 226 274
#
# _framework density 25.615012
#
# number of rings (size 3 to 8) (size 9 to 14) (size 15 to 20)
#    0.000    2.769    0.000    4.154    0.000    1.846 
#    1.385    5.385    0.000    0.000    0.000    0.000 
#    0.000    0.615    0.000    1.385    0.000    2.769 
#
# Total GULP energy -290185.979504 kJ/mol
# GULP energy per Si atom -5580.499606 kJ/mol
# Density = 2.555671 g / cm^3
# Si number density = 25.615012 Si / 1000 Ang^3
#
#
#
# Elastic Constant Matrix: (Units=GPa)
#
#
# Indices 1 2 3 4 5 6 
#
# 1 273.1587 29.7552 20.5245 0.0000 0.0000 0.0000
# 2 29.7552 40.1668 -2.1683 0.0000 0.0000 0.0000
# 3 20.5245 -2.1683 74.0931 0.0000 0.0000 0.0000
# 4 0.0000 0.0000 0.0000 1.4234 0.0000 0.0000
# 5 0.0000 0.0000 0.0000 0.0000 18.8516 0.0000
# 6 0.0000 0.0000 0.0000 0.0000 0.0000 27.0087
#
#
#
# Elastic Compliance Matrix: (Units=1/GPa)
#
#
# Indices 1 2 3 4 5 6 
#
# 1 0.004090 -0.003096 -0.001224 0.000000 0.000000 0.000000
# 2 -0.003096 0.027279 0.001656 0.000000 0.000000 0.000000
# 3 -0.001224 0.001656 0.013884 0.000000 0.000000 0.000000
# 4 0.000000 0.000000 0.000000 0.702547 0.000000 0.000000
# 5 0.000000 0.000000 0.000000 0.000000 0.053046 0.000000
# 6 0.000000 0.000000 0.000000 0.000000 0.000000 0.037025
#
#
# Mechanical properties :
#
#
# Convention : Reuss Voigt Hill
#
# Bulk Modulus (GPa) = 25.04647 53.73794 39.39221
# Shear Modulus (GPa) = 5.83767 32.07721 18.95744
#
# Velocity S-wave (km/s) = 1.51127 3.54260 2.72341
# Velocity P-wave (km/s) = 3.58393 6.14475 5.03003
#
# Compressibility (1/GPa) = 0.03992578
#
# Stress axis : x y z
#
# Youngs Moduli (GPa) = 244.49563 36.65823 72.02564
#
# Poissons Ratio (x) = 0.11349 0.08813
# Poissons Ratio (y) = 0.75694 -0.11927
# Poissons Ratio (z) = 0.29916 -0.06070
#
# Static dielectric constant tensor:
#      x y z
#    x 2.158870 0.000000 0.000000 
#    y 0.000000 2.108260 0.000000 
#    z 0.000000 0.000000 1.915340 
# 
# From -- ./inp_files/13072.got.cif
#   From: 2010.05.17/outbox.cif.g08.bks.cpg/sg63_7_cif.got.tgz:13072.got - 2010.06.03 15:47:04.
