data_PCOD9468154
_publ_section_title
;
Structure prediction by ZEFSAII (Michael W. Deem and Ramdas Pophale) SiO2 
 PCOD9468154
Probable space group: C M C M
;
_chemical_formula_sum "Si O2"
_cell_formula_units_Z 96
_cell_length_a 14.357793
_cell_length_b 21.025007
_cell_length_c 19.355989
_cell_angle_alpha 90.000000
_cell_angle_beta 90.000000
_cell_angle_gamma 90.000000
_cell_volume 5843.044628
_symmetry_space_group_name_H-M "C M C M"
_symmetry_group_IT_number 63
_symmetry_cell_setting 'orthorhombic'
loop_
_space_group_symop_operation_xyz
x,y,z
-x,-y,1/2+z
x,-y,-z
-x,y,1/2-z
-x,-y,-z
x,y,1/2-z
-x,y,z
x,-y,1/2+z
1/2+x,1/2+y,z
1/2-x,1/2-y,1/2+z
1/2+x,1/2-y,-z
1/2-x,1/2+y,1/2-z
1/2-x,1/2-y,-z
1/2+x,1/2+y,1/2-z
1/2-x,1/2+y,z
1/2+x,1/2-y,1/2+z
loop_
_atom_site_type_symbol
_atom_site_label
_atom_site_fract_x
_atom_site_fract_y
_atom_site_fract_z
Si Si1 0.797180 0.189323 0.462837
Si Si2 0.795048 0.740183 0.330298
Si Si3 0.802269 0.374107 0.171340
Si Si4 0.500000 0.185329 0.330987
Si Si5 0.000000 0.624236 0.472076
Si Si6 0.194429 0.570046 0.526479
Si Si7 0.500000 0.803624 0.173690
Si Si8 0.000000 0.766672 0.534696
O O1 0.750000 0.250000 0.500000
O O2 0.766703 0.199285 0.383252
O O3 0.757616 0.124238 0.492051
O O4 0.905772 0.196022 0.478307
O O5 0.774378 0.725686 0.250000
O O6 0.766475 0.813930 0.340623
O O7 0.904404 0.725152 0.342015
O O8 0.788516 0.397310 0.250000
O O9 0.794199 0.423209 0.108996
O O10 0.906821 0.345337 0.166614
O O11 0.500000 0.165017 0.250000
O O12 0.500000 0.129850 0.388676
O O13 0.909600 0.589951 0.502614
O O14 0.000000 0.698138 0.496633
O O15 0.215384 0.500000 0.500000
O O16 0.500000 0.775317 0.250000
O O17 0.500000 0.751667 0.115102
#
# Coordination Sequence:
#
# PCOD9468154 Si02
#       8
#    16  16  16   8   8  16   8   8
#     4  12  20  36  57  83 113 145 193 237 288 339
#     4  10  18  31  54  82 114 146 185 241 289 335
#     4  10  19  34  54  80 111 145 187 235 286 341
#     4  10  20  31  50  85 120 147 182 234 293 343
#     4  12  19  35  58  82 112 150 189 236 286 344
#     4  12  24  38  55  83 118 157 195 233 286 346
#     4  10  16  27  52  85 115 135 176 239 295 340
#     4  12  20  31  60  88 110 140 190 243 292 334
#
# _framework density 16.429791000000002
#
# number of rings (size 3 to 8) (size 9 to 14) (size 15 to 20)
#    0.000    1.000    8.333    0.250    0.000    0.000 
#    0.000    2.083    0.000    0.000    0.000    0.000 
#    0.000    0.000    0.000    0.000    0.000    0.000 
#
# Total GULP energy -267821.607289 kJ/mol
# GULP energy per Si atom -5579.616819 kJ/mol
# Density = 1.639240 g / cm^3
# Si number density = 16.429791 Si / 1000 Ang^3
#
#
#
# Elastic Constant Matrix: (Units=GPa)
#
#
# Indices 1 2 3 4 5 6 
#
# 1 99.0513 38.9309 24.6467 0.0000 0.0000 0.0000
# 2 38.9309 98.9910 53.7886 0.0000 0.0000 0.0000
# 3 24.6467 53.7886 118.2341 0.0000 0.0000 0.0000
# 4 0.0000 0.0000 0.0000 21.3830 0.0000 0.0000
# 5 0.0000 0.0000 0.0000 0.0000 18.3276 0.0000
# 6 0.0000 0.0000 0.0000 0.0000 0.0000 5.9634
#
#
#
# Elastic Compliance Matrix: (Units=1/GPa)
#
#
# Indices 1 2 3 4 5 6 
#
# 1 0.011961 -0.004449 -0.000469 0.000000 0.000000 0.000000
# 2 -0.004449 0.015074 -0.005930 0.000000 0.000000 0.000000
# 3 -0.000469 -0.005930 0.011253 0.000000 0.000000 0.000000
# 4 0.000000 0.000000 0.000000 0.046766 0.000000 0.000000
# 5 0.000000 0.000000 0.000000 0.000000 0.054563 0.000000
# 6 0.000000 0.000000 0.000000 0.000000 0.000000 0.167690
#
#
# Mechanical properties :
#
#
# Convention : Reuss Voigt Hill
#
# Bulk Modulus (GPa) = 60.27220 61.22321 60.74770
# Shear Modulus (GPa) = 14.94611 22.39547 18.67079
#
# Velocity S-wave (km/s) = 3.01939 3.69603 3.37471
# Velocity P-wave (km/s) = 6.99428 7.45376 7.22767
#
# Compressibility (1/GPa) = 0.01659140
#
# Stress axis : x y z
#
# Youngs Moduli (GPa) = 83.60364 66.33985 88.86136
#
# Poissons Ratio (x) = 0.29515 0.04171
# Poissons Ratio (y) = 0.37195 0.52696
# Poissons Ratio (z) = 0.03924 0.39341
#
# Static dielectric constant tensor:
#      x y z
#    x 1.589440 0.000000 0.000000 
#    y 0.000000 1.505650 0.000000 
#    z 0.000000 0.000000 1.610840 
# 
# From -- ./inp_files/52969.got.cif
#   From: 2010.05.17/outbox.cif.g08.bks.cpg/sg63_27_cif.got.tgz:52969.got - 2010.06.03 15:47:04.
