data_PCOD9468213
_publ_section_title
;
Structure prediction by ZEFSAII (Michael W. Deem and Ramdas Pophale) SiO2 
 PCOD9468213
Probable space group: C M C M
;
_chemical_formula_sum "Si O2"
_cell_formula_units_Z 92
_cell_length_a 26.797235
_cell_length_b 7.831010
_cell_length_c 19.684151
_cell_angle_alpha 90.000000
_cell_angle_beta 90.000000
_cell_angle_gamma 90.000000
_cell_volume 4130.707577
_symmetry_space_group_name_H-M "C M C M"
_symmetry_group_IT_number 63
_symmetry_cell_setting 'orthorhombic'
loop_
_space_group_symop_operation_xyz
x,y,z
-x,-y,1/2+z
x,-y,-z
-x,y,1/2-z
-x,-y,-z
x,y,1/2-z
-x,y,z
x,-y,1/2+z
1/2+x,1/2+y,z
1/2-x,1/2-y,1/2+z
1/2+x,1/2-y,-z
1/2-x,1/2+y,1/2-z
1/2-x,1/2-y,-z
1/2+x,1/2+y,1/2-z
1/2-x,1/2+y,z
1/2+x,1/2-y,1/2+z
loop_
_atom_site_type_symbol
_atom_site_label
_atom_site_fract_x
_atom_site_fract_y
_atom_site_fract_z
Si Si1 0.942949 0.672880 0.750000
Si Si2 0.600769 0.979957 0.112779
Si Si3 0.894280 0.117836 0.066032
Si Si4 0.698049 0.025250 0.172458
Si Si5 0.000000 0.980334 0.398727
Si Si6 0.190857 0.115508 0.327612
Si Si7 0.000000 0.008922 0.750000
Si Si8 0.500000 0.129912 0.438671
O O1 0.913766 0.612240 0.683999
O O2 0.000000 0.602209 0.750000
O O3 0.953250 0.875941 0.750000
O O4 0.609130 0.824805 0.059196
O O5 0.651706 0.082663 0.126258
O O6 0.552431 0.091348 0.097271
O O7 0.852900 0.065325 0.121447
O O8 0.950036 0.086966 0.093602
O O9 0.887851 0.000000 0.000000
O O10 0.693728 0.092059 0.250000
O O11 0.692461 0.820861 0.174506
O O12 0.753948 0.062065 0.148706
O O13 0.000000 0.899820 0.322360
O O14 0.000000 0.829715 0.453455
O O15 0.183466 0.053289 0.250000
O O16 0.500000 0.000000 0.500000
#
# Coordination Sequence:
#
# PCOD9468213 Si02
#       8
#     8  16  16  16   8  16   4   8
#     4  10  16  33  64  84 108 145 195 246 279 340
#     4  11  20  37  63  81 111 158 199 233 283 360
#     4  11  22  39  61  85 111 158 204 235 281 355
#     4   9  18  34  58  83 108 142 189 239 293 339
#     4  12  24  36  59  86 123 147 185 251 303 334
#     4   9  20  36  59  84 114 147 188 242 292 340
#     4  10  20  34  56  94 116 138 184 260 296 328
#     4  12  26  41  52  82 127 165 191 235 298 355
#
# _framework density 22.272214000000002
#
# number of rings (size 3 to 8) (size 9 to 14) (size 15 to 20)
#    0.261    1.391    3.478    1.826    2.435    2.087 
#    0.000    4.348    0.000    0.000    0.000    0.000 
#    0.000    0.000    0.000    0.000    0.000    0.000 
#
# Total GULP energy -257024.414539 kJ/mol
# GULP energy per Si atom -5587.487273 kJ/mol
# Density = 2.222152 g / cm^3
# Si number density = 22.272214 Si / 1000 Ang^3
#
#
#
# Elastic Constant Matrix: (Units=GPa)
#
#
# Indices 1 2 3 4 5 6 
#
# 1 238.1607 23.9830 55.8416 0.0000 0.0000 0.0000
# 2 23.9830 33.2874 0.5065 0.0000 0.0000 0.0000
# 3 55.8416 0.5065 58.4365 0.0000 0.0000 0.0000
# 4 0.0000 0.0000 0.0000 14.7742 0.0000 0.0000
# 5 0.0000 0.0000 0.0000 0.0000 30.0221 0.0000
# 6 0.0000 0.0000 0.0000 0.0000 0.0000 31.4918
#
#
#
# Elastic Compliance Matrix: (Units=1/GPa)
#
#
# Indices 1 2 3 4 5 6 
#
# 1 0.005945 -0.004197 -0.005645 0.000000 0.000000 0.000000
# 2 -0.004197 0.033009 0.003725 0.000000 0.000000 0.000000
# 3 -0.005645 0.003725 0.022474 0.000000 0.000000 0.000000
# 4 0.000000 0.000000 0.000000 0.067685 0.000000 0.000000
# 5 0.000000 0.000000 0.000000 0.000000 0.033309 0.000000
# 6 0.000000 0.000000 0.000000 0.000000 0.000000 0.031754
#
#
# Mechanical properties :
#
#
# Convention : Reuss Voigt Hill
#
# Bulk Modulus (GPa) = 20.32768 54.50520 37.41644
# Shear Modulus (GPa) = 22.44074 31.89453 27.16763
#
# Velocity S-wave (km/s) = 3.17766 3.78833 3.49635
# Velocity P-wave (km/s) = 4.75501 6.60762 5.75633
#
# Compressibility (1/GPa) = 0.04919401
#
# Stress axis : x y z
#
# Youngs Moduli (GPa) = 168.20752 30.29484 44.49520
#
# Poissons Ratio (x) = 0.12716 0.25116
# Poissons Ratio (y) = 0.70604 -0.16574
# Poissons Ratio (z) = 0.94948 -0.11285
#
# Static dielectric constant tensor:
#      x y z
#    x 1.874150 0.000000 0.000000 
#    y 0.000000 1.819260 0.000000 
#    z 0.000000 0.000000 1.874790 
# 
# From -- ./inp_files/58154.got.cif
#   From: 2010.05.17/outbox.cif.g08.bks.cpg/sg63_30_cif.got.tgz:58154.got - 2010.06.03 15:47:04.
