data_PCOD9468525
_publ_section_title
;
Structure prediction by ZEFSAII (Michael W. Deem and Ramdas Pophale) SiO2 
 PCOD9468525
Probable space group: C M C M
;
_chemical_formula_sum "Si O2"
_cell_formula_units_Z 80
_cell_length_a 7.432765
_cell_length_b 27.353035
_cell_length_c 17.066187
_cell_angle_alpha 90.000000
_cell_angle_beta 90.000000
_cell_angle_gamma 90.000000
_cell_volume 3469.703972
_symmetry_space_group_name_H-M "C M C M"
_symmetry_group_IT_number 63
_symmetry_cell_setting 'orthorhombic'
loop_
_space_group_symop_operation_xyz
x,y,z
-x,-y,1/2+z
x,-y,-z
-x,y,1/2-z
-x,-y,-z
x,y,1/2-z
-x,y,z
x,-y,1/2+z
1/2+x,1/2+y,z
1/2-x,1/2-y,1/2+z
1/2+x,1/2-y,-z
1/2-x,1/2+y,1/2-z
1/2-x,1/2-y,-z
1/2+x,1/2+y,1/2-z
1/2-x,1/2+y,z
1/2+x,1/2-y,1/2+z
loop_
_atom_site_type_symbol
_atom_site_label
_atom_site_fract_x
_atom_site_fract_y
_atom_site_fract_z
Si Si1 0.795687 0.148188 0.629271
Si Si2 0.716369 0.440578 0.580405
Si Si3 0.780632 0.044764 0.896699
Si Si4 0.208589 0.336331 0.548043
Si Si5 0.280027 0.754634 0.664377
O O1 0.715744 0.094403 0.644654
O O2 0.801604 0.154297 0.534851
O O3 0.714402 0.198915 0.657966
O O4 0.000000 0.146860 0.659181
O O5 0.500000 0.439686 0.584385
O O6 0.765882 0.448663 0.488759
O O7 0.777033 0.489787 0.625129
O O8 0.780317 0.386131 0.598996
O O9 0.000000 0.045619 0.892183
O O10 0.281409 0.290222 0.595545
O O11 0.000000 0.327539 0.529511
O O12 0.233310 0.774284 0.750000
O O13 0.500000 0.753368 0.659192
#
# Coordination Sequence:
#
# PCOD9468525 Si02
#       5
#    16  16  16  16  16
#     4   9  16  29  49  67  85 112 145 179 216 257
#     4   8  13  24  41  61  88 116 140 168 208 257
#     4   7  11  21  40  64  85 108 138 173 212 250
#     4  10  18  27  43  68  93 113 140 179 215 250
#     4   9  18  31  46  64  86 114 148 182 214 253
#
# _framework density 23.056721
#
# number of rings (size 3 to 8) (size 9 to 14) (size 15 to 20)
#    0.000    3.400    0.000    3.600    0.000    0.000 
#    0.000    9.000    0.000    6.600    0.000    2.800 
#    0.000    0.000    0.000    0.000    0.000    1.000 
#
# Total GULP energy -222861.844044 kJ/mol
# GULP energy per Si atom -5571.546101 kJ/mol
# Density = 2.300424 g / cm^3
# Si number density = 23.056721 Si / 1000 Ang^3
#
#
#
# Elastic Constant Matrix: (Units=GPa)
#
#
# Indices 1 2 3 4 5 6 
#
# 1 77.0116 0.1641 1.8358 0.0000 0.0000 0.0000
# 2 0.1641 140.8082 34.1513 0.0000 0.0000 0.0000
# 3 1.8358 34.1513 48.7553 0.0000 0.0000 0.0000
# 4 0.0000 0.0000 0.0000 -5.1137 0.0000 0.0000
# 5 0.0000 0.0000 0.0000 0.0000 -3.1386 0.0000
# 6 0.0000 0.0000 0.0000 0.0000 0.0000 8.4961
#
#
#
# Elastic Compliance Matrix: (Units=1/GPa)
#
#
# Indices 1 2 3 4 5 6 
#
# 1 0.012999 0.000125 -0.000577 0.000000 0.000000 0.000000
# 2 0.000125 0.008557 -0.005998 0.000000 0.000000 0.000000
# 3 -0.000577 -0.005998 0.024734 0.000000 0.000000 0.000000
# 4 0.000000 0.000000 0.000000 -0.195555 0.000000 0.000000
# 5 0.000000 0.000000 0.000000 0.000000 -0.318611 0.000000
# 6 0.000000 0.000000 0.000000 0.000000 0.000000 0.117701
#
#
# Mechanical properties :
#
#
# Convention : Reuss Voigt Hill
#
# Bulk Modulus (GPa) = 29.95058 37.65303 33.80180
# Shear Modulus (GPa) = -15.33056 15.41036 0.03990
#
# Velocity S-wave (km/s) = -2.58138 2.58808 0.13169
# Velocity P-wave (km/s) = 2.03310 5.02961 3.83604
#
# Compressibility (1/GPa) = 0.03338834
#
# Stress axis : x y z
#
# Youngs Moduli (GPa) = 76.93168 116.87016 40.43041
#
# Poissons Ratio (x) = -0.01458 0.02332
# Poissons Ratio (y) = -0.00960 0.24251
# Poissons Ratio (z) = 0.04438 0.70101
#
# Static dielectric constant tensor:
#      x y z
#    x 1.883300 0.000000 0.000000 
#    y 0.000000 1.939960 0.000000 
#    z 0.000000 0.000000 1.855120 
# 
# From -- ./inp_files/40538.got.cif
#   From: 2010.05.17/outbox.cif.g08.bks.cpg/sg63_21_cif.got.tgz:40538.got - 2010.06.03 15:47:04.
