data_PCOD9468086
_publ_section_title
;
Structure prediction by ZEFSAII (Michael W. Deem and Ramdas Pophale) SiO2 
 PCOD9468086
Probable space group: C M C M
;
_chemical_formula_sum "Si O2"
_cell_formula_units_Z 96
_cell_length_a 27.570930
_cell_length_b 6.844781
_cell_length_c 21.851071
_cell_angle_alpha 90.000000
_cell_angle_beta 90.000000
_cell_angle_gamma 90.000000
_cell_volume 4123.668081
_symmetry_space_group_name_H-M "C M C M"
_symmetry_group_IT_number 63
_symmetry_cell_setting 'orthorhombic'
loop_
_space_group_symop_operation_xyz
x,y,z
-x,-y,1/2+z
x,-y,-z
-x,y,1/2-z
-x,-y,-z
x,y,1/2-z
-x,y,z
x,-y,1/2+z
1/2+x,1/2+y,z
1/2-x,1/2-y,1/2+z
1/2+x,1/2-y,-z
1/2-x,1/2+y,1/2-z
1/2-x,1/2-y,-z
1/2+x,1/2+y,1/2-z
1/2-x,1/2+y,z
1/2+x,1/2-y,1/2+z
loop_
_atom_site_type_symbol
_atom_site_label
_atom_site_fract_x
_atom_site_fract_y
_atom_site_fract_z
Si Si1 0.554479 0.713654 0.315739
Si Si2 0.189216 0.287288 0.452981
Si Si3 0.080664 0.270897 0.442264
Si Si4 0.556288 0.309165 0.424605
Si Si5 0.375904 0.336801 0.180066
Si Si6 0.293065 0.652540 0.915098
O O1 0.558944 0.818974 0.250000
O O2 0.500000 0.621371 0.314732
O O3 0.555541 0.831365 0.379088
O O4 0.598493 0.554293 0.316650
O O5 0.135244 0.348199 0.438216
O O6 0.234738 0.359957 0.413117
O O7 0.197665 0.297943 0.526755
O O8 0.188930 0.056834 0.437941
O O9 0.062937 0.301445 0.511344
O O10 0.074268 0.032857 0.436587
O O11 0.500000 0.312067 0.410385
O O12 0.588337 0.236328 0.368458
O O13 0.374184 0.267290 0.250000
O O14 0.323546 0.317393 0.146583
#
# Coordination Sequence:
#
# PCOD9468086 Si02
#       6
#    16  16  16  16  16  16
#     4   9  16  24  38  62  94 125 148 179 237 292
#     4  10  18  30  51  63  92 116 163 192 228 268
#     4  10  14  25  39  62  86 123 143 190 226 277
#     4  10  16  23  41  64  92 120 150 183 234 288
#     4  10  17  27  40  59  93 123 148 185 233 274
#     4  10  18  32  45  69  84 125 156 193 227 271
#
# _framework density 23.280245000000001
#
# number of rings (size 3 to 8) (size 9 to 14) (size 15 to 20)
#    0.000    2.167    5.000    4.500    0.000    1.000 
#    0.000    1.667    0.000    0.000    0.000    0.000 
#    0.000    9.333    0.000    5.333    1.000    0.000 
#
# Total GULP energy -267432.866726 kJ/mol
# GULP energy per Si atom -5571.518057 kJ/mol
# Density = 2.322726 g / cm^3
# Si number density = 23.280245 Si / 1000 Ang^3
#
#
#
# Elastic Constant Matrix: (Units=GPa)
#
#
# Indices 1 2 3 4 5 6 
#
# 1 180.0677 8.9306 76.7384 0.0000 0.0000 0.0000
# 2 8.9306 51.3276 9.5028 0.0000 0.0000 0.0000
# 3 76.7384 9.5028 266.4088 0.0000 0.0000 0.0000
# 4 0.0000 0.0000 0.0000 0.3484 0.0000 0.0000
# 5 0.0000 0.0000 0.0000 0.0000 26.0303 0.0000
# 6 0.0000 0.0000 0.0000 0.0000 0.0000 25.9950
#
#
#
# Elastic Compliance Matrix: (Units=1/GPa)
#
#
# Indices 1 2 3 4 5 6 
#
# 1 0.006361 -0.000773 -0.001805 0.000000 0.000000 0.000000
# 2 -0.000773 0.019706 -0.000480 0.000000 0.000000 0.000000
# 3 -0.001805 -0.000480 0.004291 0.000000 0.000000 0.000000
# 4 0.000000 0.000000 0.000000 2.870042 0.000000 0.000000
# 5 0.000000 0.000000 0.000000 0.000000 0.038417 0.000000
# 6 0.000000 0.000000 0.000000 0.000000 0.000000 0.038469
#
#
# Mechanical properties :
#
#
# Convention : Reuss Voigt Hill
#
# Bulk Modulus (GPa) = 41.25038 76.46084 58.85561
# Shear Modulus (GPa) = 1.67141 37.31689 19.49415
#
# Velocity S-wave (km/s) = 0.84824 4.00802 2.89687
# Velocity P-wave (km/s) = 4.32630 7.37115 6.04362
#
# Compressibility (1/GPa) = 0.02424220
#
# Stress axis : x y z
#
# Youngs Moduli (GPa) = 157.21110 50.74584 233.06783
#
# Poissons Ratio (x) = 0.03921 0.42061
# Poissons Ratio (y) = 0.12147 0.11196
# Poissons Ratio (z) = 0.28371 0.02438
#
# Static dielectric constant tensor:
#      x y z
#    x 1.859210 0.000000 0.000000 
#    y 0.000000 1.995550 0.000000 
#    z 0.000000 0.000000 1.906680 
# 
# From -- ./inp_files/65062.got.cif
#   From: 2010.05.17/outbox.cif.g08.bks.cpg/sg63_33_cif.got.tgz:65062.got - 2010.06.03 15:47:04.
