data_PCOD9468535
_publ_section_title
;
Structure prediction by ZEFSAII (Michael W. Deem and Ramdas Pophale) SiO2 
 PCOD9468535
Probable space group: C M C M
;
_chemical_formula_sum "Si O2"
_cell_formula_units_Z 80
_cell_length_a 7.269897
_cell_length_b 32.761860
_cell_length_c 13.612275
_cell_angle_alpha 90.000000
_cell_angle_beta 90.000000
_cell_angle_gamma 90.000000
_cell_volume 3242.108331
_symmetry_space_group_name_H-M "C M C M"
_symmetry_group_IT_number 63
_symmetry_cell_setting 'orthorhombic'
loop_
_space_group_symop_operation_xyz
x,y,z
-x,-y,1/2+z
x,-y,-z
-x,y,1/2-z
-x,-y,-z
x,y,1/2-z
-x,y,z
x,-y,1/2+z
1/2+x,1/2+y,z
1/2-x,1/2-y,1/2+z
1/2+x,1/2-y,-z
1/2-x,1/2+y,1/2-z
1/2-x,1/2-y,-z
1/2+x,1/2+y,1/2-z
1/2-x,1/2+y,z
1/2+x,1/2-y,1/2+z
loop_
_atom_site_type_symbol
_atom_site_label
_atom_site_fract_x
_atom_site_fract_y
_atom_site_fract_z
Si Si1 0.285734 0.267764 0.867567
Si Si2 0.276629 0.471826 0.356419
Si Si3 0.777229 0.676859 0.862214
Si Si4 0.275463 0.440843 0.932263
Si Si5 0.289555 0.646650 0.434653
O O1 0.279403 0.269530 0.750000
O O2 0.500000 0.266708 0.897827
O O3 0.212435 0.222740 0.891797
O O4 0.203322 0.310049 0.905521
O O5 0.215449 0.456323 0.250000
O O6 0.500000 0.470617 0.357341
O O7 0.216982 0.449159 0.455161
O O8 0.223779 0.519377 0.370539
O O9 0.719692 0.668369 0.750000
O O10 0.711729 0.646695 0.946640
O O11 0.000000 0.677058 0.862266
O O12 0.500000 0.439662 0.931763
O O13 0.211466 0.396300 0.899174
O O14 0.500000 0.648356 0.398305
#
# Coordination Sequence:
#
# PCOD9468535 Si02
#       5
#    16  16  16  16  16
#     4   8  15  28  44  62  86 116 147 177 212 254
#     4   8  13  23  37  51  77 116 142 159 197 253
#     4   9  18  32  46  59  82 119 153 175 206 259
#     4   8  15  24  34  57  86 106 133 170 207 249
#     4  10  18  27  44  69  91 109 137 184 226 247
#
# _framework density 24.6753
#
# number of rings (size 3 to 8) (size 9 to 14) (size 15 to 20)
#    0.000    3.400    0.000    3.000    0.000    2.000 
#    0.000    6.000    0.000    1.800    0.000    2.800 
#    0.000    1.600    0.000    0.000    0.000    0.000 
#
# Total GULP energy -223304.439812 kJ/mol
# GULP energy per Si atom -5582.610995 kJ/mol
# Density = 2.461914 g / cm^3
# Si number density = 24.675300 Si / 1000 Ang^3
#
#
#
# Elastic Constant Matrix: (Units=GPa)
#
#
# Indices 1 2 3 4 5 6 
#
# 1 110.7710 -3.7158 -2.0862 0.0000 0.0000 0.0000
# 2 -3.7158 64.6688 -16.6321 0.0000 0.0000 0.0000
# 3 -2.0862 -16.6321 44.5505 0.0000 0.0000 0.0000
# 4 0.0000 0.0000 0.0000 4.2059 0.0000 0.0000
# 5 0.0000 0.0000 0.0000 0.0000 1.9695 0.0000
# 6 0.0000 0.0000 0.0000 0.0000 0.0000 -15.0981
#
#
#
# Elastic Compliance Matrix: (Units=1/GPa)
#
#
# Indices 1 2 3 4 5 6 
#
# 1 0.009064 0.000697 0.000685 0.000000 0.000000 0.000000
# 2 0.000697 0.017159 0.006439 0.000000 0.000000 0.000000
# 3 0.000685 0.006439 0.024882 0.000000 0.000000 0.000000
# 4 0.000000 0.000000 0.000000 0.237762 0.000000 0.000000
# 5 0.000000 0.000000 0.000000 0.000000 0.507755 0.000000
# 6 0.000000 0.000000 0.000000 0.000000 0.000000 -0.066234
#
#
# Mechanical properties :
#
#
# Convention : Reuss Voigt Hill
#
# Bulk Modulus (GPa) = 14.98215 19.45802 17.22008
# Shear Modulus (GPa) = 6.78428 14.37708 10.58068
#
# Velocity S-wave (km/s) = 1.65994 2.41643 2.07299
# Velocity P-wave (km/s) = 3.12390 3.96084 3.56700
#
# Compressibility (1/GPa) = 0.06674610
#
# Stress axis : x y z
#
# Youngs Moduli (GPa) = 110.32773 58.27701 40.18926
#
# Poissons Ratio (x) = -0.04061 -0.02751
# Poissons Ratio (y) = -0.07689 -0.25877
# Poissons Ratio (z) = -0.07553 -0.37523
#
# Static dielectric constant tensor:
#      x y z
#    x 1.967710 0.000000 0.000000 
#    y 0.000000 1.947660 0.000000 
#    z 0.000000 0.000000 1.938970 
# 
# From -- ./inp_files/29998.got.cif
#   From: 2010.05.17/outbox.cif.g08.bks.cpg/sg63_15_cif.got.tgz:29998.got - 2010.06.03 15:47:04.
