data_PCOD9468996
_publ_section_title
;
Structure prediction by ZEFSAII (Michael W. Deem and Ramdas Pophale) SiO2 
 PCOD9468996
Probable space group: C M C M
;
_chemical_formula_sum "Si O2"
_cell_formula_units_Z 128
_cell_length_a 18.027964
_cell_length_b 24.935904
_cell_length_c 17.639096
_cell_angle_alpha 90.000000
_cell_angle_beta 90.000000
_cell_angle_gamma 90.000000
_cell_volume 7929.542357
_symmetry_space_group_name_H-M "C M C M"
_symmetry_group_IT_number 63
_symmetry_cell_setting 'orthorhombic'
loop_
_space_group_symop_operation_xyz
x,y,z
-x,-y,1/2+z
x,-y,-z
-x,y,1/2-z
-x,-y,-z
x,y,1/2-z
-x,y,z
x,-y,1/2+z
1/2+x,1/2+y,z
1/2-x,1/2-y,1/2+z
1/2+x,1/2-y,-z
1/2-x,1/2+y,1/2-z
1/2-x,1/2-y,-z
1/2+x,1/2+y,1/2-z
1/2-x,1/2+y,z
1/2+x,1/2-y,1/2+z
loop_
_atom_site_type_symbol
_atom_site_label
_atom_site_fract_x
_atom_site_fract_y
_atom_site_fract_z
Si Si1 0.280078 0.128616 0.514879
Si Si2 0.588030 0.395120 0.839974
Si Si3 0.135503 0.182232 0.036914
Si Si4 0.414277 0.370935 0.114576
Si Si5 0.225429 0.069843 0.661152
Si Si6 0.205217 0.032865 0.074398
Si Si7 0.588147 0.201461 0.013898
Si Si8 0.910135 0.246763 0.831482
O O1 0.221197 0.173894 0.487096
O O2 0.263540 0.109954 0.600866
O O3 0.259808 0.078483 0.459843
O O4 0.361850 0.152207 0.511201
O O5 0.601883 0.395187 0.750000
O O6 0.500000 0.401987 0.852029
O O7 0.615324 0.340836 0.881277
O O8 0.637268 0.439747 0.882139
O O9 0.108014 0.242740 0.027916
O O10 0.095206 0.143406 0.974508
O O11 0.500000 0.380846 0.131506
O O12 0.361455 0.417440 0.144467
O O13 0.389162 0.314910 0.153289
O O14 0.241360 0.077051 0.750000
O O15 0.241574 0.009974 0.631330
O O16 0.179645 0.000000 0.000000
O O17 0.500000 0.192454 0.009230
O O18 0.610975 0.215140 0.100347
O O19 0.882667 0.264466 0.750000
O O20 0.000000 0.245997 0.831589
#
# Coordination Sequence:
#
# PCOD9468996 Si02
#       8
#    16  16  16  16  16  16  16  16
#     4   9  19  34  50  70  96 125 157 193 231 280
#     4  10  19  30  45  68 100 133 164 196 224 262
#     4   9  17  31  48  68  98 133 161 181 221 284
#     4   9  16  26  44  70  98 127 158 192 232 281
#     4  10  19  31  48  68  93 124 157 198 242 281
#     4   9  19  34  50  65  87 122 162 201 247 292
#     4  10  18  30  52  75  94 123 160 194 231 277
#     4   8  14  25  41  66  99 124 143 179 233 283
#
# _framework density 16.142167000000001
#
# number of rings (size 3 to 8) (size 9 to 14) (size 15 to 20)
#    0.000    2.750    0.000    3.750    0.000    1.500 
#    0.000    3.750    0.000    4.500    0.000    0.000 
#    0.000    0.000    0.000    0.000    0.000    0.000 
#
# Total GULP energy -356389.094557 kJ/mol
# GULP energy per Si atom -5568.579602 kJ/mol
# Density = 1.610543 g / cm^3
# Si number density = 16.142167 Si / 1000 Ang^3
#
#
#
# Elastic Constant Matrix: (Units=GPa)
#
#
# Indices 1 2 3 4 5 6 
#
# 1 75.3870 46.4163 36.2458 0.0000 0.0000 0.0000
# 2 46.4163 60.3700 46.9822 0.0000 0.0000 0.0000
# 3 36.2458 46.9822 105.5222 0.0000 0.0000 0.0000
# 4 0.0000 0.0000 0.0000 5.9320 0.0000 0.0000
# 5 0.0000 0.0000 0.0000 0.0000 12.0118 0.0000
# 6 0.0000 0.0000 0.0000 0.0000 0.0000 10.9792
#
#
#
# Elastic Compliance Matrix: (Units=1/GPa)
#
#
# Indices 1 2 3 4 5 6 
#
# 1 0.025190 -0.019332 -0.000045 0.000000 0.000000 0.000000
# 2 -0.019332 0.040185 -0.011251 0.000000 0.000000 0.000000
# 3 -0.000045 -0.011251 0.014501 0.000000 0.000000 0.000000
# 4 0.000000 0.000000 0.000000 0.168578 0.000000 0.000000
# 5 0.000000 0.000000 0.000000 0.000000 0.083251 0.000000
# 6 0.000000 0.000000 0.000000 0.000000 0.000000 0.091081
#
#
# Mechanical properties :
#
#
# Convention : Reuss Voigt Hill
#
# Bulk Modulus (GPa) = 53.70915 55.61865 54.66390
# Shear Modulus (GPa) = 10.19889 13.22693 11.71291
#
# Velocity S-wave (km/s) = 2.51632 2.86563 2.69664
# Velocity P-wave (km/s) = 6.46431 6.74384 6.60555
#
# Compressibility (1/GPa) = 0.01861880
#
# Stress axis : x y z
#
# Youngs Moduli (GPa) = 39.69899 24.88521 68.95848
#
# Poissons Ratio (x) = 0.48109 0.00309
# Poissons Ratio (y) = 0.76748 0.77586
# Poissons Ratio (z) = 0.00178 0.27999
#
# Static dielectric constant tensor:
#      x y z
#    x 1.533420 0.000000 0.000000 
#    y 0.000000 1.557310 0.000000 
#    z 0.000000 0.000000 1.578660 
# 
# From -- ./inp_files/46353.got.cif
#   From: 2010.05.17/outbox.cif.g08.bks.cpg/sg63_24_cif.got.tgz:46353.got - 2010.06.03 15:47:04.
