data_PCOD9468766
_publ_section_title
;
Structure prediction by ZEFSAII (Michael W. Deem and Ramdas Pophale) SiO2 
 PCOD9468766
Probable space group: C M C M
;
_chemical_formula_sum "Si O2"
_cell_formula_units_Z 80
_cell_length_a 21.722511
_cell_length_b 12.926606
_cell_length_c 16.603797
_cell_angle_alpha 90.000000
_cell_angle_beta 90.000000
_cell_angle_gamma 90.000000
_cell_volume 4662.318652
_symmetry_space_group_name_H-M "C M C M"
_symmetry_group_IT_number 63
_symmetry_cell_setting 'orthorhombic'
loop_
_space_group_symop_operation_xyz
x,y,z
-x,-y,1/2+z
x,-y,-z
-x,y,1/2-z
-x,-y,-z
x,y,1/2-z
-x,y,z
x,-y,1/2+z
1/2+x,1/2+y,z
1/2-x,1/2-y,1/2+z
1/2+x,1/2-y,-z
1/2-x,1/2+y,1/2-z
1/2-x,1/2-y,-z
1/2+x,1/2+y,1/2-z
1/2-x,1/2+y,z
1/2+x,1/2-y,1/2+z
loop_
_atom_site_type_symbol
_atom_site_label
_atom_site_fract_x
_atom_site_fract_y
_atom_site_fract_z
Si Si1 0.700459 0.631852 0.917662
Si Si2 0.798954 0.904214 0.608683
Si Si3 0.338722 0.159062 0.345878
Si Si4 0.668366 0.188244 0.656410
Si Si5 0.929949 0.521665 0.848208
O O1 0.681810 0.522553 0.878186
O O2 0.661610 0.730385 0.889364
O O3 0.770872 0.656076 0.892503
O O4 0.698760 0.617783 0.013283
O O5 0.728236 0.891124 0.637115
O O6 0.837208 0.811822 0.648820
O O7 0.343737 0.174893 0.250000
O O8 0.391259 0.079470 0.372935
O O9 0.680104 0.162364 0.750000
O O10 0.609832 0.122339 0.628748
O O11 0.931642 0.520440 0.750000
O O12 0.000000 0.522637 0.877241
#
# Coordination Sequence:
#
# PCOD9468766 Si02
#       5
#    16  16  16  16  16
#     4  10  19  30  46  68  99 129 152 192 242 286
#     4  10  19  30  46  68  99 129 152 192 242 286
#     4  10  18  29  48  71  95 123 159 197 234 283
#     4  10  18  29  48  71  95 123 159 197 234 283
#     4   9  18  32  49  71  99 127 156 197 242 279
#
# _framework density 17.158843999999998
#
# number of rings (size 3 to 8) (size 9 to 14) (size 15 to 20)
#    0.000    2.200    2.000    4.800    0.000    2.400 
#    0.000    0.000    0.000   10.800    0.000    8.400 
#    0.000    0.000    0.000    0.000    0.000    0.000 
#
# Total GULP energy -223071.993122 kJ/mol
# GULP energy per Si atom -5576.799828 kJ/mol
# Density = 1.711979 g / cm^3
# Si number density = 17.158844 Si / 1000 Ang^3
#
#
#
# Elastic Constant Matrix: (Units=GPa)
#
#
# Indices 1 2 3 4 5 6 
#
# 1 96.8301 63.6822 5.2531 0.0000 0.0000 0.0000
# 2 63.6822 135.7369 -0.1288 0.0000 0.0000 0.0000
# 3 5.2531 -0.1288 20.5221 0.0000 0.0000 0.0000
# 4 0.0000 0.0000 0.0000 24.1384 0.0000 0.0000
# 5 0.0000 0.0000 0.0000 0.0000 -30.5593 0.0000
# 6 0.0000 0.0000 0.0000 0.0000 0.0000 19.5595
#
#
#
# Elastic Compliance Matrix: (Units=1/GPa)
#
#
# Indices 1 2 3 4 5 6 
#
# 1 0.015249 -0.007158 -0.003948 0.000000 0.000000 0.000000
# 2 -0.007158 0.010727 0.001900 0.000000 0.000000 0.000000
# 3 -0.003948 0.001900 0.049751 0.000000 0.000000 0.000000
# 4 0.000000 0.000000 0.000000 0.041428 0.000000 0.000000
# 5 0.000000 0.000000 0.000000 0.000000 -0.032723 0.000000
# 6 0.000000 0.000000 0.000000 0.000000 0.000000 0.051126
#
#
# Mechanical properties :
#
#
# Convention : Reuss Voigt Hill
#
# Bulk Modulus (GPa) = 17.44792 43.41137 30.42964
# Shear Modulus (GPa) = 28.88913 14.91324 21.90119
#
# Velocity S-wave (km/s) = 4.10766 2.95130 3.57652
# Velocity P-wave (km/s) = 5.71731 6.08014 5.90152
#
# Compressibility (1/GPa) = 0.05731344
#
# Stress axis : x y z
#
# Youngs Moduli (GPa) = 65.57724 93.22042 20.10029
#
# Poissons Ratio (x) = 0.66728 0.07936
# Poissons Ratio (y) = 0.46941 -0.03818
# Poissons Ratio (z) = 0.25892 -0.17708
#
# Static dielectric constant tensor:
#      x y z
#    x 1.544000 0.000000 0.000000 
#    y 0.000000 1.627120 0.000000 
#    z 0.000000 0.000000 1.603860 
# 
# From -- ./inp_files/35107.got.cif
#   From: 2010.05.17/outbox.cif.g08.bks.cpg/sg63_18_cif.got.tgz:35107.got - 2010.06.03 15:47:04.
