data_PCOD9468926
_publ_section_title
;
Structure prediction by ZEFSAII (Michael W. Deem and Ramdas Pophale) SiO2 
 PCOD9468926
Probable space group: C M C M
;
_chemical_formula_sum "Si O2"
_cell_formula_units_Z 80
_cell_length_a 26.852911
_cell_length_b 20.024877
_cell_length_c 8.149508
_cell_angle_alpha 90.000000
_cell_angle_beta 90.000000
_cell_angle_gamma 90.000000
_cell_volume 4382.204294
_symmetry_space_group_name_H-M "C M C M"
_symmetry_group_IT_number 63
_symmetry_cell_setting 'orthorhombic'
loop_
_space_group_symop_operation_xyz
x,y,z
-x,-y,1/2+z
x,-y,-z
-x,y,1/2-z
-x,-y,-z
x,y,1/2-z
-x,y,z
x,-y,1/2+z
1/2+x,1/2+y,z
1/2-x,1/2-y,1/2+z
1/2+x,1/2-y,-z
1/2-x,1/2+y,1/2-z
1/2-x,1/2-y,-z
1/2+x,1/2+y,1/2-z
1/2-x,1/2+y,z
1/2+x,1/2-y,1/2+z
loop_
_atom_site_type_symbol
_atom_site_label
_atom_site_fract_x
_atom_site_fract_y
_atom_site_fract_z
Si Si1 0.000000 0.187712 0.939083
Si Si2 0.000000 0.664197 0.560133
Si Si3 0.895775 0.173757 0.054860
Si Si4 0.696354 0.924258 0.448105
Si Si5 0.891687 0.671894 0.951215
Si Si6 0.808970 0.075837 0.946436
O O1 0.000000 0.208870 0.750000
O O2 0.948325 0.151232 0.977261
O O3 0.000000 0.254799 0.049339
O O4 0.945905 0.645573 0.490201
O O5 0.000000 0.643277 0.750000
O O6 0.902015 0.174603 0.250000
O O7 0.886456 0.250512 0.999677
O O8 0.850077 0.126622 0.010725
O O9 0.696629 0.921753 0.250000
O O10 0.654177 0.873253 0.506807
O O11 0.752613 0.908061 0.504941
O O12 0.685240 0.000000 0.500000
O O13 0.892628 0.670928 0.750000
O O14 0.809112 0.078500 0.750000
O O15 0.819792 0.000000 0.000000
#
# Coordination Sequence:
#
# PCOD9468926 Si02
#       6
#     8   8  16  16  16  16
#     4  10  18  30  49  74 103 130 158 196 242 288
#     4   8  14  28  49  70  96 132 167 198 243 296
#     4  10  19  33  53  75  99 129 164 200 242 292
#     4   9  18  33  50  69  97 132 168 204 246 294
#     4   8  15  29  50  73  97 129 166 202 242 292
#     4  10  20  34  51  71  97 130 165 203 247 293
#
# _framework density 18.255652999999999
#
# number of rings (size 3 to 8) (size 9 to 14) (size 15 to 20)
#    0.000    2.800    0.000    3.300    0.000    1.600 
#    0.000    6.000    0.000    0.000    0.000    0.000 
#    0.000    0.000    0.000    0.000    0.000    0.000 
#
# Total GULP energy -222878.032590 kJ/mol
# GULP energy per Si atom -5571.950815 kJ/mol
# Density = 1.821410 g / cm^3
# Si number density = 18.255653 Si / 1000 Ang^3
#
#
#
# Elastic Constant Matrix: (Units=GPa)
#
#
# Indices 1 2 3 4 5 6 
#
# 1 196.0353 102.8017 18.1732 0.0000 0.0000 0.0000
# 2 102.8017 75.7894 11.2326 0.0000 0.0000 0.0000
# 3 18.1732 11.2326 29.2289 0.0000 0.0000 0.0000
# 4 0.0000 0.0000 0.0000 16.0462 0.0000 0.0000
# 5 0.0000 0.0000 0.0000 0.0000 13.3957 0.0000
# 6 0.0000 0.0000 0.0000 0.0000 0.0000 -31.0005
#
#
#
# Elastic Compliance Matrix: (Units=1/GPa)
#
#
# Indices 1 2 3 4 5 6 
#
# 1 0.017768 -0.023820 -0.001893 0.000000 0.000000 0.000000
# 2 -0.023820 0.045925 -0.002839 0.000000 0.000000 0.000000
# 3 -0.001893 -0.002839 0.036481 0.000000 0.000000 0.000000
# 4 0.000000 0.000000 0.000000 0.062320 0.000000 0.000000
# 5 0.000000 0.000000 0.000000 0.000000 0.074651 0.000000
# 6 0.000000 0.000000 0.000000 0.000000 0.000000 -0.032258
#
#
# Mechanical properties :
#
#
# Convention : Reuss Voigt Hill
#
# Bulk Modulus (GPa) = 23.21823 62.82985 43.02404
# Shear Modulus (GPa) = 18.09317 10.94471 14.51894
#
# Velocity S-wave (km/s) = 3.15159 2.45118 2.82319
# Velocity P-wave (km/s) = 5.09797 6.51939 5.85200
#
# Compressibility (1/GPa) = 0.04306960
#
# Stress axis : x y z
#
# Youngs Moduli (GPa) = 56.28100 21.77462 27.41175
#
# Poissons Ratio (x) = 0.51867 0.05190
# Poissons Ratio (y) = 1.34062 0.07781
# Poissons Ratio (z) = 0.10655 0.06181
#
# Static dielectric constant tensor:
#      x y z
#    x 1.668580 0.000000 0.000000 
#    y 0.000000 1.593020 0.000000 
#    z 0.000000 0.000000 1.639430 
# 
# From -- ./inp_files/12123.got.cif
#   From: 2010.05.17/outbox.cif.g08.bks.cpg/sg63_7_cif.got.tgz:12123.got - 2010.06.03 15:47:04.
