data_PCOD9468456
_publ_section_title
;
Structure prediction by ZEFSAII (Michael W. Deem and Ramdas Pophale) SiO2 
 PCOD9468456
Probable space group: C M C M
;
_chemical_formula_sum "Si O2"
_cell_formula_units_Z 80
_cell_length_a 17.408382
_cell_length_b 8.749722
_cell_length_c 29.305899
_cell_angle_alpha 90.000000
_cell_angle_beta 90.000000
_cell_angle_gamma 90.000000
_cell_volume 4463.830664
_symmetry_space_group_name_H-M "C M C M"
_symmetry_group_IT_number 63
_symmetry_cell_setting 'orthorhombic'
loop_
_space_group_symop_operation_xyz
x,y,z
-x,-y,1/2+z
x,-y,-z
-x,y,1/2-z
-x,-y,-z
x,y,1/2-z
-x,y,z
x,-y,1/2+z
1/2+x,1/2+y,z
1/2-x,1/2-y,1/2+z
1/2+x,1/2-y,-z
1/2-x,1/2+y,1/2-z
1/2-x,1/2-y,-z
1/2+x,1/2+y,1/2-z
1/2-x,1/2+y,z
1/2+x,1/2-y,1/2+z
loop_
_atom_site_type_symbol
_atom_site_label
_atom_site_fract_x
_atom_site_fract_y
_atom_site_fract_z
Si Si1 0.414132 0.261091 0.104915
Si Si2 0.645218 0.611023 0.700241
Si Si3 0.713248 0.306257 0.668901
Si Si4 0.285805 0.374393 0.033501
Si Si5 0.825637 0.474937 0.110481
O O1 0.500000 0.298055 0.089889
O O2 0.399288 0.333142 0.155105
O O3 0.348660 0.319103 0.070086
O O4 0.400739 0.078560 0.107704
O O5 0.610125 0.642160 0.750000
O O6 0.662891 0.430253 0.695466
O O7 0.725854 0.705335 0.697366
O O8 0.764794 0.414251 0.636242
O O9 0.667928 0.182235 0.638591
O O10 0.214341 0.439605 0.062546
O O11 0.320925 0.500000 0.000000
O O12 0.250000 0.250000 0.000000
#
# Coordination Sequence:
#
# PCOD9468456 Si02
#       5
#    16  16  16  16  16
#     4  11  24  40  58  87 125 154 193 250 301 348
#     4  10  19  33  58  88 120 154 195 240 293 349
#     4   9  16  31  58  85 116 147 196 245 277 332
#     4  12  21  36  65  87 110 156 199 239 290 355
#     4  10  17  36  58  84 116 153 194 235 289 344
#
# _framework density 17.921827
#
# number of rings (size 3 to 8) (size 9 to 14) (size 15 to 20)
#    0.000    1.600    8.000    0.600    0.000    0.800 
#    0.000    4.000    0.000    0.000    0.000    0.000 
#    0.000    0.000    0.000    0.000    0.000    0.000 
#
# Total GULP energy -222828.480674 kJ/mol
# GULP energy per Si atom -5570.712017 kJ/mol
# Density = 1.788104 g / cm^3
# Si number density = 17.921827 Si / 1000 Ang^3
#
#
#
# Elastic Constant Matrix: (Units=GPa)
#
#
# Indices 1 2 3 4 5 6 
#
# 1 57.6654 17.3637 26.8669 0.0000 0.0000 0.0000
# 2 17.3637 110.2332 43.6652 0.0000 0.0000 0.0000
# 3 26.8669 43.6652 125.6464 0.0000 0.0000 0.0000
# 4 0.0000 0.0000 0.0000 17.9556 0.0000 0.0000
# 5 0.0000 0.0000 0.0000 0.0000 6.2329 0.0000
# 6 0.0000 0.0000 0.0000 0.0000 0.0000 8.8087
#
#
#
# Elastic Compliance Matrix: (Units=1/GPa)
#
#
# Indices 1 2 3 4 5 6 
#
# 1 0.019515 -0.001648 -0.003600 0.000000 0.000000 0.000000
# 2 -0.001648 0.010659 -0.003352 0.000000 0.000000 0.000000
# 3 -0.003600 -0.003352 0.009894 0.000000 0.000000 0.000000
# 4 0.000000 0.000000 0.000000 0.055693 0.000000 0.000000
# 5 0.000000 0.000000 0.000000 0.000000 0.160440 0.000000
# 6 0.000000 0.000000 0.000000 0.000000 0.000000 0.113525
#
#
# Mechanical properties :
#
#
# Convention : Reuss Voigt Hill
#
# Bulk Modulus (GPa) = 43.73002 52.14852 47.93927
# Shear Modulus (GPa) = 12.67275 20.30937 16.49106
#
# Velocity S-wave (km/s) = 2.66204 3.36999 3.03672
# Velocity P-wave (km/s) = 5.82254 6.65608 6.25321
#
# Compressibility (1/GPa) = 0.02286759
#
# Stress axis : x y z
#
# Youngs Moduli (GPa) = 51.24262 93.81754 101.07603
#
# Poissons Ratio (x) = 0.15460 0.36390
# Poissons Ratio (y) = 0.08444 0.33880
# Poissons Ratio (z) = 0.18448 0.31447
#
# Static dielectric constant tensor:
#      x y z
#    x 1.596170 0.000000 0.000000 
#    y 0.000000 1.676700 0.000000 
#    z 0.000000 0.000000 1.655320 
# 
# From -- ./inp_files/73718.got.cif
#   From: 2010.05.17/outbox.cif.g08.bks.cpg/sg63_37_cif.got.tgz:73718.got - 2010.06.03 15:47:04.
