data_PCOD9468472
_publ_section_title
;
Structure prediction by ZEFSAII (Michael W. Deem and Ramdas Pophale) SiO2 
 PCOD9468472
Probable space group: C M C M
;
_chemical_formula_sum "Si O2"
_cell_formula_units_Z 72
_cell_length_a 5.710322
_cell_length_b 19.673560
_cell_length_c 27.078401
_cell_angle_alpha 90.000000
_cell_angle_beta 90.000000
_cell_angle_gamma 90.000000
_cell_volume 3042.051541
_symmetry_space_group_name_H-M "C M C M"
_symmetry_group_IT_number 63
_symmetry_cell_setting 'orthorhombic'
loop_
_space_group_symop_operation_xyz
x,y,z
-x,-y,1/2+z
x,-y,-z
-x,y,1/2-z
-x,-y,-z
x,y,1/2-z
-x,y,z
x,-y,1/2+z
1/2+x,1/2+y,z
1/2-x,1/2-y,1/2+z
1/2+x,1/2-y,-z
1/2-x,1/2+y,1/2-z
1/2-x,1/2-y,-z
1/2+x,1/2+y,1/2-z
1/2-x,1/2+y,z
1/2+x,1/2-y,1/2+z
loop_
_atom_site_type_symbol
_atom_site_label
_atom_site_fract_x
_atom_site_fract_y
_atom_site_fract_z
Si Si1 0.000000 0.281016 0.190107
Si Si2 0.500000 0.065708 0.849083
Si Si3 0.500000 0.558971 0.808044
Si Si4 0.000000 0.224188 0.691749
Si Si5 0.750596 0.759302 0.440970
Si Si6 0.000000 0.490250 0.942196
Si Si7 0.250404 0.117179 0.116018
O O1 0.000000 0.358932 0.173244
O O2 0.751955 0.250719 0.172795
O O3 0.000000 0.280304 0.250000
O O4 0.750008 0.035388 0.830378
O O5 0.500000 0.056587 0.907914
O O6 0.500000 0.544088 0.750000
O O7 0.500000 0.642021 0.813207
O O8 0.000000 0.239093 0.750000
O O9 0.500000 0.791194 0.426981
O O10 0.750000 0.750000 0.500000
O O11 0.751278 0.684186 0.417996
O O12 0.000000 0.793146 0.426621
O O13 0.783424 0.444580 0.922846
O O14 0.000000 0.500000 0.000000
O O15 0.500000 0.115806 0.144692
O O16 0.000000 0.112390 0.142216
#
# Coordination Sequence:
#
# PCOD9468472 Si02
#       7
#     8   8   8   8  16   8  16
#     4   8  12  20  32  46  60  72  95 141 186 220
#     4  10  18  26  40  56  70  97 128 158 201 236
#     4   9  16  28  43  59  72  81 109 168 219 251
#     4   7  10  16  28  43  59  72  81 109 168 219
#     4   8  12  20  36  55  69  83 111 159 210 244
#     4  10  22  32  40  52  79 116 152 176 182 212
#     4   8  16  28  39  50  69  97 131 172 205 216
#
# _framework density 23.668240000000001
#
# number of rings (size 3 to 8) (size 9 to 14) (size 15 to 20)
#    0.667    2.889    0.000    2.333    1.556    0.444 
#    0.000    0.000    0.000    0.000    0.000    0.000 
#    0.000    0.000    0.000    0.000    0.000    0.000 
#
# Total GULP energy -200552.241256 kJ/mol
# GULP energy per Si atom -5570.895590 kJ/mol
# Density = 2.361437 g / cm^3
# Si number density = 23.668240 Si / 1000 Ang^3
#
#
#
# Elastic Constant Matrix: (Units=GPa)
#
#
# Indices 1 2 3 4 5 6 
#
# 1 323.9724 21.7130 41.2091 0.0000 0.0000 0.0000
# 2 21.7130 56.3356 36.4854 0.0000 0.0000 0.0000
# 3 41.2091 36.4854 87.7059 0.0000 0.0000 0.0000
# 4 0.0000 0.0000 0.0000 13.0804 0.0000 0.0000
# 5 0.0000 0.0000 0.0000 0.0000 28.7171 0.0000
# 6 0.0000 0.0000 0.0000 0.0000 0.0000 19.9446
#
#
#
# Elastic Compliance Matrix: (Units=1/GPa)
#
#
# Indices 1 2 3 4 5 6 
#
# 1 0.003288 -0.000365 -0.001393 0.000000 0.000000 0.000000
# 2 -0.000365 0.024337 -0.009953 0.000000 0.000000 0.000000
# 3 -0.001393 -0.009953 0.016197 0.000000 0.000000 0.000000
# 4 0.000000 0.000000 0.000000 0.076450 0.000000 0.000000
# 5 0.000000 0.000000 0.000000 0.000000 0.034822 0.000000
# 6 0.000000 0.000000 0.000000 0.000000 0.000000 0.050139
#
#
# Mechanical properties :
#
#
# Convention : Reuss Voigt Hill
#
# Bulk Modulus (GPa) = 49.01886 74.09210 61.55548
# Shear Modulus (GPa) = 21.23539 36.92217 29.07878
#
# Velocity S-wave (km/s) = 2.99860 3.95395 3.50894
# Velocity P-wave (km/s) = 5.72229 7.22616 6.51774
#
# Compressibility (1/GPa) = 0.02040031
#
# Stress axis : x y z
#
# Youngs Moduli (GPa) = 304.10262 41.08921 61.74134
#
# Poissons Ratio (x) = 0.01500 0.08602
# Poissons Ratio (y) = 0.11104 0.61449
# Poissons Ratio (z) = 0.42366 0.40895
#
# Static dielectric constant tensor:
#      x y z
#    x 2.068820 0.000000 0.000000 
#    y 0.000000 1.910130 0.000000 
#    z 0.000000 0.000000 1.650430 
# 
# From -- ./inp_files/65969.got.cif
#   From: 2010.05.17/outbox.cif.g08.bks.cpg/sg63_33_cif.got.tgz:65969.got - 2010.06.03 15:47:04.
