data_PCOD9468072
_publ_section_title
;
Structure prediction by ZEFSAII (Michael W. Deem and Ramdas Pophale) SiO2 
 PCOD9468072
Probable space group: P N M A
;
_chemical_formula_sum "Si O2"
_cell_formula_units_Z 40
_cell_length_a 9.000000
_cell_length_b 9.000000
_cell_length_c 24.000000
_cell_angle_alpha 90.000000
_cell_angle_beta 90.000000
_cell_angle_gamma 90.000000
_cell_volume 1944.000000
_symmetry_space_group_name_H-M "P N M A"
_symmetry_group_IT_number 62
_symmetry_cell_setting 'orthorhombic'
loop_
_space_group_symop_operation_xyz
x,y,z
1/2-x,-y,1/2+z
1/2+x,1/2-y,1/2-z
-x,1/2+y,-z
-x,-y,-z
1/2+x,y,1/2-z
1/2-x,1/2+y,1/2+z
x,1/2-y,z
loop_
_atom_site_type_symbol
_atom_site_label
_atom_site_fract_x
_atom_site_fract_y
_atom_site_fract_z
Si Si1 0.259688 0.080659 0.114417
Si Si2 0.536073 0.920911 0.307078
Si Si3 0.461827 0.580076 0.807244
Si Si4 0.834967 0.571221 0.500107
Si Si5 0.260944 0.580238 0.386475
O O1 0.210355 0.250000 0.103273
O O2 0.422355 0.085631 0.141731
O O3 0.170616 0.008346 0.165217
O O4 0.259496 0.988426 0.056974
O O5 0.571991 0.750000 0.292939
O O6 0.422040 0.919264 0.358694
O O7 0.486557 0.002873 0.250223
O O8 0.417996 0.750000 0.794293
O O9 0.332618 0.485525 0.835242
O O10 0.842372 0.750000 0.499961
O O11 0.756827 0.513594 0.556889
O O12 0.000000 0.500000 0.500000
O O13 0.214617 0.750000 0.398813
#
# Coordination Sequence:
#
# PCOD9468072 Si02
#       5
#     8   8   8   8   8
#     4  11  24  42  66  95 127 167 213 260 314 374
#     4  11  25  42  62  93 130 168 210 260 318 374
#     4  11  23  40  65  94 126 167 213 261 314 374
#     4  12  24  41  67  95 126 163 209 260 314 375
#     4  11  24  42  66  94 127 167 213 261 314 374
#
# _framework density 20.576132000000001
#
# number of rings (size 3 to 8) (size 9 to 14) (size 15 to 20)
#    0.000    0.800    2.000    5.400    0.000    9.600 
#    0.000    0.000    0.000    0.000    0.000    0.000 
#    0.000    0.000    0.000    0.000    0.000    0.000 
#
# Total GULP energy -223347.500688 kJ/mol
# GULP energy per Si atom -5583.687517 kJ/mol
# Density = 2.052930 g / cm^3
# Si number density = 20.576132 Si / 1000 Ang^3
#
#
#
# Elastic Constant Matrix: (Units=GPa)
#
#
# Indices 1 2 3 4 5 6 
#
# 1 15.9247 7.0477 -13.0252 0.0000 0.0000 0.0000
# 2 7.0477 171.3574 48.5760 0.0000 0.0000 0.0000
# 3 -13.0252 48.5760 144.3290 0.0000 0.0000 0.0000
# 4 0.0000 0.0000 0.0000 38.0980 0.0000 0.0000
# 5 0.0000 0.0000 0.0000 0.0000 -285.9356 0.0000
# 6 0.0000 0.0000 0.0000 0.0000 0.0000 11.8701
#
#
#
# Elastic Compliance Matrix: (Units=1/GPa)
#
#
# Indices 1 2 3 4 5 6 
#
# 1 0.071910 -0.005303 0.008275 0.000000 0.000000 0.000000
# 2 -0.005303 0.006842 -0.002781 0.000000 0.000000 0.000000
# 3 0.008275 -0.002781 0.008612 0.000000 0.000000 0.000000
# 4 0.000000 0.000000 0.000000 0.026248 0.000000 0.000000
# 5 0.000000 0.000000 0.000000 0.000000 -0.003497 0.000000
# 6 0.000000 0.000000 0.000000 0.000000 0.000000 0.084245
#
#
# Mechanical properties :
#
#
# Convention : Reuss Voigt Hill
#
# Bulk Modulus (GPa) = 11.39681 46.31203 28.85442
# Shear Modulus (GPa) = 22.39860 -27.92598 -2.76369
#
# Velocity S-wave (km/s) = 3.30293 -3.68802 -1.16020
# Velocity P-wave (km/s) = 4.48293 2.10266 3.50128
#
# Compressibility (1/GPa) = 0.08774383
#
# Stress axis : x y z
#
# Youngs Moduli (GPa) = 13.90621 146.14835 116.12358
#
# Poissons Ratio (x) = 0.77506 -0.96087
# Poissons Ratio (y) = 0.07375 0.32300
# Poissons Ratio (z) = -0.11507 0.40651
#
# Static dielectric constant tensor:
#      x y z
#    x 1.816100 0.000000 0.000000 
#    y 0.000000 1.737560 0.000000 
#    z 0.000000 0.000000 1.662130 
# 
# From -- ./inp_files/26453.got.cif
#   From: 2010.05.17/outbox.ucp.g08.bks.cvg/sg62_14_cif.got.tgz:26453.got - 2010.06.11 16:29:25.
