data_PCOD9468624
_publ_section_title
;
Structure prediction by ZEFSAII (Michael W. Deem and Ramdas Pophale) SiO2 
 PCOD9468624
Probable space group: C M C M
;
_chemical_formula_sum "Si O2"
_cell_formula_units_Z 112
_cell_length_a 22.384486
_cell_length_b 15.271048
_cell_length_c 16.222784
_cell_angle_alpha 90.000000
_cell_angle_beta 90.000000
_cell_angle_gamma 90.000000
_cell_volume 5545.508233
_symmetry_space_group_name_H-M "C M C M"
_symmetry_group_IT_number 63
_symmetry_cell_setting 'orthorhombic'
loop_
_space_group_symop_operation_xyz
x,y,z
-x,-y,1/2+z
x,-y,-z
-x,y,1/2-z
-x,-y,-z
x,y,1/2-z
-x,y,z
x,-y,1/2+z
1/2+x,1/2+y,z
1/2-x,1/2-y,1/2+z
1/2+x,1/2-y,-z
1/2-x,1/2+y,1/2-z
1/2-x,1/2-y,-z
1/2+x,1/2+y,1/2-z
1/2-x,1/2+y,z
1/2+x,1/2-y,1/2+z
loop_
_atom_site_type_symbol
_atom_site_label
_atom_site_fract_x
_atom_site_fract_y
_atom_site_fract_z
Si Si1 0.265844 0.403060 0.993275
Si Si2 0.069880 0.040666 0.407695
Si Si3 0.428375 0.633021 0.837768
Si Si4 0.570642 0.200257 0.055603
Si Si5 0.862191 0.219079 0.083503
Si Si6 0.819548 0.354523 0.654040
Si Si7 0.261536 0.816603 0.160948
O O1 0.311941 0.324900 0.975279
O O2 0.220499 0.402766 0.915604
O O3 0.293079 0.500000 0.000000
O O4 0.238643 0.378582 0.081643
O O5 0.099581 0.133984 0.394305
O O6 0.000000 0.052104 0.388821
O O7 0.072137 0.000000 0.500000
O O8 0.097519 0.962563 0.353363
O O9 0.408227 0.670080 0.750000
O O10 0.500000 0.621718 0.833804
O O11 0.421143 0.700409 0.910955
O O12 0.500000 0.179092 0.057264
O O13 0.613326 0.146376 0.117048
O O14 0.599019 0.208785 0.965072
O O15 0.823439 0.262839 0.154726
O O16 0.816762 0.384125 0.750000
O O17 0.791108 0.256119 0.653971
O O18 0.255847 0.860491 0.250000
#
# Coordination Sequence:
#
# PCOD9468624 Si02
#       7
#    16  16  16  16  16  16  16
#     4  11  22  37  59  83 112 148 187 231 286 337
#     4  10  18  28  45  71 108 152 187 217 260 316
#     4   9  18  29  41  67 107 146 182 218 256 307
#     4  11  19  31  56  83 112 149 185 224 276 333
#     4  11  19  34  55  81 111 146 187 229 269 331
#     4  10  20  37  58  84 116 144 184 239 281 329
#     4  10  21  39  59  78 108 149 190 236 285 325
#
# _framework density 20.196527
#
# number of rings (size 3 to 8) (size 9 to 14) (size 15 to 20)
#    0.000    1.714    4.286    2.143    0.000    2.000 
#    0.000    0.000    0.000    1.714    0.000    0.000 
#    0.000    0.000    0.000    0.000    0.000    0.000 
#
# Total GULP energy -312174.232802 kJ/mol
# GULP energy per Si atom -5574.539871 kJ/mol
# Density = 2.015056 g / cm^3
# Si number density = 20.196527 Si / 1000 Ang^3
#
#
#
# Elastic Constant Matrix: (Units=GPa)
#
#
# Indices 1 2 3 4 5 6 
#
# 1 106.6998 -3.6530 30.0070 0.0000 0.0000 0.0000
# 2 -3.6530 14.6261 7.3805 0.0000 0.0000 0.0000
# 3 30.0070 7.3805 91.0444 0.0000 0.0000 0.0000
# 4 0.0000 0.0000 0.0000 6.1456 0.0000 0.0000
# 5 0.0000 0.0000 0.0000 0.0000 16.6704 0.0000
# 6 0.0000 0.0000 0.0000 0.0000 0.0000 11.8105
#
#
#
# Elastic Compliance Matrix: (Units=1/GPa)
#
#
# Indices 1 2 3 4 5 6 
#
# 1 0.010619 0.004607 -0.003873 0.000000 0.000000 0.000000
# 2 0.004607 0.073286 -0.007459 0.000000 0.000000 0.000000
# 3 -0.003873 -0.007459 0.012865 0.000000 0.000000 0.000000
# 4 0.000000 0.000000 0.000000 0.162717 0.000000 0.000000
# 5 0.000000 0.000000 0.000000 0.000000 0.059987 0.000000
# 6 0.000000 0.000000 0.000000 0.000000 0.000000 0.084670
#
#
# Mechanical properties :
#
#
# Convention : Reuss Voigt Hill
#
# Bulk Modulus (GPa) = 12.00219 31.09326 21.54772
# Shear Modulus (GPa) = 11.22667 18.83437 15.03052
#
# Velocity S-wave (km/s) = 2.36025 3.05709 2.73099
# Velocity P-wave (km/s) = 3.65832 5.28108 4.54275
#
# Compressibility (1/GPa) = 0.08331810
#
# Stress axis : x y z
#
# Youngs Moduli (GPa) = 94.16988 13.64524 77.73068
#
# Poissons Ratio (x) = -0.06286 0.30108
# Poissons Ratio (y) = -0.43382 0.57981
# Poissons Ratio (z) = 0.36475 0.10178
#
# Static dielectric constant tensor:
#      x y z
#    x 1.761280 0.000000 0.000000 
#    y 0.000000 1.697410 0.000000 
#    z 0.000000 0.000000 1.775120 
# 
# From -- ./inp_files/47363.got.cif
#   From: 2010.05.17/outbox.cif.g08.bks.cpg/sg63_24_cif.got.tgz:47363.got - 2010.06.03 15:47:04.
