data_PCOD9468514
_publ_section_title
;
Structure prediction by ZEFSAII (Michael W. Deem and Ramdas Pophale) SiO2 
 PCOD9468514
Probable space group: C M C M
;
_chemical_formula_sum "Si O2"
_cell_formula_units_Z 80
_cell_length_a 15.024340
_cell_length_b 23.491628
_cell_length_c 14.047723
_cell_angle_alpha 90.000000
_cell_angle_beta 90.000000
_cell_angle_gamma 90.000000
_cell_volume 4958.090539
_symmetry_space_group_name_H-M "C M C M"
_symmetry_group_IT_number 63
_symmetry_cell_setting 'orthorhombic'
loop_
_space_group_symop_operation_xyz
x,y,z
-x,-y,1/2+z
x,-y,-z
-x,y,1/2-z
-x,-y,-z
x,y,1/2-z
-x,y,z
x,-y,1/2+z
1/2+x,1/2+y,z
1/2-x,1/2-y,1/2+z
1/2+x,1/2-y,-z
1/2-x,1/2+y,1/2-z
1/2-x,1/2-y,-z
1/2+x,1/2+y,1/2-z
1/2-x,1/2+y,z
1/2+x,1/2-y,1/2+z
loop_
_atom_site_type_symbol
_atom_site_label
_atom_site_fract_x
_atom_site_fract_y
_atom_site_fract_z
Si Si1 0.284125 0.078157 0.135806
Si Si2 0.101480 0.468091 0.362752
Si Si3 0.607760 0.246475 0.641375
Si Si4 0.894746 0.643856 0.509118
Si Si5 0.900054 0.877034 0.865366
O O1 0.288702 0.084929 0.250000
O O2 0.181179 0.082926 0.105213
O O3 0.330675 0.018239 0.112541
O O4 0.339239 0.127481 0.083577
O O5 0.108873 0.456210 0.250000
O O6 0.114460 0.410442 0.420770
O O7 0.000000 0.488648 0.380516
O O8 0.640496 0.237207 0.750000
O O9 0.500000 0.241277 0.645926
O O10 0.637711 0.199340 0.566268
O O11 0.624732 0.311564 0.611792
O O12 0.000000 0.650149 0.487428
O O13 0.904588 0.878922 0.750000
O O14 0.000000 0.889661 0.900885
#
# Coordination Sequence:
#
# PCOD9468514 Si02
#       5
#    16  16  16  16  16
#     4  10  19  28  40  60  86 114 140 165 199 246
#     4   9  17  29  44  62  85 111 138 168 200 238
#     4   8  14  26  44  64  83 104 136 176 209 236
#     4  10  18  27  42  63  87 114 138 162 199 245
#     4   8  15  29  46  61  79 104 137 179 216 238
#
# _framework density 16.135244
#
# number of rings (size 3 to 8) (size 9 to 14) (size 15 to 20)
#    0.000    3.000    0.000    3.000    0.000    6.000 
#    0.000    0.000    0.000    2.400    0.000    0.000 
#    0.000    2.400    0.000    2.000    0.000    0.000 
#
# Total GULP energy -222758.167601 kJ/mol
# GULP energy per Si atom -5568.954190 kJ/mol
# Density = 1.609852 g / cm^3
# Si number density = 16.135244 Si / 1000 Ang^3
#
#
#
# Elastic Constant Matrix: (Units=GPa)
#
#
# Indices 1 2 3 4 5 6 
#
# 1 86.2081 44.6891 17.4178 0.0000 0.0000 0.0000
# 2 44.6891 46.0819 8.0347 0.0000 0.0000 0.0000
# 3 17.4178 8.0347 34.6653 0.0000 0.0000 0.0000
# 4 0.0000 0.0000 0.0000 10.9562 0.0000 0.0000
# 5 0.0000 0.0000 0.0000 0.0000 12.4222 0.0000
# 6 0.0000 0.0000 0.0000 0.0000 0.0000 0.7940
#
#
#
# Elastic Compliance Matrix: (Units=1/GPa)
#
#
# Indices 1 2 3 4 5 6 
#
# 1 0.024948 -0.022935 -0.007219 0.000000 0.000000 0.000000
# 2 -0.022935 0.043699 0.001395 0.000000 0.000000 0.000000
# 3 -0.007219 0.001395 0.032151 0.000000 0.000000 0.000000
# 4 0.000000 0.000000 0.000000 0.091272 0.000000 0.000000
# 5 0.000000 0.000000 0.000000 0.000000 0.080501 0.000000
# 6 0.000000 0.000000 0.000000 0.000000 0.000000 1.259499
#
#
# Mechanical properties :
#
#
# Convention : Reuss Voigt Hill
#
# Bulk Modulus (GPa) = 23.10534 34.13762 28.62148
# Shear Modulus (GPa) = 3.11718 11.28873 7.20296
#
# Velocity S-wave (km/s) = 1.39144 2.64793 2.11514
# Velocity P-wave (km/s) = 4.11489 5.52737 4.87258
#
# Compressibility (1/GPa) = 0.04328003
#
# Stress axis : x y z
#
# Youngs Moduli (GPa) = 40.08410 22.88390 31.10302
#
# Poissons Ratio (x) = 0.52484 0.22454
# Poissons Ratio (y) = 0.91932 -0.04340
# Poissons Ratio (z) = 0.28938 -0.03193
#
# Static dielectric constant tensor:
#      x y z
#    x 1.557790 0.000000 0.000000 
#    y 0.000000 1.540840 0.000000 
#    z 0.000000 0.000000 1.542820 
# 
# From -- ./inp_files/29731.got.cif
#   From: 2010.05.17/outbox.cif.g08.bks.cpg/sg63_15_cif.got.tgz:29731.got - 2010.06.03 15:47:04.
