data_PCOD9468811
_publ_section_title
;
Structure prediction by ZEFSAII (Michael W. Deem and Ramdas Pophale) SiO2 
 PCOD9468811
Probable space group: C M C M
;
_chemical_formula_sum "Si O2"
_cell_formula_units_Z 112
_cell_length_a 28.339876
_cell_length_b 14.739528
_cell_length_c 14.367066
_cell_angle_alpha 90.000000
_cell_angle_beta 90.000000
_cell_angle_gamma 90.000000
_cell_volume 6001.359028
_symmetry_space_group_name_H-M "C M C M"
_symmetry_group_IT_number 63
_symmetry_cell_setting 'orthorhombic'
loop_
_space_group_symop_operation_xyz
x,y,z
-x,-y,1/2+z
x,-y,-z
-x,y,1/2-z
-x,-y,-z
x,y,1/2-z
-x,y,z
x,-y,1/2+z
1/2+x,1/2+y,z
1/2-x,1/2-y,1/2+z
1/2+x,1/2-y,-z
1/2-x,1/2+y,1/2-z
1/2-x,1/2-y,-z
1/2+x,1/2+y,1/2-z
1/2-x,1/2+y,z
1/2+x,1/2-y,1/2+z
loop_
_atom_site_type_symbol
_atom_site_label
_atom_site_fract_x
_atom_site_fract_y
_atom_site_fract_z
Si Si1 0.945356 0.234571 0.142575
Si Si2 0.636738 0.753235 0.499561
Si Si3 0.281822 0.229195 0.857715
Si Si4 0.354291 0.560039 0.905629
Si Si5 0.948685 0.981579 0.611424
Si Si6 0.309091 0.850058 0.853818
Si Si7 0.749100 0.973319 0.391823
O O1 0.931588 0.256636 0.250000
O O2 0.000000 0.263249 0.129329
O O3 0.944869 0.125217 0.131631
O O4 0.909909 0.268417 0.062375
O O5 0.677971 0.734554 0.424743
O O6 0.636814 0.663785 0.564127
O O7 0.652289 0.836119 0.566114
O O8 0.293301 0.246323 0.750000
O O9 0.232246 0.277962 0.877240
O O10 0.275723 0.122600 0.875469
O O11 0.401141 0.527802 0.853527
O O12 0.303393 0.541072 0.859909
O O13 0.352691 0.500000 0.000000
O O14 0.000000 0.013150 0.645842
O O15 0.949456 0.000000 0.500000
O O16 0.327410 0.830167 0.750000
O O17 0.282110 0.945773 0.851134
O O18 0.751280 0.000000 0.500000
#
# Coordination Sequence:
#
# PCOD9468811 Si02
#       7
#    16  16  16  16  16  16  16
#     4  10  21  36  57  86 115 148 194 245 296 349
#     4  12  20  37  57  79 118 152 188 241 290 340
#     4  11  22  36  55  82 111 150 197 240 288 344
#     4  10  18  29  54  76 103 152 197 224 275 338
#     4   9  16  30  50  75 107 146 189 231 276 330
#     4  11  24  38  55  81 115 153 199 244 283 341
#     4  11  20  36  56  76 114 156 193 237 289 340
#
# _framework density 18.66244
#
# number of rings (size 3 to 8) (size 9 to 14) (size 15 to 20)
#    0.000    1.429    5.714    3.000    0.000    0.000 
#    0.000    1.429    0.000    0.429    0.000    2.000 
#    0.000    2.286    0.000    0.000    0.000    0.000 
#
# Total GULP energy -312416.349047 kJ/mol
# GULP energy per Si atom -5578.863376 kJ/mol
# Density = 1.861996 g / cm^3
# Si number density = 18.662440 Si / 1000 Ang^3
#
#
#
# Elastic Constant Matrix: (Units=GPa)
#
#
# Indices 1 2 3 4 5 6 
#
# 1 111.0964 17.8447 56.7931 0.0000 0.0000 0.0000
# 2 17.8447 63.9372 5.7750 0.0000 0.0000 0.0000
# 3 56.7931 5.7750 97.1595 0.0000 0.0000 0.0000
# 4 0.0000 0.0000 0.0000 12.9187 0.0000 0.0000
# 5 0.0000 0.0000 0.0000 0.0000 2.2162 0.0000
# 6 0.0000 0.0000 0.0000 0.0000 0.0000 21.3002
#
#
#
# Elastic Compliance Matrix: (Units=1/GPa)
#
#
# Indices 1 2 3 4 5 6 
#
# 1 0.013404 -0.003050 -0.007654 0.000000 0.000000 0.000000
# 2 -0.003050 0.016419 0.000807 0.000000 0.000000 0.000000
# 3 -0.007654 0.000807 0.014718 0.000000 0.000000 0.000000
# 4 0.000000 0.000000 0.000000 0.077407 0.000000 0.000000
# 5 0.000000 0.000000 0.000000 0.000000 0.451225 0.000000
# 6 0.000000 0.000000 0.000000 0.000000 0.000000 0.046948
#
#
# Mechanical properties :
#
#
# Convention : Reuss Voigt Hill
#
# Bulk Modulus (GPa) = 40.40826 48.11319 44.26072
# Shear Modulus (GPa) = 7.71411 20.07237 13.89324
#
# Velocity S-wave (km/s) = 2.03531 3.28311 2.73142
# Velocity P-wave (km/s) = 5.21752 6.34102 5.80650
#
# Compressibility (1/GPa) = 0.02474741
#
# Stress axis : x y z
#
# Youngs Moduli (GPa) = 74.60678 60.90640 67.94307
#
# Poissons Ratio (x) = 0.18574 0.52001
# Poissons Ratio (y) = 0.22752 -0.05481
# Poissons Ratio (z) = 0.57101 -0.04913
#
# Static dielectric constant tensor:
#      x y z
#    x 1.688430 0.000000 0.000000 
#    y 0.000000 1.629650 0.000000 
#    z 0.000000 0.000000 1.672090 
# 
# From -- ./inp_files/37949.got.cif
#   From: 2010.05.17/outbox.cif.g08.bks.cpg/sg63_19_cif.got.tgz:37949.got - 2010.06.03 15:47:04.
