data_PCOD9468864
_publ_section_title
;
Structure prediction by ZEFSAII (Michael W. Deem and Ramdas Pophale) SiO2 
 PCOD9468864
Probable space group: C M C M
;
_chemical_formula_sum "Si O2"
_cell_formula_units_Z 96
_cell_length_a 14.324326
_cell_length_b 19.161195
_cell_length_c 14.423598
_cell_angle_alpha 90.000000
_cell_angle_beta 90.000000
_cell_angle_gamma 90.000000
_cell_volume 3958.862305
_symmetry_space_group_name_H-M "C M C M"
_symmetry_group_IT_number 63
_symmetry_cell_setting 'orthorhombic'
loop_
_space_group_symop_operation_xyz
x,y,z
-x,-y,1/2+z
x,-y,-z
-x,y,1/2-z
-x,-y,-z
x,y,1/2-z
-x,y,z
x,-y,1/2+z
1/2+x,1/2+y,z
1/2-x,1/2-y,1/2+z
1/2+x,1/2-y,-z
1/2-x,1/2+y,1/2-z
1/2-x,1/2-y,-z
1/2+x,1/2+y,1/2-z
1/2-x,1/2+y,z
1/2+x,1/2-y,1/2+z
loop_
_atom_site_type_symbol
_atom_site_label
_atom_site_fract_x
_atom_site_fract_y
_atom_site_fract_z
Si Si1 0.392032 0.494901 0.136761
Si Si2 0.602072 0.003760 0.611044
Si Si3 0.601404 0.159360 0.355468
Si Si4 0.244805 0.884839 0.146408
Si Si5 0.195727 0.858719 0.862972
Si Si6 0.897379 0.720473 0.862926
O O1 0.388398 0.493226 0.250000
O O2 0.500000 0.501713 0.110571
O O3 0.345456 0.422262 0.103888
O O4 0.333126 0.563384 0.107872
O O5 0.500000 0.034039 0.632596
O O6 0.682919 0.050567 0.651159
O O7 0.612126 0.000000 0.500000
O O8 0.602290 0.925066 0.646624
O O9 0.601689 0.186331 0.250000
O O10 0.500000 0.179833 0.396424
O O11 0.704096 0.171197 0.395766
O O12 0.218831 0.860715 0.250000
O O13 0.310012 0.825445 0.103503
O O14 0.201230 0.861148 0.750000
O O15 0.119395 0.800970 0.887435
O O16 0.895877 0.715318 0.750000
O O17 0.000000 0.697024 0.893143
#
# Coordination Sequence:
#
# PCOD9468864 Si02
#       6
#    16  16  16  16  16  16
#     4   9  16  26  43  67  91 117 152 192 230 271
#     4  10  19  29  44  68  96 124 154 192 238 282
#     4   9  16  27  45  69  93 119 157 198 232 271
#     4  10  18  30  47  70  95 122 155 193 237 280
#     4   9  15  26  43  66  94 120 149 188 232 275
#     4   9  17  27  42  67  97 124 149 187 237 281
#
# _framework density 24.249389999999998
#
# number of rings (size 3 to 8) (size 9 to 14) (size 15 to 20)
#    0.000    2.667    1.667    1.500    0.000    3.667 
#    0.000    0.833    0.000    6.500    0.000    0.000 
#    0.000    0.000    0.000    0.000    0.000    0.000 
#
# Total GULP energy -267822.308629 kJ/mol
# GULP energy per Si atom -5579.631430 kJ/mol
# Density = 2.419420 g / cm^3
# Si number density = 24.249390 Si / 1000 Ang^3
#
#
#
# Elastic Constant Matrix: (Units=GPa)
#
#
# Indices 1 2 3 4 5 6 
#
# 1 158.6484 36.8979 0.5136 0.0000 0.0000 0.0000
# 2 36.8979 83.7122 -4.1968 0.0000 0.0000 0.0000
# 3 0.5136 -4.1968 106.8517 0.0000 0.0000 0.0000
# 4 0.0000 0.0000 0.0000 -107.9071 0.0000 0.0000
# 5 0.0000 0.0000 0.0000 0.0000 -29.6786 0.0000
# 6 0.0000 0.0000 0.0000 0.0000 0.0000 36.2201
#
#
#
# Elastic Compliance Matrix: (Units=1/GPa)
#
#
# Indices 1 2 3 4 5 6 
#
# 1 0.007026 -0.003105 -0.000156 0.000000 0.000000 0.000000
# 2 -0.003105 0.013341 0.000539 0.000000 0.000000 0.000000
# 3 -0.000156 0.000539 0.009381 0.000000 0.000000 0.000000
# 4 0.000000 0.000000 0.000000 -0.009267 0.000000 0.000000
# 5 0.000000 0.000000 0.000000 0.000000 -0.033694 0.000000
# 6 0.000000 0.000000 0.000000 0.000000 0.000000 0.027609
#
#
# Mechanical properties :
#
#
# Convention : Reuss Voigt Hill
#
# Bulk Modulus (GPa) = 41.14401 46.18241 43.66321
# Shear Modulus (GPa) = 178.95876 0.79338 89.87607
#
# Velocity S-wave (km/s) = 8.59997 0.57261 6.09456
# Velocity P-wave (km/s) = 10.75251 4.41852 8.22009
#
# Compressibility (1/GPa) = 0.02430487
#
# Stress axis : x y z
#
# Youngs Moduli (GPa) = 142.33246 74.95621 106.60207
#
# Poissons Ratio (x) = 0.23271 0.01660
# Poissons Ratio (y) = 0.44188 -0.05745
# Poissons Ratio (z) = 0.02216 -0.04040
#
# Static dielectric constant tensor:
#      x y z
#    x 1.976120 0.000000 0.000000 
#    y 0.000000 1.884050 0.000000 
#    z 0.000000 0.000000 1.925250 
# 
# From -- ./inp_files/54644.got.cif
#   From: 2010.05.17/outbox.cif.g08.bks.cpg/sg63_28_cif.got.tgz:54644.got - 2010.06.03 15:47:04.
