data_PCOD9468191
_publ_section_title
;
Structure prediction by ZEFSAII (Michael W. Deem and Ramdas Pophale) SiO2 
 PCOD9468191
Probable space group: C M C M
;
_chemical_formula_sum "Si O2"
_cell_formula_units_Z 96
_cell_length_a 7.547795
_cell_length_b 28.539973
_cell_length_c 23.589556
_cell_angle_alpha 90.000000
_cell_angle_beta 90.000000
_cell_angle_gamma 90.000000
_cell_volume 5081.517444
_symmetry_space_group_name_H-M "C M C M"
_symmetry_group_IT_number 63
_symmetry_cell_setting 'orthorhombic'
loop_
_space_group_symop_operation_xyz
x,y,z
-x,-y,1/2+z
x,-y,-z
-x,y,1/2-z
-x,-y,-z
x,y,1/2-z
-x,y,z
x,-y,1/2+z
1/2+x,1/2+y,z
1/2-x,1/2-y,1/2+z
1/2+x,1/2-y,-z
1/2-x,1/2+y,1/2-z
1/2-x,1/2-y,-z
1/2+x,1/2+y,1/2-z
1/2-x,1/2+y,z
1/2+x,1/2-y,1/2+z
loop_
_atom_site_type_symbol
_atom_site_label
_atom_site_fract_x
_atom_site_fract_y
_atom_site_fract_z
Si Si1 0.283603 0.392700 0.947912
Si Si2 0.212220 0.196813 0.984486
Si Si3 0.705855 0.627943 0.750000
Si Si4 0.715739 0.353591 0.372650
Si Si5 0.786031 0.967830 0.866607
Si Si6 0.214368 0.053589 0.940167
Si Si7 0.203054 0.480239 0.250000
O O1 0.500000 0.391330 0.947184
O O2 0.227131 0.416752 0.889012
O O3 0.223672 0.341479 0.969124
O O4 0.229327 0.428048 0.998600
O O5 0.277148 0.182008 0.921637
O O6 0.000000 0.191367 0.982706
O O7 0.250000 0.250000 0.000000
O O8 0.500000 0.641924 0.750000
O O9 0.783126 0.647867 0.691461
O O10 0.704657 0.570807 0.750000
O O11 0.500000 0.350677 0.370768
O O12 0.757932 0.405017 0.396631
O O13 0.000000 0.967756 0.867920
O O14 0.722043 0.005618 0.913136
O O15 0.738549 0.988201 0.805382
O O16 0.000000 0.050087 0.943700
O O17 0.000000 0.466769 0.250000
#
# Coordination Sequence:
#
# PCOD9468191 Si02
#       7
#    16  16   8  16  16  16   8
#     4   8  15  26  46  74  95 112 150 205 239 263
#     4   9  17  31  49  73  98 121 151 195 246 289
#     4  10  16  30  52  71  90 123 163 196 227 273
#     4   8  14  24  45  73  96 116 151 197 231 267
#     4  10  17  29  49  68  88 124 168 196 223 269
#     4   8  12  21  42  73  96 110 141 194 238 264
#     4  12  24  32  40  63 102 139 161 190 229 277
#
# _framework density 18.891995000000001
#
# number of rings (size 3 to 8) (size 9 to 14) (size 15 to 20)
#    0.000    3.000    1.667    3.250    0.000    2.000 
#    0.000    1.667    0.000    3.000    0.000    2.333 
#    0.000    0.000    0.000    0.000    0.000    0.000 
#
# Total GULP energy -267334.676141 kJ/mol
# GULP energy per Si atom -5569.472420 kJ/mol
# Density = 1.884900 g / cm^3
# Si number density = 18.891995 Si / 1000 Ang^3
#
#
#
# Elastic Constant Matrix: (Units=GPa)
#
#
# Indices 1 2 3 4 5 6 
#
# 1 42.9654 -1.1353 -4.5246 0.0000 0.0000 0.0000
# 2 -1.1353 125.8941 77.7103 0.0000 0.0000 0.0000
# 3 -4.5246 77.7103 83.7351 0.0000 0.0000 0.0000
# 4 0.0000 0.0000 0.0000 14.9888 0.0000 0.0000
# 5 0.0000 0.0000 0.0000 0.0000 -23.8082 0.0000
# 6 0.0000 0.0000 0.0000 0.0000 0.0000 9.0080
#
#
#
# Elastic Compliance Matrix: (Units=1/GPa)
#
#
# Indices 1 2 3 4 5 6 
#
# 1 0.023504 -0.001339 0.002513 0.000000 0.000000 0.000000
# 2 -0.001339 0.018672 -0.017401 0.000000 0.000000 0.000000
# 3 0.002513 -0.017401 0.028227 0.000000 0.000000 0.000000
# 4 0.000000 0.000000 0.000000 0.066716 0.000000 0.000000
# 5 0.000000 0.000000 0.000000 0.000000 -0.042002 0.000000
# 6 0.000000 0.000000 0.000000 0.000000 0.000000 0.111013
#
#
# Mechanical properties :
#
#
# Convention : Reuss Voigt Hill
#
# Bulk Modulus (GPa) = 26.35153 44.07725 35.21439
# Shear Modulus (GPa) = 19.90169 12.07399 15.98784
#
# Velocity S-wave (km/s) = 3.24920 2.53080 2.91224
# Velocity P-wave (km/s) = 5.29672 5.64993 5.47617
#
# Compressibility (1/GPa) = 0.03794847
#
# Stress axis : x y z
#
# Youngs Moduli (GPa) = 42.54631 53.55537 35.42665
#
# Poissons Ratio (x) = 0.07172 -0.08902
# Poissons Ratio (y) = 0.05697 0.61646
# Poissons Ratio (z) = -0.10691 0.93192
#
# Static dielectric constant tensor:
#      x y z
#    x 1.736320 0.000000 0.000000 
#    y 0.000000 1.642580 0.000000 
#    z 0.000000 0.000000 1.694380 
# 
# From -- ./inp_files/60308.got.cif
#   From: 2010.05.17/outbox.cif.g08.bks.cpg/sg63_31_cif.got.tgz:60308.got - 2010.06.03 15:47:04.
