data_PCOD9468929
_publ_section_title
;
Structure prediction by ZEFSAII (Michael W. Deem and Ramdas Pophale) SiO2 
 PCOD9468929
Probable space group: C M C M
;
_chemical_formula_sum "Si O2"
_cell_formula_units_Z 96
_cell_length_a 8.555089
_cell_length_b 21.314037
_cell_length_c 25.665356
_cell_angle_alpha 90.000000
_cell_angle_beta 90.000000
_cell_angle_gamma 90.000000
_cell_volume 4679.910418
_symmetry_space_group_name_H-M "C M C M"
_symmetry_group_IT_number 63
_symmetry_cell_setting 'orthorhombic'
loop_
_space_group_symop_operation_xyz
x,y,z
-x,-y,1/2+z
x,-y,-z
-x,y,1/2-z
-x,-y,-z
x,y,1/2-z
-x,y,z
x,-y,1/2+z
1/2+x,1/2+y,z
1/2-x,1/2-y,1/2+z
1/2+x,1/2-y,-z
1/2-x,1/2+y,1/2-z
1/2-x,1/2-y,-z
1/2+x,1/2+y,1/2-z
1/2-x,1/2+y,z
1/2+x,1/2-y,1/2+z
loop_
_atom_site_type_symbol
_atom_site_label
_atom_site_fract_x
_atom_site_fract_y
_atom_site_fract_z
Si Si1 0.188319 0.849193 0.112347
Si Si2 0.829393 0.452145 0.953092
Si Si3 0.679161 0.663880 0.492900
Si Si4 0.679656 0.024559 0.844620
Si Si5 0.690774 0.893552 0.807581
Si Si6 0.687315 0.211688 0.110518
O O1 0.245038 0.907589 0.146684
O O2 0.237296 0.779987 0.131499
O O3 0.000000 0.852673 0.111103
O O4 0.241862 0.849999 0.051261
O O5 0.695311 0.402792 0.963617
O O6 0.817391 0.492339 0.901463
O O7 0.000000 0.418614 0.951536
O O8 0.830971 0.500000 0.000000
O O9 0.500000 0.683978 0.497601
O O10 0.764045 0.707469 0.450347
O O11 0.500000 0.034507 0.828174
O O12 0.747296 0.965871 0.811994
O O13 0.728525 0.868955 0.750000
O O14 0.500000 0.896998 0.811802
O O15 0.743141 0.846379 0.853518
O O16 0.500000 0.210665 0.112542
#
# Coordination Sequence:
#
# PCOD9468929 Si02
#       6
#    16  16  16  16  16  16
#     4  10  22  35  50  78 115 148 174 211 263 316
#     4  10  18  30  49  74 103 141 182 213 250 308
#     4  11  21  31  48  78 112 145 178 216 261 310
#     4  10  19  33  55  79 103 135 176 220 262 310
#     4   9  18  35  60  83  98 125 178 232 269 308
#     4  10  20  37  56  75 106 145 183 219 257 313
#
# _framework density 20.513214000000001
#
# number of rings (size 3 to 8) (size 9 to 14) (size 15 to 20)
#    0.000    2.000    3.333    1.000    0.000    2.333 
#    0.000    0.833    0.000    3.000    0.000    0.000 
#    0.000    0.000    0.000    0.000    0.000    0.000 
#
# Total GULP energy -267378.022691 kJ/mol
# GULP energy per Si atom -5570.375473 kJ/mol
# Density = 2.046652 g / cm^3
# Si number density = 20.513214 Si / 1000 Ang^3
#
#
#
# Elastic Constant Matrix: (Units=GPa)
#
#
# Indices 1 2 3 4 5 6 
#
# 1 16.7637 22.5356 5.8383 0.0000 0.0000 0.0000
# 2 22.5356 146.5274 25.8487 0.0000 0.0000 0.0000
# 3 5.8383 25.8487 81.8435 0.0000 0.0000 0.0000
# 4 0.0000 0.0000 0.0000 23.2506 0.0000 0.0000
# 5 0.0000 0.0000 0.0000 0.0000 7.1040 0.0000
# 6 0.0000 0.0000 0.0000 0.0000 0.0000 24.2706
#
#
#
# Elastic Compliance Matrix: (Units=1/GPa)
#
#
# Indices 1 2 3 4 5 6 
#
# 1 0.075456 -0.011284 -0.001819 0.000000 0.000000 0.000000
# 2 -0.011284 0.008915 -0.002011 0.000000 0.000000 0.000000
# 3 -0.001819 -0.002011 0.012983 0.000000 0.000000 0.000000
# 4 0.000000 0.000000 0.000000 0.043010 0.000000 0.000000
# 5 0.000000 0.000000 0.000000 0.000000 0.140767 0.000000
# 6 0.000000 0.000000 0.000000 0.000000 0.000000 0.041202
#
#
# Mechanical properties :
#
#
# Convention : Reuss Voigt Hill
#
# Bulk Modulus (GPa) = 14.89722 39.28665 27.09194
# Shear Modulus (GPa) = 13.33567 23.65250 18.49409
#
# Velocity S-wave (km/s) = 2.55247 3.39932 3.00587
# Velocity P-wave (km/s) = 3.99560 5.88223 5.02820
#
# Compressibility (1/GPa) = 0.06712663
#
# Stress axis : x y z
#
# Youngs Moduli (GPa) = 13.25284 112.17274 77.02259
#
# Poissons Ratio (x) = 1.26576 0.14009
# Poissons Ratio (y) = 0.14955 0.15486
# Poissons Ratio (z) = 0.02410 0.22554
#
# Static dielectric constant tensor:
#      x y z
#    x 1.755990 0.000000 0.000000 
#    y 0.000000 1.794800 0.000000 
#    z 0.000000 0.000000 1.758620 
# 
# From -- ./inp_files/66948.got.cif
#   From: 2010.05.17/outbox.cif.g08.bks.cpg/sg63_34_cif.got.tgz:66948.got - 2010.06.03 15:47:04.
