data_PCOD9468387
_publ_section_title
;
Structure prediction by ZEFSAII (Michael W. Deem and Ramdas Pophale) SiO2 
 PCOD9468387
Probable space group: C M C M
;
_chemical_formula_sum "Si O2"
_cell_formula_units_Z 80
_cell_length_a 12.938258
_cell_length_b 19.501612
_cell_length_c 19.893785
_cell_angle_alpha 90.000000
_cell_angle_beta 90.000000
_cell_angle_gamma 90.000000
_cell_volume 5019.537911
_symmetry_space_group_name_H-M "C M C M"
_symmetry_group_IT_number 63
_symmetry_cell_setting 'orthorhombic'
loop_
_space_group_symop_operation_xyz
x,y,z
-x,-y,1/2+z
x,-y,-z
-x,y,1/2-z
-x,-y,-z
x,y,1/2-z
-x,y,z
x,-y,1/2+z
1/2+x,1/2+y,z
1/2-x,1/2-y,1/2+z
1/2+x,1/2-y,-z
1/2-x,1/2+y,1/2-z
1/2-x,1/2-y,-z
1/2+x,1/2+y,1/2-z
1/2-x,1/2+y,z
1/2+x,1/2-y,1/2+z
loop_
_atom_site_type_symbol
_atom_site_label
_atom_site_fract_x
_atom_site_fract_y
_atom_site_fract_z
Si Si1 0.663055 0.825630 0.559762
Si Si2 0.114437 0.219759 0.439398
Si Si3 0.665125 0.830089 0.170082
Si Si4 0.500000 0.944443 0.941000
Si Si5 0.385415 0.283809 0.329706
Si Si6 0.000000 0.444328 0.330189
O O1 0.787351 0.830421 0.557561
O O2 0.629748 0.774426 0.499715
O O3 0.599349 0.894989 0.554184
O O4 0.632702 0.784966 0.627622
O O5 0.124220 0.265524 0.372039
O O6 0.000000 0.189347 0.444004
O O7 0.651410 0.819405 0.250000
O O8 0.787827 0.832725 0.155159
O O9 0.599321 0.897101 0.152126
O O10 0.500000 0.986401 0.871773
O O11 0.500000 0.000000 0.000000
O O12 0.382140 0.269717 0.250000
O O13 0.500000 0.310879 0.346032
O O14 0.000000 0.455691 0.250000
#
# Coordination Sequence:
#
# PCOD9468387 Si02
#       6
#    16  16  16   8  16   8
#     4  10  20  31  46  72  97 120 159 193 235 292
#     4  10  17  30  52  72  95 120 145 201 255 280
#     4   9  17  29  46  72  97 122 160 193 232 282
#     4  12  22  34  48  66  98 134 164 191 226 279
#     4   9  16  28  48  71  98 122 146 198 251 282
#     4  10  20  32  48  68  98 134 164 193 223 273
#
# _framework density 15.937722000000001
#
# number of rings (size 3 to 8) (size 9 to 14) (size 15 to 20)
#    0.000    2.200    3.000    1.200    0.000    0.800 
#    0.000    0.000    0.000    1.800    0.000    0.000 
#    0.000    0.000    0.000    0.000    0.000    0.000 
#
# Total GULP energy -222848.680691 kJ/mol
# GULP energy per Si atom -5571.217017 kJ/mol
# Density = 1.590145 g / cm^3
# Si number density = 15.937722 Si / 1000 Ang^3
#
#
#
# Elastic Constant Matrix: (Units=GPa)
#
#
# Indices 1 2 3 4 5 6 
#
# 1 185.9578 60.4205 31.1413 0.0000 0.0000 0.0000
# 2 60.4205 80.3679 26.1098 0.0000 0.0000 0.0000
# 3 31.1413 26.1098 31.7790 0.0000 0.0000 0.0000
# 4 0.0000 0.0000 0.0000 22.4999 0.0000 0.0000
# 5 0.0000 0.0000 0.0000 0.0000 18.1629 0.0000
# 6 0.0000 0.0000 0.0000 0.0000 0.0000 26.9651
#
#
#
# Elastic Compliance Matrix: (Units=1/GPa)
#
#
# Indices 1 2 3 4 5 6 
#
# 1 0.007416 -0.004385 -0.003665 0.000000 0.000000 0.000000
# 2 -0.004385 0.019566 -0.011779 0.000000 0.000000 0.000000
# 3 -0.003665 -0.011779 0.044736 0.000000 0.000000 0.000000
# 4 0.000000 0.000000 0.000000 0.044445 0.000000 0.000000
# 5 0.000000 0.000000 0.000000 0.000000 0.055057 0.000000
# 6 0.000000 0.000000 0.000000 0.000000 0.000000 0.037085
#
#
# Mechanical properties :
#
#
# Convention : Reuss Voigt Hill
#
# Bulk Modulus (GPa) = 31.18997 59.27197 45.23097
# Shear Modulus (GPa) = 19.33134 25.55447 22.44290
#
# Velocity S-wave (km/s) = 3.48649 4.00859 3.75662
# Velocity P-wave (km/s) = 5.98497 7.66130 6.87442
#
# Compressibility (1/GPa) = 0.03206159
#
# Stress axis : x y z
#
# Youngs Moduli (GPa) = 134.84514 51.10947 22.35348
#
# Poissons Ratio (x) = 0.22410 0.08192
# Poissons Ratio (y) = 0.59126 0.26329
# Poissons Ratio (z) = 0.49415 0.60200
#
# Static dielectric constant tensor:
#      x y z
#    x 1.590320 0.000000 0.000000 
#    y 0.000000 1.472000 0.000000 
#    z 0.000000 0.000000 1.560700 
# 
# From -- ./inp_files/52449.got.cif
#   From: 2010.05.17/outbox.cif.g08.bks.cpg/sg63_27_cif.got.tgz:52449.got - 2010.06.03 15:47:04.
