data_PCOD9468321
_publ_section_title
;
Structure prediction by ZEFSAII (Michael W. Deem and Ramdas Pophale) SiO2 
 PCOD9468321
Probable space group: C M C M
;
_chemical_formula_sum "Si O2"
_cell_formula_units_Z 96
_cell_length_a 7.444640
_cell_length_b 24.331266
_cell_length_c 26.424493
_cell_angle_alpha 90.000000
_cell_angle_beta 90.000000
_cell_angle_gamma 90.000000
_cell_volume 4786.467027
_symmetry_space_group_name_H-M "C M C M"
_symmetry_group_IT_number 63
_symmetry_cell_setting 'orthorhombic'
loop_
_space_group_symop_operation_xyz
x,y,z
-x,-y,1/2+z
x,-y,-z
-x,y,1/2-z
-x,-y,-z
x,y,1/2-z
-x,y,z
x,-y,1/2+z
1/2+x,1/2+y,z
1/2-x,1/2-y,1/2+z
1/2+x,1/2-y,-z
1/2-x,1/2+y,1/2-z
1/2-x,1/2-y,-z
1/2+x,1/2+y,1/2-z
1/2-x,1/2+y,z
1/2+x,1/2-y,1/2+z
loop_
_atom_site_type_symbol
_atom_site_label
_atom_site_fract_x
_atom_site_fract_y
_atom_site_fract_z
Si Si1 0.719398 0.186475 0.250000
Si Si2 0.300002 0.372761 0.148811
Si Si3 0.715485 0.559773 0.059142
Si Si4 0.290279 0.013385 0.809703
Si Si5 0.287952 0.894249 0.662485
Si Si6 0.279537 0.686665 0.750000
Si Si7 0.280004 0.433541 0.056056
O O1 0.500000 0.187708 0.250000
O O2 0.779290 0.153576 0.199486
O O3 0.773390 0.249764 0.250000
O O4 0.500000 0.348941 0.141347
O O5 0.310976 0.435730 0.167029
O O6 0.218041 0.341414 0.197216
O O7 0.216465 0.385145 0.093676
O O8 0.500000 0.557559 0.058353
O O9 0.766968 0.603701 0.102025
O O10 0.775348 0.496499 0.070377
O O11 0.774751 0.573831 0.002294
O O12 0.286648 0.020021 0.750000
O O13 0.500000 0.016416 0.825536
O O14 0.213547 0.953680 0.821842
O O15 0.500000 0.896654 0.673413
O O16 0.500000 0.681333 0.750000
O O17 0.500000 0.432578 0.057733
#
# Coordination Sequence:
#
# PCOD9468321 Si02
#       7
#     8  16  16  16  16   8  16
#     4   9  18  33  47  63  91 121 148 187 232 266
#     4  10  17  28  47  70  91 113 147 189 221 260
#     4   9  16  28  44  64  93 125 148 174 220 270
#     4  10  18  27  40  64  93 120 143 168 222 282
#     4  10  18  29  46  65  89 121 152 181 216 264
#     4   9  18  29  47  71  87 109 152 195 226 256
#     4   8  15  26  42  65  95 124 143 171 224 274
#
# _framework density 20.056546000000001
#
# number of rings (size 3 to 8) (size 9 to 14) (size 15 to 20)
#    0.000    2.667    3.333    1.000    0.000    0.000 
#    0.000    2.917    0.000    3.000    0.000    0.000 
#    0.000    0.000    0.000    0.000    0.000    0.000 
#
# Total GULP energy -267334.372353 kJ/mol
# GULP energy per Si atom -5569.466091 kJ/mol
# Density = 2.001090 g / cm^3
# Si number density = 20.056546 Si / 1000 Ang^3
#
#
#
# Elastic Constant Matrix: (Units=GPa)
#
#
# Indices 1 2 3 4 5 6 
#
# 1 58.3282 -3.3452 -2.1116 0.0000 0.0000 0.0000
# 2 -3.3452 91.5489 65.1677 0.0000 0.0000 0.0000
# 3 -2.1116 65.1677 159.9364 0.0000 0.0000 0.0000
# 4 0.0000 0.0000 0.0000 14.1672 0.0000 0.0000
# 5 0.0000 0.0000 0.0000 0.0000 13.4139 0.0000
# 6 0.0000 0.0000 0.0000 0.0000 0.0000 4.7040
#
#
#
# Elastic Compliance Matrix: (Units=1/GPa)
#
#
# Indices 1 2 3 4 5 6 
#
# 1 0.017181 0.000657 -0.000041 0.000000 0.000000 0.000000
# 2 0.000657 0.015411 -0.006271 0.000000 0.000000 0.000000
# 3 -0.000041 -0.006271 0.008807 0.000000 0.000000 0.000000
# 4 0.000000 0.000000 0.000000 0.070586 0.000000 0.000000
# 5 0.000000 0.000000 0.000000 0.000000 0.074549 0.000000
# 6 0.000000 0.000000 0.000000 0.000000 0.000000 0.212584
#
#
# Mechanical properties :
#
#
# Convention : Reuss Voigt Hill
#
# Bulk Modulus (GPa) = 33.23461 47.69282 40.46371
# Shear Modulus (GPa) = 11.89185 23.13054 17.51120
#
# Velocity S-wave (km/s) = 2.43763 3.39966 2.95802
# Velocity P-wave (km/s) = 4.95269 6.26427 5.64669
#
# Compressibility (1/GPa) = 0.03008912
#
# Stress axis : x y z
#
# Youngs Moduli (GPa) = 58.20537 64.88975 113.54649
#
# Poissons Ratio (x) = -0.04262 0.00463
# Poissons Ratio (y) = -0.03823 0.71200
# Poissons Ratio (z) = 0.00237 0.40690
#
# Static dielectric constant tensor:
#      x y z
#    x 1.768540 0.000000 0.000000 
#    y 0.000000 1.666290 0.000000 
#    z 0.000000 0.000000 1.808810 
# 
# From -- ./inp_files/61709.got.cif
#   From: 2010.05.17/outbox.cif.g08.bks.cpg/sg63_31_cif.got.tgz:61709.got - 2010.06.03 15:47:04.
