data_PCOD9468768
_publ_section_title
;
Structure prediction by ZEFSAII (Michael W. Deem and Ramdas Pophale) SiO2 
 PCOD9468768
Probable space group: C M C M
;
_chemical_formula_sum "Si O2"
_cell_formula_units_Z 96
_cell_length_a 9.295296
_cell_length_b 30.964136
_cell_length_c 19.905494
_cell_angle_alpha 90.000000
_cell_angle_beta 90.000000
_cell_angle_gamma 90.000000
_cell_volume 5729.215397
_symmetry_space_group_name_H-M "C M C M"
_symmetry_group_IT_number 63
_symmetry_cell_setting 'orthorhombic'
loop_
_space_group_symop_operation_xyz
x,y,z
-x,-y,1/2+z
x,-y,-z
-x,y,1/2-z
-x,-y,-z
x,y,1/2-z
-x,y,z
x,-y,1/2+z
1/2+x,1/2+y,z
1/2-x,1/2-y,1/2+z
1/2+x,1/2-y,-z
1/2-x,1/2+y,1/2-z
1/2-x,1/2-y,-z
1/2+x,1/2+y,1/2-z
1/2-x,1/2+y,z
1/2+x,1/2-y,1/2+z
loop_
_atom_site_type_symbol
_atom_site_label
_atom_site_fract_x
_atom_site_fract_y
_atom_site_fract_z
Si Si1 0.330903 0.613357 0.549189
Si Si2 0.169751 0.039764 0.170963
Si Si3 0.668124 0.631156 0.110618
Si Si4 0.165380 0.716050 0.408483
Si Si5 0.833934 0.300621 0.429793
Si Si6 0.670562 0.023944 0.928633
O O1 0.500000 0.612035 0.565662
O O2 0.318960 0.618516 0.468169
O O3 0.254343 0.655402 0.580190
O O4 0.251410 0.569630 0.569753
O O5 0.185316 0.032455 0.250000
O O6 0.210211 0.088992 0.152552
O O7 0.000000 0.035119 0.153003
O O8 0.262843 0.006712 0.128014
O O9 0.500000 0.640913 0.123358
O O10 0.762147 0.673603 0.122665
O O11 0.166681 0.708047 0.489444
O O12 0.256601 0.759358 0.397176
O O13 0.000000 0.721277 0.388059
O O14 0.000000 0.304626 0.409182
O O15 0.500000 0.030059 0.919505
O O16 0.693099 0.000000 0.000000
#
# Coordination Sequence:
#
# PCOD9468768 Si02
#       6
#    16  16  16  16  16  16
#     4  10  18  29  48  71  98 131 169 210 255 306
#     4  10  21  37  55  75 101 135 175 217 261 311
#     4   9  17  29  46  69  96 129 165 205 252 301
#     4   9  16  25  40  63  93 129 164 197 239 294
#     4   9  16  26  40  63  97 129 160 201 247 295
#     4  11  22  34  51  75 103 135 173 216 263 314
#
# _framework density 16.756222000000001
#
# number of rings (size 3 to 8) (size 9 to 14) (size 15 to 20)
#    0.000    2.333    1.667    2.000    0.000    6.333 
#    0.000    0.000    0.000    0.000    0.000    1.167 
#    0.000    6.667    0.000    0.000    0.000    0.000 
#
# Total GULP energy -267732.570367 kJ/mol
# GULP energy per Si atom -5577.761883 kJ/mol
# Density = 1.671808 g / cm^3
# Si number density = 16.756222 Si / 1000 Ang^3
#
#
#
# Elastic Constant Matrix: (Units=GPa)
#
#
# Indices 1 2 3 4 5 6 
#
# 1 143.7700 113.2404 37.5363 0.0000 0.0000 0.0000
# 2 113.2404 167.5981 33.8280 0.0000 0.0000 0.0000
# 3 37.5363 33.8280 26.6459 0.0000 0.0000 0.0000
# 4 0.0000 0.0000 0.0000 11.2099 0.0000 0.0000
# 5 0.0000 0.0000 0.0000 0.0000 9.1514 0.0000
# 6 0.0000 0.0000 0.0000 0.0000 0.0000 37.2421
#
#
#
# Elastic Compliance Matrix: (Units=1/GPa)
#
#
# Indices 1 2 3 4 5 6 
#
# 1 0.017736 -0.009332 -0.013137 0.000000 0.000000 0.000000
# 2 -0.009332 0.012932 -0.003272 0.000000 0.000000 0.000000
# 3 -0.013137 -0.003272 0.060190 0.000000 0.000000 0.000000
# 4 0.000000 0.000000 0.000000 0.089207 0.000000 0.000000
# 5 0.000000 0.000000 0.000000 0.000000 0.109273 0.000000
# 6 0.000000 0.000000 0.000000 0.000000 0.000000 0.026851
#
#
# Mechanical properties :
#
#
# Convention : Reuss Voigt Hill
#
# Bulk Modulus (GPa) = 25.39660 78.58036 51.98848
# Shear Modulus (GPa) = 13.13035 21.74797 17.43916
#
# Velocity S-wave (km/s) = 2.80234 3.60655 3.22958
# Velocity P-wave (km/s) = 5.06559 8.02128 6.70825
#
# Compressibility (1/GPa) = 0.03937534
#
# Stress axis : x y z
#
# Youngs Moduli (GPa) = 56.38348 77.32574 16.61399
#
# Poissons Ratio (x) = 0.72159 0.21826
# Poissons Ratio (y) = 0.52616 0.05437
# Poissons Ratio (z) = 0.74073 0.25304
#
# Static dielectric constant tensor:
#      x y z
#    x 1.562160 0.000000 0.000000 
#    y 0.000000 1.548240 0.000000 
#    z 0.000000 0.000000 1.515670 
# 
# From -- ./inp_files/51408.got.cif
#   From: 2010.05.17/outbox.cif.g08.bks.cpg/sg63_26_cif.got.tgz:51408.got - 2010.06.03 15:47:04.
