data_PCOD9468139
_publ_section_title
;
Structure prediction by ZEFSAII (Michael W. Deem and Ramdas Pophale) SiO2 
 PCOD9468139
Probable space group: C M C M
;
_chemical_formula_sum "Si O2"
_cell_formula_units_Z 80
_cell_length_a 19.847020
_cell_length_b 8.427698
_cell_length_c 26.801606
_cell_angle_alpha 90.000000
_cell_angle_beta 90.000000
_cell_angle_gamma 90.000000
_cell_volume 4482.962339
_symmetry_space_group_name_H-M "C M C M"
_symmetry_group_IT_number 63
_symmetry_cell_setting 'orthorhombic'
loop_
_space_group_symop_operation_xyz
x,y,z
-x,-y,1/2+z
x,-y,-z
-x,y,1/2-z
-x,-y,-z
x,y,1/2-z
-x,y,z
x,-y,1/2+z
1/2+x,1/2+y,z
1/2-x,1/2-y,1/2+z
1/2+x,1/2-y,-z
1/2-x,1/2+y,1/2-z
1/2-x,1/2-y,-z
1/2+x,1/2+y,1/2-z
1/2-x,1/2+y,z
1/2+x,1/2-y,1/2+z
loop_
_atom_site_type_symbol
_atom_site_label
_atom_site_fract_x
_atom_site_fract_y
_atom_site_fract_z
Si Si1 0.178088 0.346378 0.143001
Si Si2 0.420035 0.555760 0.354014
Si Si3 0.353737 0.528466 0.750000
Si Si4 0.152841 0.932387 0.450669
Si Si5 0.719266 0.866274 0.918218
Si Si6 0.776730 0.305735 0.250000
O O1 0.114607 0.229301 0.141302
O O2 0.241816 0.245285 0.121782
O O3 0.174636 0.503244 0.109850
O O4 0.195059 0.384950 0.199929
O O5 0.500000 0.563797 0.356041
O O6 0.396053 0.484746 0.300850
O O7 0.389743 0.457453 0.400399
O O8 0.303546 0.676901 0.750000
O O9 0.304693 0.373537 0.750000
O O10 0.176878 0.750630 0.453052
O O11 0.117641 0.000000 0.500000
O O12 0.220392 0.039539 0.444924
#
# Coordination Sequence:
#
# PCOD9468139 Si02
#       6
#    16  16   8  16  16   8
#     4   9  17  29  49  73 101 129 159 207 253 298
#     4  10  21  35  49  69 101 140 174 198 234 297
#     4  10  19  32  54  76  99 128 160 206 254 296
#     4  10  19  32  53  76 101 131 165 213 260 301
#     4   9  17  31  49  75 100 122 160 211 268 303
#     4  10  16  26  48  78  98 120 158 202 254 296
#
# _framework density 17.845343
#
# number of rings (size 3 to 8) (size 9 to 14) (size 15 to 20)
#    0.000    2.400    0.000    5.700    0.000    0.400 
#    0.000    1.000    0.000    1.200    0.000    7.000 
#    0.000    0.000    0.000    0.000    0.000    0.000 
#
# Total GULP energy -223099.783665 kJ/mol
# GULP energy per Si atom -5577.494592 kJ/mol
# Density = 1.780473 g / cm^3
# Si number density = 17.845343 Si / 1000 Ang^3
#
#
#
# Elastic Constant Matrix: (Units=GPa)
#
#
# Indices 1 2 3 4 5 6 
#
# 1 85.6125 7.6578 9.1639 0.0000 0.0000 0.0000
# 2 7.6578 42.8536 1.4504 0.0000 0.0000 0.0000
# 3 9.1639 1.4504 76.1886 0.0000 0.0000 0.0000
# 4 0.0000 0.0000 0.0000 20.3934 0.0000 0.0000
# 5 0.0000 0.0000 0.0000 0.0000 5.2027 0.0000
# 6 0.0000 0.0000 0.0000 0.0000 0.0000 8.9473
#
#
#
# Elastic Compliance Matrix: (Units=1/GPa)
#
#
# Indices 1 2 3 4 5 6 
#
# 1 0.012019 -0.002100 -0.001406 0.000000 0.000000 0.000000
# 2 -0.002100 0.023717 -0.000199 0.000000 0.000000 0.000000
# 3 -0.001406 -0.000199 0.013298 0.000000 0.000000 0.000000
# 4 0.000000 0.000000 0.000000 0.049035 0.000000 0.000000
# 5 0.000000 0.000000 0.000000 0.000000 0.192207 0.000000
# 6 0.000000 0.000000 0.000000 0.000000 0.000000 0.111765
#
#
# Mechanical properties :
#
#
# Convention : Reuss Voigt Hill
#
# Bulk Modulus (GPa) = 24.02406 26.79987 25.41197
# Shear Modulus (GPa) = 11.81123 19.33421 15.57272
#
# Velocity S-wave (km/s) = 2.57547 3.29512 2.95727
# Velocity P-wave (km/s) = 4.72606 5.43393 5.09231
#
# Compressibility (1/GPa) = 0.04162493
#
# Stress axis : x y z
#
# Youngs Moduli (GPa) = 83.20259 42.16333 75.19830
#
# Poissons Ratio (x) = 0.08855 0.10570
# Poissons Ratio (y) = 0.17474 0.01496
# Poissons Ratio (z) = 0.11695 0.00839
#
# Static dielectric constant tensor:
#      x y z
#    x 1.572510 0.000000 0.000000 
#    y 0.000000 1.625600 0.000000 
#    z 0.000000 0.000000 1.663070 
# 
# From -- ./inp_files/64304.got.cif
#   From: 2010.05.17/outbox.cif.g08.bks.cpg/sg63_33_cif.got.tgz:64304.got - 2010.06.03 15:47:04.
