data_PCOD9468424
_publ_section_title
;
Structure prediction by ZEFSAII (Michael W. Deem and Ramdas Pophale) SiO2 
 PCOD9468424
Probable space group: C M C M
;
_chemical_formula_sum "Si O2"
_cell_formula_units_Z 64
_cell_length_a 15.367184
_cell_length_b 9.264857
_cell_length_c 22.506345
_cell_angle_alpha 90.000000
_cell_angle_beta 90.000000
_cell_angle_gamma 90.000000
_cell_volume 3204.335519
_symmetry_space_group_name_H-M "C M C M"
_symmetry_group_IT_number 63
_symmetry_cell_setting 'orthorhombic'
loop_
_space_group_symop_operation_xyz
x,y,z
-x,-y,1/2+z
x,-y,-z
-x,y,1/2-z
-x,-y,-z
x,y,1/2-z
-x,y,z
x,-y,1/2+z
1/2+x,1/2+y,z
1/2-x,1/2-y,1/2+z
1/2+x,1/2-y,-z
1/2-x,1/2+y,1/2-z
1/2-x,1/2-y,-z
1/2+x,1/2+y,1/2-z
1/2-x,1/2+y,z
1/2+x,1/2-y,1/2+z
loop_
_atom_site_type_symbol
_atom_site_label
_atom_site_fract_x
_atom_site_fract_y
_atom_site_fract_z
Si Si1 0.100279 0.657982 0.030034
Si Si2 0.149147 0.306839 0.316683
Si Si3 0.905022 0.878639 0.922474
Si Si4 0.770032 0.589945 0.130571
O O1 0.168694 0.666578 0.082772
O O2 0.000000 0.662260 0.050777
O O3 0.113202 0.500000 0.000000
O O4 0.110977 0.784252 0.981423
O O5 0.114476 0.305560 0.250000
O O6 0.091083 0.235935 0.368053
O O7 0.178354 0.463145 0.338075
O O8 0.233765 0.203595 0.321939
O O9 0.817481 0.964123 0.904727
O O10 0.000000 0.951823 0.926890
#
# Coordination Sequence:
#
# PCOD9468424 Si02
#       4
#    16  16  16  16
#     4  10  17  32  56  85 113 140 182 232 280 330
#     4  10  21  35  55  79 110 149 190 226 267 327
#     4   9  20  34  55  83 110 144 183 221 275 342
#     4  10  20  35  58  81 114 145 183 229 283 320
#
# _framework density 19.972939
#
# number of rings (size 3 to 8) (size 9 to 14) (size 15 to 20)
#    1.500    0.750    2.500    1.500    0.000    0.500 
#    0.000    1.250    0.000    7.500    0.000    0.000 
#    0.000    0.000    0.000    0.000    0.000    0.000 
#
# Total GULP energy -178215.454213 kJ/mol
# GULP energy per Si atom -5569.232944 kJ/mol
# Density = 1.992748 g / cm^3
# Si number density = 19.972939 Si / 1000 Ang^3
#
#
#
# Elastic Constant Matrix: (Units=GPa)
#
#
# Indices 1 2 3 4 5 6 
#
# 1 59.4158 -5.0560 37.6279 0.0000 0.0000 0.0000
# 2 -5.0560 25.4695 14.8026 0.0000 0.0000 0.0000
# 3 37.6279 14.8026 86.5378 0.0000 0.0000 0.0000
# 4 0.0000 0.0000 0.0000 25.5183 0.0000 0.0000
# 5 0.0000 0.0000 0.0000 0.0000 -21.7745 0.0000
# 6 0.0000 0.0000 0.0000 0.0000 0.0000 10.5029
#
#
#
# Elastic Compliance Matrix: (Units=1/GPa)
#
#
# Indices 1 2 3 4 5 6 
#
# 1 0.026812 0.013434 -0.013956 0.000000 0.000000 0.000000
# 2 0.013434 0.050328 -0.014450 0.000000 0.000000 0.000000
# 3 -0.013956 -0.014450 0.020096 0.000000 0.000000 0.000000
# 4 0.000000 0.000000 0.000000 0.039188 0.000000 0.000000
# 5 0.000000 0.000000 0.000000 0.000000 -0.045925 0.000000
# 6 0.000000 0.000000 0.000000 0.000000 0.000000 0.095212
#
#
# Mechanical properties :
#
#
# Convention : Reuss Voigt Hill
#
# Bulk Modulus (GPa) = 14.86087 29.57466 22.21777
# Shear Modulus (GPa) = 21.00092 11.11925 16.06008
#
# Velocity S-wave (km/s) = 3.24615 2.36204 2.83873
# Velocity P-wave (km/s) = 4.63753 4.72001 4.67895
#
# Compressibility (1/GPa) = 0.06729080
#
# Stress axis : x y z
#
# Youngs Moduli (GPa) = 37.29654 19.86980 49.76183
#
# Poissons Ratio (x) = -0.26693 0.69449
# Poissons Ratio (y) = -0.50103 0.71905
# Poissons Ratio (z) = 0.52052 0.28712
#
# Static dielectric constant tensor:
#      x y z
#    x 1.763700 0.000000 0.000000 
#    y 0.000000 1.708990 0.000000 
#    z 0.000000 0.000000 1.670890 
# 
# From -- ./inp_files/45142.got.cif
#   From: 2010.05.17/outbox.cif.g08.bks.cpg/sg63_23_cif.got.tgz:45142.got - 2010.06.03 15:47:04.
