data_PCOD9468862
_publ_section_title
;
Structure prediction by ZEFSAII (Michael W. Deem and Ramdas Pophale) SiO2 
 PCOD9468862
Probable space group: C M C M
;
_chemical_formula_sum "Si O2"
_cell_formula_units_Z 92
_cell_length_a 8.303532
_cell_length_b 28.696621
_cell_length_c 16.338895
_cell_angle_alpha 90.000000
_cell_angle_beta 90.000000
_cell_angle_gamma 90.000000
_cell_volume 3893.285995
_symmetry_space_group_name_H-M "C M C M"
_symmetry_group_IT_number 63
_symmetry_cell_setting 'orthorhombic'
loop_
_space_group_symop_operation_xyz
x,y,z
-x,-y,1/2+z
x,-y,-z
-x,y,1/2-z
-x,-y,-z
x,y,1/2-z
-x,y,z
x,-y,1/2+z
1/2+x,1/2+y,z
1/2-x,1/2-y,1/2+z
1/2+x,1/2-y,-z
1/2-x,1/2+y,1/2-z
1/2-x,1/2-y,-z
1/2+x,1/2+y,1/2-z
1/2-x,1/2+y,z
1/2+x,1/2-y,1/2+z
loop_
_atom_site_type_symbol
_atom_site_label
_atom_site_fract_x
_atom_site_fract_y
_atom_site_fract_z
Si Si1 0.816921 0.025853 0.086818
Si Si2 0.184197 0.868372 0.925413
Si Si3 0.000000 0.680560 0.250000
Si Si4 0.000000 0.218373 0.650148
Si Si5 0.500000 0.821852 0.574457
Si Si6 0.821719 0.663295 0.649884
Si Si7 0.814627 0.066357 0.653883
Si Si8 0.663122 0.319531 0.750000
O O1 0.741332 0.984951 0.140797
O O2 0.000000 0.032704 0.118580
O O3 0.757011 0.078095 0.076224
O O4 0.821569 0.000000 0.000000
O O5 0.328805 0.837111 0.962099
O O6 0.165114 0.850165 0.831697
O O7 0.000000 0.865568 0.959771
O O8 0.000000 0.652797 0.334664
O O9 0.169895 0.707307 0.250000
O O10 0.834142 0.192957 0.625534
O O11 0.000000 0.214853 0.750000
O O12 0.000000 0.268293 0.603894
O O13 0.825048 0.663477 0.750000
O O14 0.787030 0.609887 0.622489
O O15 0.000000 0.679382 0.623437
O O16 0.829313 0.073510 0.750000
O O17 0.000000 0.067457 0.620453
O O18 0.500000 0.290115 0.750000
#
# Coordination Sequence:
#
# PCOD9468862 Si02
#       8
#    16  16   4   8   8  16  16   8
#     4   9  18  32  51  76 108 141 183 218 264 318
#     4   9  18  31  47  68 102 140 173 212 251 305
#     4   8  14  26  38  60  92 124 162 198 238 296
#     4  10  18  30  48  73 106 141 170 217 274 324
#     4  10  18  30  47  70 101 139 172 210 258 315
#     4   9  17  30  48  71 104 136 172 219 271 322
#     4   9  16  29  51  76 104 141 178 219 266 316
#     4   8  14  24  42  62  87 127 167 201 238 284
#
# _framework density 23.630424999999999
#
# number of rings (size 3 to 8) (size 9 to 14) (size 15 to 20)
#    0.000    2.957    1.304    0.000    1.217    0.696 
#    1.565    0.435    0.000    0.000    0.000    1.217 
#    0.000    0.000    0.000    0.000    0.000    0.000 
#
# Total GULP energy -256237.838257 kJ/mol
# GULP energy per Si atom -5570.387788 kJ/mol
# Density = 2.357664 g / cm^3
# Si number density = 23.630425 Si / 1000 Ang^3
#
#
#
# Elastic Constant Matrix: (Units=GPa)
#
#
# Indices 1 2 3 4 5 6 
#
# 1 207.4861 86.7297 19.7145 0.0000 0.0000 0.0000
# 2 86.7297 140.2775 10.7791 0.0000 0.0000 0.0000
# 3 19.7145 10.7791 53.4194 0.0000 0.0000 0.0000
# 4 0.0000 0.0000 0.0000 22.2129 0.0000 0.0000
# 5 0.0000 0.0000 0.0000 0.0000 23.1911 0.0000
# 6 0.0000 0.0000 0.0000 0.0000 0.0000 11.0487
#
#
#
# Elastic Compliance Matrix: (Units=1/GPa)
#
#
# Indices 1 2 3 4 5 6 
#
# 1 0.006639 -0.003978 -0.001647 0.000000 0.000000 0.000000
# 2 -0.003978 0.009625 -0.000474 0.000000 0.000000 0.000000
# 3 -0.001647 -0.000474 0.019423 0.000000 0.000000 0.000000
# 4 0.000000 0.000000 0.000000 0.045019 0.000000 0.000000
# 5 0.000000 0.000000 0.000000 0.000000 0.043120 0.000000
# 6 0.000000 0.000000 0.000000 0.000000 0.000000 0.090509
#
#
# Mechanical properties :
#
#
# Convention : Reuss Voigt Hill
#
# Bulk Modulus (GPa) = 42.57477 70.62553 56.60015
# Shear Modulus (GPa) = 21.33442 30.22117 25.77779
#
# Velocity S-wave (km/s) = 3.00798 3.58006 3.30642
# Velocity P-wave (km/s) = 5.48817 6.85869 6.21134
#
# Compressibility (1/GPa) = 0.02348809
#
# Stress axis : x y z
#
# Youngs Moduli (GPa) = 150.62530 103.89929 51.48431
#
# Poissons Ratio (x) = 0.41332 0.08482
# Poissons Ratio (y) = 0.59920 0.02440
# Poissons Ratio (z) = 0.24814 0.04925
#
# Static dielectric constant tensor:
#      x y z
#    x 1.948000 0.000000 0.000000 
#    y 0.000000 1.907670 0.000000 
#    z 0.000000 0.000000 2.001310 
# 
# From -- ./inp_files/51452.got.cif
#   From: 2010.05.17/outbox.cif.g08.bks.cpg/sg63_26_cif.got.tgz:51452.got - 2010.06.03 15:47:04.
