data_PCOD9468435
_publ_section_title
;
Structure prediction by ZEFSAII (Michael W. Deem and Ramdas Pophale) SiO2 
 PCOD9468435
Probable space group: C M C M
;
_chemical_formula_sum "Si O2"
_cell_formula_units_Z 52
_cell_length_a 31.546173
_cell_length_b 18.307028
_cell_length_c 5.253166
_cell_angle_alpha 90.000000
_cell_angle_beta 90.000000
_cell_angle_gamma 90.000000
_cell_volume 3033.790948
_symmetry_space_group_name_H-M "C M C M"
_symmetry_group_IT_number 63
_symmetry_cell_setting 'orthorhombic'
loop_
_space_group_symop_operation_xyz
x,y,z
-x,-y,1/2+z
x,-y,-z
-x,y,1/2-z
-x,-y,-z
x,y,1/2-z
-x,y,z
x,-y,1/2+z
1/2+x,1/2+y,z
1/2-x,1/2-y,1/2+z
1/2+x,1/2-y,-z
1/2-x,1/2+y,1/2-z
1/2-x,1/2-y,-z
1/2+x,1/2+y,1/2-z
1/2-x,1/2+y,z
1/2+x,1/2-y,1/2+z
loop_
_atom_site_type_symbol
_atom_site_label
_atom_site_fract_x
_atom_site_fract_y
_atom_site_fract_z
Si Si1 0.353969 0.203507 0.750000
Si Si2 0.340688 0.300556 0.250000
Si Si3 0.953020 0.729100 0.750000
Si Si4 0.188935 0.545864 0.750000
Si Si5 0.500000 0.453025 0.250000
Si Si6 0.562014 0.676394 0.750000
Si Si7 0.208974 0.952657 0.250000
O O1 0.339294 0.249534 0.501512
O O2 0.405681 0.192947 0.750000
O O3 0.332527 0.124680 0.750000
O O4 0.387961 0.332358 0.250000
O O5 0.309928 0.370634 0.250000
O O6 0.951561 0.778826 0.498739
O O7 0.000000 0.690946 0.750000
O O8 0.177053 0.500000 0.500000
O O9 0.239945 0.554331 0.750000
O O10 0.500000 0.500000 0.500000
O O11 0.459822 0.400795 0.250000
O O12 0.196832 0.000000 0.500000
#
# Coordination Sequence:
#
# PCOD9468435 Si02
#       7
#     8   8   8   8   4   8   8
#     4  10  21  34  56  85 103 136 181 220 271 306
#     4  10  21  35  54  80 107 134 183 231 256 305
#     4  10  17  33  55  70  98 131 167 212 258 311
#     4  10  21  38  57  79 110 142 170 211 269 336
#     4  12  22  30  44  66  94 134 174 206 252 302
#     4  10  20  33  47  69  98 132 168 219 260 290
#     4  10  21  36  55  76 107 150 180 207 268 323
#
# _framework density 17.140270999999998
#
# number of rings (size 3 to 8) (size 9 to 14) (size 15 to 20)
#    0.000    1.846    1.538    2.769    0.000    2.462 
#    0.000    0.000    0.000    0.923    0.000    0.000 
#    0.000    0.000    0.000    0.000    0.000    0.000 
#
# Total GULP energy -144938.004741 kJ/mol
# GULP energy per Si atom -5574.538644 kJ/mol
# Density = 1.710126 g / cm^3
# Si number density = 17.140271 Si / 1000 Ang^3
#
#
#
# Elastic Constant Matrix: (Units=GPa)
#
#
# Indices 1 2 3 4 5 6 
#
# 1 63.4090 67.4417 46.5250 0.0000 0.0000 0.0000
# 2 67.4417 147.7801 81.2866 0.0000 0.0000 0.0000
# 3 46.5250 81.2866 177.4024 0.0000 0.0000 0.0000
# 4 0.0000 0.0000 0.0000 29.1610 0.0000 0.0000
# 5 0.0000 0.0000 0.0000 0.0000 -7.8234 0.0000
# 6 0.0000 0.0000 0.0000 0.0000 0.0000 29.5308
#
#
#
# Elastic Compliance Matrix: (Units=1/GPa)
#
#
# Indices 1 2 3 4 5 6 
#
# 1 0.031288 -0.013056 -0.002223 0.000000 0.000000 0.000000
# 2 -0.013056 0.014495 -0.003218 0.000000 0.000000 0.000000
# 3 -0.002223 -0.003218 0.007694 0.000000 0.000000 0.000000
# 4 0.000000 0.000000 0.000000 0.034292 0.000000 0.000000
# 5 0.000000 0.000000 0.000000 0.000000 -0.127822 0.000000
# 6 0.000000 0.000000 0.000000 0.000000 0.000000 0.033863
#
#
# Mechanical properties :
#
#
# Convention : Reuss Voigt Hill
#
# Bulk Modulus (GPa) = 60.66573 86.56646 73.61609
# Shear Modulus (GPa) = 137.74588 23.06290 80.40439
#
# Velocity S-wave (km/s) = 8.97432 3.67214 6.85649
# Velocity P-wave (km/s) = 11.95220 8.28214 10.28224
#
# Compressibility (1/GPa) = 0.01648377
#
# Stress axis : x y z
#
# Youngs Moduli (GPa) = 31.96096 68.98948 129.96624
#
# Poissons Ratio (x) = 0.90072 0.28895
# Poissons Ratio (y) = 0.41728 0.41819
# Poissons Ratio (z) = 0.07106 0.22198
#
# Static dielectric constant tensor:
#      x y z
#    x 1.608040 0.000000 0.000000 
#    y 0.000000 1.524480 0.000000 
#    z 0.000000 0.000000 1.585980 
# 
# From -- ./inp_files/1325.got.cif
#   From: 2010.05.17/outbox.cif.g08.bks.cpg/sg63_1_cif.got.tgz:1325.got - 2010.06.03 15:47:04.
