data_PCOD9468505
_publ_section_title
;
Structure prediction by ZEFSAII (Michael W. Deem and Ramdas Pophale) SiO2 
 PCOD9468505
Probable space group: C M C M
;
_chemical_formula_sum "Si O2"
_cell_formula_units_Z 96
_cell_length_a 11.448710
_cell_length_b 14.315086
_cell_length_c 25.946617
_cell_angle_alpha 90.000000
_cell_angle_beta 90.000000
_cell_angle_gamma 90.000000
_cell_volume 4252.372073
_symmetry_space_group_name_H-M "C M C M"
_symmetry_group_IT_number 63
_symmetry_cell_setting 'orthorhombic'
loop_
_space_group_symop_operation_xyz
x,y,z
-x,-y,1/2+z
x,-y,-z
-x,y,1/2-z
-x,-y,-z
x,y,1/2-z
-x,y,z
x,-y,1/2+z
1/2+x,1/2+y,z
1/2-x,1/2-y,1/2+z
1/2+x,1/2-y,-z
1/2-x,1/2+y,1/2-z
1/2-x,1/2-y,-z
1/2+x,1/2+y,1/2-z
1/2-x,1/2+y,z
1/2+x,1/2-y,1/2+z
loop_
_atom_site_type_symbol
_atom_site_label
_atom_site_fract_x
_atom_site_fract_y
_atom_site_fract_z
Si Si1 0.626321 0.829111 0.889521
Si Si2 0.124597 0.175478 0.396779
Si Si3 0.127461 0.384709 0.347471
Si Si4 0.625353 0.315596 0.020231
Si Si5 0.630277 0.916471 0.459824
Si Si6 0.372200 0.343060 0.309123
O O1 0.500000 0.875990 0.883942
O O2 0.753791 0.874413 0.883674
O O3 0.627268 0.779151 0.945938
O O4 0.626508 0.743663 0.848572
O O5 0.126929 0.276747 0.368822
O O6 0.124494 0.191466 0.458486
O O7 0.000000 0.130051 0.383576
O O8 0.129688 0.443483 0.399934
O O9 0.250276 0.396807 0.318666
O O10 0.000000 0.398861 0.321549
O O11 0.500000 0.361692 0.034550
O O12 0.744546 0.366927 0.034303
O O13 0.500000 0.871555 0.466713
O O14 0.632288 0.000000 0.500000
O O15 0.368468 0.309843 0.250000
O O16 0.500000 0.391111 0.316089
#
# Coordination Sequence:
#
# PCOD9468505 Si02
#       6
#    16  16  16  16  16  16
#     4   9  16  24  37  58  82 108 135 164 199 240
#     4   9  16  25  40  61  82 108 138 169 201 236
#     4   9  17  29  43  60  85 112 137 170 204 241
#     4  10  18  27  41  61  83 109 142 171 200 243
#     4  10  20  31  42  57  81 115 146 170 202 248
#     4   9  16  26  40  58  82 110 138 169 204 244
#
# _framework density 22.575634999999998
#
# number of rings (size 3 to 8) (size 9 to 14) (size 15 to 20)
#    0.000    2.667    3.333    0.500    0.000    1.333 
#    0.000    0.000    0.000    0.000    0.000    0.000 
#    0.000    5.333    0.000   18.000    0.000   21.000 
#
# Total GULP energy -267232.397682 kJ/mol
# GULP energy per Si atom -5567.341618 kJ/mol
# Density = 2.252425 g / cm^3
# Si number density = 22.575635 Si / 1000 Ang^3
#
#
#
# Elastic Constant Matrix: (Units=GPa)
#
#
# Indices 1 2 3 4 5 6 
#
# 1 339.8104 37.6321 23.1583 0.0000 0.0000 0.0000
# 2 37.6321 30.3562 -9.8778 0.0000 0.0000 0.0000
# 3 23.1583 -9.8778 47.7481 0.0000 0.0000 0.0000
# 4 0.0000 0.0000 0.0000 8.9858 0.0000 0.0000
# 5 0.0000 0.0000 0.0000 0.0000 18.1229 0.0000
# 6 0.0000 0.0000 0.0000 0.0000 0.0000 22.1559
#
#
#
# Elastic Compliance Matrix: (Units=1/GPa)
#
#
# Indices 1 2 3 4 5 6 
#
# 1 0.003773 -0.005654 -0.003000 0.000000 0.000000 0.000000
# 2 -0.005654 0.043791 0.011801 0.000000 0.000000 0.000000
# 3 -0.003000 0.011801 0.024840 0.000000 0.000000 0.000000
# 4 0.000000 0.000000 0.000000 0.111287 0.000000 0.000000
# 5 0.000000 0.000000 0.000000 0.000000 0.055179 0.000000
# 6 0.000000 0.000000 0.000000 0.000000 0.000000 0.045135
#
#
# Mechanical properties :
#
#
# Convention : Reuss Voigt Hill
#
# Bulk Modulus (GPa) = 12.70648 57.74887 35.22768
# Shear Modulus (GPa) = 16.45047 34.31972 25.38509
#
# Velocity S-wave (km/s) = 2.70234 3.90322 3.35691
# Velocity P-wave (km/s) = 3.92141 6.77858 5.53745
#
# Compressibility (1/GPa) = 0.07869997
#
# Stress axis : x y z
#
# Youngs Moduli (GPa) = 265.01334 22.83552 40.25832
#
# Poissons Ratio (x) = 0.12911 0.12077
# Poissons Ratio (y) = 1.49837 -0.47511
# Poissons Ratio (z) = 0.79498 -0.26949
#
# Static dielectric constant tensor:
#      x y z
#    x 1.932290 0.000000 0.000000 
#    y 0.000000 1.858420 0.000000 
#    z 0.000000 0.000000 1.827670 
# 
# From -- ./inp_files/61484.got.cif
#   From: 2010.05.17/outbox.cif.g08.bks.cpg/sg63_31_cif.got.tgz:61484.got - 2010.06.03 15:47:04.
