data_PCOD9468081
_publ_section_title
;
Structure prediction by ZEFSAII (Michael W. Deem and Ramdas Pophale) SiO2 
 PCOD9468081
Probable space group: P N M A
;
_chemical_formula_sum "Si O2"
_cell_formula_units_Z 32
_cell_length_a 9.000000
_cell_length_b 12.000000
_cell_length_c 15.000000
_cell_angle_alpha 90.000000
_cell_angle_beta 90.000000
_cell_angle_gamma 90.000000
_cell_volume 1620.000000
_symmetry_space_group_name_H-M "P N M A"
_symmetry_group_IT_number 62
_symmetry_cell_setting 'orthorhombic'
loop_
_space_group_symop_operation_xyz
x,y,z
1/2-x,-y,1/2+z
1/2+x,1/2-y,1/2-z
-x,1/2+y,-z
-x,-y,-z
1/2+x,y,1/2-z
1/2-x,1/2+y,1/2+z
x,1/2-y,z
loop_
_atom_site_type_symbol
_atom_site_label
_atom_site_fract_x
_atom_site_fract_y
_atom_site_fract_z
Si Si1 0.836168 0.493440 0.149435
Si Si2 0.664124 0.112895 0.319752
Si Si3 0.667033 0.475041 0.968131
Si Si4 0.748697 0.250000 0.674303
Si Si5 0.605496 0.250000 0.863888
O O1 0.735642 0.441021 0.229616
O O2 0.820530 0.629612 0.144934
O O3 0.001688 0.444241 0.165674
O O4 0.771524 0.457967 0.053802
O O5 0.657047 0.250000 0.315386
O O6 0.766301 0.069995 0.402408
O O7 0.650110 0.360707 0.915307
O O8 0.500000 0.500000 0.000000
O O9 0.707025 0.250000 0.777158
O O10 0.926674 0.250000 0.655513
#
# Coordination Sequence:
#
# PCOD9468081 Si02
#       5
#     8   8   8   4   4
#     4  12  26  49  73 106 147 193 242 301 366 432
#     4  12  28  49  72 107 148 195 237 300 364 436
#     4  12  27  47  72 108 145 193 244 296 369 433
#     4  12  24  48  76 105 145 186 246 306 358 430
#     4  12  26  46  76 107 145 192 244 306 366 438
#
# _framework density 19.753086
#
# number of rings (size 3 to 8) (size 9 to 14) (size 15 to 20)
#    0.000    0.000    5.000    4.500    7.000    0.000 
#    0.000    0.000    0.000    0.000    0.000    0.000 
#    0.000    0.000    0.000    0.000    0.000    0.000 
#
# Total GULP energy -178898.567109 kJ/mol
# GULP energy per Si atom -5590.580222 kJ/mol
# Density = 1.970813 g / cm^3
# Si number density = 19.753086 Si / 1000 Ang^3
#
#
#
# Elastic Constant Matrix: (Units=GPa)
#
#
# Indices 1 2 3 4 5 6 
#
# 1 138.1796 72.5601 48.5682 0.0000 0.0000 0.0000
# 2 72.5601 185.2551 37.3607 0.0000 0.0000 0.0000
# 3 48.5682 37.3607 98.1648 0.0000 0.0000 0.0000
# 4 0.0000 0.0000 0.0000 60.4558 0.0000 0.0000
# 5 0.0000 0.0000 0.0000 0.0000 46.6873 0.0000
# 6 0.0000 0.0000 0.0000 0.0000 0.0000 37.8651
#
#
#
# Elastic Compliance Matrix: (Units=1/GPa)
#
#
# Indices 1 2 3 4 5 6 
#
# 1 0.010304 -0.003258 -0.003858 0.000000 0.000000 0.000000
# 2 -0.003258 0.006877 -0.001005 0.000000 0.000000 0.000000
# 3 -0.003858 -0.001005 0.012478 0.000000 0.000000 0.000000
# 4 0.000000 0.000000 0.000000 0.016541 0.000000 0.000000
# 5 0.000000 0.000000 0.000000 0.000000 0.021419 0.000000
# 6 0.000000 0.000000 0.000000 0.000000 0.000000 0.026410
#
#
# Mechanical properties :
#
#
# Convention : Reuss Voigt Hill
#
# Bulk Modulus (GPa) = 74.53500 82.06417 78.29958
# Shear Modulus (GPa) = 43.57573 46.54234 45.05904
#
# Velocity S-wave (km/s) = 4.70193 4.85934 4.78128
# Velocity P-wave (km/s) = 8.20321 8.55099 8.37891
#
# Compressibility (1/GPa) = 0.01341652
#
# Stress axis : x y z
#
# Youngs Moduli (GPa) = 97.05311 145.41916 80.13837
#
# Poissons Ratio (x) = 0.47372 0.30918
# Poissons Ratio (y) = 0.31616 0.08057
# Poissons Ratio (z) = 0.37443 0.14621
#
# Static dielectric constant tensor:
#      x y z
#    x 1.687220 0.000000 0.000000 
#    y 0.000000 1.638980 0.000000 
#    z 0.000000 0.000000 1.727130 
# 
# From -- ./inp_files/16461.got.cif
#   From: 2010.05.17/outbox.ucp.g08.bks.cvg/sg62_9_cif.got.tgz:16461.got - 2010.06.11 16:29:25.
