data_PCOD9468922
_publ_section_title
;
Structure prediction by ZEFSAII (Michael W. Deem and Ramdas Pophale) SiO2 
 PCOD9468922
Probable space group: C M C M
;
_chemical_formula_sum "Si O2"
_cell_formula_units_Z 112
_cell_length_a 29.335888
_cell_length_b 11.487814
_cell_length_c 14.199567
_cell_angle_alpha 90.000000
_cell_angle_beta 90.000000
_cell_angle_gamma 90.000000
_cell_volume 4785.328270
_symmetry_space_group_name_H-M "C M C M"
_symmetry_group_IT_number 63
_symmetry_cell_setting 'orthorhombic'
loop_
_space_group_symop_operation_xyz
x,y,z
-x,-y,1/2+z
x,-y,-z
-x,y,1/2-z
-x,-y,-z
x,y,1/2-z
-x,y,z
x,-y,1/2+z
1/2+x,1/2+y,z
1/2-x,1/2-y,1/2+z
1/2+x,1/2-y,-z
1/2-x,1/2+y,1/2-z
1/2-x,1/2-y,-z
1/2+x,1/2+y,1/2-z
1/2-x,1/2+y,z
1/2+x,1/2-y,1/2+z
loop_
_atom_site_type_symbol
_atom_site_label
_atom_site_fract_x
_atom_site_fract_y
_atom_site_fract_z
Si Si1 0.126119 0.416150 0.136327
Si Si2 0.950386 0.991758 0.388056
Si Si3 0.226831 0.483184 0.135385
Si Si4 0.050177 0.394770 0.863980
Si Si5 0.385576 0.704120 0.640800
Si Si6 0.283724 0.748942 0.634877
Si Si7 0.450545 0.760845 0.357751
O O1 0.131882 0.410694 0.250000
O O2 0.176107 0.447291 0.102400
O O3 0.089596 0.515118 0.112776
O O4 0.097936 0.303687 0.103665
O O5 0.904450 0.925984 0.360115
O O6 0.000000 0.939829 0.358237
O O7 0.950760 0.000000 0.500000
O O8 0.949568 0.122983 0.353330
O O9 0.228458 0.485435 0.250000
O O10 0.258086 0.371708 0.107502
O O11 0.234407 0.620484 0.107977
O O12 0.046823 0.393326 0.750000
O O13 0.070820 0.273271 0.898259
O O14 0.000000 0.420571 0.899728
O O15 0.381220 0.740779 0.750000
O O16 0.336164 0.733555 0.600728
O O17 0.283080 0.748971 0.750000
O O18 0.452203 0.807352 0.250000
O O19 0.500000 0.794212 0.400655
#
# Coordination Sequence:
#
# PCOD9468922 Si02
#       7
#    16  16  16  16  16  16  16
#     4   9  15  25  42  67 100 131 160 197 248 301
#     4  10  21  35  49  68  99 136 168 202 250 307
#     4   9  16  27  42  66 105 143 168 205 261 313
#     4   9  15  23  40  67  97 125 154 195 249 298
#     4  10  18  30  49  73  98 126 167 212 249 293
#     4   9  17  28  43  67 101 135 169 211 260 310
#     4   9  17  29  47  72 100 129 164 206 248 298
#
# _framework density 23.404874
#
# number of rings (size 3 to 8) (size 9 to 14) (size 15 to 20)
#    0.000    2.714    1.429    1.286    0.000    4.286 
#    0.000    4.286    0.000    0.857    0.000    8.000 
#    0.000    0.000    0.000    0.000    0.000    0.000 
#
# Total GULP energy -312080.867558 kJ/mol
# GULP energy per Si atom -5572.872635 kJ/mol
# Density = 2.335160 g / cm^3
# Si number density = 23.404874 Si / 1000 Ang^3
#
#
#
# Elastic Constant Matrix: (Units=GPa)
#
#
# Indices 1 2 3 4 5 6 
#
# 1 147.5718 83.1023 -0.7465 0.0000 0.0000 0.0000
# 2 83.1023 152.1770 -6.3486 0.0000 0.0000 0.0000
# 3 -0.7465 -6.3486 79.3322 0.0000 0.0000 0.0000
# 4 0.0000 0.0000 0.0000 -29.4557 0.0000 0.0000
# 5 0.0000 0.0000 0.0000 0.0000 2.0532 0.0000
# 6 0.0000 0.0000 0.0000 0.0000 0.0000 -496.5079
#
#
#
# Elastic Compliance Matrix: (Units=1/GPa)
#
#
# Indices 1 2 3 4 5 6 
#
# 1 0.009795 -0.005363 -0.000337 0.000000 0.000000 0.000000
# 2 -0.005363 0.009530 0.000712 0.000000 0.000000 0.000000
# 3 -0.000337 0.000712 0.012659 0.000000 0.000000 0.000000
# 4 0.000000 0.000000 0.000000 -0.033949 0.000000 0.000000
# 5 0.000000 0.000000 0.000000 0.000000 0.487036 0.000000
# 6 0.000000 0.000000 0.000000 0.000000 0.000000 -0.002014
#
#
# Mechanical properties :
#
#
# Convention : Reuss Voigt Hill
#
# Bulk Modulus (GPa) = 45.43815 59.01059 52.22437
# Shear Modulus (GPa) = 9.99267 -84.57715 -37.29224
#
# Velocity S-wave (km/s) = 2.06851 -6.01789 -3.99601
# Velocity P-wave (km/s) = 5.01609 4.79781 1.03492
#
# Compressibility (1/GPa) = 0.02200794
#
# Stress axis : x y z
#
# Youngs Moduli (GPa) = 102.09695 104.93650 78.99492
#
# Poissons Ratio (x) = 0.56275 0.02662
# Poissons Ratio (y) = 0.54752 -0.05626
# Poissons Ratio (z) = 0.03441 -0.07473
#
# Static dielectric constant tensor:
#      x y z
#    x 1.864760 0.000000 0.000000 
#    y 0.000000 1.969420 0.000000 
#    z 0.000000 0.000000 1.934210 
# 
# From -- ./inp_files/58338.got.cif
#   From: 2010.05.17/outbox.cif.g08.bks.cpg/sg63_30_cif.got.tgz:58338.got - 2010.06.03 15:47:04.
