data_PCOD9468349
_publ_section_title
;
Structure prediction by ZEFSAII (Michael W. Deem and Ramdas Pophale) SiO2 
 PCOD9468349
Probable space group: C M C M
;
_chemical_formula_sum "Si O2"
_cell_formula_units_Z 64
_cell_length_a 5.490075
_cell_length_b 28.329655
_cell_length_c 18.763572
_cell_angle_alpha 90.000000
_cell_angle_beta 90.000000
_cell_angle_gamma 90.000000
_cell_volume 2918.334580
_symmetry_space_group_name_H-M "C M C M"
_symmetry_group_IT_number 63
_symmetry_cell_setting 'orthorhombic'
loop_
_space_group_symop_operation_xyz
x,y,z
-x,-y,1/2+z
x,-y,-z
-x,y,1/2-z
-x,-y,-z
x,y,1/2-z
-x,y,z
x,-y,1/2+z
1/2+x,1/2+y,z
1/2-x,1/2-y,1/2+z
1/2+x,1/2-y,-z
1/2-x,1/2+y,1/2-z
1/2-x,1/2-y,-z
1/2+x,1/2+y,1/2-z
1/2-x,1/2+y,z
1/2+x,1/2-y,1/2+z
loop_
_atom_site_type_symbol
_atom_site_label
_atom_site_fract_x
_atom_site_fract_y
_atom_site_fract_z
Si Si1 0.000000 0.491409 0.836268
Si Si2 0.000000 0.848869 0.138925
Si Si3 0.500000 0.798449 0.355611
Si Si4 0.500000 0.295594 0.595925
Si Si5 0.500000 0.388162 0.983970
Si Si6 0.500000 0.459959 0.333690
Si Si7 0.500000 0.197365 0.473608
Si Si8 0.000000 0.412401 0.553212
O O1 0.753897 0.518161 0.860559
O O2 0.000000 0.488435 0.750000
O O3 0.000000 0.440582 0.873614
O O4 0.752973 0.823656 0.165243
O O5 0.000000 0.903727 0.159329
O O6 0.000000 0.852836 0.051788
O O7 0.500000 0.742181 0.339518
O O8 0.500000 0.804931 0.441764
O O9 0.500000 0.353071 0.586099
O O10 0.247208 0.281878 0.557764
O O11 0.258393 0.419852 0.985333
O O12 0.500000 0.471348 0.250000
O O13 0.500000 0.144149 0.443373
#
# Coordination Sequence:
#
# PCOD9468349 Si02
#       8
#     8   8   8   8   8   8   8   8
#     4  10  21  40  62  79  94 128 183 225 257 316
#     4  12  21  34  52  77 107 141 174 218 260 319
#     4  12  19  30  50  77 109 144 182 204 241 309
#     4  10  18  28  46  74 111 145 175 205 234 293
#     4  10  19  32  48  79 118 138 163 206 259 312
#     4  10  23  42  59  76  99 129 177 235 268 295
#     4  10  17  29  45  72 113 141 162 207 252 292
#     4  10  18  33  53  76 108 137 159 212 266 309
#
# _framework density 21.930315
#
# number of rings (size 3 to 8) (size 9 to 14) (size 15 to 20)
#    0.000    1.500    5.000    3.000    0.000    0.000 
#    0.000    3.750    0.000    0.000    0.000   21.000 
#    0.000    0.000    0.000    0.000    0.000    0.000 
#
# Total GULP energy -178158.244719 kJ/mol
# GULP energy per Si atom -5567.445147 kJ/mol
# Density = 2.188040 g / cm^3
# Si number density = 21.930315 Si / 1000 Ang^3
#
#
#
# Elastic Constant Matrix: (Units=GPa)
#
#
# Indices 1 2 3 4 5 6 
#
# 1 223.7080 25.3223 34.4253 0.0000 0.0000 0.0000
# 2 25.3223 81.5870 30.0379 0.0000 0.0000 0.0000
# 3 34.4253 30.0379 45.4219 0.0000 0.0000 0.0000
# 4 0.0000 0.0000 0.0000 -24.1114 0.0000 0.0000
# 5 0.0000 0.0000 0.0000 0.0000 -12.6317 0.0000
# 6 0.0000 0.0000 0.0000 0.0000 0.0000 29.4112
#
#
#
# Elastic Compliance Matrix: (Units=1/GPa)
#
#
# Indices 1 2 3 4 5 6 
#
# 1 0.005063 -0.000210 -0.003699 0.000000 0.000000 0.000000
# 2 -0.000210 0.016210 -0.010561 0.000000 0.000000 0.000000
# 3 -0.003699 -0.010561 0.031803 0.000000 0.000000 0.000000
# 4 0.000000 0.000000 0.000000 -0.041474 0.000000 0.000000
# 5 0.000000 0.000000 0.000000 0.000000 -0.079166 0.000000
# 6 0.000000 0.000000 0.000000 0.000000 0.000000 0.034001
#
#
# Mechanical properties :
#
#
# Convention : Reuss Voigt Hill
#
# Bulk Modulus (GPa) = 41.42901 58.92088 50.17495
# Shear Modulus (GPa) = 1461.35234 15.92903 738.64068
#
# Velocity S-wave (km/s) = 25.84199 2.69801 18.37237
# Velocity P-wave (km/s) = 30.15532 6.05238 21.74827
#
# Compressibility (1/GPa) = 0.02413767
#
# Stress axis : x y z
#
# Youngs Moduli (GPa) = 197.51111 61.68959 31.44349
#
# Poissons Ratio (x) = 0.01294 0.11630
# Poissons Ratio (y) = 0.04142 0.33208
# Poissons Ratio (z) = 0.73051 0.65150
#
# Static dielectric constant tensor:
#      x y z
#    x 2.039280 0.000000 0.000000 
#    y 0.000000 1.796330 0.000000 
#    z 0.000000 0.000000 1.837830 
# 
# From -- ./inp_files/58768.got.cif
#   From: 2010.05.17/outbox.cif.g08.bks.cpg/sg63_30_cif.got.tgz:58768.got - 2010.06.03 15:47:04.
