data_PCOD9468762
_publ_section_title
;
Structure prediction by ZEFSAII (Michael W. Deem and Ramdas Pophale) SiO2 
 PCOD9468762
Probable space group: C M C M
;
_chemical_formula_sum "Si O2"
_cell_formula_units_Z 112
_cell_length_a 26.196278
_cell_length_b 13.163290
_cell_length_c 16.463429
_cell_angle_alpha 90.000000
_cell_angle_beta 90.000000
_cell_angle_gamma 90.000000
_cell_volume 5677.071121
_symmetry_space_group_name_H-M "C M C M"
_symmetry_group_IT_number 63
_symmetry_cell_setting 'orthorhombic'
loop_
_space_group_symop_operation_xyz
x,y,z
-x,-y,1/2+z
x,-y,-z
-x,y,1/2-z
-x,-y,-z
x,y,1/2-z
-x,y,z
x,-y,1/2+z
1/2+x,1/2+y,z
1/2-x,1/2-y,1/2+z
1/2+x,1/2-y,-z
1/2-x,1/2+y,1/2-z
1/2-x,1/2-y,-z
1/2+x,1/2+y,1/2-z
1/2-x,1/2+y,z
1/2+x,1/2-y,1/2+z
loop_
_atom_site_type_symbol
_atom_site_label
_atom_site_fract_x
_atom_site_fract_y
_atom_site_fract_z
Si Si1 0.645546 0.102667 0.159794
Si Si2 0.830227 0.174345 0.613111
Si Si3 0.557464 0.114892 0.469417
Si Si4 0.870813 0.233026 0.438004
Si Si5 0.138083 0.036136 0.156757
Si Si6 0.749735 0.557424 0.413865
Si Si7 0.272382 0.768772 0.347516
O O1 0.638057 0.063462 0.250000
O O2 0.659630 0.222719 0.162374
O O3 0.693034 0.041595 0.119894
O O4 0.594909 0.104693 0.106909
O O5 0.841056 0.200869 0.519936
O O6 0.771126 0.147876 0.634985
O O7 0.868184 0.081848 0.634049
O O8 0.500000 0.150809 0.451333
O O9 0.585171 0.190601 0.533189
O O10 0.554429 0.000000 0.500000
O O11 0.886428 0.126004 0.396495
O O12 0.829940 0.286129 0.377625
O O13 0.125763 0.052931 0.250000
O O14 0.198993 0.046501 0.141064
O O15 0.743072 0.500000 0.500000
O O16 0.747808 0.680946 0.409499
O O17 0.271949 0.745925 0.250000
#
# Coordination Sequence:
#
# PCOD9468762 Si02
#       7
#    16  16  16  16  16  16  16
#     4  10  20  36  56  80 111 145 186 235 285 331
#     4  10  19  32  51  80 116 155 188 219 264 325
#     4  10  23  43  64  83 103 133 178 231 286 343
#     4  10  20  35  57  80 108 146 186 232 280 333
#     4  11  20  32  52  82 120 156 191 225 263 319
#     4  10  18  29  47  76 115 157 193 225 264 318
#     4  10  19  33  50  76 116 156 196 236 276 324
#
# _framework density 19.728483000000001
#
# number of rings (size 3 to 8) (size 9 to 14) (size 15 to 20)
#    0.000    1.857    0.000    7.714    0.000    4.857 
#    0.000    2.857    0.000   10.286    0.000    0.000 
#    0.000    0.000    0.000    0.000    0.000    0.000 
#
# Total GULP energy -311776.944813 kJ/mol
# GULP energy per Si atom -5567.445443 kJ/mol
# Density = 1.968358 g / cm^3
# Si number density = 19.728483 Si / 1000 Ang^3
#
#
#
# Elastic Constant Matrix: (Units=GPa)
#
#
# Indices 1 2 3 4 5 6 
#
# 1 99.5294 3.2731 29.1995 0.0000 0.0000 0.0000
# 2 3.2731 47.9756 12.9631 0.0000 0.0000 0.0000
# 3 29.1995 12.9631 125.1403 0.0000 0.0000 0.0000
# 4 0.0000 0.0000 0.0000 19.2087 0.0000 0.0000
# 5 0.0000 0.0000 0.0000 0.0000 4.7898 0.0000
# 6 0.0000 0.0000 0.0000 0.0000 0.0000 14.0926
#
#
#
# Elastic Compliance Matrix: (Units=1/GPa)
#
#
# Indices 1 2 3 4 5 6 
#
# 1 0.010786 -0.000057 -0.002511 0.000000 0.000000 0.000000
# 2 -0.000057 0.021444 -0.002208 0.000000 0.000000 0.000000
# 3 -0.002511 -0.002208 0.008806 0.000000 0.000000 0.000000
# 4 0.000000 0.000000 0.000000 0.052060 0.000000 0.000000
# 5 0.000000 0.000000 0.000000 0.000000 0.208779 0.000000
# 6 0.000000 0.000000 0.000000 0.000000 0.000000 0.070959
#
#
# Mechanical properties :
#
#
# Convention : Reuss Voigt Hill
#
# Bulk Modulus (GPa) = 31.76271 40.39074 36.07672
# Shear Modulus (GPa) = 12.72651 22.76552 17.74602
#
# Velocity S-wave (km/s) = 2.54260 3.40066 3.00244
# Velocity P-wave (km/s) = 4.97541 5.99475 5.50871
#
# Compressibility (1/GPa) = 0.03148346
#
# Stress axis : x y z
#
# Youngs Moduli (GPa) = 92.71480 46.63207 113.56418
#
# Poissons Ratio (x) = 0.00268 0.28513
# Poissons Ratio (y) = 0.00533 0.25075
# Poissons Ratio (z) = 0.23278 0.10296
#
# Static dielectric constant tensor:
#      x y z
#    x 1.720470 0.000000 0.000000 
#    y 0.000000 1.869250 0.000000 
#    z 0.000000 0.000000 1.709850 
# 
# From -- ./inp_files/37967.got.cif
#   From: 2010.05.17/outbox.cif.g08.bks.cpg/sg63_19_cif.got.tgz:37967.got - 2010.06.03 15:47:04.
