data_PCOD9468847
_publ_section_title
;
Structure prediction by ZEFSAII (Michael W. Deem and Ramdas Pophale) SiO2 
 PCOD9468847
Probable space group: C M C M
;
_chemical_formula_sum "Si O2"
_cell_formula_units_Z 56
_cell_length_a 23.640399
_cell_length_b 12.487248
_cell_length_c 9.047698
_cell_angle_alpha 90.000000
_cell_angle_beta 90.000000
_cell_angle_gamma 90.000000
_cell_volume 2670.912344
_symmetry_space_group_name_H-M "C M C M"
_symmetry_group_IT_number 63
_symmetry_cell_setting 'orthorhombic'
loop_
_space_group_symop_operation_xyz
x,y,z
-x,-y,1/2+z
x,-y,-z
-x,y,1/2-z
-x,-y,-z
x,y,1/2-z
-x,y,z
x,-y,1/2+z
1/2+x,1/2+y,z
1/2-x,1/2-y,1/2+z
1/2+x,1/2-y,-z
1/2-x,1/2+y,1/2-z
1/2-x,1/2-y,-z
1/2+x,1/2+y,1/2-z
1/2-x,1/2+y,z
1/2+x,1/2-y,1/2+z
loop_
_atom_site_type_symbol
_atom_site_label
_atom_site_fract_x
_atom_site_fract_y
_atom_site_fract_z
Si Si1 0.827837 0.159154 0.578273
Si Si2 0.500000 0.882918 0.572067
Si Si3 0.937702 0.197831 0.076501
Si Si4 0.211603 0.599015 0.421246
O O1 0.829714 0.128440 0.750000
O O2 0.886040 0.135315 0.495298
O O3 0.819522 0.287807 0.567947
O O4 0.772185 0.113883 0.500282
O O5 0.500000 0.887572 0.750000
O O6 0.551915 0.810253 0.510202
O O7 0.500000 0.000000 0.500000
O O8 0.927011 0.217682 0.250000
O O9 0.000000 0.144634 0.063866
O O10 0.181350 0.500000 0.500000
O O11 0.220025 0.574225 0.250000
#
# Coordination Sequence:
#
# PCOD9468847 Si02
#       4
#    16   8  16  16
#     4  10  20  35  56  80 108 144 181 222 270 322
#     4  10  18  30  46  68  99 134 173 214 258 312
#     4   9  19  33  50  74 103 139 175 214 261 315
#     4  10  21  36  55  80 108 140 180 226 272 322
#
# _framework density 20.966618
#
# number of rings (size 3 to 8) (size 9 to 14) (size 15 to 20)
#    0.857    1.429    0.000    3.429    0.000    4.571 
#    0.000    2.857    0.000    0.857    0.000    0.000 
#    0.000    0.000    0.000    0.000    0.000    0.000 
#
# Total GULP energy -156195.736991 kJ/mol
# GULP energy per Si atom -5578.419178 kJ/mol
# Density = 2.091890 g / cm^3
# Si number density = 20.966618 Si / 1000 Ang^3
#
#
#
# Elastic Constant Matrix: (Units=GPa)
#
#
# Indices 1 2 3 4 5 6 
#
# 1 86.8858 -13.0300 40.2048 0.0000 0.0000 0.0000
# 2 -13.0300 50.7187 21.8655 0.0000 0.0000 0.0000
# 3 40.2048 21.8655 160.5270 0.0000 0.0000 0.0000
# 4 0.0000 0.0000 0.0000 23.1839 0.0000 0.0000
# 5 0.0000 0.0000 0.0000 0.0000 28.6167 0.0000
# 6 0.0000 0.0000 0.0000 0.0000 0.0000 3.2612
#
#
#
# Elastic Compliance Matrix: (Units=1/GPa)
#
#
# Indices 1 2 3 4 5 6 
#
# 1 0.014359 0.005566 -0.004354 0.000000 0.000000 0.000000
# 2 0.005566 0.023104 -0.004541 0.000000 0.000000 0.000000
# 3 -0.004354 -0.004541 0.007939 0.000000 0.000000 0.000000
# 4 0.000000 0.000000 0.000000 0.043133 0.000000 0.000000
# 5 0.000000 0.000000 0.000000 0.000000 0.034945 0.000000
# 6 0.000000 0.000000 0.000000 0.000000 0.000000 0.306639
#
#
# Mechanical properties :
#
#
# Convention : Reuss Voigt Hill
#
# Bulk Modulus (GPa) = 25.81095 44.02358 34.91726
# Shear Modulus (GPa) = 11.11870 27.61843 19.36856
#
# Velocity S-wave (km/s) = 2.30533 3.63334 3.04267
# Velocity P-wave (km/s) = 4.40719 6.21644 5.38829
#
# Compressibility (1/GPa) = 0.03874325
#
# Stress axis : x y z
#
# Youngs Moduli (GPa) = 69.64240 43.28187 125.96610
#
# Poissons Ratio (x) = -0.24092 0.54852
# Poissons Ratio (y) = -0.38765 0.57203
# Poissons Ratio (z) = 0.30326 0.19655
#
# Static dielectric constant tensor:
#      x y z
#    x 1.770730 0.000000 0.000000 
#    y 0.000000 1.782660 0.000000 
#    z 0.000000 0.000000 1.707800 
# 
# From -- ./inp_files/9534.got.cif
#   From: 2010.05.17/outbox.cif.g08.bks.cpg/sg63_5_cif.got.tgz:9534.got - 2010.06.03 15:47:04.
