data_PCOD9468291
_publ_section_title
;
Structure prediction by ZEFSAII (Michael W. Deem and Ramdas Pophale) SiO2 
 PCOD9468291
Probable space group: C M C M
;
_chemical_formula_sum "Si O2"
_cell_formula_units_Z 80
_cell_length_a 7.737340
_cell_length_b 20.979755
_cell_length_c 26.035890
_cell_angle_alpha 90.000000
_cell_angle_beta 90.000000
_cell_angle_gamma 90.000000
_cell_volume 4226.340870
_symmetry_space_group_name_H-M "C M C M"
_symmetry_group_IT_number 63
_symmetry_cell_setting 'orthorhombic'
loop_
_space_group_symop_operation_xyz
x,y,z
-x,-y,1/2+z
x,-y,-z
-x,y,1/2-z
-x,-y,-z
x,y,1/2-z
-x,y,z
x,-y,1/2+z
1/2+x,1/2+y,z
1/2-x,1/2-y,1/2+z
1/2+x,1/2-y,-z
1/2-x,1/2+y,1/2-z
1/2-x,1/2-y,-z
1/2+x,1/2+y,1/2-z
1/2-x,1/2+y,z
1/2+x,1/2-y,1/2+z
loop_
_atom_site_type_symbol
_atom_site_label
_atom_site_fract_x
_atom_site_fract_y
_atom_site_fract_z
Si Si1 0.211697 0.936200 0.471095
Si Si2 0.704738 0.385576 0.362554
Si Si3 0.788082 0.242506 0.250000
Si Si4 0.794442 0.609325 0.750000
Si Si5 0.795418 0.763680 0.639660
Si Si6 0.208159 0.812120 0.967002
O O1 0.266790 0.925639 0.411886
O O2 0.269551 0.874897 0.503799
O O3 0.000000 0.878413 0.367659
O O4 0.268807 0.000000 0.500000
O O5 0.500000 0.562769 0.529222
O O6 0.739061 0.415237 0.306131
O O7 0.776789 0.313178 0.365132
O O8 0.734970 0.316814 0.250000
O O9 0.726823 0.216013 0.304454
O O10 0.000000 0.241343 0.250000
O O11 0.000000 0.608906 0.750000
O O12 0.722167 0.799071 0.590127
O O13 0.000000 0.776397 0.640318
O O14 0.000000 0.817230 0.964069
O O15 0.250000 0.750000 0.000000
#
# Coordination Sequence:
#
# PCOD9468291 Si02
#       6
#    16  16   8   8  16  16
#     4   9  18  31  46  67  99 134 164 198 241 287
#     4  10  17  27  46  70  94 123 160 196 233 283
#     4   7  12  23  37  58  85 113 139 175 227 278
#     4   9  17  29  45  66  95 125 153 195 245 282
#     4   9  16  26  43  65  93 122 152 193 242 289
#     4  10  18  29  47  69  92 125 162 200 243 284
#
# _framework density 18.928902999999998
#
# number of rings (size 3 to 8) (size 9 to 14) (size 15 to 20)
#    0.000    2.800    2.000    2.100    0.000    0.000 
#    0.000    0.000    0.000    6.600    0.000    7.000 
#    0.000    0.000    0.000    0.000    0.000    0.000 
#
# Total GULP energy -222762.439881 kJ/mol
# GULP energy per Si atom -5569.060997 kJ/mol
# Density = 1.888582 g / cm^3
# Si number density = 18.928903 Si / 1000 Ang^3
#
#
#
# Elastic Constant Matrix: (Units=GPa)
#
#
# Indices 1 2 3 4 5 6 
#
# 1 26.6161 -3.4257 6.0716 0.0000 0.0000 0.0000
# 2 -3.4257 85.5958 72.2838 0.0000 0.0000 0.0000
# 3 6.0716 72.2838 242.9351 0.0000 0.0000 0.0000
# 4 0.0000 0.0000 0.0000 19.4918 0.0000 0.0000
# 5 0.0000 0.0000 0.0000 0.0000 13.9885 0.0000
# 6 0.0000 0.0000 0.0000 0.0000 0.0000 10.0846
#
#
#
# Elastic Compliance Matrix: (Units=1/GPa)
#
#
# Indices 1 2 3 4 5 6 
#
# 1 0.038407 0.003136 -0.001893 0.000000 0.000000 0.000000
# 2 0.003136 0.015860 -0.004797 0.000000 0.000000 0.000000
# 3 -0.001893 -0.004797 0.005591 0.000000 0.000000 0.000000
# 4 0.000000 0.000000 0.000000 0.051304 0.000000 0.000000
# 5 0.000000 0.000000 0.000000 0.000000 0.071487 0.000000
# 6 0.000000 0.000000 0.000000 0.000000 0.000000 0.099161
#
#
# Mechanical properties :
#
#
# Convention : Reuss Voigt Hill
#
# Bulk Modulus (GPa) = 18.95804 56.11181 37.53493
# Shear Modulus (GPa) = 16.31318 27.39414 21.85366
#
# Velocity S-wave (km/s) = 2.93885 3.80835 3.40150
# Velocity P-wave (km/s) = 4.64251 7.00328 5.94133
#
# Compressibility (1/GPa) = 0.05274807
#
# Stress axis : x y z
#
# Youngs Moduli (GPa) = 26.03718 63.05369 178.85799
#
# Poissons Ratio (x) = -0.19771 0.33855
# Poissons Ratio (y) = -0.08164 0.85803
# Poissons Ratio (z) = 0.04928 0.30249
#
# Static dielectric constant tensor:
#      x y z
#    x 1.717010 0.000000 0.000000 
#    y 0.000000 1.611700 0.000000 
#    z 0.000000 0.000000 1.742610 
# 
# From -- ./inp_files/59534.got.cif
#   From: 2010.05.17/outbox.cif.g08.bks.cpg/sg63_30_cif.got.tgz:59534.got - 2010.06.03 15:47:04.
