data_PCOD9468736
_publ_section_title
;
Structure prediction by ZEFSAII (Michael W. Deem and Ramdas Pophale) SiO2 
 PCOD9468736
Probable space group: C M C M
;
_chemical_formula_sum "Si O2"
_cell_formula_units_Z 80
_cell_length_a 7.661234
_cell_length_b 29.122696
_cell_length_c 21.356879
_cell_angle_alpha 90.000000
_cell_angle_beta 90.000000
_cell_angle_gamma 90.000000
_cell_volume 4765.056904
_symmetry_space_group_name_H-M "C M C M"
_symmetry_group_IT_number 63
_symmetry_cell_setting 'orthorhombic'
loop_
_space_group_symop_operation_xyz
x,y,z
-x,-y,1/2+z
x,-y,-z
-x,y,1/2-z
-x,-y,-z
x,y,1/2-z
-x,y,z
x,-y,1/2+z
1/2+x,1/2+y,z
1/2-x,1/2-y,1/2+z
1/2+x,1/2-y,-z
1/2-x,1/2+y,1/2-z
1/2-x,1/2-y,-z
1/2+x,1/2+y,1/2-z
1/2-x,1/2+y,z
1/2+x,1/2-y,1/2+z
loop_
_atom_site_type_symbol
_atom_site_label
_atom_site_fract_x
_atom_site_fract_y
_atom_site_fract_z
Si Si1 0.000000 0.429627 0.681191
Si Si2 0.000000 0.547521 0.462907
Si Si3 0.710631 0.246624 0.182494
Si Si4 0.196658 0.142089 0.156875
Si Si5 0.702792 0.620453 0.487923
Si Si6 0.210005 0.212020 0.947198
O O1 0.833618 0.395719 0.678779
O O2 0.000000 0.453394 0.750000
O O3 0.000000 0.456013 0.613840
O O4 0.000000 0.500000 0.500000
O O5 0.168966 0.577337 0.483352
O O6 0.771095 0.264787 0.250000
O O7 0.500000 0.249564 0.181164
O O8 0.757607 0.192989 0.178798
O O9 0.777214 0.271538 0.120221
O O10 0.204755 0.142287 0.081516
O O11 0.000000 0.130300 0.175442
O O12 0.500000 0.608531 0.502257
O O13 0.768548 0.661224 0.532777
O O14 0.000000 0.209344 0.944337
O O15 0.250000 0.250000 0.000000
#
# Coordination Sequence:
#
# PCOD9468736 Si02
#       6
#     8   8  16  16  16  16
#     4  10  20  34  52  74 106 132 160 208 264 320
#     4  10  22  38  60  80 100 132 174 220 274 310
#     4  10  19  29  42  64 100 142 180 211 246 293
#     4  10  18  29  46  71 102 136 168 202 251 311
#     4   9  19  34  52  78 103 131 173 215 259 310
#     4  10  19  29  47  70 100 139 176 207 246 299
#
# _framework density 16.788886999999999
#
# number of rings (size 3 to 8) (size 9 to 14) (size 15 to 20)
#    0.000    2.200    3.000    0.600    1.400    2.000 
#    0.000    0.000    0.000    1.200    0.000    0.000 
#    0.000    0.000    0.000    0.000    0.000    0.000 
#
# Total GULP energy -223004.078881 kJ/mol
# GULP energy per Si atom -5575.101972 kJ/mol
# Density = 1.675068 g / cm^3
# Si number density = 16.788887 Si / 1000 Ang^3
#
#
#
# Elastic Constant Matrix: (Units=GPa)
#
#
# Indices 1 2 3 4 5 6 
#
# 1 65.7903 25.4695 33.6721 0.0000 0.0000 0.0000
# 2 25.4695 82.4643 68.2502 0.0000 0.0000 0.0000
# 3 33.6721 68.2502 146.0648 0.0000 0.0000 0.0000
# 4 0.0000 0.0000 0.0000 11.6051 0.0000 0.0000
# 5 0.0000 0.0000 0.0000 0.0000 5.5113 0.0000
# 6 0.0000 0.0000 0.0000 0.0000 0.0000 15.3891
#
#
#
# Elastic Compliance Matrix: (Units=1/GPa)
#
#
# Indices 1 2 3 4 5 6 
#
# 1 0.017808 -0.003428 -0.002503 0.000000 0.000000 0.000000
# 2 -0.003428 0.020433 -0.008757 0.000000 0.000000 0.000000
# 3 -0.002503 -0.008757 0.011515 0.000000 0.000000 0.000000
# 4 0.000000 0.000000 0.000000 0.086169 0.000000 0.000000
# 5 0.000000 0.000000 0.000000 0.000000 0.181444 0.000000
# 6 0.000000 0.000000 0.000000 0.000000 0.000000 0.064981
#
#
# Mechanical properties :
#
#
# Convention : Reuss Voigt Hill
#
# Bulk Modulus (GPa) = 49.07061 61.01144 55.04103
# Shear Modulus (GPa) = 11.94681 17.62961 14.78821
#
# Velocity S-wave (km/s) = 2.67046 3.24400 2.97110
# Velocity P-wave (km/s) = 6.22896 7.10286 6.68022
#
# Compressibility (1/GPa) = 0.02037880
#
# Stress axis : x y z
#
# Youngs Moduli (GPa) = 56.15368 48.94026 86.84097
#
# Poissons Ratio (x) = 0.16778 0.21740
# Poissons Ratio (y) = 0.19251 0.76049
# Poissons Ratio (z) = 0.14058 0.42858
#
# Static dielectric constant tensor:
#      x y z
#    x 1.600640 0.000000 0.000000 
#    y 0.000000 1.515030 0.000000 
#    z 0.000000 0.000000 1.625840 
# 
# From -- ./inp_files/51207.got.cif
#   From: 2010.05.17/outbox.cif.g08.bks.cpg/sg63_26_cif.got.tgz:51207.got - 2010.06.03 15:47:04.
