data_PCOD9468667
_publ_section_title
;
Structure prediction by ZEFSAII (Michael W. Deem and Ramdas Pophale) SiO2 
 PCOD9468667
Probable space group: C M C M
;
_chemical_formula_sum "Si O2"
_cell_formula_units_Z 112
_cell_length_a 24.181929
_cell_length_b 14.153216
_cell_length_c 13.578513
_cell_angle_alpha 90.000000
_cell_angle_beta 90.000000
_cell_angle_gamma 90.000000
_cell_volume 4647.274106
_symmetry_space_group_name_H-M "C M C M"
_symmetry_group_IT_number 63
_symmetry_cell_setting 'orthorhombic'
loop_
_space_group_symop_operation_xyz
x,y,z
-x,-y,1/2+z
x,-y,-z
-x,y,1/2-z
-x,-y,-z
x,y,1/2-z
-x,y,z
x,-y,1/2+z
1/2+x,1/2+y,z
1/2-x,1/2-y,1/2+z
1/2+x,1/2-y,-z
1/2-x,1/2+y,1/2-z
1/2-x,1/2-y,-z
1/2+x,1/2+y,1/2-z
1/2-x,1/2+y,z
1/2+x,1/2-y,1/2+z
loop_
_atom_site_type_symbol
_atom_site_label
_atom_site_fract_x
_atom_site_fract_y
_atom_site_fract_z
Si Si1 0.937388 0.444895 0.870444
Si Si2 0.276295 0.249254 0.868720
Si Si3 0.881717 0.153086 0.054189
Si Si4 0.933583 0.658289 0.862470
Si Si5 0.132615 0.046749 0.864130
Si Si6 0.171703 0.643546 0.130698
Si Si7 0.736669 0.041941 0.868535
O O1 0.938971 0.446589 0.750000
O O2 0.919827 0.551953 0.898607
O O3 0.891364 0.369079 0.900960
O O4 0.000000 0.425192 0.904289
O O5 0.281043 0.259312 0.750000
O O6 0.318813 0.320654 0.916877
O O7 0.212640 0.271453 0.894931
O O8 0.288813 0.142128 0.897794
O O9 0.914224 0.246812 0.084640
O O10 0.893597 0.056297 0.114487
O O11 0.889660 0.123209 0.941102
O O12 0.911628 0.664563 0.750000
O O13 0.000000 0.658265 0.858775
O O14 0.126878 0.072969 0.750000
O O15 0.198074 0.038429 0.888819
O O16 0.169912 0.644211 0.250000
O O17 0.204405 0.549821 0.098055
O O18 0.732896 0.040508 0.750000
#
# Coordination Sequence:
#
# PCOD9468667 Si02
#       7
#    16  16  16  16  16  16  16
#     4   8  14  25  43  71 108 145 177 220 278 319
#     4  10  18  28  48  77 107 142 186 224 268 328
#     4  11  20  32  55  77 101 142 181 219 269 329
#     4   9  17  30  51  81 111 137 175 226 274 323
#     4  10  21  36  50  71 106 143 176 217 273 325
#     4   9  15  25  43  70 106 143 177 218 266 326
#     4   9  17  30  47  69 106 144 171 217 272 319
#
# _framework density 24.100148999999998
#
# number of rings (size 3 to 8) (size 9 to 14) (size 15 to 20)
#    0.000    2.571    1.429    3.000    0.000    2.857 
#    0.000    1.429    0.000    1.286    0.000    2.000 
#    0.000   13.714    0.000    2.000    0.000    0.286 
#
# Total GULP energy -313480.944741 kJ/mol
# GULP energy per Si atom -5597.874013 kJ/mol
# Density = 2.404530 g / cm^3
# Si number density = 24.100149 Si / 1000 Ang^3
#
#
#
# Elastic Constant Matrix: (Units=GPa)
#
#
# Indices 1 2 3 4 5 6 
#
# 1 76.9647 30.5733 -1.0500 0.0000 0.0000 0.0000
# 2 30.5733 123.2418 33.5251 0.0000 0.0000 0.0000
# 3 -1.0500 33.5251 133.4813 0.0000 0.0000 0.0000
# 4 0.0000 0.0000 0.0000 31.7971 0.0000 0.0000
# 5 0.0000 0.0000 0.0000 0.0000 6.0511 0.0000
# 6 0.0000 0.0000 0.0000 0.0000 0.0000 26.0997
#
#
#
# Elastic Compliance Matrix: (Units=1/GPa)
#
#
# Indices 1 2 3 4 5 6 
#
# 1 0.014561 -0.003911 0.001097 0.000000 0.000000 0.000000
# 2 -0.003911 0.009759 -0.002482 0.000000 0.000000 0.000000
# 3 0.001097 -0.002482 0.008124 0.000000 0.000000 0.000000
# 4 0.000000 0.000000 0.000000 0.031449 0.000000 0.000000
# 5 0.000000 0.000000 0.000000 0.000000 0.165259 0.000000
# 6 0.000000 0.000000 0.000000 0.000000 0.000000 0.038315
#
#
# Mechanical properties :
#
#
# Convention : Reuss Voigt Hill
#
# Bulk Modulus (GPa) = 45.76080 51.08720 48.42400
# Shear Modulus (GPa) = 17.52275 30.83221 24.17748
#
# Velocity S-wave (km/s) = 2.69937 3.58066 3.17078
# Velocity P-wave (km/s) = 5.36138 6.19183 5.79151
#
# Compressibility (1/GPa) = 0.02185277
#
# Stress axis : x y z
#
# Youngs Moduli (GPa) = 68.67474 102.46505 123.09700
#
# Poissons Ratio (x) = 0.40071 -0.13501
# Poissons Ratio (y) = 0.26856 0.30552
# Poissons Ratio (z) = -0.07532 0.25431
#
# Static dielectric constant tensor:
#      x y z
#    x 1.895850 0.000000 0.000000 
#    y 0.000000 1.892870 0.000000 
#    z 0.000000 0.000000 2.001690 
# 
# From -- ./inp_files/36858.got.cif
#   From: 2010.05.17/outbox.cif.g08.bks.cpg/sg63_19_cif.got.tgz:36858.got - 2010.06.03 15:47:04.
