data_PCOD9468403
_publ_section_title
;
Structure prediction by ZEFSAII (Michael W. Deem and Ramdas Pophale) SiO2 
 PCOD9468403
Probable space group: C M C M
;
_chemical_formula_sum "Si O2"
_cell_formula_units_Z 88
_cell_length_a 22.707196
_cell_length_b 15.832048
_cell_length_c 14.535133
_cell_angle_alpha 90.000000
_cell_angle_beta 90.000000
_cell_angle_gamma 90.000000
_cell_volume 5225.400910
_symmetry_space_group_name_H-M "C M C M"
_symmetry_group_IT_number 63
_symmetry_cell_setting 'orthorhombic'
loop_
_space_group_symop_operation_xyz
x,y,z
-x,-y,1/2+z
x,-y,-z
-x,y,1/2-z
-x,-y,-z
x,y,1/2-z
-x,y,z
x,-y,1/2+z
1/2+x,1/2+y,z
1/2-x,1/2-y,1/2+z
1/2+x,1/2-y,-z
1/2-x,1/2+y,1/2-z
1/2-x,1/2-y,-z
1/2+x,1/2+y,1/2-z
1/2-x,1/2+y,z
1/2+x,1/2-y,1/2+z
loop_
_atom_site_type_symbol
_atom_site_label
_atom_site_fract_x
_atom_site_fract_y
_atom_site_fract_z
Si Si1 0.836043 0.500000 0.500000
Si Si2 0.431576 0.297417 0.644653
Si Si3 0.272750 0.291593 0.094294
Si Si4 0.762293 0.390727 0.853149
Si Si5 0.352119 0.597451 0.025484
Si Si6 0.851544 0.631263 0.853740
O O1 0.797282 0.444852 0.571221
O O2 0.868427 0.565403 0.566909
O O3 0.423719 0.329364 0.750000
O O4 0.500000 0.274620 0.634329
O O5 0.410818 0.362992 0.567654
O O6 0.389463 0.216090 0.635307
O O7 0.285374 0.206120 0.149785
O O8 0.217650 0.344148 0.134184
O O9 0.250000 0.250000 0.000000
O O10 0.325925 0.351361 0.062277
O O11 0.765067 0.426011 0.750000
O O12 0.695972 0.390541 0.892544
O O13 0.356815 0.500000 0.000000
O O14 0.860749 0.599198 0.750000
#
# Coordination Sequence:
#
# PCOD9468403 Si02
#       6
#     8  16  16  16  16  16
#     4  12  20  32  47  80 109 136 162 214 258 318
#     4  10  21  37  55  73  96 136 184 219 252 299
#     4  10  17  31  51  73 105 140 165 204 256 311
#     4  11  19  30  48  73 109 142 166 199 255 312
#     4  11  19  32  52  76 108 134 166 216 260 304
#     4  11  20  34  54  75 107 142 171 213 259 306
#
# _framework density 16.840813000000001
#
# number of rings (size 3 to 8) (size 9 to 14) (size 15 to 20)
#    0.000    1.273    8.182    1.636    0.000    0.364 
#    0.000    3.182    0.000    0.000    0.000    0.000 
#    0.000   10.182    0.000    0.000    0.000    0.000 
#
# Total GULP energy -245196.604538 kJ/mol
# GULP energy per Si atom -5572.650103 kJ/mol
# Density = 1.680248 g / cm^3
# Si number density = 16.840813 Si / 1000 Ang^3
#
#
#
# Elastic Constant Matrix: (Units=GPa)
#
#
# Indices 1 2 3 4 5 6 
#
# 1 54.1864 20.5784 22.5100 0.0000 0.0000 0.0000
# 2 20.5784 86.5070 41.6398 0.0000 0.0000 0.0000
# 3 22.5100 41.6398 111.3916 0.0000 0.0000 0.0000
# 4 0.0000 0.0000 0.0000 19.7704 0.0000 0.0000
# 5 0.0000 0.0000 0.0000 0.0000 15.5362 0.0000
# 6 0.0000 0.0000 0.0000 0.0000 0.0000 5.0371
#
#
#
# Elastic Compliance Matrix: (Units=1/GPa)
#
#
# Indices 1 2 3 4 5 6 
#
# 1 0.021030 -0.003606 -0.002902 0.000000 0.000000 0.000000
# 2 -0.003606 0.014714 -0.004772 0.000000 0.000000 0.000000
# 3 -0.002902 -0.004772 0.011347 0.000000 0.000000 0.000000
# 4 0.000000 0.000000 0.000000 0.050581 0.000000 0.000000
# 5 0.000000 0.000000 0.000000 0.000000 0.064366 0.000000
# 6 0.000000 0.000000 0.000000 0.000000 0.000000 0.198525
#
#
# Mechanical properties :
#
#
# Convention : Reuss Voigt Hill
#
# Bulk Modulus (GPa) = 40.76176 46.83793 43.79984
# Shear Modulus (GPa) = 12.77794 19.22588 16.00191
#
# Velocity S-wave (km/s) = 2.75753 3.38246 3.08585
# Velocity P-wave (km/s) = 5.86475 6.56713 6.22585
#
# Compressibility (1/GPa) = 0.02453280
#
# Stress axis : x y z
#
# Youngs Moduli (GPa) = 47.55192 67.96067 88.12524
#
# Poissons Ratio (x) = 0.24505 0.25572
# Poissons Ratio (y) = 0.17146 0.42051
# Poissons Ratio (z) = 0.13798 0.32429
#
# Static dielectric constant tensor:
#      x y z
#    x 1.560060 0.000000 0.000000 
#    y 0.000000 1.619970 0.000000 
#    z 0.000000 0.000000 1.640660 
# 
# From -- ./inp_files/35236.got.cif
#   From: 2010.05.17/outbox.cif.g08.bks.cpg/sg63_18_cif.got.tgz:35236.got - 2010.06.03 15:47:04.
