data_PCOD9468755
_publ_section_title
;
Structure prediction by ZEFSAII (Michael W. Deem and Ramdas Pophale) SiO2 
 PCOD9468755
Probable space group: C M C M
;
_chemical_formula_sum "Si O2"
_cell_formula_units_Z 80
_cell_length_a 15.207080
_cell_length_b 21.121989
_cell_length_c 15.084251
_cell_angle_alpha 90.000000
_cell_angle_beta 90.000000
_cell_angle_gamma 90.000000
_cell_volume 4845.118387
_symmetry_space_group_name_H-M "C M C M"
_symmetry_group_IT_number 63
_symmetry_cell_setting 'orthorhombic'
loop_
_space_group_symop_operation_xyz
x,y,z
-x,-y,1/2+z
x,-y,-z
-x,y,1/2-z
-x,-y,-z
x,y,1/2-z
-x,y,z
x,-y,1/2+z
1/2+x,1/2+y,z
1/2-x,1/2-y,1/2+z
1/2+x,1/2-y,-z
1/2-x,1/2+y,1/2-z
1/2-x,1/2-y,-z
1/2+x,1/2+y,1/2-z
1/2-x,1/2+y,z
1/2+x,1/2-y,1/2+z
loop_
_atom_site_type_symbol
_atom_site_label
_atom_site_fract_x
_atom_site_fract_y
_atom_site_fract_z
Si Si1 0.737898 0.177585 0.971832
Si Si2 0.288350 0.365208 0.650925
Si Si3 0.602007 0.630751 0.649225
Si Si4 0.602290 0.486764 0.602578
Si Si5 0.899737 0.735434 0.853742
O O1 0.824956 0.156179 0.918412
O O2 0.654914 0.182831 0.907071
O O3 0.750000 0.250000 0.000000
O O4 0.727777 0.139475 0.063542
O O5 0.248939 0.360154 0.750000
O O6 0.340934 0.430670 0.642818
O O7 0.354225 0.304949 0.640593
O O8 0.616413 0.654212 0.750000
O O9 0.500000 0.644981 0.623624
O O10 0.610024 0.554593 0.649020
O O11 0.625770 0.500000 0.500000
O O12 0.500000 0.467263 0.605082
O O13 0.898707 0.719028 0.750000
O O14 0.000000 0.739991 0.884957
#
# Coordination Sequence:
#
# PCOD9468755 Si02
#       5
#    16  16  16  16  16
#     4  10  20  32  48  68  97 132 168 207 240 281
#     4  10  19  31  48  71 100 133 165 197 238 290
#     4  10  20  33  50  74 104 134 159 190 239 297
#     4  10  18  29  47  72 103 133 162 192 234 295
#     4   9  18  32  51  73  96 127 169 212 248 281
#
# _framework density 16.511464
#
# number of rings (size 3 to 8) (size 9 to 14) (size 15 to 20)
#    0.000    2.200    2.000    1.800    0.000    6.000 
#    0.000    0.000    0.000    0.600    0.000    2.800 
#    0.000    3.200    0.000    0.600    0.000    0.000 
#
# Total GULP energy -222767.437000 kJ/mol
# GULP energy per Si atom -5569.185925 kJ/mol
# Density = 1.647388 g / cm^3
# Si number density = 16.511464 Si / 1000 Ang^3
#
#
#
# Elastic Constant Matrix: (Units=GPa)
#
#
# Indices 1 2 3 4 5 6 
#
# 1 47.9828 21.1144 29.4955 0.0000 0.0000 0.0000
# 2 21.1144 47.6100 26.9517 0.0000 0.0000 0.0000
# 3 29.4955 26.9517 87.4388 0.0000 0.0000 0.0000
# 4 0.0000 0.0000 0.0000 18.1625 0.0000 0.0000
# 5 0.0000 0.0000 0.0000 0.0000 13.9997 0.0000
# 6 0.0000 0.0000 0.0000 0.0000 0.0000 25.2629
#
#
#
# Elastic Compliance Matrix: (Units=1/GPa)
#
#
# Indices 1 2 3 4 5 6 
#
# 1 0.029108 -0.008904 -0.007074 0.000000 0.000000 0.000000
# 2 -0.008904 0.028167 -0.005679 0.000000 0.000000 0.000000
# 3 -0.007074 -0.005679 0.015573 0.000000 0.000000 0.000000
# 4 0.000000 0.000000 0.000000 0.055058 0.000000 0.000000
# 5 0.000000 0.000000 0.000000 0.000000 0.071430 0.000000
# 6 0.000000 0.000000 0.000000 0.000000 0.000000 0.039584
#
#
# Mechanical properties :
#
#
# Convention : Reuss Voigt Hill
#
# Bulk Modulus (GPa) = 33.85884 37.57275 35.71580
# Shear Modulus (GPa) = 17.11863 18.51635 17.81749
#
# Velocity S-wave (km/s) = 3.22339 3.35240 3.28853
# Velocity P-wave (km/s) = 5.86553 6.14734 6.00808
#
# Compressibility (1/GPa) = 0.02953438
#
# Stress axis : x y z
#
# Youngs Moduli (GPa) = 34.35534 35.50191 64.21281
#
# Poissons Ratio (x) = 0.31612 0.45425
# Poissons Ratio (y) = 0.30591 0.36464
# Poissons Ratio (z) = 0.24304 0.20160
#
# Static dielectric constant tensor:
#      x y z
#    x 1.553590 0.000000 0.000000 
#    y 0.000000 1.535980 0.000000 
#    z 0.000000 0.000000 1.673170 
# 
# From -- ./inp_files/31627.got.cif
#   From: 2010.05.17/outbox.cif.g08.bks.cpg/sg63_16_cif.got.tgz:31627.got - 2010.06.03 15:47:04.
