data_PCOD9468675
_publ_section_title
;
Structure prediction by ZEFSAII (Michael W. Deem and Ramdas Pophale) SiO2 
 PCOD9468675
Probable space group: C M C M
;
_chemical_formula_sum "Si O2"
_cell_formula_units_Z 104
_cell_length_a 18.915543
_cell_length_b 18.966005
_cell_length_c 16.650602
_cell_angle_alpha 90.000000
_cell_angle_beta 90.000000
_cell_angle_gamma 90.000000
_cell_volume 5973.441483
_symmetry_space_group_name_H-M "C M C M"
_symmetry_group_IT_number 63
_symmetry_cell_setting 'orthorhombic'
loop_
_space_group_symop_operation_xyz
x,y,z
-x,-y,1/2+z
x,-y,-z
-x,y,1/2-z
-x,-y,-z
x,y,1/2-z
-x,y,z
x,-y,1/2+z
1/2+x,1/2+y,z
1/2-x,1/2-y,1/2+z
1/2+x,1/2-y,-z
1/2-x,1/2+y,1/2-z
1/2-x,1/2-y,-z
1/2+x,1/2+y,1/2-z
1/2-x,1/2+y,z
1/2+x,1/2-y,1/2+z
loop_
_atom_site_type_symbol
_atom_site_label
_atom_site_fract_x
_atom_site_fract_y
_atom_site_fract_z
Si Si1 0.360030 0.439853 0.656001
Si Si2 0.346629 0.151826 0.656965
Si Si3 0.702015 0.409841 0.347073
Si Si4 0.500000 0.813129 0.151842
Si Si5 0.714772 0.699558 0.107120
Si Si6 0.350376 0.723590 0.932047
Si Si7 0.000000 0.224534 0.996613
Si Si8 0.500000 0.571263 0.050759
O O1 0.377879 0.446318 0.750000
O O2 0.325188 0.513494 0.628666
O O3 0.307275 0.374141 0.644853
O O4 0.430129 0.426027 0.605110
O O5 0.348785 0.132573 0.750000
O O6 0.281232 0.108093 0.620978
O O7 0.427546 0.146598 0.629738
O O8 0.323799 0.233788 0.648771
O O9 0.703454 0.407570 0.250000
O O10 0.652758 0.346404 0.377873
O O11 0.500000 0.798459 0.250000
O O12 0.500000 0.746693 0.090958
O O13 0.797685 0.718453 0.105448
O O14 0.685494 0.701169 0.016344
O O15 0.428562 0.749111 0.953310
O O16 0.000000 0.139936 0.995019
O O17 0.500000 0.500000 0.000000
#
# Coordination Sequence:
#
# PCOD9468675 Si02
#       8
#    16  16  16   8  16  16   8   8
#     4  11  22  36  54  79 108 142 181 222 265 311
#     4   9  16  30  49  74 103 130 166 214 267 316
#     4   9  20  35  51  70 101 141 178 213 252 312
#     4  10  18  28  50  79 103 126 162 217 277 317
#     4  10  19  32  52  77 100 135 172 219 261 314
#     4  10  20  34  52  75 103 135 177 210 265 317
#     4  12  20  34  50  77 106 138 167 216 259 317
#     4  12  23  34  49  78 112 150 176 214 263 316
#
# _framework density 17.410399999999999
#
# number of rings (size 3 to 8) (size 9 to 14) (size 15 to 20)
#    0.000    1.846    3.077    1.615    0.000    2.462 
#    0.000    1.154    0.000    0.923    0.000    2.154 
#    0.000    0.000    0.000    0.000    0.000    0.000 
#
# Total GULP energy -289831.074056 kJ/mol
# GULP energy per Si atom -5573.674501 kJ/mol
# Density = 1.737077 g / cm^3
# Si number density = 17.410400 Si / 1000 Ang^3
#
#
#
# Elastic Constant Matrix: (Units=GPa)
#
#
# Indices 1 2 3 4 5 6 
#
# 1 143.6616 38.5447 24.3228 0.0000 0.0000 0.0000
# 2 38.5447 61.4062 2.2287 0.0000 0.0000 0.0000
# 3 24.3228 2.2287 15.5304 0.0000 0.0000 0.0000
# 4 0.0000 0.0000 0.0000 22.2510 0.0000 0.0000
# 5 0.0000 0.0000 0.0000 0.0000 20.6872 0.0000
# 6 0.0000 0.0000 0.0000 0.0000 0.0000 16.4656
#
#
#
# Elastic Compliance Matrix: (Units=1/GPa)
#
#
# Indices 1 2 3 4 5 6 
#
# 1 0.011702 -0.006715 -0.017364 0.000000 0.000000 0.000000
# 2 -0.006715 0.020224 0.007615 0.000000 0.000000 0.000000
# 3 -0.017364 0.007615 0.090491 0.000000 0.000000 0.000000
# 4 0.000000 0.000000 0.000000 0.044942 0.000000 0.000000
# 5 0.000000 0.000000 0.000000 0.000000 0.048339 0.000000
# 6 0.000000 0.000000 0.000000 0.000000 0.000000 0.060733
#
#
# Mechanical properties :
#
#
# Convention : Reuss Voigt Hill
#
# Bulk Modulus (GPa) = 11.17458 38.97672 25.07565
# Shear Modulus (GPa) = 14.74104 22.24755 18.49429
#
# Velocity S-wave (km/s) = 2.91293 3.57855 3.26276
# Velocity P-wave (km/s) = 4.21258 6.28573 5.35052
#
# Compressibility (1/GPa) = 0.08948879
#
# Stress axis : x y z
#
# Youngs Moduli (GPa) = 85.45307 49.44659 11.05081
#
# Poissons Ratio (x) = 0.33205 0.19188
# Poissons Ratio (y) = 0.57385 -0.08415
# Poissons Ratio (z) = 1.48379 -0.37653
#
# Static dielectric constant tensor:
#      x y z
#    x 1.630990 0.000000 0.000000 
#    y 0.000000 1.578280 0.000000 
#    z 0.000000 0.000000 1.606870 
# 
# From -- ./inp_files/45871.got.cif
#   From: 2010.05.17/outbox.cif.g08.bks.cpg/sg63_23_cif.got.tgz:45871.got - 2010.06.03 15:47:04.
