data_PCOD9468585
_publ_section_title
;
Structure prediction by ZEFSAII (Michael W. Deem and Ramdas Pophale) SiO2 
 PCOD9468585
Probable space group: C M C M
;
_chemical_formula_sum "Si O2"
_cell_formula_units_Z 96
_cell_length_a 27.492550
_cell_length_b 23.454592
_cell_length_c 8.607920
_cell_angle_alpha 90.000000
_cell_angle_beta 90.000000
_cell_angle_gamma 90.000000
_cell_volume 5550.615299
_symmetry_space_group_name_H-M "C M C M"
_symmetry_group_IT_number 63
_symmetry_cell_setting 'orthorhombic'
loop_
_space_group_symop_operation_xyz
x,y,z
-x,-y,1/2+z
x,-y,-z
-x,y,1/2-z
-x,-y,-z
x,y,1/2-z
-x,y,z
x,-y,1/2+z
1/2+x,1/2+y,z
1/2-x,1/2-y,1/2+z
1/2+x,1/2-y,-z
1/2-x,1/2+y,1/2-z
1/2-x,1/2-y,-z
1/2+x,1/2+y,1/2-z
1/2-x,1/2+y,z
1/2+x,1/2-y,1/2+z
loop_
_atom_site_type_symbol
_atom_site_label
_atom_site_fract_x
_atom_site_fract_y
_atom_site_fract_z
Si Si1 0.119727 0.338375 0.431152
Si Si2 0.634254 0.650718 0.574841
Si Si3 0.199076 0.736556 0.074313
Si Si4 0.216004 0.935689 0.437991
Si Si5 0.321153 0.063744 0.065533
Si Si6 0.944294 0.232313 0.437222
O O1 0.110820 0.349672 0.250000
O O2 0.168906 0.302825 0.458931
O O3 0.133305 0.396834 0.516855
O O4 0.079323 0.292953 0.490823
O O5 0.619417 0.634058 0.750000
O O6 0.670290 0.704438 0.585388
O O7 0.669103 0.601057 0.509000
O O8 0.588041 0.678181 0.488793
O O9 0.201932 0.712153 0.250000
O O10 0.250000 0.750000 0.000000
O O11 0.217134 0.934377 0.250000
O O12 0.268879 0.914658 0.498266
O O13 0.211302 0.000000 0.500000
O O14 0.316974 0.061637 0.250000
O O15 0.327390 0.000000 0.000000
O O16 0.942910 0.234317 0.250000
O O17 0.000000 0.227566 0.488923
#
# Coordination Sequence:
#
# PCOD9468585 Si02
#       6
#    16  16  16  16  16  16
#     4  10  19  32  49  70  98 128 160 200 245 294
#     4   9  19  32  47  69  97 128 161 200 243 291
#     4  10  18  28  43  66  96 128 161 196 240 291
#     4  10  19  32  49  72 103 137 172 204 240 285
#     4  11  21  33  50  73 102 136 172 203 238 284
#     4   9  19  35  55  77  98 123 158 203 255 304
#
# _framework density 17.295380000000002
#
# number of rings (size 3 to 8) (size 9 to 14) (size 15 to 20)
#    0.000    2.167    0.000    5.000    0.000    4.333 
#    0.000    0.000    0.000    1.000    0.000    0.000 
#    0.000    0.000    0.000    0.000    0.000    0.000 
#
# Total GULP energy -267378.023903 kJ/mol
# GULP energy per Si atom -5570.375498 kJ/mol
# Density = 1.725602 g / cm^3
# Si number density = 17.295380 Si / 1000 Ang^3
#
#
#
# Elastic Constant Matrix: (Units=GPa)
#
#
# Indices 1 2 3 4 5 6 
#
# 1 81.0991 25.5932 23.1835 0.0000 0.0000 0.0000
# 2 25.5932 68.4506 14.8828 0.0000 0.0000 0.0000
# 3 23.1835 14.8828 57.9157 0.0000 0.0000 0.0000
# 4 0.0000 0.0000 0.0000 25.1339 0.0000 0.0000
# 5 0.0000 0.0000 0.0000 0.0000 18.0683 0.0000
# 6 0.0000 0.0000 0.0000 0.0000 0.0000 24.6690
#
#
#
# Elastic Compliance Matrix: (Units=1/GPa)
#
#
# Indices 1 2 3 4 5 6 
#
# 1 0.015185 -0.004614 -0.004893 0.000000 0.000000 0.000000
# 2 -0.004614 0.016875 -0.002490 0.000000 0.000000 0.000000
# 3 -0.004893 -0.002490 0.019865 0.000000 0.000000 0.000000
# 4 0.000000 0.000000 0.000000 0.039787 0.000000 0.000000
# 5 0.000000 0.000000 0.000000 0.000000 0.055345 0.000000
# 6 0.000000 0.000000 0.000000 0.000000 0.000000 0.040537
#
#
# Mechanical properties :
#
#
# Convention : Reuss Voigt Hill
#
# Bulk Modulus (GPa) = 35.80030 37.19827 36.49928
# Shear Modulus (GPa) = 22.63480 23.16130 22.89805
#
# Velocity S-wave (km/s) = 3.62155 3.66343 3.64255
# Velocity P-wave (km/s) = 6.18318 6.28081 6.23219
#
# Compressibility (1/GPa) = 0.02793273
#
# Stress axis : x y z
#
# Youngs Moduli (GPa) = 65.85277 59.25755 50.34005
#
# Poissons Ratio (x) = 0.27341 0.24632
# Poissons Ratio (y) = 0.30384 0.12533
# Poissons Ratio (z) = 0.32222 0.14753
#
# Static dielectric constant tensor:
#      x y z
#    x 1.528310 0.000000 0.000000 
#    y 0.000000 1.611890 0.000000 
#    z 0.000000 0.000000 1.601490 
# 
# From -- ./inp_files/12742.got.cif
#   From: 2010.05.17/outbox.cif.g08.bks.cpg/sg63_7_cif.got.tgz:12742.got - 2010.06.03 15:47:04.
