data_PCOD9468815
_publ_section_title
;
Structure prediction by ZEFSAII (Michael W. Deem and Ramdas Pophale) SiO2 
 PCOD9468815
Probable space group: C M C M
;
_chemical_formula_sum "Si O2"
_cell_formula_units_Z 80
_cell_length_a 19.376855
_cell_length_b 33.792891
_cell_length_c 9.049201
_cell_angle_alpha 90.000000
_cell_angle_beta 90.000000
_cell_angle_gamma 90.000000
_cell_volume 5925.416353
_symmetry_space_group_name_H-M "C M C M"
_symmetry_group_IT_number 63
_symmetry_cell_setting 'orthorhombic'
loop_
_space_group_symop_operation_xyz
x,y,z
-x,-y,1/2+z
x,-y,-z
-x,y,1/2-z
-x,-y,-z
x,y,1/2-z
-x,y,z
x,-y,1/2+z
1/2+x,1/2+y,z
1/2-x,1/2-y,1/2+z
1/2+x,1/2-y,-z
1/2-x,1/2+y,1/2-z
1/2-x,1/2-y,-z
1/2+x,1/2+y,1/2-z
1/2-x,1/2+y,z
1/2+x,1/2-y,1/2+z
loop_
_atom_site_type_symbol
_atom_site_label
_atom_site_fract_x
_atom_site_fract_y
_atom_site_fract_z
Si Si1 0.500000 0.245567 0.925368
Si Si2 0.363263 0.618062 0.924774
Si Si3 0.231095 0.189466 0.927137
Si Si4 0.856965 0.268064 0.925997
Si Si5 0.500000 0.329188 0.421597
Si Si6 0.919010 0.958186 0.573775
O O1 0.500000 0.241335 0.750000
O O2 0.430322 0.228017 0.995390
O O3 0.500000 0.291705 0.972588
O O4 0.356776 0.609357 0.750000
O O5 0.301174 0.647258 0.969068
O O6 0.432698 0.644054 0.942958
O O7 0.373634 0.577799 0.013171
O O8 0.242655 0.189807 0.750000
O O9 0.174989 0.224250 0.956842
O O10 0.300221 0.201683 0.011303
O O11 0.864143 0.271737 0.750000
O O12 0.500000 0.314883 0.250000
O O13 0.914019 0.961107 0.750000
O O14 0.000000 0.950290 0.535777
O O15 0.900691 0.000000 0.500000
#
# Coordination Sequence:
#
# PCOD9468815 Si02
#       6
#     8  16  16  16   8  16
#     4  12  22  30  44  63  85 112 147 187 221 258
#     4  10  18  30  47  62  84 113 143 181 222 261
#     4   9  18  31  45  63  85 111 142 178 220 261
#     4  10  19  32  46  61  84 113 144 179 220 260
#     4  10  18  30  43  61  84 112 147 181 221 260
#     4  10  20  31  43  61  84 111 145 182 220 259
#
# _framework density 13.501161
#
# number of rings (size 3 to 8) (size 9 to 14) (size 15 to 20)
#    0.000    2.000    3.000    2.100    0.000    3.200 
#    0.000    0.000    0.000    0.000    0.000    0.000 
#    0.000    0.000    0.000    0.900    0.000   12.000 
#
# Total GULP energy -223167.900450 kJ/mol
# GULP energy per Si atom -5579.197511 kJ/mol
# Density = 1.347043 g / cm^3
# Si number density = 13.501161 Si / 1000 Ang^3
#
#
#
# Elastic Constant Matrix: (Units=GPa)
#
#
# Indices 1 2 3 4 5 6 
#
# 1 97.2769 47.1517 55.9592 0.0000 0.0000 0.0000
# 2 47.1517 95.7289 48.0042 0.0000 0.0000 0.0000
# 3 55.9592 48.0042 61.6102 0.0000 0.0000 0.0000
# 4 0.0000 0.0000 0.0000 24.3246 0.0000 0.0000
# 5 0.0000 0.0000 0.0000 0.0000 21.4011 0.0000
# 6 0.0000 0.0000 0.0000 0.0000 0.0000 20.1930
#
#
#
# Elastic Compliance Matrix: (Units=1/GPa)
#
#
# Indices 1 2 3 4 5 6 
#
# 1 0.021629 -0.001317 -0.018619 0.000000 0.000000 0.000000
# 2 -0.001317 0.017225 -0.012225 0.000000 0.000000 0.000000
# 3 -0.018619 -0.012225 0.042668 0.000000 0.000000 0.000000
# 4 0.000000 0.000000 0.000000 0.041111 0.000000 0.000000
# 5 0.000000 0.000000 0.000000 0.000000 0.046727 0.000000
# 6 0.000000 0.000000 0.000000 0.000000 0.000000 0.049522
#
#
# Mechanical properties :
#
#
# Convention : Reuss Voigt Hill
#
# Bulk Modulus (GPa) = 58.14027 61.87179 60.00603
# Shear Modulus (GPa) = 17.30479 20.08380 18.69429
#
# Velocity S-wave (km/s) = 3.58400 3.86108 3.72512
# Velocity P-wave (km/s) = 7.76424 8.11195 7.94000
#
# Compressibility (1/GPa) = 0.01719978
#
# Stress axis : x y z
#
# Youngs Moduli (GPa) = 46.23414 58.05459 23.43673
#
# Poissons Ratio (x) = 0.07644 0.43638
# Poissons Ratio (y) = 0.06087 0.28652
# Poissons Ratio (z) = 0.86085 0.70973
#
# Static dielectric constant tensor:
#      x y z
#    x 1.432960 0.000000 0.000000 
#    y 0.000000 1.426830 0.000000 
#    z 0.000000 0.000000 1.448230 
# 
# From -- ./inp_files/8901.got.cif
#   From: 2010.05.17/outbox.cif.g08.bks.cpg/sg63_5_cif.got.tgz:8901.got - 2010.06.03 15:47:04.
