data_PCOD9468860
_publ_section_title
;
Structure prediction by ZEFSAII (Michael W. Deem and Ramdas Pophale) SiO2 
 PCOD9468860
Probable space group: C M C M
;
_chemical_formula_sum "Si O2"
_cell_formula_units_Z 96
_cell_length_a 22.989075
_cell_length_b 28.559687
_cell_length_c 8.134852
_cell_angle_alpha 90.000000
_cell_angle_beta 90.000000
_cell_angle_gamma 90.000000
_cell_volume 5341.024827
_symmetry_space_group_name_H-M "C M C M"
_symmetry_group_IT_number 63
_symmetry_cell_setting 'orthorhombic'
loop_
_space_group_symop_operation_xyz
x,y,z
-x,-y,1/2+z
x,-y,-z
-x,y,1/2-z
-x,-y,-z
x,y,1/2-z
-x,y,z
x,-y,1/2+z
1/2+x,1/2+y,z
1/2-x,1/2-y,1/2+z
1/2+x,1/2-y,-z
1/2-x,1/2+y,1/2-z
1/2-x,1/2-y,-z
1/2+x,1/2+y,1/2-z
1/2-x,1/2+y,z
1/2+x,1/2-y,1/2+z
loop_
_atom_site_type_symbol
_atom_site_label
_atom_site_fract_x
_atom_site_fract_y
_atom_site_fract_z
Si Si1 0.191709 0.694171 0.947877
Si Si2 0.742738 0.947449 0.554318
Si Si3 0.500000 0.118956 0.447973
Si Si4 0.881878 0.220932 0.052098
Si Si5 0.626355 0.896779 0.948976
Si Si6 0.000000 0.271986 0.449451
Si Si7 0.193642 0.857245 0.445762
O O1 0.195831 0.696781 0.750000
O O2 0.168483 0.743643 0.010649
O O3 0.252377 0.674065 0.013954
O O4 0.144439 0.655015 0.993600
O O5 0.740432 0.945969 0.750000
O O6 0.678914 0.930121 0.491470
O O7 0.790754 0.909717 0.498900
O O8 0.754659 0.000000 0.500000
O O9 0.500000 0.116004 0.250000
O O10 0.439721 0.095633 0.506856
O O11 0.500000 0.174279 0.491455
O O12 0.881990 0.222483 0.250000
O O13 0.942786 0.243270 0.996919
O O14 0.864777 0.168666 0.001026
O O15 0.626661 0.898073 0.750000
O O16 0.000000 0.273761 0.250000
O O17 0.195696 0.856053 0.250000
#
# Coordination Sequence:
#
# PCOD9468860 Si02
#       7
#    16  16   8  16  16   8  16
#     4   9  17  29  46  68  97 131 167 203 241 289
#     4  10  20  36  55  74  97 125 160 207 260 308
#     4  10  18  30  47  69  97 133 175 210 244 287
#     4  10  19  31  46  69 101 136 169 202 241 287
#     4   9  18  30  47  70  97 130 167 208 250 292
#     4  10  20  32  48  69 100 141 177 206 238 281
#     4  10  20  32  49  74  99 127 163 205 250 298
#
# _framework density 17.974079
#
# number of rings (size 3 to 8) (size 9 to 14) (size 15 to 20)
#    0.000    2.333    1.667    1.500    0.000    2.667 
#    0.000    0.417    0.000    0.000    0.000    0.583 
#    0.000    0.000    0.000    0.000    0.000    0.000 
#
# Total GULP energy -267593.050289 kJ/mol
# GULP energy per Si atom -5574.855214 kJ/mol
# Density = 1.793317 g / cm^3
# Si number density = 17.974079 Si / 1000 Ang^3
#
#
#
# Elastic Constant Matrix: (Units=GPa)
#
#
# Indices 1 2 3 4 5 6 
#
# 1 28.0499 29.0757 5.2929 0.0000 0.0000 0.0000
# 2 29.0757 105.5414 7.9291 0.0000 0.0000 0.0000
# 3 5.2929 7.9291 13.3182 0.0000 0.0000 0.0000
# 4 0.0000 0.0000 0.0000 21.9796 0.0000 0.0000
# 5 0.0000 0.0000 0.0000 0.0000 15.2698 0.0000
# 6 0.0000 0.0000 0.0000 0.0000 0.0000 12.3925
#
#
#
# Elastic Compliance Matrix: (Units=1/GPa)
#
#
# Indices 1 2 3 4 5 6 
#
# 1 0.051866 -0.013337 -0.012672 0.000000 0.000000 0.000000
# 2 -0.013337 0.013348 -0.002647 0.000000 0.000000 0.000000
# 3 -0.012672 -0.002647 0.081697 0.000000 0.000000 0.000000
# 4 0.000000 0.000000 0.000000 0.045497 0.000000 0.000000
# 5 0.000000 0.000000 0.000000 0.000000 0.065489 0.000000
# 6 0.000000 0.000000 0.000000 0.000000 0.000000 0.080694
#
#
# Mechanical properties :
#
#
# Convention : Reuss Voigt Hill
#
# Bulk Modulus (GPa) = 11.16069 25.72277 18.44173
# Shear Modulus (GPa) = 11.74344 16.90249 14.32297
#
# Velocity S-wave (km/s) = 2.55885 3.06989 2.82595
# Velocity P-wave (km/s) = 3.86692 5.18727 4.57498
#
# Compressibility (1/GPa) = 0.08960023
#
# Stress axis : x y z
#
# Youngs Moduli (GPa) = 19.28037 74.91815 12.24029
#
# Poissons Ratio (x) = 0.99915 0.15511
# Poissons Ratio (y) = 0.25713 0.03240
# Poissons Ratio (z) = 0.24433 0.19828
#
# Static dielectric constant tensor:
#      x y z
#    x 1.670060 0.000000 0.000000 
#    y 0.000000 1.822810 0.000000 
#    z 0.000000 0.000000 1.602800 
# 
# From -- ./inp_files/10747.got.cif
#   From: 2010.05.17/outbox.cif.g08.bks.cpg/sg63_6_cif.got.tgz:10747.got - 2010.06.03 15:47:04.
