data_PCOD9468060
_publ_section_title
;
Structure prediction by ZEFSAII (Michael W. Deem and Ramdas Pophale) SiO2 
 PCOD9468060
Probable space group: P N M A
;
_chemical_formula_sum "Si O2"
_cell_formula_units_Z 48
_cell_length_a 30.000000
_cell_length_b 9.000000
_cell_length_c 9.000000
_cell_angle_alpha 90.000000
_cell_angle_beta 90.000000
_cell_angle_gamma 90.000000
_cell_volume 2430.000000
_symmetry_space_group_name_H-M "P N M A"
_symmetry_group_IT_number 62
_symmetry_cell_setting 'orthorhombic'
loop_
_space_group_symop_operation_xyz
x,y,z
1/2-x,-y,1/2+z
1/2+x,1/2-y,1/2-z
-x,1/2+y,-z
-x,-y,-z
1/2+x,y,1/2-z
1/2-x,1/2+y,1/2+z
x,1/2-y,z
loop_
_atom_site_type_symbol
_atom_site_label
_atom_site_fract_x
_atom_site_fract_y
_atom_site_fract_z
Si Si1 0.276731 0.926995 0.186189
Si Si2 0.112974 0.573234 0.182099
Si Si3 0.862494 0.925417 0.520456
Si Si4 0.037761 0.072513 0.604181
Si Si5 0.806239 0.572268 0.976824
Si Si6 0.515431 0.072457 0.349480
O O1 0.267506 0.750000 0.175601
O O2 0.320374 0.957264 0.084685
O O3 0.289948 0.960717 0.355762
O O4 0.233200 0.014015 0.130468
O O5 0.107964 0.750000 0.165661
O O6 0.136934 0.529360 0.336256
O O7 0.064082 0.496500 0.188615
O O8 0.146519 0.505508 0.059430
O O9 0.859982 0.750000 0.563656
O O10 0.911090 0.945913 0.444642
O O11 0.029780 0.250000 0.618085
O O12 0.000000 0.000000 0.500000
O O13 0.025529 0.981344 0.748722
O O14 0.811556 0.750000 0.961169
O O15 0.519484 0.250000 0.349019
O O16 0.500000 0.000000 0.500000
#
# Coordination Sequence:
#
# PCOD9468060 Si02
#       6
#     8   8   8   8   8   8
#     4  10  23  43  66  95 127 165 210 260 317 383
#     4  12  25  42  65  95 128 168 215 266 321 384
#     4  10  22  41  66  94 129 171 213 262 318 377
#     4  11  22  39  65  96 130 174 219 266 317 375
#     4  11  24  42  66  94 127 167 208 262 323 381
#     4  12  26  44  65  93 131 173 218 269 324 384
#
# _framework density 19.753086
#
# number of rings (size 3 to 8) (size 9 to 14) (size 15 to 20)
#    0.000    1.000    1.667    5.000    2.333    5.333 
#    0.000    0.000    0.000    0.000    0.000    0.000 
#    0.000    0.000    0.000    0.000    0.000    0.000 
#
# Total GULP energy -268124.851765 kJ/mol
# GULP energy per Si atom -5585.934412 kJ/mol
# Density = 1.970813 g / cm^3
# Si number density = 19.753086 Si / 1000 Ang^3
#
#
#
# Elastic Constant Matrix: (Units=GPa)
#
#
# Indices 1 2 3 4 5 6 
#
# 1 71.4443 31.4918 -11.0395 0.0000 0.0000 0.0000
# 2 31.4918 121.2422 24.2207 0.0000 0.0000 0.0000
# 3 -11.0395 24.2207 64.2847 0.0000 0.0000 0.0000
# 4 0.0000 0.0000 0.0000 32.1520 0.0000 0.0000
# 5 0.0000 0.0000 0.0000 0.0000 37.6854 0.0000
# 6 0.0000 0.0000 0.0000 0.0000 0.0000 37.6413
#
#
#
# Elastic Compliance Matrix: (Units=1/GPa)
#
#
# Indices 1 2 3 4 5 6 
#
# 1 0.017179 -0.005462 0.005008 0.000000 0.000000 0.000000
# 2 -0.005462 0.010656 -0.004953 0.000000 0.000000 0.000000
# 3 0.005008 -0.004953 0.018282 0.000000 0.000000 0.000000
# 4 0.000000 0.000000 0.000000 0.031102 0.000000 0.000000
# 5 0.000000 0.000000 0.000000 0.000000 0.026535 0.000000
# 6 0.000000 0.000000 0.000000 0.000000 0.000000 0.026567
#
#
# Mechanical properties :
#
#
# Convention : Reuss Voigt Hill
#
# Bulk Modulus (GPa) = 28.32694 38.47969 33.40332
# Shear Modulus (GPa) = 32.70040 35.64894 34.17467
#
# Velocity S-wave (km/s) = 4.07315 4.25282 4.16395
# Velocity P-wave (km/s) = 6.04089 6.60590 6.32970
#
# Compressibility (1/GPa) = 0.03530208
#
# Stress axis : x y z
#
# Youngs Moduli (GPa) = 58.21207 93.84149 54.69859
#
# Poissons Ratio (x) = 0.51261 -0.27394
# Poissons Ratio (y) = 0.31798 0.27092
# Poissons Ratio (z) = -0.29154 0.46480
#
# Static dielectric constant tensor:
#      x y z
#    x 1.631730 0.000000 0.000000 
#    y 0.000000 1.655960 0.000000 
#    z 0.000000 0.000000 1.674190 
# 
# From -- ./inp_files/10273.got.cif
#   From: 2010.05.17/outbox.ucp.g08.bks.cvg/sg62_6_cif.got.tgz:10273.got - 2010.06.11 16:29:25.
