data_PCOD9468723
_publ_section_title
;
Structure prediction by ZEFSAII (Michael W. Deem and Ramdas Pophale) SiO2 
 PCOD9468723
Probable space group: C M C M
;
_chemical_formula_sum "Si O2"
_cell_formula_units_Z 96
_cell_length_a 18.040334
_cell_length_b 14.182184
_cell_length_c 19.056193
_cell_angle_alpha 90.000000
_cell_angle_beta 90.000000
_cell_angle_gamma 90.000000
_cell_volume 4875.552442
_symmetry_space_group_name_H-M "C M C M"
_symmetry_group_IT_number 63
_symmetry_cell_setting 'orthorhombic'
loop_
_space_group_symop_operation_xyz
x,y,z
-x,-y,1/2+z
x,-y,-z
-x,y,1/2-z
-x,-y,-z
x,y,1/2-z
-x,y,z
x,-y,1/2+z
1/2+x,1/2+y,z
1/2-x,1/2-y,1/2+z
1/2+x,1/2-y,-z
1/2-x,1/2+y,1/2-z
1/2-x,1/2-y,-z
1/2+x,1/2+y,1/2-z
1/2-x,1/2+y,z
1/2+x,1/2-y,1/2+z
loop_
_atom_site_type_symbol
_atom_site_label
_atom_site_fract_x
_atom_site_fract_y
_atom_site_fract_z
Si Si1 0.415901 0.382281 0.423205
Si Si2 0.379644 0.776973 0.333619
Si Si3 0.213999 0.170718 0.828373
Si Si4 0.880644 0.903849 0.913419
Si Si5 0.261192 0.048895 0.330705
Si Si6 0.580975 0.010489 0.835247
O O1 0.500000 0.347959 0.416221
O O2 0.354782 0.324275 0.380418
O O3 0.392176 0.385833 0.504515
O O4 0.413541 0.492271 0.398148
O O5 0.391341 0.770211 0.250000
O O6 0.290765 0.778519 0.346494
O O7 0.411866 0.685537 0.371401
O O8 0.409048 0.879667 0.356777
O O9 0.190763 0.198705 0.750000
O O10 0.239620 0.061518 0.825932
O O11 0.795741 0.912140 0.887509
O O12 0.252335 0.085756 0.250000
O O13 0.346771 0.050113 0.354374
O O14 0.582750 0.011906 0.750000
O O15 0.500000 0.976448 0.858045
#
# Coordination Sequence:
#
# PCOD9468723 Si02
#       6
#    16  16  16  16  16  16
#     4  10  21  34  47  67  97 132 162 188 230 286
#     4   9  17  29  48  73  95 116 151 199 241 274
#     4   8  16  32  50  68  90 118 156 195 230 279
#     4  10  18  29  46  67  96 127 158 199 234 266
#     4   8  14  26  44  65  90 124 161 190 226 281
#     4   8  14  25  42  66  94 120 149 191 241 285
#
# _framework density 19.690076000000001
#
# number of rings (size 3 to 8) (size 9 to 14) (size 15 to 20)
#    0.000    3.167    0.000    3.500    0.000    3.000 
#    0.000    0.000    0.000    5.500    0.000   23.333 
#    0.000    0.000    0.000    0.000    0.000    0.000 
#
# Total GULP energy -267367.028893 kJ/mol
# GULP energy per Si atom -5570.146435 kJ/mol
# Density = 1.964526 g / cm^3
# Si number density = 19.690076 Si / 1000 Ang^3
#
#
#
# Elastic Constant Matrix: (Units=GPa)
#
#
# Indices 1 2 3 4 5 6 
#
# 1 145.8231 -7.6243 40.7830 0.0000 0.0000 0.0000
# 2 -7.6243 22.0795 6.5221 0.0000 0.0000 0.0000
# 3 40.7830 6.5221 30.2297 0.0000 0.0000 0.0000
# 4 0.0000 0.0000 0.0000 9.2204 0.0000 0.0000
# 5 0.0000 0.0000 0.0000 0.0000 -25.0238 0.0000
# 6 0.0000 0.0000 0.0000 0.0000 0.0000 3.6520
#
#
#
# Elastic Compliance Matrix: (Units=1/GPa)
#
#
# Indices 1 2 3 4 5 6 
#
# 1 0.012861 0.010217 -0.019555 0.000000 0.000000 0.000000
# 2 0.010217 0.056491 -0.025972 0.000000 0.000000 0.000000
# 3 -0.019555 -0.025972 0.065065 0.000000 0.000000 0.000000
# 4 0.000000 0.000000 0.000000 0.108455 0.000000 0.000000
# 5 0.000000 0.000000 0.000000 0.000000 -0.039962 0.000000
# 6 0.000000 0.000000 0.000000 0.000000 0.000000 0.273820
#
#
# Mechanical properties :
#
#
# Convention : Reuss Voigt Hill
#
# Bulk Modulus (GPa) = 15.67462 30.83266 23.25364
# Shear Modulus (GPa) = 8.79326 8.13314 8.46320
#
# Velocity S-wave (km/s) = 2.11554 2.03459 2.07546
# Velocity P-wave (km/s) = 3.73434 4.60569 4.19271
#
# Compressibility (1/GPa) = 0.06379740
#
# Stress axis : x y z
#
# Youngs Moduli (GPa) = 77.75499 17.70187 15.36914
#
# Poissons Ratio (x) = -0.18087 0.30055
# Poissons Ratio (y) = -0.79446 0.39917
# Poissons Ratio (z) = 1.52051 0.45976
#
# Static dielectric constant tensor:
#      x y z
#    x 1.727360 0.000000 0.000000 
#    y 0.000000 1.736970 0.000000 
#    z 0.000000 0.000000 1.656120 
# 
# From -- ./inp_files/45780.got.cif
#   From: 2010.05.17/outbox.cif.g08.bks.cpg/sg63_23_cif.got.tgz:45780.got - 2010.06.03 15:47:04.
