data_PCOD9468509
_publ_section_title
;
Structure prediction by ZEFSAII (Michael W. Deem and Ramdas Pophale) SiO2 
 PCOD9468509
Probable space group: C M C M
;
_chemical_formula_sum "Si O2"
_cell_formula_units_Z 96
_cell_length_a 23.609808
_cell_length_b 26.856726
_cell_length_c 9.066424
_cell_angle_alpha 90.000000
_cell_angle_beta 90.000000
_cell_angle_gamma 90.000000
_cell_volume 5748.857572
_symmetry_space_group_name_H-M "C M C M"
_symmetry_group_IT_number 63
_symmetry_cell_setting 'orthorhombic'
loop_
_space_group_symop_operation_xyz
x,y,z
-x,-y,1/2+z
x,-y,-z
-x,y,1/2-z
-x,-y,-z
x,y,1/2-z
-x,y,z
x,-y,1/2+z
1/2+x,1/2+y,z
1/2-x,1/2-y,1/2+z
1/2+x,1/2-y,-z
1/2-x,1/2+y,1/2-z
1/2-x,1/2-y,-z
1/2+x,1/2+y,1/2-z
1/2-x,1/2+y,z
1/2+x,1/2-y,1/2+z
loop_
_atom_site_type_symbol
_atom_site_label
_atom_site_fract_x
_atom_site_fract_y
_atom_site_fract_z
Si Si1 0.566990 0.947627 0.073791
Si Si2 0.345135 0.131964 0.583087
Si Si3 0.254322 0.196278 0.426374
Si Si4 0.663081 0.611032 0.426163
Si Si5 0.567419 0.446457 0.425028
Si Si6 0.247603 0.454163 0.084949
O O1 0.577069 0.951586 0.250000
O O2 0.500000 0.941503 0.048506
O O3 0.600736 0.898350 0.023806
O O4 0.583963 0.000000 0.000000
O O5 0.356425 0.151152 0.750000
O O6 0.313076 0.171859 0.482993
O O7 0.298276 0.088797 0.595685
O O8 0.254823 0.199800 0.250000
O O9 0.250000 0.250000 0.500000
O O10 0.200462 0.160263 0.466275
O O11 0.657191 0.610293 0.250000
O O12 0.603504 0.598447 0.503209
O O13 0.701795 0.565935 0.485144
O O14 0.581364 0.500000 0.500000
O O15 0.578994 0.449271 0.250000
O O16 0.500000 0.438772 0.445753
O O17 0.266683 0.466998 0.250000
O O18 0.221112 0.500000 0.000000
#
# Coordination Sequence:
#
# PCOD9468509 Si02
#       6
#    16  16  16  16  16  16
#     4   9  17  29  46  70 101 136 170 202 236 277
#     4   9  18  31  47  68  95 127 162 199 240 287
#     4  10  21  36  55  76  96 121 155 200 252 300
#     4  10  20  33  49  70  95 124 159 197 239 288
#     4  10  20  33  50  73 102 136 169 199 233 276
#     4  10  18  27  41  63  93 126 157 193 236 283
#
# _framework density 16.698969999999999
#
# number of rings (size 3 to 8) (size 9 to 14) (size 15 to 20)
#    0.000    2.333    0.000    3.000    0.000    4.333 
#    0.000    0.000    0.000    1.000    0.000    2.333 
#    0.000    0.000    0.000    0.000    0.000    0.000 
#
# Total GULP energy -267364.274851 kJ/mol
# GULP energy per Si atom -5570.089059 kJ/mol
# Density = 1.666096 g / cm^3
# Si number density = 16.698970 Si / 1000 Ang^3
#
#
#
# Elastic Constant Matrix: (Units=GPa)
#
#
# Indices 1 2 3 4 5 6 
#
# 1 87.3894 46.4231 39.8509 0.0000 0.0000 0.0000
# 2 46.4231 98.7913 58.4477 0.0000 0.0000 0.0000
# 3 39.8509 58.4477 74.3024 0.0000 0.0000 0.0000
# 4 0.0000 0.0000 0.0000 27.3245 0.0000 0.0000
# 5 0.0000 0.0000 0.0000 0.0000 23.7482 0.0000
# 6 0.0000 0.0000 0.0000 0.0000 0.0000 22.7271
#
#
#
# Elastic Compliance Matrix: (Units=1/GPa)
#
#
# Indices 1 2 3 4 5 6 
#
# 1 0.016204 -0.004625 -0.005052 0.000000 0.000000 0.000000
# 2 -0.004625 0.020254 -0.013452 0.000000 0.000000 0.000000
# 3 -0.005052 -0.013452 0.026750 0.000000 0.000000 0.000000
# 4 0.000000 0.000000 0.000000 0.036597 0.000000 0.000000
# 5 0.000000 0.000000 0.000000 0.000000 0.042108 0.000000
# 6 0.000000 0.000000 0.000000 0.000000 0.000000 0.044000
#
#
# Mechanical properties :
#
#
# Convention : Reuss Voigt Hill
#
# Bulk Modulus (GPa) = 59.00004 61.10294 60.05149
# Shear Modulus (GPa) = 21.02411 22.47739 21.75075
#
# Velocity S-wave (km/s) = 3.55210 3.67281 3.61296
# Velocity P-wave (km/s) = 7.22713 7.39299 7.31053
#
# Compressibility (1/GPa) = 0.01694914
#
# Stress axis : x y z
#
# Youngs Moduli (GPa) = 61.71286 49.37256 37.38378
#
# Poissons Ratio (x) = 0.22836 0.18888
# Poissons Ratio (y) = 0.28544 0.50287
# Poissons Ratio (z) = 0.31180 0.66414
#
# Static dielectric constant tensor:
#      x y z
#    x 1.596470 0.000000 0.000000 
#    y 0.000000 1.577140 0.000000 
#    z 0.000000 0.000000 1.588300 
# 
# From -- ./inp_files/10711.got.cif
#   From: 2010.05.17/outbox.cif.g08.bks.cpg/sg63_6_cif.got.tgz:10711.got - 2010.06.03 15:47:04.
