data_PCOD9468686
_publ_section_title
;
Structure prediction by ZEFSAII (Michael W. Deem and Ramdas Pophale) SiO2 
 PCOD9468686
Probable space group: C M C M
;
_chemical_formula_sum "Si O2"
_cell_formula_units_Z 96
_cell_length_a 28.304473
_cell_length_b 29.593253
_cell_length_c 9.112969
_cell_angle_alpha 90.000000
_cell_angle_beta 90.000000
_cell_angle_gamma 90.000000
_cell_volume 7633.218130
_symmetry_space_group_name_H-M "C M C M"
_symmetry_group_IT_number 63
_symmetry_cell_setting 'orthorhombic'
loop_
_space_group_symop_operation_xyz
x,y,z
-x,-y,1/2+z
x,-y,-z
-x,y,1/2-z
-x,-y,-z
x,y,1/2-z
-x,y,z
x,-y,1/2+z
1/2+x,1/2+y,z
1/2-x,1/2-y,1/2+z
1/2+x,1/2-y,-z
1/2-x,1/2+y,1/2-z
1/2-x,1/2-y,-z
1/2+x,1/2+y,1/2-z
1/2-x,1/2+y,z
1/2+x,1/2-y,1/2+z
loop_
_atom_site_type_symbol
_atom_site_label
_atom_site_fract_x
_atom_site_fract_y
_atom_site_fract_z
Si Si1 0.000000 0.589212 0.925320
Si Si2 0.757440 0.679128 0.918684
Si Si3 0.406390 0.048130 0.073531
Si Si4 0.402500 0.219099 0.424948
Si Si5 0.321656 0.729592 0.419245
Si Si6 0.838758 0.369159 0.923629
Si Si7 0.000000 0.697646 0.575897
O O1 0.000000 0.580169 0.750000
O O2 0.000000 0.643296 0.947097
O O3 0.953981 0.568026 0.001402
O O4 0.746334 0.669412 0.750000
O O5 0.789131 0.725043 0.922291
O O6 0.710457 0.690841 0.008956
O O7 0.791152 0.641422 0.988745
O O8 0.412156 0.044375 0.250000
O O9 0.364540 0.083873 0.044074
O O10 0.396827 0.000000 0.000000
O O11 0.407142 0.223455 0.250000
O O12 0.368114 0.257400 0.489826
O O13 0.376032 0.171249 0.455445
O O14 0.452998 0.217354 0.502195
O O15 0.332700 0.719981 0.250000
O O16 0.828562 0.366667 0.750000
O O17 0.000000 0.705735 0.750000
#
# Coordination Sequence:
#
# PCOD9468686 Si02
#       7
#     8  16  16  16  16  16   8
#     4  11  22  34  47  59  72  94 126 164 204 247
#     4   9  16  25  40  59  77  96 119 146 180 224
#     4  11  22  35  47  59  75  96 125 162 205 247
#     4  10  18  29  43  57  75  98 126 156 191 230
#     4   9  16  26  39  57  79  99 119 146 182 222
#     4   9  18  30  43  57  74  96 120 152 194 237
#     4  11  21  30  42  59  77  98 128 162 199 239
#
# _framework density 12.576610000000001
#
# number of rings (size 3 to 8) (size 9 to 14) (size 15 to 20)
#    0.000    2.167    1.667    2.750    0.000    6.667 
#    0.000    0.000    0.000    0.000    0.000    0.000 
#    0.000    0.000    0.000    0.000    0.000    0.000 
#
# Total GULP energy -267663.905580 kJ/mol
# GULP energy per Si atom -5576.331366 kJ/mol
# Density = 1.254798 g / cm^3
# Si number density = 12.576610 Si / 1000 Ang^3
#
#
#
# Elastic Constant Matrix: (Units=GPa)
#
#
# Indices 1 2 3 4 5 6 
#
# 1 91.5241 48.8789 65.9430 0.0000 0.0000 0.0000
# 2 48.8789 44.9640 40.6916 0.0000 0.0000 0.0000
# 3 65.9430 40.6916 85.3550 0.0000 0.0000 0.0000
# 4 0.0000 0.0000 0.0000 15.9375 0.0000 0.0000
# 5 0.0000 0.0000 0.0000 0.0000 24.2400 0.0000
# 6 0.0000 0.0000 0.0000 0.0000 0.0000 8.9981
#
#
#
# Elastic Compliance Matrix: (Units=1/GPa)
#
#
# Indices 1 2 3 4 5 6 
#
# 1 0.034869 -0.023789 -0.015598 0.000000 0.000000 0.000000
# 2 -0.023789 0.055346 -0.008006 0.000000 0.000000 0.000000
# 3 -0.015598 -0.008006 0.027583 0.000000 0.000000 0.000000
# 4 0.000000 0.000000 0.000000 0.062745 0.000000 0.000000
# 5 0.000000 0.000000 0.000000 0.000000 0.041254 0.000000
# 6 0.000000 0.000000 0.000000 0.000000 0.000000 0.111135
#
#
# Mechanical properties :
#
#
# Convention : Reuss Voigt Hill
#
# Bulk Modulus (GPa) = 43.45659 59.20777 51.33218
# Shear Modulus (GPa) = 11.48396 14.25709 12.87053
#
# Velocity S-wave (km/s) = 3.02507 3.37058 3.20249
# Velocity P-wave (km/s) = 6.84324 7.89479 7.38774
#
# Compressibility (1/GPa) = 0.02301147
#
# Stress axis : x y z
#
# Youngs Moduli (GPa) = 28.67882 18.06806 36.25416
#
# Poissons Ratio (x) = 0.42983 0.56548
# Poissons Ratio (y) = 0.68225 0.29027
# Poissons Ratio (z) = 0.44732 0.14466
#
# Static dielectric constant tensor:
#      x y z
#    x 1.392690 0.000000 0.000000 
#    y 0.000000 1.385900 0.000000 
#    z 0.000000 0.000000 1.418960 
# 
# From -- ./inp_files/10750.got.cif
#   From: 2010.05.17/outbox.cif.g08.bks.cpg/sg63_6_cif.got.tgz:10750.got - 2010.06.03 15:47:04.
