data_PCOD9468489
_publ_section_title
;
Structure prediction by ZEFSAII (Michael W. Deem and Ramdas Pophale) SiO2 
 PCOD9468489
Probable space group: C M C M
;
_chemical_formula_sum "Si O2"
_cell_formula_units_Z 80
_cell_length_a 25.527289
_cell_length_b 20.796108
_cell_length_c 9.215613
_cell_angle_alpha 90.000000
_cell_angle_beta 90.000000
_cell_angle_gamma 90.000000
_cell_volume 4892.276429
_symmetry_space_group_name_H-M "C M C M"
_symmetry_group_IT_number 63
_symmetry_cell_setting 'orthorhombic'
loop_
_space_group_symop_operation_xyz
x,y,z
-x,-y,1/2+z
x,-y,-z
-x,y,1/2-z
-x,-y,-z
x,y,1/2-z
-x,y,z
x,-y,1/2+z
1/2+x,1/2+y,z
1/2-x,1/2-y,1/2+z
1/2+x,1/2-y,-z
1/2-x,1/2+y,1/2-z
1/2-x,1/2-y,-z
1/2+x,1/2+y,1/2-z
1/2-x,1/2+y,z
1/2+x,1/2-y,1/2+z
loop_
_atom_site_type_symbol
_atom_site_label
_atom_site_fract_x
_atom_site_fract_y
_atom_site_fract_z
Si Si1 0.281853 0.306782 0.075840
Si Si2 0.000000 0.616292 0.076986
Si Si3 0.000000 0.245986 0.422305
Si Si4 0.884518 0.391929 0.919703
Si Si5 0.604175 0.262737 0.421156
Si Si6 0.281087 0.064697 0.577013
O O1 0.278356 0.298403 0.250000
O O2 0.342858 0.299400 0.036902
O O3 0.255391 0.374560 0.038846
O O4 0.250000 0.250000 0.000000
O O5 0.056188 0.583828 0.050335
O O6 0.000000 0.634039 0.250000
O O7 0.000000 0.680624 0.981434
O O8 0.053423 0.217740 0.487893
O O9 0.000000 0.244311 0.250000
O O10 0.872458 0.404435 0.750000
O O11 0.885870 0.314211 0.939630
O O12 0.839577 0.420558 0.019372
O O13 0.593841 0.272245 0.250000
O O14 0.281650 0.057352 0.750000
O O15 0.262527 0.000000 0.500000
#
# Coordination Sequence:
#
# PCOD9468489 Si02
#       6
#    16   8   8  16  16  16
#     4  10  20  34  54  78 102 131 171 213 255 303
#     4   8  16  30  47  67  96 133 168 205 254 301
#     4  10  18  26  42  73 106 131 162 205 246 293
#     4   9  16  30  51  71  96 131 168 207 253 300
#     4   9  17  31  50  72 101 135 164 201 255 306
#     4  11  23  36  51  73 102 135 171 210 254 305
#
# _framework density 16.352305999999999
#
# number of rings (size 3 to 8) (size 9 to 14) (size 15 to 20)
#    0.000    2.400    2.000    2.700    0.000    4.800 
#    0.000    0.500    0.000    0.000    0.000    0.700 
#    0.000    0.000    0.000    0.000    0.000    0.000 
#
# Total GULP energy -223041.003671 kJ/mol
# GULP energy per Si atom -5576.025092 kJ/mol
# Density = 1.631509 g / cm^3
# Si number density = 16.352306 Si / 1000 Ang^3
#
#
#
# Elastic Constant Matrix: (Units=GPa)
#
#
# Indices 1 2 3 4 5 6 
#
# 1 136.5399 58.6749 63.4340 0.0000 0.0000 0.0000
# 2 58.6749 82.4334 45.8155 0.0000 0.0000 0.0000
# 3 63.4340 45.8155 57.8407 0.0000 0.0000 0.0000
# 4 0.0000 0.0000 0.0000 16.8677 0.0000 0.0000
# 5 0.0000 0.0000 0.0000 0.0000 24.7048 0.0000
# 6 0.0000 0.0000 0.0000 0.0000 0.0000 9.0648
#
#
#
# Elastic Compliance Matrix: (Units=1/GPa)
#
#
# Indices 1 2 3 4 5 6 
#
# 1 0.015283 -0.002792 -0.014550 0.000000 0.000000 0.000000
# 2 -0.002792 0.022182 -0.014508 0.000000 0.000000 0.000000
# 3 -0.014550 -0.014508 0.044737 0.000000 0.000000 0.000000
# 4 0.000000 0.000000 0.000000 0.059285 0.000000 0.000000
# 5 0.000000 0.000000 0.000000 0.000000 0.040478 0.000000
# 6 0.000000 0.000000 0.000000 0.000000 0.000000 0.110316
#
#
# Mechanical properties :
#
#
# Convention : Reuss Voigt Hill
#
# Bulk Modulus (GPa) = 54.04591 68.07365 61.05978
# Shear Modulus (GPa) = 13.80648 17.38676 15.59662
#
# Velocity S-wave (km/s) = 2.90886 3.26430 3.09169
# Velocity P-wave (km/s) = 6.66368 7.47846 7.08280
#
# Compressibility (1/GPa) = 0.01850279
#
# Stress axis : x y z
#
# Youngs Moduli (GPa) = 65.43198 45.08217 22.35263
#
# Poissons Ratio (x) = 0.12586 0.32522
# Poissons Ratio (y) = 0.18267 0.32430
# Poissons Ratio (z) = 0.95201 0.65407
#
# Static dielectric constant tensor:
#      x y z
#    x 1.576660 0.000000 0.000000 
#    y 0.000000 1.540920 0.000000 
#    z 0.000000 0.000000 1.540360 
# 
# From -- ./inp_files/12141.got.cif
#   From: 2010.05.17/outbox.cif.g08.bks.cpg/sg63_7_cif.got.tgz:12141.got - 2010.06.03 15:47:04.
