data_PCOD9468571
_publ_section_title
;
Structure prediction by ZEFSAII (Michael W. Deem and Ramdas Pophale) SiO2 
 PCOD9468571
Probable space group: C M C M
;
_chemical_formula_sum "Si O2"
_cell_formula_units_Z 56
_cell_length_a 14.319686
_cell_length_b 24.621511
_cell_length_c 8.471878
_cell_angle_alpha 90.000000
_cell_angle_beta 90.000000
_cell_angle_gamma 90.000000
_cell_volume 2986.949566
_symmetry_space_group_name_H-M "C M C M"
_symmetry_group_IT_number 63
_symmetry_cell_setting 'orthorhombic'
loop_
_space_group_symop_operation_xyz
x,y,z
-x,-y,1/2+z
x,-y,-z
-x,y,1/2-z
-x,-y,-z
x,y,1/2-z
-x,y,z
x,-y,1/2+z
1/2+x,1/2+y,z
1/2-x,1/2-y,1/2+z
1/2+x,1/2-y,-z
1/2-x,1/2+y,1/2-z
1/2-x,1/2-y,-z
1/2+x,1/2+y,1/2-z
1/2-x,1/2+y,z
1/2+x,1/2-y,1/2+z
loop_
_atom_site_type_symbol
_atom_site_label
_atom_site_fract_x
_atom_site_fract_y
_atom_site_fract_z
Si Si1 0.801324 0.938890 0.061462
Si Si2 0.603156 0.265108 0.060420
Si Si3 0.000000 0.937966 0.561884
Si Si4 0.713786 0.831467 0.059082
O O1 0.805635 0.941370 0.250000
O O2 0.724155 0.894521 0.014460
O O3 0.902032 0.916626 0.003201
O O4 0.787034 0.000000 0.000000
O O5 0.601475 0.269223 0.250000
O O6 0.500000 0.279925 0.000259
O O7 0.689629 0.302136 0.005764
O O8 0.630705 0.203887 0.012277
O O9 0.000000 0.936849 0.750000
O O10 0.000000 0.000000 0.500000
O O11 0.708789 0.828119 0.250000
#
# Coordination Sequence:
#
# PCOD9468571 Si02
#       4
#    16  16   8  16
#     4  10  19  31  48  69  98 133 164 200 244 291
#     4   9  18  33  53  74  98 129 163 202 247 292
#     4  10  18  28  42  64  94 128 164 198 235 282
#     4   9  19  33  51  74 100 131 164 199 245 294
#
# _framework density 18.748222999999999
#
# number of rings (size 3 to 8) (size 9 to 14) (size 15 to 20)
#    0.000    2.571    0.000    3.857    2.000    2.857 
#    0.000    0.000    0.000    0.857    0.000    0.000 
#    0.000    0.000    0.000    0.000    0.000    0.000 
#
# Total GULP energy -156067.636833 kJ/mol
# GULP energy per Si atom -5573.844173 kJ/mol
# Density = 1.870555 g / cm^3
# Si number density = 18.748223 Si / 1000 Ang^3
#
#
#
# Elastic Constant Matrix: (Units=GPa)
#
#
# Indices 1 2 3 4 5 6 
#
# 1 40.5569 0.0770 -3.0752 0.0000 0.0000 0.0000
# 2 0.0770 68.1604 5.6892 0.0000 0.0000 0.0000
# 3 -3.0752 5.6892 31.5265 0.0000 0.0000 0.0000
# 4 0.0000 0.0000 0.0000 20.8863 0.0000 0.0000
# 5 0.0000 0.0000 0.0000 0.0000 20.5492 0.0000
# 6 0.0000 0.0000 0.0000 0.0000 0.0000 26.3937
#
#
#
# Elastic Compliance Matrix: (Units=1/GPa)
#
#
# Indices 1 2 3 4 5 6 
#
# 1 0.024844 -0.000234 0.002466 0.000000 0.000000 0.000000
# 2 -0.000234 0.014898 -0.002711 0.000000 0.000000 0.000000
# 3 0.002466 -0.002711 0.032449 0.000000 0.000000 0.000000
# 4 0.000000 0.000000 0.000000 0.047878 0.000000 0.000000
# 5 0.000000 0.000000 0.000000 0.000000 0.048664 0.000000
# 6 0.000000 0.000000 0.000000 0.000000 0.000000 0.037888
#
#
# Mechanical properties :
#
#
# Convention : Reuss Voigt Hill
#
# Bulk Modulus (GPa) = 14.03861 16.18062 15.10962
# Shear Modulus (GPa) = 21.61472 22.73603 22.17538
#
# Velocity S-wave (km/s) = 3.39911 3.48617 3.44292
# Velocity P-wave (km/s) = 4.78639 4.98535 4.88688
#
# Compressibility (1/GPa) = 0.07123214
#
# Stress axis : x y z
#
# Youngs Moduli (GPa) = 40.25094 67.12382 30.81745
#
# Poissons Ratio (x) = 0.01570 -0.07598
# Poissons Ratio (y) = 0.00941 0.08355
# Poissons Ratio (z) = -0.09924 0.18199
#
# Static dielectric constant tensor:
#      x y z
#    x 1.672020 0.000000 0.000000 
#    y 0.000000 1.680170 0.000000 
#    z 0.000000 0.000000 1.633810 
# 
# From -- ./inp_files/4153.got.cif
#   From: 2010.05.17/outbox.cif.g08.bks.cpg/sg63_3_cif.got.tgz:4153.got - 2010.06.03 15:47:04.
