data_PCOD9468735
_publ_section_title
;
Structure prediction by ZEFSAII (Michael W. Deem and Ramdas Pophale) SiO2 
 PCOD9468735
Probable space group: C M C M
;
_chemical_formula_sum "Si O2"
_cell_formula_units_Z 104
_cell_length_a 23.184587
_cell_length_b 13.291169
_cell_length_c 18.742674
_cell_angle_alpha 90.000000
_cell_angle_beta 90.000000
_cell_angle_gamma 90.000000
_cell_volume 5775.559941
_symmetry_space_group_name_H-M "C M C M"
_symmetry_group_IT_number 63
_symmetry_cell_setting 'orthorhombic'
loop_
_space_group_symop_operation_xyz
x,y,z
-x,-y,1/2+z
x,-y,-z
-x,y,1/2-z
-x,-y,-z
x,y,1/2-z
-x,y,z
x,-y,1/2+z
1/2+x,1/2+y,z
1/2-x,1/2-y,1/2+z
1/2+x,1/2-y,-z
1/2-x,1/2+y,1/2-z
1/2-x,1/2-y,-z
1/2+x,1/2+y,1/2-z
1/2-x,1/2+y,z
1/2+x,1/2-y,1/2+z
loop_
_atom_site_type_symbol
_atom_site_label
_atom_site_fract_x
_atom_site_fract_y
_atom_site_fract_z
Si Si1 0.935861 0.249713 0.545183
Si Si2 0.230574 0.222148 0.750000
Si Si3 0.600857 0.321711 0.902282
Si Si4 0.812233 0.715199 0.403576
Si Si5 0.936169 0.956242 0.124980
Si Si6 0.154056 0.965046 0.250000
Si Si7 0.142881 0.202404 0.250000
Si Si8 0.786023 0.884490 0.516472
O O1 0.927405 0.251287 0.460088
O O2 0.880482 0.297694 0.583449
O O3 0.931937 0.131112 0.566550
O O4 0.000000 0.284819 0.565431
O O5 0.205295 0.273584 0.821477
O O6 0.208877 0.106757 0.750000
O O7 0.299422 0.232219 0.750000
O O8 0.570398 0.430564 0.902985
O O9 0.605690 0.284409 0.821492
O O10 0.665796 0.341703 0.929877
O O11 0.792449 0.817341 0.445316
O O12 0.775088 0.631343 0.445009
O O13 0.885477 0.940859 0.181611
O O14 0.000000 0.946876 0.157970
O O15 0.163527 0.084806 0.250000
O O16 0.797611 0.000000 0.500000
#
# Coordination Sequence:
#
# PCOD9468735 Si02
#       8
#    16   8  16  16  16   8   8  16
#     4  10  19  32  49  71 101 136 176 214 254 304
#     4  12  20  35  51  74 109 142 174 216 261 321
#     4  10  18  31  48  72 103 137 170 209 258 308
#     4  10  21  34  52  78 103 140 175 216 262 314
#     4  10  18  29  46  71 101 139 175 202 244 309
#     4  10  21  32  48  70 106 144 170 208 261 301
#     4  10  22  33  47  74 105 140 173 216 260 316
#     4  10  20  34  54  76 106 135 175 217 265 313
#
# _framework density 18.006912
#
# number of rings (size 3 to 8) (size 9 to 14) (size 15 to 20)
#    0.000    1.846    3.077    3.000    2.154    1.231 
#    0.000    1.538    0.000    0.462    0.000    0.000 
#    0.000    0.000    0.000    0.000    0.000    0.000 
#
# Total GULP energy -290137.480322 kJ/mol
# GULP energy per Si atom -5579.566929 kJ/mol
# Density = 1.796593 g / cm^3
# Si number density = 18.006912 Si / 1000 Ang^3
#
#
#
# Elastic Constant Matrix: (Units=GPa)
#
#
# Indices 1 2 3 4 5 6 
#
# 1 87.4015 -1.8119 5.3455 0.0000 0.0000 0.0000
# 2 -1.8119 7.9300 -0.5748 0.0000 0.0000 0.0000
# 3 5.3455 -0.5748 105.4365 0.0000 0.0000 0.0000
# 4 0.0000 0.0000 0.0000 11.0231 0.0000 0.0000
# 5 0.0000 0.0000 0.0000 0.0000 6.0494 0.0000
# 6 0.0000 0.0000 0.0000 0.0000 0.0000 23.4606
#
#
#
# Elastic Compliance Matrix: (Units=1/GPa)
#
#
# Indices 1 2 3 4 5 6 
#
# 1 0.011530 0.002593 -0.000570 0.000000 0.000000 0.000000
# 2 0.002593 0.126737 0.000559 0.000000 0.000000 0.000000
# 3 -0.000570 0.000559 0.009516 0.000000 0.000000 0.000000
# 4 0.000000 0.000000 0.000000 0.090719 0.000000 0.000000
# 5 0.000000 0.000000 0.000000 0.000000 0.165305 0.000000
# 6 0.000000 0.000000 0.000000 0.000000 0.000000 0.042625
#
#
# Mechanical properties :
#
#
# Convention : Reuss Voigt Hill
#
# Bulk Modulus (GPa) = 6.53819 22.96507 14.75163
# Shear Modulus (GPa) = 10.15744 21.29389 15.72567
#
# Velocity S-wave (km/s) = 2.37763 3.44254 2.95839
# Velocity P-wave (km/s) = 3.34310 5.34627 4.45864
#
# Compressibility (1/GPa) = 0.15294754
#
# Stress axis : x y z
#
# Youngs Moduli (GPa) = 86.72953 7.89036 105.08225
#
# Poissons Ratio (x) = -0.02046 0.05994
# Poissons Ratio (y) = -0.22490 -0.05879
# Poissons Ratio (z) = 0.04947 -0.00441
#
# Static dielectric constant tensor:
#      x y z
#    x 1.655150 0.000000 0.000000 
#    y 0.000000 1.597730 0.000000 
#    z 0.000000 0.000000 1.655110 
# 
# From -- ./inp_files/48241.got.cif
#   From: 2010.05.17/outbox.cif.g08.bks.cpg/sg63_25_cif.got.tgz:48241.got - 2010.06.03 15:47:04.
