data_PCOD9468190
_publ_section_title
;
Structure prediction by ZEFSAII (Michael W. Deem and Ramdas Pophale) SiO2 
 PCOD9468190
Probable space group: C M C M
;
_chemical_formula_sum "Si O2"
_cell_formula_units_Z 60
_cell_length_a 11.020568
_cell_length_b 17.907304
_cell_length_c 16.223998
_cell_angle_alpha 90.000000
_cell_angle_beta 90.000000
_cell_angle_gamma 90.000000
_cell_volume 3201.784288
_symmetry_space_group_name_H-M "C M C M"
_symmetry_group_IT_number 63
_symmetry_cell_setting 'orthorhombic'
loop_
_space_group_symop_operation_xyz
x,y,z
-x,-y,1/2+z
x,-y,-z
-x,y,1/2-z
-x,-y,-z
x,y,1/2-z
-x,y,z
x,-y,1/2+z
1/2+x,1/2+y,z
1/2-x,1/2-y,1/2+z
1/2+x,1/2-y,-z
1/2-x,1/2+y,1/2-z
1/2-x,1/2-y,-z
1/2+x,1/2+y,1/2-z
1/2-x,1/2+y,z
1/2+x,1/2-y,1/2+z
loop_
_atom_site_type_symbol
_atom_site_label
_atom_site_fract_x
_atom_site_fract_y
_atom_site_fract_z
Si Si1 0.354257 0.174497 0.750000
Si Si2 0.752344 0.838570 0.750000
Si Si3 0.500000 0.440050 0.571966
Si Si4 0.357649 0.072545 0.593545
Si Si5 0.000000 0.064232 0.250000
Si Si6 0.232566 0.594271 0.081837
O O1 0.500000 0.188986 0.750000
O O2 0.283789 0.251929 0.750000
O O3 0.326011 0.126165 0.668861
O O4 0.879812 0.884635 0.750000
O O5 0.690953 0.863295 0.835905
O O6 0.500000 0.500000 0.500000
O O7 0.500000 0.477522 0.663049
O O8 0.623777 0.393105 0.567732
O O9 0.500000 0.053623 0.599846
O O10 0.333809 0.109179 0.504336
O O11 0.285514 0.994580 0.597111
#
# Coordination Sequence:
#
# PCOD9468190 Si02
#       6
#     8   8   8  16   4  16
#     4  10  21  36  53  76 109 145 180 210 259 321
#     4  10  19  33  53  74 106 141 175 216 255 319
#     4  10  16  30  50  82 104 128 167 221 266 306
#     4  10  20  35  55  82 107 139 176 222 262 315
#     4   8  18  28  48  72 102 134 168 212 254 310
#     4  10  19  33  55  84 103 134 179 221 272 303
#
# _framework density 18.739552
#
# number of rings (size 3 to 8) (size 9 to 14) (size 15 to 20)
#    0.000    2.133    3.333    2.400    0.000    1.067 
#    0.000    2.000    0.000    0.000   17.333    0.000 
#    0.000    0.000    0.000    0.000    0.000    0.000 
#
# Total GULP energy -167227.533774 kJ/mol
# GULP energy per Si atom -5574.251126 kJ/mol
# Density = 1.869690 g / cm^3
# Si number density = 18.739552 Si / 1000 Ang^3
#
#
#
# Elastic Constant Matrix: (Units=GPa)
#
#
# Indices 1 2 3 4 5 6 
#
# 1 42.5926 10.7412 4.6417 0.0000 0.0000 0.0000
# 2 10.7412 69.3113 75.1582 0.0000 0.0000 0.0000
# 3 4.6417 75.1582 185.1623 0.0000 0.0000 0.0000
# 4 0.0000 0.0000 0.0000 7.8476 0.0000 0.0000
# 5 0.0000 0.0000 0.0000 0.0000 27.2668 0.0000
# 6 0.0000 0.0000 0.0000 0.0000 0.0000 10.3821
#
#
#
# Elastic Compliance Matrix: (Units=1/GPa)
#
#
# Indices 1 2 3 4 5 6 
#
# 1 0.024719 -0.005642 0.001671 0.000000 0.000000 0.000000
# 2 -0.005642 0.027058 -0.010842 0.000000 0.000000 0.000000
# 3 0.001671 -0.010842 0.009759 0.000000 0.000000 0.000000
# 4 0.000000 0.000000 0.000000 0.127428 0.000000 0.000000
# 5 0.000000 0.000000 0.000000 0.000000 0.036675 0.000000
# 6 0.000000 0.000000 0.000000 0.000000 0.000000 0.096320
#
#
# Mechanical properties :
#
#
# Convention : Reuss Voigt Hill
#
# Bulk Modulus (GPa) = 31.33791 53.12759 42.23275
# Shear Modulus (GPa) = 13.80367 22.86763 18.33565
#
# Velocity S-wave (km/s) = 2.71699 3.49705 3.13141
# Velocity P-wave (km/s) = 5.15770 6.68714 5.97159
#
# Compressibility (1/GPa) = 0.03191023
#
# Stress axis : x y z
#
# Youngs Moduli (GPa) = 40.45460 36.95736 102.46485
#
# Poissons Ratio (x) = 0.20852 -0.17117
# Poissons Ratio (y) = 0.22825 1.11088
# Poissons Ratio (z) = -0.06758 0.40068
#
# Static dielectric constant tensor:
#      x y z
#    x 1.664610 0.000000 0.000000 
#    y 0.000000 1.601300 0.000000 
#    z 0.000000 0.000000 1.693330 
# 
# From -- ./inp_files/41457.got.cif
#   From: 2010.05.17/outbox.cif.g08.bks.cpg/sg63_21_cif.got.tgz:41457.got - 2010.06.03 15:47:04.
