data_PCOD9468948
_publ_section_title
;
Structure prediction by ZEFSAII (Michael W. Deem and Ramdas Pophale) SiO2 
 PCOD9468948
Probable space group: C M C M
;
_chemical_formula_sum "Si O2"
_cell_formula_units_Z 96
_cell_length_a 8.791308
_cell_length_b 26.050643
_cell_length_c 25.988464
_cell_angle_alpha 90.000000
_cell_angle_beta 90.000000
_cell_angle_gamma 90.000000
_cell_volume 5951.857916
_symmetry_space_group_name_H-M "C M C M"
_symmetry_group_IT_number 63
_symmetry_cell_setting 'orthorhombic'
loop_
_space_group_symop_operation_xyz
x,y,z
-x,-y,1/2+z
x,-y,-z
-x,y,1/2-z
-x,-y,-z
x,y,1/2-z
-x,y,z
x,-y,1/2+z
1/2+x,1/2+y,z
1/2-x,1/2-y,1/2+z
1/2+x,1/2-y,-z
1/2-x,1/2+y,1/2-z
1/2-x,1/2-y,-z
1/2+x,1/2+y,1/2-z
1/2-x,1/2+y,z
1/2+x,1/2-y,1/2+z
loop_
_atom_site_type_symbol
_atom_site_label
_atom_site_fract_x
_atom_site_fract_y
_atom_site_fract_z
Si Si1 0.181404 0.941468 0.136790
Si Si2 0.317676 0.861403 0.441668
Si Si3 0.180297 0.561298 0.250000
Si Si4 0.682906 0.141433 0.438195
Si Si5 0.817256 0.051838 0.750000
Si Si6 0.682750 0.561860 0.141680
Si Si7 0.816997 0.751950 0.942362
O O1 0.254626 0.906214 0.093725
O O2 0.216301 0.922579 0.195158
O O3 0.000000 0.939599 0.130419
O O4 0.225993 0.001698 0.134136
O O5 0.500000 0.864044 0.441707
O O6 0.269919 0.865332 0.501718
O O7 0.276004 0.804408 0.420900
O O8 0.225216 0.501118 0.250000
O O9 0.252862 0.580597 0.303276
O O10 0.000000 0.568411 0.250000
O O11 0.500000 0.141816 0.436256
O O12 0.749815 0.096439 0.403443
O O13 0.746129 0.196540 0.419198
O O14 0.000000 0.039571 0.750000
O O15 0.500000 0.564426 0.142504
O O16 0.000000 0.756148 0.943869
O O17 0.750000 0.750000 0.000000
#
# Coordination Sequence:
#
# PCOD9468948 Si02
#       7
#    16  16   8  16   8  16  16
#     4   9  18  31  49  70  95 127 162 196 236 284
#     4   9  19  32  47  70 100 127 156 196 243 288
#     4  10  18  30  50  73  94 123 162 200 236 282
#     4  10  20  33  49  72  98 127 161 200 243 289
#     4   8  16  32  48  67  94 125 162 200 234 276
#     4  10  20  34  50  71  99 130 161 198 239 283
#     4   9  17  31  49  69  93 125 162 200 239 285
#
# _framework density 16.129417
#
# number of rings (size 3 to 8) (size 9 to 14) (size 15 to 20)
#    0.000    2.667    0.000    4.250    0.000    8.000 
#    0.000    3.333    0.000    1.000    0.000    2.333 
#    0.000    0.000    0.000    0.000    0.000    0.000 
#
# Total GULP energy -267249.990461 kJ/mol
# GULP energy per Si atom -5567.708135 kJ/mol
# Density = 1.609271 g / cm^3
# Si number density = 16.129417 Si / 1000 Ang^3
#
#
#
# Elastic Constant Matrix: (Units=GPa)
#
#
# Indices 1 2 3 4 5 6 
#
# 1 49.2180 36.4151 38.0246 0.0000 0.0000 0.0000
# 2 36.4151 103.8678 71.6356 0.0000 0.0000 0.0000
# 3 38.0246 71.6356 106.9926 0.0000 0.0000 0.0000
# 4 0.0000 0.0000 0.0000 -2.9967 0.0000 0.0000
# 5 0.0000 0.0000 0.0000 0.0000 28.2182 0.0000
# 6 0.0000 0.0000 0.0000 0.0000 0.0000 29.6236
#
#
#
# Elastic Compliance Matrix: (Units=1/GPa)
#
#
# Indices 1 2 3 4 5 6 
#
# 1 0.029800 -0.005840 -0.006681 0.000000 0.000000 0.000000
# 2 -0.005840 0.019032 -0.010667 0.000000 0.000000 0.000000
# 3 -0.006681 -0.010667 0.018863 0.000000 0.000000 0.000000
# 4 0.000000 0.000000 0.000000 -0.333698 0.000000 0.000000
# 5 0.000000 0.000000 0.000000 0.000000 0.035438 0.000000
# 6 0.000000 0.000000 0.000000 0.000000 0.000000 0.033757
#
#
# Mechanical properties :
#
#
# Convention : Reuss Voigt Hill
#
# Bulk Modulus (GPa) = 46.90634 61.35878 54.13256
# Shear Modulus (GPa) = -34.88522 18.56925 -8.15799
#
# Velocity S-wave (km/s) = -4.65567 3.39671 -2.25140
# Velocity P-wave (km/s) = 0.49397 7.31489 5.18419
#
# Compressibility (1/GPa) = 0.02131908
#
# Stress axis : x y z
#
# Youngs Moduli (GPa) = 33.55715 52.54311 53.01475
#
# Poissons Ratio (x) = 0.30686 0.35417
# Poissons Ratio (y) = 0.19598 0.56551
# Poissons Ratio (z) = 0.22418 0.56048
#
# Static dielectric constant tensor:
#      x y z
#    x 1.542430 0.000000 0.000000 
#    y 0.000000 1.561690 0.000000 
#    z 0.000000 0.000000 1.574430 
# 
# From -- ./inp_files/60009.got.cif
#   From: 2010.05.17/outbox.cif.g08.bks.cpg/sg63_31_cif.got.tgz:60009.got - 2010.06.03 15:47:04.
