data_PCOD9468792
_publ_section_title
;
Structure prediction by ZEFSAII (Michael W. Deem and Ramdas Pophale) SiO2 
 PCOD9468792
Probable space group: C M C M
;
_chemical_formula_sum "Si O2"
_cell_formula_units_Z 112
_cell_length_a 15.056704
_cell_length_b 14.583046
_cell_length_c 28.026895
_cell_angle_alpha 90.000000
_cell_angle_beta 90.000000
_cell_angle_gamma 90.000000
_cell_volume 6153.938402
_symmetry_space_group_name_H-M "C M C M"
_symmetry_group_IT_number 63
_symmetry_cell_setting 'orthorhombic'
loop_
_space_group_symop_operation_xyz
x,y,z
-x,-y,1/2+z
x,-y,-z
-x,y,1/2-z
-x,-y,-z
x,y,1/2-z
-x,y,z
x,-y,1/2+z
1/2+x,1/2+y,z
1/2-x,1/2-y,1/2+z
1/2+x,1/2-y,-z
1/2-x,1/2+y,1/2-z
1/2-x,1/2-y,-z
1/2+x,1/2+y,1/2-z
1/2-x,1/2+y,z
1/2+x,1/2-y,1/2+z
loop_
_atom_site_type_symbol
_atom_site_label
_atom_site_fract_x
_atom_site_fract_y
_atom_site_fract_z
Si Si1 0.345194 0.591871 0.194767
Si Si2 0.102069 0.728862 0.299889
Si Si3 0.705602 0.144878 0.384416
Si Si4 0.402318 0.589311 0.850172
Si Si5 0.101794 0.302749 0.304570
Si Si6 0.395165 0.011246 0.943157
Si Si7 0.275445 0.158492 0.606783
O O1 0.319870 0.573939 0.250000
O O2 0.268460 0.597138 0.154826
O O3 0.402093 0.509106 0.174253
O O4 0.390342 0.692037 0.194062
O O5 0.148470 0.702440 0.250000
O O6 0.134058 0.687932 0.348949
O O7 0.110112 0.837052 0.307874
O O8 0.000000 0.704303 0.296028
O O9 0.755376 0.234622 0.406307
O O10 0.658453 0.073481 0.419231
O O11 0.500000 0.606823 0.872089
O O12 0.319309 0.607853 0.885362
O O13 0.120525 0.331536 0.250000
O O14 0.173219 0.339212 0.342200
O O15 0.000000 0.328808 0.316319
O O16 0.500000 0.013851 0.928455
O O17 0.340909 0.102215 0.927481
O O18 0.393232 0.000000 0.000000
#
# Coordination Sequence:
#
# PCOD9468792 Si02
#       7
#    16  16  16  16  16  16  16
#     4  10  18  29  49  79 114 153 191 228 269 326
#     4   9  17  29  47  75 112 150 186 225 269 324
#     4  10  20  36  57  83 113 151 189 234 285 345
#     4  10  19  31  50  78 113 153 193 232 272 325
#     4   9  18  32  51  79 118 157 191 230 277 335
#     4  11  24  43  66  90 114 144 191 250 309 364
#     4  10  21  38  60  85 115 153 194 239 287 351
#
# _framework density 18.199725999999998
#
# number of rings (size 3 to 8) (size 9 to 14) (size 15 to 20)
#    0.000    2.143    1.429    2.143    0.000    6.571 
#    0.000    0.000    0.000    3.000    0.000    0.000 
#    0.000    0.000    0.000    0.000    0.000    0.000 
#
# Total GULP energy -311773.320419 kJ/mol
# GULP energy per Si atom -5567.380722 kJ/mol
# Density = 1.815830 g / cm^3
# Si number density = 18.199726 Si / 1000 Ang^3
#
#
#
# Elastic Constant Matrix: (Units=GPa)
#
#
# Indices 1 2 3 4 5 6 
#
# 1 118.6301 31.5177 39.5836 0.0000 0.0000 0.0000
# 2 31.5177 61.1224 30.7903 0.0000 0.0000 0.0000
# 3 39.5836 30.7903 64.4228 0.0000 0.0000 0.0000
# 4 0.0000 0.0000 0.0000 22.8414 0.0000 0.0000
# 5 0.0000 0.0000 0.0000 0.0000 -135.9809 0.0000
# 6 0.0000 0.0000 0.0000 0.0000 0.0000 -28.5475
#
#
#
# Elastic Compliance Matrix: (Units=1/GPa)
#
#
# Indices 1 2 3 4 5 6 
#
# 1 0.011003 -0.002987 -0.005333 0.000000 0.000000 0.000000
# 2 -0.002987 0.022360 -0.008851 0.000000 0.000000 0.000000
# 3 -0.005333 -0.008851 0.023029 0.000000 0.000000 0.000000
# 4 0.000000 0.000000 0.000000 0.043780 0.000000 0.000000
# 5 0.000000 0.000000 0.000000 0.000000 -0.007354 0.000000
# 6 0.000000 0.000000 0.000000 0.000000 0.000000 -0.035029
#
#
# Mechanical properties :
#
#
# Convention : Reuss Voigt Hill
#
# Bulk Modulus (GPa) = 45.35230 49.77317 47.56273
# Shear Modulus (GPa) = 50.26110 -18.85183 15.70463
#
# Velocity S-wave (km/s) = 5.26083 -3.22192 2.94071
# Velocity P-wave (km/s) = 7.86607 3.68329 6.14173
#
# Compressibility (1/GPa) = 0.02204960
#
# Stress axis : x y z
#
# Youngs Moduli (GPa) = 90.88803 44.72325 43.42276
#
# Poissons Ratio (x) = 0.13359 0.23156
# Poissons Ratio (y) = 0.27150 0.38435
# Poissons Ratio (z) = 0.48468 0.39586
#
# Static dielectric constant tensor:
#      x y z
#    x 1.820610 0.000000 0.000000 
#    y 0.000000 1.691760 0.000000 
#    z 0.000000 0.000000 1.592510 
# 
# From -- ./inp_files/62992.got.cif
#   From: 2010.05.17/outbox.cif.g08.bks.cpg/sg63_32_cif.got.tgz:62992.got - 2010.06.03 15:47:04.
