data_PCOD9468163
_publ_section_title
;
Structure prediction by ZEFSAII (Michael W. Deem and Ramdas Pophale) SiO2 
 PCOD9468163
Probable space group: C M C M
;
_chemical_formula_sum "Si O2"
_cell_formula_units_Z 96
_cell_length_a 7.227841
_cell_length_b 24.372311
_cell_length_c 21.615196
_cell_angle_alpha 90.000000
_cell_angle_beta 90.000000
_cell_angle_gamma 90.000000
_cell_volume 3807.715391
_symmetry_space_group_name_H-M "C M C M"
_symmetry_group_IT_number 63
_symmetry_cell_setting 'orthorhombic'
loop_
_space_group_symop_operation_xyz
x,y,z
-x,-y,1/2+z
x,-y,-z
-x,y,1/2-z
-x,-y,-z
x,y,1/2-z
-x,y,z
x,-y,1/2+z
1/2+x,1/2+y,z
1/2-x,1/2-y,1/2+z
1/2+x,1/2-y,-z
1/2-x,1/2+y,1/2-z
1/2-x,1/2-y,-z
1/2+x,1/2+y,1/2-z
1/2-x,1/2+y,z
1/2+x,1/2-y,1/2+z
loop_
_atom_site_type_symbol
_atom_site_label
_atom_site_fract_x
_atom_site_fract_y
_atom_site_fract_z
Si Si1 0.774818 0.984601 0.627204
Si Si2 0.290462 0.603011 0.464156
Si Si3 0.224970 0.179032 0.573403
Si Si4 0.706124 0.791364 0.750000
Si Si5 0.276415 0.581943 0.250000
Si Si6 0.224932 0.292948 0.613958
Si Si7 0.775411 0.100277 0.678962
O O1 0.710147 0.951679 0.566666
O O2 0.722666 0.950881 0.688626
O O3 0.000000 0.984082 0.624310
O O4 0.717498 0.046704 0.640050
O O5 0.500000 0.588862 0.483631
O O6 0.207316 0.637556 0.520580
O O7 0.294620 0.648770 0.409812
O O8 0.283022 0.242245 0.570976
O O9 0.275207 0.153308 0.639528
O O10 0.000000 0.179691 0.569287
O O11 0.500000 0.766260 0.750000
O O12 0.697398 0.857449 0.750000
O O13 0.788398 0.779022 0.683335
O O14 0.500000 0.586318 0.250000
O O15 0.000000 0.296403 0.614988
O O16 0.712536 0.098977 0.750000
O O17 0.000000 0.098490 0.681190
#
# Coordination Sequence:
#
# PCOD9468163 Si02
#       7
#    16  16  16   8   8  16  16
#     4   9  16  26  45  71  98 124 154 195 240 285
#     4  10  19  32  50  73  99 127 159 196 239 284
#     4   9  19  31  45  67  97 131 163 194 233 285
#     4  10  20  30  45  71  97 123 158 201 242 278
#     4  10  16  28  47  71  99 125 156 193 234 284
#     4  10  20  33  48  70  99 127 160 200 239 281
#     4   9  16  27  44  68  99 130 156 192 245 289
#
# _framework density 25.211967000000001
#
# number of rings (size 3 to 8) (size 9 to 14) (size 15 to 20)
#    0.000    2.500    2.500    0.500    1.167    0.667 
#    0.000    3.333    0.000    0.000    0.000    5.833 
#    0.000    0.000    0.000    0.000    0.000    0.000 
#
# Total GULP energy -268347.514397 kJ/mol
# GULP energy per Si atom -5590.573217 kJ/mol
# Density = 2.515458 g / cm^3
# Si number density = 25.211967 Si / 1000 Ang^3
#
#
#
# Elastic Constant Matrix: (Units=GPa)
#
#
# Indices 1 2 3 4 5 6 
#
# 1 122.9401 -12.7151 -10.2134 0.0000 0.0000 0.0000
# 2 -12.7151 79.3134 10.1643 0.0000 0.0000 0.0000
# 3 -10.2134 10.1643 78.5333 0.0000 0.0000 0.0000
# 4 0.0000 0.0000 0.0000 -3.3827 0.0000 0.0000
# 5 0.0000 0.0000 0.0000 0.0000 -51.4382 0.0000
# 6 0.0000 0.0000 0.0000 0.0000 0.0000 -8.2186
#
#
#
# Elastic Compliance Matrix: (Units=1/GPa)
#
#
# Indices 1 2 3 4 5 6 
#
# 1 0.008337 0.001218 0.000927 0.000000 0.000000 0.000000
# 2 0.001218 0.012999 -0.001524 0.000000 0.000000 0.000000
# 3 0.000927 -0.001524 0.013051 0.000000 0.000000 0.000000
# 4 0.000000 0.000000 0.000000 -0.295620 0.000000 0.000000
# 5 0.000000 0.000000 0.000000 0.000000 -0.019441 0.000000
# 6 0.000000 0.000000 0.000000 0.000000 0.000000 -0.121675
#
#
# Mechanical properties :
#
#
# Convention : Reuss Voigt Hill
#
# Bulk Modulus (GPa) = 28.06800 28.36203 28.21501
# Shear Modulus (GPa) = -12.76440 6.96217 -2.90112
#
# Velocity S-wave (km/s) = -2.25252 1.66356 -1.07387
# Velocity P-wave (km/s) = 2.09568 3.86830 3.11092
#
# Compressibility (1/GPa) = 0.03562776
#
# Stress axis : x y z
#
# Youngs Moduli (GPa) = 119.94764 76.93049 76.62123
#
# Poissons Ratio (x) = -0.09369 -0.07100
# Poissons Ratio (y) = -0.14607 0.11677
# Poissons Ratio (z) = -0.11115 0.11724
#
# Static dielectric constant tensor:
#      x y z
#    x 2.000380 0.000000 0.000000 
#    y 0.000000 1.898010 0.000000 
#    z 0.000000 0.000000 1.981870 
# 
# From -- ./inp_files/60099.got.cif
#   From: 2010.05.17/outbox.cif.g08.bks.cpg/sg63_31_cif.got.tgz:60099.got - 2010.06.03 15:47:04.
