data_PCOD9468969
_publ_section_title
;
Structure prediction by ZEFSAII (Michael W. Deem and Ramdas Pophale) SiO2 
 PCOD9468969
Probable space group: C M C M
;
_chemical_formula_sum "Si O2"
_cell_formula_units_Z 80
_cell_length_a 25.672941
_cell_length_b 21.176262
_cell_length_c 8.583929
_cell_angle_alpha 90.000000
_cell_angle_beta 90.000000
_cell_angle_gamma 90.000000
_cell_volume 4666.712444
_symmetry_space_group_name_H-M "C M C M"
_symmetry_group_IT_number 63
_symmetry_cell_setting 'orthorhombic'
loop_
_space_group_symop_operation_xyz
x,y,z
-x,-y,1/2+z
x,-y,-z
-x,y,1/2-z
-x,-y,-z
x,y,1/2-z
-x,y,z
x,-y,1/2+z
1/2+x,1/2+y,z
1/2-x,1/2-y,1/2+z
1/2+x,1/2-y,-z
1/2-x,1/2+y,1/2-z
1/2-x,1/2-y,-z
1/2+x,1/2+y,1/2-z
1/2-x,1/2+y,z
1/2+x,1/2-y,1/2+z
loop_
_atom_site_type_symbol
_atom_site_label
_atom_site_fract_x
_atom_site_fract_y
_atom_site_fract_z
Si Si1 0.500000 0.602422 0.433333
Si Si2 0.283230 0.808702 0.436349
Si Si3 0.000000 0.758847 0.065703
Si Si4 0.385677 0.753887 0.565022
Si Si5 0.886665 0.889481 0.937843
Si Si6 0.722315 0.433929 0.436546
O O1 0.500000 0.588091 0.250000
O O2 0.500000 0.678047 0.462040
O O3 0.557148 0.583473 0.495327
O O4 0.281707 0.806851 0.250000
O O5 0.250000 0.750000 0.500000
O O6 0.341935 0.798206 0.493205
O O7 0.256508 0.873869 0.488426
O O8 0.945318 0.724662 0.037830
O O9 0.000000 0.778092 0.250000
O O10 0.376873 0.748737 0.750000
O O11 0.381738 0.683278 0.494226
O O12 0.886534 0.890568 0.750000
O O13 0.836401 0.924689 0.001938
O O14 0.743129 0.500000 0.500000
O O15 0.721171 0.434823 0.250000
#
# Coordination Sequence:
#
# PCOD9468969 Si02
#       6
#     8  16   8  16  16  16
#     4   8  16  28  45  71  98 131 172 215 256 299
#     4  11  22  35  54  79 106 136 174 216 261 313
#     4   8  16  28  44  71 106 137 166 207 254 303
#     4  10  18  30  50  77 107 138 173 211 256 305
#     4  10  18  31  51  73 102 136 174 216 260 304
#     4  11  24  39  54  74 102 136 176 217 264 315
#
# _framework density 17.142689000000001
#
# number of rings (size 3 to 8) (size 9 to 14) (size 15 to 20)
#    0.000    2.000    2.000    2.400    0.000    4.000 
#    0.000    0.500    0.000    0.000    0.000    0.700 
#    0.000    0.000    0.000    0.000    0.000    0.000 
#
# Total GULP energy -223101.277323 kJ/mol
# GULP energy per Si atom -5577.531933 kJ/mol
# Density = 1.710367 g / cm^3
# Si number density = 17.142689 Si / 1000 Ang^3
#
#
#
# Elastic Constant Matrix: (Units=GPa)
#
#
# Indices 1 2 3 4 5 6 
#
# 1 112.7335 55.9345 23.2441 0.0000 0.0000 0.0000
# 2 55.9345 97.7817 24.6292 0.0000 0.0000 0.0000
# 3 23.2441 24.6292 40.1964 0.0000 0.0000 0.0000
# 4 0.0000 0.0000 0.0000 20.6268 0.0000 0.0000
# 5 0.0000 0.0000 0.0000 0.0000 26.0178 0.0000
# 6 0.0000 0.0000 0.0000 0.0000 0.0000 12.6622
#
#
#
# Elastic Compliance Matrix: (Units=1/GPa)
#
#
# Indices 1 2 3 4 5 6 
#
# 1 0.012776 -0.006442 -0.003441 0.000000 0.000000 0.000000
# 2 -0.006442 0.015341 -0.005675 0.000000 0.000000 0.000000
# 3 -0.003441 -0.005675 0.030345 0.000000 0.000000 0.000000
# 4 0.000000 0.000000 0.000000 0.048481 0.000000 0.000000
# 5 0.000000 0.000000 0.000000 0.000000 0.038435 0.000000
# 6 0.000000 0.000000 0.000000 0.000000 0.000000 0.078976
#
#
# Mechanical properties :
#
#
# Convention : Reuss Voigt Hill
#
# Bulk Modulus (GPa) = 36.56718 50.92525 43.74622
# Shear Modulus (GPa) = 18.89758 21.65492 20.27625
#
# Velocity S-wave (km/s) = 3.32380 3.55803 3.44291
# Velocity P-wave (km/s) = 6.00896 6.83013 6.43266
#
# Compressibility (1/GPa) = 0.02734693
#
# Stress axis : x y z
#
# Youngs Moduli (GPa) = 78.27121 65.18439 32.95461
#
# Poissons Ratio (x) = 0.41989 0.11340
# Poissons Ratio (y) = 0.50420 0.18701
# Poissons Ratio (z) = 0.26933 0.36991
#
# Static dielectric constant tensor:
#      x y z
#    x 1.628920 0.000000 0.000000 
#    y 0.000000 1.589400 0.000000 
#    z 0.000000 0.000000 1.584690 
# 
# From -- ./inp_files/12253.got.cif
#   From: 2010.05.17/outbox.cif.g08.bks.cpg/sg63_7_cif.got.tgz:12253.got - 2010.06.03 15:47:04.
