data_PCOD9468780
_publ_section_title
;
Structure prediction by ZEFSAII (Michael W. Deem and Ramdas Pophale) SiO2 
 PCOD9468780
Probable space group: C M C M
;
_chemical_formula_sum "Si O2"
_cell_formula_units_Z 56
_cell_length_a 16.454733
_cell_length_b 24.568968
_cell_length_c 5.596547
_cell_angle_alpha 90.000000
_cell_angle_beta 90.000000
_cell_angle_gamma 90.000000
_cell_volume 2262.548563
_symmetry_space_group_name_H-M "C M C M"
_symmetry_group_IT_number 63
_symmetry_cell_setting 'orthorhombic'
loop_
_space_group_symop_operation_xyz
x,y,z
-x,-y,1/2+z
x,-y,-z
-x,y,1/2-z
-x,-y,-z
x,y,1/2-z
-x,y,z
x,-y,1/2+z
1/2+x,1/2+y,z
1/2-x,1/2-y,1/2+z
1/2+x,1/2-y,-z
1/2-x,1/2+y,1/2-z
1/2-x,1/2-y,-z
1/2+x,1/2+y,1/2-z
1/2-x,1/2+y,z
1/2+x,1/2-y,1/2+z
loop_
_atom_site_type_symbol
_atom_site_label
_atom_site_fract_x
_atom_site_fract_y
_atom_site_fract_z
Si Si1 0.886686 0.529694 0.750000
Si Si2 0.691564 0.470982 0.250000
Si Si3 0.000000 0.367059 0.250000
Si Si4 0.000000 0.637625 0.250000
Si Si5 0.176211 0.648662 0.250000
Si Si6 0.627706 0.650982 0.750000
Si Si7 0.356895 0.330861 0.750000
Si Si8 0.300244 0.206842 0.750000
O O1 0.909637 0.500000 0.500000
O O2 0.789534 0.534042 0.750000
O O3 0.926713 0.589167 0.750000
O O4 0.668500 0.500000 0.500000
O O5 0.656334 0.410942 0.250000
O O6 0.000000 0.333712 0.493594
O O7 0.092738 0.612231 0.250000
O O8 0.272621 0.631161 0.250000
O O9 0.170227 0.681263 0.499462
O O10 0.592720 0.660611 0.489530
O O11 0.705396 0.691621 0.750000
O O12 0.321061 0.269915 0.750000
#
# Coordination Sequence:
#
# PCOD9468780 Si02
#       8
#     8   8   4   4   8   8   8   8
#     4  10  21  36  50  60  77 110 157 213 256 284
#     4  10  21  33  45  65  89 122 160 192 239 299
#     4  12  24  35  50  60  86 108 168 202 254 293
#     4  12  26  33  46  74  90 130 150 190 236 321
#     4  10  20  33  46  65 100 116 147 183 236 294
#     4  10  18  29  49  69  93 115 144 194 247 284
#     4  10  19  31  54  75  91 111 151 202 250 278
#     4  10  19  34  53  74  90 115 148 206 244 280
#
# _framework density 24.750851999999998
#
# number of rings (size 3 to 8) (size 9 to 14) (size 15 to 20)
#    0.000    1.714    0.000    7.286    8.000    0.000 
#    0.000    0.000    0.000    0.000    0.000    0.000 
#    0.000    0.000    0.000    0.000    0.000    0.000 
#
# Total GULP energy -156080.282912 kJ/mol
# GULP energy per Si atom -5574.295818 kJ/mol
# Density = 2.469452 g / cm^3
# Si number density = 24.750852 Si / 1000 Ang^3
#
#
#
# Elastic Constant Matrix: (Units=GPa)
#
#
# Indices 1 2 3 4 5 6 
#
# 1 90.3448 9.2613 25.2338 0.0000 0.0000 0.0000
# 2 9.2613 75.1434 62.7532 0.0000 0.0000 0.0000
# 3 25.2338 62.7532 324.3024 0.0000 0.0000 0.0000
# 4 0.0000 0.0000 0.0000 41.9918 0.0000 0.0000
# 5 0.0000 0.0000 0.0000 0.0000 -11.0979 0.0000
# 6 0.0000 0.0000 0.0000 0.0000 0.0000 -0.2949
#
#
#
# Elastic Compliance Matrix: (Units=1/GPa)
#
#
# Indices 1 2 3 4 5 6 
#
# 1 0.011354 -0.000789 -0.000731 0.000000 0.000000 0.000000
# 2 -0.000789 0.015928 -0.003021 0.000000 0.000000 0.000000
# 3 -0.000731 -0.003021 0.003725 0.000000 0.000000 0.000000
# 4 0.000000 0.000000 0.000000 0.023814 0.000000 0.000000
# 5 0.000000 0.000000 0.000000 0.000000 -0.090107 0.000000
# 6 0.000000 0.000000 0.000000 0.000000 0.000000 -3.391047
#
#
# Mechanical properties :
#
#
# Convention : Reuss Voigt Hill
#
# Bulk Modulus (GPa) = 45.60923 76.03192 60.82057
# Shear Modulus (GPa) = -1.46630 32.28930 15.41150
#
# Velocity S-wave (km/s) = -0.77053 3.61581 2.49803
# Velocity P-wave (km/s) = 4.20425 6.94389 5.73992
#
# Compressibility (1/GPa) = 0.02192539
#
# Stress axis : x y z
#
# Youngs Moduli (GPa) = 88.07710 62.78364 268.46343
#
# Poissons Ratio (x) = 0.04954 0.19618
# Poissons Ratio (y) = 0.06950 0.81093
# Poissons Ratio (z) = 0.06436 0.18965
#
# Static dielectric constant tensor:
#      x y z
#    x 2.018480 0.000000 0.000000 
#    y 0.000000 1.926220 0.000000 
#    z 0.000000 0.000000 2.068710 
# 
# From -- ./inp_files/811.got.cif
#   From: 2010.05.17/outbox.cif.g08.bks.cpg/sg63_1_cif.got.tgz:811.got - 2010.06.03 15:47:04.
