data_PCOD9468181
_publ_section_title
;
Structure prediction by ZEFSAII (Michael W. Deem and Ramdas Pophale) SiO2 
 PCOD9468181
Probable space group: C M C M
;
_chemical_formula_sum "Si O2"
_cell_formula_units_Z 108
_cell_length_a 24.220865
_cell_length_b 14.575915
_cell_length_c 13.328115
_cell_angle_alpha 90.000000
_cell_angle_beta 90.000000
_cell_angle_gamma 90.000000
_cell_volume 4705.374639
_symmetry_space_group_name_H-M "C M C M"
_symmetry_group_IT_number 63
_symmetry_cell_setting 'orthorhombic'
loop_
_space_group_symop_operation_xyz
x,y,z
-x,-y,1/2+z
x,-y,-z
-x,y,1/2-z
-x,-y,-z
x,y,1/2-z
-x,y,z
x,-y,1/2+z
1/2+x,1/2+y,z
1/2-x,1/2-y,1/2+z
1/2+x,1/2-y,-z
1/2-x,1/2+y,1/2-z
1/2-x,1/2-y,-z
1/2+x,1/2+y,1/2-z
1/2-x,1/2+y,z
1/2+x,1/2-y,1/2+z
loop_
_atom_site_type_symbol
_atom_site_label
_atom_site_fract_x
_atom_site_fract_y
_atom_site_fract_z
Si Si1 0.000000 0.300206 0.059110
Si Si2 0.827566 0.061124 0.627801
Si Si3 0.714053 0.165101 0.628343
Si Si4 0.400941 0.932761 0.128682
Si Si5 0.350737 0.878663 0.871177
Si Si6 0.412744 0.702366 0.566855
Si Si7 0.774970 0.125737 0.371456
Si Si8 0.500000 0.712370 0.750000
O O1 0.048299 0.377089 0.084443
O O2 0.049202 0.225297 0.028330
O O3 0.833544 0.068982 0.750000
O O4 0.771182 0.115535 0.599813
O O5 0.880312 0.107783 0.577682
O O6 0.816634 0.955183 0.602278
O O7 0.715090 0.164742 0.750000
O O8 0.658104 0.112117 0.601770
O O9 0.712292 0.271017 0.595695
O O10 0.406579 0.927282 0.250000
O O11 0.393629 0.040368 0.103541
O O12 0.351582 0.870321 0.750000
O O13 0.368424 0.782898 0.916986
O O14 0.287735 0.900609 0.898901
O O15 0.452794 0.713232 0.662057
O O16 0.775419 0.128126 0.250000
#
# Coordination Sequence:
#
# PCOD9468181 Si02
#       8
#     8  16  16  16  16  16  16   4
#     4  11  27  41  53  78 111 157 201 239 276 332
#     4  10  16  29  56  89 118 147 179 232 286 338
#     4   9  16  29  56  87 113 140 180 234 289 336
#     4  10  21  39  59  79 108 149 194 238 284 340
#     4  10  17  30  56  87 117 149 181 223 277 346
#     4  11  21  35  56  79 120 153 191 229 274 334
#     4   9  16  26  52  93 120 138 181 229 284 342
#     4  10  20  34  50  80 108 164 188 214 260 330
#
# _framework density 22.952476999999998
#
# number of rings (size 3 to 8) (size 9 to 14) (size 15 to 20)
#    0.000    2.074    4.444    0.222    0.000    2.370 
#    0.000    0.741    0.000    3.556    0.000    0.000 
#    0.000    0.000    0.000    0.000    0.000    0.000 
#
# Total GULP energy -300683.656047 kJ/mol
# GULP energy per Si atom -5568.215853 kJ/mol
# Density = 2.290024 g / cm^3
# Si number density = 22.952477 Si / 1000 Ang^3
#
#
#
# Elastic Constant Matrix: (Units=GPa)
#
#
# Indices 1 2 3 4 5 6 
#
# 1 91.2367 25.8927 19.1049 0.0000 0.0000 0.0000
# 2 25.8927 106.3048 8.4293 0.0000 0.0000 0.0000
# 3 19.1049 8.4293 69.4199 0.0000 0.0000 0.0000
# 4 0.0000 0.0000 0.0000 30.4527 0.0000 0.0000
# 5 0.0000 0.0000 0.0000 0.0000 45.0975 0.0000
# 6 0.0000 0.0000 0.0000 0.0000 0.0000 5.3585
#
#
#
# Elastic Compliance Matrix: (Units=1/GPa)
#
#
# Indices 1 2 3 4 5 6 
#
# 1 0.012391 -0.002774 -0.003073 0.000000 0.000000 0.000000
# 2 -0.002774 0.010120 -0.000465 0.000000 0.000000 0.000000
# 3 -0.003073 -0.000465 0.015307 0.000000 0.000000 0.000000
# 4 0.000000 0.000000 0.000000 0.032838 0.000000 0.000000
# 5 0.000000 0.000000 0.000000 0.000000 0.022174 0.000000
# 6 0.000000 0.000000 0.000000 0.000000 0.000000 0.186621
#
#
# Mechanical properties :
#
#
# Convention : Reuss Voigt Hill
#
# Bulk Modulus (GPa) = 39.69460 41.53503 40.61481
# Shear Modulus (GPa) = 16.64035 30.41738 23.52887
#
# Velocity S-wave (km/s) = 2.69549 3.64432 3.20521
# Velocity P-wave (km/s) = 5.19801 5.98695 5.60637
#
# Compressibility (1/GPa) = 0.02519234
#
# Stress axis : x y z
#
# Youngs Moduli (GPa) = 80.70078 98.81827 65.32796
#
# Poissons Ratio (x) = 0.27417 0.20077
# Poissons Ratio (y) = 0.22390 0.03039
# Poissons Ratio (z) = 0.24802 0.04597
#
# Static dielectric constant tensor:
#      x y z
#    x 1.845140 0.000000 0.000000 
#    y 0.000000 1.828190 0.000000 
#    z 0.000000 0.000000 1.994810 
# 
# From -- ./inp_files/36973.got.cif
#   From: 2010.05.17/outbox.cif.g08.bks.cpg/sg63_19_cif.got.tgz:36973.got - 2010.06.03 15:47:04.
