data_PCOD9468906
_publ_section_title
;
Structure prediction by ZEFSAII (Michael W. Deem and Ramdas Pophale) SiO2 
 PCOD9468906
Probable space group: C M C M
;
_chemical_formula_sum "Si O2"
_cell_formula_units_Z 80
_cell_length_a 7.678907
_cell_length_b 20.943585
_cell_length_c 29.024993
_cell_angle_alpha 90.000000
_cell_angle_beta 90.000000
_cell_angle_gamma 90.000000
_cell_volume 4667.910873
_symmetry_space_group_name_H-M "C M C M"
_symmetry_group_IT_number 63
_symmetry_cell_setting 'orthorhombic'
loop_
_space_group_symop_operation_xyz
x,y,z
-x,-y,1/2+z
x,-y,-z
-x,y,1/2-z
-x,-y,-z
x,y,1/2-z
-x,y,z
x,-y,1/2+z
1/2+x,1/2+y,z
1/2-x,1/2-y,1/2+z
1/2+x,1/2-y,-z
1/2-x,1/2+y,1/2-z
1/2-x,1/2-y,-z
1/2+x,1/2+y,1/2-z
1/2-x,1/2+y,z
1/2+x,1/2-y,1/2+z
loop_
_atom_site_type_symbol
_atom_site_label
_atom_site_fract_x
_atom_site_fract_y
_atom_site_fract_z
Si Si1 0.706588 0.239769 0.626931
Si Si2 0.711509 0.064595 0.474320
Si Si3 0.791422 0.312106 0.029854
Si Si4 0.000000 0.395705 0.802880
Si Si5 0.000000 0.240778 0.801905
Si Si6 0.800662 0.108085 0.373427
O O1 0.500000 0.229750 0.634817
O O2 0.766819 0.201281 0.581861
O O3 0.730292 0.315907 0.617572
O O4 0.827844 0.222556 0.669758
O O5 0.500000 0.065927 0.473107
O O6 0.774759 0.125250 0.503983
O O7 0.771974 0.072398 0.421765
O O8 0.765085 0.000000 0.500000
O O9 0.000000 0.317836 0.032320
O O10 0.750000 0.250000 0.000000
O O11 0.000000 0.318289 0.800197
O O12 0.832193 0.413142 0.833676
O O13 0.000000 0.419186 0.750000
O O14 0.000000 0.216475 0.750000
O O15 0.000000 0.101093 0.358455
#
# Coordination Sequence:
#
# PCOD9468906 Si02
#       6
#    16  16  16   8   8  16
#     4   9  18  30  46  73 101 128 170 210 247 304
#     4  10  20  33  49  72 107 142 174 210 256 308
#     4  10  19  29  48  73 100 137 173 206 248 304
#     4   9  18  32  49  71 101 132 167 210 260 309
#     4   9  18  30  48  71 100 134 162 206 267 307
#     4  10  18  30  49  72 101 134 166 208 257 304
#
# _framework density 17.138287999999999
#
# number of rings (size 3 to 8) (size 9 to 14) (size 15 to 20)
#    0.000    2.400    3.000    0.000    1.400    1.200 
#    0.000    4.000    0.000    0.000    0.000    1.400 
#    0.000    0.000    0.000    0.000    0.000    0.000 
#
# Total GULP energy -223029.766297 kJ/mol
# GULP energy per Si atom -5575.744157 kJ/mol
# Density = 1.709928 g / cm^3
# Si number density = 17.138288 Si / 1000 Ang^3
#
#
#
# Elastic Constant Matrix: (Units=GPa)
#
#
# Indices 1 2 3 4 5 6 
#
# 1 74.7782 22.1923 64.0187 0.0000 0.0000 0.0000
# 2 22.1923 66.9644 45.5522 0.0000 0.0000 0.0000
# 3 64.0187 45.5522 180.4847 0.0000 0.0000 0.0000
# 4 0.0000 0.0000 0.0000 15.6196 0.0000 0.0000
# 5 0.0000 0.0000 0.0000 0.0000 22.2732 0.0000
# 6 0.0000 0.0000 0.0000 0.0000 0.0000 8.3044
#
#
#
# Elastic Compliance Matrix: (Units=1/GPa)
#
#
# Indices 1 2 3 4 5 6 
#
# 1 0.019450 -0.002116 -0.006365 0.000000 0.000000 0.000000
# 2 -0.002116 0.018259 -0.003858 0.000000 0.000000 0.000000
# 3 -0.006365 -0.003858 0.008772 0.000000 0.000000 0.000000
# 4 0.000000 0.000000 0.000000 0.064022 0.000000 0.000000
# 5 0.000000 0.000000 0.000000 0.000000 0.044897 0.000000
# 6 0.000000 0.000000 0.000000 0.000000 0.000000 0.120419
#
#
# Mechanical properties :
#
#
# Convention : Reuss Voigt Hill
#
# Bulk Modulus (GPa) = 45.86474 65.08374 55.47424
# Shear Modulus (GPa) = 16.24625 21.93707 19.09166
#
# Velocity S-wave (km/s) = 3.08222 3.58159 3.34125
# Velocity P-wave (km/s) = 6.28382 7.42710 6.87925
#
# Compressibility (1/GPa) = 0.02180324
#
# Stress axis : x y z
#
# Youngs Moduli (GPa) = 51.41397 54.76821 114.00000
#
# Poissons Ratio (x) = 0.11590 0.72560
# Poissons Ratio (y) = 0.10880 0.43978
# Poissons Ratio (z) = 0.32724 0.21128
#
# Static dielectric constant tensor:
#      x y z
#    x 1.608790 0.000000 0.000000 
#    y 0.000000 1.563170 0.000000 
#    z 0.000000 0.000000 1.567490 
# 
# From -- ./inp_files/66834.got.cif
#   From: 2010.05.17/outbox.cif.g08.bks.cpg/sg63_34_cif.got.tgz:66834.got - 2010.06.03 15:47:04.
