data_PCOD9468397
_publ_section_title
;
Structure prediction by ZEFSAII (Michael W. Deem and Ramdas Pophale) SiO2 
 PCOD9468397
Probable space group: C M C M
;
_chemical_formula_sum "Si O2"
_cell_formula_units_Z 80
_cell_length_a 18.250943
_cell_length_b 11.643071
_cell_length_c 19.959932
_cell_angle_alpha 90.000000
_cell_angle_beta 90.000000
_cell_angle_gamma 90.000000
_cell_volume 4241.426173
_symmetry_space_group_name_H-M "C M C M"
_symmetry_group_IT_number 63
_symmetry_cell_setting 'orthorhombic'
loop_
_space_group_symop_operation_xyz
x,y,z
-x,-y,1/2+z
x,-y,-z
-x,y,1/2-z
-x,-y,-z
x,y,1/2-z
-x,y,z
x,-y,1/2+z
1/2+x,1/2+y,z
1/2-x,1/2-y,1/2+z
1/2+x,1/2-y,-z
1/2-x,1/2+y,1/2-z
1/2-x,1/2-y,-z
1/2+x,1/2+y,1/2-z
1/2-x,1/2+y,z
1/2+x,1/2-y,1/2+z
loop_
_atom_site_type_symbol
_atom_site_label
_atom_site_fract_x
_atom_site_fract_y
_atom_site_fract_z
Si Si1 0.822146 0.380917 0.987441
Si Si2 0.088553 0.598192 0.750000
Si Si3 0.332028 0.715058 0.868128
Si Si4 0.663570 0.465491 0.570651
Si Si5 0.167885 0.264983 0.367700
Si Si6 0.913694 0.667859 0.250000
O O1 0.849190 0.285308 0.936272
O O2 0.744281 0.419608 0.953990
O O3 0.864601 0.500000 0.000000
O O4 0.817776 0.326630 0.060745
O O5 0.120669 0.661820 0.684252
O O6 0.113833 0.464607 0.750000
O O7 0.000000 0.603190 0.750000
O O8 0.332481 0.580241 0.885322
O O9 0.250882 0.747430 0.841190
O O10 0.387634 0.760945 0.813815
O O11 0.626133 0.500000 0.500000
O O12 0.633931 0.358553 0.613185
O O13 0.000000 0.658412 0.250000
#
# Coordination Sequence:
#
# PCOD9468397 Si02
#       6
#    16   8  16  16  16   8
#     4  10  17  30  59  96 125 151 196 258 315 356
#     4  11  27  47  59  81 128 174 216 254 301 368
#     4  11  20  37  62  93 127 155 204 258 307 372
#     4  10  17  32  59 100 125 145 190 259 325 358
#     4  11  20  36  64  95 123 162 203 257 313 368
#     4  11  27  45  59  81 126 174 212 256 305 366
#
# _framework density 18.861581000000001
#
# number of rings (size 3 to 8) (size 9 to 14) (size 15 to 20)
#    0.000    1.400    6.000    3.000    2.800    0.800 
#    0.000    3.000    0.000    4.800    0.000    0.000 
#    0.000    0.000    0.000    0.000    0.000    0.000 
#
# Total GULP energy -222840.590328 kJ/mol
# GULP energy per Si atom -5571.014758 kJ/mol
# Density = 1.881865 g / cm^3
# Si number density = 18.861581 Si / 1000 Ang^3
#
#
#
# Elastic Constant Matrix: (Units=GPa)
#
#
# Indices 1 2 3 4 5 6 
#
# 1 36.2638 23.3667 32.9133 0.0000 0.0000 0.0000
# 2 23.3667 178.3471 71.1159 0.0000 0.0000 0.0000
# 3 32.9133 71.1159 121.8309 0.0000 0.0000 0.0000
# 4 0.0000 0.0000 0.0000 -67.2612 0.0000 0.0000
# 5 0.0000 0.0000 0.0000 0.0000 -76.5067 0.0000
# 6 0.0000 0.0000 0.0000 0.0000 0.0000 18.0342
#
#
#
# Elastic Compliance Matrix: (Units=1/GPa)
#
#
# Indices 1 2 3 4 5 6 
#
# 1 0.036703 -0.001114 -0.009265 0.000000 0.000000 0.000000
# 2 -0.001114 0.007342 -0.003985 0.000000 0.000000 0.000000
# 3 -0.009265 -0.003985 0.013037 0.000000 0.000000 0.000000
# 4 0.000000 0.000000 0.000000 -0.014867 0.000000 0.000000
# 5 0.000000 0.000000 0.000000 0.000000 -0.013071 0.000000
# 6 0.000000 0.000000 0.000000 0.000000 0.000000 0.055450
#
#
# Mechanical properties :
#
#
# Convention : Reuss Voigt Hill
#
# Bulk Modulus (GPa) = 35.26870 65.69262 50.48066
# Shear Modulus (GPa) = 40.72572 -11.21032 14.75770
#
# Velocity S-wave (km/s) = 4.65175 -2.44057 2.80021
# Velocity P-wave (km/s) = 6.89862 5.19255 6.10547
#
# Compressibility (1/GPa) = 0.02835375
#
# Stress axis : x y z
#
# Youngs Moduli (GPa) = 27.24601 136.20441 76.70468
#
# Poissons Ratio (x) = 0.15177 0.71067
# Poissons Ratio (y) = 0.03036 0.30564
# Poissons Ratio (z) = 0.25243 0.54272
#
# Static dielectric constant tensor:
#      x y z
#    x 1.663260 0.000000 0.000000 
#    y 0.000000 1.727320 0.000000 
#    z 0.000000 0.000000 1.680450 
# 
# From -- ./inp_files/46864.got.cif
#   From: 2010.05.17/outbox.cif.g08.bks.cpg/sg63_24_cif.got.tgz:46864.got - 2010.06.03 15:47:04.
