data_PCOD9468427
_publ_section_title
;
Structure prediction by ZEFSAII (Michael W. Deem and Ramdas Pophale) SiO2 
 PCOD9468427
Probable space group: C M C M
;
_chemical_formula_sum "Si O2"
_cell_formula_units_Z 84
_cell_length_a 18.351721
_cell_length_b 14.168817
_cell_length_c 15.467098
_cell_angle_alpha 90.000000
_cell_angle_beta 90.000000
_cell_angle_gamma 90.000000
_cell_volume 4021.788486
_symmetry_space_group_name_H-M "C M C M"
_symmetry_group_IT_number 63
_symmetry_cell_setting 'orthorhombic'
loop_
_space_group_symop_operation_xyz
x,y,z
-x,-y,1/2+z
x,-y,-z
-x,y,1/2-z
-x,-y,-z
x,y,1/2-z
-x,y,z
x,-y,1/2+z
1/2+x,1/2+y,z
1/2-x,1/2-y,1/2+z
1/2+x,1/2-y,-z
1/2-x,1/2+y,1/2-z
1/2-x,1/2-y,-z
1/2+x,1/2+y,1/2-z
1/2-x,1/2+y,z
1/2+x,1/2-y,1/2+z
loop_
_atom_site_type_symbol
_atom_site_label
_atom_site_fract_x
_atom_site_fract_y
_atom_site_fract_z
Si Si1 0.204269 0.871332 0.584631
Si Si2 0.776584 0.073885 0.887552
Si Si3 0.844252 0.269478 0.656036
Si Si4 0.110323 0.566189 0.842527
Si Si5 0.500000 0.953465 0.750000
Si Si6 0.418236 0.227266 0.972967
O O1 0.232940 0.892483 0.487238
O O2 0.270265 0.828530 0.639515
O O3 0.139762 0.796590 0.573213
O O4 0.181635 0.974624 0.617378
O O5 0.817822 0.160514 0.844939
O O6 0.696313 0.053998 0.851499
O O7 0.877363 0.289829 0.750000
O O8 0.894433 0.282171 0.572458
O O9 0.095300 0.618450 0.750000
O O10 0.085439 0.628484 0.922443
O O11 0.436050 0.972416 0.825299
O O12 0.500000 0.265064 0.967762
#
# Coordination Sequence:
#
# PCOD9468427 Si02
#       6
#    16  16  16  16   4  16
#     4  10  21  36  60  91 114 155 210 248 303 355
#     4  10  19  36  59  86 118 150 205 261 295 348
#     4  11  22  37  59  86 122 165 206 246 298 366
#     4  10  17  32  58  88 115 150 187 249 307 356
#     4   8  20  28  56  94 114 150 196 232 340 354
#     4  11  20  38  62  89 126 156 199 253 302 356
#
# _framework density 20.886230000000001
#
# number of rings (size 3 to 8) (size 9 to 14) (size 15 to 20)
#    0.571    1.143    4.762    1.714    0.000    1.905 
#    0.000    7.619    2.095    2.286    0.000    0.000 
#    0.000    0.000    0.000    0.000    0.000    0.000 
#
# Total GULP energy -233852.686127 kJ/mol
# GULP energy per Si atom -5567.921098 kJ/mol
# Density = 2.083869 g / cm^3
# Si number density = 20.886230 Si / 1000 Ang^3
#
#
#
# Elastic Constant Matrix: (Units=GPa)
#
#
# Indices 1 2 3 4 5 6 
#
# 1 53.9347 -13.8006 -8.1248 0.0000 0.0000 0.0000
# 2 -13.8006 89.7401 16.3756 0.0000 0.0000 0.0000
# 3 -8.1248 16.3756 78.0168 0.0000 0.0000 0.0000
# 4 0.0000 0.0000 0.0000 10.1124 0.0000 0.0000
# 5 0.0000 0.0000 0.0000 0.0000 126.5203 0.0000
# 6 0.0000 0.0000 0.0000 0.0000 0.0000 -11.3592
#
#
#
# Elastic Compliance Matrix: (Units=1/GPa)
#
#
# Indices 1 2 3 4 5 6 
#
# 1 0.019458 0.002727 0.001454 0.000000 0.000000 0.000000
# 2 0.002727 0.011969 -0.002228 0.000000 0.000000 0.000000
# 3 0.001454 -0.002228 0.013437 0.000000 0.000000 0.000000
# 4 0.000000 0.000000 0.000000 0.098888 0.000000 0.000000
# 5 0.000000 0.000000 0.000000 0.000000 0.007904 0.000000
# 6 0.000000 0.000000 0.000000 0.000000 0.000000 -0.088035
#
#
# Mechanical properties :
#
#
# Convention : Reuss Voigt Hill
#
# Bulk Modulus (GPa) = 20.50477 23.39911 21.95194
# Shear Modulus (GPa) = 65.81343 40.20415 53.00879
#
# Velocity S-wave (km/s) = 5.61951 4.39214 5.04330
# Velocity P-wave (km/s) = 7.20720 6.07854 6.66680
#
# Compressibility (1/GPa) = 0.04876914
#
# Stress axis : x y z
#
# Youngs Moduli (GPa) = 51.39340 83.54721 74.42195
#
# Poissons Ratio (x) = -0.22783 -0.10821
# Poissons Ratio (y) = -0.14015 0.16584
# Poissons Ratio (z) = -0.07472 0.18617
#
# Static dielectric constant tensor:
#      x y z
#    x 1.729570 0.000000 0.000000 
#    y 0.000000 1.788980 0.000000 
#    z 0.000000 0.000000 1.787950 
# 
# From -- ./inp_files/36729.got.cif
#   From: 2010.05.17/outbox.cif.g08.bks.cpg/sg63_19_cif.got.tgz:36729.got - 2010.06.03 15:47:04.
