data_PCOD9468790
_publ_section_title
;
Structure prediction by ZEFSAII (Michael W. Deem and Ramdas Pophale) SiO2 
 PCOD9468790
Probable space group: C M C M
;
_chemical_formula_sum "Si O2"
_cell_formula_units_Z 88
_cell_length_a 25.400729
_cell_length_b 9.159933
_cell_length_c 20.769869
_cell_angle_alpha 90.000000
_cell_angle_beta 90.000000
_cell_angle_gamma 90.000000
_cell_volume 4832.504148
_symmetry_space_group_name_H-M "C M C M"
_symmetry_group_IT_number 63
_symmetry_cell_setting 'orthorhombic'
loop_
_space_group_symop_operation_xyz
x,y,z
-x,-y,1/2+z
x,-y,-z
-x,y,1/2-z
-x,-y,-z
x,y,1/2-z
-x,y,z
x,-y,1/2+z
1/2+x,1/2+y,z
1/2-x,1/2-y,1/2+z
1/2+x,1/2-y,-z
1/2-x,1/2+y,1/2-z
1/2-x,1/2-y,-z
1/2+x,1/2+y,1/2-z
1/2-x,1/2+y,z
1/2+x,1/2-y,1/2+z
loop_
_atom_site_type_symbol
_atom_site_label
_atom_site_fract_x
_atom_site_fract_y
_atom_site_fract_z
Si Si1 0.000000 0.162840 0.643281
Si Si2 0.882868 0.335273 0.000000
Si Si3 0.306291 0.674856 0.750000
Si Si4 0.000000 0.837160 0.856719
Si Si5 0.383886 0.322912 0.366032
Si Si6 0.116114 0.177088 0.366032
Si Si7 0.500000 0.250000 1.000000
Si Si8 0.193709 0.825144 0.750000
O O1 0.057548 0.228522 0.657217
O O2 0.000000 0.158123 0.565299
O O3 0.000000 0.000000 0.671108
O O4 0.869968 0.248450 0.065401
O O5 0.946543 0.339905 1.000000
O O6 0.861845 0.500000 0.000000
O O7 0.869968 0.248450 0.934599
O O8 0.340772 0.712855 0.687308
O O9 0.250000 0.750000 0.750000
O O10 0.299652 0.500000 0.750000
O O11 0.942452 0.771478 0.842783
O O12 0.000000 0.841877 0.934701
O O13 0.387180 0.500000 0.372999
O O14 0.159228 0.212855 0.312692
#
# Coordination Sequence:
#
# PCOD9468790 Si02
#       8
#     8  16   8   8  16  16   8   8
#     4   8  13  24  47  76 104 132 164 202 248 300
#     4  10  18  29  49  78 108 138 170 205 248 301
#     4  10  22  39  57  75  99 134 175 216 260 306
#     4   8  13  24  47  76 104 132 164 202 248 300
#     4   9  18  33  53  78 106 136 169 208 253 303
#     4   9  18  33  53  78 106 136 169 208 253 303
#     4   8  14  24  40  68 109 144 165 192 239 300
#     4  10  22  39  57  75  99 134 175 216 260 306
#
# _framework density 18.210021000000001
#
# number of rings (size 3 to 8) (size 9 to 14) (size 15 to 20)
#    0.000    2.909    0.000    1.091    0.000    6.545 
#    0.000    4.545    0.000    0.000    0.000    8.909 
#    0.000    0.000    0.000    0.000    0.000    0.000 
#
# Total GULP energy -244947.638718 kJ/mol
# GULP energy per Si atom -5566.991789 kJ/mol
# Density = 1.816857 g / cm^3
# Si number density = 18.210021 Si / 1000 Ang^3
#
#
#
# Elastic Constant Matrix: (Units=GPa)
#
#
# Indices 1 2 3 4 5 6 
#
# 1 144.8720 34.4776 88.2539 0.0000 0.0000 0.0000
# 2 34.4776 47.6169 46.1411 0.0000 0.0000 0.0000
# 3 88.2539 46.1411 141.1515 0.0000 0.0000 0.0000
# 4 0.0000 0.0000 0.0000 9.2419 0.0000 0.0000
# 5 0.0000 0.0000 0.0000 0.0000 153.7552 0.0000
# 6 0.0000 0.0000 0.0000 0.0000 0.0000 17.0623
#
#
#
# Elastic Compliance Matrix: (Units=1/GPa)
#
#
# Indices 1 2 3 4 5 6 
#
# 1 0.011272 -0.001950 -0.006410 0.000000 0.000000 0.000000
# 2 -0.001950 0.031075 -0.008939 0.000000 0.000000 0.000000
# 3 -0.006410 -0.008939 0.014014 0.000000 0.000000 0.000000
# 4 0.000000 0.000000 0.000000 0.108203 0.000000 0.000000
# 5 0.000000 0.000000 0.000000 0.000000 0.006504 0.000000
# 6 0.000000 0.000000 0.000000 0.000000 0.000000 0.058609
#
#
# Mechanical properties :
#
#
# Convention : Reuss Voigt Hill
#
# Bulk Modulus (GPa) = 45.94950 74.59839 60.27395
# Shear Modulus (GPa) = 18.41430 46.99638 32.70534
#
# Velocity S-wave (km/s) = 3.18342 5.08567 4.24253
# Velocity P-wave (km/s) = 6.22897 8.69137 7.56108
#
# Compressibility (1/GPa) = 0.02176302
#
# Stress axis : x y z
#
# Youngs Moduli (GPa) = 88.71826 32.18060 71.35497
#
# Poissons Ratio (x) = 0.06275 0.45739
# Poissons Ratio (y) = 0.17300 0.63783
# Poissons Ratio (z) = 0.56869 0.28766
#
# Static dielectric constant tensor:
#      x y z
#    x 1.639460 0.000000 0.000000 
#    y 0.000000 1.638420 0.000000 
#    z 0.000000 0.000000 1.621650 
# 
# From -- ./inp_files/57425.got.cif
#   From: 2010.05.17/outbox.cif.g08.bks.cpg/sg63_29_cif.got.tgz:57425.got - 2010.06.03 15:47:04.
