data_PCOD9468348
_publ_section_title
;
Structure prediction by ZEFSAII (Michael W. Deem and Ramdas Pophale) SiO2 
 PCOD9468348
Probable space group: C M C M
;
_chemical_formula_sum "Si O2"
_cell_formula_units_Z 80
_cell_length_a 19.652215
_cell_length_b 34.198985
_cell_length_c 8.722304
_cell_angle_alpha 90.000000
_cell_angle_beta 90.000000
_cell_angle_gamma 90.000000
_cell_volume 5862.136714
_symmetry_space_group_name_H-M "C M C M"
_symmetry_group_IT_number 63
_symmetry_cell_setting 'orthorhombic'
loop_
_space_group_symop_operation_xyz
x,y,z
-x,-y,1/2+z
x,-y,-z
-x,y,1/2-z
-x,-y,-z
x,y,1/2-z
-x,y,z
x,-y,1/2+z
1/2+x,1/2+y,z
1/2-x,1/2-y,1/2+z
1/2+x,1/2-y,-z
1/2-x,1/2+y,1/2-z
1/2-x,1/2-y,-z
1/2+x,1/2+y,1/2-z
1/2-x,1/2+y,z
1/2+x,1/2-y,1/2+z
loop_
_atom_site_type_symbol
_atom_site_label
_atom_site_fract_x
_atom_site_fract_y
_atom_site_fract_z
Si Si1 0.779701 0.191250 0.934794
Si Si2 0.643288 0.234254 0.566671
Si Si3 0.000000 0.167000 0.564142
Si Si4 0.634377 0.380494 0.434857
Si Si5 0.000000 0.742714 0.066210
Si Si6 0.421102 0.542419 0.433282
O O1 0.786720 0.194377 0.750000
O O2 0.703157 0.203777 0.975959
O O3 0.803075 0.147726 0.978342
O O4 0.829674 0.223826 0.005964
O O5 0.638260 0.235610 0.750000
O O6 0.570133 0.225059 0.495752
O O7 0.932826 0.143818 0.516978
O O8 0.000000 0.167992 0.750000
O O9 0.000000 0.211789 0.512822
O O10 0.633604 0.384314 0.250000
O O11 0.626775 0.423064 0.506636
O O12 0.000000 0.741943 0.250000
O O13 0.403285 0.500000 0.500000
O O14 0.419572 0.541028 0.250000
O O15 0.500000 0.550657 0.481621
#
# Coordination Sequence:
#
# PCOD9468348 Si02
#       6
#    16  16   8  16   8  16
#     4   9  18  31  44  59  83 113 140 170 215 260
#     4  10  19  29  42  62  84 107 141 181 213 247
#     4   9  16  25  40  58  77 105 142 173 204 249
#     4  10  17  29  45  59  78 109 141 172 210 252
#     4  11  19  31  45  58  80 113 146 177 219 260
#     4  10  20  31  42  59  81 106 136 173 212 248
#
# _framework density 13.646901
#
# number of rings (size 3 to 8) (size 9 to 14) (size 15 to 20)
#    0.000    2.200    3.000    1.500    0.000    2.400 
#    0.000    0.000    0.000    0.000    0.000    0.000 
#    0.000    0.000    0.000    0.900    0.000   10.000 
#
# Total GULP energy -222999.750229 kJ/mol
# GULP energy per Si atom -5574.993756 kJ/mol
# Density = 1.361584 g / cm^3
# Si number density = 13.646901 Si / 1000 Ang^3
#
#
#
# Elastic Constant Matrix: (Units=GPa)
#
#
# Indices 1 2 3 4 5 6 
#
# 1 97.4407 47.9328 30.7514 0.0000 0.0000 0.0000
# 2 47.9328 101.9732 28.4785 0.0000 0.0000 0.0000
# 3 30.7514 28.4785 25.3285 0.0000 0.0000 0.0000
# 4 0.0000 0.0000 0.0000 19.1934 0.0000 0.0000
# 5 0.0000 0.0000 0.0000 0.0000 17.5940 0.0000
# 6 0.0000 0.0000 0.0000 0.0000 0.0000 22.2939
#
#
#
# Elastic Compliance Matrix: (Units=1/GPa)
#
#
# Indices 1 2 3 4 5 6 
#
# 1 0.017375 -0.003318 -0.017364 0.000000 0.000000 0.000000
# 2 -0.003318 0.014929 -0.012758 0.000000 0.000000 0.000000
# 3 -0.017364 -0.012758 0.074907 0.000000 0.000000 0.000000
# 4 0.000000 0.000000 0.000000 0.052101 0.000000 0.000000
# 5 0.000000 0.000000 0.000000 0.000000 0.056838 0.000000
# 6 0.000000 0.000000 0.000000 0.000000 0.000000 0.044855
#
#
# Mechanical properties :
#
#
# Convention : Reuss Voigt Hill
#
# Bulk Modulus (GPa) = 24.79431 48.78530 36.78981
# Shear Modulus (GPa) = 14.64866 19.65491 17.15178
#
# Velocity S-wave (km/s) = 3.27984 3.79918 3.54902
# Velocity P-wave (km/s) = 5.70535 7.42097 6.61898
#
# Compressibility (1/GPa) = 0.04033183
#
# Stress axis : x y z
#
# Youngs Moduli (GPa) = 57.55507 66.98468 13.34980
#
# Poissons Ratio (x) = 0.22223 0.23181
# Poissons Ratio (y) = 0.19094 0.17031
# Poissons Ratio (z) = 0.99941 0.85456
#
# Static dielectric constant tensor:
#      x y z
#    x 1.453690 0.000000 0.000000 
#    y 0.000000 1.438840 0.000000 
#    z 0.000000 0.000000 1.459040 
# 
# From -- ./inp_files/8928.got.cif
#   From: 2010.05.17/outbox.cif.g08.bks.cpg/sg63_5_cif.got.tgz:8928.got - 2010.06.03 15:47:04.
