data_PCOD9468393
_publ_section_title
;
Structure prediction by ZEFSAII (Michael W. Deem and Ramdas Pophale) SiO2 
 PCOD9468393
Probable space group: C M C M
;
_chemical_formula_sum "Si O2"
_cell_formula_units_Z 88
_cell_length_a 8.108077
_cell_length_b 17.251134
_cell_length_c 28.921330
_cell_angle_alpha 90.000000
_cell_angle_beta 90.000000
_cell_angle_gamma 90.000000
_cell_volume 4045.328311
_symmetry_space_group_name_H-M "C M C M"
_symmetry_group_IT_number 63
_symmetry_cell_setting 'orthorhombic'
loop_
_space_group_symop_operation_xyz
x,y,z
-x,-y,1/2+z
x,-y,-z
-x,y,1/2-z
-x,-y,-z
x,y,1/2-z
-x,y,z
x,-y,1/2+z
1/2+x,1/2+y,z
1/2-x,1/2-y,1/2+z
1/2+x,1/2-y,-z
1/2-x,1/2+y,1/2-z
1/2-x,1/2-y,-z
1/2+x,1/2+y,1/2-z
1/2-x,1/2+y,z
1/2+x,1/2-y,1/2+z
loop_
_atom_site_type_symbol
_atom_site_label
_atom_site_fract_x
_atom_site_fract_y
_atom_site_fract_z
Si Si1 0.500000 0.007146 0.172868
Si Si2 0.814977 0.581326 0.471185
Si Si3 0.500000 0.839604 0.300370
Si Si4 0.318954 0.507100 0.609130
Si Si5 0.500000 0.176676 0.303218
Si Si6 0.814987 0.233478 0.361029
Si Si7 0.190992 0.827398 0.055396
O O1 0.336284 0.003604 0.141688
O O2 0.500000 0.085000 0.200831
O O3 0.500000 0.930166 0.202236
O O4 0.816220 0.500000 0.500000
O O5 0.695700 0.561388 0.429043
O O6 0.768188 0.649831 0.506109
O O7 0.000000 0.593801 0.453393
O O8 0.500000 0.802243 0.250000
O O9 0.346167 0.810845 0.330370
O O10 0.500000 0.505230 0.631081
O O11 0.302301 0.590418 0.583417
O O12 0.500000 0.209483 0.250000
O O13 0.661213 0.195677 0.334732
O O14 0.775294 0.262425 0.412705
O O15 0.000000 0.196083 0.358848
O O16 0.000000 0.807296 0.049375
#
# Coordination Sequence:
#
# PCOD9468393 Si02
#       7
#     8  16   8  16   8  16  16
#     4  12  23  40  62  88 125 159 201 249 310 360
#     4   9  16  25  48  83 127 161 196 248 295 345
#     4  10  21  40  67  90 116 150 197 261 312 357
#     4  10  19  33  53  87 125 161 201 246 301 349
#     4  12  27  44  64  89 121 160 201 249 312 381
#     4  10  21  39  65  89 116 153 200 248 301 363
#     4  10  17  30  55  93 124 155 205 252 296 348
#
# _framework density 21.753488000000001
#
# number of rings (size 3 to 8) (size 9 to 14) (size 15 to 20)
#    0.545    1.273    3.636    1.909    1.273    2.909 
#    0.000    0.000    0.000    2.182    0.000    0.000 
#    0.000    0.000    0.000    0.000    0.000    0.000 
#
# Total GULP energy -245490.273501 kJ/mol
# GULP energy per Si atom -5579.324398 kJ/mol
# Density = 2.170398 g / cm^3
# Si number density = 21.753488 Si / 1000 Ang^3
#
#
#
# Elastic Constant Matrix: (Units=GPa)
#
#
# Indices 1 2 3 4 5 6 
#
# 1 164.2157 15.0287 38.9002 0.0000 0.0000 0.0000
# 2 15.0287 62.1741 3.6274 0.0000 0.0000 0.0000
# 3 38.9002 3.6274 69.5004 0.0000 0.0000 0.0000
# 4 0.0000 0.0000 0.0000 16.1552 0.0000 0.0000
# 5 0.0000 0.0000 0.0000 0.0000 24.6327 0.0000
# 6 0.0000 0.0000 0.0000 0.0000 0.0000 -8.5153
#
#
#
# Elastic Compliance Matrix: (Units=1/GPa)
#
#
# Indices 1 2 3 4 5 6 
#
# 1 0.007157 -0.001501 -0.003928 0.000000 0.000000 0.000000
# 2 -0.001501 0.016448 -0.000018 0.000000 0.000000 0.000000
# 3 -0.003928 -0.000018 0.016588 0.000000 0.000000 0.000000
# 4 0.000000 0.000000 0.000000 0.061900 0.000000 0.000000
# 5 0.000000 0.000000 0.000000 0.000000 0.040596 0.000000
# 6 0.000000 0.000000 0.000000 0.000000 0.000000 -0.117436
#
#
# Mechanical properties :
#
#
# Convention : Reuss Voigt Hill
#
# Bulk Modulus (GPa) = 34.13105 45.66697 39.89901
# Shear Modulus (GPa) = 108.90143 22.34346 65.62244
#
# Velocity S-wave (km/s) = 7.08310 3.20835 5.49835
# Velocity P-wave (km/s) = 9.08943 5.89603 7.66097
#
# Compressibility (1/GPa) = 0.02929884
#
# Stress axis : x y z
#
# Youngs Moduli (GPa) = 139.71698 60.79865 60.28551
#
# Poissons Ratio (x) = 0.09125 0.23678
# Poissons Ratio (y) = 0.20970 0.00111
# Poissons Ratio (z) = 0.54877 0.00112
#
# Static dielectric constant tensor:
#      x y z
#    x 1.798990 0.000000 0.000000 
#    y 0.000000 1.833580 0.000000 
#    z 0.000000 0.000000 1.808430 
# 
# From -- ./inp_files/71726.got.cif
#   From: 2010.05.17/outbox.cif.g08.bks.cpg/sg63_36_cif.got.tgz:71726.got - 2010.06.03 15:47:04.
