data_PCOD9468285
_publ_section_title
;
Structure prediction by ZEFSAII (Michael W. Deem and Ramdas Pophale) SiO2 
 PCOD9468285
Probable space group: C M C M
;
_chemical_formula_sum "Si O2"
_cell_formula_units_Z 96
_cell_length_a 22.310417
_cell_length_b 28.959107
_cell_length_c 7.704878
_cell_angle_alpha 90.000000
_cell_angle_beta 90.000000
_cell_angle_gamma 90.000000
_cell_volume 4978.042725
_symmetry_space_group_name_H-M "C M C M"
_symmetry_group_IT_number 63
_symmetry_cell_setting 'orthorhombic'
loop_
_space_group_symop_operation_xyz
x,y,z
-x,-y,1/2+z
x,-y,-z
-x,y,1/2-z
-x,-y,-z
x,y,1/2-z
-x,y,z
x,-y,1/2+z
1/2+x,1/2+y,z
1/2-x,1/2-y,1/2+z
1/2+x,1/2-y,-z
1/2-x,1/2+y,1/2-z
1/2-x,1/2-y,-z
1/2+x,1/2+y,1/2-z
1/2-x,1/2+y,z
1/2+x,1/2-y,1/2+z
loop_
_atom_site_type_symbol
_atom_site_label
_atom_site_fract_x
_atom_site_fract_y
_atom_site_fract_z
Si Si1 0.298365 0.808147 0.450457
Si Si2 0.500000 0.117237 0.543596
Si Si3 0.817573 0.138432 0.051782
Si Si4 0.752177 0.447112 0.541494
Si Si5 0.500000 0.223467 0.962059
Si Si6 0.369200 0.105719 0.455417
Si Si7 0.878396 0.225996 0.463281
O O1 0.280290 0.803209 0.250000
O O2 0.243824 0.831448 0.551171
O O3 0.352523 0.845335 0.458429
O O4 0.324644 0.760196 0.517833
O O5 0.500000 0.119462 0.750000
O O6 0.500000 0.170377 0.476503
O O7 0.437948 0.093721 0.489025
O O8 0.836217 0.129304 0.250000
O O9 0.796463 0.089885 0.971939
O O10 0.865710 0.173986 0.975141
O O11 0.740731 0.500000 0.500000
O O12 0.751536 0.442526 0.750000
O O13 0.818407 0.430327 0.483116
O O14 0.500000 0.222343 0.750000
O O15 0.559363 0.251001 0.016607
O O16 0.361648 0.111857 0.250000
O O17 0.877178 0.225746 0.250000
#
# Coordination Sequence:
#
# PCOD9468285 Si02
#       7
#    16   8  16  16   8  16  16
#     4  10  17  27  45  69  95 127 160 193 228 274
#     4  11  19  31  50  72  97 128 171 201 224 270
#     4   9  18  31  46  68  95 123 152 192 242 288
#     4   9  19  34  51  69  90 116 153 200 248 295
#     4   9  16  27  45  70  97 128 162 193 218 257
#     4  10  20  33  48  69  97 128 160 198 241 282
#     4   9  16  27  44  67  98 128 157 191 228 271
#
# _framework density 19.284689
#
# number of rings (size 3 to 8) (size 9 to 14) (size 15 to 20)
#    0.000    2.500    1.667    2.750    0.000    3.333 
#    0.000    1.250    0.000    0.000    0.000    0.583 
#    0.000    0.000    0.000    0.000    0.000    0.000 
#
# Total GULP energy -267705.251261 kJ/mol
# GULP energy per Si atom -5577.192735 kJ/mol
# Density = 1.924080 g / cm^3
# Si number density = 19.284689 Si / 1000 Ang^3
#
#
#
# Elastic Constant Matrix: (Units=GPa)
#
#
# Indices 1 2 3 4 5 6 
#
# 1 29.1370 15.7852 -1.4354 0.0000 0.0000 0.0000
# 2 15.7852 124.6812 2.2165 0.0000 0.0000 0.0000
# 3 -1.4354 2.2165 46.2175 0.0000 0.0000 0.0000
# 4 0.0000 0.0000 0.0000 9.5262 0.0000 0.0000
# 5 0.0000 0.0000 0.0000 0.0000 11.9010 0.0000
# 6 0.0000 0.0000 0.0000 0.0000 0.0000 19.2806
#
#
#
# Elastic Compliance Matrix: (Units=1/GPa)
#
#
# Indices 1 2 3 4 5 6 
#
# 1 0.036935 -0.004700 0.001373 0.000000 0.000000 0.000000
# 2 -0.004700 0.008626 -0.000560 0.000000 0.000000 0.000000
# 3 0.001373 -0.000560 0.021706 0.000000 0.000000 0.000000
# 4 0.000000 0.000000 0.000000 0.104973 0.000000 0.000000
# 5 0.000000 0.000000 0.000000 0.000000 0.084027 0.000000
# 6 0.000000 0.000000 0.000000 0.000000 0.000000 0.051866
#
#
# Mechanical properties :
#
#
# Convention : Reuss Voigt Hill
#
# Bulk Modulus (GPa) = 16.80918 25.90759 21.35838
# Shear Modulus (GPa) = 14.89256 20.37285 17.63270
#
# Velocity S-wave (km/s) = 2.78195 3.25380 3.02708
# Velocity P-wave (km/s) = 4.36512 5.25164 4.82877
#
# Compressibility (1/GPa) = 0.05949131
#
# Stress axis : x y z
#
# Youngs Moduli (GPa) = 27.07476 115.93524 46.06962
#
# Poissons Ratio (x) = 0.54495 -0.06323
# Poissons Ratio (y) = 0.12726 0.02578
# Poissons Ratio (z) = -0.03716 0.06488
#
# Static dielectric constant tensor:
#      x y z
#    x 1.696030 0.000000 0.000000 
#    y 0.000000 1.692040 0.000000 
#    z 0.000000 0.000000 1.714950 
# 
# From -- ./inp_files/10754.got.cif
#   From: 2010.05.17/outbox.cif.g08.bks.cpg/sg63_6_cif.got.tgz:10754.got - 2010.06.03 15:47:04.
