data_PCOD9468006
_publ_section_title
;
Structure prediction by ZEFSAII (Michael W. Deem and Ramdas Pophale) SiO2 
 PCOD9468006
Probable space group: P N M A
;
_chemical_formula_sum "Si O2"
_cell_formula_units_Z 56
_cell_length_a 15.000000
_cell_length_b 9.000000
_cell_length_c 21.000000
_cell_angle_alpha 90.000000
_cell_angle_beta 90.000000
_cell_angle_gamma 90.000000
_cell_volume 2835.000000
_symmetry_space_group_name_H-M "P N M A"
_symmetry_group_IT_number 62
_symmetry_cell_setting 'orthorhombic'
loop_
_space_group_symop_operation_xyz
x,y,z
1/2-x,-y,1/2+z
1/2+x,1/2-y,1/2-z
-x,1/2+y,-z
-x,-y,-z
1/2+x,y,1/2-z
1/2-x,1/2+y,1/2+z
x,1/2-y,z
loop_
_atom_site_type_symbol
_atom_site_label
_atom_site_fract_x
_atom_site_fract_y
_atom_site_fract_z
Si Si1 0.590727 0.929682 0.402865
Si Si2 0.109771 0.425979 0.878579
Si Si3 0.702748 0.071975 0.289975
Si Si4 0.719157 0.928392 0.517239
Si Si5 0.586817 0.427266 0.029234
Si Si6 0.072134 0.427545 0.321996
Si Si7 0.609374 0.073564 0.772544
O O1 0.595193 0.750000 0.394927
O O2 0.487049 0.971057 0.405685
O O3 0.646642 0.972643 0.464929
O O4 0.637447 0.007998 0.343564
O O5 0.120953 0.250000 0.888759
O O6 0.186695 0.511049 0.915359
O O7 0.108113 0.453289 0.803382
O O8 0.708863 0.250000 0.293627
O O9 0.654991 0.030388 0.223194
O O10 0.800302 0.001647 0.297408
O O11 0.721148 0.750000 0.520140
O O12 0.818920 0.979074 0.500331
O O13 0.580194 0.250000 0.020634
O O14 0.590917 0.458645 0.104439
O O15 0.500000 0.500000 0.000000
O O16 0.059359 0.250000 0.314690
O O17 0.981232 0.507504 0.301135
O O18 0.612483 0.250000 0.784023
#
# Coordination Sequence:
#
# PCOD9468006 Si02
#       7
#     8   8   8   8   8   8   8
#     4  10  21  39  60  89 126 159 200 249 302 365
#     4  10  21  38  60  90 124 157 198 247 298 362
#     4  11  23  39  62  91 123 160 203 253 305 362
#     4  10  22  39  62  87 120 163 202 249 303 358
#     4  10  23  42  61  87 120 157 204 252 301 358
#     4  10  22  41  62  87 121 158 202 251 298 360
#     4  11  23  38  61  89 122 159 199 250 304 362
#
# _framework density 19.753086
#
# number of rings (size 3 to 8) (size 9 to 14) (size 15 to 20)
#    0.000    1.714    1.429    2.143    2.000    5.143 
#    0.000    0.000    0.000    0.000    0.000    0.000 
#    0.000    0.000    0.000    0.000    0.000    0.000 
#
# Total GULP energy -312926.486248 kJ/mol
# GULP energy per Si atom -5587.972969 kJ/mol
# Density = 1.970813 g / cm^3
# Si number density = 19.753086 Si / 1000 Ang^3
#
#
#
# Elastic Constant Matrix: (Units=GPa)
#
#
# Indices 1 2 3 4 5 6 
#
# 1 99.5133 8.5910 7.5830 0.0000 0.0000 0.0000
# 2 8.5910 -3.8819 23.0004 0.0000 0.0000 0.0000
# 3 7.5830 23.0004 29.0562 0.0000 0.0000 0.0000
# 4 0.0000 0.0000 0.0000 22.1552 0.0000 0.0000
# 5 0.0000 0.0000 0.0000 0.0000 22.6261 0.0000
# 6 0.0000 0.0000 0.0000 0.0000 0.0000 27.6942
#
#
#
# Elastic Compliance Matrix: (Units=1/GPa)
#
#
# Indices 1 2 3 4 5 6 
#
# 1 0.010221 0.001198 -0.003616 0.000000 0.000000 0.000000
# 2 0.001198 -0.045132 0.035413 0.000000 0.000000 0.000000
# 3 -0.003616 0.035413 0.007327 0.000000 0.000000 0.000000
# 4 0.000000 0.000000 0.000000 0.045136 0.000000 0.000000
# 5 0.000000 0.000000 0.000000 0.000000 0.044197 0.000000
# 6 0.000000 0.000000 0.000000 0.000000 0.000000 0.036109
#
#
# Mechanical properties :
#
#
# Convention : Reuss Voigt Hill
#
# Bulk Modulus (GPa) = 26.03708 22.55960 24.29834
# Shear Modulus (GPa) = 111.93234 20.19596 66.06415
#
# Velocity S-wave (km/s) = 7.53583 3.20100 5.78944
# Velocity P-wave (km/s) = 9.43018 5.01073 7.55102
#
# Compressibility (1/GPa) = 0.03840677
#
# Stress axis : x y z
#
# Youngs Moduli (GPa) = 97.83759 -22.15722 136.47517
#
# Poissons Ratio (x) = 0.02654 0.49344
# Poissons Ratio (y) = -0.11719 -4.83300
# Poissons Ratio (z) = 0.35374 0.78465
#
# Static dielectric constant tensor:
#      x y z
#    x 1.673180 0.000000 0.000000 
#    y 0.000000 1.655550 0.000000 
#    z 0.000000 0.000000 1.693520 
# 
# From -- ./inp_files/27230.got.cif
#   From: 2010.05.17/outbox.ucp.g08.bks.cvg/sg62_14_cif.got.tgz:27230.got - 2010.06.11 16:29:25.
