data_PCOD9468649
_publ_section_title
;
Structure prediction by ZEFSAII (Michael W. Deem and Ramdas Pophale) SiO2 
 PCOD9468649
Probable space group: C M C M
;
_chemical_formula_sum "Si O2"
_cell_formula_units_Z 80
_cell_length_a 25.340075
_cell_length_b 20.741186
_cell_length_c 8.821969
_cell_angle_alpha 90.000000
_cell_angle_beta 90.000000
_cell_angle_gamma 90.000000
_cell_volume 4636.678775
_symmetry_space_group_name_H-M "C M C M"
_symmetry_group_IT_number 63
_symmetry_cell_setting 'orthorhombic'
loop_
_space_group_symop_operation_xyz
x,y,z
-x,-y,1/2+z
x,-y,-z
-x,y,1/2-z
-x,-y,-z
x,y,1/2-z
-x,y,z
x,-y,1/2+z
1/2+x,1/2+y,z
1/2-x,1/2-y,1/2+z
1/2+x,1/2-y,-z
1/2-x,1/2+y,1/2-z
1/2-x,1/2-y,-z
1/2+x,1/2+y,1/2-z
1/2-x,1/2+y,z
1/2+x,1/2-y,1/2+z
loop_
_atom_site_type_symbol
_atom_site_label
_atom_site_fract_x
_atom_site_fract_y
_atom_site_fract_z
Si Si1 0.782388 0.309675 0.430797
Si Si2 0.000000 0.740950 0.570603
Si Si3 0.276416 0.431893 0.929424
Si Si4 0.616443 0.391127 0.427240
Si Si5 0.500000 0.618139 0.568796
Si Si6 0.889559 0.735148 0.428968
O O1 0.778231 0.308414 0.250000
O O2 0.750000 0.250000 0.500000
O O3 0.756599 0.374429 0.495208
O O4 0.842274 0.299475 0.484299
O O5 0.053671 0.715885 0.495073
O O6 0.000000 0.731427 0.750000
O O7 0.000000 0.817180 0.530320
O O8 0.269398 0.431283 0.750000
O O9 0.260531 0.500000 0.000000
O O10 0.337934 0.420135 0.970532
O O11 0.628525 0.404194 0.250000
O O12 0.556562 0.414467 0.458933
O O13 0.616298 0.313124 0.446904
O O14 0.500000 0.636213 0.750000
O O15 0.886649 0.722193 0.250000
#
# Coordination Sequence:
#
# PCOD9468649 Si02
#       6
#    16   8  16  16   8  16
#     4  12  23  37  58  85 113 145 186 231 280 335
#     4  10  18  28  46  77 114 145 180 225 275 328
#     4  12  25  40  57  78 109 147 187 233 283 336
#     4   9  17  32  53  76 105 141 184 230 276 326
#     4   8  16  30  49  71 102 141 182 227 276 324
#     4  10  19  33  54  80 112 147 183 227 277 327
#
# _framework density 17.253729
#
# number of rings (size 3 to 8) (size 9 to 14) (size 15 to 20)
#    0.000    1.600    2.000    6.300    0.000    3.200 
#    0.000    0.500    0.000    0.000    0.000    0.700 
#    0.000    0.000    0.000    0.000    0.000    0.000 
#
# Total GULP energy -223413.054881 kJ/mol
# GULP energy per Si atom -5585.326372 kJ/mol
# Density = 1.721446 g / cm^3
# Si number density = 17.253729 Si / 1000 Ang^3
#
#
#
# Elastic Constant Matrix: (Units=GPa)
#
#
# Indices 1 2 3 4 5 6 
#
# 1 122.3768 52.7467 69.9357 0.0000 0.0000 0.0000
# 2 52.7467 89.1815 61.4637 0.0000 0.0000 0.0000
# 3 69.9357 61.4637 155.2314 0.0000 0.0000 0.0000
# 4 0.0000 0.0000 0.0000 21.5916 0.0000 0.0000
# 5 0.0000 0.0000 0.0000 0.0000 35.2214 0.0000
# 6 0.0000 0.0000 0.0000 0.0000 0.0000 7.2165
#
#
#
# Elastic Compliance Matrix: (Units=1/GPa)
#
#
# Indices 1 2 3 4 5 6 
#
# 1 0.012317 -0.004759 -0.003665 0.000000 0.000000 0.000000
# 2 -0.004759 0.017260 -0.004690 0.000000 0.000000 0.000000
# 3 -0.003665 -0.004690 0.009950 0.000000 0.000000 0.000000
# 4 0.000000 0.000000 0.000000 0.046314 0.000000 0.000000
# 5 0.000000 0.000000 0.000000 0.000000 0.028392 0.000000
# 6 0.000000 0.000000 0.000000 0.000000 0.000000 0.138571
#
#
# Mechanical properties :
#
#
# Convention : Reuss Voigt Hill
#
# Bulk Modulus (GPa) = 75.19122 81.67576 78.43349
# Shear Modulus (GPa) = 17.63880 24.98216 21.31048
#
# Velocity S-wave (km/s) = 3.20084 3.80929 3.51824
# Velocity P-wave (km/s) = 7.57197 8.17242 7.87792
#
# Compressibility (1/GPa) = 0.01329943
#
# Stress axis : x y z
#
# Youngs Moduli (GPa) = 81.18761 57.93631 100.50169
#
# Poissons Ratio (x) = 0.27573 0.36832
# Poissons Ratio (y) = 0.38639 0.47136
# Poissons Ratio (z) = 0.29753 0.27172
#
# Static dielectric constant tensor:
#      x y z
#    x 1.612810 0.000000 0.000000 
#    y 0.000000 1.568180 0.000000 
#    z 0.000000 0.000000 1.623290 
# 
# From -- ./inp_files/10079.got.cif
#   From: 2010.05.17/outbox.cif.g08.bks.cpg/sg63_6_cif.got.tgz:10079.got - 2010.06.03 15:47:04.
