data_PCOD9468501
_publ_section_title
;
Structure prediction by ZEFSAII (Michael W. Deem and Ramdas Pophale) SiO2 
 PCOD9468501
Probable space group: C M C M
;
_chemical_formula_sum "Si O2"
_cell_formula_units_Z 80
_cell_length_a 26.673508
_cell_length_b 20.552307
_cell_length_c 10.460589
_cell_angle_alpha 90.000000
_cell_angle_beta 90.000000
_cell_angle_gamma 90.000000
_cell_volume 5734.517120
_symmetry_space_group_name_H-M "C M C M"
_symmetry_group_IT_number 63
_symmetry_cell_setting 'orthorhombic'
loop_
_space_group_symop_operation_xyz
x,y,z
-x,-y,1/2+z
x,-y,-z
-x,y,1/2-z
-x,-y,-z
x,y,1/2-z
-x,y,z
x,-y,1/2+z
1/2+x,1/2+y,z
1/2-x,1/2-y,1/2+z
1/2+x,1/2-y,-z
1/2-x,1/2+y,1/2-z
1/2-x,1/2-y,-z
1/2+x,1/2+y,1/2-z
1/2-x,1/2+y,z
1/2+x,1/2-y,1/2+z
loop_
_atom_site_type_symbol
_atom_site_label
_atom_site_fract_x
_atom_site_fract_y
_atom_site_fract_z
Si Si1 0.233622 0.076863 0.994485
Si Si2 0.133244 0.165351 0.510706
Si Si3 0.662461 0.273055 0.750000
Si Si4 0.735626 0.140423 0.250000
Si Si5 0.560274 0.443183 0.100676
Si Si6 0.327548 0.737129 0.750000
Si Si7 0.227387 0.352489 0.250000
O O1 0.180492 0.115089 0.990011
O O2 0.265870 0.102583 0.874507
O O3 0.261177 0.098241 0.123352
O O4 0.225163 0.000000 0.000000
O O5 0.133615 0.203269 0.376618
O O6 0.085567 0.122141 0.547528
O O7 0.143455 0.216189 0.623601
O O8 0.714427 0.314313 0.750000
O O9 0.680521 0.197642 0.750000
O O10 0.688967 0.188660 0.250000
O O11 0.576058 0.454710 0.250000
O O12 0.500000 0.438703 0.100610
O O13 0.574435 0.500000 0.000000
O O14 0.276347 0.694471 0.750000
#
# Coordination Sequence:
#
# PCOD9468501 Si02
#       7
#    16  16   8   8  16   8   8
#     4  10  18  27  40  59  85 112 144 178 211 246
#     4  10  18  30  44  63  81 107 147 184 214 245
#     4   9  18  28  43  61  80 106 140 181 213 246
#     4   9  17  28  40  58  79 109 141 174 213 250
#     4  10  21  35  48  63  85 112 142 179 222 260
#     4   9  16  28  45  57  78 106 142 181 213 246
#     4   9  17  28  40  58  83 109 139 178 213 246
#
# _framework density 13.950608000000001
#
# number of rings (size 3 to 8) (size 9 to 14) (size 15 to 20)
#    0.000    2.400    1.000    2.400    1.400    4.800 
#    3.600    0.000    0.000    0.000    0.000    0.000 
#    0.000    0.000    0.000    0.000    0.000   70.000 
#
# Total GULP energy -222817.568274 kJ/mol
# GULP energy per Si atom -5570.439207 kJ/mol
# Density = 1.391886 g / cm^3
# Si number density = 13.950608 Si / 1000 Ang^3
#
#
#
# Elastic Constant Matrix: (Units=GPa)
#
#
# Indices 1 2 3 4 5 6 
#
# 1 15.0952 5.5940 15.7080 0.0000 0.0000 0.0000
# 2 5.5940 49.1480 29.2972 0.0000 0.0000 0.0000
# 3 15.7080 29.2972 133.2516 0.0000 0.0000 0.0000
# 4 0.0000 0.0000 0.0000 22.0785 0.0000 0.0000
# 5 0.0000 0.0000 0.0000 0.0000 11.3716 0.0000
# 6 0.0000 0.0000 0.0000 0.0000 0.0000 26.0888
#
#
#
# Elastic Compliance Matrix: (Units=1/GPa)
#
#
# Indices 1 2 3 4 5 6 
#
# 1 0.076125 -0.003815 -0.008135 0.000000 0.000000 0.000000
# 2 -0.003815 0.023607 -0.004741 0.000000 0.000000 0.000000
# 3 -0.008135 -0.004741 0.009506 0.000000 0.000000 0.000000
# 4 0.000000 0.000000 0.000000 0.045293 0.000000 0.000000
# 5 0.000000 0.000000 0.000000 0.000000 0.087938 0.000000
# 6 0.000000 0.000000 0.000000 0.000000 0.000000 0.038331
#
#
# Mechanical properties :
#
#
# Convention : Reuss Voigt Hill
#
# Bulk Modulus (GPa) = 13.18280 33.18813 23.18547
# Shear Modulus (GPa) = 14.72897 21.70083 18.21490
#
# Velocity S-wave (km/s) = 3.25282 3.94832 3.61733
# Velocity P-wave (km/s) = 4.85571 6.68035 5.83973
#
# Compressibility (1/GPa) = 0.07585639
#
# Stress axis : x y z
#
# Youngs Moduli (GPa) = 13.13621 42.36071 105.19863
#
# Poissons Ratio (x) = 0.16162 0.85579
# Poissons Ratio (y) = 0.05012 0.49869
# Poissons Ratio (z) = 0.10686 0.20081
#
# Static dielectric constant tensor:
#      x y z
#    x 1.440360 0.000000 0.000000 
#    y 0.000000 1.444790 0.000000 
#    z 0.000000 0.000000 1.478530 
# 
# From -- ./inp_files/23879.got.cif
#   From: 2010.05.17/outbox.cif.g08.bks.cpg/sg63_12_cif.got.tgz:23879.got - 2010.06.03 15:47:04.
