data_PCOD9468849
_publ_section_title
;
Structure prediction by ZEFSAII (Michael W. Deem and Ramdas Pophale) SiO2 
 PCOD9468849
Probable space group: C M C M
;
_chemical_formula_sum "Si O2"
_cell_formula_units_Z 128
_cell_length_a 23.953393
_cell_length_b 20.846688
_cell_length_c 17.927547
_cell_angle_alpha 90.000000
_cell_angle_beta 90.000000
_cell_angle_gamma 90.000000
_cell_volume 8952.101061
_symmetry_space_group_name_H-M "C M C M"
_symmetry_group_IT_number 63
_symmetry_cell_setting 'orthorhombic'
loop_
_space_group_symop_operation_xyz
x,y,z
-x,-y,1/2+z
x,-y,-z
-x,y,1/2-z
-x,-y,-z
x,y,1/2-z
-x,y,z
x,-y,1/2+z
1/2+x,1/2+y,z
1/2-x,1/2-y,1/2+z
1/2+x,1/2-y,-z
1/2-x,1/2+y,1/2-z
1/2-x,1/2-y,-z
1/2+x,1/2+y,1/2-z
1/2-x,1/2+y,z
1/2+x,1/2-y,1/2+z
loop_
_atom_site_type_symbol
_atom_site_label
_atom_site_fract_x
_atom_site_fract_y
_atom_site_fract_z
Si Si1 0.794996 0.360773 0.333463
Si Si2 0.675006 0.713057 0.664673
Si Si3 0.238913 0.302627 0.934209
Si Si4 0.626707 0.604734 0.566033
Si Si5 0.066653 0.997840 0.664095
Si Si6 0.754939 0.571607 0.527643
Si Si7 0.153716 0.227802 0.161074
Si Si8 0.433664 0.638611 0.411952
O O1 0.804487 0.385526 0.250000
O O2 0.735161 0.323548 0.333263
O O3 0.788520 0.413498 0.396594
O O4 0.838941 0.304243 0.350684
O O5 0.658629 0.725495 0.750000
O O6 0.688556 0.775637 0.615898
O O7 0.634288 0.665307 0.621060
O O8 0.294156 0.303833 0.882713
O O9 0.250000 0.250000 0.000000
O O10 0.229179 0.371488 0.970646
O O11 0.597168 0.547278 0.609972
O O12 0.688847 0.582417 0.542818
O O13 0.592477 0.624917 0.493039
O O14 0.084465 0.006240 0.750000
O O15 0.000000 0.008552 0.659870
O O16 0.076936 0.925366 0.637031
O O17 0.764209 0.500000 0.500000
O O18 0.157952 0.216739 0.250000
O O19 0.098351 0.197123 0.127086
O O20 0.500000 0.648385 0.416665
#
# Coordination Sequence:
#
# PCOD9468849 Si02
#       8
#    16  16  16  16  16  16  16  16
#     4   8  16  30  46  63  88 119 149 181 229 279
#     4   9  17  29  48  68  86 115 154 193 226 268
#     4  11  16  31  47  66  91 119 152 189 227 275
#     4  11  19  31  47  64  89 122 163 194 228 273
#     4  10  21  34  44  58  88 128 164 201 241 274
#     4  11  20  29  45  70  96 120 154 189 225 271
#     4  10  18  30  47  64  83 120 158 187 230 278
#     4  11  21  32  45  65  90 119 160 207 243 269
#
# _framework density 14.298318999999999
#
# number of rings (size 3 to 8) (size 9 to 14) (size 15 to 20)
#    0.000    1.875    5.000    3.375    0.000    2.250 
#    0.000    1.250    0.000    0.000    0.000    0.000 
#    0.000    0.500    0.000    0.000    0.000    0.000 
#
# Total GULP energy -356794.767156 kJ/mol
# GULP energy per Si atom -5574.918237 kJ/mol
# Density = 1.426578 g / cm^3
# Si number density = 14.298319 Si / 1000 Ang^3
#
#
#
# Elastic Constant Matrix: (Units=GPa)
#
#
# Indices 1 2 3 4 5 6 
#
# 1 46.7547 32.6352 32.9815 0.0000 0.0000 0.0000
# 2 32.6352 97.1400 63.6603 0.0000 0.0000 0.0000
# 3 32.9815 63.6603 114.8086 0.0000 0.0000 0.0000
# 4 0.0000 0.0000 0.0000 23.2837 0.0000 0.0000
# 5 0.0000 0.0000 0.0000 0.0000 13.1070 0.0000
# 6 0.0000 0.0000 0.0000 0.0000 0.0000 22.7716
#
#
#
# Elastic Compliance Matrix: (Units=1/GPa)
#
#
# Indices 1 2 3 4 5 6 
#
# 1 0.029454 -0.006833 -0.004672 0.000000 0.000000 0.000000
# 2 -0.006833 0.017756 -0.007882 0.000000 0.000000 0.000000
# 3 -0.004672 -0.007882 0.014423 0.000000 0.000000 0.000000
# 4 0.000000 0.000000 0.000000 0.042949 0.000000 0.000000
# 5 0.000000 0.000000 0.000000 0.000000 0.076295 0.000000
# 6 0.000000 0.000000 0.000000 0.000000 0.000000 0.043914
#
#
# Mechanical properties :
#
#
# Convention : Reuss Voigt Hill
#
# Bulk Modulus (GPa) = 43.75084 57.47303 50.61193
# Shear Modulus (GPa) = 18.43753 20.46088 19.44920
#
# Velocity S-wave (km/s) = 3.59484 3.78696 3.69215
# Velocity P-wave (km/s) = 6.92066 7.70742 7.32461
#
# Compressibility (1/GPa) = 0.02285671
#
# Stress axis : x y z
#
# Youngs Moduli (GPa) = 33.95140 56.31941 69.33325
#
# Poissons Ratio (x) = 0.38485 0.32394
# Poissons Ratio (y) = 0.23200 0.54651
# Poissons Ratio (z) = 0.15863 0.44393
#
# Static dielectric constant tensor:
#      x y z
#    x 1.453050 0.000000 0.000000 
#    y 0.000000 1.461350 0.000000 
#    z 0.000000 0.000000 1.498410 
# 
# From -- ./inp_files/47556.got.cif
#   From: 2010.05.17/outbox.cif.g08.bks.cpg/sg63_24_cif.got.tgz:47556.got - 2010.06.03 15:47:04.
