data_PCOD9468224
_publ_section_title
;
Structure prediction by ZEFSAII (Michael W. Deem and Ramdas Pophale) SiO2 
 PCOD9468224
Probable space group: C M C M
;
_chemical_formula_sum "Si O2"
_cell_formula_units_Z 112
_cell_length_a 12.716653
_cell_length_b 23.960258
_cell_length_c 26.968471
_cell_angle_alpha 90.000000
_cell_angle_beta 90.000000
_cell_angle_gamma 90.000000
_cell_volume 8217.139037
_symmetry_space_group_name_H-M "C M C M"
_symmetry_group_IT_number 63
_symmetry_cell_setting 'orthorhombic'
loop_
_space_group_symop_operation_xyz
x,y,z
-x,-y,1/2+z
x,-y,-z
-x,y,1/2-z
-x,-y,-z
x,y,1/2-z
-x,y,z
x,-y,1/2+z
1/2+x,1/2+y,z
1/2-x,1/2-y,1/2+z
1/2+x,1/2-y,-z
1/2-x,1/2+y,1/2-z
1/2-x,1/2-y,-z
1/2+x,1/2+y,1/2-z
1/2-x,1/2+y,z
1/2+x,1/2-y,1/2+z
loop_
_atom_site_type_symbol
_atom_site_label
_atom_site_fract_x
_atom_site_fract_y
_atom_site_fract_z
Si Si1 0.372816 0.010957 0.600498
Si Si2 0.689711 0.112252 0.536968
Si Si3 0.627527 0.083532 0.694067
Si Si4 0.249864 0.721830 0.419090
Si Si5 0.877787 0.687355 0.628744
Si Si6 0.122195 0.615504 0.076339
Si Si7 0.124103 0.190677 0.983767
O O1 0.500000 0.016589 0.594893
O O2 0.346920 0.946241 0.594253
O O3 0.321068 0.050475 0.559001
O O4 0.342541 0.036710 0.653830
O O5 0.634164 0.152801 0.577079
O O6 0.636473 0.116654 0.483348
O O7 0.807458 0.136311 0.530925
O O8 0.665822 0.075243 0.750000
O O9 0.500000 0.083093 0.695256
O O10 0.656729 0.143573 0.670938
O O11 0.305305 0.758804 0.377356
O O12 0.194839 0.664783 0.403105
O O13 0.163315 0.760164 0.447128
O O14 0.336560 0.708101 0.461408
O O15 0.000000 0.701462 0.635877
O O16 0.000000 0.624679 0.088422
O O17 0.000000 0.183101 0.981681
#
# Coordination Sequence:
#
# PCOD9468224 Si02
#       7
#    16  16  16  16  16  16  16
#     4   9  16  25  39  58  78  99 124 156 191 225
#     4   9  16  24  37  56  77 102 131 161 185 216
#     4   8  14  25  41  60  77  91 113 150 196 237
#     4   9  17  24  35  53  75 103 132 157 177 215
#     4   9  15  24  39  57  77  99 123 155 192 223
#     4  10  17  24  36  54  79 109 132 152 181 218
#     4   9  16  25  36  51  74 105 134 158 185 211
#
# _framework density 13.630049
#
# number of rings (size 3 to 8) (size 9 to 14) (size 15 to 20)
#    0.000    3.000    0.000    4.286    0.000    1.143 
#    0.000    0.000    0.000    8.571    0.000    0.000 
#    0.000   56.571    0.000    0.000    0.000    0.000 
#
# Total GULP energy -311769.762806 kJ/mol
# GULP energy per Si atom -5567.317193 kJ/mol
# Density = 1.359903 g / cm^3
# Si number density = 13.630049 Si / 1000 Ang^3
#
#
#
# Elastic Constant Matrix: (Units=GPa)
#
#
# Indices 1 2 3 4 5 6 
#
# 1 62.4213 35.5319 2.3690 0.0000 0.0000 0.0000
# 2 35.5319 106.9686 19.1221 0.0000 0.0000 0.0000
# 3 2.3690 19.1221 38.6694 0.0000 0.0000 0.0000
# 4 0.0000 0.0000 0.0000 6.1886 0.0000 0.0000
# 5 0.0000 0.0000 0.0000 0.0000 8.5205 0.0000
# 6 0.0000 0.0000 0.0000 0.0000 0.0000 22.8053
#
#
#
# Elastic Compliance Matrix: (Units=1/GPa)
#
#
# Indices 1 2 3 4 5 6 
#
# 1 0.019933 -0.007024 0.002252 0.000000 0.000000 0.000000
# 2 -0.007024 0.012730 -0.005865 0.000000 0.000000 0.000000
# 3 0.002252 -0.005865 0.028622 0.000000 0.000000 0.000000
# 4 0.000000 0.000000 0.000000 0.161587 0.000000 0.000000
# 5 0.000000 0.000000 0.000000 0.000000 0.117364 0.000000
# 6 0.000000 0.000000 0.000000 0.000000 0.000000 0.043850
#
#
# Mechanical properties :
#
#
# Convention : Reuss Voigt Hill
#
# Bulk Modulus (GPa) = 24.99218 35.78949 30.39083
# Shear Modulus (GPa) = 11.94182 17.57195 14.75689
#
# Velocity S-wave (km/s) = 2.96318 3.59445 3.29397
# Velocity P-wave (km/s) = 5.48481 6.59860 6.06732
#
# Compressibility (1/GPa) = 0.04001252
#
# Stress axis : x y z
#
# Youngs Moduli (GPa) = 50.16862 78.55449 34.93766
#
# Poissons Ratio (x) = 0.55174 -0.07868
# Poissons Ratio (y) = 0.35237 0.20490
# Poissons Ratio (z) = -0.11298 0.46070
#
# Static dielectric constant tensor:
#      x y z
#    x 1.433620 0.000000 0.000000 
#    y 0.000000 1.466550 0.000000 
#    z 0.000000 0.000000 1.442410 
# 
# From -- ./inp_files/61949.got.cif
#   From: 2010.05.17/outbox.cif.g08.bks.cpg/sg63_31_cif.got.tgz:61949.got - 2010.06.03 15:47:04.
