data_PCOD9468408
_publ_section_title
;
Structure prediction by ZEFSAII (Michael W. Deem and Ramdas Pophale) SiO2 
 PCOD9468408
Probable space group: C M C M
;
_chemical_formula_sum "Si O2"
_cell_formula_units_Z 112
_cell_length_a 16.773420
_cell_length_b 17.347853
_cell_length_c 22.415404
_cell_angle_alpha 90.000000
_cell_angle_beta 90.000000
_cell_angle_gamma 90.000000
_cell_volume 6522.497567
_symmetry_space_group_name_H-M "C M C M"
_symmetry_group_IT_number 63
_symmetry_cell_setting 'orthorhombic'
loop_
_space_group_symop_operation_xyz
x,y,z
-x,-y,1/2+z
x,-y,-z
-x,y,1/2-z
-x,-y,-z
x,y,1/2-z
-x,y,z
x,-y,1/2+z
1/2+x,1/2+y,z
1/2-x,1/2-y,1/2+z
1/2+x,1/2-y,-z
1/2-x,1/2+y,1/2-z
1/2-x,1/2-y,-z
1/2+x,1/2+y,1/2-z
1/2-x,1/2+y,z
1/2+x,1/2-y,1/2+z
loop_
_atom_site_type_symbol
_atom_site_label
_atom_site_fract_x
_atom_site_fract_y
_atom_site_fract_z
Si Si1 0.221189 0.391049 0.628055
Si Si2 0.335294 0.786752 0.519489
Si Si3 0.263143 0.270807 0.318410
Si Si4 0.841920 0.626064 0.905762
Si Si5 0.593160 0.666943 0.891277
Si Si6 0.590004 0.995872 0.180889
Si Si7 0.810829 0.022802 0.567438
O O1 0.183504 0.351660 0.568978
O O2 0.246458 0.319616 0.668806
O O3 0.155024 0.441323 0.661869
O O4 0.291709 0.447483 0.606747
O O5 0.250000 0.750000 0.500000
O O6 0.374257 0.825793 0.461618
O O7 0.385903 0.720087 0.551241
O O8 0.249869 0.289942 0.250000
O O9 0.203495 0.316192 0.361453
O O10 0.351341 0.297138 0.339468
O O11 0.899129 0.574246 0.865474
O O12 0.772795 0.570215 0.932295
O O13 0.500000 0.668993 0.878288
O O14 0.624913 0.581084 0.905040
O O15 0.603183 0.972361 0.250000
O O16 0.500000 0.026412 0.176331
O O17 0.831118 0.000000 0.500000
#
# Coordination Sequence:
#
# PCOD9468408 Si02
#       7
#    16  16  16  16  16  16  16
#     4  10  19  31  56  80 100 135 175 217 267 315
#     4  11  17  35  55  80 105 138 171 223 272 312
#     4  10  20  35  57  80 102 136 184 228 263 307
#     4  10  19  33  58  79 100 138 185 222 262 314
#     4  10  22  34  51  81 112 142 174 211 267 331
#     4  10  22  37  50  73 112 149 177 214 265 319
#     4  10  17  31  54  76 105 136 169 212 264 312
#
# _framework density 17.171337000000001
#
# number of rings (size 3 to 8) (size 9 to 14) (size 15 to 20)
#    0.000    1.857    5.714    0.857    0.000    3.429 
#    0.000    1.429    0.000    0.000    0.000    0.000 
#    0.000    0.000    0.000    0.000    0.000    0.000 
#
# Total GULP energy -312312.334421 kJ/mol
# GULP energy per Si atom -5577.005972 kJ/mol
# Density = 1.713225 g / cm^3
# Si number density = 17.171337 Si / 1000 Ang^3
#
#
#
# Elastic Constant Matrix: (Units=GPa)
#
#
# Indices 1 2 3 4 5 6 
#
# 1 22.5799 6.2008 -10.1893 0.0000 0.0000 0.0000
# 2 6.2008 78.2490 10.3916 0.0000 0.0000 0.0000
# 3 -10.1893 10.3916 80.9803 0.0000 0.0000 0.0000
# 4 0.0000 0.0000 0.0000 19.9207 0.0000 0.0000
# 5 0.0000 0.0000 0.0000 0.0000 16.1272 0.0000
# 6 0.0000 0.0000 0.0000 0.0000 0.0000 9.2569
#
#
#
# Elastic Compliance Matrix: (Units=1/GPa)
#
#
# Indices 1 2 3 4 5 6 
#
# 1 0.048627 -0.004747 0.006728 0.000000 0.000000 0.000000
# 2 -0.004747 0.013465 -0.002325 0.000000 0.000000 0.000000
# 3 0.006728 -0.002325 0.013494 0.000000 0.000000 0.000000
# 4 0.000000 0.000000 0.000000 0.050199 0.000000 0.000000
# 5 0.000000 0.000000 0.000000 0.000000 0.062007 0.000000
# 6 0.000000 0.000000 0.000000 0.000000 0.000000 0.108027
#
#
# Mechanical properties :
#
#
# Convention : Reuss Voigt Hill
#
# Bulk Modulus (GPa) = 13.35182 21.62391 17.48786
# Shear Modulus (GPa) = 15.55343 20.75469 18.15406
#
# Velocity S-wave (km/s) = 3.01288 3.48038 3.25504
# Velocity P-wave (km/s) = 4.46047 5.36387 4.93289
#
# Compressibility (1/GPa) = 0.07489618
#
# Stress axis : x y z
#
# Youngs Moduli (GPa) = 20.56486 74.26858 74.10952
#
# Poissons Ratio (x) = 0.35254 -0.49858
# Poissons Ratio (y) = 0.09762 0.17231
# Poissons Ratio (z) = -0.13835 0.17268
#
# Static dielectric constant tensor:
#      x y z
#    x 1.549760 0.000000 0.000000 
#    y 0.000000 1.597470 0.000000 
#    z 0.000000 0.000000 1.580600 
# 
# From -- ./inp_files/55839.got.cif
#   From: 2010.05.17/outbox.cif.g08.bks.cpg/sg63_28_cif.got.tgz:55839.got - 2010.06.03 15:47:04.
