data_PCOD9468325
_publ_section_title
;
Structure prediction by ZEFSAII (Michael W. Deem and Ramdas Pophale) SiO2 
 PCOD9468325
Probable space group: C M C M
;
_chemical_formula_sum "Si O2"
_cell_formula_units_Z 128
_cell_length_a 14.504452
_cell_length_b 18.001698
_cell_length_c 22.035411
_cell_angle_alpha 90.000000
_cell_angle_beta 90.000000
_cell_angle_gamma 90.000000
_cell_volume 5753.550801
_symmetry_space_group_name_H-M "C M C M"
_symmetry_group_IT_number 63
_symmetry_cell_setting 'orthorhombic'
loop_
_space_group_symop_operation_xyz
x,y,z
-x,-y,1/2+z
x,-y,-z
-x,y,1/2-z
-x,-y,-z
x,y,1/2-z
-x,y,z
x,-y,1/2+z
1/2+x,1/2+y,z
1/2-x,1/2-y,1/2+z
1/2+x,1/2-y,-z
1/2-x,1/2+y,1/2-z
1/2-x,1/2-y,-z
1/2+x,1/2+y,1/2-z
1/2-x,1/2+y,z
1/2+x,1/2-y,1/2+z
loop_
_atom_site_type_symbol
_atom_site_label
_atom_site_fract_x
_atom_site_fract_y
_atom_site_fract_z
Si Si1 0.597735 0.046946 0.678099
Si Si2 0.696662 0.359793 0.854533
Si Si3 0.401694 0.814006 0.635600
Si Si4 0.698383 0.482435 0.318951
Si Si5 0.639750 0.797298 0.373932
Si Si6 0.197387 0.915007 0.992909
Si Si7 0.351623 0.344776 0.110462
Si Si8 0.400536 0.866982 0.003767
O O1 0.597072 0.032917 0.750000
O O2 0.500000 0.018438 0.652188
O O3 0.695935 0.016674 0.654651
O O4 0.599732 0.135166 0.665099
O O5 0.804441 0.342594 0.837840
O O6 0.664603 0.433584 0.820931
O O7 0.637290 0.285153 0.847420
O O8 0.692433 0.382942 0.925478
O O9 0.500000 0.842768 0.660459
O O10 0.404790 0.724791 0.636763
O O11 0.397360 0.834082 0.563859
O O12 0.704364 0.455340 0.250000
O O13 0.639517 0.423350 0.356134
O O14 0.747268 0.817242 0.379033
O O15 0.603295 0.805842 0.442622
O O16 0.141892 0.862561 0.039291
O O17 0.306180 0.912503 0.011491
O O18 0.166361 0.000000 0.000000
O O19 0.500000 0.905836 0.010644
#
# Coordination Sequence:
#
# PCOD9468325 Si02
#       8
#    16  16  16  16  16  16  16  16
#     4   9  18  32  49  69  94 126 161 195 237 289
#     4  10  19  31  48  75 101 125 160 198 243 288
#     4   9  18  32  51  73  99 128 159 199 241 284
#     4  10  20  33  50  73  99 127 160 201 243 283
#     4   9  17  29  47  69  95 129 163 196 232 281
#     4  10  17  28  47  73 102 129 158 194 237 290
#     4   9  17  32  51  70  95 129 168 198 232 282
#     4   9  17  28  44  71 103 130 156 190 238 290
#
# _framework density 22.247129999999999
#
# number of rings (size 3 to 8) (size 9 to 14) (size 15 to 20)
#    0.000    2.625    1.250    1.125    0.000    4.250 
#    0.000    1.875    0.000    3.000    0.000    0.000 
#    0.000    0.000    0.000    0.000    0.000    0.000 
#
# Total GULP energy -356746.768108 kJ/mol
# GULP energy per Si atom -5574.168252 kJ/mol
# Density = 2.219649 g / cm^3
# Si number density = 22.247130 Si / 1000 Ang^3
#
#
#
# Elastic Constant Matrix: (Units=GPa)
#
#
# Indices 1 2 3 4 5 6 
#
# 1 24.3720 -5.0068 -3.8205 0.0000 0.0000 0.0000
# 2 -5.0068 116.9788 -10.2611 0.0000 0.0000 0.0000
# 3 -3.8205 -10.2611 30.1569 0.0000 0.0000 0.0000
# 4 0.0000 0.0000 0.0000 6.5583 0.0000 0.0000
# 5 0.0000 0.0000 0.0000 0.0000 -3.7405 0.0000
# 6 0.0000 0.0000 0.0000 0.0000 0.0000 11.4121
#
#
#
# Elastic Compliance Matrix: (Units=1/GPa)
#
#
# Indices 1 2 3 4 5 6 
#
# 1 0.042485 0.002361 0.006186 0.000000 0.000000 0.000000
# 2 0.002361 0.008943 0.003342 0.000000 0.000000 0.000000
# 3 0.006186 0.003342 0.035081 0.000000 0.000000 0.000000
# 4 0.000000 0.000000 0.000000 0.152478 0.000000 0.000000
# 5 0.000000 0.000000 0.000000 0.000000 -0.267342 0.000000
# 6 0.000000 0.000000 0.000000 0.000000 0.000000 0.087626
#
#
# Mechanical properties :
#
#
# Convention : Reuss Voigt Hill
#
# Bulk Modulus (GPa) = 9.06732 14.81455 11.94093
# Shear Modulus (GPa) = 69.19916 15.55239 42.37578
#
# Velocity S-wave (km/s) = 5.58321 2.64687 4.36911
# Velocity P-wave (km/s) = 6.75630 4.00184 5.55258
#
# Compressibility (1/GPa) = 0.11028615
#
# Stress axis : x y z
#
# Youngs Moduli (GPa) = 23.53752 111.82233 28.50570
#
# Poissons Ratio (x) = -0.26401 -0.17633
# Poissons Ratio (y) = -0.05557 -0.09526
# Poissons Ratio (z) = -0.14560 -0.37370
#
# Static dielectric constant tensor:
#      x y z
#    x 1.892270 0.000000 0.000000 
#    y 0.000000 1.824350 0.000000 
#    z 0.000000 0.000000 1.816260 
# 
# From -- ./inp_files/64073.got.cif
#   From: 2010.05.17/outbox.cif.g08.bks.cpg/sg63_33_cif.got.tgz:64073.got - 2010.06.03 15:47:04.
