data_PCOD9468309
_publ_section_title
;
Structure prediction by ZEFSAII (Michael W. Deem and Ramdas Pophale) SiO2 
 PCOD9468309
Probable space group: C M C M
;
_chemical_formula_sum "Si O2"
_cell_formula_units_Z 128
_cell_length_a 18.384762
_cell_length_b 25.764901
_cell_length_c 18.922286
_cell_angle_alpha 90.000000
_cell_angle_beta 90.000000
_cell_angle_gamma 90.000000
_cell_volume 8963.138194
_symmetry_space_group_name_H-M "C M C M"
_symmetry_group_IT_number 63
_symmetry_cell_setting 'orthorhombic'
loop_
_space_group_symop_operation_xyz
x,y,z
-x,-y,1/2+z
x,-y,-z
-x,y,1/2-z
-x,-y,-z
x,y,1/2-z
-x,y,z
x,-y,1/2+z
1/2+x,1/2+y,z
1/2-x,1/2-y,1/2+z
1/2+x,1/2-y,-z
1/2-x,1/2+y,1/2-z
1/2-x,1/2-y,-z
1/2+x,1/2+y,1/2-z
1/2-x,1/2+y,z
1/2+x,1/2-y,1/2+z
loop_
_atom_site_type_symbol
_atom_site_label
_atom_site_fract_x
_atom_site_fract_y
_atom_site_fract_z
Si Si1 0.285599 0.313199 0.169097
Si Si2 0.306246 0.705437 0.329595
Si Si3 0.585330 0.745529 0.601964
Si Si4 0.585416 0.963042 0.432551
Si Si5 0.084853 0.747403 0.565381
Si Si6 0.325231 0.857432 0.438604
Si Si7 0.415503 0.942849 0.833900
Si Si8 0.676167 0.850019 0.896007
O O1 0.286961 0.332264 0.250000
O O2 0.239962 0.259174 0.168754
O O3 0.365233 0.296617 0.141810
O O4 0.242386 0.349644 0.114338
O O5 0.332696 0.697473 0.250000
O O6 0.370054 0.713755 0.385542
O O7 0.248829 0.661929 0.352543
O O8 0.500000 0.744094 0.620142
O O9 0.593070 0.738637 0.517335
O O10 0.620128 0.802237 0.616899
O O11 0.500000 0.948161 0.437545
O O12 0.634522 0.912194 0.430581
O O13 0.600961 0.000000 0.500000
O O14 0.595931 0.999736 0.364736
O O15 0.118778 0.689990 0.575623
O O16 0.000000 0.746980 0.582739
O O17 0.304617 0.851115 0.520997
O O18 0.405299 0.940694 0.750000
O O19 0.500000 0.929388 0.849953
O O20 0.363534 0.902191 0.872408
#
# Coordination Sequence:
#
# PCOD9468309 Si02
#       8
#    16  16  16  16  16  16  16  16
#     4   9  18  30  42  61  88 116 147 182 219 263
#     4   9  17  28  41  59  86 117 146 180 220 259
#     4   9  17  28  44  65  89 116 146 180 220 265
#     4  10  19  31  46  64  87 116 152 188 221 257
#     4   9  17  28  43  64  87 114 151 187 216 256
#     4  10  18  29  47  64  84 117 153 186 223 259
#     4  10  20  31  43  63  90 116 145 185 226 261
#     4  10  17  28  45  64  86 116 151 182 218 264
#
# _framework density 14.280713
#
# number of rings (size 3 to 8) (size 9 to 14) (size 15 to 20)
#    0.000    2.500    1.250    1.875    0.000    5.500 
#    0.000    0.000    0.000    2.250    0.000    0.000 
#    0.000    1.500    0.000    2.750    0.000    0.625 
#
# Total GULP energy -356647.887221 kJ/mol
# GULP energy per Si atom -5572.623238 kJ/mol
# Density = 1.424821 g / cm^3
# Si number density = 14.280713 Si / 1000 Ang^3
#
#
#
# Elastic Constant Matrix: (Units=GPa)
#
#
# Indices 1 2 3 4 5 6 
#
# 1 56.8973 18.8106 29.7412 0.0000 0.0000 0.0000
# 2 18.8106 49.4034 18.6193 0.0000 0.0000 0.0000
# 3 29.7412 18.6193 51.0588 0.0000 0.0000 0.0000
# 4 0.0000 0.0000 0.0000 16.7312 0.0000 0.0000
# 5 0.0000 0.0000 0.0000 0.0000 19.6345 0.0000
# 6 0.0000 0.0000 0.0000 0.0000 0.0000 17.3145
#
#
#
# Elastic Compliance Matrix: (Units=1/GPa)
#
#
# Indices 1 2 3 4 5 6 
#
# 1 0.026257 -0.004908 -0.013505 0.000000 0.000000 0.000000
# 2 -0.004908 0.024384 -0.006033 0.000000 0.000000 0.000000
# 3 -0.013505 -0.006033 0.029652 0.000000 0.000000 0.000000
# 4 0.000000 0.000000 0.000000 0.059769 0.000000 0.000000
# 5 0.000000 0.000000 0.000000 0.000000 0.050931 0.000000
# 6 0.000000 0.000000 0.000000 0.000000 0.000000 0.057755
#
#
# Mechanical properties :
#
#
# Convention : Reuss Voigt Hill
#
# Bulk Modulus (GPa) = 31.84582 32.41128 32.12855
# Shear Modulus (GPa) = 16.22816 16.74861 16.48838
#
# Velocity S-wave (km/s) = 3.37466 3.42835 3.40161
# Velocity P-wave (km/s) = 6.12640 6.19811 6.16236
#
# Compressibility (1/GPa) = 0.03140129
#
# Stress axis : x y z
#
# Youngs Moduli (GPa) = 38.08462 41.01042 33.72480
#
# Poissons Ratio (x) = 0.20127 0.45545
# Poissons Ratio (y) = 0.18692 0.20347
# Poissons Ratio (z) = 0.51433 0.24742
#
# Static dielectric constant tensor:
#      x y z
#    x 1.453630 0.000000 0.000000 
#    y 0.000000 1.442430 0.000000 
#    z 0.000000 0.000000 1.491410 
# 
# From -- ./inp_files/46317.got.cif
#   From: 2010.05.17/outbox.cif.g08.bks.cpg/sg63_24_cif.got.tgz:46317.got - 2010.06.03 15:47:04.
