data_PCOD9468061
_publ_section_title
;
Structure prediction by ZEFSAII (Michael W. Deem and Ramdas Pophale) SiO2 
 PCOD9468061
Probable space group: P N M A
;
_chemical_formula_sum "Si O2"
_cell_formula_units_Z 48
_cell_length_a 18.000000
_cell_length_b 9.000000
_cell_length_c 15.000000
_cell_angle_alpha 90.000000
_cell_angle_beta 90.000000
_cell_angle_gamma 90.000000
_cell_volume 2430.000000
_symmetry_space_group_name_H-M "P N M A"
_symmetry_group_IT_number 62
_symmetry_cell_setting 'orthorhombic'
loop_
_space_group_symop_operation_xyz
x,y,z
1/2-x,-y,1/2+z
1/2+x,1/2-y,1/2-z
-x,1/2+y,-z
-x,-y,-z
1/2+x,y,1/2-z
1/2-x,1/2+y,1/2+z
x,1/2-y,z
loop_
_atom_site_type_symbol
_atom_site_label
_atom_site_fract_x
_atom_site_fract_y
_atom_site_fract_z
Si Si1 0.172086 0.081445 0.895055
Si Si2 0.754391 0.078194 0.792592
Si Si3 0.073802 0.572593 0.246467
Si Si4 0.300741 0.078561 0.036545
Si Si5 0.936077 0.573017 0.559581
Si Si6 0.477517 0.424350 0.407382
O O1 0.139764 0.250000 0.894381
O O2 0.220845 0.066089 0.806092
O O3 0.109073 0.959070 0.895672
O O4 0.224569 0.069396 0.980767
O O5 0.745105 0.250000 0.821714
O O6 0.841707 0.046464 0.785312
O O7 0.714306 0.973677 0.863342
O O8 0.062857 0.750000 0.254434
O O9 0.062184 0.496448 0.341861
O O10 0.020134 0.502691 0.173394
O O11 0.326409 0.250000 0.032779
O O12 0.359565 0.974484 0.987522
O O13 0.943874 0.750000 0.563509
O O14 0.000000 0.500000 0.500000
O O15 0.500000 0.500000 0.500000
O O16 0.493523 0.250000 0.409086
#
# Coordination Sequence:
#
# PCOD9468061 Si02
#       6
#     8   8   8   8   8   8
#     4  10  22  43  66  92 129 171 214 265 322 384
#     4  10  22  41  66  95 127 168 212 261 324 387
#     4  11  23  45  71  98 133 172 216 270 329 388
#     4  11  23  42  67  96 130 168 215 268 322 383
#     4  12  26  44  67  95 131 174 220 268 325 391
#     4  12  26  43  65  97 132 174 220 268 325 386
#
# _framework density 19.753086
#
# number of rings (size 3 to 8) (size 9 to 14) (size 15 to 20)
#    0.000    1.000    1.667    5.000    2.333    6.000 
#    0.000    0.000    0.000    0.000    0.000    0.000 
#    0.000    0.000    0.000    0.000    0.000    0.000 
#
# Total GULP energy -268521.270771 kJ/mol
# GULP energy per Si atom -5594.193141 kJ/mol
# Density = 1.970813 g / cm^3
# Si number density = 19.753086 Si / 1000 Ang^3
#
#
#
# Elastic Constant Matrix: (Units=GPa)
#
#
# Indices 1 2 3 4 5 6 
#
# 1 46.3637 25.3105 -13.5180 0.0000 0.0000 0.0000
# 2 25.3105 100.9706 6.5368 0.0000 0.0000 0.0000
# 3 -13.5180 6.5368 26.9101 0.0000 0.0000 0.0000
# 4 0.0000 0.0000 0.0000 35.6878 0.0000 0.0000
# 5 0.0000 0.0000 0.0000 0.0000 23.1976 0.0000
# 6 0.0000 0.0000 0.0000 0.0000 0.0000 31.3248
#
#
#
# Elastic Compliance Matrix: (Units=1/GPa)
#
#
# Indices 1 2 3 4 5 6 
#
# 1 0.031902 -0.009179 0.018255 0.000000 0.000000 0.000000
# 2 -0.009179 0.012703 -0.007697 0.000000 0.000000 0.000000
# 3 0.018255 -0.007697 0.048201 0.000000 0.000000 0.000000
# 4 0.000000 0.000000 0.000000 0.028021 0.000000 0.000000
# 5 0.000000 0.000000 0.000000 0.000000 0.043108 0.000000
# 6 0.000000 0.000000 0.000000 0.000000 0.000000 0.031924
#
#
# Mechanical properties :
#
#
# Convention : Reuss Voigt Hill
#
# Bulk Modulus (GPa) = 10.46402 23.43365 16.94884
# Shear Modulus (GPa) = 22.22684 28.43639 25.33161
#
# Velocity S-wave (km/s) = 3.35809 3.79831 3.58496
# Velocity P-wave (km/s) = 4.51050 5.57900 5.07296
#
# Compressibility (1/GPa) = 0.09556556
#
# Stress axis : x y z
#
# Youngs Moduli (GPa) = 31.34601 78.72154 20.74660
#
# Poissons Ratio (x) = 0.72257 -0.37873
# Poissons Ratio (y) = 0.28772 0.15968
# Poissons Ratio (z) = -0.57223 0.60589
#
# Static dielectric constant tensor:
#      x y z
#    x 1.685590 0.000000 0.000000 
#    y 0.000000 1.690070 0.000000 
#    z 0.000000 0.000000 1.648990 
# 
# From -- ./inp_files/19628.got.cif
#   From: 2010.05.17/outbox.ucp.g08.bks.cvg/sg62_10_cif.got.tgz:19628.got - 2010.06.11 16:29:25.
