data_PCOD9468164
_publ_section_title
;
Structure prediction by ZEFSAII (Michael W. Deem and Ramdas Pophale) SiO2 
 PCOD9468164
Probable space group: C M C M
;
_chemical_formula_sum "Si O2"
_cell_formula_units_Z 88
_cell_length_a 9.798856
_cell_length_b 20.728961
_cell_length_c 25.130588
_cell_angle_alpha 90.000000
_cell_angle_beta 90.000000
_cell_angle_gamma 90.000000
_cell_volume 5104.527645
_symmetry_space_group_name_H-M "C M C M"
_symmetry_group_IT_number 63
_symmetry_cell_setting 'orthorhombic'
loop_
_space_group_symop_operation_xyz
x,y,z
-x,-y,1/2+z
x,-y,-z
-x,y,1/2-z
-x,-y,-z
x,y,1/2-z
-x,y,z
x,-y,1/2+z
1/2+x,1/2+y,z
1/2-x,1/2-y,1/2+z
1/2+x,1/2-y,-z
1/2-x,1/2+y,1/2-z
1/2-x,1/2-y,-z
1/2+x,1/2+y,1/2-z
1/2-x,1/2+y,z
1/2+x,1/2-y,1/2+z
loop_
_atom_site_type_symbol
_atom_site_label
_atom_site_fract_x
_atom_site_fract_y
_atom_site_fract_z
Si Si1 0.256437 0.000000 0.500000
Si Si2 0.838696 0.692084 0.872089
Si Si3 0.658338 0.472254 0.616124
Si Si4 0.335863 0.332045 0.591696
Si Si5 0.654121 0.144574 0.992049
Si Si6 0.337449 0.410291 0.312766
O O1 0.171991 0.993487 0.554570
O O2 0.338277 0.933279 0.495220
O O3 0.809167 0.768312 0.874275
O O4 0.814261 0.666248 0.932160
O O5 0.745259 0.651599 0.832697
O O6 0.000000 0.683001 0.860650
O O7 0.500000 0.467530 0.630756
O O8 0.712745 0.399136 0.618304
O O9 0.716100 0.527764 0.653949
O O10 0.500000 0.335780 0.583028
O O11 0.260336 0.328508 0.535003
O O12 0.500000 0.166071 0.004575
O O13 0.321383 0.420559 0.250000
O O14 0.500000 0.402173 0.323799
#
# Coordination Sequence:
#
# PCOD9468164 Si02
#       6
#     8  16  16  16  16  16
#     4  10  16  28  48  74 107 140 169 212 257 312
#     4  10  20  35  52  75 106 138 173 213 256 307
#     4   9  17  31  51  77 103 132 171 213 259 309
#     4   9  19  33  51  75 106 138 171 209 253 311
#     4  10  19  29  46  75 110 142 170 207 255 310
#     4  10  21  37  56  76  99 131 174 220 260 304
#
# _framework density 17.239595999999999
#
# number of rings (size 3 to 8) (size 9 to 14) (size 15 to 20)
#    0.000    2.364    1.818    1.091    0.000    2.545 
#    0.000    0.909    0.000    3.273    0.000    0.000 
#    0.000    0.000    0.000    0.000    0.000    0.000 
#
# Total GULP energy -245172.767038 kJ/mol
# GULP energy per Si atom -5572.108342 kJ/mol
# Density = 1.720036 g / cm^3
# Si number density = 17.239596 Si / 1000 Ang^3
#
#
#
# Elastic Constant Matrix: (Units=GPa)
#
#
# Indices 1 2 3 4 5 6 
#
# 1 30.3201 28.9895 25.2727 0.0000 0.0000 0.0000
# 2 28.9895 113.8629 56.4098 0.0000 0.0000 0.0000
# 3 25.2727 56.4098 66.7303 0.0000 0.0000 0.0000
# 4 0.0000 0.0000 0.0000 20.9067 0.0000 0.0000
# 5 0.0000 0.0000 0.0000 0.0000 23.6121 0.0000
# 6 0.0000 0.0000 0.0000 0.0000 0.0000 22.1447
#
#
#
# Elastic Compliance Matrix: (Units=1/GPa)
#
#
# Indices 1 2 3 4 5 6 
#
# 1 0.050327 -0.005799 -0.014158 0.000000 0.000000 0.000000
# 2 -0.005799 0.015779 -0.011142 0.000000 0.000000 0.000000
# 3 -0.014158 -0.011142 0.029767 0.000000 0.000000 0.000000
# 4 0.000000 0.000000 0.000000 0.047831 0.000000 0.000000
# 5 0.000000 0.000000 0.000000 0.000000 0.042351 0.000000
# 6 0.000000 0.000000 0.000000 0.000000 0.000000 0.045158
#
#
# Mechanical properties :
#
#
# Convention : Reuss Voigt Hill
#
# Bulk Modulus (GPa) = 29.69658 48.02861 38.86259
# Shear Modulus (GPa) = 16.41293 20.01546 18.21419
#
# Velocity S-wave (km/s) = 3.08888 3.41107 3.25396
# Velocity P-wave (km/s) = 5.47583 6.59043 6.05882
#
# Compressibility (1/GPa) = 0.03367392
#
# Stress axis : x y z
#
# Youngs Moduli (GPa) = 19.86992 63.37488 33.59423
#
# Poissons Ratio (x) = 0.36752 0.47563
# Poissons Ratio (y) = 0.11523 0.37432
# Poissons Ratio (z) = 0.28132 0.70615
#
# Static dielectric constant tensor:
#      x y z
#    x 1.586110 0.000000 0.000000 
#    y 0.000000 1.625320 0.000000 
#    z 0.000000 0.000000 1.556580 
# 
# From -- ./inp_files/59653.got.cif
#   From: 2010.05.17/outbox.cif.g08.bks.cpg/sg63_30_cif.got.tgz:59653.got - 2010.06.03 15:47:04.
