data_PCOD9468890
_publ_section_title
;
Structure prediction by ZEFSAII (Michael W. Deem and Ramdas Pophale) SiO2 
 PCOD9468890
Probable space group: C M C M
;
_chemical_formula_sum "Si O2"
_cell_formula_units_Z 88
_cell_length_a 20.255376
_cell_length_b 25.519511
_cell_length_c 7.707467
_cell_angle_alpha 90.000000
_cell_angle_beta 90.000000
_cell_angle_gamma 90.000000
_cell_volume 3984.045885
_symmetry_space_group_name_H-M "C M C M"
_symmetry_group_IT_number 63
_symmetry_cell_setting 'orthorhombic'
loop_
_space_group_symop_operation_xyz
x,y,z
-x,-y,1/2+z
x,-y,-z
-x,y,1/2-z
-x,-y,-z
x,y,1/2-z
-x,y,z
x,-y,1/2+z
1/2+x,1/2+y,z
1/2-x,1/2-y,1/2+z
1/2+x,1/2-y,-z
1/2-x,1/2+y,1/2-z
1/2-x,1/2-y,-z
1/2+x,1/2+y,1/2-z
1/2-x,1/2+y,z
1/2+x,1/2-y,1/2+z
loop_
_atom_site_type_symbol
_atom_site_label
_atom_site_fract_x
_atom_site_fract_y
_atom_site_fract_z
Si Si1 0.500000 0.937446 0.459071
Si Si2 0.898989 0.058288 0.445855
Si Si3 0.071934 0.170915 0.462554
Si Si4 0.748001 0.057409 0.956648
Si Si5 0.827132 0.256665 0.041201
Si Si6 0.871872 0.370632 0.037919
O O1 0.500000 0.934884 0.250000
O O2 0.564913 0.904914 0.519653
O O3 0.500000 0.000000 0.500000
O O4 0.921315 0.061828 0.250000
O O5 0.923433 0.111609 0.532013
O O6 0.819442 0.061297 0.457120
O O7 0.918117 0.000000 0.500000
O O8 0.076428 0.169377 0.250000
O O9 0.131282 0.207118 0.524244
O O10 0.000000 0.193177 0.504847
O O11 0.758138 0.061360 0.750000
O O12 0.695284 0.099883 0.013532
O O13 0.720568 0.000000 0.000000
O O14 0.831753 0.257652 0.250000
O O15 0.861816 0.310635 0.980450
O O16 0.750000 0.250000 0.000000
O O17 0.874364 0.370561 0.250000
#
# Coordination Sequence:
#
# PCOD9468890 Si02
#       6
#     8  16  16  16  16  16
#     4  10  20  36  54  78 110 144 183 226 270 326
#     4  10  19  32  51  76 103 133 170 212 258 309
#     4   9  19  34  54  79 105 134 174 218 258 307
#     4  10  18  30  48  73 103 134 171 213 257 307
#     4  10  20  36  58  82 107 139 178 224 272 319
#     4   9  19  32  52  78 104 136 177 220 265 317
#
# _framework density 22.088100000000001
#
# number of rings (size 3 to 8) (size 9 to 14) (size 15 to 20)
#    0.000    2.364    0.000    3.818    1.273    0.364 
#    0.000    3.636    0.000    4.364    0.000    0.000 
#    0.000    0.000    0.000    0.000    0.000    0.000 
#
# Total GULP energy -245570.167675 kJ/mol
# GULP energy per Si atom -5581.140174 kJ/mol
# Density = 2.203783 g / cm^3
# Si number density = 22.088100 Si / 1000 Ang^3
#
#
#
# Elastic Constant Matrix: (Units=GPa)
#
#
# Indices 1 2 3 4 5 6 
#
# 1 142.0693 92.8572 6.0196 0.0000 0.0000 0.0000
# 2 92.8572 179.7385 8.2691 0.0000 0.0000 0.0000
# 3 6.0196 8.2691 38.5916 0.0000 0.0000 0.0000
# 4 0.0000 0.0000 0.0000 15.4077 0.0000 0.0000
# 5 0.0000 0.0000 0.0000 0.0000 49.6957 0.0000
# 6 0.0000 0.0000 0.0000 0.0000 0.0000 31.9053
#
#
#
# Elastic Compliance Matrix: (Units=1/GPa)
#
#
# Indices 1 2 3 4 5 6 
#
# 1 0.010636 -0.005473 -0.000486 0.000000 0.000000 0.000000
# 2 -0.005473 0.008435 -0.000954 0.000000 0.000000 0.000000
# 3 -0.000486 -0.000954 0.026193 0.000000 0.000000 0.000000
# 4 0.000000 0.000000 0.000000 0.064903 0.000000 0.000000
# 5 0.000000 0.000000 0.000000 0.000000 0.020122 0.000000
# 6 0.000000 0.000000 0.000000 0.000000 0.000000 0.031343
#
#
# Mechanical properties :
#
#
# Convention : Reuss Voigt Hill
#
# Bulk Modulus (GPa) = 31.80845 63.85457 47.83151
# Shear Modulus (GPa) = 26.89088 36.28531 31.58810
#
# Velocity S-wave (km/s) = 3.49296 4.05749 3.78576
# Velocity P-wave (km/s) = 5.54073 7.13602 6.38837
#
# Compressibility (1/GPa) = 0.03143819
#
# Stress axis : x y z
#
# Youngs Moduli (GPa) = 94.01719 118.55656 38.17875
#
# Poissons Ratio (x) = 0.64881 0.01857
# Poissons Ratio (y) = 0.51452 0.03641
# Poissons Ratio (z) = 0.04573 0.11307
#
# Static dielectric constant tensor:
#      x y z
#    x 1.788240 0.000000 0.000000 
#    y 0.000000 1.846330 0.000000 
#    z 0.000000 0.000000 1.833250 
# 
# From -- ./inp_files/8223.got.cif
#   From: 2010.05.17/outbox.cif.g08.bks.cpg/sg63_5_cif.got.tgz:8223.got - 2010.06.03 15:47:04.
