data_PCOD9468651
_publ_section_title
;
Structure prediction by ZEFSAII (Michael W. Deem and Ramdas Pophale) SiO2 
 PCOD9468651
Probable space group: C M C M
;
_chemical_formula_sum "Si O2"
_cell_formula_units_Z 96
_cell_length_a 21.783103
_cell_length_b 12.306778
_cell_length_c 14.476865
_cell_angle_alpha 90.000000
_cell_angle_beta 90.000000
_cell_angle_gamma 90.000000
_cell_volume 3880.955259
_symmetry_space_group_name_H-M "C M C M"
_symmetry_group_IT_number 63
_symmetry_cell_setting 'orthorhombic'
loop_
_space_group_symop_operation_xyz
x,y,z
-x,-y,1/2+z
x,-y,-z
-x,y,1/2-z
-x,-y,-z
x,y,1/2-z
-x,y,z
x,-y,1/2+z
1/2+x,1/2+y,z
1/2-x,1/2-y,1/2+z
1/2+x,1/2-y,-z
1/2-x,1/2+y,1/2-z
1/2-x,1/2-y,-z
1/2+x,1/2+y,1/2-z
1/2-x,1/2+y,z
1/2+x,1/2-y,1/2+z
loop_
_atom_site_type_symbol
_atom_site_label
_atom_site_fract_x
_atom_site_fract_y
_atom_site_fract_z
Si Si1 0.118973 0.087411 0.896383
Si Si2 0.843827 0.686675 0.599818
Si Si3 0.070046 0.128375 0.394519
Si Si4 0.834089 0.688124 0.109380
Si Si5 0.244095 0.496406 0.393435
Si Si6 0.069693 0.500348 0.639811
O O1 0.139633 0.200175 0.850875
O O2 0.184270 0.024328 0.898239
O O3 0.075635 0.993935 0.856414
O O4 0.087728 0.117223 0.995623
O O5 0.877332 0.790716 0.642841
O O6 0.820309 0.717820 0.497658
O O7 0.791458 0.610118 0.645168
O O8 0.900188 0.602476 0.589921
O O9 0.000000 0.168009 0.383575
O O10 0.777234 0.613835 0.144569
O O11 0.889185 0.603296 0.119071
O O12 0.221947 0.500000 0.500000
O O13 0.073056 0.521745 0.750000
O O14 0.000000 0.482982 0.613733
#
# Coordination Sequence:
#
# PCOD9468651 Si02
#       6
#    16  16  16  16  16  16
#     4  10  18  28  47  72 108 139 167 211 247 317
#     4   9  19  32  52  79 104 130 170 218 254 302
#     4  10  19  29  43  72 112 147 167 202 258 308
#     4   9  20  31  49  80 103 131 166 217 259 299
#     4   9  16  28  46  73 102 130 172 210 260 292
#     4  10  20  35  54  74  99 135 173 210 257 308
#
# _framework density 24.736176
#
# number of rings (size 3 to 8) (size 9 to 14) (size 15 to 20)
#    0.000    2.500    1.667    3.000    2.333    6.667 
#    0.000    0.000    0.000    5.000    0.000    2.333 
#    0.000    0.000    0.000    0.000    0.000    0.000 
#
# Total GULP energy -267627.985982 kJ/mol
# GULP energy per Si atom -5575.583041 kJ/mol
# Density = 2.467988 g / cm^3
# Si number density = 24.736176 Si / 1000 Ang^3
#
#
#
# Elastic Constant Matrix: (Units=GPa)
#
#
# Indices 1 2 3 4 5 6 
#
# 1 126.2612 4.8453 4.2111 0.0000 0.0000 0.0000
# 2 4.8453 141.5524 2.3105 0.0000 0.0000 0.0000
# 3 4.2111 2.3105 104.6329 0.0000 0.0000 0.0000
# 4 0.0000 0.0000 0.0000 -61.9553 0.0000 0.0000
# 5 0.0000 0.0000 0.0000 0.0000 -90.4522 0.0000
# 6 0.0000 0.0000 0.0000 0.0000 0.0000 14.9918
#
#
#
# Elastic Compliance Matrix: (Units=1/GPa)
#
#
# Indices 1 2 3 4 5 6 
#
# 1 0.007941 -0.000267 -0.000314 0.000000 0.000000 0.000000
# 2 -0.000267 0.007076 -0.000146 0.000000 0.000000 0.000000
# 3 -0.000314 -0.000146 0.009573 0.000000 0.000000 0.000000
# 4 0.000000 0.000000 0.000000 -0.016141 0.000000 0.000000
# 5 0.000000 0.000000 0.000000 0.000000 -0.011056 0.000000
# 6 0.000000 0.000000 0.000000 0.000000 0.000000 0.066703
#
#
# Mechanical properties :
#
#
# Convention : Reuss Voigt Hill
#
# Bulk Modulus (GPa) = 43.21885 43.90892 43.56388
# Shear Modulus (GPa) = 68.24906 -3.41114 32.41896
#
# Velocity S-wave (km/s) = 5.25839 -1.17559 3.62413
# Velocity P-wave (km/s) = 7.37411 3.99334 5.92976
#
# Compressibility (1/GPa) = 0.02313805
#
# Stress axis : x y z
#
# Youngs Moduli (GPa) = 125.93215 141.32226 104.45981
#
# Poissons Ratio (x) = 0.03769 0.03277
# Poissons Ratio (y) = 0.03358 0.01520
# Poissons Ratio (z) = 0.03950 0.02057
#
# Static dielectric constant tensor:
#      x y z
#    x 1.894180 0.000000 0.000000 
#    y 0.000000 2.008720 0.000000 
#    z 0.000000 0.000000 1.989040 
# 
# From -- ./inp_files/57492.got.cif
#   From: 2010.05.17/outbox.cif.g08.bks.cpg/sg63_29_cif.got.tgz:57492.got - 2010.06.03 15:47:04.
