data_PCOD9468545
_publ_section_title
;
Structure prediction by ZEFSAII (Michael W. Deem and Ramdas Pophale) SiO2 
 PCOD9468545
Probable space group: C M C M
;
_chemical_formula_sum "Si O2"
_cell_formula_units_Z 96
_cell_length_a 7.404006
_cell_length_b 24.378275
_cell_length_c 26.232082
_cell_angle_alpha 90.000000
_cell_angle_beta 90.000000
_cell_angle_gamma 90.000000
_cell_volume 4734.809334
_symmetry_space_group_name_H-M "C M C M"
_symmetry_group_IT_number 63
_symmetry_cell_setting 'orthorhombic'
loop_
_space_group_symop_operation_xyz
x,y,z
-x,-y,1/2+z
x,-y,-z
-x,y,1/2-z
-x,-y,-z
x,y,1/2-z
-x,y,z
x,-y,1/2+z
1/2+x,1/2+y,z
1/2-x,1/2-y,1/2+z
1/2+x,1/2-y,-z
1/2-x,1/2+y,1/2-z
1/2-x,1/2-y,-z
1/2+x,1/2+y,1/2-z
1/2-x,1/2+y,z
1/2+x,1/2-y,1/2+z
loop_
_atom_site_type_symbol
_atom_site_label
_atom_site_fract_x
_atom_site_fract_y
_atom_site_fract_z
Si Si1 0.779714 0.744874 0.309265
Si Si2 0.720411 0.435191 0.443602
Si Si3 0.789830 0.080533 0.750000
Si Si4 0.718969 0.047343 0.250000
Si Si5 0.278969 0.359831 0.351662
Si Si6 0.287396 0.874854 0.659744
Si Si7 0.783044 0.940222 0.559200
O O1 0.726574 0.751326 0.250000
O O2 0.722843 0.797183 0.342392
O O3 0.716030 0.686210 0.330300
O O4 0.000000 0.745168 0.309700
O O5 0.500000 0.434936 0.443362
O O6 0.781175 0.390452 0.402815
O O7 0.776666 0.497297 0.429099
O O8 0.778010 0.425600 0.502005
O O9 0.716758 0.105983 0.697846
O O10 0.000000 0.096788 0.750000
O O11 0.778276 0.015276 0.750000
O O12 0.500000 0.045780 0.250000
O O13 0.782953 0.080806 0.200385
O O14 0.500000 0.360676 0.352903
O O15 0.500000 0.870918 0.670768
O O16 0.267252 0.898115 0.603171
O O17 0.000000 0.941813 0.557717
#
# Coordination Sequence:
#
# PCOD9468545 Si02
#       7
#    16  16   8   8  16  16  16
#     4   9  15  27  45  65  91 123 155 189 228 268
#     4   8  15  28  46  67  94 126 152 183 234 284
#     4  10  18  27  47  77  97 110 145 198 234 266
#     4  10  20  31  43  63  95 126 145 174 232 292
#     4   9  15  25  45  73  95 113 150 198 233 261
#     4  10  19  31  47  67  92 122 156 189 225 273
#     4   9  17  31  49  68  94 125 154 186 230 280
#
# _framework density 20.275369000000001
#
# number of rings (size 3 to 8) (size 9 to 14) (size 15 to 20)
#    0.000    2.833    1.667    2.000    0.000    2.000 
#    0.000    2.500    0.000    2.000    0.000    0.000 
#    0.000    0.000    0.000    0.000    0.000    0.000 
#
# Total GULP energy -267900.700298 kJ/mol
# GULP energy per Si atom -5581.264590 kJ/mol
# Density = 2.022922 g / cm^3
# Si number density = 20.275369 Si / 1000 Ang^3
#
#
#
# Elastic Constant Matrix: (Units=GPa)
#
#
# Indices 1 2 3 4 5 6 
#
# 1 60.6817 -14.4121 -12.3332 0.0000 0.0000 0.0000
# 2 -14.4121 124.7631 61.0317 0.0000 0.0000 0.0000
# 3 -12.3332 61.0317 101.9291 0.0000 0.0000 0.0000
# 4 0.0000 0.0000 0.0000 29.6542 0.0000 0.0000
# 5 0.0000 0.0000 0.0000 0.0000 9.0550 0.0000
# 6 0.0000 0.0000 0.0000 0.0000 0.0000 5.6027
#
#
#
# Elastic Compliance Matrix: (Units=1/GPa)
#
#
# Indices 1 2 3 4 5 6 
#
# 1 0.017056 0.001359 0.001250 0.000000 0.000000 0.000000
# 2 0.001359 0.011444 -0.006688 0.000000 0.000000 0.000000
# 3 0.001250 -0.006688 0.013966 0.000000 0.000000 0.000000
# 4 0.000000 0.000000 0.000000 0.033722 0.000000 0.000000
# 5 0.000000 0.000000 0.000000 0.000000 0.110437 0.000000
# 6 0.000000 0.000000 0.000000 0.000000 0.000000 0.178484
#
#
# Mechanical properties :
#
#
# Convention : Reuss Voigt Hill
#
# Bulk Modulus (GPa) = 29.14711 39.54962 34.34837
# Shear Modulus (GPa) = 12.99704 25.73488 19.36596
#
# Velocity S-wave (km/s) = 2.53460 3.56654 3.09390
# Velocity P-wave (km/s) = 4.79295 6.04226 5.45350
#
# Compressibility (1/GPa) = 0.03430872
#
# Stress axis : x y z
#
# Youngs Moduli (GPa) = 58.62965 87.38498 71.60064
#
# Poissons Ratio (x) = -0.11873 -0.08952
# Poissons Ratio (y) = -0.07966 0.47884
# Poissons Ratio (z) = -0.07330 0.58440
#
# Static dielectric constant tensor:
#      x y z
#    x 1.795150 0.000000 0.000000 
#    y 0.000000 1.690440 0.000000 
#    z 0.000000 0.000000 1.692540 
# 
# From -- ./inp_files/67264.got.cif
#   From: 2010.05.17/outbox.cif.g08.bks.cpg/sg63_34_cif.got.tgz:67264.got - 2010.06.03 15:47:04.
