data_PCOD9468352
_publ_section_title
;
Structure prediction by ZEFSAII (Michael W. Deem and Ramdas Pophale) SiO2 
 PCOD9468352
Probable space group: C M C M
;
_chemical_formula_sum "Si O2"
_cell_formula_units_Z 128
_cell_length_a 20.813217
_cell_length_b 18.274397
_cell_length_c 21.577079
_cell_angle_alpha 90.000000
_cell_angle_beta 90.000000
_cell_angle_gamma 90.000000
_cell_volume 8206.820211
_symmetry_space_group_name_H-M "C M C M"
_symmetry_group_IT_number 63
_symmetry_cell_setting 'orthorhombic'
loop_
_space_group_symop_operation_xyz
x,y,z
-x,-y,1/2+z
x,-y,-z
-x,y,1/2-z
-x,-y,-z
x,y,1/2-z
-x,y,z
x,-y,1/2+z
1/2+x,1/2+y,z
1/2-x,1/2-y,1/2+z
1/2+x,1/2-y,-z
1/2-x,1/2+y,1/2-z
1/2-x,1/2-y,-z
1/2+x,1/2+y,1/2-z
1/2-x,1/2+y,z
1/2+x,1/2-y,1/2+z
loop_
_atom_site_type_symbol
_atom_site_label
_atom_site_fract_x
_atom_site_fract_y
_atom_site_fract_z
Si Si1 0.606554 0.938062 0.050452
Si Si2 0.710309 0.795860 0.818822
Si Si3 0.797361 0.216011 0.948375
Si Si4 0.427865 0.796879 0.523193
Si Si5 0.568589 0.843521 0.661988
Si Si6 0.237998 0.951683 0.058830
Si Si7 0.253378 0.034465 0.318920
Si Si8 0.597132 0.990610 0.183741
O O1 0.684288 0.942880 0.054151
O O2 0.580013 0.953350 0.119083
O O3 0.587165 0.857817 0.027951
O O4 0.586422 0.000000 0.000000
O O5 0.731935 0.769941 0.750000
O O6 0.721480 0.748409 0.880435
O O7 0.633034 0.805036 0.815852
O O8 0.738280 0.878056 0.828618
O O9 0.869300 0.240742 0.967793
O O10 0.790768 0.129046 0.944889
O O11 0.750000 0.250000 0.000000
O O12 0.500000 0.766224 0.514867
O O13 0.427748 0.841425 0.587791
O O14 0.500000 0.810145 0.679805
O O15 0.570738 0.927157 0.682304
O O16 0.222110 0.994129 0.122665
O O17 0.218086 0.000000 0.000000
O O18 0.224998 0.022836 0.250000
O O19 0.325818 0.002507 0.316869
O O20 0.579480 0.955911 0.250000
#
# Coordination Sequence:
#
# PCOD9468352 Si02
#       8
#    16  16  16  16  16  16  16  16
#     4  10  17  29  46  67  94 127 163 194 232 287
#     4   9  18  30  45  69 101 129 156 195 240 290
#     4  11  20  33  51  72  96 129 167 203 245 292
#     4  10  20  32  47  69  96 127 161 202 246 291
#     4   9  16  26  41  62  91 129 163 186 222 280
#     4  10  19  29  49  72  92 120 164 208 239 282
#     4   8  15  28  43  62  93 127 153 190 240 283
#     4   9  16  24  37  59  89 124 162 197 223 261
#
# _framework density 15.596783
#
# number of rings (size 3 to 8) (size 9 to 14) (size 15 to 20)
#    0.000    2.500    2.500    1.875    3.500    2.250 
#    0.000    0.000    0.000    0.375    0.000    0.000 
#    0.000    0.000    0.000    3.375    0.000    0.125 
#
# Total GULP energy -356290.136893 kJ/mol
# GULP energy per Si atom -5567.033389 kJ/mol
# Density = 1.556128 g / cm^3
# Si number density = 15.596783 Si / 1000 Ang^3
#
#
#
# Elastic Constant Matrix: (Units=GPa)
#
#
# Indices 1 2 3 4 5 6 
#
# 1 41.3294 25.5779 32.0033 0.0000 0.0000 0.0000
# 2 25.5779 87.9194 71.5742 0.0000 0.0000 0.0000
# 3 32.0033 71.5742 157.6614 0.0000 0.0000 0.0000
# 4 0.0000 0.0000 0.0000 15.4064 0.0000 0.0000
# 5 0.0000 0.0000 0.0000 0.0000 3.2801 0.0000
# 6 0.0000 0.0000 0.0000 0.0000 0.0000 9.2625
#
#
#
# Elastic Compliance Matrix: (Units=1/GPa)
#
#
# Indices 1 2 3 4 5 6 
#
# 1 0.030646 -0.006109 -0.003447 0.000000 0.000000 0.000000
# 2 -0.006109 0.019260 -0.007503 0.000000 0.000000 0.000000
# 3 -0.003447 -0.007503 0.010449 0.000000 0.000000 0.000000
# 4 0.000000 0.000000 0.000000 0.064908 0.000000 0.000000
# 5 0.000000 0.000000 0.000000 0.000000 0.304871 0.000000
# 6 0.000000 0.000000 0.000000 0.000000 0.000000 0.107962
#
#
# Mechanical properties :
#
#
# Convention : Reuss Voigt Hill
#
# Bulk Modulus (GPa) = 38.11720 60.58011 49.34865
# Shear Modulus (GPa) = 8.60644 16.10680 12.35662
#
# Velocity S-wave (km/s) = 2.35161 3.21705 2.81775
# Velocity P-wave (km/s) = 5.64496 7.26120 6.50348
#
# Compressibility (1/GPa) = 0.02623488
#
# Stress axis : x y z
#
# Youngs Moduli (GPa) = 32.63045 51.92171 95.70480
#
# Poissons Ratio (x) = 0.31720 0.32993
# Poissons Ratio (y) = 0.19935 0.71811
# Poissons Ratio (z) = 0.11249 0.38959
#
# Static dielectric constant tensor:
#      x y z
#    x 1.538070 0.000000 0.000000 
#    y 0.000000 1.488050 0.000000 
#    z 0.000000 0.000000 1.579070 
# 
# From -- ./inp_files/56970.got.cif
#   From: 2010.05.17/outbox.cif.g08.bks.cpg/sg63_29_cif.got.tgz:56970.got - 2010.06.03 15:47:04.
