data_PCOD9468439
_publ_section_title
;
Structure prediction by ZEFSAII (Michael W. Deem and Ramdas Pophale) SiO2 
 PCOD9468439
Probable space group: C M C M
;
_chemical_formula_sum "Si O2"
_cell_formula_units_Z 68
_cell_length_a 14.411551
_cell_length_b 11.603368
_cell_length_c 17.228290
_cell_angle_alpha 90.000000
_cell_angle_beta 90.000000
_cell_angle_gamma 90.000000
_cell_volume 2880.958236
_symmetry_space_group_name_H-M "C M C M"
_symmetry_group_IT_number 63
_symmetry_cell_setting 'orthorhombic'
loop_
_space_group_symop_operation_xyz
x,y,z
-x,-y,1/2+z
x,-y,-z
-x,y,1/2-z
-x,-y,-z
x,y,1/2-z
-x,y,z
x,-y,1/2+z
1/2+x,1/2+y,z
1/2-x,1/2-y,1/2+z
1/2+x,1/2-y,-z
1/2-x,1/2+y,1/2-z
1/2-x,1/2-y,-z
1/2+x,1/2+y,1/2-z
1/2-x,1/2+y,z
1/2+x,1/2-y,1/2+z
loop_
_atom_site_type_symbol
_atom_site_label
_atom_site_fract_x
_atom_site_fract_y
_atom_site_fract_z
Si Si1 0.356650 0.471576 0.413697
Si Si2 0.350218 0.110278 0.963735
Si Si3 0.138675 0.214990 0.164168
Si Si4 0.852967 0.274641 0.870338
Si Si5 0.500000 0.862865 0.750000
O O1 0.391790 0.500000 0.500000
O O2 0.246238 0.441966 0.427864
O O3 0.376559 0.584586 0.363940
O O4 0.392224 0.355306 0.374157
O O5 0.393440 0.190225 0.897972
O O6 0.337548 0.188993 0.039986
O O7 0.400162 0.000000 0.000000
O O8 0.103217 0.235939 0.250000
O O9 0.250341 0.226298 0.164416
O O10 0.919117 0.353093 0.818638
#
# Coordination Sequence:
#
# PCOD9468439 Si02
#       5
#    16  16  16  16   4
#     4  10  17  33  63  89 116 147 195 258 317 351
#     4  10  19  35  61  89 120 156 199 250 318 368
#     4  11  20  33  61  99 123 148 192 270 319 349
#     4  11  21  39  55  84 126 162 199 239 303 374
#     4  12  28  40  52  84 128 168 210 240 288 378
#
# _framework density 23.603255999999998
#
# number of rings (size 3 to 8) (size 9 to 14) (size 15 to 20)
#    0.000    1.412    8.235    1.412    1.647    0.941 
#    2.118    1.176    0.000    0.000    0.000    0.000 
#    0.000    0.000    0.000    0.000    0.000    0.000 
#
# Total GULP energy -189371.835745 kJ/mol
# GULP energy per Si atom -5569.759875 kJ/mol
# Density = 2.354953 g / cm^3
# Si number density = 23.603256 Si / 1000 Ang^3
#
#
#
# Elastic Constant Matrix: (Units=GPa)
#
#
# Indices 1 2 3 4 5 6 
#
# 1 120.1222 -12.3846 8.6847 0.0000 0.0000 0.0000
# 2 -12.3846 139.2043 55.9084 0.0000 0.0000 0.0000
# 3 8.6847 55.9084 201.4063 0.0000 0.0000 0.0000
# 4 0.0000 0.0000 0.0000 18.7363 0.0000 0.0000
# 5 0.0000 0.0000 0.0000 0.0000 11.4622 0.0000
# 6 0.0000 0.0000 0.0000 0.0000 0.0000 -24.4800
#
#
#
# Elastic Compliance Matrix: (Units=1/GPa)
#
#
# Indices 1 2 3 4 5 6 
#
# 1 0.008476 0.001014 -0.000647 0.000000 0.000000 0.000000
# 2 0.001014 0.008206 -0.002322 0.000000 0.000000 0.000000
# 3 -0.000647 -0.002322 0.005637 0.000000 0.000000 0.000000
# 4 0.000000 0.000000 0.000000 0.053372 0.000000 0.000000
# 5 0.000000 0.000000 0.000000 0.000000 0.087243 0.000000
# 6 0.000000 0.000000 0.000000 0.000000 0.000000 -0.040850
#
#
# Mechanical properties :
#
#
# Convention : Reuss Voigt Hill
#
# Bulk Modulus (GPa) = 54.31677 62.79442 58.55559
# Shear Modulus (GPa) = 37.84086 28.37865 33.10975
#
# Velocity S-wave (km/s) = 4.00835 3.47121 3.74941
# Velocity P-wave (km/s) = 6.66970 6.53664 6.60350
#
# Compressibility (1/GPa) = 0.01841052
#
# Stress axis : x y z
#
# Youngs Moduli (GPa) = 117.97783 121.85657 177.38436
#
# Poissons Ratio (x) = -0.12356 0.11476
# Poissons Ratio (y) = -0.11962 0.41184
# Poissons Ratio (z) = 0.07633 0.28292
#
# Static dielectric constant tensor:
#      x y z
#    x 1.924710 0.000000 0.000000 
#    y 0.000000 1.948070 0.000000 
#    z 0.000000 0.000000 1.816790 
# 
# From -- ./inp_files/45261.got.cif
#   From: 2010.05.17/outbox.cif.g08.bks.cpg/sg63_23_cif.got.tgz:45261.got - 2010.06.03 15:47:04.
