data_PCOD9468474
_publ_section_title
;
Structure prediction by ZEFSAII (Michael W. Deem and Ramdas Pophale) SiO2 
 PCOD9468474
Probable space group: C M C M
;
_chemical_formula_sum "Si O2"
_cell_formula_units_Z 88
_cell_length_a 19.958738
_cell_length_b 28.057830
_cell_length_c 7.422030
_cell_angle_alpha 90.000000
_cell_angle_beta 90.000000
_cell_angle_gamma 90.000000
_cell_volume 4156.328471
_symmetry_space_group_name_H-M "C M C M"
_symmetry_group_IT_number 63
_symmetry_cell_setting 'orthorhombic'
loop_
_space_group_symop_operation_xyz
x,y,z
-x,-y,1/2+z
x,-y,-z
-x,y,1/2-z
-x,-y,-z
x,y,1/2-z
-x,y,z
x,-y,1/2+z
1/2+x,1/2+y,z
1/2-x,1/2-y,1/2+z
1/2+x,1/2-y,-z
1/2-x,1/2+y,1/2-z
1/2-x,1/2-y,-z
1/2+x,1/2+y,1/2-z
1/2-x,1/2+y,z
1/2+x,1/2-y,1/2+z
loop_
_atom_site_type_symbol
_atom_site_label
_atom_site_fract_x
_atom_site_fract_y
_atom_site_fract_z
Si Si1 0.575189 0.763758 0.461957
Si Si2 0.189707 0.805920 0.965245
Si Si3 0.170209 0.656114 0.467726
Si Si4 0.000000 0.055711 0.034872
Si Si5 0.283395 0.052840 0.465362
Si Si6 0.857122 0.086329 0.034107
O O1 0.571266 0.751769 0.250000
O O2 0.500000 0.757589 0.535525
O O3 0.635091 0.730967 0.539430
O O4 0.602507 0.817460 0.478697
O O5 0.195509 0.797282 0.750000
O O6 0.266070 0.811835 0.033203
O O7 0.159836 0.858520 0.991477
O O8 0.173359 0.655834 0.250000
O O9 0.179640 0.601253 0.528806
O O10 0.930130 0.075148 0.960738
O O11 0.000000 0.065558 0.250000
O O12 0.000000 0.000000 0.000000
O O13 0.280594 0.057637 0.250000
O O14 0.206712 0.056799 0.535275
O O15 0.310959 0.000000 0.500000
O O16 0.859649 0.077708 0.250000
#
# Coordination Sequence:
#
# PCOD9468474 Si02
#       6
#    16  16  16   8  16  16
#     4  10  20  31  48  75 101 124 156 200 242 278
#     4   8  15  29  48  70  95 124 161 200 231 271
#     4   9  18  33  51  70  96 130 162 192 232 287
#     4  10  18  26  40  60  86 124 160 192 233 274
#     4   9  17  30  48  70  93 119 155 196 236 278
#     4   8  15  26  42  65  91 120 157 195 230 273
#
# _framework density 21.172532
#
# number of rings (size 3 to 8) (size 9 to 14) (size 15 to 20)
#    0.000    3.091    0.000    3.273    1.273    1.091 
#    0.000    0.000    0.000    3.818    0.000    0.000 
#    0.000    0.000    0.000    0.000    0.000    0.000 
#
# Total GULP energy -245286.742534 kJ/mol
# GULP energy per Si atom -5574.698694 kJ/mol
# Density = 2.112434 g / cm^3
# Si number density = 21.172532 Si / 1000 Ang^3
#
#
#
# Elastic Constant Matrix: (Units=GPa)
#
#
# Indices 1 2 3 4 5 6 
#
# 1 64.5320 26.7188 2.5800 0.0000 0.0000 0.0000
# 2 26.7188 72.4108 -0.0964 0.0000 0.0000 0.0000
# 3 2.5800 -0.0964 69.1857 0.0000 0.0000 0.0000
# 4 0.0000 0.0000 0.0000 12.6453 0.0000 0.0000
# 5 0.0000 0.0000 0.0000 0.0000 -11.8777 0.0000
# 6 0.0000 0.0000 0.0000 0.0000 0.0000 9.0747
#
#
#
# Elastic Compliance Matrix: (Units=1/GPa)
#
#
# Indices 1 2 3 4 5 6 
#
# 1 0.018324 -0.006762 -0.000693 0.000000 0.000000 0.000000
# 2 -0.006762 0.016306 0.000275 0.000000 0.000000 0.000000
# 3 -0.000693 0.000275 0.014480 0.000000 0.000000 0.000000
# 4 0.000000 0.000000 0.000000 0.079081 0.000000 0.000000
# 5 0.000000 0.000000 0.000000 0.000000 -0.084191 0.000000
# 6 0.000000 0.000000 0.000000 0.000000 0.000000 0.110197
#
#
# Mechanical properties :
#
#
# Convention : Reuss Voigt Hill
#
# Bulk Modulus (GPa) = 28.77751 29.39260 29.08506
# Shear Modulus (GPa) = 27.75634 13.76351 20.75993
#
# Velocity S-wave (km/s) = 3.62465 2.55240 3.13471
# Velocity P-wave (km/s) = 5.58022 4.75383 5.18352
#
# Compressibility (1/GPa) = 0.03474935
#
# Stress axis : x y z
#
# Youngs Moduli (GPa) = 54.57414 61.32850 69.06043
#
# Poissons Ratio (x) = 0.41471 0.04784
# Poissons Ratio (y) = 0.36904 -0.01898
# Poissons Ratio (z) = 0.03781 -0.01686
#
# Static dielectric constant tensor:
#      x y z
#    x 1.751860 0.000000 0.000000 
#    y 0.000000 1.764220 0.000000 
#    z 0.000000 0.000000 1.840720 
# 
# From -- ./inp_files/6776.got.cif
#   From: 2010.05.17/outbox.cif.g08.bks.cpg/sg63_4_cif.got.tgz:6776.got - 2010.06.03 15:47:04.
