data_PCOD9468205
_publ_section_title
;
Structure prediction by ZEFSAII (Michael W. Deem and Ramdas Pophale) SiO2 
 PCOD9468205
Probable space group: C M C M
;
_chemical_formula_sum "Si O2"
_cell_formula_units_Z 88
_cell_length_a 17.428782
_cell_length_b 22.278218
_cell_length_c 13.985164
_cell_angle_alpha 90.000000
_cell_angle_beta 90.000000
_cell_angle_gamma 90.000000
_cell_volume 5430.190313
_symmetry_space_group_name_H-M "C M C M"
_symmetry_group_IT_number 63
_symmetry_cell_setting 'orthorhombic'
loop_
_space_group_symop_operation_xyz
x,y,z
-x,-y,1/2+z
x,-y,-z
-x,y,1/2-z
-x,-y,-z
x,y,1/2-z
-x,y,z
x,-y,1/2+z
1/2+x,1/2+y,z
1/2-x,1/2-y,1/2+z
1/2+x,1/2-y,-z
1/2-x,1/2+y,1/2-z
1/2-x,1/2-y,-z
1/2+x,1/2+y,1/2-z
1/2-x,1/2+y,z
1/2+x,1/2-y,1/2+z
loop_
_atom_site_type_symbol
_atom_site_label
_atom_site_fract_x
_atom_site_fract_y
_atom_site_fract_z
Si Si1 0.185016 0.958906 0.638166
Si Si2 0.834156 0.399781 0.361044
Si Si3 0.591453 0.226924 0.637454
Si Si4 0.909446 0.852145 0.951893
Si Si5 0.316608 0.000000 0.500000
Si Si6 0.648888 0.592403 0.858607
O O1 0.205685 0.958468 0.750000
O O2 0.136126 0.901460 0.609366
O O3 0.260041 0.963967 0.571996
O O4 0.138612 0.021185 0.621714
O O5 0.855437 0.411976 0.250000
O O6 0.866533 0.334818 0.387854
O O7 0.859635 0.452024 0.433614
O O8 0.741175 0.398875 0.364733
O O9 0.606274 0.239084 0.750000
O O10 0.500000 0.218441 0.626429
O O11 0.614932 0.285065 0.577058
O O12 0.000000 0.857058 0.932571
O O13 0.891869 0.868379 0.061601
O O14 0.624801 0.605341 0.750000
#
# Coordination Sequence:
#
# PCOD9468205 Si02
#       6
#    16  16  16  16   8  16
#     4  10  18  30  46  67  98 127 157 197 237 277
#     4   9  17  32  54  72  94 125 157 194 237 285
#     4   9  19  34  50  71  97 125 158 196 238 284
#     4  11  20  31  47  68  96 131 165 197 235 275
#     4  10  16  32  50  74  94 124 150 196 242 286
#     4   9  18  32  47  68  95 127 164 197 234 280
#
# _framework density 16.205693
#
# number of rings (size 3 to 8) (size 9 to 14) (size 15 to 20)
#    0.000    2.364    3.636    2.182    0.000    3.636 
#    0.000    2.273    0.000    1.091    0.000    0.000 
#    0.000    0.000    0.000    0.000    0.000    0.000 
#
# Total GULP energy -245222.966612 kJ/mol
# GULP energy per Si atom -5573.249241 kJ/mol
# Density = 1.616881 g / cm^3
# Si number density = 16.205693 Si / 1000 Ang^3
#
#
#
# Elastic Constant Matrix: (Units=GPa)
#
#
# Indices 1 2 3 4 5 6 
#
# 1 13.2318 36.2725 11.3312 0.0000 0.0000 0.0000
# 2 36.2725 156.2729 72.5835 0.0000 0.0000 0.0000
# 3 11.3312 72.5835 98.5537 0.0000 0.0000 0.0000
# 4 0.0000 0.0000 0.0000 32.0797 0.0000 0.0000
# 5 0.0000 0.0000 0.0000 0.0000 14.0408 0.0000
# 6 0.0000 0.0000 0.0000 0.0000 0.0000 53.2982
#
#
#
# Elastic Compliance Matrix: (Units=1/GPa)
#
#
# Indices 1 2 3 4 5 6 
#
# 1 0.230236 -0.062537 0.019587 0.000000 0.000000 0.000000
# 2 -0.062537 0.026713 -0.012483 0.000000 0.000000 0.000000
# 3 0.019587 -0.012483 0.017089 0.000000 0.000000 0.000000
# 4 0.000000 0.000000 0.000000 0.031172 0.000000 0.000000
# 5 0.000000 0.000000 0.000000 0.000000 0.071221 0.000000
# 6 0.000000 0.000000 0.000000 0.000000 0.000000 0.018762
#
#
# Mechanical properties :
#
#
# Convention : Reuss Voigt Hill
#
# Bulk Modulus (GPa) = 6.12860 56.49252 31.31056
# Shear Modulus (GPa) = 8.92138 29.74183 19.33161
#
# Velocity S-wave (km/s) = 2.34884 4.28865 3.45757
# Velocity P-wave (km/s) = 3.33857 7.71095 5.94158
#
# Compressibility (1/GPa) = 0.16316928
#
# Stress axis : x y z
#
# Youngs Moduli (GPa) = 4.34336 37.43543 58.51867
#
# Poissons Ratio (x) = 2.34111 -1.14618
# Poissons Ratio (y) = 0.27162 0.73051
# Poissons Ratio (z) = -0.08507 0.46732
#
# Static dielectric constant tensor:
#      x y z
#    x 1.526790 0.000000 0.000000 
#    y 0.000000 1.540120 0.000000 
#    z 0.000000 0.000000 1.566610 
# 
# From -- ./inp_files/34128.got.cif
#   From: 2010.05.17/outbox.cif.g08.bks.cpg/sg63_18_cif.got.tgz:34128.got - 2010.06.03 15:47:04.
