data_PCOD9468873
_publ_section_title
;
Structure prediction by ZEFSAII (Michael W. Deem and Ramdas Pophale) SiO2 
 PCOD9468873
Probable space group: C M C M
;
_chemical_formula_sum "Si O2"
_cell_formula_units_Z 96
_cell_length_a 7.276841
_cell_length_b 20.644191
_cell_length_c 29.115096
_cell_angle_alpha 90.000000
_cell_angle_beta 90.000000
_cell_angle_gamma 90.000000
_cell_volume 4373.800607
_symmetry_space_group_name_H-M "C M C M"
_symmetry_group_IT_number 63
_symmetry_cell_setting 'orthorhombic'
loop_
_space_group_symop_operation_xyz
x,y,z
-x,-y,1/2+z
x,-y,-z
-x,y,1/2-z
-x,-y,-z
x,y,1/2-z
-x,y,z
x,-y,1/2+z
1/2+x,1/2+y,z
1/2-x,1/2-y,1/2+z
1/2+x,1/2-y,-z
1/2-x,1/2+y,1/2-z
1/2-x,1/2-y,-z
1/2+x,1/2+y,1/2-z
1/2-x,1/2+y,z
1/2+x,1/2-y,1/2+z
loop_
_atom_site_type_symbol
_atom_site_label
_atom_site_fract_x
_atom_site_fract_y
_atom_site_fract_z
Si Si1 0.224015 0.023592 0.101154
Si Si2 0.223322 0.058553 0.300673
Si Si3 0.223383 0.847491 0.547075
Si Si4 0.777712 0.725565 0.894656
Si Si5 0.223256 0.790309 0.699077
Si Si6 0.288723 0.398464 0.450218
O O1 0.290407 0.965138 0.069206
O O2 0.000000 0.021043 0.101234
O O3 0.283481 0.020378 0.154161
O O4 0.273823 0.093042 0.080179
O O5 0.283408 0.036609 0.250000
O O6 0.275681 0.134205 0.306240
O O7 0.000000 0.057443 0.300476
O O8 0.284505 0.779543 0.568381
O O9 0.289252 0.865801 0.496190
O O10 0.000000 0.844015 0.546428
O O11 0.716395 0.748445 0.844291
O O12 0.716180 0.655290 0.910660
O O13 0.000000 0.725261 0.894617
O O14 0.281048 0.768597 0.750000
O O15 0.000000 0.789755 0.698520
O O16 0.500000 0.413724 0.462230
#
# Coordination Sequence:
#
# PCOD9468873 Si02
#       6
#    16  16  16  16  16  16
#     4   9  15  26  43  64  88 115 148 185 224 263
#     4   8  12  20  38  64  88 107 138 188 231 256
#     4   9  16  28  46  66  85 115 158 191 214 250
#     4  10  18  30  48  67  89 117 150 187 221 259
#     4   8  13  23  42  67  88 107 141 189 228 254
#     4  10  20  30  43  66  97 124 145 177 223 271
#
# _framework density 21.948874
#
# number of rings (size 3 to 8) (size 9 to 14) (size 15 to 20)
#    0.000    3.000    1.667    2.000    0.000    2.000 
#    0.000    0.833    0.000    4.500    0.000    0.000 
#    0.000    0.000    0.000    0.000    0.000    0.000 
#
# Total GULP energy -267993.432752 kJ/mol
# GULP energy per Si atom -5583.196516 kJ/mol
# Density = 2.189892 g / cm^3
# Si number density = 21.948874 Si / 1000 Ang^3
#
#
#
# Elastic Constant Matrix: (Units=GPa)
#
#
# Indices 1 2 3 4 5 6 
#
# 1 93.3554 -10.1347 -6.3895 0.0000 0.0000 0.0000
# 2 -10.1347 34.1432 -27.3563 0.0000 0.0000 0.0000
# 3 -6.3895 -27.3563 85.5411 0.0000 0.0000 0.0000
# 4 0.0000 0.0000 0.0000 8.2041 0.0000 0.0000
# 5 0.0000 0.0000 0.0000 0.0000 -8.9231 0.0000
# 6 0.0000 0.0000 0.0000 0.0000 0.0000 -16.8897
#
#
#
# Elastic Compliance Matrix: (Units=1/GPa)
#
#
# Indices 1 2 3 4 5 6 
#
# 1 0.011489 0.005510 0.002620 0.000000 0.000000 0.000000
# 2 0.005510 0.042021 0.013850 0.000000 0.000000 0.000000
# 3 0.002620 0.013850 0.016315 0.000000 0.000000 0.000000
# 4 0.000000 0.000000 0.000000 0.121890 0.000000 0.000000
# 5 0.000000 0.000000 0.000000 0.000000 -0.112069 0.000000
# 6 0.000000 0.000000 0.000000 0.000000 0.000000 -0.059208
#
#
# Mechanical properties :
#
#
# Convention : Reuss Voigt Hill
#
# Bulk Modulus (GPa) = 8.78851 13.91984 11.35417
# Shear Modulus (GPa) = 347.06131 13.60630 180.33380
#
# Velocity S-wave (km/s) = 12.58832 2.49250 9.07410
# Velocity P-wave (km/s) = 14.67313 3.82611 10.72240
#
# Compressibility (1/GPa) = 0.11378499
#
# Stress axis : x y z
#
# Youngs Moduli (GPa) = 87.03806 23.79776 61.29232
#
# Poissons Ratio (x) = -0.13112 -0.16060
# Poissons Ratio (y) = -0.47956 -0.84889
# Poissons Ratio (z) = -0.22806 -0.32960
#
# Static dielectric constant tensor:
#      x y z
#    x 1.513580 0.000000 0.000000 
#    y 0.000000 1.727630 0.000000 
#    z 0.000000 0.000000 1.811820 
# 
# From -- ./inp_files/68314.got.cif
#   From: 2010.05.17/outbox.cif.g08.bks.cpg/sg63_35_cif.got.tgz:68314.got - 2010.06.03 15:47:04.
