data_PCOD9468169
_publ_section_title
;
Structure prediction by ZEFSAII (Michael W. Deem and Ramdas Pophale) SiO2 
 PCOD9468169
Probable space group: C M C M
;
_chemical_formula_sum "Si O2"
_cell_formula_units_Z 104
_cell_length_a 19.277621
_cell_length_b 14.796815
_cell_length_c 21.876901
_cell_angle_alpha 90.000000
_cell_angle_beta 90.000000
_cell_angle_gamma 90.000000
_cell_volume 6240.328946
_symmetry_space_group_name_H-M "C M C M"
_symmetry_group_IT_number 63
_symmetry_cell_setting 'orthorhombic'
loop_
_space_group_symop_operation_xyz
x,y,z
-x,-y,1/2+z
x,-y,-z
-x,y,1/2-z
-x,-y,-z
x,y,1/2-z
-x,y,z
x,-y,1/2+z
1/2+x,1/2+y,z
1/2-x,1/2-y,1/2+z
1/2+x,1/2-y,-z
1/2-x,1/2+y,1/2-z
1/2-x,1/2-y,-z
1/2+x,1/2+y,1/2-z
1/2-x,1/2+y,z
1/2+x,1/2-y,1/2+z
loop_
_atom_site_type_symbol
_atom_site_label
_atom_site_fract_x
_atom_site_fract_y
_atom_site_fract_z
Si Si1 0.227612 0.213414 0.402242
Si Si2 0.423777 0.694186 0.610243
Si Si3 0.640680 0.796527 0.505092
Si Si4 0.779681 0.529102 0.371244
Si Si5 0.077313 0.387010 0.676931
Si Si6 0.340116 0.000000 0.000000
Si Si7 0.295430 0.362553 0.179547
O O1 0.291074 0.206169 0.451138
O O2 0.163889 0.254840 0.440380
O O3 0.226461 0.112777 0.375572
O O4 0.251189 0.280548 0.348936
O O5 0.500000 0.654301 0.616098
O O6 0.411097 0.731909 0.541942
O O7 0.419563 0.785108 0.651490
O O8 0.362971 0.631970 0.636116
O O9 0.620507 0.903034 0.502786
O O10 0.855607 0.562342 0.349288
O O11 0.792552 0.492440 0.439768
O O12 0.749648 0.452072 0.328604
O O13 0.081514 0.386635 0.750000
O O14 0.000000 0.422764 0.659595
O O15 0.313785 0.346690 0.250000
#
# Coordination Sequence:
#
# PCOD9468169 Si02
#       7
#    16  16  16  16  16   8  16
#     4   9  18  31  49  71 104 134 173 215 259 310
#     4  10  20  34  52  78 107 136 172 218 272 323
#     4   9  16  31  49  72 101 137 171 212 265 311
#     4  11  20  32  51  78 103 138 179 220 257 315
#     4  10  19  32  49  70 105 143 165 199 261 322
#     4  10  16  28  51  74 101 130 168 216 264 300
#     4  11  21  32  52  78 106 141 179 219 266 317
#
# _framework density 16.665787999999999
#
# number of rings (size 3 to 8) (size 9 to 14) (size 15 to 20)
#    0.000    2.000    6.154    0.923    2.154    1.538 
#    0.000    1.538    0.000    1.846    0.000    0.000 
#    0.000    0.000    0.000    0.000    0.000    0.000 
#
# Total GULP energy -289567.642661 kJ/mol
# GULP energy per Si atom -5568.608513 kJ/mol
# Density = 1.662786 g / cm^3
# Si number density = 16.665788 Si / 1000 Ang^3
#
#
#
# Elastic Constant Matrix: (Units=GPa)
#
#
# Indices 1 2 3 4 5 6 
#
# 1 57.7171 8.3127 17.0688 0.0000 0.0000 0.0000
# 2 8.3127 49.6445 9.2976 0.0000 0.0000 0.0000
# 3 17.0688 9.2976 56.7887 0.0000 0.0000 0.0000
# 4 0.0000 0.0000 0.0000 13.9335 0.0000 0.0000
# 5 0.0000 0.0000 0.0000 0.0000 10.7900 0.0000
# 6 0.0000 0.0000 0.0000 0.0000 0.0000 17.7876
#
#
#
# Elastic Compliance Matrix: (Units=1/GPa)
#
#
# Indices 1 2 3 4 5 6 
#
# 1 0.019248 -0.002207 -0.005424 0.000000 0.000000 0.000000
# 2 -0.002207 0.021033 -0.002780 0.000000 0.000000 0.000000
# 3 -0.005424 -0.002780 0.019695 0.000000 0.000000 0.000000
# 4 0.000000 0.000000 0.000000 0.071769 0.000000 0.000000
# 5 0.000000 0.000000 0.000000 0.000000 0.092678 0.000000
# 6 0.000000 0.000000 0.000000 0.000000 0.000000 0.056219
#
#
# Mechanical properties :
#
#
# Convention : Reuss Voigt Hill
#
# Bulk Modulus (GPa) = 25.54065 25.94538 25.74301
# Shear Modulus (GPa) = 15.89744 17.13364 16.51554
#
# Velocity S-wave (km/s) = 3.09187 3.20984 3.15141
# Velocity P-wave (km/s) = 5.30139 5.41657 5.35929
#
# Compressibility (1/GPa) = 0.03915328
#
# Stress axis : x y z
#
# Youngs Moduli (GPa) = 51.95398 47.54328 50.77538
#
# Poissons Ratio (x) = 0.10493 0.27540
# Poissons Ratio (y) = 0.11467 0.14117
# Poissons Ratio (z) = 0.28179 0.13218
#
# Static dielectric constant tensor:
#      x y z
#    x 1.573620 0.000000 0.000000 
#    y 0.000000 1.579540 0.000000 
#    z 0.000000 0.000000 1.583680 
# 
# From -- ./inp_files/56759.got.cif
#   From: 2010.05.17/outbox.cif.g08.bks.cpg/sg63_29_cif.got.tgz:56759.got - 2010.06.03 15:47:04.
