data_PCOD9468266
_publ_section_title
;
Structure prediction by ZEFSAII (Michael W. Deem and Ramdas Pophale) SiO2 
 PCOD9468266
Probable space group: C M C M
;
_chemical_formula_sum "Si O2"
_cell_formula_units_Z 128
_cell_length_a 19.390969
_cell_length_b 22.368432
_cell_length_c 14.621971
_cell_angle_alpha 90.000000
_cell_angle_beta 90.000000
_cell_angle_gamma 90.000000
_cell_volume 6342.215168
_symmetry_space_group_name_H-M "C M C M"
_symmetry_group_IT_number 63
_symmetry_cell_setting 'orthorhombic'
loop_
_space_group_symop_operation_xyz
x,y,z
-x,-y,1/2+z
x,-y,-z
-x,y,1/2-z
-x,-y,-z
x,y,1/2-z
-x,y,z
x,-y,1/2+z
1/2+x,1/2+y,z
1/2-x,1/2-y,1/2+z
1/2+x,1/2-y,-z
1/2-x,1/2+y,1/2-z
1/2-x,1/2-y,-z
1/2+x,1/2+y,1/2-z
1/2-x,1/2+y,z
1/2+x,1/2-y,1/2+z
loop_
_atom_site_type_symbol
_atom_site_label
_atom_site_fract_x
_atom_site_fract_y
_atom_site_fract_z
Si Si1 0.575972 0.631256 0.607935
Si Si2 0.718666 0.680308 0.603725
Si Si3 0.078290 0.689119 0.856729
Si Si4 0.273566 0.047641 0.859391
Si Si5 0.684053 0.721932 0.403281
Si Si6 0.422029 0.626690 0.115974
Si Si7 0.623829 0.502531 0.605974
Si Si8 0.424367 0.953655 0.140276
O O1 0.500000 0.651092 0.634970
O O2 0.640952 0.670387 0.637425
O O3 0.578512 0.629648 0.496082
O O4 0.590724 0.563729 0.641628
O O5 0.758336 0.617646 0.618782
O O6 0.713887 0.692241 0.494765
O O7 0.756329 0.738671 0.642760
O O8 0.099015 0.698347 0.750000
O O9 0.127855 0.725831 0.922486
O O10 0.078128 0.618229 0.872038
O O11 0.000000 0.710434 0.866881
O O12 0.275331 0.043902 0.750000
O O13 0.348802 0.026149 0.893804
O O14 0.206499 0.010615 0.889856
O O15 0.637689 0.672198 0.354354
O O16 0.500000 0.641359 0.144289
O O17 0.402378 0.559713 0.144911
O O18 0.603276 0.500000 0.500000
O O19 0.425404 0.964221 0.250000
O O20 0.500000 0.974615 0.105615
#
# Coordination Sequence:
#
# PCOD9468266 Si02
#       8
#    16  16  16  16  16  16  16  16
#     4   8  14  26  44  63  83 112 158 209 242 267
#     4   9  18  27  41  67  94 124 162 202 237 286
#     4   9  16  26  42  65  93 124 155 191 239 291
#     4  10  18  31  51  71  93 124 163 205 250 292
#     4  10  17  27  41  64  99 132 158 190 237 293
#     4   9  16  26  42  63  88 122 160 192 228 282
#     4   9  17  29  46  68  89 119 160 203 248 289
#     4   8  14  25  43  68  94 117 146 189 241 294
#
# _framework density 20.182221999999999
#
# number of rings (size 3 to 8) (size 9 to 14) (size 15 to 20)
#    0.000    3.000    1.250    2.250    0.000    2.000 
#    0.000    0.625    0.000   10.500    0.000    0.875 
#    0.000    0.000    0.000    0.125    0.000    0.000 
#
# Total GULP energy -356468.721537 kJ/mol
# GULP energy per Si atom -5569.823774 kJ/mol
# Density = 2.013629 g / cm^3
# Si number density = 20.182222 Si / 1000 Ang^3
#
#
#
# Elastic Constant Matrix: (Units=GPa)
#
#
# Indices 1 2 3 4 5 6 
#
# 1 146.3393 45.4289 -5.0754 0.0000 0.0000 0.0000
# 2 45.4289 74.3797 4.2556 0.0000 0.0000 0.0000
# 3 -5.0754 4.2556 58.7894 0.0000 0.0000 0.0000
# 4 0.0000 0.0000 0.0000 -2.8610 0.0000 0.0000
# 5 0.0000 0.0000 0.0000 0.0000 6.8611 0.0000
# 6 0.0000 0.0000 0.0000 0.0000 0.0000 28.9889
#
#
#
# Elastic Compliance Matrix: (Units=1/GPa)
#
#
# Indices 1 2 3 4 5 6 
#
# 1 0.008504 -0.005258 0.001115 0.000000 0.000000 0.000000
# 2 -0.005258 0.016751 -0.001667 0.000000 0.000000 0.000000
# 3 0.001115 -0.001667 0.017227 0.000000 0.000000 0.000000
# 4 0.000000 0.000000 0.000000 -0.349527 0.000000 0.000000
# 5 0.000000 0.000000 0.000000 0.000000 0.145750 0.000000
# 6 0.000000 0.000000 0.000000 0.000000 0.000000 0.034496
#
#
# Mechanical properties :
#
#
# Convention : Reuss Voigt Hill
#
# Bulk Modulus (GPa) = 32.40125 40.96962 36.68543
# Shear Modulus (GPa) = -47.66789 22.25775 -12.70507
#
# Velocity S-wave (km/s) = -4.86519 3.32450 -2.51174
# Velocity P-wave (km/s) = 3.93330 5.92287 3.13126
#
# Compressibility (1/GPa) = 0.03086301
#
# Stress axis : x y z
#
# Youngs Moduli (GPa) = 117.58667 59.69687 58.04928
#
# Poissons Ratio (x) = 0.31389 -0.06471
# Poissons Ratio (y) = 0.61827 0.09674
# Poissons Ratio (z) = -0.13109 0.09949
#
# Static dielectric constant tensor:
#      x y z
#    x 1.787250 0.000000 0.000000 
#    y 0.000000 1.710490 0.000000 
#    z 0.000000 0.000000 1.710810 
# 
# From -- ./inp_files/56100.got.cif
#   From: 2010.05.17/outbox.cif.g08.bks.cpg/sg63_29_cif.got.tgz:56100.got - 2010.06.03 15:47:04.
