data_PCOD9468076
_publ_section_title
;
Structure prediction by ZEFSAII (Michael W. Deem and Ramdas Pophale) SiO2 
 PCOD9468076
Probable space group: P N M A
;
_chemical_formula_sum "Si O2"
_cell_formula_units_Z 40
_cell_length_a 24.000000
_cell_length_b 9.000000
_cell_length_c 9.000000
_cell_angle_alpha 90.000000
_cell_angle_beta 90.000000
_cell_angle_gamma 90.000000
_cell_volume 1944.000000
_symmetry_space_group_name_H-M "P N M A"
_symmetry_group_IT_number 62
_symmetry_cell_setting 'orthorhombic'
loop_
_space_group_symop_operation_xyz
x,y,z
1/2-x,-y,1/2+z
1/2+x,1/2-y,1/2-z
-x,1/2+y,-z
-x,-y,-z
1/2+x,y,1/2-z
1/2-x,1/2+y,1/2+z
x,1/2-y,z
loop_
_atom_site_type_symbol
_atom_site_label
_atom_site_fract_x
_atom_site_fract_y
_atom_site_fract_z
Si Si1 0.311193 0.928934 0.047980
Si Si2 0.502434 0.429131 0.664858
Si Si3 0.191308 0.430439 0.047125
Si Si4 0.878725 0.427807 0.698111
Si Si5 0.118401 0.929396 0.799894
O O1 0.306252 0.750000 0.071456
O O2 0.251235 0.999061 0.001731
O O3 0.332676 0.024847 0.187110
O O4 0.362169 0.966816 0.937781
O O5 0.500000 0.500000 0.500000
O O6 0.510787 0.250000 0.658096
O O7 0.441747 0.453297 0.741769
O O8 0.556508 0.508921 0.738775
O O9 0.195087 0.250000 0.063080
O O10 0.170344 0.520172 0.190961
O O11 0.140399 0.476396 0.939766
O O12 0.873896 0.250000 0.666610
O O13 0.116456 0.750000 0.823546
#
# Coordination Sequence:
#
# PCOD9468076 Si02
#       5
#     8   8   8   8   8
#     4  12  26  44  65  94 132 171 215 266 325 384
#     4  11  23  41  68  97 129 167 214 266 321 383
#     4  12  24  42  68  96 130 171 217 264 319 384
#     4  11  24  43  67  97 131 169 214 264 320 382
#     4  12  25  43  67  96 131 171 217 267 320 381
#
# _framework density 20.576132000000001
#
# number of rings (size 3 to 8) (size 9 to 14) (size 15 to 20)
#    0.000    0.400    2.000    7.800    0.000    3.200 
#    0.000    0.000    0.000    0.000    0.000    0.000 
#    0.000    0.000    0.000    0.000    0.000    0.000 
#
# Total GULP energy -223146.111527 kJ/mol
# GULP energy per Si atom -5578.652788 kJ/mol
# Density = 2.052930 g / cm^3
# Si number density = 20.576132 Si / 1000 Ang^3
#
#
#
# Elastic Constant Matrix: (Units=GPa)
#
#
# Indices 1 2 3 4 5 6 
#
# 1 141.4412 64.6123 -1.6783 0.0000 0.0000 0.0000
# 2 64.6123 141.5322 -30.5223 0.0000 0.0000 0.0000
# 3 -1.6783 -30.5223 3.4063 0.0000 0.0000 0.0000
# 4 0.0000 0.0000 0.0000 30.9896 0.0000 0.0000
# 5 0.0000 0.0000 0.0000 0.0000 21.5353 0.0000
# 6 0.0000 0.0000 0.0000 0.0000 0.0000 48.3864
#
#
#
# Elastic Compliance Matrix: (Units=1/GPa)
#
#
# Indices 1 2 3 4 5 6 
#
# 1 0.006280 0.002359 0.024233 0.000000 0.000000 0.000000
# 2 0.002359 -0.006692 -0.058798 0.000000 0.000000 0.000000
# 3 0.024233 -0.058798 -0.221348 0.000000 0.000000 0.000000
# 4 0.000000 0.000000 0.000000 0.032269 0.000000 0.000000
# 5 0.000000 0.000000 0.000000 0.000000 0.046435 0.000000
# 6 0.000000 0.000000 0.000000 0.000000 0.000000 0.020667
#
#
# Mechanical properties :
#
#
# Convention : Reuss Voigt Hill
#
# Bulk Modulus (GPa) = -3.49442 39.02256 17.76407
# Shear Modulus (GPa) = -32.60146 37.11344 2.25599
#
# Velocity S-wave (km/s) = -3.98481 4.25162 1.04823
# Velocity P-wave (km/s) = 4.78263 6.56566 3.18074
#
# Compressibility (1/GPa) = -0.28617087
#
# Stress axis : x y z
#
# Youngs Moduli (GPa) = 159.23748 -149.43983 -4.51777
#
# Poissons Ratio (x) = 0.35255 0.10948
# Poissons Ratio (y) = -0.37567 -0.26564
# Poissons Ratio (z) = -3.85885 -8.78678
#
# Static dielectric constant tensor:
#      x y z
#    x 1.709080 0.000000 0.000000 
#    y 0.000000 1.663610 0.000000 
#    z 0.000000 0.000000 2.301100 
# 
# From -- ./inp_files/9105.got.cif
#   From: 2010.05.17/outbox.ucp.g08.bks.cvg/sg62_5_cif.got.tgz:9105.got - 2010.06.11 16:29:25.
