data_PCOD9468719
_publ_section_title
;
Structure prediction by ZEFSAII (Michael W. Deem and Ramdas Pophale) SiO2 
 PCOD9468719
Probable space group: C M C M
;
_chemical_formula_sum "Si O2"
_cell_formula_units_Z 80
_cell_length_a 13.549228
_cell_length_b 20.159762
_cell_length_c 18.806222
_cell_angle_alpha 90.000000
_cell_angle_beta 90.000000
_cell_angle_gamma 90.000000
_cell_volume 5136.904716
_symmetry_space_group_name_H-M "C M C M"
_symmetry_group_IT_number 63
_symmetry_cell_setting 'orthorhombic'
loop_
_space_group_symop_operation_xyz
x,y,z
-x,-y,1/2+z
x,-y,-z
-x,y,1/2-z
-x,-y,-z
x,y,1/2-z
-x,y,z
x,-y,1/2+z
1/2+x,1/2+y,z
1/2-x,1/2-y,1/2+z
1/2+x,1/2-y,-z
1/2-x,1/2+y,1/2-z
1/2-x,1/2-y,-z
1/2+x,1/2+y,1/2-z
1/2-x,1/2+y,z
1/2+x,1/2-y,1/2+z
loop_
_atom_site_type_symbol
_atom_site_label
_atom_site_fract_x
_atom_site_fract_y
_atom_site_fract_z
Si Si1 0.881186 0.430483 0.098386
Si Si2 0.380737 0.927786 0.666193
Si Si3 0.305059 0.855404 0.533006
Si Si4 0.615159 0.720432 0.030331
Si Si5 0.380549 0.205247 0.671938
O O1 0.854604 0.499113 0.135907
O O2 0.849483 0.367848 0.146631
O O3 0.000000 0.429277 0.093284
O O4 0.841687 0.413313 0.020011
O O5 0.357265 0.922003 0.750000
O O6 0.500000 0.919975 0.658920
O O7 0.326683 0.877125 0.613294
O O8 0.364015 0.787308 0.514882
O O9 0.192324 0.837224 0.513865
O O10 0.500000 0.703339 0.025928
O O11 0.642968 0.743087 0.110438
O O12 0.342635 0.221425 0.750000
O O13 0.500000 0.203464 0.674552
#
# Coordination Sequence:
#
# PCOD9468719 Si02
#       5
#    16  16  16  16  16
#     4   9  16  27  44  65  88 113 142 176 216 262
#     4  10  19  29  44  68  94 115 137 173 222 269
#     4  10  18  29  46  65  88 117 146 179 217 259
#     4   9  18  30  44  64  88 116 150 182 213 253
#     4   8  13  23  40  61  85 111 138 171 211 253
#
# _framework density 15.573581000000001
#
# number of rings (size 3 to 8) (size 9 to 14) (size 15 to 20)
#    0.000    2.800    0.000    4.200    0.000    4.800 
#    0.000    0.000    0.000    2.400    0.000    0.000 
#    0.000    0.000    0.000    0.000    0.000    0.000 
#
# Total GULP energy -222686.050487 kJ/mol
# GULP energy per Si atom -5567.151262 kJ/mol
# Density = 1.553814 g / cm^3
# Si number density = 15.573581 Si / 1000 Ang^3
#
#
#
# Elastic Constant Matrix: (Units=GPa)
#
#
# Indices 1 2 3 4 5 6 
#
# 1 50.3452 17.6361 18.3276 0.0000 0.0000 0.0000
# 2 17.6361 37.6750 30.3942 0.0000 0.0000 0.0000
# 3 18.3276 30.3942 99.7680 0.0000 0.0000 0.0000
# 4 0.0000 0.0000 0.0000 9.6700 0.0000 0.0000
# 5 0.0000 0.0000 0.0000 0.0000 9.4890 0.0000
# 6 0.0000 0.0000 0.0000 0.0000 0.0000 15.2601
#
#
#
# Elastic Compliance Matrix: (Units=1/GPa)
#
#
# Indices 1 2 3 4 5 6 
#
# 1 0.023886 -0.010131 -0.001301 0.000000 0.000000 0.000000
# 2 -0.010131 0.039489 -0.010169 0.000000 0.000000 0.000000
# 3 -0.001301 -0.010169 0.013360 0.000000 0.000000 0.000000
# 4 0.000000 0.000000 0.000000 0.103412 0.000000 0.000000
# 5 0.000000 0.000000 0.000000 0.000000 0.105385 0.000000
# 6 0.000000 0.000000 0.000000 0.000000 0.000000 0.065530
#
#
# Mechanical properties :
#
#
# Convention : Reuss Voigt Hill
#
# Bulk Modulus (GPa) = 29.82258 35.61154 32.71706
# Shear Modulus (GPa) = 12.33216 14.97919 13.65567
#
# Velocity S-wave (km/s) = 2.81706 3.10471 2.96438
# Velocity P-wave (km/s) = 5.45639 5.98068 5.72454
#
# Compressibility (1/GPa) = 0.03353164
#
# Stress axis : x y z
#
# Youngs Moduli (GPa) = 41.86616 25.32325 74.84820
#
# Poissons Ratio (x) = 0.25656 0.09740
# Poissons Ratio (y) = 0.42416 0.76115
# Poissons Ratio (z) = 0.05448 0.25752
#
# Static dielectric constant tensor:
#      x y z
#    x 1.507070 0.000000 0.000000 
#    y 0.000000 1.518510 0.000000 
#    z 0.000000 0.000000 1.556430 
# 
# From -- ./inp_files/43933.got.cif
#   From: 2010.05.17/outbox.cif.g08.bks.cpg/sg63_22_cif.got.tgz:43933.got - 2010.06.03 15:47:04.
