data_PCOD9468909
_publ_section_title
;
Structure prediction by ZEFSAII (Michael W. Deem and Ramdas Pophale) SiO2 
 PCOD9468909
Probable space group: C M C M
;
_chemical_formula_sum "Si O2"
_cell_formula_units_Z 80
_cell_length_a 7.626778
_cell_length_b 27.477498
_cell_length_c 19.406773
_cell_angle_alpha 90.000000
_cell_angle_beta 90.000000
_cell_angle_gamma 90.000000
_cell_volume 4066.976061
_symmetry_space_group_name_H-M "C M C M"
_symmetry_group_IT_number 63
_symmetry_cell_setting 'orthorhombic'
loop_
_space_group_symop_operation_xyz
x,y,z
-x,-y,1/2+z
x,-y,-z
-x,y,1/2-z
-x,-y,-z
x,y,1/2-z
-x,y,z
x,-y,1/2+z
1/2+x,1/2+y,z
1/2-x,1/2-y,1/2+z
1/2+x,1/2-y,-z
1/2-x,1/2+y,1/2-z
1/2-x,1/2-y,-z
1/2+x,1/2+y,1/2-z
1/2-x,1/2+y,z
1/2+x,1/2-y,1/2+z
loop_
_atom_site_type_symbol
_atom_site_label
_atom_site_fract_x
_atom_site_fract_y
_atom_site_fract_z
Si Si1 0.213988 0.974995 0.394529
Si Si2 0.296559 0.780594 0.394131
Si Si3 0.288612 0.426062 0.535165
Si Si4 0.712986 0.430795 0.250000
Si Si5 0.292843 0.182758 0.750000
Si Si6 0.293717 0.183780 0.459558
O O1 0.269057 0.939695 0.457310
O O2 0.272776 0.957009 0.320072
O O3 0.000000 0.974737 0.394185
O O4 0.268888 0.029434 0.416080
O O5 0.500000 0.796089 0.392462
O O6 0.217263 0.796301 0.321392
O O7 0.220759 0.805210 0.463440
O O8 0.287577 0.722919 0.407769
O O9 0.500000 0.426446 0.534933
O O10 0.230994 0.372604 0.556541
O O11 0.500000 0.431178 0.250000
O O12 0.772151 0.375103 0.250000
O O13 0.500000 0.195542 0.750000
O O14 0.500000 0.194907 0.460310
#
# Coordination Sequence:
#
# PCOD9468909 Si02
#       6
#    16  16  16   8   8  16
#     4   8  16  29  47  70  93 121 158 193 225 275
#     4   9  19  34  50  69  95 126 158 192 233 285
#     4   9  16  30  49  67  92 126 159 190 229 275
#     4  10  18  30  49  72  95 119 152 193 235 276
#     4  10  20  34  51  72  97 123 154 193 239 286
#     4  10  19  31  49  73  97 122 157 198 237 277
#
# _framework density 19.670635000000001
#
# number of rings (size 3 to 8) (size 9 to 14) (size 15 to 20)
#    0.000    2.800    0.000    3.000    0.000    1.600 
#    0.000    4.000    0.000    3.600    0.000    0.000 
#    0.000    0.000    0.000    0.000    0.000    0.000 
#
# Total GULP energy -223125.964226 kJ/mol
# GULP energy per Si atom -5578.149106 kJ/mol
# Density = 1.962586 g / cm^3
# Si number density = 19.670635 Si / 1000 Ang^3
#
#
#
# Elastic Constant Matrix: (Units=GPa)
#
#
# Indices 1 2 3 4 5 6 
#
# 1 38.0385 -19.0381 0.2028 0.0000 0.0000 0.0000
# 2 -19.0381 113.4027 61.8053 0.0000 0.0000 0.0000
# 3 0.2028 61.8053 152.1292 0.0000 0.0000 0.0000
# 4 0.0000 0.0000 0.0000 19.1877 0.0000 0.0000
# 5 0.0000 0.0000 0.0000 0.0000 -0.4043 0.0000
# 6 0.0000 0.0000 0.0000 0.0000 0.0000 22.5931
#
#
#
# Elastic Compliance Matrix: (Units=1/GPa)
#
#
# Indices 1 2 3 4 5 6 
#
# 1 0.029501 0.006389 -0.002635 0.000000 0.000000 0.000000
# 2 0.006389 0.012709 -0.005172 0.000000 0.000000 0.000000
# 3 -0.002635 -0.005172 0.008678 0.000000 0.000000 0.000000
# 4 0.000000 0.000000 0.000000 0.052117 0.000000 0.000000
# 5 0.000000 0.000000 0.000000 0.000000 -2.473415 0.000000
# 6 0.000000 0.000000 0.000000 0.000000 0.000000 0.044261
#
#
# Mechanical properties :
#
#
# Convention : Reuss Voigt Hill
#
# Bulk Modulus (GPa) = 20.81089 43.27893 32.04491
# Shear Modulus (GPa) = -2.16704 25.64866 11.74081
#
# Velocity S-wave (km/s) = -1.05074 3.61488 2.44574
# Velocity P-wave (km/s) = 3.02168 6.28273 4.92967
#
# Compressibility (1/GPa) = 0.04805176
#
# Stress axis : x y z
#
# Youngs Moduli (GPa) = 33.89756 78.68197 115.23303
#
# Poissons Ratio (x) = -0.50266 0.30361
# Poissons Ratio (y) = -0.21656 0.59598
# Poissons Ratio (z) = 0.08931 0.40694
#
# Static dielectric constant tensor:
#      x y z
#    x 1.746900 0.000000 0.000000 
#    y 0.000000 1.658210 0.000000 
#    z 0.000000 0.000000 1.704400 
# 
# From -- ./inp_files/40583.got.cif
#   From: 2010.05.17/outbox.cif.g08.bks.cpg/sg63_21_cif.got.tgz:40583.got - 2010.06.03 15:47:04.
