data_PCOD9468458
_publ_section_title
;
Structure prediction by ZEFSAII (Michael W. Deem and Ramdas Pophale) SiO2 
 PCOD9468458
Probable space group: C M C M
;
_chemical_formula_sum "Si O2"
_cell_formula_units_Z 104
_cell_length_a 16.634541
_cell_length_b 11.600804
_cell_length_c 25.766045
_cell_angle_alpha 90.000000
_cell_angle_beta 90.000000
_cell_angle_gamma 90.000000
_cell_volume 4972.178050
_symmetry_space_group_name_H-M "C M C M"
_symmetry_group_IT_number 63
_symmetry_cell_setting 'orthorhombic'
loop_
_space_group_symop_operation_xyz
x,y,z
-x,-y,1/2+z
x,-y,-z
-x,y,1/2-z
-x,-y,-z
x,y,1/2-z
-x,y,z
x,-y,1/2+z
1/2+x,1/2+y,z
1/2-x,1/2-y,1/2+z
1/2+x,1/2-y,-z
1/2-x,1/2+y,1/2-z
1/2-x,1/2-y,-z
1/2+x,1/2+y,1/2-z
1/2-x,1/2+y,z
1/2+x,1/2-y,1/2+z
loop_
_atom_site_type_symbol
_atom_site_label
_atom_site_fract_x
_atom_site_fract_y
_atom_site_fract_z
Si Si1 0.091985 0.603770 0.137465
Si Si2 0.760860 0.245044 0.606588
Si Si3 0.642666 0.599154 0.542263
Si Si4 0.285809 0.938961 0.309286
Si Si5 0.500000 0.292601 0.627041
Si Si6 0.647870 0.435505 0.633533
Si Si7 0.000000 0.555687 0.574179
Si Si8 0.500000 0.733451 0.008036
O O1 0.152475 0.707379 0.125511
O O2 0.138784 0.520892 0.177298
O O3 0.076074 0.525094 0.086121
O O4 0.000000 0.635359 0.152926
O O5 0.776111 0.165943 0.557002
O O6 0.720381 0.167408 0.651072
O O7 0.705506 0.355190 0.598166
O O8 0.650710 0.500000 0.500000
O O9 0.617472 0.537367 0.596327
O O10 0.577169 0.689596 0.522348
O O11 0.287297 0.902004 0.250000
O O12 0.205567 0.013106 0.322537
O O13 0.577270 0.352113 0.651521
O O14 0.500000 0.154406 0.620352
O O15 0.500000 0.325397 0.565272
O O16 0.000000 0.631526 0.522627
#
# Coordination Sequence:
#
# PCOD9468458 Si02
#       8
#    16  16  16  16   8  16   8   8
#     4   9  20  41  65  91 123 166 203 257 317 377
#     4  10  23  38  61  91 130 163 207 259 327 368
#     4  11  20  36  57  88 122 164 209 248 304 370
#     4  10  22  41  64  91 124 160 205 260 323 386
#     4  10  17  36  64  81 119 158 212 244 301 367
#     4  10  21  38  60  90 120 166 201 263 314 370
#     4   8  18  35  60  87 119 154 206 248 304 360
#     4  10  20  34  63  89 115 166 212 252 302 361
#
# _framework density 20.916388000000001
#
# number of rings (size 3 to 8) (size 9 to 14) (size 15 to 20)
#    0.923    1.231    1.538    1.615    1.077    3.385 
#    1.385    1.923    0.000    0.000    0.000    0.000 
#    0.000    0.000    0.000    0.000    0.000    0.000 
#
# Total GULP energy -289926.254214 kJ/mol
# GULP energy per Si atom -5575.504889 kJ/mol
# Density = 2.086878 g / cm^3
# Si number density = 20.916388 Si / 1000 Ang^3
#
#
#
# Elastic Constant Matrix: (Units=GPa)
#
#
# Indices 1 2 3 4 5 6 
#
# 1 76.9685 6.7551 1.9531 0.0000 0.0000 0.0000
# 2 6.7551 63.2883 -1.6667 0.0000 0.0000 0.0000
# 3 1.9531 -1.6667 52.6417 0.0000 0.0000 0.0000
# 4 0.0000 0.0000 0.0000 14.2849 0.0000 0.0000
# 5 0.0000 0.0000 0.0000 0.0000 14.0802 0.0000
# 6 0.0000 0.0000 0.0000 0.0000 0.0000 36.8789
#
#
#
# Elastic Compliance Matrix: (Units=1/GPa)
#
#
# Indices 1 2 3 4 5 6 
#
# 1 0.013130 -0.001415 -0.000532 0.000000 0.000000 0.000000
# 2 -0.001415 0.015966 0.000558 0.000000 0.000000 0.000000
# 3 -0.000532 0.000558 0.019034 0.000000 0.000000 0.000000
# 4 0.000000 0.000000 0.000000 0.070004 0.000000 0.000000
# 5 0.000000 0.000000 0.000000 0.000000 0.071022 0.000000
# 6 0.000000 0.000000 0.000000 0.000000 0.000000 0.027116
#
#
# Mechanical properties :
#
#
# Convention : Reuss Voigt Hill
#
# Bulk Modulus (GPa) = 22.04998 22.99795 22.52396
# Shear Modulus (GPa) = 21.35220 25.43926 23.39573
#
# Velocity S-wave (km/s) = 3.19852 3.49124 3.34808
# Velocity P-wave (km/s) = 4.91991 5.22214 5.07328
#
# Compressibility (1/GPa) = 0.04535152
#
# Stress axis : x y z
#
# Youngs Moduli (GPa) = 76.16112 62.63123 52.53826
#
# Poissons Ratio (x) = 0.08865 0.02795
# Poissons Ratio (y) = 0.10780 -0.02932
# Poissons Ratio (z) = 0.04051 -0.03495
#
# Static dielectric constant tensor:
#      x y z
#    x 1.769880 0.000000 0.000000 
#    y 0.000000 1.804640 0.000000 
#    z 0.000000 0.000000 1.727450 
# 
# From -- ./inp_files/69995.got.cif
#   From: 2010.05.17/outbox.cif.g08.bks.cpg/sg63_35_cif.got.tgz:69995.got - 2010.06.03 15:47:04.
