data_PCOD9468033
_publ_section_title
;
Structure prediction by ZEFSAII (Michael W. Deem and Ramdas Pophale) SiO2 
 PCOD9468033
Probable space group: P N M A
;
_chemical_formula_sum "Si O2"
_cell_formula_units_Z 56
_cell_length_a 15.000000
_cell_length_b 15.000000
_cell_length_c 12.000000
_cell_angle_alpha 90.000000
_cell_angle_beta 90.000000
_cell_angle_gamma 90.000000
_cell_volume 2700.000000
_symmetry_space_group_name_H-M "P N M A"
_symmetry_group_IT_number 62
_symmetry_cell_setting 'orthorhombic'
loop_
_space_group_symop_operation_xyz
x,y,z
1/2-x,-y,1/2+z
1/2+x,1/2-y,1/2-z
-x,1/2+y,-z
-x,-y,-z
1/2+x,y,1/2-z
1/2-x,1/2+y,1/2+z
x,1/2-y,z
loop_
_atom_site_type_symbol
_atom_site_label
_atom_site_fract_x
_atom_site_fract_y
_atom_site_fract_z
Si Si1 0.603596 0.572309 0.271367
Si Si2 0.768741 0.478017 0.347089
Si Si3 0.899069 0.151965 0.010120
Si Si4 0.476874 0.854885 0.898990
Si Si5 0.349262 0.142617 0.968141
Si Si6 0.301951 0.852184 0.013791
Si Si7 0.942342 0.454508 0.207418
O O1 0.667926 0.489720 0.305590
O O2 0.601166 0.636834 0.378051
O O3 0.501943 0.539315 0.259455
O O4 0.645869 0.615238 0.160988
O O5 0.780807 0.410843 0.451902
O O6 0.794859 0.577151 0.388107
O O7 0.841921 0.456662 0.253712
O O8 0.935193 0.250000 0.036954
O O9 0.794563 0.149861 0.042781
O O10 0.943751 0.072835 0.078902
O O11 0.473409 0.750000 0.910772
O O12 0.554450 0.886431 0.981923
O O13 0.508559 0.877915 0.776894
O O14 0.379981 0.887406 0.934144
O O15 0.338555 0.250000 0.978934
O O16 0.320063 0.750000 0.050276
#
# Coordination Sequence:
#
# PCOD9468033 Si02
#       7
#     8   8   8   8   8   8   8
#     4  11  23  38  64  84 121 161 207 244 312 364
#     4  10  23  38  62  89 125 154 205 255 308 356
#     4  10  22  39  57  82 121 163 202 243 298 371
#     4   9  18  34  59  89 115 147 197 254 308 350
#     4  10  21  40  64  91 122 157 206 265 309 356
#     4   9  18  35  59  85 116 155 203 249 296 354
#     4  11  22  36  59  88 121 157 195 249 303 370
#
# _framework density 20.740741
#
# number of rings (size 3 to 8) (size 9 to 14) (size 15 to 20)
#    0.000    2.000    0.000    3.000    6.000    3.429 
#    0.000    2.143    0.000    0.000    0.000    0.000 
#    0.000    0.000    0.000    0.000    0.000    0.000 
#
# Total GULP energy -312108.638980 kJ/mol
# GULP energy per Si atom -5573.368553 kJ/mol
# Density = 2.069353 g / cm^3
# Si number density = 20.740741 Si / 1000 Ang^3
#
#
#
# Elastic Constant Matrix: (Units=GPa)
#
#
# Indices 1 2 3 4 5 6 
#
# 1 28.8961 -7.9956 15.3809 0.0000 0.0000 0.0000
# 2 -7.9956 30.1157 54.7866 0.0000 0.0000 0.0000
# 3 15.3809 54.7866 100.2643 0.0000 0.0000 0.0000
# 4 0.0000 0.0000 0.0000 1.1058 0.0000 0.0000
# 5 0.0000 0.0000 0.0000 0.0000 8.9667 0.0000
# 6 0.0000 0.0000 0.0000 0.0000 0.0000 20.8445
#
#
#
# Elastic Compliance Matrix: (Units=1/GPa)
#
#
# Indices 1 2 3 4 5 6 
#
# 1 -0.000678 -0.062073 0.034022 0.000000 0.000000 0.000000
# 2 -0.062073 -0.100439 0.064404 0.000000 0.000000 0.000000
# 3 0.034022 0.064404 -0.030437 0.000000 0.000000 0.000000
# 4 0.000000 0.000000 0.000000 0.904331 0.000000 0.000000
# 5 0.000000 0.000000 0.000000 0.000000 0.111524 0.000000
# 6 0.000000 0.000000 0.000000 0.000000 0.000000 0.047974
#
#
# Mechanical properties :
#
#
# Convention : Reuss Voigt Hill
#
# Bulk Modulus (GPa) = -16.99309 31.51332 7.26011
# Shear Modulus (GPa) = 5.95272 12.65701 9.30486
#
# Velocity S-wave (km/s) = 1.69596 2.47300 2.12038
# Velocity P-wave (km/s) = 2.09185 4.83541 3.08264
#
# Compressibility (1/GPa) = -0.05884744
#
# Stress axis : x y z
#
# Youngs Moduli (GPa) = -1474.87832 -9.95631 -32.85447
#
# Poissons Ratio (x) = -0.61801 1.11777
# Poissons Ratio (y) = -91.54961 2.11596
# Poissons Ratio (z) = 50.17810 0.64123
#
# Static dielectric constant tensor:
#      x y z
#    x 1.789430 0.000000 0.000000 
#    y 0.000000 1.786260 0.000000 
#    z 0.000000 0.000000 1.756890 
# 
# From -- ./inp_files/13400.got.cif
#   From: 2010.05.17/outbox.ucp.g08.bks.cvg/sg62_7_cif.got.tgz:13400.got - 2010.06.11 16:29:25.
