data_PCOD9468429
_publ_section_title
;
Structure prediction by ZEFSAII (Michael W. Deem and Ramdas Pophale) SiO2 
 PCOD9468429
Probable space group: C M C M
;
_chemical_formula_sum "Si O2"
_cell_formula_units_Z 80
_cell_length_a 17.610664
_cell_length_b 14.884779
_cell_length_c 15.565314
_cell_angle_alpha 90.000000
_cell_angle_beta 90.000000
_cell_angle_gamma 90.000000
_cell_volume 4080.148860
_symmetry_space_group_name_H-M "C M C M"
_symmetry_group_IT_number 63
_symmetry_cell_setting 'orthorhombic'
loop_
_space_group_symop_operation_xyz
x,y,z
-x,-y,1/2+z
x,-y,-z
-x,y,1/2-z
-x,-y,-z
x,y,1/2-z
-x,y,z
x,-y,1/2+z
1/2+x,1/2+y,z
1/2-x,1/2-y,1/2+z
1/2+x,1/2-y,-z
1/2-x,1/2+y,1/2-z
1/2-x,1/2-y,-z
1/2+x,1/2+y,1/2-z
1/2-x,1/2+y,z
1/2+x,1/2-y,1/2+z
loop_
_atom_site_type_symbol
_atom_site_label
_atom_site_fract_x
_atom_site_fract_y
_atom_site_fract_z
Si Si1 0.332590 0.093737 0.084877
Si Si2 0.340206 0.599844 0.013611
Si Si3 0.131238 0.235865 0.155194
Si Si4 0.809805 0.216370 0.846154
Si Si5 0.414270 0.076624 0.597147
O O1 0.343729 0.184425 0.137759
O O2 0.358634 0.001917 0.130420
O O3 0.245035 0.089089 0.053937
O O4 0.383137 0.098037 0.998507
O O5 0.333072 0.650859 0.922927
O O6 0.371316 0.500000 0.000000
O O7 0.383532 0.664192 0.080510
O O8 0.120190 0.196662 0.250000
O O9 0.219283 0.266911 0.146931
O O10 0.087915 0.329308 0.145633
O O11 0.827151 0.184072 0.750000
O O12 0.500000 0.042282 0.595906
#
# Coordination Sequence:
#
# PCOD9468429 Si02
#       5
#    16  16  16  16  16
#     4  10  17  33  51  81 111 144 179 219 270 326
#     4  11  18  33  57  76 110 143 176 237 282 312
#     4  10  20  34  51  79 111 143 182 221 274 333
#     4  10  19  32  54  78 108 143 180 229 280 325
#     4  11  20  33  56  82 115 153 183 212 263 336
#
# _framework density 19.607129
#
# number of rings (size 3 to 8) (size 9 to 14) (size 15 to 20)
#    0.000    1.600    6.000    2.400    0.000    2.000 
#    0.000    4.000    0.000    2.400    0.000    0.000 
#    0.000    0.000    0.000    0.000    0.000    0.000 
#
# Total GULP energy -223178.546365 kJ/mol
# GULP energy per Si atom -5579.463659 kJ/mol
# Density = 1.956250 g / cm^3
# Si number density = 19.607129 Si / 1000 Ang^3
#
#
#
# Elastic Constant Matrix: (Units=GPa)
#
#
# Indices 1 2 3 4 5 6 
#
# 1 32.6404 16.1991 -5.2372 0.0000 0.0000 0.0000
# 2 16.1991 140.5162 54.9735 0.0000 0.0000 0.0000
# 3 -5.2372 54.9735 99.1155 0.0000 0.0000 0.0000
# 4 0.0000 0.0000 0.0000 4.5900 0.0000 0.0000
# 5 0.0000 0.0000 0.0000 0.0000 1.7685 0.0000
# 6 0.0000 0.0000 0.0000 0.0000 0.0000 8.2324
#
#
#
# Elastic Compliance Matrix: (Units=1/GPa)
#
#
# Indices 1 2 3 4 5 6 
#
# 1 0.034427 -0.005978 0.005135 0.000000 0.000000 0.000000
# 2 -0.005978 0.010127 -0.005933 0.000000 0.000000 0.000000
# 3 0.005135 -0.005933 0.013651 0.000000 0.000000 0.000000
# 4 0.000000 0.000000 0.000000 0.217867 0.000000 0.000000
# 5 0.000000 0.000000 0.000000 0.000000 0.565460 0.000000
# 6 0.000000 0.000000 0.000000 0.000000 0.000000 0.121472
#
#
# Mechanical properties :
#
#
# Convention : Reuss Voigt Hill
#
# Bulk Modulus (GPa) = 22.39450 44.90477 33.64964
# Shear Modulus (GPa) = 5.04317 16.67394 10.85855
#
# Velocity S-wave (km/s) = 1.60552 2.91933 2.35586
# Velocity P-wave (km/s) = 3.85789 5.85793 4.95977
#
# Compressibility (1/GPa) = 0.04465382
#
# Stress axis : x y z
#
# Youngs Moduli (GPa) = 29.04662 98.74895 73.25492
#
# Poissons Ratio (x) = 0.59029 -0.37613
# Poissons Ratio (y) = 0.17363 0.43459
# Poissons Ratio (z) = -0.14914 0.58583
#
# Static dielectric constant tensor:
#      x y z
#    x 1.681100 0.000000 0.000000 
#    y 0.000000 1.731470 0.000000 
#    z 0.000000 0.000000 1.713860 
# 
# From -- ./inp_files/45409.got.cif
#   From: 2010.05.17/outbox.cif.g08.bks.cpg/sg63_23_cif.got.tgz:45409.got - 2010.06.03 15:47:04.
