data_PCOD9468701
_publ_section_title
;
Structure prediction by ZEFSAII (Michael W. Deem and Ramdas Pophale) SiO2 
 PCOD9468701
Probable space group: C M C M
;
_chemical_formula_sum "Si O2"
_cell_formula_units_Z 88
_cell_length_a 21.085141
_cell_length_b 27.937577
_cell_length_c 7.578084
_cell_angle_alpha 90.000000
_cell_angle_beta 90.000000
_cell_angle_gamma 90.000000
_cell_volume 4464.004893
_symmetry_space_group_name_H-M "C M C M"
_symmetry_group_IT_number 63
_symmetry_cell_setting 'orthorhombic'
loop_
_space_group_symop_operation_xyz
x,y,z
-x,-y,1/2+z
x,-y,-z
-x,y,1/2-z
-x,-y,-z
x,y,1/2-z
-x,y,z
x,-y,1/2+z
1/2+x,1/2+y,z
1/2-x,1/2-y,1/2+z
1/2+x,1/2-y,-z
1/2-x,1/2+y,1/2-z
1/2-x,1/2-y,-z
1/2+x,1/2+y,1/2-z
1/2-x,1/2+y,z
1/2+x,1/2-y,1/2+z
loop_
_atom_site_type_symbol
_atom_site_label
_atom_site_fract_x
_atom_site_fract_y
_atom_site_fract_z
Si Si1 0.500000 0.943177 0.538790
Si Si2 0.361755 0.320864 0.534187
Si Si3 0.737197 0.130002 0.047986
Si Si4 0.858856 0.289832 0.455092
Si Si5 0.000000 0.183126 0.035806
Si Si6 0.137685 0.443701 0.962710
Si Si7 0.000000 0.705163 0.049440
O O1 0.500000 0.936394 0.750000
O O2 0.431619 0.926272 0.471026
O O3 0.500000 0.000000 0.500000
O O4 0.359265 0.320052 0.750000
O O5 0.303484 0.352502 0.468586
O O6 0.355338 0.265109 0.479443
O O7 0.432247 0.338440 0.484157
O O8 0.751370 0.115924 0.250000
O O9 0.695874 0.087354 0.966165
O O10 0.689811 0.175267 0.049220
O O11 0.841294 0.289607 0.250000
O O12 0.931692 0.307611 0.470303
O O13 0.000000 0.187410 0.250000
O O14 0.000000 0.237079 0.963233
O O15 0.136591 0.437810 0.750000
O O16 0.144124 0.500000 0.000000
O O17 0.000000 0.688271 0.250000
#
# Coordination Sequence:
#
# PCOD9468701 Si02
#       7
#     8  16  16  16   8  16   8
#     4   8  14  27  44  61  79 106 139 175 214 253
#     4   8  15  28  46  66  91 119 150 185 224 267
#     4  10  19  30  45  68  92 118 150 187 229 275
#     4  10  19  31  45  64  92 125 155 187 223 266
#     4   8  14  28  47  65  87 118 151 187 225 266
#     4   9  18  31  47  64  86 113 147 187 227 268
#     4  10  18  29  45  64  88 122 159 194 224 257
#
# _framework density 19.713239000000002
#
# number of rings (size 3 to 8) (size 9 to 14) (size 15 to 20)
#    0.000    2.909    0.000    3.000    0.000    1.455 
#    0.000    5.455    0.000    2.182    0.000    0.636 
#    0.000    0.000    0.000    0.000    0.000    0.000 
#
# Total GULP energy -245260.317258 kJ/mol
# GULP energy per Si atom -5574.098119 kJ/mol
# Density = 1.966837 g / cm^3
# Si number density = 19.713239 Si / 1000 Ang^3
#
#
#
# Elastic Constant Matrix: (Units=GPa)
#
#
# Indices 1 2 3 4 5 6 
#
# 1 184.9077 72.6750 -3.5413 0.0000 0.0000 0.0000
# 2 72.6750 73.7905 -0.7637 0.0000 0.0000 0.0000
# 3 -3.5413 -0.7637 49.0400 0.0000 0.0000 0.0000
# 4 0.0000 0.0000 0.0000 7.0956 0.0000 0.0000
# 5 0.0000 0.0000 0.0000 0.0000 -4.9916 0.0000
# 6 0.0000 0.0000 0.0000 0.0000 0.0000 246.9254
#
#
#
# Elastic Compliance Matrix: (Units=1/GPa)
#
#
# Indices 1 2 3 4 5 6 
#
# 1 0.008836 -0.008697 0.000503 0.000000 0.000000 0.000000
# 2 -0.008697 0.022115 -0.000284 0.000000 0.000000 0.000000
# 3 0.000503 -0.000284 0.020423 0.000000 0.000000 0.000000
# 4 0.000000 0.000000 0.000000 0.140932 0.000000 0.000000
# 5 0.000000 0.000000 0.000000 0.000000 -0.200336 0.000000
# 6 0.000000 0.000000 0.000000 0.000000 0.000000 0.004050
#
#
# Mechanical properties :
#
#
# Convention : Reuss Voigt Hill
#
# Bulk Modulus (GPa) = 29.05493 49.38647 39.22070
# Shear Modulus (GPa) = 204.50345 65.76376 135.13360
#
# Velocity S-wave (km/s) = 10.19629 5.78209 8.28845
# Velocity P-wave (km/s) = 12.38507 8.34767 10.56110
#
# Compressibility (1/GPa) = 0.03441757
#
# Stress axis : x y z
#
# Youngs Moduli (GPa) = 113.17278 45.21876 48.96344
#
# Poissons Ratio (x) = 0.39328 -0.02461
# Poissons Ratio (y) = 0.98429 0.01389
# Poissons Ratio (z) = -0.05688 0.01283
#
# Static dielectric constant tensor:
#      x y z
#    x 1.745650 0.000000 0.000000 
#    y 0.000000 1.668740 0.000000 
#    z 0.000000 0.000000 1.713380 
# 
# From -- ./inp_files/8307.got.cif
#   From: 2010.05.17/outbox.cif.g08.bks.cpg/sg63_5_cif.got.tgz:8307.got - 2010.06.03 15:47:04.
