data_PCOD9468622
_publ_section_title
;
Structure prediction by ZEFSAII (Michael W. Deem and Ramdas Pophale) SiO2 
 PCOD9468622
Probable space group: C M C M
;
_chemical_formula_sum "Si O2"
_cell_formula_units_Z 80
_cell_length_a 7.609391
_cell_length_b 19.978245
_cell_length_c 27.055894
_cell_angle_alpha 90.000000
_cell_angle_beta 90.000000
_cell_angle_gamma 90.000000
_cell_volume 4113.098631
_symmetry_space_group_name_H-M "C M C M"
_symmetry_group_IT_number 63
_symmetry_cell_setting 'orthorhombic'
loop_
_space_group_symop_operation_xyz
x,y,z
-x,-y,1/2+z
x,-y,-z
-x,y,1/2-z
-x,-y,-z
x,y,1/2-z
-x,y,z
x,-y,1/2+z
1/2+x,1/2+y,z
1/2-x,1/2-y,1/2+z
1/2+x,1/2-y,-z
1/2-x,1/2+y,1/2-z
1/2-x,1/2-y,-z
1/2+x,1/2+y,1/2-z
1/2-x,1/2+y,z
1/2+x,1/2-y,1/2+z
loop_
_atom_site_type_symbol
_atom_site_label
_atom_site_fract_x
_atom_site_fract_y
_atom_site_fract_z
Si Si1 0.710116 0.829974 0.445755
Si Si2 0.211378 0.578288 0.143085
Si Si3 0.202323 0.063628 0.250000
Si Si4 0.301592 0.087507 0.750000
Si Si5 0.788023 0.674906 0.056736
Si Si6 0.283785 0.076342 0.857296
O O1 0.500000 0.839280 0.447479
O O2 0.744798 0.752397 0.433822
O O3 0.777567 0.842432 0.501471
O O4 0.776276 0.878832 0.403002
O O5 0.259791 0.600325 0.198643
O O6 0.277726 0.626335 0.099824
O O7 0.270541 0.501166 0.137205
O O8 0.000000 0.577618 0.140374
O O9 0.000000 0.043347 0.250000
O O10 0.308956 0.994009 0.250000
O O11 0.500000 0.114568 0.750000
O O12 0.222547 0.103133 0.803615
O O13 0.000000 0.669531 0.055656
O O14 0.500000 0.076863 0.855915
#
# Coordination Sequence:
#
# PCOD9468622 Si02
#       6
#    16  16   8   8  16  16
#     4   9  17  30  47  67  92 121 154 192 230 267
#     4   9  17  31  49  67  90 120 153 187 224 270
#     4  10  18  28  45  70  95 117 145 183 229 274
#     4   8  14  28  47  66  91 121 149 179 223 272
#     4   9  18  31  47  66  90 123 156 186 227 275
#     4   8  14  26  47  70  89 115 151 188 222 259
#
# _framework density 19.450056
#
# number of rings (size 3 to 8) (size 9 to 14) (size 15 to 20)
#    0.000    3.200    0.000    2.100    0.000    1.600 
#    0.000    9.000    0.000    1.200    0.000   11.200 
#    0.000    0.000    0.000    0.000    0.000    0.000 
#
# Total GULP energy -222853.249825 kJ/mol
# GULP energy per Si atom -5571.331246 kJ/mol
# Density = 1.940579 g / cm^3
# Si number density = 19.450056 Si / 1000 Ang^3
#
#
#
# Elastic Constant Matrix: (Units=GPa)
#
#
# Indices 1 2 3 4 5 6 
#
# 1 45.5310 0.0861 3.8714 0.0000 0.0000 0.0000
# 2 0.0861 76.7078 113.7488 0.0000 0.0000 0.0000
# 3 3.8714 113.7488 227.7349 0.0000 0.0000 0.0000
# 4 0.0000 0.0000 0.0000 -101.5833 0.0000 0.0000
# 5 0.0000 0.0000 0.0000 0.0000 2.7710 0.0000
# 6 0.0000 0.0000 0.0000 0.0000 0.0000 15.1351
#
#
#
# Elastic Compliance Matrix: (Units=1/GPa)
#
#
# Indices 1 2 3 4 5 6 
#
# 1 0.022078 0.002051 -0.001400 0.000000 0.000000 0.000000
# 2 0.002051 0.050460 -0.025239 0.000000 0.000000 0.000000
# 3 -0.001400 -0.025239 0.017021 0.000000 0.000000 0.000000
# 4 0.000000 0.000000 0.000000 -0.009844 0.000000 0.000000
# 5 0.000000 0.000000 0.000000 0.000000 0.360885 0.000000
# 6 0.000000 0.000000 0.000000 0.000000 0.000000 0.066072
#
#
# Mechanical properties :
#
#
# Convention : Reuss Voigt Hill
#
# Bulk Modulus (GPa) = 24.76212 65.04292 44.90252
# Shear Modulus (GPa) = 8.78257 -1.25096 3.76581
#
# Velocity S-wave (km/s) = 2.12726 -0.80285 1.39296
# Velocity P-wave (km/s) = 4.33502 5.71438 5.07181
#
# Compressibility (1/GPa) = 0.04038427
#
# Stress axis : x y z
#
# Youngs Moduli (GPa) = 45.29356 19.81748 58.75048
#
# Poissons Ratio (x) = -0.04064 0.08222
# Poissons Ratio (y) = -0.09288 1.48279
# Poissons Ratio (z) = 0.06339 0.50017
#
# Static dielectric constant tensor:
#      x y z
#    x 1.734650 0.000000 0.000000 
#    y 0.000000 1.629000 0.000000 
#    z 0.000000 0.000000 1.723790 
# 
# From -- ./inp_files/59558.got.cif
#   From: 2010.05.17/outbox.cif.g08.bks.cpg/sg63_30_cif.got.tgz:59558.got - 2010.06.03 15:47:04.
