data_PCOD9468115
_publ_section_title
;
Structure prediction by ZEFSAII (Michael W. Deem and Ramdas Pophale) SiO2 
 PCOD9468115
Probable space group: C M C M
;
_chemical_formula_sum "Si O2"
_cell_formula_units_Z 88
_cell_length_a 28.967389
_cell_length_b 25.619683
_cell_length_c 8.594479
_cell_angle_alpha 90.000000
_cell_angle_beta 90.000000
_cell_angle_gamma 90.000000
_cell_volume 6378.266453
_symmetry_space_group_name_H-M "C M C M"
_symmetry_group_IT_number 63
_symmetry_cell_setting 'orthorhombic'
loop_
_space_group_symop_operation_xyz
x,y,z
-x,-y,1/2+z
x,-y,-z
-x,y,1/2-z
-x,-y,-z
x,y,1/2-z
-x,y,z
x,-y,1/2+z
1/2+x,1/2+y,z
1/2-x,1/2-y,1/2+z
1/2+x,1/2-y,-z
1/2-x,1/2+y,1/2-z
1/2-x,1/2-y,-z
1/2+x,1/2+y,1/2-z
1/2-x,1/2+y,z
1/2+x,1/2-y,1/2+z
loop_
_atom_site_type_symbol
_atom_site_label
_atom_site_fract_x
_atom_site_fract_y
_atom_site_fract_z
Si Si1 0.447450 0.748179 0.436288
Si Si2 0.000000 0.941483 0.563720
Si Si3 0.264165 0.807478 0.435920
Si Si4 0.827942 0.162806 0.064167
Si Si5 0.078509 0.866511 0.063753
Si Si6 0.144538 0.277584 0.564257
O O1 0.441291 0.745854 0.250000
O O2 0.500000 0.764124 0.470265
O O3 0.439781 0.689721 0.502902
O O4 0.407972 0.784828 0.509140
O O5 0.044536 0.910296 0.501320
O O6 0.000000 0.941031 0.750000
O O7 0.000000 0.000000 0.500000
O O8 0.264128 0.806118 0.250000
O O9 0.250000 0.750000 0.500000
O O10 0.223529 0.844871 0.497650
O O11 0.315828 0.815838 0.499900
O O12 0.827274 0.161459 0.250000
O O13 0.842670 0.220851 0.007290
O O14 0.869096 0.127493 0.997589
O O15 0.078107 0.865923 0.250000
O O16 0.147278 0.725263 0.250000
#
# Coordination Sequence:
#
# PCOD9468115 Si02
#       6
#    16   8  16  16  16  16
#     4  10  18  27  39  53  71  94 120 150 182 215
#     4  12  24  38  50  62  76  94 116 146 186 228
#     4  10  16  24  35  49  69  90 113 138 169 208
#     4  10  17  26  39  54  71  90 111 137 170 208
#     4  11  20  31  45  60  74  90 113 142 177 219
#     4  10  17  24  34  49  69  91 116 143 174 210
#
# _framework density 13.796853
#
# number of rings (size 3 to 8) (size 9 to 14) (size 15 to 20)
#    0.000    1.636    0.909   12.273    0.000    1.091 
#    0.000    0.000    0.000    0.000    0.000    0.000 
#    0.000    0.000    0.000    0.000    0.000    0.000 
#
# Total GULP energy -245241.716699 kJ/mol
# GULP energy per Si atom -5573.675380 kJ/mol
# Density = 1.376545 g / cm^3
# Si number density = 13.796853 Si / 1000 Ang^3
#
#
#
# Elastic Constant Matrix: (Units=GPa)
#
#
# Indices 1 2 3 4 5 6 
#
# 1 155.3438 33.7585 64.5688 0.0000 0.0000 0.0000
# 2 33.7585 19.4835 15.6406 0.0000 0.0000 0.0000
# 3 64.5688 15.6406 140.1391 0.0000 0.0000 0.0000
# 4 0.0000 0.0000 0.0000 10.3071 0.0000 0.0000
# 5 0.0000 0.0000 0.0000 0.0000 27.8084 0.0000
# 6 0.0000 0.0000 0.0000 0.0000 0.0000 7.8907
#
#
#
# Elastic Compliance Matrix: (Units=1/GPa)
#
#
# Indices 1 2 3 4 5 6 
#
# 1 0.011649 -0.017437 -0.003421 0.000000 0.000000 0.000000
# 2 -0.017437 0.082478 -0.001171 0.000000 0.000000 0.000000
# 3 -0.003421 -0.001171 0.008843 0.000000 0.000000 0.000000
# 4 0.000000 0.000000 0.000000 0.097020 0.000000 0.000000
# 5 0.000000 0.000000 0.000000 0.000000 0.035960 0.000000
# 6 0.000000 0.000000 0.000000 0.000000 0.000000 0.126732
#
#
# Mechanical properties :
#
#
# Convention : Reuss Voigt Hill
#
# Bulk Modulus (GPa) = 16.97464 60.32245 38.64855
# Shear Modulus (GPa) = 11.72670 22.60113 17.16392
#
# Velocity S-wave (km/s) = 2.91856 4.05178 3.53093
# Velocity P-wave (km/s) = 4.86696 8.10593 6.68556
#
# Compressibility (1/GPa) = 0.05891141
#
# Stress axis : x y z
#
# Youngs Moduli (GPa) = 85.84748 12.12440 113.08793
#
# Poissons Ratio (x) = 0.21141 0.38687
# Poissons Ratio (y) = 1.49692 0.13244
# Poissons Ratio (z) = 0.29368 0.01420
#
# Static dielectric constant tensor:
#      x y z
#    x 1.543580 0.000000 0.000000 
#    y 0.000000 1.407340 0.000000 
#    z 0.000000 0.000000 1.456200 
# 
# From -- ./inp_files/14190.got.cif
#   From: 2010.05.17/outbox.cif.g08.bks.cpg/sg63_8_cif.got.tgz:14190.got - 2010.06.03 15:47:04.
