data_PCOD9468882
_publ_section_title
;
Structure prediction by ZEFSAII (Michael W. Deem and Ramdas Pophale) SiO2 
 PCOD9468882
Probable space group: C M C M
;
_chemical_formula_sum "Si O2"
_cell_formula_units_Z 96
_cell_length_a 8.910912
_cell_length_b 23.620619
_cell_length_c 27.959137
_cell_angle_alpha 90.000000
_cell_angle_beta 90.000000
_cell_angle_gamma 90.000000
_cell_volume 5884.874309
_symmetry_space_group_name_H-M "C M C M"
_symmetry_group_IT_number 63
_symmetry_cell_setting 'orthorhombic'
loop_
_space_group_symop_operation_xyz
x,y,z
-x,-y,1/2+z
x,-y,-z
-x,y,1/2-z
-x,-y,-z
x,y,1/2-z
-x,y,z
x,-y,1/2+z
1/2+x,1/2+y,z
1/2-x,1/2-y,1/2+z
1/2+x,1/2-y,-z
1/2-x,1/2+y,1/2-z
1/2-x,1/2-y,-z
1/2+x,1/2+y,1/2-z
1/2-x,1/2+y,z
1/2+x,1/2-y,1/2+z
loop_
_atom_site_type_symbol
_atom_site_label
_atom_site_fract_x
_atom_site_fract_y
_atom_site_fract_z
Si Si1 0.180869 0.463940 0.952492
Si Si2 0.176216 0.993249 0.250000
Si Si3 0.320437 0.165666 0.023810
Si Si4 0.673824 0.140517 0.645376
Si Si5 0.181084 0.016123 0.856498
Si Si6 0.677839 0.280719 0.429897
Si Si7 0.169718 0.623659 0.750000
O O1 0.217179 0.398013 0.961530
O O2 0.256223 0.484951 0.903444
O O3 0.000000 0.469477 0.947582
O O4 0.224348 0.500000 0.000000
O O5 0.231701 0.008980 0.195963
O O6 0.209026 0.926044 0.250000
O O7 0.000000 0.005895 0.250000
O O8 0.500000 0.167730 0.014332
O O9 0.286820 0.214397 0.062650
O O10 0.234347 0.185806 0.976693
O O11 0.500000 0.130999 0.632424
O O12 0.759097 0.080710 0.640150
O O13 0.742533 0.189414 0.613841
O O14 0.682715 0.156824 0.701066
O O15 0.000000 0.016091 0.857018
O O16 0.500000 0.286546 0.425710
O O17 0.000000 0.597414 0.750000
#
# Coordination Sequence:
#
# PCOD9468882 Si02
#       7
#    16   8  16  16  16  16   8
#     4  10  20  33  49  70  98 129 158 192 237 285
#     4   8  16  30  46  67  96 125 153 192 240 282
#     4   9  19  34  49  68  96 127 156 189 232 280
#     4  10  18  30  48  70  96 124 155 191 235 280
#     4  10  19  31  49  73  99 126 158 196 238 284
#     4  10  19  31  49  71  94 122 157 193 230 278
#     4   8  16  28  44  67  92 119 153 192 230 276
#
# _framework density 16.313008
#
# number of rings (size 3 to 8) (size 9 to 14) (size 15 to 20)
#    0.000    2.500    0.000    2.500    0.000    4.333 
#    0.000    0.000    0.000    1.000    0.000    7.000 
#    0.000    0.000    0.000    0.000    0.000    0.000 
#
# Total GULP energy -267267.181543 kJ/mol
# GULP energy per Si atom -5568.066282 kJ/mol
# Density = 1.627588 g / cm^3
# Si number density = 16.313008 Si / 1000 Ang^3
#
#
#
# Elastic Constant Matrix: (Units=GPa)
#
#
# Indices 1 2 3 4 5 6 
#
# 1 37.0744 43.5108 43.9603 0.0000 0.0000 0.0000
# 2 43.5108 96.8524 68.3633 0.0000 0.0000 0.0000
# 3 43.9603 68.3633 126.0236 0.0000 0.0000 0.0000
# 4 0.0000 0.0000 0.0000 23.9891 0.0000 0.0000
# 5 0.0000 0.0000 0.0000 0.0000 10.2079 0.0000
# 6 0.0000 0.0000 0.0000 0.0000 0.0000 15.6295
#
#
#
# Elastic Compliance Matrix: (Units=1/GPa)
#
#
# Indices 1 2 3 4 5 6 
#
# 1 0.065486 -0.021545 -0.011156 0.000000 0.000000 0.000000
# 2 -0.021545 0.023820 -0.005406 0.000000 0.000000 0.000000
# 3 -0.011156 -0.005406 0.014759 0.000000 0.000000 0.000000
# 4 0.000000 0.000000 0.000000 0.041686 0.000000 0.000000
# 5 0.000000 0.000000 0.000000 0.000000 0.097963 0.000000
# 6 0.000000 0.000000 0.000000 0.000000 0.000000 0.063982
#
#
# Mechanical properties :
#
#
# Convention : Reuss Voigt Hill
#
# Bulk Modulus (GPa) = 35.90510 63.51325 49.70917
# Shear Modulus (GPa) = 12.71638 16.90635 14.81137
#
# Velocity S-wave (km/s) = 2.79502 3.22277 3.01649
# Velocity P-wave (km/s) = 5.69861 7.27097 6.53227
#
# Compressibility (1/GPa) = 0.02785120
#
# Stress axis : x y z
#
# Youngs Moduli (GPa) = 15.27038 41.98150 67.75554
#
# Poissons Ratio (x) = 0.90451 0.75586
# Poissons Ratio (y) = 0.32901 0.36628
# Poissons Ratio (z) = 0.17035 0.22695
#
# Static dielectric constant tensor:
#      x y z
#    x 1.558900 0.000000 0.000000 
#    y 0.000000 1.517560 0.000000 
#    z 0.000000 0.000000 1.584060 
# 
# From -- ./inp_files/67299.got.cif
#   From: 2010.05.17/outbox.cif.g08.bks.cpg/sg63_34_cif.got.tgz:67299.got - 2010.06.03 15:47:04.
