data_PCOD9468023
_publ_section_title
;
Structure prediction by ZEFSAII (Michael W. Deem and Ramdas Pophale) SiO2 
 PCOD9468023
Probable space group: P N M A
;
_chemical_formula_sum "Si O2"
_cell_formula_units_Z 40
_cell_length_a 24.000000
_cell_length_b 9.000000
_cell_length_c 9.000000
_cell_angle_alpha 90.000000
_cell_angle_beta 90.000000
_cell_angle_gamma 90.000000
_cell_volume 1944.000000
_symmetry_space_group_name_H-M "P N M A"
_symmetry_group_IT_number 62
_symmetry_cell_setting 'orthorhombic'
loop_
_space_group_symop_operation_xyz
x,y,z
1/2-x,-y,1/2+z
1/2+x,1/2-y,1/2-z
-x,1/2+y,-z
-x,-y,-z
1/2+x,y,1/2-z
1/2-x,1/2+y,1/2+z
x,1/2-y,z
loop_
_atom_site_type_symbol
_atom_site_label
_atom_site_fract_x
_atom_site_fract_y
_atom_site_fract_z
Si Si1 0.107396 0.913172 0.284094
Si Si2 0.000733 0.074297 0.163674
Si Si3 0.812765 0.915518 0.506165
Si Si4 0.182810 0.585078 0.994390
Si Si5 0.608326 0.086475 0.724868
O O1 0.084742 0.750000 0.319470
O O2 0.055385 0.018892 0.250133
O O3 0.150755 0.970214 0.403612
O O4 0.147714 0.902982 0.143146
O O5 0.001320 0.250000 0.147298
O O6 0.943764 0.022557 0.242859
O O7 0.000000 0.000000 0.000000
O O8 0.814244 0.750000 0.576646
O O9 0.747774 0.953257 0.484769
O O10 0.847549 0.907241 0.356294
O O11 0.180907 0.750000 0.921243
O O12 0.147588 0.465732 0.906898
O O13 0.584313 0.250000 0.698842
#
# Coordination Sequence:
#
# PCOD9468023 Si02
#       5
#     8   8   8   8   8
#     4  11  23  40  64  93 124 163 206 254 307 364
#     4  12  24  41  65  92 121 158 203 255 307 368
#     4  10  23  41  60  90 128 164 205 253 306 362
#     4  10  21  39  63  90 124 163 207 256 301 360
#     4  11  23  40  64  92 123 164 207 254 307 363
#
# _framework density 20.576132000000001
#
# number of rings (size 3 to 8) (size 9 to 14) (size 15 to 20)
#    0.000    1.200    2.000    4.200    0.000    5.600 
#    0.000    0.000    0.000    0.000    0.000    0.000 
#    0.000    0.000    0.000    0.000    0.000    0.000 
#
# Total GULP energy -223004.691741 kJ/mol
# GULP energy per Si atom -5575.117294 kJ/mol
# Density = 2.052930 g / cm^3
# Si number density = 20.576132 Si / 1000 Ang^3
#
#
#
# Elastic Constant Matrix: (Units=GPa)
#
#
# Indices 1 2 3 4 5 6 
#
# 1 155.4304 49.3955 -1.8812 0.0000 0.0000 0.0000
# 2 49.3955 132.2262 21.3454 0.0000 0.0000 0.0000
# 3 -1.8812 21.3454 25.3443 0.0000 0.0000 0.0000
# 4 0.0000 0.0000 0.0000 23.0594 0.0000 0.0000
# 5 0.0000 0.0000 0.0000 0.0000 36.0822 0.0000
# 6 0.0000 0.0000 0.0000 0.0000 0.0000 37.7604
#
#
#
# Elastic Compliance Matrix: (Units=1/GPa)
#
#
# Indices 1 2 3 4 5 6 
#
# 1 0.007545 -0.003367 0.003395 0.000000 0.000000 0.000000
# 2 -0.003367 0.010255 -0.008887 0.000000 0.000000 0.000000
# 3 0.003395 -0.008887 0.047193 0.000000 0.000000 0.000000
# 4 0.000000 0.000000 0.000000 0.043366 0.000000 0.000000
# 5 0.000000 0.000000 0.000000 0.000000 0.027714 0.000000
# 6 0.000000 0.000000 0.000000 0.000000 0.000000 0.026483
#
#
# Mechanical properties :
#
#
# Convention : Reuss Voigt Hill
#
# Bulk Modulus (GPa) = 21.15191 50.08001 35.61596
# Shear Modulus (GPa) = 25.50606 35.65647 30.58126
#
# Velocity S-wave (km/s) = 3.52461 4.16733 3.85937
# Velocity P-wave (km/s) = 5.18324 6.89545 6.09972
#
# Compressibility (1/GPa) = 0.04727706
#
# Stress axis : x y z
#
# Youngs Moduli (GPa) = 132.54264 97.51278 21.18941
#
# Poissons Ratio (x) = 0.32829 -0.07195
# Poissons Ratio (y) = 0.44622 0.18831
# Poissons Ratio (z) = -0.45004 0.86658
#
# Static dielectric constant tensor:
#      x y z
#    x 1.646700 0.000000 0.000000 
#    y 0.000000 1.818870 0.000000 
#    z 0.000000 0.000000 1.683320 
# 
# From -- ./inp_files/9087.got.cif
#   From: 2010.05.17/outbox.ucp.g08.bks.cvg/sg62_5_cif.got.tgz:9087.got - 2010.06.11 16:29:25.
