data_PCOD9468099
_publ_section_title
;
Structure prediction by ZEFSAII (Michael W. Deem and Ramdas Pophale) SiO2 
 PCOD9468099
Probable space group: C M C M
;
_chemical_formula_sum "Si O2"
_cell_formula_units_Z 96
_cell_length_a 14.672698
_cell_length_b 17.940332
_cell_length_c 19.262552
_cell_angle_alpha 90.000000
_cell_angle_beta 90.000000
_cell_angle_gamma 90.000000
_cell_volume 5070.540766
_symmetry_space_group_name_H-M "C M C M"
_symmetry_group_IT_number 63
_symmetry_cell_setting 'orthorhombic'
loop_
_space_group_symop_operation_xyz
x,y,z
-x,-y,1/2+z
x,-y,-z
-x,y,1/2-z
-x,-y,-z
x,y,1/2-z
-x,y,z
x,-y,1/2+z
1/2+x,1/2+y,z
1/2-x,1/2-y,1/2+z
1/2+x,1/2-y,-z
1/2-x,1/2+y,1/2-z
1/2-x,1/2-y,-z
1/2+x,1/2+y,1/2-z
1/2-x,1/2+y,z
1/2+x,1/2-y,1/2+z
loop_
_atom_site_type_symbol
_atom_site_label
_atom_site_fract_x
_atom_site_fract_y
_atom_site_fract_z
Si Si1 0.632512 0.392473 0.499429
Si Si2 0.300261 0.991509 0.172074
Si Si3 0.655413 0.921692 0.468841
Si Si4 0.649780 0.770265 0.529843
Si Si5 0.902818 0.007749 0.377494
Si Si6 0.109513 0.654003 0.330011
O O1 0.741512 0.409963 0.497999
O O2 0.603923 0.308733 0.483434
O O3 0.602066 0.418326 0.575151
O O4 0.598251 0.443989 0.436814
O O5 0.322887 0.967798 0.250000
O O6 0.190951 0.999835 0.164017
O O7 0.346232 0.072352 0.159897
O O8 0.335304 0.935659 0.112965
O O9 0.611089 0.843897 0.491608
O O10 0.619599 0.000000 0.500000
O O11 0.750000 0.750000 0.500000
O O12 0.648665 0.791649 0.611050
O O13 0.000000 0.004612 0.339868
O O14 0.127881 0.676683 0.250000
O O15 0.000000 0.649417 0.338589
#
# Coordination Sequence:
#
# PCOD9468099 Si02
#       6
#    16  16  16  16  16  16
#     4   9  16  29  50  77 107 141 178 227 279 329
#     4  10  19  34  54  78 111 148 186 234 289 342
#     4  10  15  31  54  77 105 141 184 232 274 335
#     4  10  19  32  55  81 112 147 189 236 284 340
#     4  10  18  31  53  77 106 145 188 228 279 345
#     4  10  21  37  57  82 114 153 194 238 292 348
#
# _framework density 18.932891000000001
#
# number of rings (size 3 to 8) (size 9 to 14) (size 15 to 20)
#    0.000    2.167    5.000    2.000    0.000    1.667 
#    0.000    9.167    0.000    1.000    0.000    0.000 
#    0.000    1.333    0.000    0.000    0.000    0.000 
#
# Total GULP energy -267404.129235 kJ/mol
# GULP energy per Si atom -5570.919359 kJ/mol
# Density = 1.888980 g / cm^3
# Si number density = 18.932891 Si / 1000 Ang^3
#
#
#
# Elastic Constant Matrix: (Units=GPa)
#
#
# Indices 1 2 3 4 5 6 
#
# 1 63.6647 0.4770 13.4291 0.0000 0.0000 0.0000
# 2 0.4770 132.1524 50.1659 0.0000 0.0000 0.0000
# 3 13.4291 50.1659 114.1000 0.0000 0.0000 0.0000
# 4 0.0000 0.0000 0.0000 21.5255 0.0000 0.0000
# 5 0.0000 0.0000 0.0000 0.0000 9.3393 0.0000
# 6 0.0000 0.0000 0.0000 0.0000 0.0000 -6.5326
#
#
#
# Elastic Compliance Matrix: (Units=1/GPa)
#
#
# Indices 1 2 3 4 5 6 
#
# 1 0.016177 0.000797 -0.002255 0.000000 0.000000 0.000000
# 2 0.000797 0.009122 -0.004105 0.000000 0.000000 0.000000
# 3 -0.002255 -0.004105 0.010834 0.000000 0.000000 0.000000
# 4 0.000000 0.000000 0.000000 0.046456 0.000000 0.000000
# 5 0.000000 0.000000 0.000000 0.000000 0.107074 0.000000
# 6 0.000000 0.000000 0.000000 0.000000 0.000000 -0.153080
#
#
# Mechanical properties :
#
#
# Convention : Reuss Voigt Hill
#
# Bulk Modulus (GPa) = 39.98405 48.67345 44.32875
# Shear Modulus (GPa) = 89.21438 21.25613 55.23526
#
# Velocity S-wave (km/s) = 6.87195 3.35432 5.40718
# Velocity P-wave (km/s) = 9.17222 6.38484 7.90240
#
# Compressibility (1/GPa) = 0.02500997
#
# Stress axis : x y z
#
# Youngs Moduli (GPa) = 61.81664 109.62166 92.29979
#
# Poissons Ratio (x) = -0.08742 0.20810
# Poissons Ratio (y) = -0.04930 0.37886
# Poissons Ratio (z) = 0.13937 0.44996
#
# Static dielectric constant tensor:
#      x y z
#    x 115.810360 0.000000 0.000000 
#    y 0.000000 1.686580 0.000000 
#    z 0.000000 0.000000 1.644140 
# 
# From -- ./inp_files/45735.got.cif
#   From: 2010.05.17/outbox.cif.g08.bks.cpg/sg63_23_cif.got.tgz:45735.got - 2010.06.03 15:47:04.
