data_PCOD9468460
_publ_section_title
;
Structure prediction by ZEFSAII (Michael W. Deem and Ramdas Pophale) SiO2 
 PCOD9468460
Probable space group: C M C M
;
_chemical_formula_sum "Si O2"
_cell_formula_units_Z 56
_cell_length_a 16.739364
_cell_length_b 10.020634
_cell_length_c 17.426853
_cell_angle_alpha 90.000000
_cell_angle_beta 90.000000
_cell_angle_gamma 90.000000
_cell_volume 2923.163593
_symmetry_space_group_name_H-M "C M C M"
_symmetry_group_IT_number 63
_symmetry_cell_setting 'orthorhombic'
loop_
_space_group_symop_operation_xyz
x,y,z
-x,-y,1/2+z
x,-y,-z
-x,y,1/2-z
-x,-y,-z
x,y,1/2-z
-x,y,z
x,-y,1/2+z
1/2+x,1/2+y,z
1/2-x,1/2-y,1/2+z
1/2+x,1/2-y,-z
1/2-x,1/2+y,1/2-z
1/2-x,1/2-y,-z
1/2+x,1/2+y,1/2-z
1/2-x,1/2+y,z
1/2+x,1/2-y,1/2+z
loop_
_atom_site_type_symbol
_atom_site_label
_atom_site_fract_x
_atom_site_fract_y
_atom_site_fract_z
Si Si1 0.274770 0.104872 0.612335
Si Si2 0.411926 0.791473 0.998772
Si Si3 0.858986 0.000000 0.000000
Si Si4 0.337616 0.834150 0.666062
O O1 0.340602 0.145363 0.548648
O O2 0.200036 0.037029 0.569343
O O3 0.238511 0.236088 0.652285
O O4 0.311450 0.988461 0.663547
O O5 0.500000 0.842806 0.018204
O O6 0.407925 0.633377 0.014896
O O7 0.392805 0.812924 0.908721
O O8 0.372243 0.802665 0.750000
#
# Coordination Sequence:
#
# PCOD9468460 Si02
#       4
#    16  16   8  16
#     4  11  19  39  61  87 111 152 208 236 277 345
#     4  11  22  36  61  91 119 151 193 244 293 344
#     4  10  17  38  61  82 112 150 200 240 269 340
#     4  11  22  36  59  87 119 155 194 241 292 346
#
# _framework density 19.157326999999999
#
# number of rings (size 3 to 8) (size 9 to 14) (size 15 to 20)
#    0.000    1.143    5.714    3.000    0.000    2.857 
#    0.000    0.000    0.000    2.571    0.000    0.000 
#    0.000    0.000    0.000    0.000    0.000    0.000 
#
# Total GULP energy -156225.314229 kJ/mol
# GULP energy per Si atom -5579.475508 kJ/mol
# Density = 1.911372 g / cm^3
# Si number density = 19.157327 Si / 1000 Ang^3
#
#
#
# Elastic Constant Matrix: (Units=GPa)
#
#
# Indices 1 2 3 4 5 6 
#
# 1 76.5773 13.9212 17.7313 0.0000 0.0000 0.0000
# 2 13.9212 113.6487 21.5077 0.0000 0.0000 0.0000
# 3 17.7313 21.5077 101.3808 0.0000 0.0000 0.0000
# 4 0.0000 0.0000 0.0000 12.8317 0.0000 0.0000
# 5 0.0000 0.0000 0.0000 0.0000 2.2113 0.0000
# 6 0.0000 0.0000 0.0000 0.0000 0.0000 -3.7421
#
#
#
# Elastic Compliance Matrix: (Units=1/GPa)
#
#
# Indices 1 2 3 4 5 6 
#
# 1 0.013787 -0.001284 -0.002139 0.000000 0.000000 0.000000
# 2 -0.001284 0.009287 -0.001746 0.000000 0.000000 0.000000
# 3 -0.002139 -0.001746 0.010608 0.000000 0.000000 0.000000
# 4 0.000000 0.000000 0.000000 0.077932 0.000000 0.000000
# 5 0.000000 0.000000 0.000000 0.000000 0.452230 0.000000
# 6 0.000000 0.000000 0.000000 0.000000 0.000000 -0.267232
#
#
# Mechanical properties :
#
#
# Convention : Reuss Voigt Hill
#
# Bulk Modulus (GPa) = 42.83558 44.21414 43.52486
# Shear Modulus (GPa) = 15.88657 18.15661 17.02159
#
# Velocity S-wave (km/s) = 2.88283 3.08192 2.98403
# Velocity P-wave (km/s) = 5.78700 5.98280 5.88571
#
# Compressibility (1/GPa) = 0.02334508
#
# Stress axis : x y z
#
# Youngs Moduli (GPa) = 72.52990 107.68108 94.26650
#
# Poissons Ratio (x) = 0.13827 0.20163
# Poissons Ratio (y) = 0.09313 0.16455
# Poissons Ratio (z) = 0.15514 0.18796
#
# Static dielectric constant tensor:
#      x y z
#    x 1.647740 0.000000 0.000000 
#    y 0.000000 1.708340 0.000000 
#    z 0.000000 0.000000 1.683100 
# 
# From -- ./inp_files/44990.got.cif
#   From: 2010.05.17/outbox.cif.g08.bks.cpg/sg63_23_cif.got.tgz:44990.got - 2010.06.03 15:47:04.
