data_PCOD9468187
_publ_section_title
;
Structure prediction by ZEFSAII (Michael W. Deem and Ramdas Pophale) SiO2 
 PCOD9468187
Probable space group: C M C M
;
_chemical_formula_sum "Si O2"
_cell_formula_units_Z 128
_cell_length_a 14.352203
_cell_length_b 23.305381
_cell_length_c 16.484372
_cell_angle_alpha 90.000000
_cell_angle_beta 90.000000
_cell_angle_gamma 90.000000
_cell_volume 5513.751416
_symmetry_space_group_name_H-M "C M C M"
_symmetry_group_IT_number 63
_symmetry_cell_setting 'orthorhombic'
loop_
_space_group_symop_operation_xyz
x,y,z
-x,-y,1/2+z
x,-y,-z
-x,y,1/2-z
-x,-y,-z
x,y,1/2-z
-x,y,z
x,-y,1/2+z
1/2+x,1/2+y,z
1/2-x,1/2-y,1/2+z
1/2+x,1/2-y,-z
1/2-x,1/2+y,1/2-z
1/2-x,1/2-y,-z
1/2+x,1/2+y,1/2-z
1/2-x,1/2+y,z
1/2+x,1/2-y,1/2+z
loop_
_atom_site_type_symbol
_atom_site_label
_atom_site_fract_x
_atom_site_fract_y
_atom_site_fract_z
Si Si1 0.099173 0.378425 0.083356
Si Si2 0.900475 0.556082 0.342392
Si Si3 0.841122 0.729456 0.660234
Si Si4 0.367316 0.826830 0.594342
Si Si5 0.350756 0.301144 0.409424
Si Si6 0.188633 0.959083 0.652293
Si Si7 0.790408 0.083875 0.655948
Si Si8 0.144546 0.841330 0.911882
O O1 0.098382 0.326639 0.148023
O O2 0.196025 0.410631 0.102283
O O3 0.000000 0.409887 0.089536
O O4 0.103550 0.349408 0.994477
O O5 0.899763 0.534554 0.250000
O O6 0.901645 0.625317 0.343899
O O7 0.797835 0.541824 0.376422
O O8 0.000000 0.538596 0.380497
O O9 0.798646 0.731030 0.750000
O O10 0.758935 0.716491 0.595321
O O11 0.891191 0.789420 0.643726
O O12 0.394874 0.760791 0.609110
O O13 0.255833 0.833162 0.597742
O O14 0.351310 0.358493 0.355287
O O15 0.380218 0.323699 0.497207
O O16 0.188519 0.948618 0.750000
O O17 0.130966 0.907336 0.612002
O O18 0.157922 0.024356 0.636474
O O19 0.761168 0.080515 0.750000
#
# Coordination Sequence:
#
# PCOD9468187 Si02
#       8
#    16  16  16  16  16  16  16  16
#     4  11  20  31  46  67  96 133 159 186 228 273
#     4   9  18  31  46  65  91 127 167 199 225 263
#     4  10  18  29  46  70  91 117 155 196 240 288
#     4  10  17  30  47  66  91 115 155 199 240 278
#     4  10  17  30  48  66  89 117 148 197 243 283
#     4   9  19  32  47  67  93 125 160 196 232 269
#     4  10  21  34  46  68  97 126 160 196 231 277
#     4  10  16  30  50  65  88 117 153 196 244 275
#
# _framework density 23.214683999999998
#
# number of rings (size 3 to 8) (size 9 to 14) (size 15 to 20)
#    0.000    2.125    3.750    3.000    0.000    5.500 
#    0.000    1.250    0.000    2.250    0.000    0.000 
#    0.000    3.000    0.000    6.375    0.000    0.375 
#
# Total GULP energy -356426.246025 kJ/mol
# GULP energy per Si atom -5569.160094 kJ/mol
# Density = 2.316185 g / cm^3
# Si number density = 23.214684 Si / 1000 Ang^3
#
#
#
# Elastic Constant Matrix: (Units=GPa)
#
#
# Indices 1 2 3 4 5 6 
#
# 1 34.2321 -6.2131 -4.0150 0.0000 0.0000 0.0000
# 2 -6.2131 197.9053 25.1800 0.0000 0.0000 0.0000
# 3 -4.0150 25.1800 61.4460 0.0000 0.0000 0.0000
# 4 0.0000 0.0000 0.0000 25.8817 0.0000 0.0000
# 5 0.0000 0.0000 0.0000 0.0000 -38.1101 0.0000
# 6 0.0000 0.0000 0.0000 0.0000 0.0000 2.0712
#
#
#
# Elastic Compliance Matrix: (Units=1/GPa)
#
#
# Indices 1 2 3 4 5 6 
#
# 1 0.029535 0.000719 0.001635 0.000000 0.000000 0.000000
# 2 0.000719 0.005348 -0.002145 0.000000 0.000000 0.000000
# 3 0.001635 -0.002145 0.017260 0.000000 0.000000 0.000000
# 4 0.000000 0.000000 0.000000 0.038637 0.000000 0.000000
# 5 0.000000 0.000000 0.000000 0.000000 -0.026240 0.000000
# 6 0.000000 0.000000 0.000000 0.000000 0.000000 0.482818
#
#
# Mechanical properties :
#
#
# Convention : Reuss Voigt Hill
#
# Bulk Modulus (GPa) = 19.02500 35.94302 27.48401
# Shear Modulus (GPa) = 8.85802 16.54399 12.70100
#
# Velocity S-wave (km/s) = 1.95550 2.67245 2.34158
# Velocity P-wave (km/s) = 3.64852 5.00391 4.37897
#
# Compressibility (1/GPa) = 0.05256241
#
# Stress axis : x y z
#
# Youngs Moduli (GPa) = 33.85853 186.97251 57.93681
#
# Poissons Ratio (x) = -0.13447 -0.09474
# Poissons Ratio (y) = -0.02435 0.12426
# Poissons Ratio (z) = -0.05536 0.40100
#
# Static dielectric constant tensor:
#      x y z
#    x 1.921860 0.000000 0.000000 
#    y 0.000000 1.950560 0.000000 
#    z 0.000000 0.000000 1.868190 
# 
# From -- ./inp_files/47543.got.cif
#   From: 2010.05.17/outbox.cif.g08.bks.cpg/sg63_24_cif.got.tgz:47543.got - 2010.06.03 15:47:04.
