data_PCOD9468587
_publ_section_title
;
Structure prediction by ZEFSAII (Michael W. Deem and Ramdas Pophale) SiO2 
 PCOD9468587
Probable space group: C M C M
;
_chemical_formula_sum "Si O2"
_cell_formula_units_Z 96
_cell_length_a 9.013480
_cell_length_b 23.772590
_cell_length_c 27.797697
_cell_angle_alpha 90.000000
_cell_angle_beta 90.000000
_cell_angle_gamma 90.000000
_cell_volume 5956.317181
_symmetry_space_group_name_H-M "C M C M"
_symmetry_group_IT_number 63
_symmetry_cell_setting 'orthorhombic'
loop_
_space_group_symop_operation_xyz
x,y,z
-x,-y,1/2+z
x,-y,-z
-x,y,1/2-z
-x,-y,-z
x,y,1/2-z
-x,y,z
x,-y,1/2+z
1/2+x,1/2+y,z
1/2-x,1/2-y,1/2+z
1/2+x,1/2-y,-z
1/2-x,1/2+y,1/2-z
1/2-x,1/2-y,-z
1/2+x,1/2+y,1/2-z
1/2-x,1/2+y,z
1/2+x,1/2-y,1/2+z
loop_
_atom_site_type_symbol
_atom_site_label
_atom_site_fract_x
_atom_site_fract_y
_atom_site_fract_z
Si Si1 0.178343 0.736500 0.351116
Si Si2 0.676436 0.104454 0.152213
Si Si3 0.678796 0.529932 0.071155
Si Si4 0.670482 0.393897 0.750000
Si Si5 0.671486 0.742662 0.250000
Si Si6 0.319508 0.286037 0.043898
Si Si7 0.179161 0.085264 0.968394
O O1 0.215994 0.670179 0.356007
O O2 0.251157 0.758327 0.301060
O O3 0.220071 0.764701 0.402192
O O4 0.000000 0.741345 0.345771
O O5 0.500000 0.101037 0.152996
O O6 0.744194 0.064705 0.112331
O O7 0.744977 0.087125 0.202856
O O8 0.500000 0.531148 0.076502
O O9 0.727452 0.464763 0.067243
O O10 0.714556 0.561532 0.021189
O O11 0.500000 0.411493 0.750000
O O12 0.674818 0.325639 0.750000
O O13 0.500000 0.760740 0.250000
O O14 0.500000 0.282927 0.039903
O O15 0.270075 0.351166 0.039234
O O16 0.250000 0.250000 0.000000
O O17 0.000000 0.086975 0.965192
#
# Coordination Sequence:
#
# PCOD9468587 Si02
#       7
#    16  16  16   8   8  16  16
#     4   9  18  30  45  66  95 125 150 181 229 280
#     4  10  18  28  43  67  95 119 143 180 228 271
#     4   9  16  29  48  66  86 118 155 189 221 260
#     4   9  17  29  45  66  89 116 149 184 220 265
#     4   9  17  29  47  68  89 116 155 194 226 263
#     4  10  19  31  47  69  96 125 154 188 229 276
#     4   8  16  30  47  66  89 118 155 191 221 257
#
# _framework density 16.117341
#
# number of rings (size 3 to 8) (size 9 to 14) (size 15 to 20)
#    0.000    2.833    0.000    3.000    0.000    3.333 
#    0.000    2.500    0.000    1.000    0.000    3.500 
#    0.000    0.000    0.000    0.000    0.000    0.000 
#
# Total GULP energy -267247.149625 kJ/mol
# GULP energy per Si atom -5567.648951 kJ/mol
# Density = 1.608066 g / cm^3
# Si number density = 16.117341 Si / 1000 Ang^3
#
#
#
# Elastic Constant Matrix: (Units=GPa)
#
#
# Indices 1 2 3 4 5 6 
#
# 1 31.4316 36.1601 46.4201 0.0000 0.0000 0.0000
# 2 36.1601 111.7141 76.8039 0.0000 0.0000 0.0000
# 3 46.4201 76.8039 135.6614 0.0000 0.0000 0.0000
# 4 0.0000 0.0000 0.0000 26.4340 0.0000 0.0000
# 5 0.0000 0.0000 0.0000 0.0000 27.9655 0.0000
# 6 0.0000 0.0000 0.0000 0.0000 0.0000 15.4931
#
#
#
# Elastic Compliance Matrix: (Units=1/GPa)
#
#
# Indices 1 2 3 4 5 6 
#
# 1 0.070835 -0.010257 -0.018431 0.000000 0.000000 0.000000
# 2 -0.010257 0.016141 -0.005629 0.000000 0.000000 0.000000
# 3 -0.018431 -0.005629 0.016865 0.000000 0.000000 0.000000
# 4 0.000000 0.000000 0.000000 0.037830 0.000000 0.000000
# 5 0.000000 0.000000 0.000000 0.000000 0.035758 0.000000
# 6 0.000000 0.000000 0.000000 0.000000 0.000000 0.064545
#
#
# Mechanical properties :
#
#
# Convention : Reuss Voigt Hill
#
# Bulk Modulus (GPa) = 28.40281 66.39725 47.40003
# Shear Modulus (GPa) = 15.51142 21.94006 18.72574
#
# Velocity S-wave (km/s) = 3.10563 3.69354 3.41227
# Velocity P-wave (km/s) = 5.52455 7.71202 6.70805
#
# Compressibility (1/GPa) = 0.03520778
#
# Stress axis : x y z
#
# Youngs Moduli (GPa) = 14.11725 61.95412 59.29564
#
# Poissons Ratio (x) = 0.63544 1.09290
# Poissons Ratio (y) = 0.14480 0.33375
# Poissons Ratio (z) = 0.26020 0.34871
#
# Static dielectric constant tensor:
#      x y z
#    x 1.540650 0.000000 0.000000 
#    y 0.000000 1.538290 0.000000 
#    z 0.000000 0.000000 1.527780 
# 
# From -- ./inp_files/67268.got.cif
#   From: 2010.05.17/outbox.cif.g08.bks.cpg/sg63_34_cif.got.tgz:67268.got - 2010.06.03 15:47:04.
