data_PCOD9468825
_publ_section_title
;
Structure prediction by ZEFSAII (Michael W. Deem and Ramdas Pophale) SiO2 
 PCOD9468825
Probable space group: C M C M
;
_chemical_formula_sum "Si O2"
_cell_formula_units_Z 120
_cell_length_a 27.951455
_cell_length_b 22.593146
_cell_length_c 10.945054
_cell_angle_alpha 90.000000
_cell_angle_beta 90.000000
_cell_angle_gamma 90.000000
_cell_volume 6911.925321
_symmetry_space_group_name_H-M "C M C M"
_symmetry_group_IT_number 63
_symmetry_cell_setting 'orthorhombic'
loop_
_space_group_symop_operation_xyz
x,y,z
-x,-y,1/2+z
x,-y,-z
-x,y,1/2-z
-x,-y,-z
x,y,1/2-z
-x,y,z
x,-y,1/2+z
1/2+x,1/2+y,z
1/2-x,1/2-y,1/2+z
1/2+x,1/2-y,-z
1/2-x,1/2+y,1/2-z
1/2-x,1/2-y,-z
1/2+x,1/2+y,1/2-z
1/2-x,1/2+y,z
1/2+x,1/2-y,1/2+z
loop_
_atom_site_type_symbol
_atom_site_label
_atom_site_fract_x
_atom_site_fract_y
_atom_site_fract_z
Si Si1 0.838634 0.000000 0.500000
Si Si2 0.385542 0.386075 0.888443
Si Si3 0.744168 0.436690 0.382877
Si Si4 0.445893 0.723978 0.397569
Si Si5 0.804047 0.726217 0.385128
Si Si6 0.634189 0.178169 0.892528
Si Si7 0.356166 0.960977 0.386628
Si Si8 0.289545 0.667796 0.039709
O O1 0.871474 0.944316 0.535569
O O2 0.800108 0.982129 0.395133
O O3 0.398908 0.403009 0.750000
O O4 0.423599 0.338749 0.940204
O O5 0.336299 0.348803 0.886339
O O6 0.741358 0.407150 0.250000
O O7 0.797829 0.461451 0.390400
O O8 0.735794 0.391132 0.491833
O O9 0.447010 0.719113 0.250000
O O10 0.500000 0.732718 0.441568
O O11 0.411289 0.779879 0.420809
O O12 0.823838 0.714077 0.250000
O O13 0.828479 0.694244 0.500946
O O14 0.748884 0.706272 0.388800
O O15 0.805763 0.794845 0.421490
O O16 0.648941 0.190649 0.750000
O O17 0.627432 0.107406 0.898148
O O18 0.369855 0.981974 0.250000
O O19 0.373499 0.000000 0.500000
#
# Coordination Sequence:
#
# PCOD9468825 Si02
#       8
#     8  16  16  16  16  16  16  16
#     4  10  20  30  43  72 106 142 181 214 262 314
#     4  10  19  33  52  75 104 139 181 229 270 311
#     4  10  18  30  44  62  97 145 188 218 246 294
#     4   9  18  35  61  85 100 125 174 235 287 330
#     4  11  21  30  47  77 110 145 180 218 267 326
#     4  10  20  36  56  79 109 140 175 225 276 323
#     4  10  20  34  50  73 106 146 182 217 255 306
#     4  10  20  31  44  69 107 146 182 216 261 316
#
# _framework density 17.361298000000001
#
# number of rings (size 3 to 8) (size 9 to 14) (size 15 to 20)
#    0.000    2.000    3.333    1.200    0.000    2.667 
#    0.000    0.333    0.000    0.800    0.000    0.000 
#    0.000    0.000    0.000    0.000    0.000    0.000 
#
# Total GULP energy -334020.460306 kJ/mol
# GULP energy per Si atom -5567.007672 kJ/mol
# Density = 1.732178 g / cm^3
# Si number density = 17.361298 Si / 1000 Ang^3
#
#
#
# Elastic Constant Matrix: (Units=GPa)
#
#
# Indices 1 2 3 4 5 6 
#
# 1 62.6923 31.3168 20.3404 0.0000 0.0000 0.0000
# 2 31.3168 87.2049 38.4717 0.0000 0.0000 0.0000
# 3 20.3404 38.4717 81.8740 0.0000 0.0000 0.0000
# 4 0.0000 0.0000 0.0000 8.5954 0.0000 0.0000
# 5 0.0000 0.0000 0.0000 0.0000 10.5119 0.0000
# 6 0.0000 0.0000 0.0000 0.0000 0.0000 13.7015
#
#
#
# Elastic Compliance Matrix: (Units=1/GPa)
#
#
# Indices 1 2 3 4 5 6 
#
# 1 0.019689 -0.006197 -0.001979 0.000000 0.000000 0.000000
# 2 -0.006197 0.016417 -0.006174 0.000000 0.000000 0.000000
# 3 -0.001979 -0.006174 0.015607 0.000000 0.000000 0.000000
# 4 0.000000 0.000000 0.000000 0.116342 0.000000 0.000000
# 5 0.000000 0.000000 0.000000 0.000000 0.095130 0.000000
# 6 0.000000 0.000000 0.000000 0.000000 0.000000 0.072985
#
#
# Mechanical properties :
#
#
# Convention : Reuss Voigt Hill
#
# Bulk Modulus (GPa) = 43.45881 45.78100 44.61990
# Shear Modulus (GPa) = 13.42134 16.00459 14.71296
#
# Velocity S-wave (km/s) = 2.78341 3.03950 2.91427
# Velocity P-wave (km/s) = 5.95115 6.22454 6.08938
#
# Compressibility (1/GPa) = 0.02301030
#
# Stress axis : x y z
#
# Youngs Moduli (GPa) = 50.79004 60.91337 64.07420
#
# Poissons Ratio (x) = 0.37751 0.12682
# Poissons Ratio (y) = 0.31477 0.39562
# Poissons Ratio (z) = 0.10053 0.37610
#
# Static dielectric constant tensor:
#      x y z
#    x 1.583330 0.000000 0.000000 
#    y 0.000000 1.633950 0.000000 
#    z 0.000000 0.000000 1.633460 
# 
# From -- ./inp_files/25239.got.cif
#   From: 2010.05.17/outbox.cif.g08.bks.cpg/sg63_13_cif.got.tgz:25239.got - 2010.06.03 15:47:04.
