data_PCOD9468433
_publ_section_title
;
Structure prediction by ZEFSAII (Michael W. Deem and Ramdas Pophale) SiO2 
 PCOD9468433
Probable space group: C M C M
;
_chemical_formula_sum "Si O2"
_cell_formula_units_Z 88
_cell_length_a 15.527679
_cell_length_b 14.287139
_cell_length_c 20.700081
_cell_angle_alpha 90.000000
_cell_angle_beta 90.000000
_cell_angle_gamma 90.000000
_cell_volume 4592.232410
_symmetry_space_group_name_H-M "C M C M"
_symmetry_group_IT_number 63
_symmetry_cell_setting 'orthorhombic'
loop_
_space_group_symop_operation_xyz
x,y,z
-x,-y,1/2+z
x,-y,-z
-x,y,1/2-z
-x,-y,-z
x,y,1/2-z
-x,y,z
x,-y,1/2+z
1/2+x,1/2+y,z
1/2-x,1/2-y,1/2+z
1/2+x,1/2-y,-z
1/2-x,1/2+y,1/2-z
1/2-x,1/2-y,-z
1/2+x,1/2+y,1/2-z
1/2-x,1/2+y,z
1/2+x,1/2-y,1/2+z
loop_
_atom_site_type_symbol
_atom_site_label
_atom_site_fract_x
_atom_site_fract_y
_atom_site_fract_z
Si Si1 0.640366 0.043217 0.750000
Si Si2 0.209373 0.350323 0.750000
Si Si3 0.185420 0.640503 0.112630
Si Si4 0.171103 0.128393 0.750000
Si Si5 0.752071 0.891237 0.480264
Si Si6 0.098360 0.834896 0.115586
Si Si7 0.098115 0.561642 0.606399
O O1 0.741919 0.067969 0.750000
O O2 0.632526 0.929213 0.750000
O O3 0.603765 0.082421 0.683095
O O4 0.243751 0.369141 0.822651
O O5 0.195219 0.239059 0.750000
O O6 0.119369 0.724786 0.124785
O O7 0.132202 0.545375 0.101390
O O8 0.239209 0.660875 0.048187
O O9 0.119695 0.114930 0.816357
O O10 0.834733 0.867440 0.438308
O O11 0.758629 0.000000 0.500000
O O12 0.666768 0.880792 0.435707
O O13 0.000000 0.849060 0.097601
O O14 0.000000 0.570723 0.583987
#
# Coordination Sequence:
#
# PCOD9468433 Si02
#       7
#     8   8  16   8  16  16  16
#     4  10  17  33  54  78 112 143 175 220 276 320
#     4   8  18  32  55  82  99 140 176 224 273 326
#     4   9  19  34  54  79 107 135 175 223 278 322
#     4  10  19  35  56  82 108 137 185 226 270 318
#     4  10  21  35  52  78 109 145 178 215 262 324
#     4  11  21  35  55  79 108 142 181 226 267 310
#     4  10  19  32  53  81 109 139 176 217 271 333
#
# _framework density 19.162793000000001
#
# number of rings (size 3 to 8) (size 9 to 14) (size 15 to 20)
#    0.000    2.182    1.818    1.636    0.000    4.364 
#    0.000    5.455    0.000    0.000    0.000    3.182 
#    0.000    0.000    0.000    0.000    0.000    0.000 
#
# Total GULP energy -245058.113564 kJ/mol
# GULP energy per Si atom -5569.502581 kJ/mol
# Density = 1.911918 g / cm^3
# Si number density = 19.162793 Si / 1000 Ang^3
#
#
#
# Elastic Constant Matrix: (Units=GPa)
#
#
# Indices 1 2 3 4 5 6 
#
# 1 141.2561 22.5118 73.3861 0.0000 0.0000 0.0000
# 2 22.5118 30.2494 9.6081 0.0000 0.0000 0.0000
# 3 73.3861 9.6081 158.9337 0.0000 0.0000 0.0000
# 4 0.0000 0.0000 0.0000 17.1453 0.0000 0.0000
# 5 0.0000 0.0000 0.0000 0.0000 4.4022 0.0000
# 6 0.0000 0.0000 0.0000 0.0000 0.0000 13.5297
#
#
#
# Elastic Compliance Matrix: (Units=1/GPa)
#
#
# Indices 1 2 3 4 5 6 
#
# 1 0.010378 -0.006323 -0.004410 0.000000 0.000000 0.000000
# 2 -0.006323 0.037558 0.000649 0.000000 0.000000 0.000000
# 3 -0.004410 0.000649 0.008289 0.000000 0.000000 0.000000
# 4 0.000000 0.000000 0.000000 0.058325 0.000000 0.000000
# 5 0.000000 0.000000 0.000000 0.000000 0.227162 0.000000
# 6 0.000000 0.000000 0.000000 0.000000 0.000000 0.073911
#
#
# Mechanical properties :
#
#
# Convention : Reuss Voigt Hill
#
# Bulk Modulus (GPa) = 27.73336 60.16125 43.94731
# Shear Modulus (GPa) = 11.16549 22.01097 16.58823
#
# Velocity S-wave (km/s) = 2.41646 3.39282 2.94538
# Velocity P-wave (km/s) = 4.72119 6.84188 5.87797
#
# Compressibility (1/GPa) = 0.03605765
#
# Stress axis : x y z
#
# Youngs Moduli (GPa) = 96.35850 26.62568 120.64436
#
# Poissons Ratio (x) = 0.16835 0.53200
# Poissons Ratio (y) = 0.60924 -0.07829
# Poissons Ratio (z) = 0.42491 -0.01728
#
# Static dielectric constant tensor:
#      x y z
#    x 1.623690 0.000000 0.000000 
#    y 0.000000 1.713850 0.000000 
#    z 0.000000 0.000000 1.748410 
# 
# From -- ./inp_files/44180.got.cif
#   From: 2010.05.17/outbox.cif.g08.bks.cpg/sg63_23_cif.got.tgz:44180.got - 2010.06.03 15:47:04.
