data_PCOD9468281
_publ_section_title
;
Structure prediction by ZEFSAII (Michael W. Deem and Ramdas Pophale) SiO2 
 PCOD9468281
Probable space group: C M C M
;
_chemical_formula_sum "Si O2"
_cell_formula_units_Z 96
_cell_length_a 9.412412
_cell_length_b 21.798398
_cell_length_c 27.447602
_cell_angle_alpha 90.000000
_cell_angle_beta 90.000000
_cell_angle_gamma 90.000000
_cell_volume 5631.575544
_symmetry_space_group_name_H-M "C M C M"
_symmetry_group_IT_number 63
_symmetry_cell_setting 'orthorhombic'
loop_
_space_group_symop_operation_xyz
x,y,z
-x,-y,1/2+z
x,-y,-z
-x,y,1/2-z
-x,-y,-z
x,y,1/2-z
-x,y,z
x,-y,1/2+z
1/2+x,1/2+y,z
1/2-x,1/2-y,1/2+z
1/2+x,1/2-y,-z
1/2-x,1/2+y,1/2-z
1/2-x,1/2-y,-z
1/2+x,1/2+y,1/2-z
1/2-x,1/2+y,z
1/2+x,1/2-y,1/2+z
loop_
_atom_site_type_symbol
_atom_site_label
_atom_site_fract_x
_atom_site_fract_y
_atom_site_fract_z
Si Si1 0.663627 0.195739 0.750000
Si Si2 0.836518 0.546629 0.750000
Si Si3 0.839866 0.344603 0.996492
Si Si4 0.834045 0.951764 0.044122
Si Si5 0.167049 0.949073 0.152614
Si Si6 0.160793 0.231706 0.428997
Si Si7 0.831975 0.801535 0.153554
O O1 0.500000 0.215963 0.750000
O O2 0.663068 0.121210 0.750000
O O3 0.750019 0.215288 0.797289
O O4 0.756807 0.529606 0.800452
O O5 0.000000 0.525893 0.750000
O O6 0.737481 0.327368 0.951805
O O7 0.000000 0.361780 0.981716
O O8 0.767362 0.396218 0.029347
O O9 0.850217 0.283106 0.028802
O O10 0.798315 0.975223 0.098736
O O11 0.000000 0.931374 0.046746
O O12 0.823351 0.000000 0.000000
O O13 0.187035 0.875147 0.146785
O O14 0.000000 0.959474 0.162689
O O15 0.259453 0.263031 0.388896
O O16 0.000000 0.218975 0.412025
O O17 0.000000 0.790351 0.156367
#
# Coordination Sequence:
#
# PCOD9468281 Si02
#       7
#     8   8  16  16  16  16  16
#     4   9  17  27  39  61  94 125 156 191 235 288
#     4   9  17  27  43  65  90 121 156 197 239 284
#     4  10  20  32  47  68  94 124 160 198 236 281
#     4  10  20  34  51  71  98 132 166 201 244 295
#     4   9  17  29  45  66  94 126 158 194 237 288
#     4  10  19  30  47  68  93 125 159 195 236 282
#     4  10  17  27  44  66  93 125 159 195 238 284
#
# _framework density 17.046738999999999
#
# number of rings (size 3 to 8) (size 9 to 14) (size 15 to 20)
#    0.000    2.333    1.667    2.000    0.000    5.000 
#    0.000    0.000    0.000    0.000    0.000    1.167 
#    0.000    2.667    0.000    0.000    0.000    0.000 
#
# Total GULP energy -267396.067108 kJ/mol
# GULP energy per Si atom -5570.751398 kJ/mol
# Density = 1.700794 g / cm^3
# Si number density = 17.046739 Si / 1000 Ang^3
#
#
#
# Elastic Constant Matrix: (Units=GPa)
#
#
# Indices 1 2 3 4 5 6 
#
# 1 124.0346 17.7743 64.5237 0.0000 0.0000 0.0000
# 2 17.7743 8.6150 9.6828 0.0000 0.0000 0.0000
# 3 64.5237 9.6828 120.7191 0.0000 0.0000 0.0000
# 4 0.0000 0.0000 0.0000 20.3983 0.0000 0.0000
# 5 0.0000 0.0000 0.0000 0.0000 27.3435 0.0000
# 6 0.0000 0.0000 0.0000 0.0000 0.0000 5.7960
#
#
#
# Elastic Compliance Matrix: (Units=1/GPa)
#
#
# Indices 1 2 3 4 5 6 
#
# 1 0.014431 -0.023195 -0.005853 0.000000 0.000000 0.000000
# 2 -0.023195 0.164860 -0.000826 0.000000 0.000000 0.000000
# 3 -0.005853 -0.000826 0.011478 0.000000 0.000000 0.000000
# 4 0.000000 0.000000 0.000000 0.049024 0.000000 0.000000
# 5 0.000000 0.000000 0.000000 0.000000 0.036572 0.000000
# 6 0.000000 0.000000 0.000000 0.000000 0.000000 0.172534
#
#
# Mechanical properties :
#
#
# Convention : Reuss Voigt Hill
#
# Bulk Modulus (GPa) = 7.63229 48.59224 28.11226
# Shear Modulus (GPa) = 9.05273 21.46676 15.25974
#
# Velocity S-wave (km/s) = 2.30696 3.55249 2.99519
# Velocity P-wave (km/s) = 3.40339 6.73752 5.33747
#
# Compressibility (1/GPa) = 0.13102233
#
# Stress axis : x y z
#
# Youngs Moduli (GPa) = 69.29644 6.06574 87.12204
#
# Poissons Ratio (x) = 0.14070 0.50990
# Poissons Ratio (y) = 1.60734 0.07194
# Poissons Ratio (z) = 0.40557 0.00501
#
# Static dielectric constant tensor:
#      x y z
#    x 1.586030 0.000000 0.000000 
#    y 0.000000 1.543540 0.000000 
#    z 0.000000 0.000000 1.610370 
# 
# From -- ./inp_files/60077.got.cif
#   From: 2010.05.17/outbox.cif.g08.bks.cpg/sg63_31_cif.got.tgz:60077.got - 2010.06.03 15:47:04.
