data_PCOD9468282
_publ_section_title
;
Structure prediction by ZEFSAII (Michael W. Deem and Ramdas Pophale) SiO2 
 PCOD9468282
Probable space group: C M C M
;
_chemical_formula_sum "Si O2"
_cell_formula_units_Z 112
_cell_length_a 7.311200
_cell_length_b 25.743906
_cell_length_c 25.297189
_cell_angle_alpha 90.000000
_cell_angle_beta 90.000000
_cell_angle_gamma 90.000000
_cell_volume 4761.407709
_symmetry_space_group_name_H-M "C M C M"
_symmetry_group_IT_number 63
_symmetry_cell_setting 'orthorhombic'
loop_
_space_group_symop_operation_xyz
x,y,z
-x,-y,1/2+z
x,-y,-z
-x,y,1/2-z
-x,-y,-z
x,y,1/2-z
-x,y,z
x,-y,1/2+z
1/2+x,1/2+y,z
1/2-x,1/2-y,1/2+z
1/2+x,1/2-y,-z
1/2-x,1/2+y,1/2-z
1/2-x,1/2-y,-z
1/2+x,1/2+y,1/2-z
1/2-x,1/2+y,z
1/2+x,1/2-y,1/2+z
loop_
_atom_site_type_symbol
_atom_site_label
_atom_site_fract_x
_atom_site_fract_y
_atom_site_fract_z
Si Si1 0.777020 0.900398 0.000927
Si Si2 0.715613 0.613599 0.621442
Si Si3 0.716014 0.709043 0.044977
Si Si4 0.276599 0.518708 0.810085
Si Si5 0.222478 0.838690 0.807364
Si Si6 0.222539 0.927231 0.888651
Si Si7 0.280173 0.766525 0.148105
O O1 0.717451 0.845180 0.976789
O O2 0.722663 0.935725 0.950237
O O3 0.000000 0.903210 0.003716
O O4 0.713114 0.899629 0.062010
O O5 0.500000 0.604244 0.617141
O O6 0.784343 0.573340 0.665066
O O7 0.732693 0.672982 0.641646
O O8 0.500000 0.701164 0.054660
O O9 0.789442 0.737090 0.096125
O O10 0.750000 0.750000 0.000000
O O11 0.215797 0.511161 0.750000
O O12 0.500000 0.517820 0.808782
O O13 0.220879 0.473751 0.850511
O O14 0.277964 0.860482 0.750000
O O15 0.279337 0.874180 0.857530
O O16 0.275758 0.777699 0.809916
O O17 0.000000 0.840034 0.808824
O O18 0.000000 0.925753 0.889790
O O19 0.500000 0.767413 0.149591
#
# Coordination Sequence:
#
# PCOD9468282 Si02
#       7
#    16  16  16  16  16  16  16
#     4   9  16  26  42  67  96 121 149 188 237 282
#     4  10  20  32  47  69  99 131 159 190 229 280
#     4  10  17  27  44  67  96 127 156 186 225 279
#     4   9  18  31  46  66  93 126 162 196 234 282
#     4   9  16  26  42  66  94 121 152 196 245 282
#     4   9  15  26  45  68  94 121 151 195 247 287
#     4  10  19  30  46  70  97 125 158 195 231 276
#
# _framework density 23.522455999999998
#
# number of rings (size 3 to 8) (size 9 to 14) (size 15 to 20)
#    0.000    2.571    2.857    0.429    0.000    2.857 
#    0.000    2.857    0.000    0.000    0.000    4.000 
#    0.000    2.286    0.000    0.000    0.000    0.000 
#
# Total GULP energy -312047.494668 kJ/mol
# GULP energy per Si atom -5572.276690 kJ/mol
# Density = 2.346892 g / cm^3
# Si number density = 23.522456 Si / 1000 Ang^3
#
#
#
# Elastic Constant Matrix: (Units=GPa)
#
#
# Indices 1 2 3 4 5 6 
#
# 1 90.0430 -0.8047 4.2707 0.0000 0.0000 0.0000
# 2 -0.8047 83.4502 3.3185 0.0000 0.0000 0.0000
# 3 4.2707 3.3185 35.5538 0.0000 0.0000 0.0000
# 4 0.0000 0.0000 0.0000 37.5563 0.0000 0.0000
# 5 0.0000 0.0000 0.0000 0.0000 -11.0058 0.0000
# 6 0.0000 0.0000 0.0000 0.0000 0.0000 8.3297
#
#
#
# Elastic Compliance Matrix: (Units=1/GPa)
#
#
# Indices 1 2 3 4 5 6 
#
# 1 0.011172 0.000162 -0.001357 0.000000 0.000000 0.000000
# 2 0.000162 0.012030 -0.001142 0.000000 0.000000 0.000000
# 3 -0.001357 -0.001142 0.028396 0.000000 0.000000 0.000000
# 4 0.000000 0.000000 0.000000 0.026627 0.000000 0.000000
# 5 0.000000 0.000000 0.000000 0.000000 -0.090861 0.000000
# 6 0.000000 0.000000 0.000000 0.000000 0.000000 0.120052
#
#
# Mechanical properties :
#
#
# Convention : Reuss Voigt Hill
#
# Bulk Modulus (GPa) = 21.31170 24.73511 23.02341
# Shear Modulus (GPa) = 39.14468 20.46022 29.80245
#
# Velocity S-wave (km/s) = 4.08381 2.95246 3.56333
# Velocity P-wave (km/s) = 5.59612 4.70756 5.17096
#
# Compressibility (1/GPa) = 0.04692258
#
# Stress axis : x y z
#
# Youngs Moduli (GPa) = 89.51262 83.12427 35.21617
#
# Poissons Ratio (x) = -0.01344 0.04779
# Poissons Ratio (y) = -0.01447 0.04023
# Poissons Ratio (z) = 0.12147 0.09495
#
# Static dielectric constant tensor:
#      x y z
#    x 1.960700 0.000000 0.000000 
#    y 0.000000 1.883380 0.000000 
#    z 0.000000 0.000000 1.874740 
# 
# From -- ./inp_files/61913.got.cif
#   From: 2010.05.17/outbox.cif.g08.bks.cpg/sg63_31_cif.got.tgz:61913.got - 2010.06.03 15:47:04.
