data_PCOD9468793
_publ_section_title
;
Structure prediction by ZEFSAII (Michael W. Deem and Ramdas Pophale) SiO2 
 PCOD9468793
Probable space group: C M C M
;
_chemical_formula_sum "Si O2"
_cell_formula_units_Z 80
_cell_length_a 14.022018
_cell_length_b 23.326550
_cell_length_c 14.856723
_cell_angle_alpha 90.000000
_cell_angle_beta 90.000000
_cell_angle_gamma 90.000000
_cell_volume 4859.415759
_symmetry_space_group_name_H-M "C M C M"
_symmetry_group_IT_number 63
_symmetry_cell_setting 'orthorhombic'
loop_
_space_group_symop_operation_xyz
x,y,z
-x,-y,1/2+z
x,-y,-z
-x,y,1/2-z
-x,-y,-z
x,y,1/2-z
-x,y,z
x,-y,1/2+z
1/2+x,1/2+y,z
1/2-x,1/2-y,1/2+z
1/2+x,1/2-y,-z
1/2-x,1/2+y,1/2-z
1/2-x,1/2-y,-z
1/2+x,1/2+y,1/2-z
1/2-x,1/2+y,z
1/2+x,1/2-y,1/2+z
loop_
_atom_site_type_symbol
_atom_site_label
_atom_site_fract_x
_atom_site_fract_y
_atom_site_fract_z
Si Si1 0.112856 0.102571 0.250000
Si Si2 0.384557 0.768127 0.147520
Si Si3 0.294269 0.443077 0.440399
Si Si4 0.612263 0.098762 0.643028
Si Si5 0.883919 0.154441 0.439051
Si Si6 0.112071 0.033222 0.750000
O O1 0.147518 0.128737 0.157353
O O2 0.000000 0.115022 0.250000
O O3 0.126288 0.035093 0.250000
O O4 0.351708 0.753873 0.250000
O O5 0.500000 0.765524 0.151293
O O6 0.360793 0.834170 0.129523
O O7 0.357059 0.721351 0.072739
O O8 0.315712 0.500000 0.500000
O O9 0.182079 0.437808 0.418887
O O10 0.334171 0.386307 0.489004
O O11 0.342867 0.445394 0.342515
O O12 0.625550 0.086491 0.750000
O O13 0.500000 0.091828 0.623674
O O14 0.000000 0.149884 0.448925
O O15 0.000000 0.045630 0.750000
#
# Coordination Sequence:
#
# PCOD9468793 Si02
#       6
#     8  16  16  16  16   8
#     4   9  16  28  47  69 103 137 162 199 237 279
#     4   8  14  28  52  76  99 130 167 208 251 290
#     4  12  23  33  51  77 103 137 173 203 251 305
#     4   9  19  37  56  72  96 130 171 220 260 289
#     4  10  18  29  49  80 108 131 163 204 248 300
#     4  11  22  36  48  69 111 147 167 195 240 303
#
# _framework density 16.462885
#
# number of rings (size 3 to 8) (size 9 to 14) (size 15 to 20)
#    0.000    2.200    4.000    1.800    0.000    2.000 
#    0.000    0.000    0.000    0.000    0.000    0.000 
#    0.000    0.000    0.000    0.000    0.000    0.000 
#
# Total GULP energy -222699.672699 kJ/mol
# GULP energy per Si atom -5567.491817 kJ/mol
# Density = 1.642541 g / cm^3
# Si number density = 16.462885 Si / 1000 Ang^3
#
#
#
# Elastic Constant Matrix: (Units=GPa)
#
#
# Indices 1 2 3 4 5 6 
#
# 1 62.6052 13.7254 36.0850 0.0000 0.0000 0.0000
# 2 13.7254 30.6101 28.4238 0.0000 0.0000 0.0000
# 3 36.0850 28.4238 95.0434 0.0000 0.0000 0.0000
# 4 0.0000 0.0000 0.0000 10.8056 0.0000 0.0000
# 5 0.0000 0.0000 0.0000 0.0000 10.8811 0.0000
# 6 0.0000 0.0000 0.0000 0.0000 0.0000 19.0492
#
#
#
# Elastic Compliance Matrix: (Units=1/GPa)
#
#
# Indices 1 2 3 4 5 6 
#
# 1 0.020612 -0.002735 -0.007008 0.000000 0.000000 0.000000
# 2 -0.002735 0.045592 -0.012596 0.000000 0.000000 0.000000
# 3 -0.007008 -0.012596 0.016949 0.000000 0.000000 0.000000
# 4 0.000000 0.000000 0.000000 0.092545 0.000000 0.000000
# 5 0.000000 0.000000 0.000000 0.000000 0.091902 0.000000
# 6 0.000000 0.000000 0.000000 0.000000 0.000000 0.052496
#
#
# Mechanical properties :
#
#
# Convention : Reuss Voigt Hill
#
# Bulk Modulus (GPa) = 25.99102 38.30300 32.14701
# Shear Modulus (GPa) = 13.24156 15.48216 14.36186
#
# Velocity S-wave (km/s) = 2.83914 3.06997 2.95681
# Velocity P-wave (km/s) = 5.15457 5.99025 5.58805
#
# Compressibility (1/GPa) = 0.03847483
#
# Stress axis : x y z
#
# Youngs Moduli (GPa) = 48.51557 21.93360 58.99975
#
# Poissons Ratio (x) = 0.05999 0.41345
# Poissons Ratio (y) = 0.13269 0.74319
# Poissons Ratio (z) = 0.33998 0.27628
#
# Static dielectric constant tensor:
#      x y z
#    x 1.551700 0.000000 0.000000 
#    y 0.000000 1.578930 0.000000 
#    z 0.000000 0.000000 1.570670 
# 
# From -- ./inp_files/29786.got.cif
#   From: 2010.05.17/outbox.cif.g08.bks.cpg/sg63_15_cif.got.tgz:29786.got - 2010.06.03 15:47:04.
