data_PCOD9468726
_publ_section_title
;
Structure prediction by ZEFSAII (Michael W. Deem and Ramdas Pophale) SiO2 
 PCOD9468726
Probable space group: C M C M
;
_chemical_formula_sum "Si O2"
_cell_formula_units_Z 80
_cell_length_a 24.035606
_cell_length_b 24.644964
_cell_length_c 9.035895
_cell_angle_alpha 90.000000
_cell_angle_beta 90.000000
_cell_angle_gamma 90.000000
_cell_volume 5352.472443
_symmetry_space_group_name_H-M "C M C M"
_symmetry_group_IT_number 63
_symmetry_cell_setting 'orthorhombic'
loop_
_space_group_symop_operation_xyz
x,y,z
-x,-y,1/2+z
x,-y,-z
-x,y,1/2-z
-x,-y,-z
x,y,1/2-z
-x,y,z
x,-y,1/2+z
1/2+x,1/2+y,z
1/2-x,1/2-y,1/2+z
1/2+x,1/2-y,-z
1/2-x,1/2+y,1/2-z
1/2-x,1/2-y,-z
1/2+x,1/2+y,1/2-z
1/2-x,1/2+y,z
1/2+x,1/2-y,1/2+z
loop_
_atom_site_type_symbol
_atom_site_label
_atom_site_fract_x
_atom_site_fract_y
_atom_site_fract_z
Si Si1 0.773049 0.666309 0.925886
Si Si2 0.436051 0.673184 0.428045
Si Si3 0.260839 0.443296 0.573340
Si Si4 0.837253 0.761555 0.074243
Si Si5 0.893208 0.055930 0.073811
O O1 0.780675 0.661288 0.750000
O O2 0.713769 0.696428 0.952183
O O3 0.769702 0.608068 0.002834
O O4 0.819007 0.705872 0.995949
O O5 0.427479 0.675732 0.250000
O O6 0.500000 0.686674 0.459694
O O7 0.392469 0.712431 0.506597
O O8 0.423611 0.610911 0.474050
O O9 0.243344 0.500000 0.500000
O O10 0.253754 0.444697 0.750000
O O11 0.327223 0.437273 0.542577
O O12 0.842163 0.753795 0.250000
O O13 0.899892 0.050635 0.250000
O O14 0.912284 0.000000 0.000000
#
# Coordination Sequence:
#
# PCOD9468726 Si02
#       5
#    16  16  16  16  16
#     4  10  19  31  49  70  93 121 154 192 237 288
#     4  10  20  34  49  65  90 124 161 201 242 282
#     4  10  18  29  46  68  96 125 156 194 236 280
#     4  10  20  32  48  69  92 119 155 196 240 285
#     4   9  18  30  44  62  87 120 159 200 238 276
#
# _framework density 14.946363
#
# number of rings (size 3 to 8) (size 9 to 14) (size 15 to 20)
#    0.000    2.200    2.000    1.800    0.000    4.000 
#    0.000    0.000    0.000    0.000    0.000    0.000 
#    0.000    0.800    0.000    3.000    0.000    4.600 
#
# Total GULP energy -223178.732699 kJ/mol
# GULP energy per Si atom -5579.468317 kJ/mol
# Density = 1.491234 g / cm^3
# Si number density = 14.946363 Si / 1000 Ang^3
#
#
#
# Elastic Constant Matrix: (Units=GPa)
#
#
# Indices 1 2 3 4 5 6 
#
# 1 76.7614 59.4607 47.0315 0.0000 0.0000 0.0000
# 2 59.4607 123.8088 67.1883 0.0000 0.0000 0.0000
# 3 47.0315 67.1883 51.0322 0.0000 0.0000 0.0000
# 4 0.0000 0.0000 0.0000 31.9917 0.0000 0.0000
# 5 0.0000 0.0000 0.0000 0.0000 18.2782 0.0000
# 6 0.0000 0.0000 0.0000 0.0000 0.0000 19.6048
#
#
#
# Elastic Compliance Matrix: (Units=1/GPa)
#
#
# Indices 1 2 3 4 5 6 
#
# 1 0.030079 0.002094 -0.030477 0.000000 0.000000 0.000000
# 2 0.002094 0.028435 -0.039366 0.000000 0.000000 0.000000
# 3 -0.030477 -0.039366 0.099512 0.000000 0.000000 0.000000
# 4 0.000000 0.000000 0.000000 0.031258 0.000000 0.000000
# 5 0.000000 0.000000 0.000000 0.000000 0.054710 0.000000
# 6 0.000000 0.000000 0.000000 0.000000 0.000000 0.051008
#
#
# Mechanical properties :
#
#
# Convention : Reuss Voigt Hill
#
# Bulk Modulus (GPa) = 44.39242 66.55150 55.47196
# Shear Modulus (GPa) = 11.41524 19.16971 15.29248
#
# Velocity S-wave (km/s) = 2.76660 3.58518 3.20215
# Velocity P-wave (km/s) = 6.32226 7.85885 7.13206
#
# Compressibility (1/GPa) = 0.02252637
#
# Stress axis : x y z
#
# Youngs Moduli (GPa) = 33.24576 35.16833 10.04899
#
# Poissons Ratio (x) = -0.07363 0.30627
# Poissons Ratio (y) = -0.06960 0.39559
# Poissons Ratio (z) = 1.01324 1.38444
#
# Static dielectric constant tensor:
#      x y z
#    x 1.473370 0.000000 0.000000 
#    y 0.000000 1.482310 0.000000 
#    z 0.000000 0.000000 1.495480 
# 
# From -- ./inp_files/6372.got.cif
#   From: 2010.05.17/outbox.cif.g08.bks.cpg/sg63_4_cif.got.tgz:6372.got - 2010.06.03 15:47:04.
