data_PCOD9468037
_publ_section_title
;
Structure prediction by ZEFSAII (Michael W. Deem and Ramdas Pophale) SiO2 
 PCOD9468037
Probable space group: P N M A
;
_chemical_formula_sum "Si O2"
_cell_formula_units_Z 64
_cell_length_a 12.000000
_cell_length_b 18.000000
_cell_length_c 15.000000
_cell_angle_alpha 90.000000
_cell_angle_beta 90.000000
_cell_angle_gamma 90.000000
_cell_volume 3240.000000
_symmetry_space_group_name_H-M "P N M A"
_symmetry_group_IT_number 62
_symmetry_cell_setting 'orthorhombic'
loop_
_space_group_symop_operation_xyz
x,y,z
1/2-x,-y,1/2+z
1/2+x,1/2-y,1/2-z
-x,1/2+y,-z
-x,-y,-z
1/2+x,y,1/2-z
1/2-x,1/2+y,1/2+z
x,1/2-y,z
loop_
_atom_site_type_symbol
_atom_site_label
_atom_site_fract_x
_atom_site_fract_y
_atom_site_fract_z
Si Si1 0.004604 0.596153 0.587532
Si Si2 0.239934 0.611803 0.883120
Si Si3 0.766079 0.941177 0.117793
Si Si4 0.948172 0.837338 0.205544
Si Si5 0.213329 0.835184 0.687971
Si Si6 0.486819 0.424811 0.879800
Si Si7 0.363481 0.565678 0.567515
Si Si8 0.583998 0.894704 0.456301
O O1 0.874734 0.611274 0.611347
O O2 0.031140 0.509439 0.611113
O O3 0.096186 0.643368 0.640916
O O4 0.009763 0.606392 0.480469
O O5 0.199123 0.526523 0.867587
O O6 0.204943 0.655779 0.794839
O O7 0.182987 0.633064 0.978082
O O8 0.641276 0.932434 0.148669
O O9 0.846254 0.882506 0.162633
O O10 0.772635 0.929479 0.011536
O O11 0.928410 0.750000 0.213289
O O12 0.962277 0.874246 0.302771
O O13 0.047322 0.850265 0.132227
O O14 0.241526 0.750000 0.665880
O O15 0.310330 0.890058 0.649824
O O16 0.386966 0.477966 0.579097
O O17 0.476503 0.598379 0.522873
#
# Coordination Sequence:
#
# PCOD9468037 Si02
#       8
#     8   8   8   8   8   8   8   8
#     4  10  23  43  66  95 127 165 221 270 325 385
#     4  10  23  41  68  96 125 173 222 270 321 379
#     4   9  19  41  63  89 121 168 221 270 309 378
#     4  11  24  38  62  99 133 173 214 262 333 391
#     4  12  26  40  63  97 133 172 213 268 333 395
#     4  10  21  40  66  94 125 168 215 267 320 386
#     4   9  19  39  65  90 121 166 224 266 314 376
#     4   9  21  40  65  94 127 168 222 273 313 378
#
# _framework density 19.753086
#
# number of rings (size 3 to 8) (size 9 to 14) (size 15 to 20)
#    0.000    2.000    1.250    1.500    7.000    5.000 
#    0.000    0.000    0.000    0.000    0.000    0.000 
#    0.000    0.000    0.000    0.000    0.000    0.000 
#
# Total GULP energy -357184.883403 kJ/mol
# GULP energy per Si atom -5581.013803 kJ/mol
# Density = 1.970813 g / cm^3
# Si number density = 19.753086 Si / 1000 Ang^3
#
#
#
# Elastic Constant Matrix: (Units=GPa)
#
#
# Indices 1 2 3 4 5 6 
#
# 1 58.1597 28.1973 24.5047 0.0000 0.0000 0.0000
# 2 28.1973 78.2684 48.9851 0.0000 0.0000 0.0000
# 3 24.5047 48.9851 110.1761 0.0000 0.0000 0.0000
# 4 0.0000 0.0000 0.0000 7.7004 0.0000 0.0000
# 5 0.0000 0.0000 0.0000 0.0000 26.7685 0.0000
# 6 0.0000 0.0000 0.0000 0.0000 0.0000 18.6499
#
#
#
# Elastic Compliance Matrix: (Units=1/GPa)
#
#
# Indices 1 2 3 4 5 6 
#
# 1 0.021093 -0.006461 -0.001819 0.000000 0.000000 0.000000
# 2 -0.006461 0.019681 -0.007314 0.000000 0.000000 0.000000
# 3 -0.001819 -0.007314 0.012733 0.000000 0.000000 0.000000
# 4 0.000000 0.000000 0.000000 0.129863 0.000000 0.000000
# 5 0.000000 0.000000 0.000000 0.000000 0.037357 0.000000
# 6 0.000000 0.000000 0.000000 0.000000 0.000000 0.053620
#
#
# Mechanical properties :
#
#
# Convention : Reuss Voigt Hill
#
# Bulk Modulus (GPa) = 44.80173 49.99761 47.39967
# Shear Modulus (GPa) = 15.97586 20.28492 18.13039
#
# Velocity S-wave (km/s) = 2.84699 3.20804 3.03289
# Velocity P-wave (km/s) = 5.79113 6.25206 6.02601
#
# Compressibility (1/GPa) = 0.02232056
#
# Stress axis : x y z
#
# Youngs Moduli (GPa) = 47.40991 50.80965 78.53874
#
# Poissons Ratio (x) = 0.32826 0.14285
# Poissons Ratio (y) = 0.30629 0.57440
# Poissons Ratio (z) = 0.08623 0.37160
#
# Static dielectric constant tensor:
#      x y z
#    x 1.718820 0.000000 0.000000 
#    y 0.000000 1.683010 0.000000 
#    z 0.000000 0.000000 1.697350 
# 
# From -- ./inp_files/18250.got.cif
#   From: 2010.05.17/outbox.ucp.g08.bks.cvg/sg62_10_cif.got.tgz:18250.got - 2010.06.11 16:29:25.
