data_PCOD9468153
_publ_section_title
;
Structure prediction by ZEFSAII (Michael W. Deem and Ramdas Pophale) SiO2 
 PCOD9468153
Probable space group: C M C M
;
_chemical_formula_sum "Si O2"
_cell_formula_units_Z 104
_cell_length_a 13.716735
_cell_length_b 18.127398
_cell_length_c 25.834095
_cell_angle_alpha 90.000000
_cell_angle_beta 90.000000
_cell_angle_gamma 90.000000
_cell_volume 6423.614515
_symmetry_space_group_name_H-M "C M C M"
_symmetry_group_IT_number 63
_symmetry_cell_setting 'orthorhombic'
loop_
_space_group_symop_operation_xyz
x,y,z
-x,-y,1/2+z
x,-y,-z
-x,y,1/2-z
-x,-y,-z
x,y,1/2-z
-x,y,z
x,-y,1/2+z
1/2+x,1/2+y,z
1/2-x,1/2-y,1/2+z
1/2+x,1/2-y,-z
1/2-x,1/2+y,1/2-z
1/2-x,1/2-y,-z
1/2+x,1/2+y,1/2-z
1/2-x,1/2+y,z
1/2+x,1/2-y,1/2+z
loop_
_atom_site_type_symbol
_atom_site_label
_atom_site_fract_x
_atom_site_fract_y
_atom_site_fract_z
Si Si1 0.883059 0.251294 0.750000
Si Si2 0.107159 0.346478 0.189414
Si Si3 0.618151 0.409448 0.946308
Si Si4 0.613439 0.313821 0.650065
Si Si5 0.180651 0.126920 0.828931
Si Si6 0.608322 0.488448 0.250000
Si Si7 0.772636 0.870377 0.750000
Si Si8 0.117623 0.919862 0.437211
O O1 0.845109 0.202981 0.700821
O O2 0.833041 0.331683 0.750000
O O3 0.000000 0.253493 0.750000
O O4 0.109363 0.322379 0.250000
O O5 0.115456 0.274563 0.153259
O O6 0.205504 0.391006 0.180274
O O7 0.000000 0.380791 0.181133
O O8 0.500000 0.408055 0.947703
O O9 0.648981 0.351083 0.902970
O O10 0.645207 0.493498 0.931588
O O11 0.650179 0.395454 0.005379
O O12 0.500000 0.335630 0.657173
O O13 0.674532 0.341489 0.698487
O O14 0.118256 0.064412 0.799762
O O15 0.158065 0.125939 0.889312
O O16 0.500000 0.523472 0.250000
O O17 0.699484 0.543684 0.250000
O O18 0.000000 0.916351 0.435560
#
# Coordination Sequence:
#
# PCOD9468153 Si02
#       8
#     8  16  16  16  16   8   8  16
#     4  11  22  35  50  71 105 141 168 195 244 308
#     4  10  18  31  49  70  97 131 166 202 251 303
#     4   8  16  28  44  71 102 129 160 203 256 301
#     4  10  16  27  47  70  96 123 160 205 245 292
#     4  11  18  34  51  77 101 131 168 206 252 303
#     4  11  22  31  49  81 104 120 160 217 252 287
#     4  12  20  32  47  74 101 133 164 198 256 297
#     4   9  16  28  46  69 101 136 162 196 253 310
#
# _framework density 16.190262000000001
#
# number of rings (size 3 to 8) (size 9 to 14) (size 15 to 20)
#    0.000    2.000    3.846    4.385    0.000    1.231 
#    0.000    1.538    0.000    0.000    0.000    2.154 
#    0.000    0.000    0.000    0.000    0.000    0.000 
#
# Total GULP energy -289542.630920 kJ/mol
# GULP energy per Si atom -5568.127518 kJ/mol
# Density = 1.615341 g / cm^3
# Si number density = 16.190262 Si / 1000 Ang^3
#
#
#
# Elastic Constant Matrix: (Units=GPa)
#
#
# Indices 1 2 3 4 5 6 
#
# 1 81.9271 14.7481 26.5691 0.0000 0.0000 0.0000
# 2 14.7481 33.7740 20.2222 0.0000 0.0000 0.0000
# 3 26.5691 20.2222 111.4049 0.0000 0.0000 0.0000
# 4 0.0000 0.0000 0.0000 16.0389 0.0000 0.0000
# 5 0.0000 0.0000 0.0000 0.0000 8.7504 0.0000
# 6 0.0000 0.0000 0.0000 0.0000 0.0000 17.0178
#
#
#
# Elastic Compliance Matrix: (Units=1/GPa)
#
#
# Indices 1 2 3 4 5 6 
#
# 1 0.013828 -0.004559 -0.002470 0.000000 0.000000 0.000000
# 2 -0.004559 0.034722 -0.005215 0.000000 0.000000 0.000000
# 3 -0.002470 -0.005215 0.010512 0.000000 0.000000 0.000000
# 4 0.000000 0.000000 0.000000 0.062348 0.000000 0.000000
# 5 0.000000 0.000000 0.000000 0.000000 0.114280 0.000000
# 6 0.000000 0.000000 0.000000 0.000000 0.000000 0.058762
#
#
# Mechanical properties :
#
#
# Convention : Reuss Voigt Hill
#
# Bulk Modulus (GPa) = 28.92480 38.90941 33.91710
# Shear Modulus (GPa) = 15.13013 19.39920 17.26467
#
# Velocity S-wave (km/s) = 3.06031 3.46526 3.26906
# Velocity P-wave (km/s) = 5.51286 6.33210 5.93663
#
# Compressibility (1/GPa) = 0.03457241
#
# Stress axis : x y z
#
# Youngs Moduli (GPa) = 72.31816 28.80011 95.12847
#
# Poissons Ratio (x) = 0.13130 0.23499
# Poissons Ratio (y) = 0.32971 0.49614
# Poissons Ratio (z) = 0.17864 0.15020
#
# Static dielectric constant tensor:
#      x y z
#    x 1.550130 0.000000 0.000000 
#    y 0.000000 1.564260 0.000000 
#    z 0.000000 0.000000 1.551560 
# 
# From -- ./inp_files/69506.got.cif
#   From: 2010.05.17/outbox.cif.g08.bks.cpg/sg63_35_cif.got.tgz:69506.got - 2010.06.03 15:47:04.
