data_PCOD9468553
_publ_section_title
;
Structure prediction by ZEFSAII (Michael W. Deem and Ramdas Pophale) SiO2 
 PCOD9468553
Probable space group: C M C M
;
_chemical_formula_sum "Si O2"
_cell_formula_units_Z 88
_cell_length_a 28.648817
_cell_length_b 19.078461
_cell_length_c 7.653970
_cell_angle_alpha 90.000000
_cell_angle_beta 90.000000
_cell_angle_gamma 90.000000
_cell_volume 4183.471238
_symmetry_space_group_name_H-M "C M C M"
_symmetry_group_IT_number 63
_symmetry_cell_setting 'orthorhombic'
loop_
_space_group_symop_operation_xyz
x,y,z
-x,-y,1/2+z
x,-y,-z
-x,y,1/2-z
-x,-y,-z
x,y,1/2-z
-x,y,z
x,-y,1/2+z
1/2+x,1/2+y,z
1/2-x,1/2-y,1/2+z
1/2+x,1/2-y,-z
1/2-x,1/2+y,1/2-z
1/2-x,1/2-y,-z
1/2+x,1/2+y,1/2-z
1/2-x,1/2+y,z
1/2+x,1/2-y,1/2+z
loop_
_atom_site_type_symbol
_atom_site_label
_atom_site_fract_x
_atom_site_fract_y
_atom_site_fract_z
Si Si1 0.343781 0.858347 0.035938
Si Si2 0.551968 0.838001 0.037512
Si Si3 0.078754 0.179777 0.037115
Si Si4 0.000000 0.919843 0.959403
Si Si5 0.752298 0.423402 0.455137
Si Si6 0.681108 0.700126 0.040560
O O1 0.345690 0.857756 0.250000
O O2 0.397741 0.869516 0.979335
O O3 0.304673 0.912347 0.971421
O O4 0.323029 0.781534 0.982887
O O5 0.551239 0.842867 0.250000
O O6 0.500000 0.861888 0.977749
O O7 0.558404 0.755908 0.991067
O O8 0.079789 0.179528 0.250000
O O9 0.045279 0.119631 0.972482
O O10 0.131542 0.169982 0.978958
O O11 0.000000 0.910971 0.750000
O O12 0.000000 0.000000 0.000000
O O13 0.732379 0.500000 0.500000
O O14 0.757668 0.423984 0.250000
O O15 0.721315 0.354627 0.493710
O O16 0.682105 0.703940 0.250000
#
# Coordination Sequence:
#
# PCOD9468553 Si02
#       6
#    16  16  16   8  16  16
#     4   8  16  29  48  74 100 124 157 200 243 287
#     4   8  11  20  43  72  96 116 143 187 237 281
#     4   8  14  25  43  66  91 115 145 187 232 276
#     4  10  18  28  40  58  86 122 153 180 220 270
#     4  11  22  35  49  68  97 132 166 201 241 289
#     4   9  17  32  53  75  96 121 156 202 247 287
#
# _framework density 21.035163000000001
#
# number of rings (size 3 to 8) (size 9 to 14) (size 15 to 20)
#    0.000    3.091    0.909    3.273    0.000    0.727 
#    0.000    3.636    0.000    0.545    0.000    0.000 
#    0.000    0.000    0.000    0.000    0.000    0.182 
#
# Total GULP energy -244957.450145 kJ/mol
# GULP energy per Si atom -5567.214776 kJ/mol
# Density = 2.098729 g / cm^3
# Si number density = 21.035163 Si / 1000 Ang^3
#
#
#
# Elastic Constant Matrix: (Units=GPa)
#
#
# Indices 1 2 3 4 5 6 
#
# 1 136.1186 17.9578 4.1962 0.0000 0.0000 0.0000
# 2 17.9578 19.5251 0.2922 0.0000 0.0000 0.0000
# 3 4.1962 0.2922 36.3766 0.0000 0.0000 0.0000
# 4 0.0000 0.0000 0.0000 1.1419 0.0000 0.0000
# 5 0.0000 0.0000 0.0000 0.0000 3.0181 0.0000
# 6 0.0000 0.0000 0.0000 0.0000 0.0000 8.5346
#
#
#
# Elastic Compliance Matrix: (Units=1/GPa)
#
#
# Indices 1 2 3 4 5 6 
#
# 1 0.008391 -0.007704 -0.000906 0.000000 0.000000 0.000000
# 2 -0.007704 0.058295 0.000420 0.000000 0.000000 0.000000
# 3 -0.000906 0.000420 0.027591 0.000000 0.000000 0.000000
# 4 0.000000 0.000000 0.000000 0.875726 0.000000 0.000000
# 5 0.000000 0.000000 0.000000 0.000000 0.331335 0.000000
# 6 0.000000 0.000000 0.000000 0.000000 0.000000 0.117170
#
#
# Mechanical properties :
#
#
# Convention : Reuss Voigt Hill
#
# Bulk Modulus (GPa) = 12.83722 26.32363 19.58043
# Shear Modulus (GPa) = 3.42266 13.84387 8.63326
#
# Velocity S-wave (km/s) = 1.27697 2.56819 2.02808
# Velocity P-wave (km/s) = 2.87927 4.61902 3.84874
#
# Compressibility (1/GPa) = 0.07789847
#
# Stress axis : x y z
#
# Youngs Moduli (GPa) = 119.17824 17.15413 36.24326
#
# Poissons Ratio (x) = 0.13215 0.03284
# Poissons Ratio (y) = 0.91811 -0.01524
# Poissons Ratio (z) = 0.10798 -0.00721
#
# Static dielectric constant tensor:
#      x y z
#    x 1.819740 0.000000 0.000000 
#    y 0.000000 1.812850 0.000000 
#    z 0.000000 0.000000 1.783040 
# 
# From -- ./inp_files/14170.got.cif
#   From: 2010.05.17/outbox.cif.g08.bks.cpg/sg63_8_cif.got.tgz:14170.got - 2010.06.03 15:47:04.
