data_PCOD9468007
_publ_section_title
;
Structure prediction by ZEFSAII (Michael W. Deem and Ramdas Pophale) SiO2 
 PCOD9468007
Probable space group: P N M A
;
_chemical_formula_sum "Si O2"
_cell_formula_units_Z 64
_cell_length_a 9.000000
_cell_length_b 24.000000
_cell_length_c 15.000000
_cell_angle_alpha 90.000000
_cell_angle_beta 90.000000
_cell_angle_gamma 90.000000
_cell_volume 3240.000000
_symmetry_space_group_name_H-M "P N M A"
_symmetry_group_IT_number 62
_symmetry_cell_setting 'orthorhombic'
loop_
_space_group_symop_operation_xyz
x,y,z
1/2-x,-y,1/2+z
1/2+x,1/2-y,1/2-z
-x,1/2+y,-z
-x,-y,-z
1/2+x,y,1/2-z
1/2-x,1/2+y,1/2+z
x,1/2-y,z
loop_
_atom_site_type_symbol
_atom_site_label
_atom_site_fract_x
_atom_site_fract_y
_atom_site_fract_z
Si Si1 0.614385 0.105458 0.028757
Si Si2 0.141731 0.370970 0.169961
Si Si3 0.070673 0.134068 0.673097
Si Si4 0.395082 0.539226 0.318202
Si Si5 0.614551 0.685811 0.325817
Si Si6 0.966029 0.396036 0.982886
Si Si7 0.387948 0.968275 0.804951
Si Si8 0.965804 0.183706 0.332329
O O1 0.559564 0.059132 0.101365
O O2 0.569804 0.160024 0.087087
O O3 0.547086 0.109887 0.927726
O O4 0.792898 0.096510 0.013824
O O5 0.179739 0.422249 0.237104
O O6 0.298000 0.339512 0.154489
O O7 0.030257 0.336523 0.235791
O O8 0.063318 0.387012 0.074209
O O9 0.123228 0.088344 0.745576
O O10 0.209483 0.175797 0.663692
O O11 0.936971 0.161619 0.729377
O O12 0.471331 0.556843 0.412784
O O13 0.492556 0.496311 0.260087
O O14 0.235217 0.512702 0.333090
O O15 0.575743 0.750000 0.328046
O O16 0.540071 0.655199 0.411441
O O17 0.964640 0.250000 0.334096
#
# Coordination Sequence:
#
# PCOD9468007 Si02
#       8
#     8   8   8   8   8   8   8   8
#     4  10  22  40  60  89 122 157 203 251 302 361
#     4  11  23  42  63  91 126 159 203 253 301 362
#     4  10  22  40  58  85 123 156 199 255 302 359
#     4  11  23  40  62  90 122 162 205 250 309 364
#     4  10  21  38  61  86 116 161 206 250 308 363
#     4  10  23  41  62  89 124 160 203 254 302 365
#     4  11  22  38  62  88 119 159 202 247 303 370
#     4  11  24  41  64  92 124 163 203 250 307 361
#
# _framework density 19.753086
#
# number of rings (size 3 to 8) (size 9 to 14) (size 15 to 20)
#    0.000    1.500    0.000    6.750    0.000   10.000 
#    0.000    0.000    0.000    0.000    0.000    0.000 
#    0.000    0.000    0.000    0.000    0.000    0.000 
#
# Total GULP energy -356839.735508 kJ/mol
# GULP energy per Si atom -5575.620867 kJ/mol
# Density = 1.970813 g / cm^3
# Si number density = 19.753086 Si / 1000 Ang^3
#
#
#
# Elastic Constant Matrix: (Units=GPa)
#
#
# Indices 1 2 3 4 5 6 
#
# 1 26.0580 -26.4374 19.3723 0.0000 0.0000 0.0000
# 2 -26.4374 41.6042 12.5136 0.0000 0.0000 0.0000
# 3 19.3723 12.5136 181.6168 0.0000 0.0000 0.0000
# 4 0.0000 0.0000 0.0000 24.7922 0.0000 0.0000
# 5 0.0000 0.0000 0.0000 0.0000 40.4194 0.0000
# 6 0.0000 0.0000 0.0000 0.0000 0.0000 29.8174
#
#
#
# Elastic Compliance Matrix: (Units=1/GPa)
#
#
# Indices 1 2 3 4 5 6 
#
# 1 0.197610 0.134703 -0.030360 0.000000 0.000000 0.000000
# 2 0.134703 0.116367 -0.022386 0.000000 0.000000 0.000000
# 3 -0.030360 -0.022386 0.010287 0.000000 0.000000 0.000000
# 4 0.000000 0.000000 0.000000 0.040335 0.000000 0.000000
# 5 0.000000 0.000000 0.000000 0.000000 0.024741 0.000000
# 6 0.000000 0.000000 0.000000 0.000000 0.000000 0.033537
#
#
# Mechanical properties :
#
#
# Convention : Reuss Voigt Hill
#
# Bulk Modulus (GPa) = 2.04843 28.90846 15.47845
# Shear Modulus (GPa) = 11.85710 35.26118 23.55914
#
# Velocity S-wave (km/s) = 2.45269 4.22962 3.45727
# Velocity P-wave (km/s) = 3.01001 6.20642 4.87749
#
# Compressibility (1/GPa) = 0.48817915
#
# Stress axis : x y z
#
# Youngs Moduli (GPa) = 5.06046 8.59353 97.21144
#
# Poissons Ratio (x) = -1.15758 2.95129
# Poissons Ratio (y) = -0.68166 2.17618
# Poissons Ratio (z) = 0.15363 0.19238
#
# Static dielectric constant tensor:
#      x y z
#    x 1.716510 0.000000 0.000000 
#    y 0.000000 1.768970 0.000000 
#    z 0.000000 0.000000 1.663270 
# 
# From -- ./inp_files/17351.got.cif
#   From: 2010.05.17/outbox.ucp.g08.bks.cvg/sg62_9_cif.got.tgz:17351.got - 2010.06.11 16:29:25.
