data_PCOD9468103
_publ_section_title
;
Structure prediction by ZEFSAII (Michael W. Deem and Ramdas Pophale) SiO2 
 PCOD9468103
Probable space group: C M C M
;
_chemical_formula_sum "Si O2"
_cell_formula_units_Z 80
_cell_length_a 26.829697
_cell_length_b 7.327881
_cell_length_c 16.188122
_cell_angle_alpha 90.000000
_cell_angle_beta 90.000000
_cell_angle_gamma 90.000000
_cell_volume 3182.662923
_symmetry_space_group_name_H-M "C M C M"
_symmetry_group_IT_number 63
_symmetry_cell_setting 'orthorhombic'
loop_
_space_group_symop_operation_xyz
x,y,z
-x,-y,1/2+z
x,-y,-z
-x,y,1/2-z
-x,-y,-z
x,y,1/2-z
-x,y,z
x,-y,1/2+z
1/2+x,1/2+y,z
1/2-x,1/2-y,1/2+z
1/2+x,1/2-y,-z
1/2-x,1/2+y,1/2-z
1/2-x,1/2-y,-z
1/2+x,1/2+y,1/2-z
1/2-x,1/2+y,z
1/2+x,1/2-y,1/2+z
loop_
_atom_site_type_symbol
_atom_site_label
_atom_site_fract_x
_atom_site_fract_y
_atom_site_fract_z
Si Si1 0.000000 0.888049 0.916497
Si Si2 0.801991 0.841664 0.842974
Si Si3 0.787751 0.207599 0.575918
Si Si4 0.594678 0.314457 0.843625
Si Si5 0.389376 0.757189 0.848139
Si Si6 0.500000 0.224365 0.345096
O O1 0.000000 0.052443 0.849201
O O2 0.950200 0.774829 0.904229
O O3 0.000000 0.000000 0.000000
O O4 0.809563 0.911558 0.750000
O O5 0.749688 0.743451 0.847872
O O6 0.851728 0.725980 0.860905
O O7 0.799962 0.996964 0.911500
O O8 0.750000 0.250000 0.500000
O O9 0.841158 0.301308 0.594709
O O10 0.579696 0.271017 0.750000
O O11 0.604771 0.534120 0.849887
O O12 0.381778 0.804252 0.750000
O O13 0.444372 0.826840 0.876603
O O14 0.500000 0.167067 0.250000
#
# Coordination Sequence:
#
# PCOD9468103 Si02
#       6
#     8  16  16  16  16   8
#     4  10  16  20  34  60  89 118 147 188 241 288
#     4  10  20  35  52  70  95 132 171 203 237 289
#     4  11  21  32  49  75 105 131 158 201 250 294
#     4   8  15  27  42  59  85 120 158 195 232 278
#     4   8  14  27  46  67  90 120 158 201 244 287
#     4   8  14  26  44  62  84 114 152 200 247 280
#
# _framework density 25.136182999999999
#
# number of rings (size 3 to 8) (size 9 to 14) (size 15 to 20)
#    0.000    2.800    0.000    5.700    0.000    4.800 
#    0.000    0.000    0.000    0.000    0.000    4.200 
#    0.000    3.200    0.000    0.000    0.000    0.000 
#
# Total GULP energy -222732.922569 kJ/mol
# GULP energy per Si atom -5568.323064 kJ/mol
# Density = 2.507897 g / cm^3
# Si number density = 25.136183 Si / 1000 Ang^3
#
#
#
# Elastic Constant Matrix: (Units=GPa)
#
#
# Indices 1 2 3 4 5 6 
#
# 1 279.4249 5.2437 71.4642 0.0000 0.0000 0.0000
# 2 5.2437 35.2320 14.5277 0.0000 0.0000 0.0000
# 3 71.4642 14.5277 86.1525 0.0000 0.0000 0.0000
# 4 0.0000 0.0000 0.0000 9.7245 0.0000 0.0000
# 5 0.0000 0.0000 0.0000 0.0000 35.9788 0.0000
# 6 0.0000 0.0000 0.0000 0.0000 0.0000 -0.3265
#
#
#
# Elastic Compliance Matrix: (Units=1/GPa)
#
#
# Indices 1 2 3 4 5 6 
#
# 1 0.004572 0.000949 -0.003952 0.000000 0.000000 0.000000
# 2 0.000949 0.030701 -0.005965 0.000000 0.000000 0.000000
# 3 -0.003952 -0.005965 0.015892 0.000000 0.000000 0.000000
# 4 0.000000 0.000000 0.000000 0.102833 0.000000 0.000000
# 5 0.000000 0.000000 0.000000 0.000000 0.027794 0.000000
# 6 0.000000 0.000000 0.000000 0.000000 0.000000 -3.062362
#
#
# Mechanical properties :
#
#
# Convention : Reuss Voigt Hill
#
# Bulk Modulus (GPa) = 30.09372 64.80896 47.45134
# Shear Modulus (GPa) = -1.75343 29.71360 13.98009
#
# Velocity S-wave (km/s) = -0.83611 3.44190 2.36089
# Velocity P-wave (km/s) = 3.32658 6.45250 5.13327
#
# Compressibility (1/GPa) = 0.03322953
#
# Stress axis : x y z
#
# Youngs Moduli (GPa) = 218.73132 32.57177 62.92591
#
# Poissons Ratio (x) = -0.03092 0.24871
# Poissons Ratio (y) = -0.20765 0.37533
# Poissons Ratio (z) = 0.86452 0.19428
#
# Static dielectric constant tensor:
#      x y z
#    x 2.149530 0.000000 0.000000 
#    y 0.000000 2.097020 0.000000 
#    z 0.000000 0.000000 2.063360 
# 
# From -- ./inp_files/47913.got.cif
#   From: 2010.05.17/outbox.cif.g08.bks.cpg/sg63_24_cif.got.tgz:47913.got - 2010.06.03 15:47:04.
