data_PCOD9468933
_publ_section_title
;
Structure prediction by ZEFSAII (Michael W. Deem and Ramdas Pophale) SiO2 
 PCOD9468933
Probable space group: C M C M
;
_chemical_formula_sum "Si O2"
_cell_formula_units_Z 112
_cell_length_a 17.072334
_cell_length_b 17.961470
_cell_length_c 20.770593
_cell_angle_alpha 90.000000
_cell_angle_beta 90.000000
_cell_angle_gamma 90.000000
_cell_volume 6369.182185
_symmetry_space_group_name_H-M "C M C M"
_symmetry_group_IT_number 63
_symmetry_cell_setting 'orthorhombic'
loop_
_space_group_symop_operation_xyz
x,y,z
-x,-y,1/2+z
x,-y,-z
-x,y,1/2-z
-x,-y,-z
x,y,1/2-z
-x,y,z
x,-y,1/2+z
1/2+x,1/2+y,z
1/2-x,1/2-y,1/2+z
1/2+x,1/2-y,-z
1/2-x,1/2+y,1/2-z
1/2-x,1/2-y,-z
1/2+x,1/2+y,1/2-z
1/2-x,1/2+y,z
1/2+x,1/2-y,1/2+z
loop_
_atom_site_type_symbol
_atom_site_label
_atom_site_fract_x
_atom_site_fract_y
_atom_site_fract_z
Si Si1 0.088791 0.408871 0.826756
Si Si2 0.407589 0.595633 0.677598
Si Si3 0.405960 0.927601 0.326187
Si Si4 0.826225 0.074188 0.958513
Si Si5 0.410128 0.715329 0.003990
Si Si6 0.146060 0.252062 0.636457
Si Si7 0.697299 0.818042 0.409017
O O1 0.083144 0.417585 0.750000
O O2 0.117943 0.489425 0.850066
O O3 0.137747 0.335340 0.839298
O O4 0.000000 0.396812 0.851396
O O5 0.383919 0.570147 0.750000
O O6 0.500000 0.579915 0.668953
O O7 0.359286 0.565514 0.615316
O O8 0.395275 0.685339 0.675395
O O9 0.389893 0.921184 0.250000
O O10 0.500000 0.922118 0.334719
O O11 0.359515 0.865012 0.363797
O O12 0.746786 0.122765 0.951741
O O13 0.886542 0.129115 0.995165
O O14 0.816683 0.000000 0.000000
O O15 0.500000 0.723538 0.023121
O O16 0.352275 0.759652 0.050224
O O17 0.394785 0.748749 0.933241
O O18 0.235560 0.226502 0.629059
#
# Coordination Sequence:
#
# PCOD9468933 Si02
#       7
#    16  16  16  16  16  16  16
#     4   9  17  30  50  75 101 129 162 203 252 306
#     4   9  17  30  51  79 107 137 176 219 263 316
#     4   9  19  35  53  74 102 139 180 217 259 313
#     4  10  21  36  55  79 110 143 173 213 270 328
#     4  10  20  35  54  74  98 132 174 214 251 303
#     4  10  18  30  49  75 105 130 160 208 266 315
#     4  10  21  34  52  74 102 137 175 216 256 307
#
# _framework density 17.584676000000002
#
# number of rings (size 3 to 8) (size 9 to 14) (size 15 to 20)
#    0.000    2.714    0.000    6.000    0.000    7.429 
#    0.000    0.000    0.000    4.286    0.000    3.000 
#    0.000    0.000    0.000    0.000    0.000    0.000 
#
# Total GULP energy -311986.177012 kJ/mol
# GULP energy per Si atom -5571.181732 kJ/mol
# Density = 1.754465 g / cm^3
# Si number density = 17.584676 Si / 1000 Ang^3
#
#
#
# Elastic Constant Matrix: (Units=GPa)
#
#
# Indices 1 2 3 4 5 6 
#
# 1 49.5629 25.9753 19.2337 0.0000 0.0000 0.0000
# 2 25.9753 78.4523 46.3288 0.0000 0.0000 0.0000
# 3 19.2337 46.3288 52.3418 0.0000 0.0000 0.0000
# 4 0.0000 0.0000 0.0000 21.5396 0.0000 0.0000
# 5 0.0000 0.0000 0.0000 0.0000 12.1043 0.0000
# 6 0.0000 0.0000 0.0000 0.0000 0.0000 9.2723
#
#
#
# Elastic Compliance Matrix: (Units=1/GPa)
#
#
# Indices 1 2 3 4 5 6 
#
# 1 0.024780 -0.005923 -0.003863 0.000000 0.000000 0.000000
# 2 -0.005923 0.028121 -0.022714 0.000000 0.000000 0.000000
# 3 -0.003863 -0.022714 0.040629 0.000000 0.000000 0.000000
# 4 0.000000 0.000000 0.000000 0.046426 0.000000 0.000000
# 5 0.000000 0.000000 0.000000 0.000000 0.082615 0.000000
# 6 0.000000 0.000000 0.000000 0.000000 0.000000 0.107848
#
#
# Mechanical properties :
#
#
# Convention : Reuss Voigt Hill
#
# Bulk Modulus (GPa) = 35.05096 40.38142 37.71619
# Shear Modulus (GPa) = 12.34781 14.50452 13.42617
#
# Velocity S-wave (km/s) = 2.65276 2.87512 2.76618
# Velocity P-wave (km/s) = 5.41838 5.83400 5.63003
#
# Compressibility (1/GPa) = 0.02852989
#
# Stress axis : x y z
#
# Youngs Moduli (GPa) = 40.35545 35.56036 24.61284
#
# Poissons Ratio (x) = 0.21064 0.09507
# Poissons Ratio (y) = 0.23904 0.55906
# Poissons Ratio (z) = 0.15588 0.80772
#
# Static dielectric constant tensor:
#      x y z
#    x 1.608150 0.000000 0.000000 
#    y 0.000000 1.607550 0.000000 
#    z 0.000000 0.000000 1.612850 
# 
# From -- ./inp_files/55829.got.cif
#   From: 2010.05.17/outbox.cif.g08.bks.cpg/sg63_28_cif.got.tgz:55829.got - 2010.06.03 15:47:04.
