data_PCOD9468552
_publ_section_title
;
Structure prediction by ZEFSAII (Michael W. Deem and Ramdas Pophale) SiO2 
 PCOD9468552
Probable space group: C M C M
;
_chemical_formula_sum "Si O2"
_cell_formula_units_Z 80
_cell_length_a 24.914370
_cell_length_b 26.932693
_cell_length_c 7.770690
_cell_angle_alpha 90.000000
_cell_angle_beta 90.000000
_cell_angle_gamma 90.000000
_cell_volume 5214.219078
_symmetry_space_group_name_H-M "C M C M"
_symmetry_group_IT_number 63
_symmetry_cell_setting 'orthorhombic'
loop_
_space_group_symop_operation_xyz
x,y,z
-x,-y,1/2+z
x,-y,-z
-x,y,1/2-z
-x,-y,-z
x,y,1/2-z
-x,y,z
x,-y,1/2+z
1/2+x,1/2+y,z
1/2-x,1/2-y,1/2+z
1/2+x,1/2-y,-z
1/2-x,1/2+y,1/2-z
1/2-x,1/2-y,-z
1/2+x,1/2+y,1/2-z
1/2-x,1/2+y,z
1/2+x,1/2-y,1/2+z
loop_
_atom_site_type_symbol
_atom_site_label
_atom_site_fract_x
_atom_site_fract_y
_atom_site_fract_z
Si Si1 0.885340 0.246165 0.452262
Si Si2 0.113525 0.056621 0.045226
Si Si3 0.000000 0.785212 0.538394
Si Si4 0.500000 0.598924 0.460153
Si Si5 0.818015 0.150023 0.546674
Si Si6 0.284084 0.799268 0.456663
O O1 0.891486 0.257061 0.250000
O O2 0.856104 0.192429 0.465854
O O3 0.843522 0.286809 0.525682
O O4 0.945119 0.240208 0.523529
O O5 0.111904 0.061235 0.250000
O O6 0.054373 0.072393 0.979124
O O7 0.156858 0.096387 0.982218
O O8 0.125373 0.000000 0.000000
O O9 0.000000 0.784820 0.750000
O O10 0.000000 0.843286 0.489145
O O11 0.500000 0.597574 0.250000
O O12 0.818238 0.160531 0.750000
O O13 0.756538 0.157580 0.483858
O O14 0.289394 0.803517 0.250000
O O15 0.250000 0.750000 0.500000
#
# Coordination Sequence:
#
# PCOD9468552 Si02
#       6
#    16  16   8   8  16  16
#     4   9  15  26  42  58  77 103 131 161 195 230
#     4  11  21  33  45  57  74  99 133 170 207 238
#     4   9  14  23  41  61  78 101 134 166 194 227
#     4   9  17  29  43  57  74 100 134 169 201 233
#     4  10  18  28  40  57  78 100 129 164 198 235
#     4   8  15  25  39  57  76  98 126 158 193 231
#
# _framework density 15.342663
#
# number of rings (size 3 to 8) (size 9 to 14) (size 15 to 20)
#    0.000    2.600    2.000    1.500    0.000    0.800 
#    0.000    3.000    0.000    0.000    0.000    0.000 
#    0.000    0.000    0.000    0.900    0.000    6.400 
#
# Total GULP energy -222731.624346 kJ/mol
# GULP energy per Si atom -5568.290609 kJ/mol
# Density = 1.530774 g / cm^3
# Si number density = 15.342663 Si / 1000 Ang^3
#
#
#
# Elastic Constant Matrix: (Units=GPa)
#
#
# Indices 1 2 3 4 5 6 
#
# 1 138.5816 65.8679 -2.8090 0.0000 0.0000 0.0000
# 2 65.8679 67.3315 -5.0979 0.0000 0.0000 0.0000
# 3 -2.8090 -5.0979 21.0609 0.0000 0.0000 0.0000
# 4 0.0000 0.0000 0.0000 9.5723 0.0000 0.0000
# 5 0.0000 0.0000 0.0000 0.0000 6.7146 0.0000
# 6 0.0000 0.0000 0.0000 0.0000 0.0000 18.9080
#
#
#
# Elastic Compliance Matrix: (Units=1/GPa)
#
#
# Indices 1 2 3 4 5 6 
#
# 1 0.013529 -0.013343 -0.001425 0.000000 0.000000 0.000000
# 2 -0.013343 0.028288 0.005068 0.000000 0.000000 0.000000
# 3 -0.001425 0.005068 0.048518 0.000000 0.000000 0.000000
# 4 0.000000 0.000000 0.000000 0.104468 0.000000 0.000000
# 5 0.000000 0.000000 0.000000 0.000000 0.148928 0.000000
# 6 0.000000 0.000000 0.000000 0.000000 0.000000 0.052888
#
#
# Mechanical properties :
#
#
# Convention : Reuss Voigt Hill
#
# Bulk Modulus (GPa) = 14.09751 38.09955 26.09853
# Shear Modulus (GPa) = 11.37231 18.30652 14.83941
#
# Velocity S-wave (km/s) = 2.72549 3.45799 3.11336
# Velocity P-wave (km/s) = 4.37182 6.38983 5.47461
#
# Compressibility (1/GPa) = 0.07093450
#
# Stress axis : x y z
#
# Youngs Moduli (GPa) = 73.91598 35.35035 20.61098
#
# Poissons Ratio (x) = 0.47167 0.02938
# Poissons Ratio (y) = 0.98624 -0.10445
# Poissons Ratio (z) = 0.10535 -0.17915
#
# Static dielectric constant tensor:
#      x y z
#    x 1.568750 0.000000 0.000000 
#    y 0.000000 1.387410 0.000000 
#    z 0.000000 0.000000 1.562770 
# 
# From -- ./inp_files/10351.got.cif
#   From: 2010.05.17/outbox.cif.g08.bks.cpg/sg63_6_cif.got.tgz:10351.got - 2010.06.03 15:47:04.
