data_PCOD9468854
_publ_section_title
;
Structure prediction by ZEFSAII (Michael W. Deem and Ramdas Pophale) SiO2 
 PCOD9468854
Probable space group: C M C M
;
_chemical_formula_sum "Si O2"
_cell_formula_units_Z 96
_cell_length_a 7.292010
_cell_length_b 27.710575
_cell_length_c 21.037563
_cell_angle_alpha 90.000000
_cell_angle_beta 90.000000
_cell_angle_gamma 90.000000
_cell_volume 4250.971787
_symmetry_space_group_name_H-M "C M C M"
_symmetry_group_IT_number 63
_symmetry_cell_setting 'orthorhombic'
loop_
_space_group_symop_operation_xyz
x,y,z
-x,-y,1/2+z
x,-y,-z
-x,y,1/2-z
-x,-y,-z
x,y,1/2-z
-x,y,z
x,-y,1/2+z
1/2+x,1/2+y,z
1/2-x,1/2-y,1/2+z
1/2+x,1/2-y,-z
1/2-x,1/2+y,1/2-z
1/2-x,1/2-y,-z
1/2+x,1/2+y,1/2-z
1/2-x,1/2+y,z
1/2+x,1/2-y,1/2+z
loop_
_atom_site_type_symbol
_atom_site_label
_atom_site_fract_x
_atom_site_fract_y
_atom_site_fract_z
Si Si1 0.218100 0.193088 0.998975
Si Si2 0.224338 0.125036 0.388617
Si Si3 0.223705 0.837840 0.360676
Si Si4 0.778331 0.765725 0.250000
Si Si5 0.776558 0.018209 0.430882
Si Si6 0.788913 0.152746 0.250000
Si Si7 0.276643 0.445215 0.321063
O O1 0.286383 0.165866 0.061672
O O2 0.000000 0.185234 0.998330
O O3 0.250000 0.250000 0.000000
O O4 0.286850 0.171820 0.932287
O O5 0.277834 0.072697 0.414751
O O6 0.289293 0.134565 0.316912
O O7 0.000000 0.126557 0.387018
O O8 0.280315 0.795870 0.312061
O O9 0.279537 0.890449 0.336261
O O10 0.000000 0.837511 0.360549
O O11 0.714828 0.710829 0.250000
O O12 0.000000 0.764543 0.250000
O O13 0.000000 0.017763 0.431470
O O14 0.717048 0.000000 0.500000
O O15 0.717121 0.981865 0.375517
O O16 0.000000 0.136157 0.250000
O O17 0.219258 0.458974 0.250000
O O18 0.500000 0.445430 0.321616
#
# Coordination Sequence:
#
# PCOD9468854 Si02
#       7
#    16  16  16   8  16   8  16
#     4  10  19  31  47  66  91 123 156 190 227 268
#     4   9  18  30  43  62  92 127 154 182 227 276
#     4   9  16  27  43  64  90 117 147 189 234 267
#     4  10  18  30  47  67  91 119 154 194 231 264
#     4   9  16  25  39  60  88 122 152 178 219 278
#     4  10  20  32  45  63  93 127 154 182 223 274
#     4   9  15  23  38  61  88 116 146 182 226 273
#
# _framework density 22.583071
#
# number of rings (size 3 to 8) (size 9 to 14) (size 15 to 20)
#    0.000    2.667    0.833    2.000    1.167    4.000 
#    0.000    0.000    0.000    0.000    0.000    0.000 
#    0.000   16.000    0.000    0.000    0.000    0.000 
#
# Total GULP energy -268363.755853 kJ/mol
# GULP energy per Si atom -5590.911580 kJ/mol
# Density = 2.253167 g / cm^3
# Si number density = 22.583071 Si / 1000 Ang^3
#
#
#
# Elastic Constant Matrix: (Units=GPa)
#
#
# Indices 1 2 3 4 5 6 
#
# 1 95.2357 -7.2051 8.6934 0.0000 0.0000 0.0000
# 2 -7.2051 164.6401 122.8771 0.0000 0.0000 0.0000
# 3 8.6934 122.8771 268.6189 0.0000 0.0000 0.0000
# 4 0.0000 0.0000 0.0000 49.6363 0.0000 0.0000
# 5 0.0000 0.0000 0.0000 0.0000 -21.1993 0.0000
# 6 0.0000 0.0000 0.0000 0.0000 0.0000 9.0538
#
#
#
# Elastic Compliance Matrix: (Units=1/GPa)
#
#
# Indices 1 2 3 4 5 6 
#
# 1 0.010661 0.001099 -0.000848 0.000000 0.000000 0.000000
# 2 0.001099 0.009336 -0.004306 0.000000 0.000000 0.000000
# 3 -0.000848 -0.004306 0.005720 0.000000 0.000000 0.000000
# 4 0.000000 0.000000 0.000000 0.020147 0.000000 0.000000
# 5 0.000000 0.000000 0.000000 0.000000 -0.047171 0.000000
# 6 0.000000 0.000000 0.000000 0.000000 0.000000 0.110450
#
#
# Mechanical properties :
#
#
# Convention : Reuss Voigt Hill
#
# Bulk Modulus (GPa) = 56.79477 86.35839 71.57658
# Shear Modulus (GPa) = 40.61054 34.44012 37.52533
#
# Velocity S-wave (km/s) = 4.24521 3.90941 4.08077
# Velocity P-wave (km/s) = 7.01662 7.66168 7.34623
#
# Compressibility (1/GPa) = 0.01760725
#
# Stress axis : x y z
#
# Youngs Moduli (GPa) = 93.80127 107.11443 174.82533
#
# Poissons Ratio (x) = -0.11776 0.14824
# Poissons Ratio (y) = -0.10312 0.75282
# Poissons Ratio (z) = 0.07954 0.46125
#
# Static dielectric constant tensor:
#      x y z
#    x 1.905580 0.000000 0.000000 
#    y 0.000000 1.799260 0.000000 
#    z 0.000000 0.000000 1.797350 
# 
# From -- ./inp_files/53091.got.cif
#   From: 2010.05.17/outbox.cif.g08.bks.cpg/sg63_27_cif.got.tgz:53091.got - 2010.06.03 15:47:04.
