data_PCOD9468094
_publ_section_title
;
Structure prediction by ZEFSAII (Michael W. Deem and Ramdas Pophale) SiO2 
 PCOD9468094
Probable space group: C M C M
;
_chemical_formula_sum "Si O2"
_cell_formula_units_Z 112
_cell_length_a 30.081007
_cell_length_b 5.564806
_cell_length_c 28.126366
_cell_angle_alpha 90.000000
_cell_angle_beta 90.000000
_cell_angle_gamma 90.000000
_cell_volume 4708.212143
_symmetry_space_group_name_H-M "C M C M"
_symmetry_group_IT_number 63
_symmetry_cell_setting 'orthorhombic'
loop_
_space_group_symop_operation_xyz
x,y,z
-x,-y,1/2+z
x,-y,-z
-x,y,1/2-z
-x,-y,-z
x,y,1/2-z
-x,y,z
x,-y,1/2+z
1/2+x,1/2+y,z
1/2-x,1/2-y,1/2+z
1/2+x,1/2-y,-z
1/2-x,1/2+y,1/2-z
1/2-x,1/2-y,-z
1/2+x,1/2+y,1/2-z
1/2-x,1/2+y,z
1/2+x,1/2-y,1/2+z
loop_
_atom_site_type_symbol
_atom_site_label
_atom_site_fract_x
_atom_site_fract_y
_atom_site_fract_z
Si Si1 0.625697 0.622536 0.196492
Si Si2 0.550846 0.846733 0.367593
Si Si3 0.048893 0.258094 0.699938
Si Si4 0.266958 0.241360 0.444334
Si Si5 0.134037 0.746421 0.029592
Si Si6 0.451326 0.456434 0.056404
Si Si7 0.226370 0.021345 0.308067
O O1 0.631246 0.727649 0.250000
O O2 0.595071 0.775191 0.161507
O O3 0.674619 0.557154 0.178254
O O4 0.592909 0.396755 0.201504
O O5 0.500000 0.771211 0.352583
O O6 0.549069 0.119295 0.351030
O O7 0.555138 0.711879 0.417523
O O8 0.049732 0.408424 0.750000
O O9 0.000000 0.138882 0.702508
O O10 0.250000 0.250000 0.500000
O O11 0.254234 0.499857 0.423619
O O12 0.319596 0.212711 0.444070
O O13 0.091585 0.791039 0.062625
O O14 0.127161 0.500000 0.000000
O O15 0.139627 0.000000 0.000000
O O16 0.500000 0.356929 0.068608
O O17 0.452372 0.500000 0.000000
O O18 0.227008 0.016800 0.250000
O O19 0.246227 0.761317 0.322508
#
# Coordination Sequence:
#
# PCOD9468094 Si02
#       7
#    16  16  16  16  16  16  16
#     4  10  20  33  58  90 124 161 205 255 311 378
#     4  10  20  37  59  85 121 162 208 259 319 381
#     4   9  18  32  54  88 126 162 199 247 313 383
#     4  10  15  26  48  81 111 136 172 229 292 361
#     4  11  19  33  57  84 110 143 188 242 298 357
#     4   9  21  41  60  83 116 158 210 263 313 370
#     4   9  19  34  55  87 124 166 212 255 302 366
#
# _framework density 23.788222000000001
#
# number of rings (size 3 to 8) (size 9 to 14) (size 15 to 20)
#    0.000    2.286    2.857    0.857    2.000    1.714 
#    5.143    0.000    0.000    1.714    0.000    0.000 
#    0.000    0.000    0.000    0.000    0.000    0.000 
#
# Total GULP energy -311865.502856 kJ/mol
# GULP energy per Si atom -5569.026837 kJ/mol
# Density = 2.373408 g / cm^3
# Si number density = 23.788222 Si / 1000 Ang^3
#
#
#
# Elastic Constant Matrix: (Units=GPa)
#
#
# Indices 1 2 3 4 5 6 
#
# 1 204.7456 28.3445 12.2473 0.0000 0.0000 0.0000
# 2 28.3445 91.8043 15.8660 0.0000 0.0000 0.0000
# 3 12.2473 15.8660 73.2645 0.0000 0.0000 0.0000
# 4 0.0000 0.0000 0.0000 32.1560 0.0000 0.0000
# 5 0.0000 0.0000 0.0000 0.0000 -0.8415 0.0000
# 6 0.0000 0.0000 0.0000 0.0000 0.0000 -49.1055
#
#
#
# Elastic Compliance Matrix: (Units=1/GPa)
#
#
# Indices 1 2 3 4 5 6 
#
# 1 0.005122 -0.001489 -0.000534 0.000000 0.000000 0.000000
# 2 -0.001489 0.011749 -0.002295 0.000000 0.000000 0.000000
# 3 -0.000534 -0.002295 0.014235 0.000000 0.000000 0.000000
# 4 0.000000 0.000000 0.000000 0.031098 0.000000 0.000000
# 5 0.000000 0.000000 0.000000 0.000000 -1.188374 0.000000
# 6 0.000000 0.000000 0.000000 0.000000 0.000000 -0.020364
#
#
# Mechanical properties :
#
#
# Convention : Reuss Voigt Hill
#
# Bulk Modulus (GPa) = 44.50360 53.63667 49.07014
# Shear Modulus (GPa) = -4.42319 17.33224 6.45453
#
# Velocity S-wave (km/s) = -1.36508 2.70220 1.64901
# Velocity P-wave (km/s) = 4.03290 5.68616 4.92933
#
# Compressibility (1/GPa) = 0.02247009
#
# Stress axis : x y z
#
# Youngs Moduli (GPa) = 195.22846 85.11182 70.24695
#
# Poissons Ratio (x) = 0.12675 0.03749
# Poissons Ratio (y) = 0.29074 0.16125
# Poissons Ratio (z) = 0.10420 0.19537
#
# Static dielectric constant tensor:
#      x y z
#    x 1.861420 0.000000 0.000000 
#    y 0.000000 2.163200 0.000000 
#    z 0.000000 0.000000 1.908380 
# 
# From -- ./inp_files/74510.got.cif
#   From: 2010.05.17/outbox.cif.g08.bks.cpg/sg63_38_cif.got.tgz:74510.got - 2010.06.03 15:47:04.
