data_PCOD9468594
_publ_section_title
;
Structure prediction by ZEFSAII (Michael W. Deem and Ramdas Pophale) SiO2 
 PCOD9468594
Probable space group: C M C M
;
_chemical_formula_sum "Si O2"
_cell_formula_units_Z 96
_cell_length_a 16.700309
_cell_length_b 14.113786
_cell_length_c 19.782862
_cell_angle_alpha 90.000000
_cell_angle_beta 90.000000
_cell_angle_gamma 90.000000
_cell_volume 4662.911325
_symmetry_space_group_name_H-M "C M C M"
_symmetry_group_IT_number 63
_symmetry_cell_setting 'orthorhombic'
loop_
_space_group_symop_operation_xyz
x,y,z
-x,-y,1/2+z
x,-y,-z
-x,y,1/2-z
-x,-y,-z
x,y,1/2-z
-x,y,z
x,-y,1/2+z
1/2+x,1/2+y,z
1/2-x,1/2-y,1/2+z
1/2+x,1/2-y,-z
1/2-x,1/2+y,1/2-z
1/2-x,1/2-y,-z
1/2+x,1/2+y,1/2-z
1/2-x,1/2+y,z
1/2+x,1/2-y,1/2+z
loop_
_atom_site_type_symbol
_atom_site_label
_atom_site_fract_x
_atom_site_fract_y
_atom_site_fract_z
Si Si1 0.409353 0.636875 0.031527
Si Si2 0.751844 0.144023 0.966855
Si Si3 0.807018 0.386520 0.325189
Si Si4 0.904249 0.195483 0.322671
Si Si5 0.910901 0.649590 0.472476
Si Si6 0.094075 0.579611 0.174007
O O1 0.500000 0.598201 0.026932
O O2 0.334059 0.598128 0.991001
O O3 0.415900 0.744804 0.003269
O O4 0.382045 0.640448 0.109734
O O5 0.750902 0.138993 0.886286
O O6 0.750000 0.250000 0.000000
O O7 0.665950 0.104154 0.991249
O O8 0.770856 0.385492 0.250000
O O9 0.872243 0.302233 0.327555
O O10 0.851046 0.486899 0.334626
O O11 0.876424 0.156219 0.250000
O O12 0.000000 0.198219 0.322889
O O13 0.895225 0.646040 0.391612
O O14 0.000000 0.607802 0.484110
O O15 0.110225 0.619007 0.250000
O O16 0.000000 0.551638 0.173496
#
# Coordination Sequence:
#
# PCOD9468594 Si02
#       6
#    16  16  16  16  16  16
#     4   9  17  31  47  65  92 124 158 197 235 269
#     4  10  18  31  44  64  94 120 156 195 232 271
#     4  10  18  28  44  64  88 119 153 188 229 274
#     4   9  15  24  40  62  87 115 148 184 223 267
#     4   9  17  29  45  66  93 125 154 180 223 277
#     4   9  18  31  45  66  98 130 158 188 223 275
#
# _framework density 20.587997000000001
#
# number of rings (size 3 to 8) (size 9 to 14) (size 15 to 20)
#    0.000    2.667    3.333    0.500    0.000    3.333 
#    0.000    5.833    0.000    1.500    0.000    2.333 
#    0.000    1.333    0.000    0.000    0.000    0.000 
#
# Total GULP energy -267234.474574 kJ/mol
# GULP energy per Si atom -5567.384887 kJ/mol
# Density = 2.054114 g / cm^3
# Si number density = 20.587997 Si / 1000 Ang^3
#
#
#
# Elastic Constant Matrix: (Units=GPa)
#
#
# Indices 1 2 3 4 5 6 
#
# 1 84.6873 -8.0069 38.4462 0.0000 0.0000 0.0000
# 2 -8.0069 46.8121 24.0374 0.0000 0.0000 0.0000
# 3 38.4462 24.0374 187.5942 0.0000 0.0000 0.0000
# 4 0.0000 0.0000 0.0000 7.7653 0.0000 0.0000
# 5 0.0000 0.0000 0.0000 0.0000 28.2318 0.0000
# 6 0.0000 0.0000 0.0000 0.0000 0.0000 -12.7197
#
#
#
# Elastic Compliance Matrix: (Units=1/GPa)
#
#
# Indices 1 2 3 4 5 6 
#
# 1 0.013702 0.004052 -0.003327 0.000000 0.000000 0.000000
# 2 0.004052 0.024065 -0.003914 0.000000 0.000000 0.000000
# 3 -0.003327 -0.003914 0.006514 0.000000 0.000000 0.000000
# 4 0.000000 0.000000 0.000000 0.128778 0.000000 0.000000
# 5 0.000000 0.000000 0.000000 0.000000 0.035421 0.000000
# 6 0.000000 0.000000 0.000000 0.000000 0.000000 -0.078618
#
#
# Mechanical properties :
#
#
# Convention : Reuss Voigt Hill
#
# Bulk Modulus (GPa) = 26.38359 47.56078 36.97218
# Shear Modulus (GPa) = 33.58537 22.29661 27.94099
#
# Velocity S-wave (km/s) = 4.04333 3.29445 3.68795
# Velocity P-wave (km/s) = 5.88565 6.13373 6.01097
#
# Compressibility (1/GPa) = 0.03790235
#
# Stress axis : x y z
#
# Youngs Moduli (GPa) = 72.98315 41.55435 153.51342
#
# Poissons Ratio (x) = -0.16838 0.51079
# Poissons Ratio (y) = -0.29574 0.60085
# Poissons Ratio (z) = 0.24284 0.16264
#
# Static dielectric constant tensor:
#      x y z
#    x 1.773970 0.000000 0.000000 
#    y 0.000000 1.740480 0.000000 
#    z 0.000000 0.000000 1.804570 
# 
# From -- ./inp_files/45773.got.cif
#   From: 2010.05.17/outbox.cif.g08.bks.cpg/sg63_23_cif.got.tgz:45773.got - 2010.06.03 15:47:04.
