data_PCOD9468994
_publ_section_title
;
Structure prediction by ZEFSAII (Michael W. Deem and Ramdas Pophale) SiO2 
 PCOD9468994
Probable space group: C M C M
;
_chemical_formula_sum "Si O2"
_cell_formula_units_Z 96
_cell_length_a 21.970370
_cell_length_b 12.692890
_cell_length_c 19.122590
_cell_angle_alpha 90.000000
_cell_angle_beta 90.000000
_cell_angle_gamma 90.000000
_cell_volume 5332.668669
_symmetry_space_group_name_H-M "C M C M"
_symmetry_group_IT_number 63
_symmetry_cell_setting 'orthorhombic'
loop_
_space_group_symop_operation_xyz
x,y,z
-x,-y,1/2+z
x,-y,-z
-x,y,1/2-z
-x,-y,-z
x,y,1/2-z
-x,y,z
x,-y,1/2+z
1/2+x,1/2+y,z
1/2-x,1/2-y,1/2+z
1/2+x,1/2-y,-z
1/2-x,1/2+y,1/2-z
1/2-x,1/2-y,-z
1/2+x,1/2+y,1/2-z
1/2-x,1/2+y,z
1/2+x,1/2-y,1/2+z
loop_
_atom_site_type_symbol
_atom_site_label
_atom_site_fract_x
_atom_site_fract_y
_atom_site_fract_z
Si Si1 0.132239 0.831233 0.669167
Si Si2 0.310686 0.253885 0.420225
Si Si3 0.300269 0.391856 0.539294
Si Si4 0.213330 0.379258 0.331326
Si Si5 0.370502 0.077573 0.165591
Si Si6 0.000000 0.520460 0.835104
Si Si7 0.000000 0.761488 0.665265
O O1 0.136965 0.865871 0.750000
O O2 0.168213 0.901794 0.614272
O O3 0.163477 0.715290 0.665569
O O4 0.062325 0.819334 0.647287
O O5 0.337460 0.314168 0.487142
O O6 0.263414 0.166883 0.449085
O O7 0.269451 0.337804 0.377250
O O8 0.354701 0.187851 0.370569
O O9 0.292446 0.500000 0.500000
O O10 0.231659 0.389572 0.250000
O O11 0.179571 0.487126 0.352602
O O12 0.368581 0.087697 0.250000
O O13 0.437348 0.036443 0.144713
O O14 0.000000 0.523425 0.750000
O O15 0.000000 0.641131 0.860362
O O16 0.000000 0.754861 0.750000
#
# Coordination Sequence:
#
# PCOD9468994 Si02
#       7
#    16  16  16  16  16   8   8
#     4   9  17  31  54  78  98 126 174 221 257 303
#     4  10  20  33  51  74 103 144 176 214 266 322
#     4  10  21  37  52  72 103 140 173 215 270 317
#     4   9  16  28  49  77 105 136 177 220 253 298
#     4  10  18  30  51  81 115 143 175 217 262 315
#     4   9  16  28  51  81 112 146 173 212 269 311
#     4   9  14  28  54  81 103 128 172 226 265 293
#
# _framework density 18.002244000000001
#
# number of rings (size 3 to 8) (size 9 to 14) (size 15 to 20)
#    0.000    2.500    1.667    1.500    0.000    0.667 
#    0.000    2.917    0.000    2.000    0.000    3.500 
#    0.000    0.000    0.000    0.000    0.000    0.000 
#
# Total GULP energy -267625.027295 kJ/mol
# GULP energy per Si atom -5575.521402 kJ/mol
# Density = 1.796127 g / cm^3
# Si number density = 18.002244 Si / 1000 Ang^3
#
#
#
# Elastic Constant Matrix: (Units=GPa)
#
#
# Indices 1 2 3 4 5 6 
#
# 1 51.6759 24.1076 26.8153 0.0000 0.0000 0.0000
# 2 24.1076 60.7889 37.4473 0.0000 0.0000 0.0000
# 3 26.8153 37.4473 69.4871 0.0000 0.0000 0.0000
# 4 0.0000 0.0000 0.0000 36.7650 0.0000 0.0000
# 5 0.0000 0.0000 0.0000 0.0000 11.0503 0.0000
# 6 0.0000 0.0000 0.0000 0.0000 0.0000 10.5919
#
#
#
# Elastic Compliance Matrix: (Units=1/GPa)
#
#
# Indices 1 2 3 4 5 6 
#
# 1 0.025620 -0.006092 -0.006604 0.000000 0.000000 0.000000
# 2 -0.006092 0.026074 -0.011701 0.000000 0.000000 0.000000
# 3 -0.006604 -0.011701 0.023245 0.000000 0.000000 0.000000
# 4 0.000000 0.000000 0.000000 0.027200 0.000000 0.000000
# 5 0.000000 0.000000 0.000000 0.000000 0.090496 0.000000
# 6 0.000000 0.000000 0.000000 0.000000 0.000000 0.094412
#
#
# Mechanical properties :
#
#
# Convention : Reuss Voigt Hill
#
# Bulk Modulus (GPa) = 38.24637 39.85471 39.05054
# Shear Modulus (GPa) = 14.51143 17.92022 16.21583
#
# Velocity S-wave (km/s) = 2.84225 3.15849 3.00453
# Velocity P-wave (km/s) = 5.66239 5.95720 5.81166
#
# Compressibility (1/GPa) = 0.02614627
#
# Stress axis : x y z
#
# Youngs Moduli (GPa) = 39.03144 38.35185 43.01971
#
# Poissons Ratio (x) = 0.23366 0.28409
# Poissons Ratio (y) = 0.23780 0.50336
# Poissons Ratio (z) = 0.25775 0.44874
#
# Static dielectric constant tensor:
#      x y z
#    x 1.621880 0.000000 0.000000 
#    y 0.000000 1.614830 0.000000 
#    z 0.000000 0.000000 1.652340 
# 
# From -- ./inp_files/48087.got.cif
#   From: 2010.05.17/outbox.cif.g08.bks.cpg/sg63_25_cif.got.tgz:48087.got - 2010.06.03 15:47:04.
