data_PCOD9468254
_publ_section_title
;
Structure prediction by ZEFSAII (Michael W. Deem and Ramdas Pophale) SiO2 
 PCOD9468254
Probable space group: C M C M
;
_chemical_formula_sum "Si O2"
_cell_formula_units_Z 116
_cell_length_a 28.254379
_cell_length_b 27.789297
_cell_length_c 7.353086
_cell_angle_alpha 90.000000
_cell_angle_beta 90.000000
_cell_angle_gamma 90.000000
_cell_volume 5773.417605
_symmetry_space_group_name_H-M "C M C M"
_symmetry_group_IT_number 63
_symmetry_cell_setting 'orthorhombic'
loop_
_space_group_symop_operation_xyz
x,y,z
-x,-y,1/2+z
x,-y,-z
-x,y,1/2-z
-x,-y,-z
x,y,1/2-z
-x,y,z
x,-y,1/2+z
1/2+x,1/2+y,z
1/2-x,1/2-y,1/2+z
1/2+x,1/2-y,-z
1/2-x,1/2+y,1/2-z
1/2-x,1/2-y,-z
1/2+x,1/2+y,1/2-z
1/2-x,1/2+y,z
1/2+x,1/2-y,1/2+z
loop_
_atom_site_type_symbol
_atom_site_label
_atom_site_fract_x
_atom_site_fract_y
_atom_site_fract_z
Si Si1 0.500000 0.541180 0.750000
Si Si2 0.211326 0.552366 0.466682
Si Si3 0.634038 0.248114 0.965455
Si Si4 0.285272 0.683538 0.470343
Si Si5 0.446239 0.681062 0.030291
Si Si6 0.919561 0.929633 0.969382
Si Si7 0.314947 0.576239 0.469640
Si Si8 0.317727 0.155429 0.031999
O O1 0.541284 0.545745 0.591404
O O2 0.190127 0.500000 0.500000
O O3 0.214942 0.557629 0.250000
O O4 0.265711 0.553691 0.537255
O O5 0.183972 0.600033 0.532424
O O6 0.634122 0.256888 0.750000
O O7 0.681574 0.273859 0.038605
O O8 0.588501 0.276828 0.036001
O O9 0.639527 0.191180 0.989183
O O10 0.282723 0.686512 0.250000
O O11 0.310193 0.632834 0.513516
O O12 0.231443 0.679386 0.536109
O O13 0.448512 0.684676 0.250000
O O14 0.500000 0.684076 0.962099
O O15 0.426040 0.627846 0.994975
O O16 0.926395 0.936723 0.750000
O O17 0.866003 0.942808 0.025790
O O18 0.315226 0.572899 0.250000
O O19 0.315288 0.153961 0.250000
#
# Coordination Sequence:
#
# PCOD9468254 Si02
#       8
#     4  16  16  16  16  16  16  16
#     4  12  22  28  44  74  98 120 172 212 242 300
#     4   9  18  33  52  71  93 119 153 193 241 295
#     4  10  17  26  43  64  89 122 163 195 221 269
#     4   8  13  24  43  63  87 122 159 185 217 273
#     4   9  16  28  45  62  86 127 170 200 238 276
#     4  10  18  32  48  64  97 130 161 208 252 287
#     4   8  14  28  49  67  88 123 158 189 238 296
#     4   9  18  30  42  63  94 125 151 184 231 287
#
# _framework density 20.092084
#
# number of rings (size 3 to 8) (size 9 to 14) (size 15 to 20)
#    0.000    2.897    2.069    2.276    0.000    0.552 
#    2.483    0.000    1.517    0.000    0.000    0.483 
#    0.000    0.552    0.000    1.241    0.000    1.931 
#
# Total GULP energy -323173.404886 kJ/mol
# GULP energy per Si atom -5571.955257 kJ/mol
# Density = 2.004635 g / cm^3
# Si number density = 20.092084 Si / 1000 Ang^3
#
#
#
# Elastic Constant Matrix: (Units=GPa)
#
#
# Indices 1 2 3 4 5 6 
#
# 1 57.8743 53.7056 9.3139 0.0000 0.0000 0.0000
# 2 53.7056 137.2158 3.9727 0.0000 0.0000 0.0000
# 3 9.3139 3.9727 84.2323 0.0000 0.0000 0.0000
# 4 0.0000 0.0000 0.0000 -6.5322 0.0000 0.0000
# 5 0.0000 0.0000 0.0000 0.0000 -46.9800 0.0000
# 6 0.0000 0.0000 0.0000 0.0000 0.0000 6.5286
#
#
#
# Elastic Compliance Matrix: (Units=1/GPa)
#
#
# Indices 1 2 3 4 5 6 
#
# 1 0.027671 -0.010757 -0.002552 0.000000 0.000000 0.000000
# 2 -0.010757 0.011479 0.000648 0.000000 0.000000 0.000000
# 3 -0.002552 0.000648 0.012124 0.000000 0.000000 0.000000
# 4 0.000000 0.000000 0.000000 -0.153089 0.000000 0.000000
# 5 0.000000 0.000000 0.000000 0.000000 -0.021286 0.000000
# 6 0.000000 0.000000 0.000000 0.000000 0.000000 0.153172
#
#
# Mechanical properties :
#
#
# Convention : Reuss Voigt Hill
#
# Bulk Modulus (GPa) = 38.53250 45.92298 42.22774
# Shear Modulus (GPa) = 78.07163 4.75864 41.41513
#
# Velocity S-wave (km/s) = 6.24029 1.54063 4.54504
# Velocity P-wave (km/s) = 8.43453 5.10594 6.97180
#
# Compressibility (1/GPa) = 0.02595212
#
# Stress axis : x y z
#
# Youngs Moduli (GPa) = 36.13853 87.11497 82.48380
#
# Poissons Ratio (x) = 0.93705 0.21053
# Poissons Ratio (y) = 0.38872 -0.05345
# Poissons Ratio (z) = 0.09224 -0.05645
#
# Static dielectric constant tensor:
#      x y z
#    x 1.699830 0.000000 0.000000 
#    y 0.000000 1.765670 0.000000 
#    z 0.000000 0.000000 1.790640 
# 
# From -- ./inp_files/14915.got.cif
#   From: 2010.05.17/outbox.cif.g08.bks.cpg/sg63_8_cif.got.tgz:14915.got - 2010.06.03 15:47:04.
