data_PCOD9468642
_publ_section_title
;
Structure prediction by ZEFSAII (Michael W. Deem and Ramdas Pophale) SiO2 
 PCOD9468642
Probable space group: C M C M
;
_chemical_formula_sum "Si O2"
_cell_formula_units_Z 80
_cell_length_a 7.850120
_cell_length_b 21.118732
_cell_length_c 25.791090
_cell_angle_alpha 90.000000
_cell_angle_beta 90.000000
_cell_angle_gamma 90.000000
_cell_volume 4275.765035
_symmetry_space_group_name_H-M "C M C M"
_symmetry_group_IT_number 63
_symmetry_cell_setting 'orthorhombic'
loop_
_space_group_symop_operation_xyz
x,y,z
-x,-y,1/2+z
x,-y,-z
-x,y,1/2-z
-x,-y,-z
x,y,1/2-z
-x,y,z
x,-y,1/2+z
1/2+x,1/2+y,z
1/2-x,1/2-y,1/2+z
1/2+x,1/2-y,-z
1/2-x,1/2+y,1/2-z
1/2-x,1/2-y,-z
1/2+x,1/2+y,1/2-z
1/2-x,1/2+y,z
1/2+x,1/2-y,1/2+z
loop_
_atom_site_type_symbol
_atom_site_label
_atom_site_fract_x
_atom_site_fract_y
_atom_site_fract_z
Si Si1 0.695421 0.375977 0.750000
Si Si2 0.202951 0.388765 0.638811
Si Si3 0.709168 0.741855 0.861982
Si Si4 0.694376 0.734692 0.750000
Si Si5 0.794944 0.187163 0.968492
Si Si6 0.294811 0.563303 0.471711
O O1 0.500000 0.355237 0.750000
O O2 0.730560 0.409822 0.804651
O O3 0.806603 0.311768 0.750000
O O4 0.262121 0.315444 0.630533
O O5 0.253588 0.429398 0.588968
O O6 0.000000 0.387488 0.641647
O O7 0.500000 0.742271 0.860830
O O8 0.770993 0.718527 0.805756
O O9 0.765297 0.699238 0.909905
O O10 0.500000 0.711366 0.750000
O O11 0.000000 0.182319 0.966648
O O12 0.750000 0.250000 0.000000
O O13 0.728927 0.125388 0.998009
O O14 0.231952 0.500000 0.500000
O O15 0.500000 0.563392 0.475632
#
# Coordination Sequence:
#
# PCOD9468642 Si02
#       6
#     8  16  16   8  16  16
#     4  10  18  28  46  73 102 129 159 199 255 305
#     4  10  18  31  50  72  98 128 168 211 250 296
#     4   8  14  25  44  68  92 119 155 203 247 291
#     4   8  14  26  42  65  96 123 153 197 251 299
#     4  10  18  30  48  70  96 128 167 208 252 298
#     4  10  21  34  48  70 104 140 171 210 259 306
#
# _framework density 18.710101999999999
#
# number of rings (size 3 to 8) (size 9 to 14) (size 15 to 20)
#    0.000    2.600    2.000    2.700    0.000    0.400 
#    0.000    0.000    0.000    1.200    0.000    5.600 
#    0.000    0.000    0.000    0.000    0.000    0.000 
#
# Total GULP energy -222899.096125 kJ/mol
# GULP energy per Si atom -5572.477403 kJ/mol
# Density = 1.866752 g / cm^3
# Si number density = 18.710102 Si / 1000 Ang^3
#
#
#
# Elastic Constant Matrix: (Units=GPa)
#
#
# Indices 1 2 3 4 5 6 
#
# 1 33.9351 9.2164 7.1281 0.0000 0.0000 0.0000
# 2 9.2164 82.5709 69.3906 0.0000 0.0000 0.0000
# 3 7.1281 69.3906 217.1694 0.0000 0.0000 0.0000
# 4 0.0000 0.0000 0.0000 22.0324 0.0000 0.0000
# 5 0.0000 0.0000 0.0000 0.0000 18.8188 0.0000
# 6 0.0000 0.0000 0.0000 0.0000 0.0000 8.1267
#
#
#
# Elastic Compliance Matrix: (Units=1/GPa)
#
#
# Indices 1 2 3 4 5 6 
#
# 1 0.030391 -0.003491 0.000118 0.000000 0.000000 0.000000
# 2 -0.003491 0.016958 -0.005304 0.000000 0.000000 0.000000
# 3 0.000118 -0.005304 0.006296 0.000000 0.000000 0.000000
# 4 0.000000 0.000000 0.000000 0.045388 0.000000 0.000000
# 5 0.000000 0.000000 0.000000 0.000000 0.053138 0.000000
# 6 0.000000 0.000000 0.000000 0.000000 0.000000 0.123051
#
#
# Mechanical properties :
#
#
# Convention : Reuss Voigt Hill
#
# Bulk Modulus (GPa) = 27.55553 56.12728 41.84140
# Shear Modulus (GPa) = 16.41107 26.32494 21.36801
#
# Velocity S-wave (km/s) = 2.96484 3.75506 3.38310
# Velocity P-wave (km/s) = 5.14587 6.99029 6.13775
#
# Compressibility (1/GPa) = 0.03629036
#
# Stress axis : x y z
#
# Youngs Moduli (GPa) = 32.90397 58.97033 158.84360
#
# Poissons Ratio (x) = 0.20589 -0.01875
# Poissons Ratio (y) = 0.11488 0.84247
# Poissons Ratio (z) = -0.00388 0.31276
#
# Static dielectric constant tensor:
#      x y z
#    x 1.679520 0.000000 0.000000 
#    y 0.000000 1.615590 0.000000 
#    z 0.000000 0.000000 1.703680 
# 
# From -- ./inp_files/59546.got.cif
#   From: 2010.05.17/outbox.cif.g08.bks.cpg/sg63_30_cif.got.tgz:59546.got - 2010.06.03 15:47:04.
