data_PCOD9468117
_publ_section_title
;
Structure prediction by ZEFSAII (Michael W. Deem and Ramdas Pophale) SiO2 
 PCOD9468117
Probable space group: C M C M
;
_chemical_formula_sum "Si O2"
_cell_formula_units_Z 80
_cell_length_a 23.371225
_cell_length_b 9.463380
_cell_length_c 17.133687
_cell_angle_alpha 90.000000
_cell_angle_beta 90.000000
_cell_angle_gamma 90.000000
_cell_volume 3789.470974
_symmetry_space_group_name_H-M "C M C M"
_symmetry_group_IT_number 63
_symmetry_cell_setting 'orthorhombic'
loop_
_space_group_symop_operation_xyz
x,y,z
-x,-y,1/2+z
x,-y,-z
-x,y,1/2-z
-x,-y,-z
x,y,1/2-z
-x,y,z
x,-y,1/2+z
1/2+x,1/2+y,z
1/2-x,1/2-y,1/2+z
1/2+x,1/2-y,-z
1/2-x,1/2+y,1/2-z
1/2-x,1/2-y,-z
1/2+x,1/2+y,1/2-z
1/2-x,1/2+y,z
1/2+x,1/2-y,1/2+z
loop_
_atom_site_type_symbol
_atom_site_label
_atom_site_fract_x
_atom_site_fract_y
_atom_site_fract_z
Si Si1 0.912777 0.226651 0.894500
Si Si2 0.438119 0.956751 0.342764
Si Si3 0.316709 0.114118 0.655807
Si Si4 0.291269 0.211533 0.344795
Si Si5 0.000000 0.169482 0.020895
Si Si6 0.000000 0.995077 0.837440
O O1 0.926614 0.375347 0.852794
O O2 0.844749 0.214304 0.887603
O O3 0.945496 0.096621 0.853515
O O4 0.944056 0.231047 0.978517
O O5 0.441084 0.929391 0.250000
O O6 0.500000 0.931648 0.380232
O O7 0.381826 0.877835 0.373992
O O8 0.319730 0.127118 0.750000
O O9 0.295214 0.955272 0.639456
O O10 0.269280 0.224764 0.629611
O O11 0.297844 0.231080 0.250000
O O12 0.000000 0.146173 0.112142
O O13 0.000000 0.000000 0.000000
O O14 0.000000 0.949056 0.750000
#
# Coordination Sequence:
#
# PCOD9468117 Si02
#       6
#    16  16  16  16   8   8
#     4   9  14  22  37  58  87 114 143 186 236 276
#     4   9  13  19  34  57  80 106 144 193 237 274
#     4   8  15  23  34  56  84 117 158 196 237 281
#     4   9  15  24  37  58  86 121 159 195 236 281
#     4   8  16  24  34  60  88 114 144 186 238 274
#     4  10  16  24  38  62  90 118 148 184 234 284
#
# _framework density 21.111127
#
# number of rings (size 3 to 8) (size 9 to 14) (size 15 to 20)
#    0.000    3.400    2.000    3.000    0.000    0.000 
#    0.000    0.000    0.000    0.000    5.200   50.400 
#    0.000    0.000    0.000   64.800    0.000   44.000 
#
# Total GULP energy -222928.545491 kJ/mol
# GULP energy per Si atom -5573.213637 kJ/mol
# Density = 2.106308 g / cm^3
# Si number density = 21.111127 Si / 1000 Ang^3
#
#
#
# Elastic Constant Matrix: (Units=GPa)
#
#
# Indices 1 2 3 4 5 6 
#
# 1 201.1300 42.0747 20.8708 0.0000 0.0000 0.0000
# 2 42.0747 39.7763 9.0766 0.0000 0.0000 0.0000
# 3 20.8708 9.0766 71.5705 0.0000 0.0000 0.0000
# 4 0.0000 0.0000 0.0000 5.3493 0.0000 0.0000
# 5 0.0000 0.0000 0.0000 0.0000 13.9851 0.0000
# 6 0.0000 0.0000 0.0000 0.0000 0.0000 18.9962
#
#
#
# Elastic Compliance Matrix: (Units=1/GPa)
#
#
# Indices 1 2 3 4 5 6 
#
# 1 0.006460 -0.006594 -0.001048 0.000000 0.000000 0.000000
# 2 -0.006594 0.032621 -0.002214 0.000000 0.000000 0.000000
# 3 -0.001048 -0.002214 0.014558 0.000000 0.000000 0.000000
# 4 0.000000 0.000000 0.000000 0.186942 0.000000 0.000000
# 5 0.000000 0.000000 0.000000 0.000000 0.071505 0.000000
# 6 0.000000 0.000000 0.000000 0.000000 0.000000 0.052642
#
#
# Mechanical properties :
#
#
# Convention : Reuss Voigt Hill
#
# Bulk Modulus (GPa) = 29.47421 50.72455 40.09938
# Shear Modulus (GPa) = 12.63426 23.69643 18.16534
#
# Velocity S-wave (km/s) = 2.44901 3.35395 2.93655
# Velocity P-wave (km/s) = 4.68920 6.25126 5.52570
#
# Compressibility (1/GPa) = 0.03392797
#
# Stress axis : x y z
#
# Youngs Moduli (GPa) = 154.79666 30.65492 68.68843
#
# Poissons Ratio (x) = 0.20215 0.07195
# Poissons Ratio (y) = 1.02078 0.15208
# Poissons Ratio (z) = 0.16216 0.06787
#
# Static dielectric constant tensor:
#      x y z
#    x 1.781760 0.000000 0.000000 
#    y 0.000000 1.744060 0.000000 
#    z 0.000000 0.000000 1.864610 
# 
# From -- ./inp_files/46816.got.cif
#   From: 2010.05.17/outbox.cif.g08.bks.cpg/sg63_24_cif.got.tgz:46816.got - 2010.06.03 15:47:04.
