data_PCOD9468021
_publ_section_title
;
Structure prediction by ZEFSAII (Michael W. Deem and Ramdas Pophale) SiO2 
 PCOD9468021
Probable space group: P N M A
;
_chemical_formula_sum "Si O2"
_cell_formula_units_Z 48
_cell_length_a 18.000000
_cell_length_b 9.000000
_cell_length_c 15.000000
_cell_angle_alpha 90.000000
_cell_angle_beta 90.000000
_cell_angle_gamma 90.000000
_cell_volume 2430.000000
_symmetry_space_group_name_H-M "P N M A"
_symmetry_group_IT_number 62
_symmetry_cell_setting 'orthorhombic'
loop_
_space_group_symop_operation_xyz
x,y,z
1/2-x,-y,1/2+z
1/2+x,1/2-y,1/2-z
-x,1/2+y,-z
-x,-y,-z
1/2+x,y,1/2-z
1/2-x,1/2+y,1/2+z
x,1/2-y,z
loop_
_atom_site_type_symbol
_atom_site_label
_atom_site_fract_x
_atom_site_fract_y
_atom_site_fract_z
Si Si1 0.329768 0.425396 0.177184
Si Si2 0.426220 0.919667 0.029630
Si Si3 0.168323 0.923554 0.179630
Si Si4 0.423605 0.923517 0.526721
Si Si5 0.341330 0.081743 0.376790
Si Si6 0.665698 0.412758 0.150229
O O1 0.316884 0.250000 0.166213
O O2 0.384771 0.489507 0.105107
O O3 0.250681 0.507331 0.169894
O O4 0.364529 0.446998 0.275271
O O5 0.439015 0.750000 0.058248
O O6 0.375895 0.918495 0.941940
O O7 0.500000 0.000000 0.000000
O O8 0.171350 0.750000 0.161627
O O9 0.112451 0.002015 0.112764
O O10 0.144883 0.960832 0.280429
O O11 0.433128 0.750000 0.540125
O O12 0.500000 0.000000 0.500000
O O13 0.369292 0.961064 0.444983
O O14 0.364327 0.250000 0.403501
O O15 0.252562 0.079199 0.371436
O O16 0.652212 0.250000 0.193094
#
# Coordination Sequence:
#
# PCOD9468021 Si02
#       6
#     8   8   8   8   8   8
#     4  10  21  39  63  88 116 151 191 237 287 340
#     4  11  23  38  58  85 120 158 195 238 288 343
#     4  11  22  38  62  89 116 148 190 239 287 341
#     4  12  25  40  59  84 117 155 194 237 288 345
#     4   9  19  38  62  87 115 148 190 239 289 340
#     4   9  20  39  61  85 115 152 191 236 288 337
#
# _framework density 19.753086
#
# number of rings (size 3 to 8) (size 9 to 14) (size 15 to 20)
#    0.000    1.667    0.000    6.000    0.000    7.333 
#    0.000    1.667    0.000    0.000    0.000    0.000 
#    0.000    0.000    0.000    0.000    0.000    0.000 
#
# Total GULP energy -268041.641786 kJ/mol
# GULP energy per Si atom -5584.200871 kJ/mol
# Density = 1.970813 g / cm^3
# Si number density = 19.753086 Si / 1000 Ang^3
#
#
#
# Elastic Constant Matrix: (Units=GPa)
#
#
# Indices 1 2 3 4 5 6 
#
# 1 -14.1693 -9.9297 22.8656 0.0000 0.0000 0.0000
# 2 -9.9297 96.8094 35.5104 0.0000 0.0000 0.0000
# 3 22.8656 35.5104 47.6022 0.0000 0.0000 0.0000
# 4 0.0000 0.0000 0.0000 38.1071 0.0000 0.0000
# 5 0.0000 0.0000 0.0000 0.0000 45.5925 0.0000
# 6 0.0000 0.0000 0.0000 0.0000 0.0000 28.0252
#
#
#
# Elastic Compliance Matrix: (Units=1/GPa)
#
#
# Indices 1 2 3 4 5 6 
#
# 1 -0.028161 -0.010808 0.021590 0.000000 0.000000 0.000000
# 2 -0.010808 0.010073 -0.002323 0.000000 0.000000 0.000000
# 3 0.021590 -0.002323 0.012370 0.000000 0.000000 0.000000
# 4 0.000000 0.000000 0.000000 0.026242 0.000000 0.000000
# 5 0.000000 0.000000 0.000000 0.000000 0.021933 0.000000
# 6 0.000000 0.000000 0.000000 0.000000 0.000000 0.035682
#
#
# Mechanical properties :
#
#
# Convention : Reuss Voigt Hill
#
# Bulk Modulus (GPa) = 89.28930 25.23723 57.26327
# Shear Modulus (GPa) = 76.97718 27.79804 52.38761
#
# Velocity S-wave (km/s) = 6.24934 3.75544 5.15546
# Velocity P-wave (km/s) = 9.86779 5.62214 8.03062
#
# Compressibility (1/GPa) = 0.01119955
#
# Stress axis : x y z
#
# Youngs Moduli (GPa) = -35.50980 99.27429 80.84206
#
# Poissons Ratio (x) = 1.07293 -1.74534
# Poissons Ratio (y) = -0.38378 0.18779
# Poissons Ratio (z) = 0.76664 0.23061
#
# Static dielectric constant tensor:
#      x y z
#    x 1.664230 0.000000 0.000000 
#    y 0.000000 1.687750 0.000000 
#    z 0.000000 0.000000 1.807130 
# 
# From -- ./inp_files/19553.got.cif
#   From: 2010.05.17/outbox.ucp.g08.bks.cvg/sg62_10_cif.got.tgz:19553.got - 2010.06.11 16:29:25.
