data_PCOD9468989
_publ_section_title
;
Structure prediction by ZEFSAII (Michael W. Deem and Ramdas Pophale) SiO2 
 PCOD9468989
Probable space group: C M C M
;
_chemical_formula_sum "Si O2"
_cell_formula_units_Z 80
_cell_length_a 8.695888
_cell_length_b 20.838321
_cell_length_c 25.536842
_cell_angle_alpha 90.000000
_cell_angle_beta 90.000000
_cell_angle_gamma 90.000000
_cell_volume 4627.472545
_symmetry_space_group_name_H-M "C M C M"
_symmetry_group_IT_number 63
_symmetry_cell_setting 'orthorhombic'
loop_
_space_group_symop_operation_xyz
x,y,z
-x,-y,1/2+z
x,-y,-z
-x,y,1/2-z
-x,-y,-z
x,y,1/2-z
-x,y,z
x,-y,1/2+z
1/2+x,1/2+y,z
1/2-x,1/2-y,1/2+z
1/2+x,1/2-y,-z
1/2-x,1/2+y,1/2-z
1/2-x,1/2-y,-z
1/2+x,1/2+y,1/2-z
1/2-x,1/2+y,z
1/2+x,1/2-y,1/2+z
loop_
_atom_site_type_symbol
_atom_site_label
_atom_site_fract_x
_atom_site_fract_y
_atom_site_fract_z
Si Si1 0.816796 0.810317 0.531771
Si Si2 0.313925 0.239551 0.136511
Si Si3 0.683980 0.883609 0.139268
Si Si4 0.685304 0.933265 0.027009
Si Si5 0.321827 0.234738 0.250000
Si Si6 0.322426 0.390765 0.250000
O O1 0.750000 0.750000 0.500000
O O2 0.749644 0.803275 0.589938
O O3 0.762345 0.874576 0.503365
O O4 0.000000 0.806239 0.532682
O O5 0.500000 0.240447 0.136137
O O6 0.256382 0.312934 0.129940
O O7 0.256744 0.216048 0.193675
O O8 0.500000 0.876506 0.141813
O O9 0.723257 0.926678 0.088716
O O10 0.743322 0.909271 0.195243
O O11 0.500000 0.926693 0.022702
O O12 0.729848 0.000000 0.000000
O O13 0.500000 0.214376 0.250000
O O14 0.319027 0.312607 0.250000
O O15 0.500000 0.410543 0.250000
#
# Coordination Sequence:
#
# PCOD9468989 Si02
#       6
#    16  16  16  16   8   8
#     4  12  23  35  54  80 109 144 183 224 270 322
#     4  10  18  31  52  78 109 141 177 223 274 327
#     4  10  18  30  51  78 107 138 178 223 269 324
#     4  10  22  39  57  79 110 145 181 227 280 330
#     4   7  14  27  45  72 103 136 169 209 267 319
#     4   9  17  29  47  72 105 140 175 219 271 317
#
# _framework density 17.288056000000001
#
# number of rings (size 3 to 8) (size 9 to 14) (size 15 to 20)
#    0.000    2.000    2.000    4.500    0.000    1.200 
#    0.000    1.500    0.000    1.200    0.000    4.200 
#    0.000    0.000    0.000    0.000    0.000    0.000 
#
# Total GULP energy -223069.259767 kJ/mol
# GULP energy per Si atom -5576.731494 kJ/mol
# Density = 1.724871 g / cm^3
# Si number density = 17.288056 Si / 1000 Ang^3
#
#
#
# Elastic Constant Matrix: (Units=GPa)
#
#
# Indices 1 2 3 4 5 6 
#
# 1 72.3677 41.8735 62.4195 0.0000 0.0000 0.0000
# 2 41.8735 71.3483 62.0095 0.0000 0.0000 0.0000
# 3 62.4195 62.0095 200.7599 0.0000 0.0000 0.0000
# 4 0.0000 0.0000 0.0000 20.2198 0.0000 0.0000
# 5 0.0000 0.0000 0.0000 0.0000 28.1687 0.0000
# 6 0.0000 0.0000 0.0000 0.0000 0.0000 17.5359
#
#
#
# Elastic Compliance Matrix: (Units=1/GPa)
#
#
# Indices 1 2 3 4 5 6 
#
# 1 0.023159 -0.010025 -0.004104 0.000000 0.000000 0.000000
# 2 -0.010025 0.023498 -0.004141 0.000000 0.000000 0.000000
# 3 -0.004104 -0.004141 0.007536 0.000000 0.000000 0.000000
# 4 0.000000 0.000000 0.000000 0.049456 0.000000 0.000000
# 5 0.000000 0.000000 0.000000 0.000000 0.035500 0.000000
# 6 0.000000 0.000000 0.000000 0.000000 0.000000 0.057026
#
#
# Mechanical properties :
#
#
# Convention : Reuss Voigt Hill
#
# Bulk Modulus (GPa) = 56.64655 75.23120 65.93888
# Shear Modulus (GPa) = 20.95556 25.06311 23.00934
#
# Velocity S-wave (km/s) = 3.48536 3.81167 3.65216
# Velocity P-wave (km/s) = 7.00246 7.93615 7.48388
#
# Compressibility (1/GPa) = 0.01765332
#
# Stress axis : x y z
#
# Youngs Moduli (GPa) = 43.18028 42.55632 132.69323
#
# Poissons Ratio (x) = 0.42662 0.54458
# Poissons Ratio (y) = 0.43287 0.54950
# Poissons Ratio (z) = 0.17721 0.17623
#
# Static dielectric constant tensor:
#      x y z
#    x 1.585790 0.000000 0.000000 
#    y 0.000000 1.543330 0.000000 
#    z 0.000000 0.000000 1.636390 
# 
# From -- ./inp_files/66820.got.cif
#   From: 2010.05.17/outbox.cif.g08.bks.cpg/sg63_34_cif.got.tgz:66820.got - 2010.06.03 15:47:04.
