data_PCOD9468565
_publ_section_title
;
Structure prediction by ZEFSAII (Michael W. Deem and Ramdas Pophale) SiO2 
 PCOD9468565
Probable space group: C M C M
;
_chemical_formula_sum "Si O2"
_cell_formula_units_Z 88
_cell_length_a 21.180678
_cell_length_b 24.484461
_cell_length_c 8.945253
_cell_angle_alpha 90.000000
_cell_angle_beta 90.000000
_cell_angle_gamma 90.000000
_cell_volume 4638.985704
_symmetry_space_group_name_H-M "C M C M"
_symmetry_group_IT_number 63
_symmetry_cell_setting 'orthorhombic'
loop_
_space_group_symop_operation_xyz
x,y,z
-x,-y,1/2+z
x,-y,-z
-x,y,1/2-z
-x,-y,-z
x,y,1/2-z
-x,y,z
x,-y,1/2+z
1/2+x,1/2+y,z
1/2-x,1/2-y,1/2+z
1/2+x,1/2-y,-z
1/2-x,1/2+y,1/2-z
1/2-x,1/2-y,-z
1/2+x,1/2+y,1/2-z
1/2-x,1/2+y,z
1/2+x,1/2-y,1/2+z
loop_
_atom_site_type_symbol
_atom_site_label
_atom_site_fract_x
_atom_site_fract_y
_atom_site_fract_z
Si Si1 0.193757 0.717845 0.420011
Si Si2 0.428932 0.177544 0.569820
Si Si3 0.765961 0.591680 0.419472
Si Si4 0.611759 0.055688 0.926627
Si Si5 0.000000 0.938488 0.429162
Si Si6 0.374653 0.560097 0.071037
O O1 0.186660 0.737414 0.250000
O O2 0.250000 0.750000 0.500000
O O3 0.126116 0.714939 0.501695
O O4 0.215303 0.654804 0.417631
O O5 0.423319 0.178780 0.750000
O O6 0.500000 0.193898 0.528094
O O7 0.418541 0.113679 0.524071
O O8 0.774260 0.569534 0.250000
O O9 0.814502 0.561927 0.528721
O O10 0.692592 0.587431 0.458533
O O11 0.604049 0.051634 0.750000
O O12 0.587029 0.000000 0.000000
O O13 0.064481 0.913113 0.492860
O O14 0.000000 0.941360 0.250000
O O15 0.000000 0.000000 0.500000
O O16 0.384731 0.556879 0.250000
O O17 0.368894 0.500000 0.000000
#
# Coordination Sequence:
#
# PCOD9468565 Si02
#       6
#    16  16  16  16   8  16
#     4  10  20  36  58  82 105 132 171 217 267 320
#     4   9  19  36  56  79 108 143 182 221 265 316
#     4   9  19  33  50  72  98 129 168 211 255 305
#     4  10  19  30  47  73 107 144 179 215 255 301
#     4  10  18  28  42  62  88 122 160 196 236 286
#     4  10  18  29  45  66  93 126 162 200 241 292
#
# _framework density 18.969664999999999
#
# number of rings (size 3 to 8) (size 9 to 14) (size 15 to 20)
#    0.000    2.364    0.000    4.091    0.000    5.091 
#    0.000    0.000    2.000    0.000    0.000    0.000 
#    0.000    0.000    0.000    0.000    0.000    0.000 
#
# Total GULP energy -245327.518340 kJ/mol
# GULP energy per Si atom -5575.625417 kJ/mol
# Density = 1.892649 g / cm^3
# Si number density = 18.969665 Si / 1000 Ang^3
#
#
#
# Elastic Constant Matrix: (Units=GPa)
#
#
# Indices 1 2 3 4 5 6 
#
# 1 156.7891 17.7416 51.0601 0.0000 0.0000 0.0000
# 2 17.7416 26.4719 18.5685 0.0000 0.0000 0.0000
# 3 51.0601 18.5685 77.1515 0.0000 0.0000 0.0000
# 4 0.0000 0.0000 0.0000 23.3091 0.0000 0.0000
# 5 0.0000 0.0000 0.0000 0.0000 27.6256 0.0000
# 6 0.0000 0.0000 0.0000 0.0000 0.0000 15.8890
#
#
#
# Elastic Compliance Matrix: (Units=1/GPa)
#
#
# Indices 1 2 3 4 5 6 
#
# 1 0.008221 -0.002037 -0.004950 0.000000 0.000000 0.000000
# 2 -0.002037 0.045953 -0.009712 0.000000 0.000000 0.000000
# 3 -0.004950 -0.009712 0.018575 0.000000 0.000000 0.000000
# 4 0.000000 0.000000 0.000000 0.042902 0.000000 0.000000
# 5 0.000000 0.000000 0.000000 0.000000 0.036198 0.000000
# 6 0.000000 0.000000 0.000000 0.000000 0.000000 0.062936
#
#
# Mechanical properties :
#
#
# Convention : Reuss Voigt Hill
#
# Bulk Modulus (GPa) = 25.41238 48.35034 36.88136
# Shear Modulus (GPa) = 19.13505 24.90090 22.01798
#
# Velocity S-wave (km/s) = 3.17948 3.62701 3.41059
# Velocity P-wave (km/s) = 5.18692 6.56383 5.91557
#
# Compressibility (1/GPa) = 0.03935089
#
# Stress axis : x y z
#
# Youngs Moduli (GPa) = 121.64538 21.76117 53.83572
#
# Poissons Ratio (x) = 0.04433 0.26650
# Poissons Ratio (y) = 0.24782 0.52283
# Poissons Ratio (z) = 0.60217 0.21134
#
# Static dielectric constant tensor:
#      x y z
#    x 1.706140 0.000000 0.000000 
#    y 0.000000 1.657030 0.000000 
#    z 0.000000 0.000000 1.659180 
# 
# From -- ./inp_files/8986.got.cif
#   From: 2010.05.17/outbox.cif.g08.bks.cpg/sg63_5_cif.got.tgz:8986.got - 2010.06.03 15:47:04.
