data_PCOD9468734
_publ_section_title
;
Structure prediction by ZEFSAII (Michael W. Deem and Ramdas Pophale) SiO2 
 PCOD9468734
Probable space group: C M C M
;
_chemical_formula_sum "Si O2"
_cell_formula_units_Z 96
_cell_length_a 26.533470
_cell_length_b 24.182496
_cell_length_c 7.538744
_cell_angle_alpha 90.000000
_cell_angle_beta 90.000000
_cell_angle_gamma 90.000000
_cell_volume 4837.201406
_symmetry_space_group_name_H-M "C M C M"
_symmetry_group_IT_number 63
_symmetry_cell_setting 'orthorhombic'
loop_
_space_group_symop_operation_xyz
x,y,z
-x,-y,1/2+z
x,-y,-z
-x,y,1/2-z
-x,-y,-z
x,y,1/2-z
-x,y,z
x,-y,1/2+z
1/2+x,1/2+y,z
1/2-x,1/2-y,1/2+z
1/2+x,1/2-y,-z
1/2-x,1/2+y,1/2-z
1/2-x,1/2-y,-z
1/2+x,1/2+y,1/2-z
1/2-x,1/2+y,z
1/2+x,1/2-y,1/2+z
loop_
_atom_site_type_symbol
_atom_site_label
_atom_site_fract_x
_atom_site_fract_y
_atom_site_fract_z
Si Si1 0.805563 0.063789 0.537151
Si Si2 0.500000 0.564809 0.537178
Si Si3 0.808088 0.563799 0.537218
Si Si4 0.057963 0.248694 0.463120
Si Si5 0.097137 0.367031 0.467556
Si Si6 0.598387 0.628790 0.961960
Si Si7 0.000000 0.564657 0.538046
O O1 0.802995 0.069918 0.750000
O O2 0.748741 0.073054 0.468082
O O3 0.849042 0.104302 0.468715
O O4 0.819359 0.000000 0.500000
O O5 0.500000 0.500000 0.500000
O O6 0.500000 0.572024 0.750000
O O7 0.449658 0.594524 0.467986
O O8 0.822100 0.500000 0.500000
O O9 0.806289 0.569423 0.750000
O O10 0.850642 0.605777 0.471651
O O11 0.055001 0.252315 0.250000
O O12 0.085333 0.304545 0.524741
O O13 0.087778 0.193052 0.506600
O O14 0.000000 0.245565 0.529101
O O15 0.097922 0.367320 0.250000
O O16 0.050399 0.405118 0.526392
O O17 0.599478 0.620393 0.750000
O O18 0.000000 0.500000 0.500000
O O19 0.000000 0.571652 0.750000
#
# Coordination Sequence:
#
# PCOD9468734 Si02
#       7
#    16   8  16  16  16  16   8
#     4   9  18  32  51  73  98 128 160 194 238 289
#     4  10  20  31  46  68  94 121 149 188 239 286
#     4   9  17  31  51  73  98 129 160 195 239 286
#     4  10  19  33  52  71  91 126 170 202 232 281
#     4   9  17  31  50  70  96 127 161 198 238 281
#     4  10  20  34  49  69  98 127 156 196 246 289
#     4  10  18  29  46  70  98 125 153 194 241 284
#
# _framework density 19.846185999999999
#
# number of rings (size 3 to 8) (size 9 to 14) (size 15 to 20)
#    0.000    2.500    1.667    1.000    0.000    1.333 
#    0.000    2.500    0.000    0.000    0.000    0.000 
#    0.000    0.000    0.000    0.000    0.000    0.000 
#
# Total GULP energy -267941.212774 kJ/mol
# GULP energy per Si atom -5582.108599 kJ/mol
# Density = 1.980102 g / cm^3
# Si number density = 19.846186 Si / 1000 Ang^3
#
#
#
# Elastic Constant Matrix: (Units=GPa)
#
#
# Indices 1 2 3 4 5 6 
#
# 1 177.4933 131.6311 7.7332 0.0000 0.0000 0.0000
# 2 131.6311 190.9746 -8.6290 0.0000 0.0000 0.0000
# 3 7.7332 -8.6290 47.8265 0.0000 0.0000 0.0000
# 4 0.0000 0.0000 0.0000 22.9153 0.0000 0.0000
# 5 0.0000 0.0000 0.0000 0.0000 32.7971 0.0000
# 6 0.0000 0.0000 0.0000 0.0000 0.0000 10.6901
#
#
#
# Elastic Compliance Matrix: (Units=1/GPa)
#
#
# Indices 1 2 3 4 5 6 
#
# 1 0.012074 -0.008480 -0.003482 0.000000 0.000000 0.000000
# 2 -0.008480 0.011235 0.003398 0.000000 0.000000 0.000000
# 3 -0.003482 0.003398 0.022085 0.000000 0.000000 0.000000
# 4 0.000000 0.000000 0.000000 0.043639 0.000000 0.000000
# 5 0.000000 0.000000 0.000000 0.000000 0.030490 0.000000
# 6 0.000000 0.000000 0.000000 0.000000 0.000000 0.093544
#
#
# Mechanical properties :
#
#
# Convention : Reuss Voigt Hill
#
# Bulk Modulus (GPa) = 35.37798 75.30723 55.34260
# Shear Modulus (GPa) = 20.86658 32.31779 26.59218
#
# Velocity S-wave (km/s) = 3.24607 4.03974 3.66445
# Velocity P-wave (km/s) = 5.64925 7.73221 6.77131
#
# Compressibility (1/GPa) = 0.02826617
#
# Stress axis : x y z
#
# Youngs Moduli (GPa) = 82.81971 89.01084 45.27946
#
# Poissons Ratio (x) = 0.75479 0.15768
# Poissons Ratio (y) = 0.70229 -0.15386
# Poissons Ratio (z) = 0.28840 -0.30247
#
# Static dielectric constant tensor:
#      x y z
#    x 1.711490 0.000000 0.000000 
#    y 0.000000 1.654940 0.000000 
#    z 0.000000 0.000000 1.717990 
# 
# From -- ./inp_files/10514.got.cif
#   From: 2010.05.17/outbox.cif.g08.bks.cpg/sg63_6_cif.got.tgz:10514.got - 2010.06.03 15:47:04.
