data_PCOD9468806
_publ_section_title
;
Structure prediction by ZEFSAII (Michael W. Deem and Ramdas Pophale) SiO2 
 PCOD9468806
Probable space group: C M C M
;
_chemical_formula_sum "Si O2"
_cell_formula_units_Z 96
_cell_length_a 8.610160
_cell_length_b 20.564632
_cell_length_c 25.655158
_cell_angle_alpha 90.000000
_cell_angle_beta 90.000000
_cell_angle_gamma 90.000000
_cell_volume 4542.624698
_symmetry_space_group_name_H-M "C M C M"
_symmetry_group_IT_number 63
_symmetry_cell_setting 'orthorhombic'
loop_
_space_group_symop_operation_xyz
x,y,z
-x,-y,1/2+z
x,-y,-z
-x,y,1/2-z
-x,-y,-z
x,y,1/2-z
-x,y,z
x,-y,1/2+z
1/2+x,1/2+y,z
1/2-x,1/2-y,1/2+z
1/2+x,1/2-y,-z
1/2-x,1/2+y,1/2-z
1/2-x,1/2-y,-z
1/2+x,1/2+y,1/2-z
1/2-x,1/2+y,z
1/2+x,1/2-y,1/2+z
loop_
_atom_site_type_symbol
_atom_site_label
_atom_site_fract_x
_atom_site_fract_y
_atom_site_fract_z
Si Si1 0.180481 0.251511 0.608322
Si Si2 0.182443 0.056152 0.043584
Si Si3 0.819970 0.337929 0.473381
Si Si4 0.682913 0.015028 0.153588
Si Si5 0.677826 0.610362 0.874475
Si Si6 0.810145 0.348300 0.806624
O O1 0.255839 0.227778 0.554143
O O2 0.185706 0.185224 0.643431
O O3 0.248842 0.308303 0.643471
O O4 0.000000 0.265180 0.597264
O O5 0.278901 0.037706 0.094618
O O6 0.000000 0.057546 0.056408
O O7 0.233354 0.125869 0.020205
O O8 0.205165 0.000000 0.000000
O O9 0.790138 0.387586 0.424633
O O10 0.000000 0.331655 0.484831
O O11 0.500000 0.004597 0.159989
O O12 0.731649 0.076277 0.188068
O O13 0.771766 0.947559 0.162320
O O14 0.500000 0.599806 0.892641
O O15 0.761788 0.322881 0.750000
O O16 0.000000 0.344634 0.808903
#
# Coordination Sequence:
#
# PCOD9468806 Si02
#       6
#    16  16  16  16  16  16
#     4   8  16  33  56  78 104 141 182 220 263 321
#     4  11  20  31  50  77 113 154 186 217 265 328
#     4  10  18  29  51  80 108 136 177 226 265 309
#     4  11  21  32  54  86 115 145 183 228 273 323
#     4   9  17  31  52  78 109 143 178 219 266 316
#     4   9  19  38  61  82 107 143 184 226 277 333
#
# _framework density 21.133157000000001
#
# number of rings (size 3 to 8) (size 9 to 14) (size 15 to 20)
#    1.000    1.333    1.667    2.500    0.000    0.667 
#    0.000    3.333    0.000    5.500    0.000    0.000 
#    0.000    0.000    0.000    0.000    0.000    0.000 
#
# Total GULP energy -267483.640032 kJ/mol
# GULP energy per Si atom -5572.575834 kJ/mol
# Density = 2.108506 g / cm^3
# Si number density = 21.133157 Si / 1000 Ang^3
#
#
#
# Elastic Constant Matrix: (Units=GPa)
#
#
# Indices 1 2 3 4 5 6 
#
# 1 34.5568 18.3970 3.8917 0.0000 0.0000 0.0000
# 2 18.3970 92.5566 31.0785 0.0000 0.0000 0.0000
# 3 3.8917 31.0785 56.0826 0.0000 0.0000 0.0000
# 4 0.0000 0.0000 0.0000 21.2264 0.0000 0.0000
# 5 0.0000 0.0000 0.0000 0.0000 5.3974 0.0000
# 6 0.0000 0.0000 0.0000 0.0000 0.0000 2.5795
#
#
#
# Elastic Compliance Matrix: (Units=1/GPa)
#
#
# Indices 1 2 3 4 5 6 
#
# 1 0.032483 -0.007003 0.001626 0.000000 0.000000 0.000000
# 2 -0.007003 0.014784 -0.007707 0.000000 0.000000 0.000000
# 3 0.001626 -0.007707 0.021989 0.000000 0.000000 0.000000
# 4 0.000000 0.000000 0.000000 0.047111 0.000000 0.000000
# 5 0.000000 0.000000 0.000000 0.000000 0.185276 0.000000
# 6 0.000000 0.000000 0.000000 0.000000 0.000000 0.387671
#
#
# Mechanical properties :
#
#
# Convention : Reuss Voigt Hill
#
# Bulk Modulus (GPa) = 23.20740 32.21448 27.71094
# Shear Modulus (GPa) = 6.85080 14.49591 10.67336
#
# Velocity S-wave (km/s) = 1.80243 2.62187 2.24978
# Velocity P-wave (km/s) = 3.91625 4.94391 4.45978
#
# Compressibility (1/GPa) = 0.04308971
#
# Stress axis : x y z
#
# Youngs Moduli (GPa) = 30.78563 67.64175 45.47806
#
# Poissons Ratio (x) = 0.47367 -0.07397
# Poissons Ratio (y) = 0.21558 0.35048
# Poissons Ratio (z) = -0.05007 0.52129
#
# Static dielectric constant tensor:
#      x y z
#    x 1.713450 0.000000 0.000000 
#    y 0.000000 1.846040 0.000000 
#    z 0.000000 0.000000 1.789060 
# 
# From -- ./inp_files/67249.got.cif
#   From: 2010.05.17/outbox.cif.g08.bks.cpg/sg63_34_cif.got.tgz:67249.got - 2010.06.03 15:47:04.
