data_PCOD9468482
_publ_section_title
;
Structure prediction by ZEFSAII (Michael W. Deem and Ramdas Pophale) SiO2 
 PCOD9468482
Probable space group: C M C M
;
_chemical_formula_sum "Si O2"
_cell_formula_units_Z 80
_cell_length_a 24.149266
_cell_length_b 12.312305
_cell_length_c 14.828901
_cell_angle_alpha 90.000000
_cell_angle_beta 90.000000
_cell_angle_gamma 90.000000
_cell_volume 4409.123527
_symmetry_space_group_name_H-M "C M C M"
_symmetry_group_IT_number 63
_symmetry_cell_setting 'orthorhombic'
loop_
_space_group_symop_operation_xyz
x,y,z
-x,-y,1/2+z
x,-y,-z
-x,y,1/2-z
-x,-y,-z
x,y,1/2-z
-x,y,z
x,-y,1/2+z
1/2+x,1/2+y,z
1/2-x,1/2-y,1/2+z
1/2+x,1/2-y,-z
1/2-x,1/2+y,1/2-z
1/2-x,1/2-y,-z
1/2+x,1/2+y,1/2-z
1/2-x,1/2+y,z
1/2+x,1/2-y,1/2+z
loop_
_atom_site_type_symbol
_atom_site_label
_atom_site_fract_x
_atom_site_fract_y
_atom_site_fract_z
Si Si1 0.151218 0.367635 0.858055
Si Si2 0.757751 0.545197 0.648185
Si Si3 0.146689 0.267937 0.147532
Si Si4 0.063141 0.451990 0.359920
Si Si5 0.693663 0.317246 0.019836
O O1 0.147600 0.349121 0.750000
O O2 0.207113 0.438114 0.873732
O O3 0.100779 0.445538 0.887747
O O4 0.157168 0.259027 0.914564
O O5 0.735885 0.535775 0.750000
O O6 0.803589 0.642428 0.649600
O O7 0.712422 0.578978 0.576224
O O8 0.139368 0.229192 0.250000
O O9 0.094201 0.340012 0.116953
O O10 0.162851 0.177178 0.075608
O O11 0.063783 0.454542 0.250000
O O12 0.000000 0.457594 0.390485
O O13 0.750000 0.250000 0.000000
#
# Coordination Sequence:
#
# PCOD9468482 Si02
#       5
#    16  16  16  16  16
#     4   9  17  29  44  63  87 113 143 175 209 252
#     4   8  15  27  41  58  80 106 137 173 209 247
#     4   8  15  26  37  53  78 106 139 173 200 234
#     4   8  14  26  43  60  82 114 145 173 206 246
#     4  10  18  26  41  58  78 111 147 175 207 249
#
# _framework density 18.144196000000001
#
# number of rings (size 3 to 8) (size 9 to 14) (size 15 to 20)
#    0.000    3.400    0.000    3.000    0.000    8.000 
#    0.000    2.000    0.000    1.200    0.000    0.000 
#    0.000    0.000    0.000   64.800    0.000  574.800 
#
# Total GULP energy -223057.140601 kJ/mol
# GULP energy per Si atom -5576.428515 kJ/mol
# Density = 1.810290 g / cm^3
# Si number density = 18.144196 Si / 1000 Ang^3
#
#
#
# Elastic Constant Matrix: (Units=GPa)
#
#
# Indices 1 2 3 4 5 6 
#
# 1 85.2715 26.2127 47.9625 0.0000 0.0000 0.0000
# 2 26.2127 31.9140 42.5647 0.0000 0.0000 0.0000
# 3 47.9625 42.5647 91.0384 0.0000 0.0000 0.0000
# 4 0.0000 0.0000 0.0000 21.9379 0.0000 0.0000
# 5 0.0000 0.0000 0.0000 0.0000 10.5234 0.0000
# 6 0.0000 0.0000 0.0000 0.0000 0.0000 12.4465
#
#
#
# Elastic Compliance Matrix: (Units=1/GPa)
#
#
# Indices 1 2 3 4 5 6 
#
# 1 0.017004 -0.005362 -0.006452 0.000000 0.000000 0.000000
# 2 -0.005362 0.084934 -0.036885 0.000000 0.000000 0.000000
# 3 -0.006452 -0.036885 0.031629 0.000000 0.000000 0.000000
# 4 0.000000 0.000000 0.000000 0.045583 0.000000 0.000000
# 5 0.000000 0.000000 0.000000 0.000000 0.095026 0.000000
# 6 0.000000 0.000000 0.000000 0.000000 0.000000 0.080344
#
#
# Mechanical properties :
#
#
# Convention : Reuss Voigt Hill
#
# Bulk Modulus (GPa) = 27.64809 49.07821 38.36315
# Shear Modulus (GPa) = 10.77645 15.08049 12.92847
#
# Velocity S-wave (km/s) = 2.43972 2.88609 2.67224
# Velocity P-wave (km/s) = 4.81740 6.18172 5.54171
#
# Compressibility (1/GPa) = 0.03616886
#
# Stress axis : x y z
#
# Youngs Moduli (GPa) = 58.80857 11.77392 31.61656
#
# Poissons Ratio (x) = 0.06313 0.20398
# Poissons Ratio (y) = 0.31533 1.16619
# Poissons Ratio (z) = 0.37941 0.43429
#
# Static dielectric constant tensor:
#      x y z
#    x 1.616840 0.000000 0.000000 
#    y 0.000000 1.634120 0.000000 
#    z 0.000000 0.000000 1.686070 
# 
# From -- ./inp_files/35093.got.cif
#   From: 2010.05.17/outbox.cif.g08.bks.cpg/sg63_18_cif.got.tgz:35093.got - 2010.06.03 15:47:04.
