data_PCOD9468343
_publ_section_title
;
Structure prediction by ZEFSAII (Michael W. Deem and Ramdas Pophale) SiO2 
 PCOD9468343
Probable space group: C M C M
;
_chemical_formula_sum "Si O2"
_cell_formula_units_Z 80
_cell_length_a 11.987786
_cell_length_b 19.301859
_cell_length_c 20.881853
_cell_angle_alpha 90.000000
_cell_angle_beta 90.000000
_cell_angle_gamma 90.000000
_cell_volume 4831.780030
_symmetry_space_group_name_H-M "C M C M"
_symmetry_group_IT_number 63
_symmetry_cell_setting 'orthorhombic'
loop_
_space_group_symop_operation_xyz
x,y,z
-x,-y,1/2+z
x,-y,-z
-x,y,1/2-z
-x,-y,-z
x,y,1/2-z
-x,y,z
x,-y,1/2+z
1/2+x,1/2+y,z
1/2-x,1/2-y,1/2+z
1/2+x,1/2-y,-z
1/2-x,1/2+y,1/2-z
1/2-x,1/2-y,-z
1/2+x,1/2+y,1/2-z
1/2-x,1/2+y,z
1/2+x,1/2-y,1/2+z
loop_
_atom_site_type_symbol
_atom_site_label
_atom_site_fract_x
_atom_site_fract_y
_atom_site_fract_z
Si Si1 0.633387 0.949321 0.440794
Si Si2 0.710265 0.475135 0.177071
Si Si3 0.000000 0.890007 0.483339
Si Si4 0.772818 0.811077 0.451133
Si Si5 0.632581 0.314518 0.178390
Si Si6 0.500000 0.474406 0.608465
O O1 0.500000 0.948772 0.435220
O O2 0.692198 0.975332 0.375580
O O3 0.680902 0.872027 0.452608
O O4 0.664834 0.000000 0.500000
O O5 0.743732 0.491156 0.250000
O O6 0.659857 0.396830 0.177367
O O7 0.609896 0.522726 0.151765
O O8 0.889263 0.847484 0.468975
O O9 0.000000 0.914000 0.556648
O O10 0.000000 0.956350 0.436118
O O11 0.750000 0.750000 0.500000
O O12 0.793480 0.784177 0.378739
O O13 0.658534 0.289059 0.250000
O O14 0.500000 0.305366 0.167549
#
# Coordination Sequence:
#
# PCOD9468343 Si02
#       6
#    16  16   8  16  16   8
#     4  10  21  36  52  74 106 143 177 216 269 318
#     4  10  17  28  50  80 107 133 169 215 263 312
#     4  11  20  32  52  84 105 138 170 219 276 311
#     4  11  21  33  53  79 108 136 179 221 265 323
#     4   9  15  28  49  75 103 127 164 216 260 298
#     4  11  17  30  56  80 114 126 168 219 277 317
#
# _framework density 16.557044999999999
#
# number of rings (size 3 to 8) (size 9 to 14) (size 15 to 20)
#    0.000    1.800    6.000    1.500    1.400    0.400 
#    0.000    0.000    0.000    6.000    0.000    0.000 
#    0.000    0.000    0.000    0.000    0.000    0.000 
#
# Total GULP energy -223017.978350 kJ/mol
# GULP energy per Si atom -5575.449459 kJ/mol
# Density = 1.651936 g / cm^3
# Si number density = 16.557045 Si / 1000 Ang^3
#
#
#
# Elastic Constant Matrix: (Units=GPa)
#
#
# Indices 1 2 3 4 5 6 
#
# 1 83.0960 23.5850 56.4490 0.0000 0.0000 0.0000
# 2 23.5850 29.5157 44.7406 0.0000 0.0000 0.0000
# 3 56.4490 44.7406 180.3475 0.0000 0.0000 0.0000
# 4 0.0000 0.0000 0.0000 25.9297 0.0000 0.0000
# 5 0.0000 0.0000 0.0000 0.0000 24.0176 0.0000
# 6 0.0000 0.0000 0.0000 0.0000 0.0000 4.2664
#
#
#
# Elastic Compliance Matrix: (Units=1/GPa)
#
#
# Indices 1 2 3 4 5 6 
#
# 1 0.016545 -0.008607 -0.003043 0.000000 0.000000 0.000000
# 2 -0.008607 0.058777 -0.011887 0.000000 0.000000 0.000000
# 3 -0.003043 -0.011887 0.009446 0.000000 0.000000 0.000000
# 4 0.000000 0.000000 0.000000 0.038566 0.000000 0.000000
# 5 0.000000 0.000000 0.000000 0.000000 0.041636 0.000000
# 6 0.000000 0.000000 0.000000 0.000000 0.000000 0.234389
#
#
# Mechanical properties :
#
#
# Convention : Reuss Voigt Hill
#
# Bulk Modulus (GPa) = 26.53050 60.27873 43.40461
# Shear Modulus (GPa) = 10.89327 22.05505 16.47416
#
# Velocity S-wave (km/s) = 2.56778 3.65371 3.15777
# Velocity P-wave (km/s) = 4.98496 7.36785 6.29027
#
# Compressibility (1/GPa) = 0.03769247
#
# Stress axis : x y z
#
# Youngs Moduli (GPa) = 60.44277 17.01342 105.86064
#
# Poissons Ratio (x) = 0.14644 0.32215
# Poissons Ratio (y) = 0.52025 1.25840
# Poissons Ratio (z) = 0.18394 0.20224
#
# Static dielectric constant tensor:
#      x y z
#    x 1.541240 0.000000 0.000000 
#    y 0.000000 1.535800 0.000000 
#    z 0.000000 0.000000 1.610520 
# 
# From -- ./inp_files/61177.got.cif
#   From: 2010.05.17/outbox.cif.g08.bks.cpg/sg63_31_cif.got.tgz:61177.got - 2010.06.03 15:47:04.
