data_PCOD9468246
_publ_section_title
;
Structure prediction by ZEFSAII (Michael W. Deem and Ramdas Pophale) SiO2 
 PCOD9468246
Probable space group: C M C M
;
_chemical_formula_sum "Si O2"
_cell_formula_units_Z 80
_cell_length_a 14.442566
_cell_length_b 15.458179
_cell_length_c 15.467376
_cell_angle_alpha 90.000000
_cell_angle_beta 90.000000
_cell_angle_gamma 90.000000
_cell_volume 3453.180946
_symmetry_space_group_name_H-M "C M C M"
_symmetry_group_IT_number 63
_symmetry_cell_setting 'orthorhombic'
loop_
_space_group_symop_operation_xyz
x,y,z
-x,-y,1/2+z
x,-y,-z
-x,y,1/2-z
-x,-y,-z
x,y,1/2-z
-x,y,z
x,-y,1/2+z
1/2+x,1/2+y,z
1/2-x,1/2-y,1/2+z
1/2+x,1/2-y,-z
1/2-x,1/2+y,1/2-z
1/2-x,1/2-y,-z
1/2+x,1/2+y,1/2-z
1/2-x,1/2+y,z
1/2+x,1/2-y,1/2+z
loop_
_atom_site_type_symbol
_atom_site_label
_atom_site_fract_x
_atom_site_fract_y
_atom_site_fract_z
Si Si1 0.628986 0.842143 0.342571
Si Si2 0.144947 0.217063 0.483833
Si Si3 0.695809 0.426933 0.851011
Si Si4 0.848174 0.128325 0.653695
Si Si5 0.398851 0.969013 0.599080
O O1 0.600063 0.804712 0.250000
O O2 0.599133 0.793563 0.429127
O O3 0.740705 0.842330 0.342457
O O4 0.600981 0.941685 0.348051
O O5 0.250000 0.250000 0.500000
O O6 0.147665 0.137497 0.416955
O O7 0.108860 0.182239 0.575251
O O8 0.681640 0.406550 0.750000
O O9 0.660745 0.525429 0.865329
O O10 0.806157 0.420821 0.871534
O O11 0.887587 0.139844 0.750000
O O12 0.500000 0.926398 0.608321
O O13 0.386613 0.000000 0.500000
#
# Coordination Sequence:
#
# PCOD9468246 Si02
#       5
#    16  16  16  16  16
#     4   9  17  28  41  60  85 115 148 182 225 268
#     4  10  17  26  41  59  86 114 145 185 226 270
#     4  10  18  28  43  63  87 118 154 187 225 269
#     4   8  15  26  40  58  82 110 140 177 221 270
#     4  10  19  31  46  63  88 124 162 193 221 260
#
# _framework density 23.167045000000002
#
# number of rings (size 3 to 8) (size 9 to 14) (size 15 to 20)
#    0.000    2.600    0.000    6.600    0.000    2.400 
#    0.000    0.000    0.000    0.000    0.000    0.000 
#    0.000    3.200    0.000   12.600    0.000  110.600 
#
# Total GULP energy -223308.954476 kJ/mol
# GULP energy per Si atom -5582.723862 kJ/mol
# Density = 2.311432 g / cm^3
# Si number density = 23.167045 Si / 1000 Ang^3
#
#
#
# Elastic Constant Matrix: (Units=GPa)
#
#
# Indices 1 2 3 4 5 6 
#
# 1 52.2790 -2.5158 -6.0574 0.0000 0.0000 0.0000
# 2 -2.5158 50.7824 36.8989 0.0000 0.0000 0.0000
# 3 -6.0574 36.8989 138.2063 0.0000 0.0000 0.0000
# 4 0.0000 0.0000 0.0000 37.1870 0.0000 0.0000
# 5 0.0000 0.0000 0.0000 0.0000 -37.0381 0.0000
# 6 0.0000 0.0000 0.0000 0.0000 0.0000 -14.0032
#
#
#
# Elastic Compliance Matrix: (Units=1/GPa)
#
#
# Indices 1 2 3 4 5 6 
#
# 1 0.019233 0.000422 0.000730 0.000000 0.000000 0.000000
# 2 0.000422 0.024441 -0.006507 0.000000 0.000000 0.000000
# 3 0.000730 -0.006507 0.009005 0.000000 0.000000 0.000000
# 4 0.000000 0.000000 0.000000 0.026891 0.000000 0.000000
# 5 0.000000 0.000000 0.000000 0.000000 -0.026999 0.000000
# 6 0.000000 0.000000 0.000000 0.000000 0.000000 -0.071412
#
#
# Mechanical properties :
#
#
# Convention : Reuss Voigt Hill
#
# Bulk Modulus (GPa) = 23.82663 33.10214 28.46438
# Shear Modulus (GPa) = 853.71088 11.42528 432.56808
#
# Velocity S-wave (km/s) = 19.21724 2.22315 13.67927
# Velocity P-wave (km/s) = 22.42120 4.57267 16.18053
#
# Compressibility (1/GPa) = 0.04196984
#
# Stress axis : x y z
#
# Youngs Moduli (GPa) = 51.99382 40.91549 111.05232
#
# Poissons Ratio (x) = -0.01728 -0.08109
# Poissons Ratio (y) = -0.02195 0.72259
# Poissons Ratio (z) = -0.03797 0.26623
#
# Static dielectric constant tensor:
#      x y z
#    x 1.793770 0.000000 0.000000 
#    y 0.000000 1.874380 0.000000 
#    z 0.000000 0.000000 1.887150 
# 
# From -- ./inp_files/33849.got.cif
#   From: 2010.05.17/outbox.cif.g08.bks.cpg/sg63_17_cif.got.tgz:33849.got - 2010.06.03 15:47:04.
