data_PCOD9468932
_publ_section_title
;
Structure prediction by ZEFSAII (Michael W. Deem and Ramdas Pophale) SiO2 
 PCOD9468932
Probable space group: C M C M
;
_chemical_formula_sum "Si O2"
_cell_formula_units_Z 96
_cell_length_a 29.216508
_cell_length_b 10.700642
_cell_length_c 14.246424
_cell_angle_alpha 90.000000
_cell_angle_beta 90.000000
_cell_angle_gamma 90.000000
_cell_volume 4453.936360
_symmetry_space_group_name_H-M "C M C M"
_symmetry_group_IT_number 63
_symmetry_cell_setting 'orthorhombic'
loop_
_space_group_symop_operation_xyz
x,y,z
-x,-y,1/2+z
x,-y,-z
-x,y,1/2-z
-x,-y,-z
x,y,1/2-z
-x,y,z
x,-y,1/2+z
1/2+x,1/2+y,z
1/2-x,1/2-y,1/2+z
1/2+x,1/2-y,-z
1/2-x,1/2+y,1/2-z
1/2-x,1/2-y,-z
1/2+x,1/2+y,1/2-z
1/2-x,1/2+y,z
1/2+x,1/2-y,1/2+z
loop_
_atom_site_type_symbol
_atom_site_label
_atom_site_fract_x
_atom_site_fract_y
_atom_site_fract_z
Si Si1 0.298161 0.427035 0.635189
Si Si2 0.146170 0.680675 0.865379
Si Si3 0.192758 0.422394 0.634994
Si Si4 0.949036 0.959989 0.107512
Si Si5 0.550394 0.743484 0.356302
Si Si6 0.354717 0.669105 0.637416
O O1 0.298048 0.429505 0.750000
O O2 0.326231 0.304427 0.607080
O O3 0.245589 0.417101 0.605015
O O4 0.323472 0.553411 0.603562
O O5 0.144664 0.682307 0.750000
O O6 0.170542 0.553374 0.893489
O O7 0.094210 0.692580 0.901410
O O8 0.192861 0.421311 0.750000
O O9 0.163975 0.301947 0.603046
O O10 0.907695 0.864686 0.120244
O O11 0.000000 0.917176 0.136636
O O12 0.939328 0.095407 0.152494
O O13 0.950916 0.000000 0.000000
O O14 0.547045 0.792342 0.250000
O O15 0.500000 0.756065 0.401098
O O16 0.349471 0.671520 0.750000
#
# Coordination Sequence:
#
# PCOD9468932 Si02
#       6
#    16  16  16  16  16  16
#     4   9  15  25  43  69  98 128 160 191 227 274
#     4   9  15  25  41  66  96 125 154 186 229 275
#     4   9  17  26  41  70 105 129 150 190 238 280
#     4  10  20  33  50  71  94 123 160 201 245 289
#     4   9  16  28  48  71  91 115 154 197 232 276
#     4  10  18  30  49  75 100 125 159 198 239 278
#
# _framework density 21.553968000000001
#
# number of rings (size 3 to 8) (size 9 to 14) (size 15 to 20)
#    0.000    2.667    1.667    1.500    0.000    5.000 
#    0.000    0.833    0.000    5.000    0.000    3.500 
#    0.000    0.000    0.000    0.000    0.000    0.000 
#
# Total GULP energy -268075.034170 kJ/mol
# GULP energy per Si atom -5584.896545 kJ/mol
# Density = 2.150491 g / cm^3
# Si number density = 21.553968 Si / 1000 Ang^3
#
#
#
# Elastic Constant Matrix: (Units=GPa)
#
#
# Indices 1 2 3 4 5 6 
#
# 1 222.9625 115.5534 -5.1880 0.0000 0.0000 0.0000
# 2 115.5534 164.5712 4.2491 0.0000 0.0000 0.0000
# 3 -5.1880 4.2491 49.7520 0.0000 0.0000 0.0000
# 4 0.0000 0.0000 0.0000 9.8377 0.0000 0.0000
# 5 0.0000 0.0000 0.0000 0.0000 9.1224 0.0000
# 6 0.0000 0.0000 0.0000 0.0000 0.0000 -3.9695
#
#
#
# Elastic Compliance Matrix: (Units=1/GPa)
#
#
# Indices 1 2 3 4 5 6 
#
# 1 0.007118 -0.005028 0.001172 0.000000 0.000000 0.000000
# 2 -0.005028 0.009642 -0.001348 0.000000 0.000000 0.000000
# 3 0.001172 -0.001348 0.020337 0.000000 0.000000 0.000000
# 4 0.000000 0.000000 0.000000 0.101649 0.000000 0.000000
# 5 0.000000 0.000000 0.000000 0.000000 0.109620 0.000000
# 6 0.000000 0.000000 0.000000 0.000000 0.000000 -0.251922
#
#
# Mechanical properties :
#
#
# Convention : Reuss Voigt Hill
#
# Bulk Modulus (GPa) = 37.46965 74.05720 55.76342
# Shear Modulus (GPa) = 317.46270 24.50954 170.98612
#
# Velocity S-wave (km/s) = 12.14937 3.37579 8.91636
# Velocity P-wave (km/s) = 14.63664 7.04472 11.48607
#
# Compressibility (1/GPa) = 0.02668827
#
# Stress axis : x y z
#
# Youngs Moduli (GPa) = 140.48175 103.71421 49.17147
#
# Poissons Ratio (x) = 0.52152 -0.05762
# Poissons Ratio (y) = 0.70640 0.06627
# Poissons Ratio (z) = -0.16461 0.13979
#
# Static dielectric constant tensor:
#      x y z
#    x 1.787790 0.000000 0.000000 
#    y 0.000000 1.734020 0.000000 
#    z 0.000000 0.000000 1.819810 
# 
# From -- ./inp_files/48945.got.cif
#   From: 2010.05.17/outbox.cif.g08.bks.cpg/sg63_25_cif.got.tgz:48945.got - 2010.06.03 15:47:04.
