data_PCOD9468453
_publ_section_title
;
Structure prediction by ZEFSAII (Michael W. Deem and Ramdas Pophale) SiO2 
 PCOD9468453
Probable space group: C M C M
;
_chemical_formula_sum "Si O2"
_cell_formula_units_Z 80
_cell_length_a 20.252512
_cell_length_b 18.747261
_cell_length_c 13.907338
_cell_angle_alpha 90.000000
_cell_angle_beta 90.000000
_cell_angle_gamma 90.000000
_cell_volume 5280.325970
_symmetry_space_group_name_H-M "C M C M"
_symmetry_group_IT_number 63
_symmetry_cell_setting 'orthorhombic'
loop_
_space_group_symop_operation_xyz
x,y,z
-x,-y,1/2+z
x,-y,-z
-x,y,1/2-z
-x,-y,-z
x,y,1/2-z
-x,y,z
x,-y,1/2+z
1/2+x,1/2+y,z
1/2-x,1/2-y,1/2+z
1/2+x,1/2-y,-z
1/2-x,1/2+y,1/2-z
1/2-x,1/2-y,-z
1/2+x,1/2+y,1/2-z
1/2-x,1/2+y,z
1/2+x,1/2-y,1/2+z
loop_
_atom_site_type_symbol
_atom_site_label
_atom_site_fract_x
_atom_site_fract_y
_atom_site_fract_z
Si Si1 0.074887 0.448300 0.091389
Si Si2 0.576525 0.220098 0.947325
Si Si3 0.305398 0.251704 0.416452
Si Si4 0.681713 0.013096 0.750000
Si Si5 0.138814 0.766160 0.750000
Si Si6 0.764411 0.645657 0.250000
Si Si7 0.759234 0.154152 0.750000
O O1 0.085778 0.365378 0.064904
O O2 0.132821 0.473610 0.160755
O O3 0.000000 0.452483 0.132839
O O4 0.075809 0.500000 0.000000
O O5 0.500000 0.233080 0.968438
O O6 0.596888 0.256687 0.846498
O O7 0.625078 0.246775 0.030377
O O8 0.250000 0.250000 0.500000
O O9 0.293365 0.185507 0.344156
O O10 0.296164 0.319608 0.346303
O O11 0.738329 0.072852 0.750000
O O12 0.714117 0.935608 0.750000
O O13 0.186236 0.835398 0.750000
O O14 0.191505 0.700765 0.750000
#
# Coordination Sequence:
#
# PCOD9468453 Si02
#       7
#    16  16  16   8   8   8   8
#     4  10  20  31  46  73 109 140 164 196 244 304
#     4  11  19  31  55  78 101 136 174 209 254 305
#     4  10  17  35  51  70 105 134 163 215 263 292
#     4  12  19  33  47  75 100 136 177 205 246 312
#     4  10  17  35  49  76  98 129 170 226 250 286
#     4  10  22  30  53  73  99 140 174 206 257 297
#     4  10  20  30  53  70  99 139 167 213 258 293
#
# _framework density 15.150579
#
# number of rings (size 3 to 8) (size 9 to 14) (size 15 to 20)
#    0.000    1.800    6.000    1.800    0.000    1.600 
#    0.000    3.000    0.000    0.000    0.000    4.200 
#    0.000    0.000    0.000    0.000    0.000    0.000 
#
# Total GULP energy -223012.782441 kJ/mol
# GULP energy per Si atom -5575.319561 kJ/mol
# Density = 1.511610 g / cm^3
# Si number density = 15.150579 Si / 1000 Ang^3
#
#
#
# Elastic Constant Matrix: (Units=GPa)
#
#
# Indices 1 2 3 4 5 6 
#
# 1 120.1388 59.7578 69.6214 0.0000 0.0000 0.0000
# 2 59.7578 103.9010 52.8382 0.0000 0.0000 0.0000
# 3 69.6214 52.8382 125.2412 0.0000 0.0000 0.0000
# 4 0.0000 0.0000 0.0000 11.9327 0.0000 0.0000
# 5 0.0000 0.0000 0.0000 0.0000 32.7206 0.0000
# 6 0.0000 0.0000 0.0000 0.0000 0.0000 23.0577
#
#
#
# Elastic Compliance Matrix: (Units=1/GPa)
#
#
# Indices 1 2 3 4 5 6 
#
# 1 0.014261 -0.005310 -0.005687 0.000000 0.000000 0.000000
# 2 -0.005310 0.014230 -0.003052 0.000000 0.000000 0.000000
# 3 -0.005687 -0.003052 0.012434 0.000000 0.000000 0.000000
# 4 0.000000 0.000000 0.000000 0.083803 0.000000 0.000000
# 5 0.000000 0.000000 0.000000 0.000000 0.030562 0.000000
# 6 0.000000 0.000000 0.000000 0.000000 0.000000 0.043370
#
#
# Mechanical properties :
#
#
# Convention : Reuss Voigt Hill
#
# Bulk Modulus (GPa) = 77.96205 79.30174 78.63189
# Shear Modulus (GPa) = 21.64192 24.67978 23.16085
#
# Velocity S-wave (km/s) = 3.78359 4.04042 3.91411
# Velocity P-wave (km/s) = 8.40579 8.61526 8.51117
#
# Compressibility (1/GPa) = 0.01282675
#
# Stress axis : x y z
#
# Youngs Moduli (GPa) = 70.12324 70.27192 80.42564
#
# Poissons Ratio (x) = 0.37311 0.45741
# Poissons Ratio (y) = 0.37233 0.24547
# Poissons Ratio (z) = 0.39882 0.21448
#
# Static dielectric constant tensor:
#      x y z
#    x 1.501960 0.000000 0.000000 
#    y 0.000000 1.485280 0.000000 
#    z 0.000000 0.000000 1.516540 
# 
# From -- ./inp_files/33923.got.cif
#   From: 2010.05.17/outbox.cif.g08.bks.cpg/sg63_17_cif.got.tgz:33923.got - 2010.06.03 15:47:04.
