data_PCOD9468035
_publ_section_title
;
Structure prediction by ZEFSAII (Michael W. Deem and Ramdas Pophale) SiO2 
 PCOD9468035
Probable space group: P N M A
;
_chemical_formula_sum "Si O2"
_cell_formula_units_Z 48
_cell_length_a 18.000000
_cell_length_b 15.000000
_cell_length_c 9.000000
_cell_angle_alpha 90.000000
_cell_angle_beta 90.000000
_cell_angle_gamma 90.000000
_cell_volume 2430.000000
_symmetry_space_group_name_H-M "P N M A"
_symmetry_group_IT_number 62
_symmetry_cell_setting 'orthorhombic'
loop_
_space_group_symop_operation_xyz
x,y,z
1/2-x,-y,1/2+z
1/2+x,1/2-y,1/2-z
-x,1/2+y,-z
-x,-y,-z
1/2+x,y,1/2-z
1/2-x,1/2+y,1/2+z
x,1/2-y,z
loop_
_atom_site_type_symbol
_atom_site_label
_atom_site_fract_x
_atom_site_fract_y
_atom_site_fract_z
Si Si1 0.368098 0.647405 0.475622
Si Si2 0.219681 0.645257 0.994296
Si Si3 0.299779 0.351216 0.850524
Si Si4 0.904769 0.468501 0.179719
Si Si5 0.453212 0.644455 0.770876
Si Si6 0.633555 0.025796 0.013995
O O1 0.389429 0.750000 0.430763
O O2 0.281912 0.636639 0.426424
O O3 0.411838 0.564167 0.403272
O O4 0.385567 0.641430 0.651098
O O5 0.224590 0.750000 0.948920
O O6 0.156104 0.591463 0.906381
O O7 0.295065 0.590047 0.971198
O O8 0.206474 0.644590 0.172140
O O9 0.324802 0.250000 0.890161
O O10 0.351048 0.432765 0.901517
O O11 0.879009 0.497421 0.344297
O O12 0.977247 0.406471 0.196417
O O13 0.467688 0.750000 0.801151
O O14 0.431471 0.585215 0.913473
#
# Coordination Sequence:
#
# PCOD9468035 Si02
#       6
#     8   8   8   8   8   8
#     4  10  21  40  65  93 127 171 220 272 326 393
#     4  11  22  39  66  94 128 167 219 276 329 388
#     4  10  22  40  63  97 128 163 220 278 330 386
#     4  12  24  42  66  98 135 176 222 271 330 393
#     4  11  26  44  64  94 136 181 226 268 329 397
#     4  12  23  41  65  95 129 174 220 275 327 390
#
# _framework density 19.753086
#
# number of rings (size 3 to 8) (size 9 to 14) (size 15 to 20)
#    0.000    1.000    3.333    3.000    2.333    2.000 
#    0.000    2.500    0.000    0.000    0.000    0.000 
#    0.000    0.000    0.000    0.000    0.000    0.000 
#
# Total GULP energy -268166.277832 kJ/mol
# GULP energy per Si atom -5586.797455 kJ/mol
# Density = 1.970813 g / cm^3
# Si number density = 19.753086 Si / 1000 Ang^3
#
#
#
# Elastic Constant Matrix: (Units=GPa)
#
#
# Indices 1 2 3 4 5 6 
#
# 1 54.2822 24.7635 25.0549 0.0000 0.0000 0.0000
# 2 24.7635 186.4923 37.4537 0.0000 0.0000 0.0000
# 3 25.0549 37.4537 74.0669 0.0000 0.0000 0.0000
# 4 0.0000 0.0000 0.0000 41.3498 0.0000 0.0000
# 5 0.0000 0.0000 0.0000 0.0000 22.5698 0.0000
# 6 0.0000 0.0000 0.0000 0.0000 0.0000 34.9420
#
#
#
# Elastic Compliance Matrix: (Units=1/GPa)
#
#
# Indices 1 2 3 4 5 6 
#
# 1 0.022255 -0.001606 -0.006716 0.000000 0.000000 0.000000
# 2 -0.001606 0.006084 -0.002533 0.000000 0.000000 0.000000
# 3 -0.006716 -0.002533 0.017054 0.000000 0.000000 0.000000
# 4 0.000000 0.000000 0.000000 0.024184 0.000000 0.000000
# 5 0.000000 0.000000 0.000000 0.000000 0.044307 0.000000
# 6 0.000000 0.000000 0.000000 0.000000 0.000000 0.028619
#
#
# Mechanical properties :
#
#
# Convention : Reuss Voigt Hill
#
# Bulk Modulus (GPa) = 42.22591 54.37619 48.30105
# Shear Modulus (GPa) = 29.05148 34.94362 31.99755
#
# Velocity S-wave (km/s) = 3.83917 4.21054 4.02913
# Velocity P-wave (km/s) = 6.40902 7.15722 6.79343
#
# Compressibility (1/GPa) = 0.02368214
#
# Stress axis : x y z
#
# Youngs Moduli (GPa) = 44.93386 164.35993 58.63676
#
# Poissons Ratio (x) = 0.26402 0.39380
# Poissons Ratio (y) = 0.07218 0.14854
# Poissons Ratio (z) = 0.30178 0.41636
#
# Static dielectric constant tensor:
#      x y z
#    x 1.708790 0.000000 0.000000 
#    y 0.000000 1.678840 0.000000 
#    z 0.000000 0.000000 1.698400 
# 
# From -- ./inp_files/7653.got.cif
#   From: 2010.05.17/outbox.ucp.g08.bks.cvg/sg62_4_cif.got.tgz:7653.got - 2010.06.11 16:29:25.
