data_PCOD9468362
_publ_section_title
;
Structure prediction by ZEFSAII (Michael W. Deem and Ramdas Pophale) SiO2 
 PCOD9468362
Probable space group: C M C M
;
_chemical_formula_sum "Si O2"
_cell_formula_units_Z 112
_cell_length_a 29.316384
_cell_length_b 10.249794
_cell_length_c 24.729581
_cell_angle_alpha 90.000000
_cell_angle_beta 90.000000
_cell_angle_gamma 90.000000
_cell_volume 7430.915054
_symmetry_space_group_name_H-M "C M C M"
_symmetry_group_IT_number 63
_symmetry_cell_setting 'orthorhombic'
loop_
_space_group_symop_operation_xyz
x,y,z
-x,-y,1/2+z
x,-y,-z
-x,y,1/2-z
-x,-y,-z
x,y,1/2-z
-x,y,z
x,-y,1/2+z
1/2+x,1/2+y,z
1/2-x,1/2-y,1/2+z
1/2+x,1/2-y,-z
1/2-x,1/2+y,1/2-z
1/2-x,1/2-y,-z
1/2+x,1/2+y,1/2-z
1/2-x,1/2+y,z
1/2+x,1/2-y,1/2+z
loop_
_atom_site_type_symbol
_atom_site_label
_atom_site_fract_x
_atom_site_fract_y
_atom_site_fract_z
Si Si1 0.206313 0.720994 0.250000
Si Si2 0.802098 0.121070 0.038342
Si Si3 0.050463 0.720836 0.312936
Si Si4 0.646950 0.465361 0.642758
Si Si5 0.305790 0.874730 0.965008
Si Si6 0.353651 0.221607 0.141552
Si Si7 0.550547 0.537835 0.312974
Si Si8 0.792393 0.028498 0.250000
O O1 0.175827 0.700566 0.303844
O O2 0.220586 0.874316 0.250000
O O3 0.248999 0.623402 0.250000
O O4 0.747885 0.112637 0.049655
O O5 0.829890 0.109135 0.093414
O O6 0.810565 0.251110 0.004417
O O7 0.814204 0.000000 0.000000
O O8 0.055796 0.682621 0.250000
O O9 0.094440 0.679517 0.346429
O O10 0.050897 0.879345 0.313380
O O11 0.000000 0.678969 0.331500
O O12 0.647138 0.621637 0.631260
O O13 0.595008 0.421825 0.653946
O O14 0.676518 0.448261 0.697165
O O15 0.332913 0.850673 0.909943
O O16 0.319320 0.000000 0.000000
O O17 0.555648 0.576244 0.250000
O O18 0.500000 0.579544 0.331707
#
# Coordination Sequence:
#
# PCOD9468362 Si02
#       8
#     8  16  16  16  16  16  16   8
#     4  10  20  32  47  71 103 131 154 194 249 292
#     4  10  19  34  50  68  92 130 166 204 234 279
#     4   8  13  23  43  71  98 122 154 195 240 289
#     4  10  17  29  50  70  98 128 162 196 245 292
#     4  10  21  34  50  68  94 128 175 204 234 278
#     4  10  17  30  49  71  98 128 158 200 244 288
#     4   8  13  23  42  70 100 125 153 191 239 295
#     4  10  20  32  45  71 103 133 156 194 245 296
#
# _framework density 15.072168
#
# number of rings (size 3 to 8) (size 9 to 14) (size 15 to 20)
#    0.000    2.571    2.857    1.714    0.000    0.000 
#    2.571    0.000    0.000    1.714    0.000    0.000 
#    0.000    3.429    0.000    0.000    0.000    0.000 
#
# Total GULP energy -311898.978377 kJ/mol
# GULP energy per Si atom -5569.624614 kJ/mol
# Density = 1.503786 g / cm^3
# Si number density = 15.072168 Si / 1000 Ang^3
#
#
#
# Elastic Constant Matrix: (Units=GPa)
#
#
# Indices 1 2 3 4 5 6 
#
# 1 120.2814 26.3096 68.1037 0.0000 0.0000 0.0000
# 2 26.3096 22.0747 14.4785 0.0000 0.0000 0.0000
# 3 68.1037 14.4785 98.5661 0.0000 0.0000 0.0000
# 4 0.0000 0.0000 0.0000 15.9996 0.0000 0.0000
# 5 0.0000 0.0000 0.0000 0.0000 21.8529 0.0000
# 6 0.0000 0.0000 0.0000 0.0000 0.0000 14.1775
#
#
#
# Elastic Compliance Matrix: (Units=1/GPa)
#
#
# Indices 1 2 3 4 5 6 
#
# 1 0.016695 -0.013647 -0.009531 0.000000 0.000000 0.000000
# 2 -0.013647 0.061286 0.000427 0.000000 0.000000 0.000000
# 3 -0.009531 0.000427 0.016668 0.000000 0.000000 0.000000
# 4 0.000000 0.000000 0.000000 0.062502 0.000000 0.000000
# 5 0.000000 0.000000 0.000000 0.000000 0.045761 0.000000
# 6 0.000000 0.000000 0.000000 0.000000 0.000000 0.070534
#
#
# Mechanical properties :
#
#
# Convention : Reuss Voigt Hill
#
# Bulk Modulus (GPa) = 20.34697 50.96731 35.65714
# Shear Modulus (GPa) = 14.91065 19.20800 17.05932
#
# Velocity S-wave (km/s) = 3.14870 3.57375 3.36794
# Velocity P-wave (km/s) = 5.17186 7.13567 6.23161
#
# Compressibility (1/GPa) = 0.04914737
#
# Stress axis : x y z
#
# Youngs Moduli (GPa) = 59.89684 16.31696 59.99481
#
# Poissons Ratio (x) = 0.22268 0.57181
# Poissons Ratio (y) = 0.81742 -0.02562
# Poissons Ratio (z) = 0.57087 -0.00697
#
# Static dielectric constant tensor:
#      x y z
#    x 1.511940 0.000000 0.000000 
#    y 0.000000 1.488180 0.000000 
#    z 0.000000 0.000000 1.481620 
# 
# From -- ./inp_files/65127.got.cif
#   From: 2010.05.17/outbox.cif.g08.bks.cpg/sg63_33_cif.got.tgz:65127.got - 2010.06.03 15:47:04.
