data_PCOD9468288
_publ_section_title
;
Structure prediction by ZEFSAII (Michael W. Deem and Ramdas Pophale) SiO2 
 PCOD9468288
Probable space group: C M C M
;
_chemical_formula_sum "Si O2"
_cell_formula_units_Z 48
_cell_length_a 8.426611
_cell_length_b 13.252138
_cell_length_c 17.263576
_cell_angle_alpha 90.000000
_cell_angle_beta 90.000000
_cell_angle_gamma 90.000000
_cell_volume 1927.834095
_symmetry_space_group_name_H-M "C M C M"
_symmetry_group_IT_number 63
_symmetry_cell_setting 'orthorhombic'
loop_
_space_group_symop_operation_xyz
x,y,z
-x,-y,1/2+z
x,-y,-z
-x,y,1/2-z
-x,-y,-z
x,y,1/2-z
-x,y,z
x,-y,1/2+z
1/2+x,1/2+y,z
1/2-x,1/2-y,1/2+z
1/2+x,1/2-y,-z
1/2-x,1/2+y,1/2-z
1/2-x,1/2-y,-z
1/2+x,1/2+y,1/2-z
1/2-x,1/2+y,z
1/2+x,1/2-y,1/2+z
loop_
_atom_site_type_symbol
_atom_site_label
_atom_site_fract_x
_atom_site_fract_y
_atom_site_fract_z
Si Si1 0.173717 0.481119 0.657117
Si Si2 0.817113 0.254796 0.912639
Si Si3 0.500000 0.488039 0.591204
Si Si4 0.000000 0.762019 0.840635
O O1 0.186620 0.471446 0.750000
O O2 0.169387 0.370166 0.617958
O O3 0.335127 0.528630 0.625117
O O4 0.000000 0.525780 0.639580
O O5 0.669424 0.213401 0.861939
O O6 0.000000 0.216574 0.910033
O O7 0.750000 0.250000 0.000000
O O8 0.500000 0.500000 0.500000
O O9 0.500000 0.369518 0.614835
O O10 0.000000 0.782031 0.750000
#
# Coordination Sequence:
#
# PCOD9468288 Si02
#       4
#    16  16   8   8
#     4   9  18  32  49  70  97 125 159 199 238 284
#     4  10  17  27  45  72 102 127 157 196 242 280
#     4  10  18  28  46  72 100 120 156 205 250 282
#     4  10  20  34  50  72 100 128 163 205 241 286
#
# _framework density 24.898409000000001
#
# number of rings (size 3 to 8) (size 9 to 14) (size 15 to 20)
#    0.000    2.333    1.667    4.500    0.000    2.667 
#    0.000    0.000    0.000    0.000    0.000   56.000 
#    0.000    0.000    0.000    0.000    0.000    0.000 
#
# Total GULP energy -134123.841243 kJ/mol
# GULP energy per Si atom -5588.493385 kJ/mol
# Density = 2.484174 g / cm^3
# Si number density = 24.898409 Si / 1000 Ang^3
#
#
#
# Elastic Constant Matrix: (Units=GPa)
#
#
# Indices 1 2 3 4 5 6 
#
# 1 371.6844 92.0405 102.4550 0.0000 0.0000 0.0000
# 2 92.0405 87.8245 35.0165 0.0000 0.0000 0.0000
# 3 102.4550 35.0165 156.8630 0.0000 0.0000 0.0000
# 4 0.0000 0.0000 0.0000 28.9348 0.0000 0.0000
# 5 0.0000 0.0000 0.0000 0.0000 50.0812 0.0000
# 6 0.0000 0.0000 0.0000 0.0000 0.0000 65.5450
#
#
#
# Elastic Compliance Matrix: (Units=1/GPa)
#
#
# Indices 1 2 3 4 5 6 
#
# 1 0.004082 -0.003529 -0.001878 0.000000 0.000000 0.000000
# 2 -0.003529 0.015550 -0.001166 0.000000 0.000000 0.000000
# 3 -0.001878 -0.001166 0.007862 0.000000 0.000000 0.000000
# 4 0.000000 0.000000 0.000000 0.034560 0.000000 0.000000
# 5 0.000000 0.000000 0.000000 0.000000 0.019968 0.000000
# 6 0.000000 0.000000 0.000000 0.000000 0.000000 0.015257
#
#
# Mechanical properties :
#
#
# Convention : Reuss Voigt Hill
#
# Bulk Modulus (GPa) = 69.70204 119.48845 94.59524
# Shear Modulus (GPa) = 43.39945 54.70287 49.05116
#
# Velocity S-wave (km/s) = 4.17953 4.69235 4.44334
# Velocity P-wave (km/s) = 7.16566 8.80069 8.02492
#
# Compressibility (1/GPa) = 0.01434678
#
# Stress axis : x y z
#
# Youngs Moduli (GPa) = 244.96649 64.30905 127.19065
#
# Poissons Ratio (x) = 0.22696 0.23892
# Poissons Ratio (y) = 0.86454 0.14832
# Poissons Ratio (z) = 0.46016 0.07499
#
# Static dielectric constant tensor:
#      x y z
#    x 2.029160 0.000000 0.000000 
#    y 0.000000 2.094320 0.000000 
#    z 0.000000 0.000000 1.820730 
# 
# From -- ./inp_files/15765.got.cif
#   From: 2010.05.17/outbox.cif.g08.bks.cpg/sg63_8_cif.got.tgz:15765.got - 2010.06.03 15:47:04.
