data_PCOD9468807
_publ_section_title
;
Structure prediction by ZEFSAII (Michael W. Deem and Ramdas Pophale) SiO2 
 PCOD9468807
Probable space group: C M C M
;
_chemical_formula_sum "Si O2"
_cell_formula_units_Z 88
_cell_length_a 22.770275
_cell_length_b 24.855739
_cell_length_c 8.054629
_cell_angle_alpha 90.000000
_cell_angle_beta 90.000000
_cell_angle_gamma 90.000000
_cell_volume 4558.694584
_symmetry_space_group_name_H-M "C M C M"
_symmetry_group_IT_number 63
_symmetry_cell_setting 'orthorhombic'
loop_
_space_group_symop_operation_xyz
x,y,z
-x,-y,1/2+z
x,-y,-z
-x,y,1/2-z
-x,-y,-z
x,y,1/2-z
-x,y,z
x,-y,1/2+z
1/2+x,1/2+y,z
1/2-x,1/2-y,1/2+z
1/2+x,1/2-y,-z
1/2-x,1/2+y,1/2-z
1/2-x,1/2-y,-z
1/2+x,1/2+y,1/2-z
1/2-x,1/2+y,z
1/2+x,1/2-y,1/2+z
loop_
_atom_site_type_symbol
_atom_site_label
_atom_site_fract_x
_atom_site_fract_y
_atom_site_fract_z
Si Si1 0.500000 0.062787 0.054622
Si Si2 0.436273 0.742535 0.949073
Si Si3 0.565728 0.439243 0.450247
Si Si4 0.726139 0.190336 0.950431
Si Si5 0.348026 0.348264 0.047267
Si Si6 0.101179 0.355305 0.057886
O O1 0.500000 0.062282 0.250000
O O2 0.558838 0.096586 0.003936
O O3 0.500000 0.000000 0.000000
O O4 0.430793 0.750700 0.750000
O O5 0.500000 0.716268 0.976995
O O6 0.383175 0.705103 0.006204
O O7 0.434251 0.799954 0.034725
O O8 0.578349 0.500000 0.500000
O O9 0.564817 0.435751 0.250000
O O10 0.500000 0.425735 0.509893
O O11 0.614597 0.398546 0.512383
O O12 0.721282 0.192231 0.750000
O O13 0.780644 0.152898 0.001896
O O14 0.665050 0.164157 0.014766
O O15 0.750000 0.250000 0.000000
O O16 0.349358 0.347635 0.250000
O O17 0.111656 0.367452 0.250000
#
# Coordination Sequence:
#
# PCOD9468807 Si02
#       6
#     8  16  16  16  16  16
#     4  12  26  46  70  90 112 150 197 248 303 362
#     4  10  18  29  51  81 110 145 190 234 280 337
#     4   9  17  31  51  73 100 136 179 224 267 311
#     4  10  20  34  54  81 116 155 189 228 278 338
#     4   9  17  31  51  76 109 147 188 226 267 327
#     4  11  22  36  56  86 120 149 184 235 293 348
#
# _framework density 19.303773
#
# number of rings (size 3 to 8) (size 9 to 14) (size 15 to 20)
#    0.000    2.000    2.727    1.909    0.000    2.909 
#    0.000    2.727    0.000    4.364    0.000    0.000 
#    0.000    0.000    0.000    0.000    0.000    0.000 
#
# Total GULP energy -245120.430563 kJ/mol
# GULP energy per Si atom -5570.918876 kJ/mol
# Density = 1.925984 g / cm^3
# Si number density = 19.303773 Si / 1000 Ang^3
#
#
#
# Elastic Constant Matrix: (Units=GPa)
#
#
# Indices 1 2 3 4 5 6 
#
# 1 176.7821 90.9177 22.4643 0.0000 0.0000 0.0000
# 2 90.9177 122.7471 14.2988 0.0000 0.0000 0.0000
# 3 22.4643 14.2988 26.6940 0.0000 0.0000 0.0000
# 4 0.0000 0.0000 0.0000 27.0700 0.0000 0.0000
# 5 0.0000 0.0000 0.0000 0.0000 -11.1253 0.0000
# 6 0.0000 0.0000 0.0000 0.0000 0.0000 -160.3228
#
#
#
# Elastic Compliance Matrix: (Units=1/GPa)
#
#
# Indices 1 2 3 4 5 6 
#
# 1 0.009633 -0.006603 -0.004570 0.000000 0.000000 0.000000
# 2 -0.006603 0.013215 -0.001522 0.000000 0.000000 0.000000
# 3 -0.004570 -0.001522 0.042123 0.000000 0.000000 0.000000
# 4 0.000000 0.000000 0.000000 0.036941 0.000000 0.000000
# 5 0.000000 0.000000 0.000000 0.000000 -0.089885 0.000000
# 6 0.000000 0.000000 0.000000 0.000000 0.000000 -0.006237
#
#
# Mechanical properties :
#
#
# Convention : Reuss Voigt Hill
#
# Bulk Modulus (GPa) = 25.26450 64.62052 44.94251
# Shear Modulus (GPa) = 112.68187 -15.63946 48.52121
#
# Velocity S-wave (km/s) = 7.64851 -2.84945 5.01898
# Velocity P-wave (km/s) = 9.54546 4.76681 7.54448
#
# Compressibility (1/GPa) = 0.03958122
#
# Stress axis : x y z
#
# Youngs Moduli (GPa) = 103.80755 75.67268 23.74014
#
# Poissons Ratio (x) = 0.49966 0.10849
# Poissons Ratio (y) = 0.68543 0.03613
# Poissons Ratio (z) = 0.47440 0.11517
#
# Static dielectric constant tensor:
#      x y z
#    x 1.749940 0.000000 0.000000 
#    y 0.000000 1.691660 0.000000 
#    z 0.000000 0.000000 1.693860 
# 
# From -- ./inp_files/8173.got.cif
#   From: 2010.05.17/outbox.cif.g08.bks.cpg/sg63_5_cif.got.tgz:8173.got - 2010.06.03 15:47:04.
