data_PCOD9468095
_publ_section_title
;
Structure prediction by ZEFSAII (Michael W. Deem and Ramdas Pophale) SiO2 
 PCOD9468095
Probable space group: C M C M
;
_chemical_formula_sum "Si O2"
_cell_formula_units_Z 96
_cell_length_a 9.873725
_cell_length_b 28.738236
_cell_length_c 17.926122
_cell_angle_alpha 90.000000
_cell_angle_beta 90.000000
_cell_angle_gamma 90.000000
_cell_volume 5086.598770
_symmetry_space_group_name_H-M "C M C M"
_symmetry_group_IT_number 63
_symmetry_cell_setting 'orthorhombic'
loop_
_space_group_symop_operation_xyz
x,y,z
-x,-y,1/2+z
x,-y,-z
-x,y,1/2-z
-x,-y,-z
x,y,1/2-z
-x,y,z
x,-y,1/2+z
1/2+x,1/2+y,z
1/2-x,1/2-y,1/2+z
1/2+x,1/2-y,-z
1/2-x,1/2+y,1/2-z
1/2-x,1/2-y,-z
1/2+x,1/2+y,1/2-z
1/2-x,1/2+y,z
1/2+x,1/2-y,1/2+z
loop_
_atom_site_type_symbol
_atom_site_label
_atom_site_fract_x
_atom_site_fract_y
_atom_site_fract_z
Si Si1 0.000000 0.679735 0.457507
Si Si2 0.000000 0.228535 0.466114
Si Si3 0.500000 0.800917 0.168830
Si Si4 0.298182 0.350318 0.496331
Si Si5 0.344846 0.965429 0.098703
Si Si6 0.227940 0.562222 0.067316
Si Si7 0.500000 0.889370 0.662447
Si Si8 0.745040 0.629168 0.833511
O O1 0.136183 0.658923 0.495214
O O2 0.000000 0.734751 0.466410
O O3 0.000000 0.661921 0.373175
O O4 0.872372 0.194530 0.471453
O O5 0.000000 0.262305 0.394955
O O6 0.500000 0.777692 0.250000
O O7 0.370681 0.834863 0.165312
O O8 0.330885 0.397012 0.543545
O O9 0.334259 0.358052 0.409483
O O10 0.500000 0.979331 0.116286
O O11 0.298896 0.923167 0.150783
O O12 0.246122 0.010310 0.097918
O O13 0.342669 0.947185 0.013190
O O14 0.128883 0.584986 0.127262
O O15 0.500000 0.890044 0.750000
O O16 0.684270 0.631626 0.750000
#
# Coordination Sequence:
#
# PCOD9468095 Si02
#       8
#     8   8   8  16  16  16   8  16
#     4  10  20  36  54  75 107 139 181 234 283 336
#     4  12  22  38  61  82 104 152 203 233 271 336
#     4  10  20  33  54  85 116 140 182 250 290 317
#     4  10  21  36  59  81 108 149 191 232 280 334
#     4  10  15  26  50  78 106 146 176 219 286 339
#     4   9  17  30  47  71 110 142 179 221 269 335
#     4  10  18  28  43  70 108 147 170 210 276 333
#     4  10  19  31  50  83 118 144 178 235 292 336
#
# _framework density 18.873121999999999
#
# number of rings (size 3 to 8) (size 9 to 14) (size 15 to 20)
#    0.000    2.000    4.167    1.000    2.333    0.667 
#    0.000    4.583    0.000    8.000    0.000    0.000 
#    0.000    0.000    0.000    0.000    0.000    0.000 
#
# Total GULP energy -267247.648872 kJ/mol
# GULP energy per Si atom -5567.659351 kJ/mol
# Density = 1.883017 g / cm^3
# Si number density = 18.873122 Si / 1000 Ang^3
#
#
#
# Elastic Constant Matrix: (Units=GPa)
#
#
# Indices 1 2 3 4 5 6 
#
# 1 46.7672 26.0302 14.9950 0.0000 0.0000 0.0000
# 2 26.0302 162.6825 51.4252 0.0000 0.0000 0.0000
# 3 14.9950 51.4252 142.2813 0.0000 0.0000 0.0000
# 4 0.0000 0.0000 0.0000 21.7548 0.0000 0.0000
# 5 0.0000 0.0000 0.0000 0.0000 -3.6996 0.0000
# 6 0.0000 0.0000 0.0000 0.0000 0.0000 246.4703
#
#
#
# Elastic Compliance Matrix: (Units=1/GPa)
#
#
# Indices 1 2 3 4 5 6 
#
# 1 0.023675 -0.003386 -0.001271 0.000000 0.000000 0.000000
# 2 -0.003386 0.007424 -0.002326 0.000000 0.000000 0.000000
# 3 -0.001271 -0.002326 0.008003 0.000000 0.000000 0.000000
# 4 0.000000 0.000000 0.000000 0.045967 0.000000 0.000000
# 5 0.000000 0.000000 0.000000 0.000000 -0.270296 0.000000
# 6 0.000000 0.000000 0.000000 0.000000 0.000000 0.004057
#
#
# Mechanical properties :
#
#
# Convention : Reuss Voigt Hill
#
# Bulk Modulus (GPa) = 39.78620 59.62575 49.70597
# Shear Modulus (GPa) = -31.48147 70.19046 19.35450
#
# Velocity S-wave (km/s) = -4.08862 6.10503 3.20583
# Velocity P-wave (km/s) = 1.07815 9.01980 6.33223
#
# Compressibility (1/GPa) = 0.02513434
#
# Stress axis : x y z
#
# Youngs Moduli (GPa) = 42.23889 134.69490 124.95063
#
# Poissons Ratio (x) = 0.45612 0.15883
# Poissons Ratio (y) = 0.14303 0.29069
# Poissons Ratio (z) = 0.05369 0.31336
#
# Static dielectric constant tensor:
#      x y z
#    x 1.789740 0.000000 0.000000 
#    y 0.000000 1.695720 0.000000 
#    z 0.000000 0.000000 1.658200 
# 
# From -- ./inp_files/42759.got.cif
#   From: 2010.05.17/outbox.cif.g08.bks.cpg/sg63_22_cif.got.tgz:42759.got - 2010.06.03 15:47:04.
