data_PCOD9468305
_publ_section_title
;
Structure prediction by ZEFSAII (Michael W. Deem and Ramdas Pophale) SiO2 
 PCOD9468305
Probable space group: C M C M
;
_chemical_formula_sum "Si O2"
_cell_formula_units_Z 112
_cell_length_a 22.319620
_cell_length_b 19.382212
_cell_length_c 17.836369
_cell_angle_alpha 90.000000
_cell_angle_beta 90.000000
_cell_angle_gamma 90.000000
_cell_volume 7716.077558
_symmetry_space_group_name_H-M "C M C M"
_symmetry_group_IT_number 63
_symmetry_cell_setting 'orthorhombic'
loop_
_space_group_symop_operation_xyz
x,y,z
-x,-y,1/2+z
x,-y,-z
-x,y,1/2-z
-x,-y,-z
x,y,1/2-z
-x,y,z
x,-y,1/2+z
1/2+x,1/2+y,z
1/2-x,1/2-y,1/2+z
1/2+x,1/2-y,-z
1/2-x,1/2+y,1/2-z
1/2-x,1/2-y,-z
1/2+x,1/2+y,1/2-z
1/2-x,1/2+y,z
1/2+x,1/2-y,1/2+z
loop_
_atom_site_type_symbol
_atom_site_label
_atom_site_fract_x
_atom_site_fract_y
_atom_site_fract_z
Si Si1 0.431359 0.756743 0.436705
Si Si2 0.566715 0.382351 0.837894
Si Si3 0.329269 0.195815 0.836634
Si Si4 0.338653 0.278420 0.446190
Si Si5 0.690285 0.544324 0.160139
Si Si6 0.709537 0.613215 0.660386
Si Si7 0.236926 0.821073 0.907815
O O1 0.500000 0.779883 0.440531
O O2 0.429856 0.685510 0.388920
O O3 0.385814 0.806420 0.391800
O O4 0.401627 0.740734 0.516946
O O5 0.572230 0.362281 0.750000
O O6 0.500000 0.412881 0.847754
O O7 0.621686 0.432646 0.855228
O O8 0.346560 0.188459 0.750000
O O9 0.276534 0.141823 0.855440
O O10 0.297811 0.270406 0.849974
O O11 0.335813 0.335715 0.381914
O O12 0.302599 0.210874 0.418679
O O13 0.298636 0.309791 0.514381
O O14 0.699484 0.548522 0.250000
O O15 0.701915 0.465884 0.136751
O O16 0.731262 0.601231 0.119880
O O17 0.700959 0.617567 0.750000
#
# Coordination Sequence:
#
# PCOD9468305 Si02
#       7
#    16  16  16  16  16  16  16
#     4  10  18  28  45  67  90 119 152 184 219 265
#     4   9  16  26  41  63  92 122 150 178 210 256
#     4   9  15  27  44  67  94 116 141 185 233 275
#     4   9  17  30  42  60  89 116 147 183 224 263
#     4  10  17  28  44  67  92 118 152 187 217 265
#     4   9  19  30  44  64  90 119 150 188 232 266
#     4   9  16  26  44  64  85 118 147 179 223 263
#
# _framework density 14.515147000000001
#
# number of rings (size 3 to 8) (size 9 to 14) (size 15 to 20)
#    0.000    2.714    2.857    1.714    0.000    2.000 
#    0.000    0.714    0.000    3.000    0.000    2.000 
#    0.000    1.143    0.000    0.000    0.000    0.143 
#
# Total GULP energy -311790.806456 kJ/mol
# GULP energy per Si atom -5567.692972 kJ/mol
# Density = 1.448211 g / cm^3
# Si number density = 14.515147 Si / 1000 Ang^3
#
#
#
# Elastic Constant Matrix: (Units=GPa)
#
#
# Indices 1 2 3 4 5 6 
#
# 1 81.5206 31.0968 34.0113 0.0000 0.0000 0.0000
# 2 31.0968 61.8419 26.7629 0.0000 0.0000 0.0000
# 3 34.0113 26.7629 37.2267 0.0000 0.0000 0.0000
# 4 0.0000 0.0000 0.0000 14.4932 0.0000 0.0000
# 5 0.0000 0.0000 0.0000 0.0000 20.3996 0.0000
# 6 0.0000 0.0000 0.0000 0.0000 0.0000 14.9875
#
#
#
# Elastic Compliance Matrix: (Units=1/GPa)
#
#
# Indices 1 2 3 4 5 6 
#
# 1 0.020239 -0.003157 -0.016221 0.000000 0.000000 0.000000
# 2 -0.003157 0.023966 -0.014345 0.000000 0.000000 0.000000
# 3 -0.016221 -0.014345 0.051995 0.000000 0.000000 0.000000
# 4 0.000000 0.000000 0.000000 0.068998 0.000000 0.000000
# 5 0.000000 0.000000 0.000000 0.000000 0.049021 0.000000
# 6 0.000000 0.000000 0.000000 0.000000 0.000000 0.066722
#
#
# Mechanical properties :
#
#
# Convention : Reuss Voigt Hill
#
# Bulk Modulus (GPa) = 34.77826 40.48125 37.62975
# Shear Modulus (GPa) = 13.96762 15.89061 14.92911
#
# Velocity S-wave (km/s) = 3.10543 3.31231 3.21053
# Velocity P-wave (km/s) = 6.07209 6.52518 6.30271
#
# Compressibility (1/GPa) = 0.02875359
#
# Stress axis : x y z
#
# Youngs Moduli (GPa) = 49.41026 41.72625 19.23257
#
# Poissons Ratio (x) = 0.13173 0.31197
# Poissons Ratio (y) = 0.15599 0.27589
# Poissons Ratio (z) = 0.80148 0.59856
#
# Static dielectric constant tensor:
#      x y z
#    x 1.491920 0.000000 0.000000 
#    y 0.000000 1.466330 0.000000 
#    z 0.000000 0.000000 1.502330 
# 
# From -- ./inp_files/56887.got.cif
#   From: 2010.05.17/outbox.cif.g08.bks.cpg/sg63_29_cif.got.tgz:56887.got - 2010.06.03 15:47:04.
