data_PCOD9468518
_publ_section_title
;
Structure prediction by ZEFSAII (Michael W. Deem and Ramdas Pophale) SiO2 
 PCOD9468518
Probable space group: C M C M
;
_chemical_formula_sum "Si O2"
_cell_formula_units_Z 112
_cell_length_a 14.755083
_cell_length_b 29.366496
_cell_length_c 15.218519
_cell_angle_alpha 90.000000
_cell_angle_beta 90.000000
_cell_angle_gamma 90.000000
_cell_volume 6594.261683
_symmetry_space_group_name_H-M "C M C M"
_symmetry_group_IT_number 63
_symmetry_cell_setting 'orthorhombic'
loop_
_space_group_symop_operation_xyz
x,y,z
-x,-y,1/2+z
x,-y,-z
-x,y,1/2-z
-x,-y,-z
x,y,1/2-z
-x,y,z
x,-y,1/2+z
1/2+x,1/2+y,z
1/2-x,1/2-y,1/2+z
1/2+x,1/2-y,-z
1/2-x,1/2+y,1/2-z
1/2-x,1/2-y,-z
1/2+x,1/2+y,1/2-z
1/2-x,1/2+y,z
1/2+x,1/2-y,1/2+z
loop_
_atom_site_type_symbol
_atom_site_label
_atom_site_fract_x
_atom_site_fract_y
_atom_site_fract_z
Si Si1 0.102710 0.606327 0.604715
Si Si2 0.649595 0.792675 0.153090
Si Si3 0.896161 0.508606 0.853925
Si Si4 0.769285 0.671584 0.350196
Si Si5 0.599088 0.292407 0.958366
Si Si6 0.104861 0.590769 0.100538
Si Si7 0.858561 0.764282 0.348878
O O1 0.142465 0.653958 0.634714
O O2 0.147231 0.558072 0.630718
O O3 0.099862 0.606057 0.499988
O O4 0.000000 0.605752 0.640744
O O5 0.611432 0.782924 0.250000
O O6 0.607123 0.758655 0.082055
O O7 0.755149 0.780904 0.154064
O O8 0.898121 0.500787 0.750000
O O9 0.862581 0.461728 0.895556
O O10 0.000000 0.512969 0.887761
O O11 0.735396 0.678425 0.250000
O O12 0.685722 0.680722 0.417216
O O13 0.821778 0.623949 0.356382
O O14 0.846326 0.710202 0.365146
O O15 0.500000 0.311227 0.933107
O O16 0.602245 0.287478 0.064058
O O17 0.000000 0.592590 0.135820
O O18 0.896640 0.771525 0.250000
#
# Coordination Sequence:
#
# PCOD9468518 Si02
#       7
#    16  16  16  16  16  16  16
#     4  10  18  27  42  65  94 126 159 194 231 279
#     4  10  19  31  48  68  94 128 161 194 234 283
#     4   9  17  28  41  61  91 123 156 194 234 280
#     4  10  20  33  49  69  95 127 164 204 239 277
#     4  11  21  33  50  70  96 129 162 199 241 284
#     4  10  19  31  47  66  92 129 166 198 238 284
#     4   9  19  34  49  67  92 121 156 200 243 282
#
# _framework density 16.984463999999999
#
# number of rings (size 3 to 8) (size 9 to 14) (size 15 to 20)
#    0.000    2.143    0.000    6.429    0.000    7.143 
#    0.000    1.429    0.000    0.000    0.000    0.000 
#    0.000    9.143    0.000   12.000    0.000    2.286 
#
# Total GULP energy -311860.992839 kJ/mol
# GULP energy per Si atom -5568.946301 kJ/mol
# Density = 1.694581 g / cm^3
# Si number density = 16.984464 Si / 1000 Ang^3
#
#
#
# Elastic Constant Matrix: (Units=GPa)
#
#
# Indices 1 2 3 4 5 6 
#
# 1 52.3912 16.0366 13.3231 0.0000 0.0000 0.0000
# 2 16.0366 99.0580 -1.8400 0.0000 0.0000 0.0000
# 3 13.3231 -1.8400 87.7488 0.0000 0.0000 0.0000
# 4 0.0000 0.0000 0.0000 23.6472 0.0000 0.0000
# 5 0.0000 0.0000 0.0000 0.0000 -9.4493 0.0000
# 6 0.0000 0.0000 0.0000 0.0000 0.0000 13.8968
#
#
#
# Elastic Compliance Matrix: (Units=1/GPa)
#
#
# Indices 1 2 3 4 5 6 
#
# 1 0.020973 -0.003456 -0.003257 0.000000 0.000000 0.000000
# 2 -0.003456 0.010668 0.000748 0.000000 0.000000 0.000000
# 3 -0.003257 0.000748 0.011906 0.000000 0.000000 0.000000
# 4 0.000000 0.000000 0.000000 0.042288 0.000000 0.000000
# 5 0.000000 0.000000 0.000000 0.000000 -0.105828 0.000000
# 6 0.000000 0.000000 0.000000 0.000000 0.000000 0.071959
#
#
# Mechanical properties :
#
#
# Convention : Reuss Voigt Hill
#
# Bulk Modulus (GPa) = 31.62617 32.69305 32.15961
# Shear Modulus (GPa) = 67.17195 19.73084 43.45140
#
# Velocity S-wave (km/s) = 6.29563 3.41207 5.06345
# Velocity P-wave (km/s) = 8.45622 5.90030 7.29113
#
# Compressibility (1/GPa) = 0.03161939
#
# Stress axis : x y z
#
# Youngs Moduli (GPa) = 47.67987 93.73418 83.98874
#
# Poissons Ratio (x) = 0.32393 0.27354
# Poissons Ratio (y) = 0.16478 -0.06286
# Poissons Ratio (z) = 0.15529 -0.07015
#
# Static dielectric constant tensor:
#      x y z
#    x 1.569390 0.000000 0.000000 
#    y 0.000000 1.611140 0.000000 
#    z 0.000000 0.000000 1.634330 
# 
# From -- ./inp_files/32556.got.cif
#   From: 2010.05.17/outbox.cif.g08.bks.cpg/sg63_17_cif.got.tgz:32556.got - 2010.06.03 15:47:04.
