data_PCOD9468798
_publ_section_title
;
Structure prediction by ZEFSAII (Michael W. Deem and Ramdas Pophale) SiO2 
 PCOD9468798
Probable space group: C M C M
;
_chemical_formula_sum "Si O2"
_cell_formula_units_Z 80
_cell_length_a 9.849280
_cell_length_b 19.942921
_cell_length_c 24.662147
_cell_angle_alpha 90.000000
_cell_angle_beta 90.000000
_cell_angle_gamma 90.000000
_cell_volume 4844.223084
_symmetry_space_group_name_H-M "C M C M"
_symmetry_group_IT_number 63
_symmetry_cell_setting 'orthorhombic'
loop_
_space_group_symop_operation_xyz
x,y,z
-x,-y,1/2+z
x,-y,-z
-x,y,1/2-z
-x,-y,-z
x,y,1/2-z
-x,y,z
x,-y,1/2+z
1/2+x,1/2+y,z
1/2-x,1/2-y,1/2+z
1/2+x,1/2-y,-z
1/2-x,1/2+y,1/2-z
1/2-x,1/2-y,-z
1/2+x,1/2+y,1/2-z
1/2-x,1/2+y,z
1/2+x,1/2-y,1/2+z
loop_
_atom_site_type_symbol
_atom_site_label
_atom_site_fract_x
_atom_site_fract_y
_atom_site_fract_z
Si Si1 0.000000 0.314949 0.423348
Si Si2 0.272399 0.102869 0.098439
Si Si3 0.000000 0.422103 0.989292
Si Si4 0.774528 0.762191 0.106411
Si Si5 0.000000 0.796071 0.482194
Si Si6 0.000000 0.061353 0.456654
Si Si7 0.000000 0.405695 0.686395
Si Si8 0.000000 0.756836 0.310235
O O1 0.000000 0.384519 0.454150
O O2 0.863038 0.302877 0.391437
O O3 0.000000 0.257923 0.470040
O O4 0.370701 0.098167 0.046450
O O5 0.244304 0.182367 0.105964
O O6 0.134272 0.064855 0.081659
O O7 0.365299 0.078077 0.149684
O O8 0.000000 0.500000 0.000000
O O9 0.868282 0.778025 0.157201
O O10 0.866988 0.781666 0.054445
O O11 0.000000 0.869912 0.507814
O O12 0.000000 0.000000 0.500000
O O13 0.000000 0.428625 0.750000
O O14 0.000000 0.324451 0.688770
O O15 0.000000 0.781806 0.250000
#
# Coordination Sequence:
#
# PCOD9468798 Si02
#       8
#     8  16   8  16   8   8   8   8
#     4  12  18  29  49  71 101 128 169 200 232 292
#     4  10  18  32  48  70 101 129 164 204 246 293
#     4  11  21  31  46  71 102 139 161 199 244 284
#     4  10  18  29  50  74  89 131 172 202 241 292
#     4  11  18  31  49  67  99 136 169 189 233 294
#     4  12  23  31  44  73 110 143 158 194 253 304
#     4   8  16  31  53  73  93 126 170 215 256 290
#     4   8  16  31  48  71 102 124 158 213 265 296
#
# _framework density 16.514517000000001
#
# number of rings (size 3 to 8) (size 9 to 14) (size 15 to 20)
#    0.000    1.800    4.000    3.600    0.000    0.000 
#    0.000    1.000    0.000    4.800    0.000   22.400 
#    0.000    0.000    0.000    0.000    0.000    0.000 
#
# Total GULP energy -222969.950953 kJ/mol
# GULP energy per Si atom -5574.248774 kJ/mol
# Density = 1.647693 g / cm^3
# Si number density = 16.514517 Si / 1000 Ang^3
#
#
#
# Elastic Constant Matrix: (Units=GPa)
#
#
# Indices 1 2 3 4 5 6 
#
# 1 156.0598 20.7253 63.6245 0.0000 0.0000 0.0000
# 2 20.7253 69.8182 24.5158 0.0000 0.0000 0.0000
# 3 63.6245 24.5158 103.7613 0.0000 0.0000 0.0000
# 4 0.0000 0.0000 0.0000 13.1206 0.0000 0.0000
# 5 0.0000 0.0000 0.0000 0.0000 6.5709 0.0000
# 6 0.0000 0.0000 0.0000 0.0000 0.0000 4.7374
#
#
#
# Elastic Compliance Matrix: (Units=1/GPa)
#
#
# Indices 1 2 3 4 5 6 
#
# 1 0.008581 -0.000763 -0.005081 0.000000 0.000000 0.000000
# 2 -0.000763 0.015687 -0.003238 0.000000 0.000000 0.000000
# 3 -0.005081 -0.003238 0.013518 0.000000 0.000000 0.000000
# 4 0.000000 0.000000 0.000000 0.076216 0.000000 0.000000
# 5 0.000000 0.000000 0.000000 0.000000 0.152186 0.000000
# 6 0.000000 0.000000 0.000000 0.000000 0.000000 0.211088
#
#
# Mechanical properties :
#
#
# Convention : Reuss Voigt Hill
#
# Bulk Modulus (GPa) = 50.96756 60.81893 55.89324
# Shear Modulus (GPa) = 9.96053 19.60402 14.78228
#
# Velocity S-wave (km/s) = 2.45855 3.44914 2.99508
# Velocity P-wave (km/s) = 6.24408 7.26427 6.77341
#
# Compressibility (1/GPa) = 0.01962032
#
# Stress axis : x y z
#
# Youngs Moduli (GPa) = 116.54031 63.74894 73.97319
#
# Poissons Ratio (x) = 0.04864 0.37588
# Poissons Ratio (y) = 0.08891 0.23956
# Poissons Ratio (z) = 0.59217 0.20645
#
# Static dielectric constant tensor:
#      x y z
#    x 1.574560 0.000000 0.000000 
#    y 0.000000 1.545890 0.000000 
#    z 0.000000 0.000000 1.560440 
# 
# From -- ./inp_files/59601.got.cif
#   From: 2010.05.17/outbox.cif.g08.bks.cpg/sg63_30_cif.got.tgz:59601.got - 2010.06.03 15:47:04.
