data_PCOD9468182
_publ_section_title
;
Structure prediction by ZEFSAII (Michael W. Deem and Ramdas Pophale) SiO2 
 PCOD9468182
Probable space group: C M C M
;
_chemical_formula_sum "Si O2"
_cell_formula_units_Z 64
_cell_length_a 19.724479
_cell_length_b 9.838848
_cell_length_c 13.714814
_cell_angle_alpha 90.000000
_cell_angle_beta 90.000000
_cell_angle_gamma 90.000000
_cell_volume 2661.581161
_symmetry_space_group_name_H-M "C M C M"
_symmetry_group_IT_number 63
_symmetry_cell_setting 'orthorhombic'
loop_
_space_group_symop_operation_xyz
x,y,z
-x,-y,1/2+z
x,-y,-z
-x,y,1/2-z
-x,-y,-z
x,y,1/2-z
-x,y,z
x,-y,1/2+z
1/2+x,1/2+y,z
1/2-x,1/2-y,1/2+z
1/2+x,1/2-y,-z
1/2-x,1/2+y,1/2-z
1/2-x,1/2-y,-z
1/2+x,1/2+y,1/2-z
1/2-x,1/2+y,z
1/2+x,1/2-y,1/2+z
loop_
_atom_site_type_symbol
_atom_site_label
_atom_site_fract_x
_atom_site_fract_y
_atom_site_fract_z
Si Si1 0.147818 0.554544 0.863303
Si Si2 0.000000 0.406675 0.138622
Si Si3 0.351823 0.706332 0.515057
Si Si4 0.793556 0.003454 0.139023
Si Si5 0.000000 0.162602 0.516829
O O1 0.152193 0.609980 0.750000
O O2 0.213820 0.459723 0.868252
O O3 0.069532 0.509517 0.874836
O O4 0.155313 0.656623 0.954032
O O5 0.000000 0.360515 0.250000
O O6 0.000000 0.269514 0.074403
O O7 0.340045 0.598215 0.426927
O O8 0.300938 0.649162 0.596371
O O9 0.426556 0.693892 0.561346
O O10 0.814526 0.009838 0.250000
O O11 0.000000 0.000000 0.500000
#
# Coordination Sequence:
#
# PCOD9468182 Si02
#       5
#    16   8  16  16   8
#     4   9  17  30  48  69  90 116 151 185 223 267
#     4   8  16  28  46  65  86 116 150 188 222 254
#     4  10  19  32  46  65  96 122 147 188 227 264
#     4  10  19  29  45  68  91 119 151 182 224 273
#     4  10  16  30  42  64  90 121 150 178 219 276
#
# _framework density 24.045857999999999
#
# number of rings (size 3 to 8) (size 9 to 14) (size 15 to 20)
#    0.000    2.500    2.500    1.500    0.000    1.000 
#    0.000    0.625    0.000    3.000    0.000    3.500 
#    0.000    8.000    0.000    0.000    0.000    0.000 
#
# Total GULP energy -178287.414817 kJ/mol
# GULP energy per Si atom -5571.481713 kJ/mol
# Density = 2.399113 g / cm^3
# Si number density = 24.045858 Si / 1000 Ang^3
#
#
#
# Elastic Constant Matrix: (Units=GPa)
#
#
# Indices 1 2 3 4 5 6 
#
# 1 147.3243 -3.5027 1.7962 0.0000 0.0000 0.0000
# 2 -3.5027 74.2095 18.7078 0.0000 0.0000 0.0000
# 3 1.7962 18.7078 118.5395 0.0000 0.0000 0.0000
# 4 0.0000 0.0000 0.0000 17.8492 0.0000 0.0000
# 5 0.0000 0.0000 0.0000 0.0000 25.9895 0.0000
# 6 0.0000 0.0000 0.0000 0.0000 0.0000 4.8547
#
#
#
# Elastic Compliance Matrix: (Units=1/GPa)
#
#
# Indices 1 2 3 4 5 6 
#
# 1 0.006798 0.000361 -0.000160 0.000000 0.000000 0.000000
# 2 0.000361 0.014053 -0.002223 0.000000 0.000000 0.000000
# 3 -0.000160 -0.002223 0.008789 0.000000 0.000000 0.000000
# 4 0.000000 0.000000 0.000000 0.056025 0.000000 0.000000
# 5 0.000000 0.000000 0.000000 0.000000 0.038477 0.000000
# 6 0.000000 0.000000 0.000000 0.000000 0.000000 0.205984
#
#
# Mechanical properties :
#
#
# Convention : Reuss Voigt Hill
#
# Bulk Modulus (GPa) = 39.06814 41.56399 40.31607
# Shear Modulus (GPa) = 14.58990 31.27683 22.93336
#
# Velocity S-wave (km/s) = 2.46591 3.61046 3.09161
# Velocity P-wave (km/s) = 4.93865 5.89096 5.43570
#
# Compressibility (1/GPa) = 0.02559630
#
# Stress axis : x y z
#
# Youngs Moduli (GPa) = 147.09596 71.15973 113.77454
#
# Poissons Ratio (x) = -0.02570 0.01821
# Poissons Ratio (y) = -0.05313 0.25295
# Poissons Ratio (z) = 0.02354 0.15821
#
# Static dielectric constant tensor:
#      x y z
#    x 1.989380 0.000000 0.000000 
#    y 0.000000 2.040200 0.000000 
#    z 0.000000 0.000000 1.900530 
# 
# From -- ./inp_files/33419.got.cif
#   From: 2010.05.17/outbox.cif.g08.bks.cpg/sg63_17_cif.got.tgz:33419.got - 2010.06.03 15:47:04.
