data_PCOD9468902
_publ_section_title
;
Structure prediction by ZEFSAII (Michael W. Deem and Ramdas Pophale) SiO2 
 PCOD9468902
Probable space group: C M C M
;
_chemical_formula_sum "Si O2"
_cell_formula_units_Z 72
_cell_length_a 16.819341
_cell_length_b 29.270235
_cell_length_c 8.605513
_cell_angle_alpha 90.000000
_cell_angle_beta 90.000000
_cell_angle_gamma 90.000000
_cell_volume 4236.546230
_symmetry_space_group_name_H-M "C M C M"
_symmetry_group_IT_number 63
_symmetry_cell_setting 'orthorhombic'
loop_
_space_group_symop_operation_xyz
x,y,z
-x,-y,1/2+z
x,-y,-z
-x,y,1/2-z
-x,-y,-z
x,y,1/2-z
-x,y,z
x,-y,1/2+z
1/2+x,1/2+y,z
1/2-x,1/2-y,1/2+z
1/2+x,1/2-y,-z
1/2-x,1/2+y,1/2-z
1/2-x,1/2-y,-z
1/2+x,1/2+y,1/2-z
1/2-x,1/2+y,z
1/2+x,1/2-y,1/2+z
loop_
_atom_site_type_symbol
_atom_site_label
_atom_site_fract_x
_atom_site_fract_y
_atom_site_fract_z
Si Si1 0.241439 0.640750 0.063470
Si Si2 0.675023 0.448740 0.937603
Si Si3 0.500000 0.448463 0.937158
Si Si4 0.327251 0.276740 0.435573
Si Si5 0.089109 0.693775 0.564217
O O1 0.240076 0.643649 0.250000
O O2 0.260337 0.588901 0.015105
O O3 0.313075 0.672924 0.002121
O O4 0.158713 0.661239 0.000552
O O5 0.675713 0.451277 0.750000
O O6 0.586765 0.430760 0.986386
O O7 0.686797 0.500000 0.000000
O O8 0.500000 0.448101 0.750000
O O9 0.500000 0.500000 0.000000
O O10 0.326605 0.277495 0.250000
O O11 0.250000 0.250000 0.500000
O O12 0.397710 0.244787 0.496795
O O13 0.097643 0.696022 0.750000
O O14 0.000000 0.677918 0.525724
#
# Coordination Sequence:
#
# PCOD9468902 Si02
#       5
#    16  16   8  16  16
#     4  10  19  32  50  74 102 132 167 203 246 295
#     4   9  18  31  50  73  99 131 166 202 242 289
#     4   8  14  28  46  66  92 122 156 192 232 278
#     4  10  18  30  49  70  96 127 160 199 242 289
#     4  10  20  34  52  73  97 129 167 206 251 298
#
# _framework density 16.994975
#
# number of rings (size 3 to 8) (size 9 to 14) (size 15 to 20)
#    0.000    2.444    0.000    6.000    0.000    3.556 
#    2.000    0.000    0.000    0.667    0.000    0.000 
#    0.000    0.000    0.000    0.000    0.000    0.000 
#
# Total GULP energy -200418.753568 kJ/mol
# GULP energy per Si atom -5567.187599 kJ/mol
# Density = 1.695629 g / cm^3
# Si number density = 16.994975 Si / 1000 Ang^3
#
#
#
# Elastic Constant Matrix: (Units=GPa)
#
#
# Indices 1 2 3 4 5 6 
#
# 1 103.5715 58.6626 36.2234 0.0000 0.0000 0.0000
# 2 58.6626 112.5936 30.3461 0.0000 0.0000 0.0000
# 3 36.2234 30.3461 63.4926 0.0000 0.0000 0.0000
# 4 0.0000 0.0000 0.0000 22.8411 0.0000 0.0000
# 5 0.0000 0.0000 0.0000 0.0000 20.3445 0.0000
# 6 0.0000 0.0000 0.0000 0.0000 0.0000 24.1904
#
#
#
# Elastic Compliance Matrix: (Units=1/GPa)
#
#
# Indices 1 2 3 4 5 6 
#
# 1 0.015273 -0.006438 -0.005636 0.000000 0.000000 0.000000
# 2 -0.006438 0.012909 -0.002497 0.000000 0.000000 0.000000
# 3 -0.005636 -0.002497 0.020159 0.000000 0.000000 0.000000
# 4 0.000000 0.000000 0.000000 0.043781 0.000000 0.000000
# 5 0.000000 0.000000 0.000000 0.000000 0.049153 0.000000
# 6 0.000000 0.000000 0.000000 0.000000 0.000000 0.041339
#
#
# Mechanical properties :
#
#
# Convention : Reuss Voigt Hill
#
# Bulk Modulus (GPa) = 52.08841 58.90243 55.49542
# Shear Modulus (GPa) = 22.91947 23.77026 23.34487
#
# Velocity S-wave (km/s) = 3.67632 3.74393 3.71028
# Velocity P-wave (km/s) = 6.98113 7.30913 7.14701
#
# Compressibility (1/GPa) = 0.01919813
#
# Stress axis : x y z
#
# Youngs Moduli (GPa) = 65.47459 77.46631 49.60641
#
# Poissons Ratio (x) = 0.49876 0.27960
# Poissons Ratio (y) = 0.42155 0.12385
# Poissons Ratio (z) = 0.36904 0.19340
#
# Static dielectric constant tensor:
#      x y z
#    x 1.591850 0.000000 0.000000 
#    y 0.000000 1.579800 0.000000 
#    z 0.000000 0.000000 1.571470 
# 
# From -- ./inp_files/6292.got.cif
#   From: 2010.05.17/outbox.cif.g08.bks.cpg/sg63_4_cif.got.tgz:6292.got - 2010.06.03 15:47:04.
