data_PCOD9468758
_publ_section_title
;
Structure prediction by ZEFSAII (Michael W. Deem and Ramdas Pophale) SiO2 
 PCOD9468758
Probable space group: C M C M
;
_chemical_formula_sum "Si O2"
_cell_formula_units_Z 128
_cell_length_a 23.814611
_cell_length_b 12.336670
_cell_length_c 22.096664
_cell_angle_alpha 90.000000
_cell_angle_beta 90.000000
_cell_angle_gamma 90.000000
_cell_volume 6491.845142
_symmetry_space_group_name_H-M "C M C M"
_symmetry_group_IT_number 63
_symmetry_cell_setting 'orthorhombic'
loop_
_space_group_symop_operation_xyz
x,y,z
-x,-y,1/2+z
x,-y,-z
-x,y,1/2-z
-x,-y,-z
x,y,1/2-z
-x,y,z
x,-y,1/2+z
1/2+x,1/2+y,z
1/2-x,1/2-y,1/2+z
1/2+x,1/2-y,-z
1/2-x,1/2+y,1/2-z
1/2-x,1/2-y,-z
1/2+x,1/2+y,1/2-z
1/2-x,1/2+y,z
1/2+x,1/2-y,1/2+z
loop_
_atom_site_type_symbol
_atom_site_label
_atom_site_fract_x
_atom_site_fract_y
_atom_site_fract_z
Si Si1 0.776849 0.802835 0.184740
Si Si2 0.666390 0.892249 0.362850
Si Si3 0.729284 0.885590 0.899065
Si Si4 0.065544 0.074458 0.679378
Si Si5 0.435701 0.983380 0.818699
Si Si6 0.151239 0.626976 0.501955
Si Si7 0.827782 0.956614 0.680607
Si Si8 0.933865 0.279164 0.907645
O O1 0.788880 0.753525 0.250000
O O2 0.710699 0.826974 0.176724
O O3 0.794565 0.720621 0.133355
O O4 0.806246 0.918684 0.180829
O O5 0.608050 0.921824 0.332285
O O6 0.657143 0.840251 0.428610
O O7 0.696380 0.007988 0.376467
O O8 0.712263 0.873815 0.968916
O O9 0.791601 0.900003 0.871844
O O10 0.074762 0.108865 0.750000
O O11 0.106383 0.972405 0.668791
O O12 0.077378 0.172266 0.632745
O O13 0.000000 0.047196 0.673578
O O14 0.427695 0.944511 0.750000
O O15 0.500000 0.020131 0.825259
O O16 0.427135 0.883779 0.864236
O O17 0.131761 0.500000 0.500000
O O18 0.107804 0.698841 0.463594
O O19 0.818119 0.916008 0.750000
O O20 0.000000 0.275088 0.925868
#
# Coordination Sequence:
#
# PCOD9468758 Si02
#       8
#    16  16  16  16  16  16  16  16
#     4  10  20  33  52  75  98 130 163 204 256 298
#     4  10  21  36  50  71 104 133 171 208 248 300
#     4  10  19  33  49  71  99 131 171 208 244 298
#     4   9  17  30  48  73 104 129 158 206 257 307
#     4  10  19  30  48  72  98 131 167 206 253 297
#     4  10  19  33  47  70 102 136 172 204 246 296
#     4   9  18  30  47  73 100 129 162 197 249 306
#     4  10  18  29  47  73 101 133 168 202 248 303
#
# _framework density 19.717044000000001
#
# number of rings (size 3 to 8) (size 9 to 14) (size 15 to 20)
#    0.000    2.250    2.500    1.875    0.000    4.250 
#    0.000    2.500    0.000    0.750    0.000    1.750 
#    0.000   14.500    0.000    0.000    0.000    0.000 
#
# Total GULP energy -356918.661459 kJ/mol
# GULP energy per Si atom -5576.854085 kJ/mol
# Density = 1.967217 g / cm^3
# Si number density = 19.717044 Si / 1000 Ang^3
#
#
#
# Elastic Constant Matrix: (Units=GPa)
#
#
# Indices 1 2 3 4 5 6 
#
# 1 100.5569 4.9020 22.6504 0.0000 0.0000 0.0000
# 2 4.9020 21.3709 -3.8347 0.0000 0.0000 0.0000
# 3 22.6504 -3.8347 48.4792 0.0000 0.0000 0.0000
# 4 0.0000 0.0000 0.0000 12.7626 0.0000 0.0000
# 5 0.0000 0.0000 0.0000 0.0000 30.1397 0.0000
# 6 0.0000 0.0000 0.0000 0.0000 0.0000 18.0360
#
#
#
# Elastic Compliance Matrix: (Units=1/GPa)
#
#
# Indices 1 2 3 4 5 6 
#
# 1 0.011383 -0.003617 -0.005605 0.000000 0.000000 0.000000
# 2 -0.003617 0.048615 0.005535 0.000000 0.000000 0.000000
# 3 -0.005605 0.005535 0.023684 0.000000 0.000000 0.000000
# 4 0.000000 0.000000 0.000000 0.078354 0.000000 0.000000
# 5 0.000000 0.000000 0.000000 0.000000 0.033179 0.000000
# 6 0.000000 0.000000 0.000000 0.000000 0.000000 0.055445
#
#
# Mechanical properties :
#
#
# Convention : Reuss Voigt Hill
#
# Bulk Modulus (GPa) = 13.10437 24.20473 18.65455
# Shear Modulus (GPa) = 17.63863 21.96695 19.80279
#
# Velocity S-wave (km/s) = 2.99421 3.34145 3.17258
# Velocity P-wave (km/s) = 4.31444 5.21438 4.78561
#
# Compressibility (1/GPa) = 0.07631043
#
# Stress axis : x y z
#
# Youngs Moduli (GPa) = 87.84745 20.56962 42.22288
#
# Poissons Ratio (x) = 0.07440 0.23664
# Poissons Ratio (y) = 0.31772 -0.23372
# Poissons Ratio (z) = 0.49235 -0.11386
#
# Static dielectric constant tensor:
#      x y z
#    x 1.746330 0.000000 0.000000 
#    y 0.000000 1.684240 0.000000 
#    z 0.000000 0.000000 1.682370 
# 
# From -- ./inp_files/65171.got.cif
#   From: 2010.05.17/outbox.cif.g08.bks.cpg/sg63_33_cif.got.tgz:65171.got - 2010.06.03 15:47:04.
