data_PCOD9468504
_publ_section_title
;
Structure prediction by ZEFSAII (Michael W. Deem and Ramdas Pophale) SiO2 
 PCOD9468504
Probable space group: C M C M
;
_chemical_formula_sum "Si O2"
_cell_formula_units_Z 96
_cell_length_a 7.474946
_cell_length_b 27.577919
_cell_length_c 24.087314
_cell_angle_alpha 90.000000
_cell_angle_beta 90.000000
_cell_angle_gamma 90.000000
_cell_volume 4965.442137
_symmetry_space_group_name_H-M "C M C M"
_symmetry_group_IT_number 63
_symmetry_cell_setting 'orthorhombic'
loop_
_space_group_symop_operation_xyz
x,y,z
-x,-y,1/2+z
x,-y,-z
-x,y,1/2-z
-x,-y,-z
x,y,1/2-z
-x,y,z
x,-y,1/2+z
1/2+x,1/2+y,z
1/2-x,1/2-y,1/2+z
1/2+x,1/2-y,-z
1/2-x,1/2+y,1/2-z
1/2-x,1/2-y,-z
1/2+x,1/2+y,1/2-z
1/2-x,1/2+y,z
1/2+x,1/2-y,1/2+z
loop_
_atom_site_type_symbol
_atom_site_label
_atom_site_fract_x
_atom_site_fract_y
_atom_site_fract_z
Si Si1 0.791282 0.705675 0.065515
Si Si2 0.283258 0.147550 0.539899
Si Si3 0.702328 0.794835 0.361519
Si Si4 0.279887 0.255231 0.750000
Si Si5 0.216908 0.892952 0.870397
Si Si6 0.218324 0.868516 0.750000
Si Si7 0.287905 0.549650 0.025076
O O1 0.696986 0.750012 0.095367
O O2 0.772668 0.659013 0.105151
O O3 0.000000 0.718018 0.060163
O O4 0.721313 0.686715 0.006286
O O5 0.500000 0.150246 0.540326
O O6 0.217086 0.162333 0.600934
O O7 0.235520 0.094772 0.516864
O O8 0.500000 0.809632 0.347041
O O9 0.781625 0.773051 0.305158
O O10 0.500000 0.256308 0.750000
O O11 0.225772 0.311777 0.750000
O O12 0.276029 0.894419 0.806713
O O13 0.282256 0.932518 0.914964
O O14 0.000000 0.893973 0.870876
O O15 0.000000 0.867999 0.750000
O O16 0.500000 0.542446 0.032676
O O17 0.213094 0.500000 0.000000
#
# Coordination Sequence:
#
# PCOD9468504 Si02
#       7
#    16  16  16   8  16   8  16
#     4  10  18  27  40  64  94 119 146 178 217 262
#     4   9  19  31  45  66  89 116 148 182 221 264
#     4  10  18  30  45  62  88 122 156 183 212 252
#     4   9  16  26  44  65  86 118 158 188 207 246
#     4   9  16  28  46  65  88 117 149 183 219 264
#     4   9  14  24  44  67  86 114 154 184 211 252
#     4   9  18  32  50  70  89 112 144 186 236 277
#
# _framework density 19.333625000000001
#
# number of rings (size 3 to 8) (size 9 to 14) (size 15 to 20)
#    0.000    2.667    1.667    1.000    0.000    1.667 
#    0.000    1.667    0.000    1.000    0.000    1.167 
#    0.000    0.000    0.000    0.000    0.000    0.000 
#
# Total GULP energy -267659.829449 kJ/mol
# GULP energy per Si atom -5576.246447 kJ/mol
# Density = 1.928962 g / cm^3
# Si number density = 19.333625 Si / 1000 Ang^3
#
#
#
# Elastic Constant Matrix: (Units=GPa)
#
#
# Indices 1 2 3 4 5 6 
#
# 1 60.6995 -3.7810 3.0065 0.0000 0.0000 0.0000
# 2 -3.7810 79.8623 86.4348 0.0000 0.0000 0.0000
# 3 3.0065 86.4348 166.0383 0.0000 0.0000 0.0000
# 4 0.0000 0.0000 0.0000 19.3932 0.0000 0.0000
# 5 0.0000 0.0000 0.0000 0.0000 0.6773 0.0000
# 6 0.0000 0.0000 0.0000 0.0000 0.0000 9.4082
#
#
#
# Elastic Compliance Matrix: (Units=1/GPa)
#
#
# Indices 1 2 3 4 5 6 
#
# 1 0.016715 0.002563 -0.001637 0.000000 0.000000 0.000000
# 2 0.002563 0.029074 -0.015181 0.000000 0.000000 0.000000
# 3 -0.001637 -0.015181 0.013955 0.000000 0.000000 0.000000
# 4 0.000000 0.000000 0.000000 0.051564 0.000000 0.000000
# 5 0.000000 0.000000 0.000000 0.000000 1.476462 0.000000
# 6 0.000000 0.000000 0.000000 0.000000 0.000000 0.106291
#
#
# Mechanical properties :
#
#
# Convention : Reuss Voigt Hill
#
# Bulk Modulus (GPa) = 32.01662 53.10230 42.55946
# Shear Modulus (GPa) = 2.88520 20.62506 11.75513
#
# Velocity S-wave (km/s) = 1.22293 3.26973 2.46847
# Velocity P-wave (km/s) = 4.31162 6.46380 5.49413
#
# Compressibility (1/GPa) = 0.03123378
#
# Stress axis : x y z
#
# Youngs Moduli (GPa) = 59.82539 34.39553 71.65750
#
# Poissons Ratio (x) = -0.08815 0.11729
# Poissons Ratio (y) = -0.15333 1.08785
# Poissons Ratio (z) = 0.09793 0.52217
#
# Static dielectric constant tensor:
#      x y z
#    x 1.733650 0.000000 0.000000 
#    y 0.000000 1.647340 0.000000 
#    z 0.000000 0.000000 1.718220 
# 
# From -- ./inp_files/60276.got.cif
#   From: 2010.05.17/outbox.cif.g08.bks.cpg/sg63_31_cif.got.tgz:60276.got - 2010.06.03 15:47:04.
