data_PCOD9468666
_publ_section_title
;
Structure prediction by ZEFSAII (Michael W. Deem and Ramdas Pophale) SiO2 
 PCOD9468666
Probable space group: C M C M
;
_chemical_formula_sum "Si O2"
_cell_formula_units_Z 88
_cell_length_a 22.945780
_cell_length_b 24.611363
_cell_length_c 7.421167
_cell_angle_alpha 90.000000
_cell_angle_beta 90.000000
_cell_angle_gamma 90.000000
_cell_volume 4190.932789
_symmetry_space_group_name_H-M "C M C M"
_symmetry_group_IT_number 63
_symmetry_cell_setting 'orthorhombic'
loop_
_space_group_symop_operation_xyz
x,y,z
-x,-y,1/2+z
x,-y,-z
-x,y,1/2-z
-x,-y,-z
x,y,1/2-z
-x,y,z
x,-y,1/2+z
1/2+x,1/2+y,z
1/2-x,1/2-y,1/2+z
1/2+x,1/2-y,-z
1/2-x,1/2+y,1/2-z
1/2-x,1/2-y,-z
1/2+x,1/2+y,1/2-z
1/2-x,1/2+y,z
1/2+x,1/2-y,1/2+z
loop_
_atom_site_type_symbol
_atom_site_label
_atom_site_fract_x
_atom_site_fract_y
_atom_site_fract_z
Si Si1 0.225888 0.188549 0.965667
Si Si2 0.346838 0.848225 0.470311
Si Si3 0.102650 0.142262 0.956352
Si Si4 0.937117 0.741161 0.967553
Si Si5 0.435361 0.937150 0.465304
Si Si6 0.000000 0.935131 0.466491
O O1 0.220246 0.186495 0.750000
O O2 0.280396 0.152551 0.028436
O O3 0.164796 0.163717 0.036638
O O4 0.250000 0.250000 0.000000
O O5 0.346064 0.847464 0.250000
O O6 0.382702 0.794782 0.527627
O O7 0.384778 0.898691 0.533409
O O8 0.114752 0.125460 0.750000
O O9 0.058967 0.096073 0.033342
O O10 0.066861 0.198370 0.959401
O O11 0.934620 0.744103 0.750000
O O12 0.000000 0.716362 0.014689
O O13 0.437720 0.929006 0.250000
O O14 0.500000 0.924569 0.536371
O O15 0.423673 0.000000 0.500000
O O16 0.000000 0.927278 0.250000
O O17 0.000000 0.000000 0.500000
#
# Coordination Sequence:
#
# PCOD9468666 Si02
#       6
#    16  16  16  16  16   8
#     4  10  19  32  51  75 104 138 169 201 252 312
#     4   9  17  30  48  72 102 133 166 202 242 295
#     4  10  20  34  52  75 104 134 165 210 266 315
#     4  10  18  28  48  77 103 130 168 208 247 301
#     4   9  17  31  50  69  94 129 166 204 245 286
#     4  10  22  40  58  76 102 138 181 224 269 316
#
# _framework density 20.997713000000001
#
# number of rings (size 3 to 8) (size 9 to 14) (size 15 to 20)
#    0.000    2.364    2.727    0.545    0.000    2.909 
#    0.000    2.727    0.000    2.182    0.000    0.000 
#    0.000    0.000    0.000    0.000    0.000    0.000 
#
# Total GULP energy -245255.966317 kJ/mol
# GULP energy per Si atom -5573.999234 kJ/mol
# Density = 2.094992 g / cm^3
# Si number density = 20.997713 Si / 1000 Ang^3
#
#
#
# Elastic Constant Matrix: (Units=GPa)
#
#
# Indices 1 2 3 4 5 6 
#
# 1 204.5654 94.8966 9.9783 0.0000 0.0000 0.0000
# 2 94.8966 122.1176 -4.1300 0.0000 0.0000 0.0000
# 3 9.9783 -4.1300 68.5698 0.0000 0.0000 0.0000
# 4 0.0000 0.0000 0.0000 19.7091 0.0000 0.0000
# 5 0.0000 0.0000 0.0000 0.0000 9.3091 0.0000
# 6 0.0000 0.0000 0.0000 0.0000 0.0000 16.7999
#
#
#
# Elastic Compliance Matrix: (Units=1/GPa)
#
#
# Indices 1 2 3 4 5 6 
#
# 1 0.007795 -0.006109 -0.001502 0.000000 0.000000 0.000000
# 2 -0.006109 0.012992 0.001671 0.000000 0.000000 0.000000
# 3 -0.001502 0.001671 0.014903 0.000000 0.000000 0.000000
# 4 0.000000 0.000000 0.000000 0.050738 0.000000 0.000000
# 5 0.000000 0.000000 0.000000 0.000000 0.107422 0.000000
# 6 0.000000 0.000000 0.000000 0.000000 0.000000 0.059524
#
#
# Mechanical properties :
#
#
# Convention : Reuss Voigt Hill
#
# Bulk Modulus (GPa) = 41.99594 66.30472 54.15033
# Shear Modulus (GPa) = 18.30221 28.79748 23.54985
#
# Velocity S-wave (km/s) = 2.95554 3.70734 3.35258
# Velocity P-wave (km/s) = 5.62944 7.06905 6.38992
#
# Compressibility (1/GPa) = 0.02381183
#
# Stress axis : x y z
#
# Youngs Moduli (GPa) = 128.28053 76.96885 67.10067
#
# Poissons Ratio (x) = 0.47017 0.10081
# Poissons Ratio (y) = 0.78361 -0.11216
# Poissons Ratio (z) = 0.19272 -0.12865
#
# Static dielectric constant tensor:
#      x y z
#    x 1.815300 0.000000 0.000000 
#    y 0.000000 1.728230 0.000000 
#    z 0.000000 0.000000 1.817790 
# 
# From -- ./inp_files/22583.got.cif
#   From: 2010.05.17/outbox.cif.g08.bks.cpg/sg63_12_cif.got.tgz:22583.got - 2010.06.03 15:47:04.
