data_PCOD9468223
_publ_section_title
;
Structure prediction by ZEFSAII (Michael W. Deem and Ramdas Pophale) SiO2 
 PCOD9468223
Probable space group: C M C M
;
_chemical_formula_sum "Si O2"
_cell_formula_units_Z 96
_cell_length_a 14.025238
_cell_length_b 13.642712
_cell_length_c 19.560836
_cell_angle_alpha 90.000000
_cell_angle_beta 90.000000
_cell_angle_gamma 90.000000
_cell_volume 3742.815013
_symmetry_space_group_name_H-M "C M C M"
_symmetry_group_IT_number 63
_symmetry_cell_setting 'orthorhombic'
loop_
_space_group_symop_operation_xyz
x,y,z
-x,-y,1/2+z
x,-y,-z
-x,y,1/2-z
-x,-y,-z
x,y,1/2-z
-x,y,z
x,-y,1/2+z
1/2+x,1/2+y,z
1/2-x,1/2-y,1/2+z
1/2+x,1/2-y,-z
1/2-x,1/2+y,1/2-z
1/2-x,1/2-y,-z
1/2+x,1/2+y,1/2-z
1/2-x,1/2+y,z
1/2+x,1/2-y,1/2+z
loop_
_atom_site_type_symbol
_atom_site_label
_atom_site_fract_x
_atom_site_fract_y
_atom_site_fract_z
Si Si1 0.386077 0.607821 0.026757
Si Si2 0.889033 0.051841 0.176010
Si Si3 0.610680 0.929704 0.672176
Si Si4 0.893577 0.719078 0.435357
Si Si5 0.688672 0.659896 0.827859
Si Si6 0.396864 0.836958 0.332054
O O1 0.500000 0.606639 0.011311
O O2 0.374632 0.611784 0.107893
O O3 0.350413 0.500000 0.000000
O O4 0.350091 0.708344 0.992412
O O5 0.875076 0.100712 0.250000
O O6 0.822732 0.956902 0.172045
O O7 0.000000 0.019265 0.174562
O O8 0.650177 0.915369 0.750000
O O9 0.500000 0.896569 0.675492
O O10 0.651659 0.873545 0.605418
O O11 0.605876 0.045372 0.658920
O O12 0.000000 0.689552 0.458816
O O13 0.893869 0.795684 0.372746
O O14 0.679532 0.691918 0.750000
O O15 0.791649 0.692644 0.855537
O O16 0.398134 0.822117 0.250000
O O17 0.500000 0.800298 0.358656
#
# Coordination Sequence:
#
# PCOD9468223 Si02
#       6
#    16  16  16  16  16  16
#     4   9  15  24  35  53  86 123 142 156 199 257
#     4   9  16  25  37  57  86 114 140 170 204 251
#     4   8  14  25  40  58  83 113 140 173 218 258
#     4  10  17  24  39  65  92 113 135 169 218 270
#     4  10  17  23  37  62  86 111 142 175 213 251
#     4   8  15  28  42  56  79 112 148 181 213 252
#
# _framework density 25.649144
#
# number of rings (size 3 to 8) (size 9 to 14) (size 15 to 20)
#    0.000    3.000    1.667    2.000    0.000    1.667 
#    0.000    0.000    0.000    1.000    0.000    4.667 
#    0.000   10.667    0.000    0.000    0.000    0.167 
#
# Total GULP energy -267714.919407 kJ/mol
# GULP energy per Si atom -5577.394154 kJ/mol
# Density = 2.559077 g / cm^3
# Si number density = 25.649144 Si / 1000 Ang^3
#
#
#
# Elastic Constant Matrix: (Units=GPa)
#
#
# Indices 1 2 3 4 5 6 
#
# 1 135.5178 11.1744 25.6546 0.0000 0.0000 0.0000
# 2 11.1744 90.6451 20.4644 0.0000 0.0000 0.0000
# 3 25.6546 20.4644 98.0751 0.0000 0.0000 0.0000
# 4 0.0000 0.0000 0.0000 -8.9103 0.0000 0.0000
# 5 0.0000 0.0000 0.0000 0.0000 -3.5973 0.0000
# 6 0.0000 0.0000 0.0000 0.0000 0.0000 17.4052
#
#
#
# Elastic Compliance Matrix: (Units=1/GPa)
#
#
# Indices 1 2 3 4 5 6 
#
# 1 0.007787 -0.000525 -0.001927 0.000000 0.000000 0.000000
# 2 -0.000525 0.011613 -0.002286 0.000000 0.000000 0.000000
# 3 -0.001927 -0.002286 0.011177 0.000000 0.000000 0.000000
# 4 0.000000 0.000000 0.000000 -0.112230 0.000000 0.000000
# 5 0.000000 0.000000 0.000000 0.000000 -0.277987 0.000000
# 6 0.000000 0.000000 0.000000 0.000000 0.000000 0.057454
#
#
# Mechanical properties :
#
#
# Convention : Reuss Voigt Hill
#
# Bulk Modulus (GPa) = 47.39076 48.75832 48.07454
# Shear Modulus (GPa) = -17.50240 18.77583 0.63671
#
# Velocity S-wave (km/s) = -2.61507 2.70853 0.49878
# Velocity P-wave (km/s) = 3.06570 5.36959 4.37213
#
# Compressibility (1/GPa) = 0.02110116
#
# Stress axis : x y z
#
# Youngs Moduli (GPa) = 128.41475 86.11188 89.46601
#
# Poissons Ratio (x) = 0.04519 0.17244
# Poissons Ratio (y) = 0.06740 0.20451
# Poissons Ratio (z) = 0.24752 0.19684
#
# Static dielectric constant tensor:
#      x y z
#    x 2.106490 0.000000 0.000000 
#    y 0.000000 2.044700 0.000000 
#    z 0.000000 0.000000 1.962320 
# 
# From -- ./inp_files/54639.got.cif
#   From: 2010.05.17/outbox.cif.g08.bks.cpg/sg63_28_cif.got.tgz:54639.got - 2010.06.03 15:47:04.
