data_PCOD9468014
_publ_section_title
;
Structure prediction by ZEFSAII (Michael W. Deem and Ramdas Pophale) SiO2 
 PCOD9468014
Probable space group: P N M A
;
_chemical_formula_sum "Si O2"
_cell_formula_units_Z 40
_cell_length_a 24.000000
_cell_length_b 9.000000
_cell_length_c 9.000000
_cell_angle_alpha 90.000000
_cell_angle_beta 90.000000
_cell_angle_gamma 90.000000
_cell_volume 1944.000000
_symmetry_space_group_name_H-M "P N M A"
_symmetry_group_IT_number 62
_symmetry_cell_setting 'orthorhombic'
loop_
_space_group_symop_operation_xyz
x,y,z
1/2-x,-y,1/2+z
1/2+x,1/2-y,1/2-z
-x,1/2+y,-z
-x,-y,-z
1/2+x,y,1/2-z
1/2-x,1/2+y,1/2+z
x,1/2-y,z
loop_
_atom_site_type_symbol
_atom_site_label
_atom_site_fract_x
_atom_site_fract_y
_atom_site_fract_z
Si Si1 0.403723 0.421403 0.326466
Si Si2 0.499493 0.425829 0.839459
Si Si3 0.894039 0.073541 0.839438
Si Si4 0.693965 0.412108 0.152454
Si Si5 0.295616 0.409330 0.126268
O O1 0.425489 0.250000 0.336558
O O2 0.446564 0.531917 0.252555
O O3 0.387006 0.474807 0.490708
O O4 0.352330 0.416593 0.215753
O O5 0.493646 0.250000 0.859476
O O6 0.449663 0.484701 0.737007
O O7 0.500000 0.500000 0.000000
O O8 0.897321 0.250000 0.845482
O O9 0.845989 0.027877 0.729232
O O10 0.667038 0.250000 0.154836
O O11 0.748263 0.410164 0.252015
O O12 0.709171 0.458737 0.987973
O O13 0.292610 0.250000 0.044625
#
# Coordination Sequence:
#
# PCOD9468014 Si02
#       5
#     8   8   8   8   8
#     4  10  21  39  61  83 112 151 191 233 285 341
#     4  11  23  38  58  85 116 151 191 236 286 339
#     4  10  22  40  60  83 116 154 188 232 290 341
#     4  11  23  38  60  88 115 149 193 235 277 335
#     4  10  22  39  58  83 115 149 185 230 285 336
#
# _framework density 20.576132000000001
#
# number of rings (size 3 to 8) (size 9 to 14) (size 15 to 20)
#    0.000    1.600    0.000    4.200    0.000   11.200 
#    0.000    0.000    0.000    0.000    0.000    0.000 
#    0.000    0.000    0.000    0.000    0.000    0.000 
#
# Total GULP energy -223041.184966 kJ/mol
# GULP energy per Si atom -5576.029624 kJ/mol
# Density = 2.052930 g / cm^3
# Si number density = 20.576132 Si / 1000 Ang^3
#
#
#
# Elastic Constant Matrix: (Units=GPa)
#
#
# Indices 1 2 3 4 5 6 
#
# 1 52.9086 13.1732 -5.0952 0.0000 0.0000 0.0000
# 2 13.1732 -13.5391 45.4095 0.0000 0.0000 0.0000
# 3 -5.0952 45.4095 93.6392 0.0000 0.0000 0.0000
# 4 0.0000 0.0000 0.0000 34.4585 0.0000 0.0000
# 5 0.0000 0.0000 0.0000 0.0000 14.9913 0.0000
# 6 0.0000 0.0000 0.0000 0.0000 0.0000 16.0901
#
#
#
# Elastic Compliance Matrix: (Units=1/GPa)
#
#
# Indices 1 2 3 4 5 6 
#
# 1 0.016803 0.007392 -0.002670 0.000000 0.000000 0.000000
# 2 0.007392 -0.024869 0.012462 0.000000 0.000000 0.000000
# 3 -0.002670 0.012462 0.004490 0.000000 0.000000 0.000000
# 4 0.000000 0.000000 0.000000 0.029020 0.000000 0.000000
# 5 0.000000 0.000000 0.000000 0.000000 0.066706 0.000000
# 6 0.000000 0.000000 0.000000 0.000000 0.000000 0.062150
#
#
# Mechanical properties :
#
#
# Convention : Reuss Voigt Hill
#
# Bulk Modulus (GPa) = 32.47591 26.66485 29.57038
# Shear Modulus (GPa) = 38.40381 18.40941 28.40661
#
# Velocity S-wave (km/s) = 4.32490 2.99439 3.71962
# Velocity P-wave (km/s) = 6.38414 4.99424 5.73148
#
# Compressibility (1/GPa) = 0.03079206
#
# Stress axis : x y z
#
# Youngs Moduli (GPa) = 59.51370 -40.20994 222.69560
#
# Poissons Ratio (x) = 0.29724 0.59470
# Poissons Ratio (y) = -0.43993 -2.77533
# Poissons Ratio (z) = 0.15893 0.50111
#
# Static dielectric constant tensor:
#      x y z
#    x 1.693140 0.000000 0.000000 
#    y 0.000000 1.755360 0.000000 
#    z 0.000000 0.000000 1.688110 
# 
# From -- ./inp_files/9059.got.cif
#   From: 2010.05.17/outbox.ucp.g08.bks.cvg/sg62_5_cif.got.tgz:9059.got - 2010.06.11 16:29:25.
