data_PCOD9468055
_publ_section_title
;
Structure prediction by ZEFSAII (Michael W. Deem and Ramdas Pophale) SiO2 
 PCOD9468055
Probable space group: P N M A
;
_chemical_formula_sum "Si O2"
_cell_formula_units_Z 56
_cell_length_a 15.000000
_cell_length_b 21.000000
_cell_length_c 9.000000
_cell_angle_alpha 90.000000
_cell_angle_beta 90.000000
_cell_angle_gamma 90.000000
_cell_volume 2835.000000
_symmetry_space_group_name_H-M "P N M A"
_symmetry_group_IT_number 62
_symmetry_cell_setting 'orthorhombic'
loop_
_space_group_symop_operation_xyz
x,y,z
1/2-x,-y,1/2+z
1/2+x,1/2-y,1/2-z
-x,1/2+y,-z
-x,-y,-z
1/2+x,y,1/2-z
1/2-x,1/2+y,1/2+z
x,1/2-y,z
loop_
_atom_site_type_symbol
_atom_site_label
_atom_site_fract_x
_atom_site_fract_y
_atom_site_fract_z
Si Si1 0.246354 0.027151 0.794915
Si Si2 0.057703 0.943915 0.420995
Si Si3 0.946002 0.175797 0.020406
Si Si4 0.917024 0.620957 0.199121
Si Si5 0.644663 0.182604 0.992341
Si Si6 0.209367 0.919548 0.986726
Si Si7 0.452921 0.321144 0.125285
O O1 0.344149 0.033287 0.869990
O O2 0.172910 0.081233 0.832991
O O3 0.267107 0.033425 0.621168
O O4 0.198232 0.962124 0.841997
O O5 0.993084 0.920684 0.285511
O O6 0.074713 0.882175 0.527212
O O7 0.000000 0.000000 0.500000
O O8 0.931705 0.250000 0.980405
O O9 0.869949 0.127116 0.966923
O O10 0.941480 0.170601 0.198916
O O11 0.037182 0.151952 0.944273
O O12 0.888485 0.672181 0.323900
O O13 0.692713 0.250000 0.006259
O O14 0.706460 0.125199 0.036232
O O15 0.558136 0.182310 0.093652
O O16 0.416389 0.250000 0.083119
#
# Coordination Sequence:
#
# PCOD9468055 Si02
#       7
#     8   8   8   8   8   8   8
#     4  11  24  41  60  96 127 166 216 260 324 380
#     4  11  22  42  66  92 127 173 217 265 323 388
#     4  11  23  42  64  93 129 164 210 267 329 383
#     4  10  22  39  63  94 121 163 208 269 318 372
#     4   9  18  39  64  86 116 161 210 255 313 381
#     4  11  24  40  61  92 126 166 210 262 318 384
#     4   9  21  39  61  89 123 166 209 261 324 389
#
# _framework density 19.753086
#
# number of rings (size 3 to 8) (size 9 to 14) (size 15 to 20)
#    0.000    1.714    1.429    3.429    4.000    3.429 
#    0.000    1.429    0.000    0.000    0.000    0.000 
#    0.000    0.000    0.000    0.000    0.000    0.000 
#
# Total GULP energy -312252.306815 kJ/mol
# GULP energy per Si atom -5575.934050 kJ/mol
# Density = 1.970813 g / cm^3
# Si number density = 19.753086 Si / 1000 Ang^3
#
#
#
# Elastic Constant Matrix: (Units=GPa)
#
#
# Indices 1 2 3 4 5 6 
#
# 1 60.0846 24.0611 7.3461 0.0000 0.0000 0.0000
# 2 24.0611 91.8964 35.6269 0.0000 0.0000 0.0000
# 3 7.3461 35.6269 23.1061 0.0000 0.0000 0.0000
# 4 0.0000 0.0000 0.0000 13.4340 0.0000 0.0000
# 5 0.0000 0.0000 0.0000 0.0000 24.0589 0.0000
# 6 0.0000 0.0000 0.0000 0.0000 0.0000 12.5325
#
#
#
# Elastic Compliance Matrix: (Units=1/GPa)
#
#
# Indices 1 2 3 4 5 6 
#
# 1 0.018740 -0.006456 0.003996 0.000000 0.000000 0.000000
# 2 -0.006456 0.029278 -0.043090 0.000000 0.000000 0.000000
# 3 0.003996 -0.043090 0.108448 0.000000 0.000000 0.000000
# 4 0.000000 0.000000 0.000000 0.074438 0.000000 0.000000
# 5 0.000000 0.000000 0.000000 0.000000 0.041565 0.000000
# 6 0.000000 0.000000 0.000000 0.000000 0.000000 0.079793
#
#
# Mechanical properties :
#
#
# Convention : Reuss Voigt Hill
#
# Bulk Modulus (GPa) = 15.29842 34.35059 24.82451
# Shear Modulus (GPa) = 10.74924 17.20861 13.97892
#
# Velocity S-wave (km/s) = 2.33530 2.95479 2.66312
# Velocity P-wave (km/s) = 3.87726 5.39155 4.69584
#
# Compressibility (1/GPa) = 0.06536621
#
# Stress axis : x y z
#
# Youngs Moduli (GPa) = 53.36208 34.15579 9.22099
#
# Poissons Ratio (x) = 0.22051 -0.03685
# Poissons Ratio (y) = 0.34450 0.39733
# Poissons Ratio (z) = -0.21326 1.47178
#
# Static dielectric constant tensor:
#      x y z
#    x 1.674160 0.000000 0.000000 
#    y 0.000000 1.682450 0.000000 
#    z 0.000000 0.000000 1.697720 
# 
# From -- ./inp_files/6762.got.cif
#   From: 2010.05.17/outbox.ucp.g08.bks.cvg/sg62_4_cif.got.tgz:6762.got - 2010.06.11 16:29:25.
