data_PCOD9468065
_publ_section_title
;
Structure prediction by ZEFSAII (Michael W. Deem and Ramdas Pophale) SiO2 
 PCOD9468065
Probable space group: P N M A
;
_chemical_formula_sum "Si O2"
_cell_formula_units_Z 48
_cell_length_a 15.000000
_cell_length_b 9.000000
_cell_length_c 18.000000
_cell_angle_alpha 90.000000
_cell_angle_beta 90.000000
_cell_angle_gamma 90.000000
_cell_volume 2430.000000
_symmetry_space_group_name_H-M "P N M A"
_symmetry_group_IT_number 62
_symmetry_cell_setting 'orthorhombic'
loop_
_space_group_symop_operation_xyz
x,y,z
1/2-x,-y,1/2+z
1/2+x,1/2-y,1/2-z
-x,1/2+y,-z
-x,-y,-z
1/2+x,y,1/2-z
1/2-x,1/2+y,1/2+z
x,1/2-y,z
loop_
_atom_site_type_symbol
_atom_site_label
_atom_site_fract_x
_atom_site_fract_y
_atom_site_fract_z
Si Si1 0.248070 0.070589 0.078806
Si Si2 0.945124 0.073147 0.203442
Si Si3 0.419293 0.422182 0.801454
Si Si4 0.776085 0.927413 0.265598
Si Si5 0.053045 0.929158 0.068214
Si Si6 0.409173 0.076402 0.975804
O O1 0.236538 0.250000 0.078716
O O2 0.285800 0.013236 0.157045
O O3 0.153506 0.991047 0.067302
O O4 0.320206 0.024524 0.017239
O O5 0.940070 0.250000 0.192397
O O6 0.848025 0.999295 0.210395
O O7 0.002443 0.031330 0.276415
O O8 0.002241 0.992147 0.140019
O O9 0.446543 0.250000 0.786856
O O10 0.326154 0.448755 0.759523
O O11 0.399751 0.438242 0.887958
O O12 0.791337 0.750000 0.272689
O O13 0.052598 0.750000 0.067244
O O14 0.000000 0.000000 0.000000
O O15 0.417623 0.250000 0.994303
O O16 0.500000 0.000000 0.000000
#
# Coordination Sequence:
#
# PCOD9468065 Si02
#       6
#     8   8   8   8   8   8
#     4  11  23  42  67  98 133 170 216 272 328 386
#     4  12  25  42  66  97 131 168 214 272 326 385
#     4  10  22  42  65  92 126 168 216 262 319 386
#     4  11  23  40  66  94 127 172 216 265 324 389
#     4  12  26  45  67  95 130 173 220 269 328 395
#     4  10  23  41  63  93 128 168 211 261 318 379
#
# _framework density 19.753086
#
# number of rings (size 3 to 8) (size 9 to 14) (size 15 to 20)
#    0.000    1.000    1.667    5.000    2.333    5.333 
#    0.000    0.000    0.000    0.000    0.000    0.000 
#    0.000    0.000    0.000    0.000    0.000    0.000 
#
# Total GULP energy -268380.915654 kJ/mol
# GULP energy per Si atom -5591.269076 kJ/mol
# Density = 1.970813 g / cm^3
# Si number density = 19.753086 Si / 1000 Ang^3
#
#
#
# Elastic Constant Matrix: (Units=GPa)
#
#
# Indices 1 2 3 4 5 6 
#
# 1 78.4336 33.3292 23.9230 0.0000 0.0000 0.0000
# 2 33.3292 115.3405 24.2923 0.0000 0.0000 0.0000
# 3 23.9230 24.2923 42.9155 0.0000 0.0000 0.0000
# 4 0.0000 0.0000 0.0000 29.0491 0.0000 0.0000
# 5 0.0000 0.0000 0.0000 0.0000 41.0624 0.0000
# 6 0.0000 0.0000 0.0000 0.0000 0.0000 40.5170
#
#
#
# Elastic Compliance Matrix: (Units=1/GPa)
#
#
# Indices 1 2 3 4 5 6 
#
# 1 0.016328 -0.003180 -0.007302 0.000000 0.000000 0.000000
# 2 -0.003180 0.010463 -0.004150 0.000000 0.000000 0.000000
# 3 -0.007302 -0.004150 0.029721 0.000000 0.000000 0.000000
# 4 0.000000 0.000000 0.000000 0.034424 0.000000 0.000000
# 5 0.000000 0.000000 0.000000 0.000000 0.024353 0.000000
# 6 0.000000 0.000000 0.000000 0.000000 0.000000 0.024681
#
#
# Mechanical properties :
#
#
# Convention : Reuss Voigt Hill
#
# Bulk Modulus (GPa) = 36.69953 44.41984 40.55969
# Shear Modulus (GPa) = 28.03991 32.46871 30.25431
#
# Velocity S-wave (km/s) = 3.77174 4.05869 3.91784
# Velocity P-wave (km/s) = 6.13086 6.67086 6.40655
#
# Compressibility (1/GPa) = 0.02724831
#
# Stress axis : x y z
#
# Youngs Moduli (GPa) = 61.24356 95.57509 33.64639
#
# Poissons Ratio (x) = 0.30397 0.24568
# Poissons Ratio (y) = 0.19478 0.13962
# Poissons Ratio (z) = 0.44719 0.39660
#
# Static dielectric constant tensor:
#      x y z
#    x 1.681310 0.000000 0.000000 
#    y 0.000000 1.669330 0.000000 
#    z 0.000000 0.000000 1.806670 
# 
# From -- ./inp_files/23760.got.cif
#   From: 2010.05.17/outbox.ucp.g08.bks.cvg/sg62_12_cif.got.tgz:23760.got - 2010.06.11 16:29:25.
