data_PCOD9468828
_publ_section_title
;
Structure prediction by ZEFSAII (Michael W. Deem and Ramdas Pophale) SiO2 
 PCOD9468828
Probable space group: C M C M
;
_chemical_formula_sum "Si O2"
_cell_formula_units_Z 96
_cell_length_a 32.832359
_cell_length_b 30.066707
_cell_length_c 7.477059
_cell_angle_alpha 90.000000
_cell_angle_beta 90.000000
_cell_angle_gamma 90.000000
_cell_volume 7381.060428
_symmetry_space_group_name_H-M "C M C M"
_symmetry_group_IT_number 63
_symmetry_cell_setting 'orthorhombic'
loop_
_space_group_symop_operation_xyz
x,y,z
-x,-y,1/2+z
x,-y,-z
-x,y,1/2-z
-x,-y,-z
x,y,1/2-z
-x,y,z
x,-y,1/2+z
1/2+x,1/2+y,z
1/2-x,1/2-y,1/2+z
1/2+x,1/2-y,-z
1/2-x,1/2+y,1/2-z
1/2-x,1/2-y,-z
1/2+x,1/2+y,1/2-z
1/2-x,1/2+y,z
1/2+x,1/2-y,1/2+z
loop_
_atom_site_type_symbol
_atom_site_label
_atom_site_fract_x
_atom_site_fract_y
_atom_site_fract_z
Si Si1 0.391691 0.551900 0.461773
Si Si2 0.189905 0.739028 0.466249
Si Si3 0.331203 0.627508 0.032702
Si Si4 0.452721 0.589360 0.750000
Si Si5 0.387958 0.710847 0.458105
Si Si6 0.047282 0.196726 0.750000
Si Si7 0.255385 0.324606 0.545157
O O1 0.385808 0.500000 0.500000
O O2 0.398687 0.558450 0.250000
O O3 0.352404 0.581386 0.515238
O O4 0.429120 0.570181 0.578181
O O5 0.192914 0.740931 0.250000
O O6 0.143544 0.748339 0.518825
O O7 0.212921 0.694321 0.529489
O O8 0.215772 0.780590 0.542246
O O9 0.328957 0.629553 0.250000
O O10 0.361938 0.667370 0.979942
O O11 0.285764 0.638608 0.964886
O O12 0.500000 0.576182 0.750000
O O13 0.450669 0.642864 0.750000
O O14 0.397724 0.705115 0.250000
O O15 0.427635 0.713704 0.578836
O O16 0.000000 0.209464 0.750000
O O17 0.247095 0.337551 0.750000
#
# Coordination Sequence:
#
# PCOD9468828 Si02
#       7
#    16  16  16   8  16   8  16
#     4  11  21  35  50  63  77  96 121 153 196 250
#     4   9  14  21  37  58  79 101 125 145 173 215
#     4   8  15  27  43  58  77 100 122 146 187 229
#     4  11  24  38  50  62  73  88 120 162 205 250
#     4  10  18  30  45  58  80 103 120 151 191 230
#     4  11  22  34  48  64  75  94 132 160 193 244
#     4   8  14  23  35  56  80 101 122 147 172 215
#
# _framework density 13.006262
#
# number of rings (size 3 to 8) (size 9 to 14) (size 15 to 20)
#    0.000    2.500    3.333    1.500    0.000    1.667 
#    0.000    1.667    0.000    0.000    0.000    0.000 
#    0.000    0.000    0.000    0.000    0.000    0.000 
#
# Total GULP energy -267225.593390 kJ/mol
# GULP energy per Si atom -5567.199862 kJ/mol
# Density = 1.297666 g / cm^3
# Si number density = 13.006262 Si / 1000 Ang^3
#
#
#
# Elastic Constant Matrix: (Units=GPa)
#
#
# Indices 1 2 3 4 5 6 
#
# 1 102.0473 50.4274 27.5468 0.0000 0.0000 0.0000
# 2 50.4274 41.1667 13.7406 0.0000 0.0000 0.0000
# 3 27.5468 13.7406 68.8316 0.0000 0.0000 0.0000
# 4 0.0000 0.0000 0.0000 5.3838 0.0000 0.0000
# 5 0.0000 0.0000 0.0000 0.0000 12.1636 0.0000
# 6 0.0000 0.0000 0.0000 0.0000 0.0000 18.6452
#
#
#
# Elastic Compliance Matrix: (Units=1/GPa)
#
#
# Indices 1 2 3 4 5 6 
#
# 1 0.025982 -0.030380 -0.004333 0.000000 0.000000 0.000000
# 2 -0.030380 0.061548 -0.000128 0.000000 0.000000 0.000000
# 3 -0.004333 -0.000128 0.016288 0.000000 0.000000 0.000000
# 4 0.000000 0.000000 0.000000 0.185741 0.000000 0.000000
# 5 0.000000 0.000000 0.000000 0.000000 0.082213 0.000000
# 6 0.000000 0.000000 0.000000 0.000000 0.000000 0.053633
#
#
# Mechanical properties :
#
#
# Convention : Reuss Voigt Hill
#
# Bulk Modulus (GPa) = 29.29581 43.94170 36.61876
# Shear Modulus (GPa) = 9.87232 15.26058 12.56645
#
# Velocity S-wave (km/s) = 2.75806 3.42910 3.11172
# Velocity P-wave (km/s) = 5.71978 7.03823 6.41298
#
# Compressibility (1/GPa) = 0.03413457
#
# Stress axis : x y z
#
# Youngs Moduli (GPa) = 38.48881 16.24739 61.39450
#
# Poissons Ratio (x) = 0.49359 0.26604
# Poissons Ratio (y) = 1.16929 0.00789
# Poissons Ratio (z) = 0.16679 0.00209
#
# Static dielectric constant tensor:
#      x y z
#    x 1.439980 0.000000 0.000000 
#    y 0.000000 1.418080 0.000000 
#    z 0.000000 0.000000 1.518720 
# 
# From -- ./inp_files/14974.got.cif
#   From: 2010.05.17/outbox.cif.g08.bks.cpg/sg63_8_cif.got.tgz:14974.got - 2010.06.03 15:47:04.
