data_PCOD9468740
_publ_section_title
;
Structure prediction by ZEFSAII (Michael W. Deem and Ramdas Pophale) SiO2 
 PCOD9468740
Probable space group: C M C M
;
_chemical_formula_sum "Si O2"
_cell_formula_units_Z 80
_cell_length_a 18.999049
_cell_length_b 4.830283
_cell_length_c 32.415759
_cell_angle_alpha 90.000000
_cell_angle_beta 90.000000
_cell_angle_gamma 90.000000
_cell_volume 2974.819598
_symmetry_space_group_name_H-M "C M C M"
_symmetry_group_IT_number 63
_symmetry_cell_setting 'orthorhombic'
loop_
_space_group_symop_operation_xyz
x,y,z
-x,-y,1/2+z
x,-y,-z
-x,y,1/2-z
-x,-y,-z
x,y,1/2-z
-x,y,z
x,-y,1/2+z
1/2+x,1/2+y,z
1/2-x,1/2-y,1/2+z
1/2+x,1/2-y,-z
1/2-x,1/2+y,1/2-z
1/2-x,1/2-y,-z
1/2+x,1/2+y,1/2-z
1/2-x,1/2+y,z
1/2+x,1/2-y,1/2+z
loop_
_atom_site_type_symbol
_atom_site_label
_atom_site_fract_x
_atom_site_fract_y
_atom_site_fract_z
Si Si1 0.500000 0.257481 0.036710
Si Si2 0.346598 0.463992 0.383514
Si Si3 0.000000 0.555560 0.298443
Si Si4 0.000000 0.988540 0.373677
Si Si5 0.853729 0.572578 0.670688
Si Si6 0.783253 0.695880 0.250000
Si Si7 0.341922 0.235923 0.028262
O O1 0.500000 0.306811 0.085329
O O2 0.421950 0.125507 0.035087
O O3 0.500000 0.500000 0.000000
O O4 0.423175 0.622676 0.383160
O O5 0.310841 0.680095 0.352031
O O6 0.317231 0.370145 0.427944
O O7 0.359884 0.175486 0.361659
O O8 0.068809 0.377201 0.309699
O O9 0.000000 0.633948 0.250000
O O10 0.000000 0.813913 0.330974
O O11 0.815404 0.435182 0.709400
O O12 0.709188 0.524642 0.250000
O O13 0.349279 0.500000 0.000000
O O14 0.305013 0.000000 0.000000
#
# Coordination Sequence:
#
# PCOD9468740 Si02
#       7
#     8  16   8   8  16   8  16
#     4   8  15  26  41  64 101 154 203 238 279 331
#     4  10  20  34  54  80 118 155 198 242 292 347
#     4  10  19  36  57  86 117 158 203 244 297 360
#     4   8  17  30  47  76 113 156 199 250 284 339
#     4  11  22  40  60  88 119 158 197 246 296 350
#     4  12  26  45  66  89 118 152 198 250 296 352
#     4  10  18  29  46  73 109 152 195 235 280 340
#
# _framework density 26.892384
#
# number of rings (size 3 to 8) (size 9 to 14) (size 15 to 20)
#    0.000    2.000    1.000    3.300    0.000    0.000 
#    1.800   13.000    0.000    0.000    0.000    0.000 
#    0.000   56.000    0.000    0.000    0.000    0.000 
#
# Total GULP energy -222699.073373 kJ/mol
# GULP energy per Si atom -5567.476834 kJ/mol
# Density = 2.683118 g / cm^3
# Si number density = 26.892384 Si / 1000 Ang^3
#
#
#
# Elastic Constant Matrix: (Units=GPa)
#
#
# Indices 1 2 3 4 5 6 
#
# 1 69.8696 -8.8187 -7.8679 0.0000 0.0000 0.0000
# 2 -8.8187 98.6170 42.0582 0.0000 0.0000 0.0000
# 3 -7.8679 42.0582 227.1316 0.0000 0.0000 0.0000
# 4 0.0000 0.0000 0.0000 53.8766 0.0000 0.0000
# 5 0.0000 0.0000 0.0000 0.0000 29.2019 0.0000
# 6 0.0000 0.0000 0.0000 0.0000 0.0000 8.7398
#
#
#
# Elastic Compliance Matrix: (Units=1/GPa)
#
#
# Indices 1 2 3 4 5 6 
#
# 1 0.014493 0.001175 0.000285 0.000000 0.000000 0.000000
# 2 0.001175 0.011105 -0.002016 0.000000 0.000000 0.000000
# 3 0.000285 -0.002016 0.004786 0.000000 0.000000 0.000000
# 4 0.000000 0.000000 0.000000 0.018561 0.000000 0.000000
# 5 0.000000 0.000000 0.000000 0.000000 0.034244 0.000000
# 6 0.000000 0.000000 0.000000 0.000000 0.000000 0.114420
#
#
# Mechanical properties :
#
#
# Convention : Reuss Voigt Hill
#
# Bulk Modulus (GPa) = 34.16407 49.59569 41.87988
# Shear Modulus (GPa) = 23.98334 43.04677 33.51506
#
# Velocity S-wave (km/s) = 2.98959 4.00522 3.53408
# Velocity P-wave (km/s) = 4.96472 6.31438 5.67978
#
# Compressibility (1/GPa) = 0.02927052
#
# Stress axis : x y z
#
# Youngs Moduli (GPa) = 69.00036 90.05032 208.95053
#
# Poissons Ratio (x) = -0.10578 -0.05945
# Poissons Ratio (y) = -0.08105 0.42116
# Poissons Ratio (z) = -0.01963 0.18151
#
# Static dielectric constant tensor:
#      x y z
#    x 2.530260 0.000000 0.000000 
#    y 0.000000 1.865910 0.000000 
#    z 0.000000 0.000000 1.935940 
# 
# From -- ./inp_files/74221.got.cif
#   From: 2010.05.17/outbox.cif.g08.bks.cpg/sg63_38_cif.got.tgz:74221.got - 2010.06.03 15:47:04.
