data_PCOD9468836
_publ_section_title
;
Structure prediction by ZEFSAII (Michael W. Deem and Ramdas Pophale) SiO2 
 PCOD9468836
Probable space group: C M C M
;
_chemical_formula_sum "Si O2"
_cell_formula_units_Z 80
_cell_length_a 19.776360
_cell_length_b 33.781067
_cell_length_c 8.729936
_cell_angle_alpha 90.000000
_cell_angle_beta 90.000000
_cell_angle_gamma 90.000000
_cell_volume 5832.178157
_symmetry_space_group_name_H-M "C M C M"
_symmetry_group_IT_number 63
_symmetry_cell_setting 'orthorhombic'
loop_
_space_group_symop_operation_xyz
x,y,z
-x,-y,1/2+z
x,-y,-z
-x,y,1/2-z
-x,-y,-z
x,y,1/2-z
-x,y,z
x,-y,1/2+z
1/2+x,1/2+y,z
1/2-x,1/2-y,1/2+z
1/2+x,1/2-y,-z
1/2-x,1/2+y,1/2-z
1/2-x,1/2-y,-z
1/2+x,1/2+y,1/2-z
1/2-x,1/2+y,z
1/2+x,1/2-y,1/2+z
loop_
_atom_site_type_symbol
_atom_site_label
_atom_site_fract_x
_atom_site_fract_y
_atom_site_fract_z
Si Si1 0.649111 0.764846 0.933957
Si Si2 0.579301 0.456782 0.566589
Si Si3 0.500000 0.753185 0.565921
Si Si4 0.779783 0.187626 0.066910
Si Si5 0.000000 0.165490 0.067290
Si Si6 0.631413 0.621965 0.932439
O O1 0.654065 0.758986 0.750000
O O2 0.571218 0.773818 0.971859
O O3 0.704093 0.798143 0.974940
O O4 0.672475 0.723945 0.012377
O O5 0.595072 0.500000 0.500000
O O6 0.584717 0.456947 0.750000
O O7 0.500000 0.448417 0.527755
O O8 0.625108 0.422361 0.496436
O O9 0.500000 0.746323 0.750000
O O10 0.500000 0.711020 0.482697
O O11 0.784886 0.183867 0.250000
O O12 0.804945 0.147480 0.989524
O O13 0.000000 0.161428 0.250000
O O14 0.066149 0.144776 0.999108
O O15 0.628595 0.621782 0.750000
#
# Coordination Sequence:
#
# PCOD9468836 Si02
#       6
#    16  16   8  16   8  16
#     4   9  18  30  44  61  84 112 142 181 224 263
#     4  10  20  33  48  65  87 112 141 178 217 257
#     4  10  18  30  46  63  83 110 145 183 224 266
#     4  10  19  30  43  61  85 112 144 181 220 260
#     4  12  22  30  41  63  84 108 146 187 222 258
#     4  12  22  32  46  62  84 115 147 183 220 257
#
# _framework density 13.717002000000001
#
# number of rings (size 3 to 8) (size 9 to 14) (size 15 to 20)
#    0.000    1.600    3.000    3.900    0.000    1.600 
#    0.000    0.000    0.000    0.000    0.000    0.000 
#    0.000    0.000    0.000    0.900    0.000    9.000 
#
# Total GULP energy -223226.729097 kJ/mol
# GULP energy per Si atom -5580.668227 kJ/mol
# Density = 1.368578 g / cm^3
# Si number density = 13.717002 Si / 1000 Ang^3
#
#
#
# Elastic Constant Matrix: (Units=GPa)
#
#
# Indices 1 2 3 4 5 6 
#
# 1 97.6368 50.6788 35.4610 0.0000 0.0000 0.0000
# 2 50.6788 99.4586 43.1681 0.0000 0.0000 0.0000
# 3 35.4610 43.1681 60.4957 0.0000 0.0000 0.0000
# 4 0.0000 0.0000 0.0000 22.6442 0.0000 0.0000
# 5 0.0000 0.0000 0.0000 0.0000 15.3260 0.0000
# 6 0.0000 0.0000 0.0000 0.0000 0.0000 25.3969
#
#
#
# Elastic Compliance Matrix: (Units=1/GPa)
#
#
# Indices 1 2 3 4 5 6 
#
# 1 0.014821 -0.005478 -0.004779 0.000000 0.000000 0.000000
# 2 -0.005478 0.016590 -0.008627 0.000000 0.000000 0.000000
# 3 -0.004779 -0.008627 0.025488 0.000000 0.000000 0.000000
# 4 0.000000 0.000000 0.000000 0.044161 0.000000 0.000000
# 5 0.000000 0.000000 0.000000 0.000000 0.065249 0.000000
# 6 0.000000 0.000000 0.000000 0.000000 0.000000 0.039375
#
#
# Mechanical properties :
#
#
# Convention : Reuss Voigt Hill
#
# Bulk Modulus (GPa) = 52.27197 57.35633 54.81415
# Shear Modulus (GPa) = 20.01373 21.22565 20.61969
#
# Velocity S-wave (km/s) = 3.82389 3.93796 3.88135
# Velocity P-wave (km/s) = 7.59515 7.91085 7.75461
#
# Compressibility (1/GPa) = 0.01913071
#
# Stress axis : x y z
#
# Youngs Moduli (GPa) = 67.47208 60.27669 39.23475
#
# Poissons Ratio (x) = 0.33018 0.18750
# Poissons Ratio (y) = 0.36960 0.33849
# Poissons Ratio (z) = 0.32244 0.52003
#
# Static dielectric constant tensor:
#      x y z
#    x 1.465760 0.000000 0.000000 
#    y 0.000000 1.434880 0.000000 
#    z 0.000000 0.000000 1.455040 
# 
# From -- ./inp_files/8439.got.cif
#   From: 2010.05.17/outbox.cif.g08.bks.cpg/sg63_5_cif.got.tgz:8439.got - 2010.06.03 15:47:04.
