data_PCOD9468616
_publ_section_title
;
Structure prediction by ZEFSAII (Michael W. Deem and Ramdas Pophale) SiO2 
 PCOD9468616
Probable space group: C M C M
;
_chemical_formula_sum "Si O2"
_cell_formula_units_Z 96
_cell_length_a 29.980277
_cell_length_b 23.759234
_cell_length_c 8.936388
_cell_angle_alpha 90.000000
_cell_angle_beta 90.000000
_cell_angle_gamma 90.000000
_cell_volume 6365.464387
_symmetry_space_group_name_H-M "C M C M"
_symmetry_group_IT_number 63
_symmetry_cell_setting 'orthorhombic'
loop_
_space_group_symop_operation_xyz
x,y,z
-x,-y,1/2+z
x,-y,-z
-x,y,1/2-z
-x,-y,-z
x,y,1/2-z
-x,y,z
x,-y,1/2+z
1/2+x,1/2+y,z
1/2-x,1/2-y,1/2+z
1/2+x,1/2-y,-z
1/2-x,1/2+y,1/2-z
1/2-x,1/2-y,-z
1/2+x,1/2+y,1/2-z
1/2-x,1/2+y,z
1/2+x,1/2-y,1/2+z
loop_
_atom_site_type_symbol
_atom_site_label
_atom_site_fract_x
_atom_site_fract_y
_atom_site_fract_z
Si Si1 0.406784 0.602880 0.427162
Si Si2 0.092446 0.761298 0.573520
Si Si3 0.815836 0.059422 0.571612
Si Si4 0.500000 0.736727 0.922520
Si Si5 0.682484 0.765451 0.927405
Si Si6 0.234698 0.838677 0.927233
Si Si7 0.000000 0.099727 0.922778
O O1 0.404828 0.591212 0.250000
O O2 0.403131 0.670766 0.447269
O O3 0.364959 0.575739 0.510586
O O4 0.454290 0.583435 0.494037
O O5 0.094743 0.750485 0.750000
O O6 0.044654 0.745138 0.506752
O O7 0.132582 0.731135 0.487783
O O8 0.816686 0.056695 0.750000
O O9 0.781894 0.107149 0.515243
O O10 0.803410 0.000000 0.500000
O O11 0.500000 0.754500 0.750000
O O12 0.500000 0.668225 0.923746
O O13 0.682797 0.753163 0.750000
O O14 0.714263 0.819320 0.951776
O O15 0.705258 0.713787 0.015328
O O16 0.227190 0.846418 0.750000
O O17 0.000000 0.081141 0.750000
#
# Coordination Sequence:
#
# PCOD9468616 Si02
#       7
#    16  16  16   8  16  16   8
#     4  10  19  32  48  67  90 117 152 194 237 281
#     4  10  18  28  45  67  95 124 155 192 231 276
#     4  12  24  37  53  69  90 120 155 195 239 286
#     4   9  17  27  41  62  92 123 158 190 226 278
#     4  10  19  30  49  72  96 123 153 190 233 276
#     4  10  20  34  49  70  95 120 153 193 234 279
#     4   9  17  29  46  66  87 115 151 192 236 282
#
# _framework density 15.081382
#
# number of rings (size 3 to 8) (size 9 to 14) (size 15 to 20)
#    0.000    1.833    1.667    4.000    0.000    5.333 
#    0.000    0.417    0.000    0.000    0.000    0.000 
#    0.000    0.000    0.000    0.750    0.000   10.000 
#
# Total GULP energy -267975.759091 kJ/mol
# GULP energy per Si atom -5582.828314 kJ/mol
# Density = 1.504706 g / cm^3
# Si number density = 15.081382 Si / 1000 Ang^3
#
#
#
# Elastic Constant Matrix: (Units=GPa)
#
#
# Indices 1 2 3 4 5 6 
#
# 1 91.8926 38.1514 49.0647 0.0000 0.0000 0.0000
# 2 38.1514 52.5788 45.0557 0.0000 0.0000 0.0000
# 3 49.0647 45.0557 114.4769 0.0000 0.0000 0.0000
# 4 0.0000 0.0000 0.0000 17.9858 0.0000 0.0000
# 5 0.0000 0.0000 0.0000 0.0000 28.7721 0.0000
# 6 0.0000 0.0000 0.0000 0.0000 0.0000 4.3959
#
#
#
# Elastic Compliance Matrix: (Units=1/GPa)
#
#
# Indices 1 2 3 4 5 6 
#
# 1 0.016481 -0.008911 -0.003557 0.000000 0.000000 0.000000
# 2 -0.008911 0.033516 -0.009372 0.000000 0.000000 0.000000
# 3 -0.003557 -0.009372 0.013948 0.000000 0.000000 0.000000
# 4 0.000000 0.000000 0.000000 0.055599 0.000000 0.000000
# 5 0.000000 0.000000 0.000000 0.000000 0.034756 0.000000
# 6 0.000000 0.000000 0.000000 0.000000 0.000000 0.227482
#
#
# Mechanical properties :
#
#
# Convention : Reuss Voigt Hill
#
# Bulk Modulus (GPa) = 49.34312 58.16576 53.75444
# Shear Modulus (GPa) = 11.56827 18.67588 15.12208
#
# Velocity S-wave (km/s) = 2.77258 3.52282 3.16998
# Velocity P-wave (km/s) = 6.56038 7.42958 7.00847
#
# Compressibility (1/GPa) = 0.02026625
#
# Stress axis : x y z
#
# Youngs Moduli (GPa) = 60.67672 29.83668 71.69340
#
# Poissons Ratio (x) = 0.26587 0.25498
# Poissons Ratio (y) = 0.54068 0.67190
# Poissons Ratio (z) = 0.21580 0.27963
#
# Static dielectric constant tensor:
#      x y z
#    x 1.505370 0.000000 0.000000 
#    y 0.000000 1.482220 0.000000 
#    z 0.000000 0.000000 1.498920 
# 
# From -- ./inp_files/12805.got.cif
#   From: 2010.05.17/outbox.cif.g08.bks.cpg/sg63_7_cif.got.tgz:12805.got - 2010.06.03 15:47:04.
