data_PCOD9468751
_publ_section_title
;
Structure prediction by ZEFSAII (Michael W. Deem and Ramdas Pophale) SiO2 
 PCOD9468751
Probable space group: C M C M
;
_chemical_formula_sum "Si O2"
_cell_formula_units_Z 96
_cell_length_a 7.363574
_cell_length_b 31.252824
_cell_length_c 19.832424
_cell_angle_alpha 90.000000
_cell_angle_beta 90.000000
_cell_angle_gamma 90.000000
_cell_volume 4564.084964
_symmetry_space_group_name_H-M "C M C M"
_symmetry_group_IT_number 63
_symmetry_cell_setting 'orthorhombic'
loop_
_space_group_symop_operation_xyz
x,y,z
-x,-y,1/2+z
x,-y,-z
-x,y,1/2-z
-x,-y,-z
x,y,1/2-z
-x,y,z
x,-y,1/2+z
1/2+x,1/2+y,z
1/2-x,1/2-y,1/2+z
1/2+x,1/2-y,-z
1/2-x,1/2+y,1/2-z
1/2-x,1/2-y,-z
1/2+x,1/2+y,1/2-z
1/2-x,1/2+y,z
1/2+x,1/2-y,1/2+z
loop_
_atom_site_type_symbol
_atom_site_label
_atom_site_fract_x
_atom_site_fract_y
_atom_site_fract_z
Si Si1 0.219138 0.806544 0.327018
Si Si2 0.222752 0.635314 0.436169
Si Si3 0.213987 0.609615 0.584576
Si Si4 0.278983 0.065840 0.173038
Si Si5 0.278441 0.968663 0.172678
Si Si6 0.783318 0.267843 0.925086
O O1 0.283724 0.806872 0.250000
O O2 0.265961 0.849846 0.366400
O O3 0.286191 0.766016 0.370294
O O4 0.000000 0.804358 0.325354
O O5 0.285010 0.621432 0.510685
O O6 0.280209 0.601118 0.380302
O O7 0.283801 0.683571 0.420532
O O8 0.000000 0.635977 0.436757
O O9 0.287291 0.567445 0.621439
O O10 0.000000 0.601858 0.575125
O O11 0.222896 0.074968 0.250000
O O12 0.500000 0.066039 0.172695
O O13 0.223597 0.017226 0.156018
O O14 0.224083 0.959309 0.250000
O O15 0.500000 0.967961 0.172292
O O16 0.000000 0.269781 0.915969
O O17 0.750000 0.250000 0.000000
#
# Coordination Sequence:
#
# PCOD9468751 Si02
#       6
#    16  16  16  16  16  16
#     4  10  21  34  48  69  96 126 159 194 232 276
#     4   9  17  27  43  67  91 120 158 193 231 280
#     4  10  18  29  47  71  98 124 154 193 234 279
#     4   8  14  25  40  62  95 127 153 189 238 284
#     4   8  14  24  39  62  93 126 154 185 232 281
#     4  10  19  33  50  68  94 124 157 194 234 279
#
# _framework density 21.033788000000001
#
# number of rings (size 3 to 8) (size 9 to 14) (size 15 to 20)
#    0.000    2.833    1.667    1.500    0.000    2.333 
#    0.000    6.667    0.000    0.000    0.000    3.500 
#    0.000    3.333    0.000    0.000    0.000    0.000 
#
# Total GULP energy -268033.590578 kJ/mol
# GULP energy per Si atom -5584.033137 kJ/mol
# Density = 2.098591 g / cm^3
# Si number density = 21.033788 Si / 1000 Ang^3
#
#
#
# Elastic Constant Matrix: (Units=GPa)
#
#
# Indices 1 2 3 4 5 6 
#
# 1 73.8949 -3.9316 -7.1496 0.0000 0.0000 0.0000
# 2 -3.9316 213.1579 135.2652 0.0000 0.0000 0.0000
# 3 -7.1496 135.2652 175.3179 0.0000 0.0000 0.0000
# 4 0.0000 0.0000 0.0000 47.0778 0.0000 0.0000
# 5 0.0000 0.0000 0.0000 0.0000 2.4947 0.0000
# 6 0.0000 0.0000 0.0000 0.0000 0.0000 3.5016
#
#
#
# Elastic Compliance Matrix: (Units=1/GPa)
#
#
# Indices 1 2 3 4 5 6 
#
# 1 0.013591 -0.000198 0.000707 0.000000 0.000000 0.000000
# 2 -0.000198 0.009194 -0.007102 0.000000 0.000000 0.000000
# 3 0.000707 -0.007102 0.011212 0.000000 0.000000 0.000000
# 4 0.000000 0.000000 0.000000 0.021241 0.000000 0.000000
# 5 0.000000 0.000000 0.000000 0.000000 0.400851 0.000000
# 6 0.000000 0.000000 0.000000 0.000000 0.000000 0.285587
#
#
# Mechanical properties :
#
#
# Convention : Reuss Voigt Hill
#
# Bulk Modulus (GPa) = 48.05069 78.97096 63.51082
# Shear Modulus (GPa) = 6.56340 33.16059 19.86199
#
# Velocity S-wave (km/s) = 1.76838 3.97487 3.07626
# Velocity P-wave (km/s) = 5.20228 7.66110 6.54814
#
# Compressibility (1/GPa) = 0.02081136
#
# Stress axis : x y z
#
# Youngs Moduli (GPa) = 73.58021 108.76095 89.18816
#
# Poissons Ratio (x) = 0.02153 -0.06305
# Poissons Ratio (y) = 0.01457 0.63341
# Poissons Ratio (z) = -0.05202 0.77242
#
# Static dielectric constant tensor:
#      x y z
#    x 1.865880 0.000000 0.000000 
#    y 0.000000 1.716410 0.000000 
#    z 0.000000 0.000000 1.712530 
# 
# From -- ./inp_files/42668.got.cif
#   From: 2010.05.17/outbox.cif.g08.bks.cpg/sg63_22_cif.got.tgz:42668.got - 2010.06.03 15:47:04.
