data_PCOD9468941
_publ_section_title
;
Structure prediction by ZEFSAII (Michael W. Deem and Ramdas Pophale) SiO2 
 PCOD9468941
Probable space group: C M C M
;
_chemical_formula_sum "Si O2"
_cell_formula_units_Z 96
_cell_length_a 7.252153
_cell_length_b 27.661677
_cell_length_c 19.749859
_cell_angle_alpha 90.000000
_cell_angle_beta 90.000000
_cell_angle_gamma 90.000000
_cell_volume 3961.954313
_symmetry_space_group_name_H-M "C M C M"
_symmetry_group_IT_number 63
_symmetry_cell_setting 'orthorhombic'
loop_
_space_group_symop_operation_xyz
x,y,z
-x,-y,1/2+z
x,-y,-z
-x,y,1/2-z
-x,-y,-z
x,y,1/2-z
-x,y,z
x,-y,1/2+z
1/2+x,1/2+y,z
1/2-x,1/2-y,1/2+z
1/2+x,1/2-y,-z
1/2-x,1/2+y,1/2-z
1/2-x,1/2-y,-z
1/2+x,1/2+y,1/2-z
1/2-x,1/2+y,z
1/2+x,1/2-y,1/2+z
loop_
_atom_site_type_symbol
_atom_site_label
_atom_site_fract_x
_atom_site_fract_y
_atom_site_fract_z
Si Si1 0.775900 0.995841 0.826693
Si Si2 0.713023 0.700254 0.173469
Si Si3 0.724053 0.548547 0.462226
Si Si4 0.723091 0.603924 0.828792
Si Si5 0.722768 0.299278 0.403086
Si Si6 0.225396 0.155670 0.036888
O O1 0.714679 0.986660 0.750000
O O2 0.723118 0.958185 0.883795
O O3 0.000000 0.996316 0.825110
O O4 0.717968 0.049959 0.848751
O O5 0.790150 0.699147 0.250000
O O6 0.500000 0.685459 0.179659
O O7 0.716141 0.753981 0.141317
O O8 0.791078 0.667921 0.112370
O O9 0.786411 0.500000 0.500000
O O10 0.500000 0.548186 0.467238
O O11 0.780809 0.601703 0.485481
O O12 0.769989 0.609470 0.750000
O O13 0.500000 0.603557 0.834188
O O14 0.784738 0.650597 0.868932
O O15 0.500000 0.297702 0.402027
O O16 0.782373 0.304844 0.481166
O O17 0.000000 0.156428 0.037873
#
# Coordination Sequence:
#
# PCOD9468941 Si02
#       6
#    16  16  16  16  16  16
#     4   8  13  20  31  51  82 117 147 176 217 271
#     4  10  21  35  48  65  94 128 157 188 230 278
#     4   9  15  23  37  58  85 117 150 181 218 269
#     4   8  13  21  35  59  89 116 144 184 231 269
#     4  10  18  30  50  71  91 119 157 197 233 271
#     4   9  18  30  44  64  91 123 155 189 232 277
#
# _framework density 24.230464000000001
#
# number of rings (size 3 to 8) (size 9 to 14) (size 15 to 20)
#    0.000    3.000    0.000    3.000    0.000    5.667 
#    0.000    3.333    0.000    0.000    0.000    0.000 
#    0.000   12.000    0.000    6.000    0.000    6.000 
#
# Total GULP energy -268078.175234 kJ/mol
# GULP energy per Si atom -5584.961984 kJ/mol
# Density = 2.417531 g / cm^3
# Si number density = 24.230464 Si / 1000 Ang^3
#
#
#
# Elastic Constant Matrix: (Units=GPa)
#
#
# Indices 1 2 3 4 5 6 
#
# 1 108.7267 -13.5574 -4.2879 0.0000 0.0000 0.0000
# 2 -13.5574 75.7485 23.5077 0.0000 0.0000 0.0000
# 3 -4.2879 23.5077 93.7844 0.0000 0.0000 0.0000
# 4 0.0000 0.0000 0.0000 42.4108 0.0000 0.0000
# 5 0.0000 0.0000 0.0000 0.0000 -11.0341 0.0000
# 6 0.0000 0.0000 0.0000 0.0000 0.0000 -1.0683
#
#
#
# Elastic Compliance Matrix: (Units=1/GPa)
#
#
# Indices 1 2 3 4 5 6 
#
# 1 0.009407 0.001681 0.000009 0.000000 0.000000 0.000000
# 2 0.001681 0.014616 -0.003587 0.000000 0.000000 0.000000
# 3 0.000009 -0.003587 0.011562 0.000000 0.000000 0.000000
# 4 0.000000 0.000000 0.000000 0.023579 0.000000 0.000000
# 5 0.000000 0.000000 0.000000 0.000000 -0.090628 0.000000
# 6 0.000000 0.000000 0.000000 0.000000 0.000000 -0.936093
#
#
# Mechanical properties :
#
#
# Convention : Reuss Voigt Hill
#
# Bulk Modulus (GPa) = 31.45519 32.17606 31.81562
# Shear Modulus (GPa) = -5.24567 24.23482 9.49457
#
# Velocity S-wave (km/s) = -1.47296 3.16599 1.98165
# Velocity P-wave (km/s) = 3.18073 5.16456 4.28892
#
# Compressibility (1/GPa) = 0.03179126
#
# Stress axis : x y z
#
# Youngs Moduli (GPa) = 106.30015 68.42043 86.48894
#
# Poissons Ratio (x) = -0.11501 -0.00076
# Poissons Ratio (y) = -0.17869 0.31020
# Poissons Ratio (z) = -0.00093 0.24540
#
# Static dielectric constant tensor:
#      x y z
#    x 1.812700 0.000000 0.000000 
#    y 0.000000 1.872530 0.000000 
#    z 0.000000 0.000000 1.917130 
# 
# From -- ./inp_files/53022.got.cif
#   From: 2010.05.17/outbox.cif.g08.bks.cpg/sg63_27_cif.got.tgz:53022.got - 2010.06.03 15:47:04.
