data_PCOD9468315
_publ_section_title
;
Structure prediction by ZEFSAII (Michael W. Deem and Ramdas Pophale) SiO2 
 PCOD9468315
Probable space group: C M C M
;
_chemical_formula_sum "Si O2"
_cell_formula_units_Z 96
_cell_length_a 7.723501
_cell_length_b 30.942457
_cell_length_c 21.562090
_cell_angle_alpha 90.000000
_cell_angle_beta 90.000000
_cell_angle_gamma 90.000000
_cell_volume 5152.996621
_symmetry_space_group_name_H-M "C M C M"
_symmetry_group_IT_number 63
_symmetry_cell_setting 'orthorhombic'
loop_
_space_group_symop_operation_xyz
x,y,z
-x,-y,1/2+z
x,-y,-z
-x,y,1/2-z
-x,-y,-z
x,y,1/2-z
-x,y,z
x,-y,1/2+z
1/2+x,1/2+y,z
1/2-x,1/2-y,1/2+z
1/2+x,1/2-y,-z
1/2-x,1/2+y,1/2-z
1/2-x,1/2-y,-z
1/2+x,1/2+y,1/2-z
1/2-x,1/2+y,z
1/2+x,1/2-y,1/2+z
loop_
_atom_site_type_symbol
_atom_site_label
_atom_site_fract_x
_atom_site_fract_y
_atom_site_fract_z
Si Si1 0.293803 0.385308 0.020128
Si Si2 0.208318 0.533096 0.446586
Si Si3 0.711959 0.004213 0.683320
Si Si4 0.701502 0.303973 0.317764
Si Si5 0.699320 0.099603 0.843071
Si Si6 0.207882 0.210632 0.954991
O O1 0.500000 0.385407 0.030105
O O2 0.207817 0.403433 0.082527
O O3 0.235894 0.335423 0.015920
O O4 0.253144 0.418119 0.965292
O O5 0.272502 0.500000 0.500000
O O6 0.272163 0.519500 0.378686
O O7 0.000000 0.529509 0.446085
O O8 0.762421 0.985325 0.750000
O O9 0.500000 0.005031 0.681132
O O10 0.768651 0.054242 0.680954
O O11 0.777734 0.292365 0.250000
O O12 0.500000 0.291065 0.316249
O O13 0.709173 0.356156 0.324005
O O14 0.775837 0.287018 0.383623
O O15 0.500000 0.104095 0.823616
O O16 0.000000 0.208779 0.949820
O O17 0.250000 0.250000 0.000000
#
# Coordination Sequence:
#
# PCOD9468315 Si02
#       6
#    16  16  16  16  16  16
#     4  10  20  33  49  72  99 128 163 202 252 298
#     4  10  18  31  49  71  96 127 169 206 238 282
#     4   9  17  28  43  65  96 129 161 202 245 280
#     4   9  18  32  48  70 103 134 158 194 247 304
#     4  10  17  28  46  70  99 129 164 199 238 290
#     4   9  19  34  52  74  98 126 161 202 249 298
#
# _framework density 18.629937000000002
#
# number of rings (size 3 to 8) (size 9 to 14) (size 15 to 20)
#    0.000    2.500    1.667    2.500    0.000    4.667 
#    0.000    0.000    0.000    3.500    0.000    7.000 
#    0.000    0.000    0.000    0.000    0.000    0.000 
#
# Total GULP energy -267567.549929 kJ/mol
# GULP energy per Si atom -5574.323957 kJ/mol
# Density = 1.858753 g / cm^3
# Si number density = 18.629937 Si / 1000 Ang^3
#
#
#
# Elastic Constant Matrix: (Units=GPa)
#
#
# Indices 1 2 3 4 5 6 
#
# 1 32.0006 -0.0265 8.6856 0.0000 0.0000 0.0000
# 2 -0.0265 91.7408 87.8282 0.0000 0.0000 0.0000
# 3 8.6856 87.8282 185.0702 0.0000 0.0000 0.0000
# 4 0.0000 0.0000 0.0000 19.5291 0.0000 0.0000
# 5 0.0000 0.0000 0.0000 0.0000 -24.8601 0.0000
# 6 0.0000 0.0000 0.0000 0.0000 0.0000 18.8139
#
#
#
# Elastic Compliance Matrix: (Units=1/GPa)
#
#
# Indices 1 2 3 4 5 6 
#
# 1 0.032001 0.002652 -0.002760 0.000000 0.000000 0.000000
# 2 0.002652 0.020196 -0.009709 0.000000 0.000000 0.000000
# 3 -0.002760 -0.009709 0.010140 0.000000 0.000000 0.000000
# 4 0.000000 0.000000 0.000000 0.051206 0.000000 0.000000
# 5 0.000000 0.000000 0.000000 0.000000 -0.040225 0.000000
# 6 0.000000 0.000000 0.000000 0.000000 0.000000 0.053152
#
#
# Mechanical properties :
#
#
# Convention : Reuss Voigt Hill
#
# Bulk Modulus (GPa) = 23.41783 55.75401 39.58592
# Shear Modulus (GPa) = 31.18416 16.85153 24.01784
#
# Velocity S-wave (km/s) = 4.09574 3.01082 3.59445
# Velocity P-wave (km/s) = 5.91304 6.48682 6.20656
#
# Compressibility (1/GPa) = 0.04270251
#
# Stress axis : x y z
#
# Youngs Moduli (GPa) = 31.24923 49.51574 98.61648
#
# Poissons Ratio (x) = -0.13131 0.27222
# Poissons Ratio (y) = -0.08287 0.95743
# Poissons Ratio (z) = 0.08626 0.48073
#
# Static dielectric constant tensor:
#      x y z
#    x 1.703490 0.000000 0.000000 
#    y 0.000000 1.619980 0.000000 
#    z 0.000000 0.000000 1.699330 
# 
# From -- ./inp_files/60223.got.cif
#   From: 2010.05.17/outbox.cif.g08.bks.cpg/sg63_31_cif.got.tgz:60223.got - 2010.06.03 15:47:04.
