data_PCOD9468368
_publ_section_title
;
Structure prediction by ZEFSAII (Michael W. Deem and Ramdas Pophale) SiO2 
 PCOD9468368
Probable space group: C M C M
;
_chemical_formula_sum "Si O2"
_cell_formula_units_Z 80
_cell_length_a 8.535902
_cell_length_b 21.094156
_cell_length_c 25.621448
_cell_angle_alpha 90.000000
_cell_angle_beta 90.000000
_cell_angle_gamma 90.000000
_cell_volume 4613.337675
_symmetry_space_group_name_H-M "C M C M"
_symmetry_group_IT_number 63
_symmetry_cell_setting 'orthorhombic'
loop_
_space_group_symop_operation_xyz
x,y,z
-x,-y,1/2+z
x,-y,-z
-x,y,1/2-z
-x,-y,-z
x,y,1/2-z
-x,y,z
x,-y,1/2+z
1/2+x,1/2+y,z
1/2-x,1/2-y,1/2+z
1/2+x,1/2-y,-z
1/2-x,1/2+y,1/2-z
1/2-x,1/2-y,-z
1/2+x,1/2+y,1/2-z
1/2-x,1/2+y,z
1/2+x,1/2-y,1/2+z
loop_
_atom_site_type_symbol
_atom_site_label
_atom_site_fract_x
_atom_site_fract_y
_atom_site_fract_z
Si Si1 0.688851 0.639499 0.364000
Si Si2 0.312698 0.996015 0.139396
Si Si3 0.311597 0.812652 0.972018
Si Si4 0.681778 0.645855 0.250000
Si Si5 0.309367 0.938416 0.467330
Si Si6 0.680520 0.508279 0.750000
O O1 0.500000 0.640412 0.363131
O O2 0.742748 0.566286 0.369647
O O3 0.750776 0.678468 0.413111
O O4 0.747973 0.663369 0.306906
O O5 0.500000 0.002398 0.137782
O O6 0.262061 0.950224 0.092380
O O7 0.261464 0.972319 0.196238
O O8 0.500000 0.812311 0.971244
O O9 0.250000 0.750000 0.000000
O O10 0.256965 0.874171 0.005088
O O11 0.500000 0.666171 0.250000
O O12 0.684618 0.568879 0.250000
O O13 0.500000 0.937569 0.468517
O O14 0.258782 0.000000 0.500000
O O15 0.500000 0.527562 0.750000
#
# Coordination Sequence:
#
# PCOD9468368 Si02
#       6
#    16  16  16   8  16   8
#     4  10  18  31  50  76 107 138 170 214 266 312
#     4  10  17  29  51  76 101 136 178 215 256 312
#     4  11  22  37  54  75 106 141 178 219 266 320
#     4   7  14  27  45  68  99 132 163 201 251 303
#     4   9  17  32  53  76 103 135 170 214 260 307
#     4   9  17  29  43  70 109 138 163 213 271 309
#
# _framework density 17.341024000000001
#
# number of rings (size 3 to 8) (size 9 to 14) (size 15 to 20)
#    0.000    2.400    2.000    3.300    0.000    0.000 
#    0.000    6.500    0.000    1.200    0.000    4.200 
#    0.000    0.000    0.000    0.000    0.000    0.000 
#
# Total GULP energy -222912.578053 kJ/mol
# GULP energy per Si atom -5572.814451 kJ/mol
# Density = 1.730155 g / cm^3
# Si number density = 17.341024 Si / 1000 Ang^3
#
#
#
# Elastic Constant Matrix: (Units=GPa)
#
#
# Indices 1 2 3 4 5 6 
#
# 1 48.7828 18.3834 36.9733 0.0000 0.0000 0.0000
# 2 18.3834 84.0682 70.7760 0.0000 0.0000 0.0000
# 3 36.9733 70.7760 205.4855 0.0000 0.0000 0.0000
# 4 0.0000 0.0000 0.0000 20.6176 0.0000 0.0000
# 5 0.0000 0.0000 0.0000 0.0000 25.5794 0.0000
# 6 0.0000 0.0000 0.0000 0.0000 0.0000 15.0968
#
#
#
# Elastic Compliance Matrix: (Units=1/GPa)
#
#
# Indices 1 2 3 4 5 6 
#
# 1 0.024041 -0.002275 -0.003542 0.000000 0.000000 0.000000
# 2 -0.002275 0.016968 -0.005435 0.000000 0.000000 0.000000
# 3 -0.003542 -0.005435 0.007376 0.000000 0.000000 0.000000
# 4 0.000000 0.000000 0.000000 0.048502 0.000000 0.000000
# 5 0.000000 0.000000 0.000000 0.000000 0.039094 0.000000
# 6 0.000000 0.000000 0.000000 0.000000 0.000000 0.066239
#
#
# Mechanical properties :
#
#
# Convention : Reuss Voigt Hill
#
# Bulk Modulus (GPa) = 38.63887 65.62244 52.13065
# Shear Modulus (GPa) = 21.42686 26.40569 23.91627
#
# Velocity S-wave (km/s) = 3.51895 3.90645 3.71775
# Velocity P-wave (km/s) = 6.23224 7.63358 6.96823
#
# Compressibility (1/GPa) = 0.02588067
#
# Stress axis : x y z
#
# Youngs Moduli (GPa) = 41.59563 58.93331 135.57678
#
# Poissons Ratio (x) = 0.13408 0.48023
# Poissons Ratio (y) = 0.09463 0.73687
# Poissons Ratio (z) = 0.14734 0.32031
#
# Static dielectric constant tensor:
#      x y z
#    x 1.597040 0.000000 0.000000 
#    y 0.000000 1.551020 0.000000 
#    z 0.000000 0.000000 1.632900 
# 
# From -- ./inp_files/66692.got.cif
#   From: 2010.05.17/outbox.cif.g08.bks.cpg/sg63_34_cif.got.tgz:66692.got - 2010.06.03 15:47:04.
