data_PCOD9468950
_publ_section_title
;
Structure prediction by ZEFSAII (Michael W. Deem and Ramdas Pophale) SiO2 
 PCOD9468950
Probable space group: C M C M
;
_chemical_formula_sum "Si O2"
_cell_formula_units_Z 104
_cell_length_a 18.670923
_cell_length_b 32.910827
_cell_length_c 7.407623
_cell_angle_alpha 90.000000
_cell_angle_beta 90.000000
_cell_angle_gamma 90.000000
_cell_volume 4551.802971
_symmetry_space_group_name_H-M "C M C M"
_symmetry_group_IT_number 63
_symmetry_cell_setting 'orthorhombic'
loop_
_space_group_symop_operation_xyz
x,y,z
-x,-y,1/2+z
x,-y,-z
-x,y,1/2-z
-x,-y,-z
x,y,1/2-z
-x,y,z
x,-y,1/2+z
1/2+x,1/2+y,z
1/2-x,1/2-y,1/2+z
1/2+x,1/2-y,-z
1/2-x,1/2+y,1/2-z
1/2-x,1/2-y,-z
1/2+x,1/2+y,1/2-z
1/2-x,1/2+y,z
1/2+x,1/2-y,1/2+z
loop_
_atom_site_type_symbol
_atom_site_label
_atom_site_fract_x
_atom_site_fract_y
_atom_site_fract_z
Si Si1 0.230780 0.955015 0.034431
Si Si2 0.417637 0.183910 0.970403
Si Si3 0.831753 0.762035 0.534241
Si Si4 0.578580 0.567189 0.540990
Si Si5 0.418864 0.661797 0.032190
Si Si6 0.000000 0.452099 0.034627
Si Si7 0.860907 0.597744 0.529124
O O1 0.225602 0.949263 0.250000
O O2 0.150391 0.951471 0.959158
O O3 0.286662 0.921736 0.966609
O O4 0.259783 0.000000 0.000000
O O5 0.417290 0.184272 0.750000
O O6 0.500000 0.180449 0.026215
O O7 0.381490 0.225394 0.032908
O O8 0.374375 0.143954 0.026611
O O9 0.840763 0.763622 0.750000
O O10 0.750000 0.750000 0.500000
O O11 0.860528 0.805574 0.467574
O O12 0.575226 0.554358 0.750000
O O13 0.500000 0.558423 0.460620
O O14 0.589192 0.615999 0.536966
O O15 0.415138 0.658971 0.250000
O O16 0.500000 0.675744 0.986717
O O17 0.071848 0.429760 0.969208
O O18 0.000000 0.446509 0.250000
O O19 0.000000 0.500000 0.000000
O O20 0.860352 0.597106 0.750000
#
# Coordination Sequence:
#
# PCOD9468950 Si02
#       7
#    16  16  16  16  16   8  16
#     4  10  21  35  52  75 104 134 168 210 257 309
#     4   9  16  30  53  78 101 132 177 220 251 289
#     4  10  21  33  51  79 108 137 171 211 256 304
#     4   9  19  35  55  78 102 132 171 213 257 310
#     4   9  18  34  53  75 104 136 171 211 254 302
#     4  10  18  30  50  74 100 128 166 210 252 298
#     4   9  17  30  49  75 101 129 168 213 251 293
#
# _framework density 22.848088000000001
#
# number of rings (size 3 to 8) (size 9 to 14) (size 15 to 20)
#    0.000    2.615    0.769    0.923    2.154    3.385 
#    0.000    0.000    0.000    2.308    0.000    0.000 
#    0.000    0.000    0.000    0.000    0.000    0.000 
#
# Total GULP energy -290529.680342 kJ/mol
# GULP energy per Si atom -5587.109237 kJ/mol
# Density = 2.279608 g / cm^3
# Si number density = 22.848088 Si / 1000 Ang^3
#
#
#
# Elastic Constant Matrix: (Units=GPa)
#
#
# Indices 1 2 3 4 5 6 
#
# 1 102.4846 11.1147 3.6797 0.0000 0.0000 0.0000
# 2 11.1147 48.3608 -8.2178 0.0000 0.0000 0.0000
# 3 3.6797 -8.2178 77.7314 0.0000 0.0000 0.0000
# 4 0.0000 0.0000 0.0000 14.4427 0.0000 0.0000
# 5 0.0000 0.0000 0.0000 0.0000 -2.0119 0.0000
# 6 0.0000 0.0000 0.0000 0.0000 0.0000 41.8523
#
#
#
# Elastic Compliance Matrix: (Units=1/GPa)
#
#
# Indices 1 2 3 4 5 6 
#
# 1 0.010048 -0.002434 -0.000733 0.000000 0.000000 0.000000
# 2 -0.002434 0.021646 0.002404 0.000000 0.000000 0.000000
# 3 -0.000733 0.002404 0.013154 0.000000 0.000000 0.000000
# 4 0.000000 0.000000 0.000000 0.069239 0.000000 0.000000
# 5 0.000000 0.000000 0.000000 0.000000 -0.497034 0.000000
# 6 0.000000 0.000000 0.000000 0.000000 0.000000 0.023894
#
#
# Mechanical properties :
#
#
# Convention : Reuss Voigt Hill
#
# Bulk Modulus (GPa) = 23.08358 26.85889 24.97123
# Shear Modulus (GPa) = -14.57355 25.65663 5.54154
#
# Velocity S-wave (km/s) = -2.52830 3.35464 1.55905
# Velocity P-wave (km/s) = 1.26567 5.17549 3.76747
#
# Compressibility (1/GPa) = 0.04332083
#
# Stress axis : x y z
#
# Youngs Moduli (GPa) = 99.52389 46.19848 76.02470
#
# Poissons Ratio (x) = 0.11244 0.05572
# Poissons Ratio (y) = 0.24222 -0.18273
# Poissons Ratio (z) = 0.07295 -0.11104
#
# Static dielectric constant tensor:
#      x y z
#    x 1.842110 0.000000 0.000000 
#    y 0.000000 1.813150 0.000000 
#    z 0.000000 0.000000 1.850590 
# 
# From -- ./inp_files/21769.got.cif
#   From: 2010.05.17/outbox.cif.g08.bks.cpg/sg63_11_cif.got.tgz:21769.got - 2010.06.03 15:47:04.
