data_PCOD9468889
_publ_section_title
;
Structure prediction by ZEFSAII (Michael W. Deem and Ramdas Pophale) SiO2 
 PCOD9468889
Probable space group: C M C M
;
_chemical_formula_sum "Si O2"
_cell_formula_units_Z 80
_cell_length_a 17.793571
_cell_length_b 20.950146
_cell_length_c 13.063837
_cell_angle_alpha 90.000000
_cell_angle_beta 90.000000
_cell_angle_gamma 90.000000
_cell_volume 4869.909858
_symmetry_space_group_name_H-M "C M C M"
_symmetry_group_IT_number 63
_symmetry_cell_setting 'orthorhombic'
loop_
_space_group_symop_operation_xyz
x,y,z
-x,-y,1/2+z
x,-y,-z
-x,y,1/2-z
-x,-y,-z
x,y,1/2-z
-x,y,z
x,-y,1/2+z
1/2+x,1/2+y,z
1/2-x,1/2-y,1/2+z
1/2+x,1/2-y,-z
1/2-x,1/2+y,1/2-z
1/2-x,1/2-y,-z
1/2+x,1/2+y,1/2-z
1/2-x,1/2+y,z
1/2+x,1/2-y,1/2+z
loop_
_atom_site_type_symbol
_atom_site_label
_atom_site_fract_x
_atom_site_fract_y
_atom_site_fract_z
Si Si1 0.152475 0.455669 0.628761
Si Si2 0.206494 0.345692 0.508623
Si Si3 0.000000 0.619465 0.373050
Si Si4 0.168280 0.217750 0.626838
Si Si5 0.000000 0.764404 0.126184
Si Si6 0.088570 0.404166 0.128083
O O1 0.166730 0.450378 0.750000
O O2 0.212539 0.413462 0.567339
O O3 0.133002 0.529308 0.608050
O O4 0.074643 0.419315 0.603327
O O5 0.189641 0.289801 0.590713
O O6 0.277351 0.327314 0.438964
O O7 0.135648 0.351197 0.431513
O O8 0.000000 0.624405 0.250000
O O9 0.000000 0.691309 0.412267
O O10 0.177569 0.211681 0.750000
O O11 0.080630 0.206276 0.599100
O O12 0.000000 0.762146 0.250000
O O13 0.091248 0.393674 0.250000
O O14 0.000000 0.409014 0.101141
#
# Coordination Sequence:
#
# PCOD9468889 Si02
#       6
#    16  16   8  16   8  16
#     4  10  18  30  48  73 102 136 170 198 234 287
#     4  11  21  30  48  72  97 132 164 208 250 297
#     4   9  14  24  44  68  96 125 165 204 226 266
#     4  10  21  35  49  69  94 126 171 220 257 285
#     4   9  16  30  51  67  86 122 167 214 250 277
#     4  10  21  33  46  71 110 145 166 193 237 296
#
# _framework density 16.427409000000001
#
# number of rings (size 3 to 8) (size 9 to 14) (size 15 to 20)
#    0.000    2.000    3.000    1.800    2.800    0.800 
#    0.000    0.000    0.000    0.000    0.000    2.800 
#    0.000    3.200    0.000    0.000    0.000    0.000 
#
# Total GULP energy -222985.082593 kJ/mol
# GULP energy per Si atom -5574.627065 kJ/mol
# Density = 1.639002 g / cm^3
# Si number density = 16.427409 Si / 1000 Ang^3
#
#
#
# Elastic Constant Matrix: (Units=GPa)
#
#
# Indices 1 2 3 4 5 6 
#
# 1 95.3669 35.1285 45.2406 0.0000 0.0000 0.0000
# 2 35.1285 46.8471 27.6490 0.0000 0.0000 0.0000
# 3 45.2406 27.6490 84.3094 0.0000 0.0000 0.0000
# 4 0.0000 0.0000 0.0000 26.2954 0.0000 0.0000
# 5 0.0000 0.0000 0.0000 0.0000 27.9017 0.0000
# 6 0.0000 0.0000 0.0000 0.0000 0.0000 26.6123
#
#
#
# Elastic Compliance Matrix: (Units=1/GPa)
#
#
# Indices 1 2 3 4 5 6 
#
# 1 0.016614 -0.008923 -0.005989 0.000000 0.000000 0.000000
# 2 -0.008923 0.031262 -0.005464 0.000000 0.000000 0.000000
# 3 -0.005989 -0.005464 0.016866 0.000000 0.000000 0.000000
# 4 0.000000 0.000000 0.000000 0.038030 0.000000 0.000000
# 5 0.000000 0.000000 0.000000 0.000000 0.035840 0.000000
# 6 0.000000 0.000000 0.000000 0.000000 0.000000 0.037577
#
#
# Mechanical properties :
#
#
# Convention : Reuss Voigt Hill
#
# Bulk Modulus (GPa) = 41.68343 49.17332 45.42837
# Shear Modulus (GPa) = 22.22843 24.06221 23.14532
#
# Velocity S-wave (km/s) = 3.68248 3.83137 3.75766
# Velocity P-wave (km/s) = 6.59624 7.04068 6.82208
#
# Compressibility (1/GPa) = 0.02399035
#
# Stress axis : x y z
#
# Youngs Moduli (GPa) = 60.19159 31.98758 59.28940
#
# Poissons Ratio (x) = 0.28544 0.35505
# Poissons Ratio (y) = 0.53711 0.32396
# Poissons Ratio (z) = 0.36046 0.17478
#
# Static dielectric constant tensor:
#      x y z
#    x 1.561840 0.000000 0.000000 
#    y 0.000000 1.563330 0.000000 
#    z 0.000000 0.000000 1.629010 
# 
# From -- ./inp_files/33888.got.cif
#   From: 2010.05.17/outbox.cif.g08.bks.cpg/sg63_17_cif.got.tgz:33888.got - 2010.06.03 15:47:04.
