data_PCOD9468358
_publ_section_title
;
Structure prediction by ZEFSAII (Michael W. Deem and Ramdas Pophale) SiO2 
 PCOD9468358
Probable space group: C M C M
;
_chemical_formula_sum "Si O2"
_cell_formula_units_Z 96
_cell_length_a 20.548582
_cell_length_b 13.901090
_cell_length_c 16.051430
_cell_angle_alpha 90.000000
_cell_angle_beta 90.000000
_cell_angle_gamma 90.000000
_cell_volume 4585.053865
_symmetry_space_group_name_H-M "C M C M"
_symmetry_group_IT_number 63
_symmetry_cell_setting 'orthorhombic'
loop_
_space_group_symop_operation_xyz
x,y,z
-x,-y,1/2+z
x,-y,-z
-x,y,1/2-z
-x,-y,-z
x,y,1/2-z
-x,y,z
x,-y,1/2+z
1/2+x,1/2+y,z
1/2-x,1/2-y,1/2+z
1/2+x,1/2-y,-z
1/2-x,1/2+y,1/2-z
1/2-x,1/2-y,-z
1/2+x,1/2+y,1/2-z
1/2-x,1/2+y,z
1/2+x,1/2-y,1/2+z
loop_
_atom_site_type_symbol
_atom_site_label
_atom_site_fract_x
_atom_site_fract_y
_atom_site_fract_z
Si Si1 0.573745 0.399645 0.453906
Si Si2 0.716751 0.116341 0.499794
Si Si3 0.196832 0.895488 0.344927
Si Si4 0.071608 0.384842 0.008608
Si Si5 0.296752 0.371857 0.661124
Si Si6 0.070941 0.775226 0.880125
O O1 0.592569 0.500000 0.500000
O O2 0.500000 0.412177 0.421176
O O3 0.626979 0.372651 0.385849
O O4 0.572082 0.322049 0.527454
O O5 0.747364 0.138481 0.590461
O O6 0.643077 0.146358 0.478387
O O7 0.761863 0.152726 0.425275
O O8 0.717371 0.000000 0.500000
O O9 0.204764 0.861927 0.250000
O O10 0.197128 0.012297 0.342041
O O11 0.073405 0.338992 0.101820
O O12 0.000000 0.354936 0.973922
O O13 0.071757 0.500000 0.000000
O O14 0.263524 0.349508 0.750000
O O15 0.366713 0.320710 0.661677
O O16 0.000000 0.799448 0.844253
#
# Coordination Sequence:
#
# PCOD9468358 Si02
#       6
#    16  16  16  16  16  16
#     4  10  17  29  48  73 109 148 184 221 270 327
#     4   9  17  34  55  77 110 144 181 232 281 330
#     4  10  18  30  50  77 111 153 191 220 269 335
#     4   9  19  36  60  83 101 137 190 239 292 341
#     4  10  19  31  51  80 115 151 183 220 274 335
#     4  10  19  32  53  79 110 145 184 230 275 326
#
# _framework density 20.937594000000001
#
# number of rings (size 3 to 8) (size 9 to 14) (size 15 to 20)
#    0.000    2.333    3.333    0.500    0.000    1.333 
#    0.000    2.500    0.000    3.000    0.000   11.667 
#    0.000    0.000    0.000    0.000    0.000    0.000 
#
# Total GULP energy -267311.156905 kJ/mol
# GULP energy per Si atom -5568.982436 kJ/mol
# Density = 2.088994 g / cm^3
# Si number density = 20.937594 Si / 1000 Ang^3
#
#
#
# Elastic Constant Matrix: (Units=GPa)
#
#
# Indices 1 2 3 4 5 6 
#
# 1 164.0308 14.0340 71.7430 0.0000 0.0000 0.0000
# 2 14.0340 97.4120 16.8638 0.0000 0.0000 0.0000
# 3 71.7430 16.8638 147.1568 0.0000 0.0000 0.0000
# 4 0.0000 0.0000 0.0000 -9.2129 0.0000 0.0000
# 5 0.0000 0.0000 0.0000 0.0000 -31.7895 0.0000
# 6 0.0000 0.0000 0.0000 0.0000 0.0000 15.8817
#
#
#
# Elastic Compliance Matrix: (Units=1/GPa)
#
#
# Indices 1 2 3 4 5 6 
#
# 1 0.007770 -0.000473 -0.003734 0.000000 0.000000 0.000000
# 2 -0.000473 0.010502 -0.000973 0.000000 0.000000 0.000000
# 3 -0.003734 -0.000973 0.008727 0.000000 0.000000 0.000000
# 4 0.000000 0.000000 0.000000 -0.108544 0.000000 0.000000
# 5 0.000000 0.000000 0.000000 0.000000 -0.031457 0.000000
# 6 0.000000 0.000000 0.000000 0.000000 0.000000 0.062966
#
#
# Mechanical properties :
#
#
# Convention : Reuss Voigt Hill
#
# Bulk Modulus (GPa) = 60.09634 68.20904 64.15269
# Shear Modulus (GPa) = -146.50228 15.37311 -65.56459
#
# Velocity S-wave (km/s) = -8.37394 2.71262 -5.60199
# Velocity P-wave (km/s) = 8.04563 6.51606 3.33715
#
# Compressibility (1/GPa) = 0.01663995
#
# Stress axis : x y z
#
# Youngs Moduli (GPa) = 128.70022 95.21771 114.58247
#
# Poissons Ratio (x) = 0.04504 0.42784
# Poissons Ratio (y) = 0.06088 0.11148
# Poissons Ratio (z) = 0.48055 0.09264
#
# Static dielectric constant tensor:
#      x y z
#    x 1.794530 0.000000 0.000000 
#    y 0.000000 1.830990 0.000000 
#    z 0.000000 0.000000 1.736770 
# 
# From -- ./inp_files/35379.got.cif
#   From: 2010.05.17/outbox.cif.g08.bks.cpg/sg63_18_cif.got.tgz:35379.got - 2010.06.03 15:47:04.
