data_PCOD9468209
_publ_section_title
;
Structure prediction by ZEFSAII (Michael W. Deem and Ramdas Pophale) SiO2 
 PCOD9468209
Probable space group: C M C M
;
_chemical_formula_sum "Si O2"
_cell_formula_units_Z 96
_cell_length_a 17.097546
_cell_length_b 18.728490
_cell_length_c 16.162284
_cell_angle_alpha 90.000000
_cell_angle_beta 90.000000
_cell_angle_gamma 90.000000
_cell_volume 5175.344666
_symmetry_space_group_name_H-M "C M C M"
_symmetry_group_IT_number 63
_symmetry_cell_setting 'orthorhombic'
loop_
_space_group_symop_operation_xyz
x,y,z
-x,-y,1/2+z
x,-y,-z
-x,y,1/2-z
-x,-y,-z
x,y,1/2-z
-x,y,z
x,-y,1/2+z
1/2+x,1/2+y,z
1/2-x,1/2-y,1/2+z
1/2+x,1/2-y,-z
1/2-x,1/2+y,1/2-z
1/2-x,1/2-y,-z
1/2+x,1/2+y,1/2-z
1/2-x,1/2+y,z
1/2+x,1/2-y,1/2+z
loop_
_atom_site_type_symbol
_atom_site_label
_atom_site_fract_x
_atom_site_fract_y
_atom_site_fract_z
Si Si1 0.910023 0.536181 0.652834
Si Si2 0.669626 0.498850 0.898816
Si Si3 0.500000 0.319809 0.149621
Si Si4 0.164878 0.247910 0.846674
Si Si5 0.275544 0.869362 0.404682
Si Si6 0.500000 0.517235 0.902414
Si Si7 0.309966 0.904467 0.904416
O O1 0.908316 0.517526 0.750000
O O2 0.854863 0.605295 0.640038
O O3 0.871578 0.469230 0.604613
O O4 0.000000 0.548124 0.628125
O O5 0.708624 0.574345 0.875553
O O6 0.581996 0.489571 0.867697
O O7 0.728962 0.437761 0.871581
O O8 0.668164 0.500000 0.000000
O O9 0.500000 0.324377 0.250000
O O10 0.580213 0.280684 0.124123
O O11 0.500000 0.398207 0.111403
O O12 0.171972 0.230564 0.750000
O O13 0.237142 0.207549 0.890579
O O14 0.166549 0.332599 0.858920
O O15 0.294508 0.883867 0.500514
O O16 0.500000 0.500000 0.000000
#
# Coordination Sequence:
#
# PCOD9468209 Si02
#       7
#    16  16   8  16  16   8  16
#     4  10  21  37  58  83 112 145 185 232 284 337
#     4   8  16  30  53  80 106 137 173 220 266 315
#     4  10  22  36  54  84 113 142 182 227 277 331
#     4  11  22  37  56  80 115 149 183 229 284 340
#     4  10  19  36  57  79 108 147 188 226 269 337
#     4  10  16  32  58  82 110 138 180 224 266 320
#     4  10  21  35  55  84 113 142 183 233 283 329
#
# _framework density 18.549489000000001
#
# number of rings (size 3 to 8) (size 9 to 14) (size 15 to 20)
#    0.000    2.167    1.667    3.000    1.167    1.333 
#    0.000    0.833    1.833    0.000    0.000    0.000 
#    0.000    0.000    0.000    0.000    0.000    0.000 
#
# Total GULP energy -267648.317852 kJ/mol
# GULP energy per Si atom -5576.006622 kJ/mol
# Density = 1.850727 g / cm^3
# Si number density = 18.549489 Si / 1000 Ang^3
#
#
#
# Elastic Constant Matrix: (Units=GPa)
#
#
# Indices 1 2 3 4 5 6 
#
# 1 157.0307 36.5624 7.5943 0.0000 0.0000 0.0000
# 2 36.5624 71.3957 -7.2998 0.0000 0.0000 0.0000
# 3 7.5943 -7.2998 23.3372 0.0000 0.0000 0.0000
# 4 0.0000 0.0000 0.0000 10.7179 0.0000 0.0000
# 5 0.0000 0.0000 0.0000 0.0000 18.6082 0.0000
# 6 0.0000 0.0000 0.0000 0.0000 0.0000 18.3423
#
#
#
# Elastic Compliance Matrix: (Units=1/GPa)
#
#
# Indices 1 2 3 4 5 6 
#
# 1 0.007540 -0.004248 -0.003783 0.000000 0.000000 0.000000
# 2 -0.004248 0.016863 0.006657 0.000000 0.000000 0.000000
# 3 -0.003783 0.006657 0.046163 0.000000 0.000000 0.000000
# 4 0.000000 0.000000 0.000000 0.093302 0.000000 0.000000
# 5 0.000000 0.000000 0.000000 0.000000 0.053740 0.000000
# 6 0.000000 0.000000 0.000000 0.000000 0.000000 0.054519
#
#
# Mechanical properties :
#
#
# Convention : Reuss Voigt Hill
#
# Bulk Modulus (GPa) = 14.74519 36.16416 25.45467
# Shear Modulus (GPa) = 16.80785 23.86079 20.33432
#
# Velocity S-wave (km/s) = 3.01343 3.59044 3.31451
# Velocity P-wave (km/s) = 4.48041 6.06025 5.32920
#
# Compressibility (1/GPa) = 0.06781875
#
# Stress axis : x y z
#
# Youngs Moduli (GPa) = 132.62172 59.30275 21.66225
#
# Poissons Ratio (x) = 0.25193 0.08194
# Poissons Ratio (y) = 0.56340 -0.14421
# Poissons Ratio (z) = 0.50165 -0.39478
#
# Static dielectric constant tensor:
#      x y z
#    x 1.663670 0.000000 0.000000 
#    y 0.000000 1.617740 0.000000 
#    z 0.000000 0.000000 1.667250 
# 
# From -- ./inp_files/45817.got.cif
#   From: 2010.05.17/outbox.cif.g08.bks.cpg/sg63_23_cif.got.tgz:45817.got - 2010.06.03 15:47:04.
