data_PCOD9468572
_publ_section_title
;
Structure prediction by ZEFSAII (Michael W. Deem and Ramdas Pophale) SiO2 
 PCOD9468572
Probable space group: C M C M
;
_chemical_formula_sum "Si O2"
_cell_formula_units_Z 56
_cell_length_a 24.265217
_cell_length_b 12.622581
_cell_length_c 9.144216
_cell_angle_alpha 90.000000
_cell_angle_beta 90.000000
_cell_angle_gamma 90.000000
_cell_volume 2800.778874
_symmetry_space_group_name_H-M "C M C M"
_symmetry_group_IT_number 63
_symmetry_cell_setting 'orthorhombic'
loop_
_space_group_symop_operation_xyz
x,y,z
-x,-y,1/2+z
x,-y,-z
-x,y,1/2-z
-x,-y,-z
x,y,1/2-z
-x,y,z
x,-y,1/2+z
1/2+x,1/2+y,z
1/2-x,1/2-y,1/2+z
1/2+x,1/2-y,-z
1/2-x,1/2+y,1/2-z
1/2-x,1/2-y,-z
1/2+x,1/2+y,1/2-z
1/2-x,1/2+y,z
1/2+x,1/2-y,1/2+z
loop_
_atom_site_type_symbol
_atom_site_label
_atom_site_fract_x
_atom_site_fract_y
_atom_site_fract_z
Si Si1 0.823370 0.337986 0.578925
Si Si2 0.000000 0.114848 0.074499
Si Si3 0.213031 0.901656 0.080683
Si Si4 0.940305 0.296175 0.575845
O O1 0.815775 0.365731 0.750000
O O2 0.816922 0.210620 0.565093
O O3 0.774015 0.385735 0.486136
O O4 0.885975 0.359659 0.531755
O O5 0.000000 0.107978 0.250000
O O6 0.050786 0.187080 0.013862
O O7 0.000000 0.000000 0.000000
O O8 0.217382 0.926640 0.250000
O O9 0.185444 0.000000 0.000000
O O10 0.934197 0.272214 0.750000
O O11 0.000000 0.351289 0.557567
#
# Coordination Sequence:
#
# PCOD9468572 Si02
#       4
#    16   8  16  16
#     4   9  18  34  54  75 101 133 168 207 253 300
#     4  10  18  28  42  64  95 128 163 200 238 288
#     4  10  20  33  51  75 102 133 169 211 253 297
#     4   8  16  31  49  69  95 128 160 196 244 296
#
# _framework density 19.994437000000001
#
# number of rings (size 3 to 8) (size 9 to 14) (size 15 to 20)
#    0.857    2.000    0.000    1.714    0.000    3.429 
#    0.000    2.857    0.000    0.857    0.000    0.000 
#    0.000    0.000    0.000    0.000    0.000    0.000 
#
# Total GULP energy -155907.979342 kJ/mol
# GULP energy per Si atom -5568.142119 kJ/mol
# Density = 1.994893 g / cm^3
# Si number density = 19.994437 Si / 1000 Ang^3
#
#
#
# Elastic Constant Matrix: (Units=GPa)
#
#
# Indices 1 2 3 4 5 6 
#
# 1 87.1662 -14.5815 7.7222 0.0000 0.0000 0.0000
# 2 -14.5815 38.4077 10.8756 0.0000 0.0000 0.0000
# 3 7.7222 10.8756 65.0976 0.0000 0.0000 0.0000
# 4 0.0000 0.0000 0.0000 24.5090 0.0000 0.0000
# 5 0.0000 0.0000 0.0000 0.0000 18.0748 0.0000
# 6 0.0000 0.0000 0.0000 0.0000 0.0000 2.2494
#
#
#
# Elastic Compliance Matrix: (Units=1/GPa)
#
#
# Indices 1 2 3 4 5 6 
#
# 1 0.012600 0.005465 -0.002408 0.000000 0.000000 0.000000
# 2 0.005465 0.029700 -0.005610 0.000000 0.000000 0.000000
# 3 -0.002408 -0.005610 0.016584 0.000000 0.000000 0.000000
# 4 0.000000 0.000000 0.000000 0.040801 0.000000 0.000000
# 5 0.000000 0.000000 0.000000 0.000000 0.055326 0.000000
# 6 0.000000 0.000000 0.000000 0.000000 0.000000 0.444573
#
#
# Mechanical properties :
#
#
# Convention : Reuss Voigt Hill
#
# Bulk Modulus (GPa) = 18.59459 22.07825 20.33642
# Shear Modulus (GPa) = 8.03064 21.41031 14.72047
#
# Velocity S-wave (km/s) = 2.00628 3.27588 2.71630
# Velocity P-wave (km/s) = 3.83235 5.03733 4.47558
#
# Compressibility (1/GPa) = 0.05377909
#
# Stress axis : x y z
#
# Youngs Moduli (GPa) = 79.36571 33.67013 60.29749
#
# Poissons Ratio (x) = -0.18402 0.14518
# Poissons Ratio (y) = -0.43376 0.33828
# Poissons Ratio (z) = 0.19109 0.18890
#
# Static dielectric constant tensor:
#      x y z
#    x 1.758840 0.000000 0.000000 
#    y 0.000000 1.717300 0.000000 
#    z 0.000000 0.000000 1.673300 
# 
# From -- ./inp_files/11454.got.cif
#   From: 2010.05.17/outbox.cif.g08.bks.cpg/sg63_6_cif.got.tgz:11454.got - 2010.06.03 15:47:04.
