data_PCOD9468499
_publ_section_title
;
Structure prediction by ZEFSAII (Michael W. Deem and Ramdas Pophale) SiO2 
 PCOD9468499
Probable space group: C M C M
;
_chemical_formula_sum "Si O2"
_cell_formula_units_Z 128
_cell_length_a 21.657988
_cell_length_b 20.681496
_cell_length_c 14.378215
_cell_angle_alpha 90.000000
_cell_angle_beta 90.000000
_cell_angle_gamma 90.000000
_cell_volume 6440.284199
_symmetry_space_group_name_H-M "C M C M"
_symmetry_group_IT_number 63
_symmetry_cell_setting 'orthorhombic'
loop_
_space_group_symop_operation_xyz
x,y,z
-x,-y,1/2+z
x,-y,-z
-x,y,1/2-z
-x,-y,-z
x,y,1/2-z
-x,y,z
x,-y,1/2+z
1/2+x,1/2+y,z
1/2-x,1/2-y,1/2+z
1/2+x,1/2-y,-z
1/2-x,1/2+y,1/2-z
1/2-x,1/2-y,-z
1/2+x,1/2+y,1/2-z
1/2-x,1/2+y,z
1/2+x,1/2-y,1/2+z
loop_
_atom_site_type_symbol
_atom_site_label
_atom_site_fract_x
_atom_site_fract_y
_atom_site_fract_z
Si Si1 0.703395 0.677645 0.603118
Si Si2 0.568888 0.297073 0.066648
Si Si3 0.693361 0.924169 0.613614
Si Si4 0.931769 0.356645 0.600819
Si Si5 0.229284 0.804599 0.617013
Si Si6 0.066737 0.625165 0.619084
Si Si7 0.411177 0.275899 0.850645
Si Si8 0.301889 0.928861 0.386880
O O1 0.629679 0.667913 0.606719
O O2 0.723762 0.747240 0.641902
O O3 0.720578 0.687095 0.494201
O O4 0.747207 0.620496 0.639678
O O5 0.500000 0.316846 0.097728
O O6 0.569737 0.301916 0.953037
O O7 0.577224 0.221198 0.094795
O O8 0.626324 0.895392 0.640616
O O9 0.743865 0.873025 0.646970
O O10 0.695232 0.925422 0.500108
O O11 0.706765 0.997214 0.641795
O O12 0.933974 0.377191 0.492737
O O13 0.000000 0.369121 0.640906
O O14 0.162355 0.783946 0.650329
O O15 0.071157 0.700507 0.645455
O O16 0.130649 0.592865 0.647458
O O17 0.000000 0.599049 0.649814
O O18 0.433090 0.302166 0.750000
#
# Coordination Sequence:
#
# PCOD9468499 Si02
#       8
#    16  16  16  16  16  16  16  16
#     4   9  14  25  42  58  83 108 137 172 215 256
#     4   9  16  25  40  63  88 111 135 171 215 255
#     4   9  15  23  37  59  83 109 141 169 207 253
#     4   8  13  21  34  55  84 112 134 161 199 247
#     4   9  15  25  41  58  77 108 141 175 213 247
#     4   9  16  25  36  54  84 116 141 168 200 238
#     4  10  18  27  40  58  80 112 149 178 205 241
#     4   9  16  24  37  59  84 112 144 166 208 256
#
# _framework density 19.8749
#
# number of rings (size 3 to 8) (size 9 to 14) (size 15 to 20)
#    0.000    3.000    2.500    1.125    0.000    1.500 
#    0.000    2.500    0.000    0.750    0.000   16.625 
#    0.000    2.000    0.000    0.750    0.000    0.750 
#
# Total GULP energy -356532.530761 kJ/mol
# GULP energy per Si atom -5570.820793 kJ/mol
# Density = 1.982966 g / cm^3
# Si number density = 19.874900 Si / 1000 Ang^3
#
#
#
# Elastic Constant Matrix: (Units=GPa)
#
#
# Indices 1 2 3 4 5 6 
#
# 1 190.6297 76.4202 8.9885 0.0000 0.0000 0.0000
# 2 76.4202 94.1554 8.1301 0.0000 0.0000 0.0000
# 3 8.9885 8.1301 72.9604 0.0000 0.0000 0.0000
# 4 0.0000 0.0000 0.0000 -19.1667 0.0000 0.0000
# 5 0.0000 0.0000 0.0000 0.0000 -15.8075 0.0000
# 6 0.0000 0.0000 0.0000 0.0000 0.0000 8.6925
#
#
#
# Elastic Compliance Matrix: (Units=1/GPa)
#
#
# Indices 1 2 3 4 5 6 
#
# 1 0.007781 -0.006293 -0.000257 0.000000 0.000000 0.000000
# 2 -0.006293 0.015813 -0.000987 0.000000 0.000000 0.000000
# 3 -0.000257 -0.000987 0.013848 0.000000 0.000000 0.000000
# 4 0.000000 0.000000 0.000000 -0.052174 0.000000 0.000000
# 5 0.000000 0.000000 0.000000 0.000000 -0.063261 0.000000
# 6 0.000000 0.000000 0.000000 0.000000 0.000000 0.115042
#
#
# Mechanical properties :
#
#
# Convention : Reuss Voigt Hill
#
# Bulk Modulus (GPa) = 44.70718 60.53589 52.62153
# Shear Modulus (GPa) = 83.92274 12.35744 48.14009
#
# Velocity S-wave (km/s) = 6.50516 2.49622 4.92688
# Velocity P-wave (km/s) = 8.88628 6.23159 7.67459
#
# Compressibility (1/GPa) = 0.02236777
#
# Stress axis : x y z
#
# Youngs Moduli (GPa) = 128.52511 63.23736 72.21395
#
# Poissons Ratio (x) = 0.39794 0.01858
# Poissons Ratio (y) = 0.80878 0.07127
# Poissons Ratio (z) = 0.03307 0.06241
#
# Static dielectric constant tensor:
#      x y z
#    x 1.711780 0.000000 0.000000 
#    y 0.000000 1.646440 0.000000 
#    z 0.000000 0.000000 1.782850 
# 
# From -- ./inp_files/47533.got.cif
#   From: 2010.05.17/outbox.cif.g08.bks.cpg/sg63_24_cif.got.tgz:47533.got - 2010.06.03 15:47:04.
