data_PCOD9468421
_publ_section_title
;
Structure prediction by ZEFSAII (Michael W. Deem and Ramdas Pophale) SiO2 
 PCOD9468421
Probable space group: C M C M
;
_chemical_formula_sum "Si O2"
_cell_formula_units_Z 120
_cell_length_a 20.770516
_cell_length_b 20.655498
_cell_length_c 14.786125
_cell_angle_alpha 90.000000
_cell_angle_beta 90.000000
_cell_angle_gamma 90.000000
_cell_volume 6343.622478
_symmetry_space_group_name_H-M "C M C M"
_symmetry_group_IT_number 63
_symmetry_cell_setting 'orthorhombic'
loop_
_space_group_symop_operation_xyz
x,y,z
-x,-y,1/2+z
x,-y,-z
-x,y,1/2-z
-x,-y,-z
x,y,1/2-z
-x,y,z
x,-y,1/2+z
1/2+x,1/2+y,z
1/2-x,1/2-y,1/2+z
1/2+x,1/2-y,-z
1/2-x,1/2+y,1/2-z
1/2-x,1/2-y,-z
1/2+x,1/2+y,1/2-z
1/2-x,1/2+y,z
1/2+x,1/2-y,1/2+z
loop_
_atom_site_type_symbol
_atom_site_label
_atom_site_fract_x
_atom_site_fract_y
_atom_site_fract_z
Si Si1 0.785507 0.610056 0.145520
Si Si2 0.133398 0.098531 0.143901
Si Si3 0.886712 0.495203 0.608460
Si Si4 0.923882 0.959203 0.356727
Si Si5 0.423164 0.335682 0.476029
Si Si6 0.500000 0.894325 0.619159
Si Si7 0.922685 0.359769 0.149382
Si Si8 0.115911 0.306085 0.540382
O O1 0.797234 0.628796 0.250000
O O2 0.709611 0.606204 0.130555
O O3 0.820204 0.540698 0.130435
O O4 0.820438 0.660384 0.079384
O O5 0.118364 0.108703 0.250000
O O6 0.112830 0.025121 0.120830
O O7 0.095622 0.146450 0.078244
O O8 0.894756 0.500000 0.500000
O O9 0.895297 0.567311 0.644691
O O10 0.943720 0.448497 0.640793
O O11 0.915248 0.945963 0.250000
O O12 0.904519 0.897339 0.415136
O O13 0.000000 0.970737 0.372758
O O14 0.500000 0.326260 0.468803
O O15 0.388852 0.270174 0.445282
O O16 0.556677 0.842421 0.589768
O O17 0.911610 0.333034 0.250000
O O18 0.000000 0.364079 0.134183
O O19 0.892950 0.320773 0.066192
#
# Coordination Sequence:
#
# PCOD9468421 Si02
#       8
#    16  16  16  16  16   8  16  16
#     4  10  23  39  58  82 114 157 200 240 289 350
#     4  10  22  41  62  87 118 149 193 248 299 353
#     4  11  17  31  56  78 110 149 196 249 296 333
#     4   9  19  38  64  93 120 145 187 252 310 358
#     4  11  22  37  64  92 119 156 197 237 303 365
#     4  10  17  32  54  76 113 155 185 244 297 328
#     4  11  20  32  53  81 115 156 196 243 301 347
#     4  11  21  38  56  82 126 158 194 242 283 348
#
# _framework density 18.916636
#
# number of rings (size 3 to 8) (size 9 to 14) (size 15 to 20)
#    0.000    1.600    4.667    1.400    0.000    4.533 
#    0.000    3.000    0.000    0.000    0.000    0.000 
#    0.000    0.000    0.000    0.000    0.000    0.000 
#
# Total GULP energy -334060.873096 kJ/mol
# GULP energy per Si atom -5567.681218 kJ/mol
# Density = 1.887358 g / cm^3
# Si number density = 18.916636 Si / 1000 Ang^3
#
#
#
# Elastic Constant Matrix: (Units=GPa)
#
#
# Indices 1 2 3 4 5 6 
#
# 1 22.9328 24.0208 26.3457 0.0000 0.0000 0.0000
# 2 24.0208 72.8741 26.0548 0.0000 0.0000 0.0000
# 3 26.3457 26.0548 70.4216 0.0000 0.0000 0.0000
# 4 0.0000 0.0000 0.0000 -8.8432 0.0000 0.0000
# 5 0.0000 0.0000 0.0000 0.0000 20.5334 0.0000
# 6 0.0000 0.0000 0.0000 0.0000 0.0000 57.0599
#
#
#
# Elastic Compliance Matrix: (Units=1/GPa)
#
#
# Indices 1 2 3 4 5 6 
#
# 1 0.101474 -0.022905 -0.029488 0.000000 0.000000 0.000000
# 2 -0.022905 0.020984 0.000805 0.000000 0.000000 0.000000
# 3 -0.029488 0.000805 0.024934 0.000000 0.000000 0.000000
# 4 0.000000 0.000000 0.000000 -0.113082 0.000000 0.000000
# 5 0.000000 0.000000 0.000000 0.000000 0.048701 0.000000
# 6 0.000000 0.000000 0.000000 0.000000 0.000000 0.017525
#
#
# Mechanical properties :
#
#
# Convention : Reuss Voigt Hill
#
# Bulk Modulus (GPa) = 22.61603 35.45236 29.03419
# Shear Modulus (GPa) = 22.88825 19.73718 21.31271
#
# Velocity S-wave (km/s) = 3.48221 3.23364 3.36022
# Velocity P-wave (km/s) = 5.30559 5.72048 5.51694
#
# Compressibility (1/GPa) = 0.04421643
#
# Stress axis : x y z
#
# Youngs Moduli (GPa) = 9.85473 47.65458 40.10533
#
# Poissons Ratio (x) = 1.09152 1.18265
# Poissons Ratio (y) = 0.22572 -0.03229
# Poissons Ratio (z) = 0.29060 -0.03837
#
# Static dielectric constant tensor:
#      x y z
#    x 1.622710 0.000000 0.000000 
#    y 0.000000 1.633030 0.000000 
#    z 0.000000 0.000000 1.712480 
# 
# From -- ./inp_files/35879.got.cif
#   From: 2010.05.17/outbox.cif.g08.bks.cpg/sg63_18_cif.got.tgz:35879.got - 2010.06.03 15:47:04.
