data_PCOD9468910
_publ_section_title
;
Structure prediction by ZEFSAII (Michael W. Deem and Ramdas Pophale) SiO2 
 PCOD9468910
Probable space group: C M C M
;
_chemical_formula_sum "Si O2"
_cell_formula_units_Z 80
_cell_length_a 7.788255
_cell_length_b 27.832771
_cell_length_c 19.124494
_cell_angle_alpha 90.000000
_cell_angle_beta 90.000000
_cell_angle_gamma 90.000000
_cell_volume 4145.592045
_symmetry_space_group_name_H-M "C M C M"
_symmetry_group_IT_number 63
_symmetry_cell_setting 'orthorhombic'
loop_
_space_group_symop_operation_xyz
x,y,z
-x,-y,1/2+z
x,-y,-z
-x,y,1/2-z
-x,-y,-z
x,y,1/2-z
-x,y,z
x,-y,1/2+z
1/2+x,1/2+y,z
1/2-x,1/2-y,1/2+z
1/2+x,1/2-y,-z
1/2-x,1/2+y,1/2-z
1/2-x,1/2-y,-z
1/2+x,1/2+y,1/2-z
1/2-x,1/2+y,z
1/2+x,1/2-y,1/2+z
loop_
_atom_site_type_symbol
_atom_site_label
_atom_site_fract_x
_atom_site_fract_y
_atom_site_fract_z
Si Si1 0.209290 0.072669 0.040217
Si Si2 0.789827 0.025948 0.894665
Si Si3 0.791680 0.180251 0.039929
Si Si4 0.197637 0.067411 0.750000
Si Si5 0.202063 0.777827 0.108564
Si Si6 0.308536 0.827244 0.250000
O O1 0.266117 0.126442 0.057308
O O2 0.000000 0.073240 0.040732
O O3 0.262143 0.029052 0.090515
O O4 0.262454 0.057426 0.961843
O O5 0.726125 0.047385 0.821976
O O6 0.000000 0.027233 0.895023
O O7 0.730898 0.221771 0.092046
O O8 0.000000 0.181509 0.039741
O O9 0.733789 0.194787 0.961344
O O10 0.195532 0.124960 0.750000
O O11 0.000000 0.050490 0.750000
O O12 0.281752 0.796165 0.180308
O O13 0.000000 0.787475 0.113931
O O14 0.500000 0.846724 0.250000
#
# Coordination Sequence:
#
# PCOD9468910 Si02
#       6
#    16  16  16   8  16   8
#     4   8  13  24  43  68  97 127 159 197 239 280
#     4   8  14  24  42  69  98 126 159 198 236 280
#     4   9  17  31  52  76 102 133 168 207 248 290
#     4  10  18  30  49  72  95 121 156 197 243 292
#     4  10  20  34  52  74 100 131 168 207 249 299
#     4  12  24  36  51  72  99 129 162 205 255 302
#
# _framework density 19.297605000000001
#
# number of rings (size 3 to 8) (size 9 to 14) (size 15 to 20)
#    0.000    2.800    0.000    3.900    0.000    4.000 
#    0.000    1.000    0.000    4.800    0.000    4.200 
#    0.000    0.000    0.000    0.000    0.000    0.000 
#
# Total GULP energy -223084.030898 kJ/mol
# GULP energy per Si atom -5577.100772 kJ/mol
# Density = 1.925368 g / cm^3
# Si number density = 19.297605 Si / 1000 Ang^3
#
#
#
# Elastic Constant Matrix: (Units=GPa)
#
#
# Indices 1 2 3 4 5 6 
#
# 1 27.3923 -10.6988 0.0326 0.0000 0.0000 0.0000
# 2 -10.6988 128.6175 57.2624 0.0000 0.0000 0.0000
# 3 0.0326 57.2624 123.3372 0.0000 0.0000 0.0000
# 4 0.0000 0.0000 0.0000 16.8516 0.0000 0.0000
# 5 0.0000 0.0000 0.0000 0.0000 1.8080 0.0000
# 6 0.0000 0.0000 0.0000 0.0000 0.0000 16.2627
#
#
#
# Elastic Compliance Matrix: (Units=1/GPa)
#
#
# Indices 1 2 3 4 5 6 
#
# 1 0.038070 0.003998 -0.001866 0.000000 0.000000 0.000000
# 2 0.003998 0.010221 -0.004746 0.000000 0.000000 0.000000
# 3 -0.001866 -0.004746 0.010312 0.000000 0.000000 0.000000
# 4 0.000000 0.000000 0.000000 0.059342 0.000000 0.000000
# 5 0.000000 0.000000 0.000000 0.000000 0.553111 0.000000
# 6 0.000000 0.000000 0.000000 0.000000 0.000000 0.061490
#
#
# Mechanical properties :
#
#
# Convention : Reuss Voigt Hill
#
# Bulk Modulus (GPa) = 18.73594 41.39327 30.06460
# Shear Modulus (GPa) = 6.61756 22.50118 14.55937
#
# Velocity S-wave (km/s) = 1.85382 3.41839 2.74973
# Velocity P-wave (km/s) = 3.78315 6.08909 5.06899
#
# Compressibility (1/GPa) = 0.05337335
#
# Stress axis : x y z
#
# Youngs Moduli (GPa) = 26.26727 97.84144 96.97524
#
# Poissons Ratio (x) = -0.39113 0.18096
# Poissons Ratio (y) = -0.10501 0.46027
# Poissons Ratio (z) = 0.04902 0.46438
#
# Static dielectric constant tensor:
#      x y z
#    x 1.731220 0.000000 0.000000 
#    y 0.000000 1.657070 0.000000 
#    z 0.000000 0.000000 1.651260 
# 
# From -- ./inp_files/40596.got.cif
#   From: 2010.05.17/outbox.cif.g08.bks.cpg/sg63_21_cif.got.tgz:40596.got - 2010.06.03 15:47:04.
