data_PCOD9468507
_publ_section_title
;
Structure prediction by ZEFSAII (Michael W. Deem and Ramdas Pophale) SiO2 
 PCOD9468507
Probable space group: C M C M
;
_chemical_formula_sum "Si O2"
_cell_formula_units_Z 80
_cell_length_a 20.330034
_cell_length_b 27.198824
_cell_length_c 10.380473
_cell_angle_alpha 90.000000
_cell_angle_beta 90.000000
_cell_angle_gamma 90.000000
_cell_volume 5739.913860
_symmetry_space_group_name_H-M "C M C M"
_symmetry_group_IT_number 63
_symmetry_cell_setting 'orthorhombic'
loop_
_space_group_symop_operation_xyz
x,y,z
-x,-y,1/2+z
x,-y,-z
-x,y,1/2-z
-x,-y,-z
x,y,1/2-z
-x,y,z
x,-y,1/2+z
1/2+x,1/2+y,z
1/2-x,1/2-y,1/2+z
1/2+x,1/2-y,-z
1/2-x,1/2+y,1/2-z
1/2-x,1/2-y,-z
1/2+x,1/2+y,1/2-z
1/2-x,1/2+y,z
1/2+x,1/2-y,1/2+z
loop_
_atom_site_type_symbol
_atom_site_label
_atom_site_fract_x
_atom_site_fract_y
_atom_site_fract_z
Si Si1 0.921799 0.543047 0.399118
Si Si2 0.338530 0.279981 0.250000
Si Si3 0.290352 0.161619 0.750000
Si Si4 0.756009 0.678170 0.250000
Si Si5 0.658791 0.860599 0.524460
Si Si6 0.127243 0.763911 0.750000
Si Si7 0.423491 0.241023 0.475402
O O1 0.905602 0.500000 0.500000
O O2 0.909708 0.528771 0.250000
O O3 0.881278 0.591773 0.432582
O O4 0.000000 0.553239 0.411556
O O5 0.286653 0.324295 0.250000
O O6 0.294269 0.230424 0.250000
O O7 0.383991 0.275194 0.375561
O O8 0.312898 0.135306 0.619511
O O9 0.329484 0.213686 0.750000
O O10 0.782200 0.650386 0.123894
O O11 0.679510 0.691697 0.250000
O O12 0.610784 0.812833 0.529880
O O13 0.085915 0.761506 0.619425
O O14 0.500000 0.237178 0.441789
#
# Coordination Sequence:
#
# PCOD9468507 Si02
#       7
#    16   8   8   8  16   8  16
#     4  10  21  35  48  63  85 112 143 181 224 263
#     4   9  17  28  40  60  83 111 143 180 215 250
#     4   9  18  28  43  61  84 108 142 183 219 250
#     4   9  16  28  45  59  78 108 146 185 217 248
#     4  10  18  30  45  64  81 110 150 188 216 249
#     4   9  17  28  40  58  85 111 141 182 219 252
#     4  10  18  27  41  61  86 115 148 182 214 247
#
# _framework density 13.937492000000001
#
# number of rings (size 3 to 8) (size 9 to 14) (size 15 to 20)
#    0.000    2.400    1.000    2.400    1.400    4.800 
#    0.000    1.000    0.000    0.000    0.000    0.000 
#    0.000    0.000    0.000    0.000    0.000   70.000 
#
# Total GULP energy -222916.696633 kJ/mol
# GULP energy per Si atom -5572.917416 kJ/mol
# Density = 1.390577 g / cm^3
# Si number density = 13.937492 Si / 1000 Ang^3
#
#
#
# Elastic Constant Matrix: (Units=GPa)
#
#
# Indices 1 2 3 4 5 6 
#
# 1 53.5648 20.4475 20.1343 0.0000 0.0000 0.0000
# 2 20.4475 43.6896 25.7887 0.0000 0.0000 0.0000
# 3 20.1343 25.7887 104.4114 0.0000 0.0000 0.0000
# 4 0.0000 0.0000 0.0000 16.5198 0.0000 0.0000
# 5 0.0000 0.0000 0.0000 0.0000 18.1139 0.0000
# 6 0.0000 0.0000 0.0000 0.0000 0.0000 20.1658
#
#
#
# Elastic Compliance Matrix: (Units=1/GPa)
#
#
# Indices 1 2 3 4 5 6 
#
# 1 0.023113 -0.009584 -0.002090 0.000000 0.000000 0.000000
# 2 -0.009584 0.030769 -0.005752 0.000000 0.000000 0.000000
# 3 -0.002090 -0.005752 0.011401 0.000000 0.000000 0.000000
# 4 0.000000 0.000000 0.000000 0.060534 0.000000 0.000000
# 5 0.000000 0.000000 0.000000 0.000000 0.055206 0.000000
# 6 0.000000 0.000000 0.000000 0.000000 0.000000 0.049589
#
#
# Mechanical properties :
#
#
# Convention : Reuss Voigt Hill
#
# Bulk Modulus (GPa) = 32.85934 37.15631 35.00783
# Shear Modulus (GPa) = 18.14180 19.97957 19.06069
#
# Velocity S-wave (km/s) = 3.61176 3.79028 3.70210
# Velocity P-wave (km/s) = 6.40472 6.77290 6.59138
#
# Compressibility (1/GPa) = 0.03043275
#
# Stress axis : x y z
#
# Youngs Moduli (GPa) = 43.26577 32.50014 87.71063
#
# Poissons Ratio (x) = 0.31147 0.18331
# Poissons Ratio (y) = 0.41464 0.50448
# Poissons Ratio (z) = 0.09042 0.18693
#
# Static dielectric constant tensor:
#      x y z
#    x 1.443730 0.000000 0.000000 
#    y 0.000000 1.421360 0.000000 
#    z 0.000000 0.000000 1.481250 
# 
# From -- ./inp_files/8125.got.cif
#   From: 2010.05.17/outbox.cif.g08.bks.cpg/sg63_5_cif.got.tgz:8125.got - 2010.06.03 15:47:04.
