data_PCOD9468146
_publ_section_title
;
Structure prediction by ZEFSAII (Michael W. Deem and Ramdas Pophale) SiO2 
 PCOD9468146
Probable space group: C M C M
;
_chemical_formula_sum "Si O2"
_cell_formula_units_Z 80
_cell_length_a 32.001172
_cell_length_b 16.744045
_cell_length_c 9.797826
_cell_angle_alpha 90.000000
_cell_angle_beta 90.000000
_cell_angle_gamma 90.000000
_cell_volume 5249.959935
_symmetry_space_group_name_H-M "C M C M"
_symmetry_group_IT_number 63
_symmetry_cell_setting 'orthorhombic'
loop_
_space_group_symop_operation_xyz
x,y,z
-x,-y,1/2+z
x,-y,-z
-x,y,1/2-z
-x,-y,-z
x,y,1/2-z
-x,y,z
x,-y,1/2+z
1/2+x,1/2+y,z
1/2-x,1/2-y,1/2+z
1/2+x,1/2-y,-z
1/2-x,1/2+y,1/2-z
1/2-x,1/2-y,-z
1/2+x,1/2+y,1/2-z
1/2-x,1/2+y,z
1/2+x,1/2-y,1/2+z
loop_
_atom_site_type_symbol
_atom_site_label
_atom_site_fract_x
_atom_site_fract_y
_atom_site_fract_z
Si Si1 0.411008 0.143182 0.591491
Si Si2 0.193854 0.075639 0.088580
Si Si3 0.788663 0.628019 0.404900
Si Si4 0.353624 0.000000 0.000000
Si Si5 0.837153 0.249976 0.085331
Si Si6 0.500000 0.082948 0.918267
O O1 0.416436 0.161253 0.750000
O O2 0.381391 0.213374 0.536136
O O3 0.457550 0.128279 0.539062
O O4 0.383888 0.061928 0.577055
O O5 0.189395 0.059253 0.250000
O O6 0.242840 0.094624 0.062987
O O7 0.169332 0.157140 0.056106
O O8 0.181010 0.000000 0.000000
O O9 0.787836 0.659443 0.250000
O O10 0.822589 0.556597 0.414249
O O11 0.802616 0.696024 0.510316
O O12 0.833556 0.260714 0.250000
O O13 0.500000 0.071898 0.750000
O O14 0.500000 0.000000 0.000000
#
# Coordination Sequence:
#
# PCOD9468146 Si02
#       6
#    16  16  16   8  16   8
#     4   9  17  28  44  64  90 121 148 179 217 261
#     4  10  20  33  47  65  88 116 154 194 231 268
#     4  10  19  29  44  66  90 120 156 189 223 262
#     4  10  16  27  42  62  96 122 152 183 214 258
#     4   9  19  33  47  64  89 120 151 188 230 269
#     4  10  18  30  46  68  93 118 148 178 215 262
#
# _framework density 15.238211
#
# number of rings (size 3 to 8) (size 9 to 14) (size 15 to 20)
#    0.000    2.400    2.000    1.200    0.000    2.400 
#    0.000    0.000    0.000    0.000    0.000    0.700 
#    0.000    0.000    0.000    0.000    0.000    0.000 
#
# Total GULP energy -222718.029621 kJ/mol
# GULP energy per Si atom -5567.950741 kJ/mol
# Density = 1.520353 g / cm^3
# Si number density = 15.238211 Si / 1000 Ang^3
#
#
#
# Elastic Constant Matrix: (Units=GPa)
#
#
# Indices 1 2 3 4 5 6 
#
# 1 88.5808 52.5172 14.3652 0.0000 0.0000 0.0000
# 2 52.5172 121.6869 41.5654 0.0000 0.0000 0.0000
# 3 14.3652 41.5654 33.9492 0.0000 0.0000 0.0000
# 4 0.0000 0.0000 0.0000 25.5559 0.0000 0.0000
# 5 0.0000 0.0000 0.0000 0.0000 15.2781 0.0000
# 6 0.0000 0.0000 0.0000 0.0000 0.0000 14.2886
#
#
#
# Elastic Compliance Matrix: (Units=1/GPa)
#
#
# Indices 1 2 3 4 5 6 
#
# 1 0.015321 -0.007559 0.002772 0.000000 0.000000 0.000000
# 2 -0.007559 0.017854 -0.018661 0.000000 0.000000 0.000000
# 3 0.002772 -0.018661 0.051131 0.000000 0.000000 0.000000
# 4 0.000000 0.000000 0.000000 0.039130 0.000000 0.000000
# 5 0.000000 0.000000 0.000000 0.000000 0.065453 0.000000
# 6 0.000000 0.000000 0.000000 0.000000 0.000000 0.069986
#
#
# Mechanical properties :
#
#
# Convention : Reuss Voigt Hill
#
# Bulk Modulus (GPa) = 26.73136 51.23476 38.98306
# Shear Modulus (GPa) = 15.71132 20.07581 17.89356
#
# Velocity S-wave (km/s) = 3.21448 3.63363 3.43046
# Velocity P-wave (km/s) = 5.59978 7.16239 6.42874
#
# Compressibility (1/GPa) = 0.03740924
#
# Stress axis : x y z
#
# Youngs Moduli (GPa) = 65.26912 56.00855 19.55773
#
# Poissons Ratio (x) = 0.42337 -0.05421
# Poissons Ratio (y) = 0.49337 0.36497
# Poissons Ratio (z) = -0.18092 1.04520
#
# Static dielectric constant tensor:
#      x y z
#    x 1.527100 0.000000 0.000000 
#    y 0.000000 1.498020 0.000000 
#    z 0.000000 0.000000 1.517080 
# 
# From -- ./inp_files/14088.got.cif
#   From: 2010.05.17/outbox.cif.g08.bks.cpg/sg63_8_cif.got.tgz:14088.got - 2010.06.03 15:47:04.
