data_PCOD9468904
_publ_section_title
;
Structure prediction by ZEFSAII (Michael W. Deem and Ramdas Pophale) SiO2 
 PCOD9468904
Probable space group: C M C M
;
_chemical_formula_sum "Si O2"
_cell_formula_units_Z 104
_cell_length_a 19.617438
_cell_length_b 31.091327
_cell_length_c 9.396070
_cell_angle_alpha 90.000000
_cell_angle_beta 90.000000
_cell_angle_gamma 90.000000
_cell_volume 5730.965456
_symmetry_space_group_name_H-M "C M C M"
_symmetry_group_IT_number 63
_symmetry_cell_setting 'orthorhombic'
loop_
_space_group_symop_operation_xyz
x,y,z
-x,-y,1/2+z
x,-y,-z
-x,y,1/2-z
-x,-y,-z
x,y,1/2-z
-x,y,z
x,-y,1/2+z
1/2+x,1/2+y,z
1/2-x,1/2-y,1/2+z
1/2+x,1/2-y,-z
1/2-x,1/2+y,1/2-z
1/2-x,1/2-y,-z
1/2+x,1/2+y,1/2-z
1/2-x,1/2+y,z
1/2+x,1/2-y,1/2+z
loop_
_atom_site_type_symbol
_atom_site_label
_atom_site_fract_x
_atom_site_fract_y
_atom_site_fract_z
Si Si1 0.000000 0.454558 0.419396
Si Si2 0.133206 0.603987 0.579421
Si Si3 0.385156 0.458204 0.913034
Si Si4 0.083265 0.209463 0.084980
Si Si5 0.078557 0.695710 0.576919
Si Si6 0.720983 0.958554 0.912096
Si Si7 0.081767 0.873124 0.410901
O O1 0.000000 0.500000 0.500000
O O2 0.933555 0.425322 0.450751
O O3 0.000000 0.462825 0.250000
O O4 0.144583 0.602543 0.750000
O O5 0.119058 0.653149 0.536036
O O6 0.194741 0.583069 0.493991
O O7 0.409849 0.458375 0.750000
O O8 0.302815 0.459952 0.909160
O O9 0.409357 0.500000 0.000000
O O10 0.403997 0.414908 0.995021
O O11 0.103307 0.203003 0.250000
O O12 0.104626 0.257089 0.034218
O O13 0.000000 0.210201 0.083850
O O14 0.107079 0.170129 0.988160
O O15 0.077037 0.696474 0.750000
O O16 0.000000 0.690915 0.529662
O O17 0.695866 0.960053 0.750000
O O18 0.696400 0.000000 0.000000
O O19 0.108504 0.877851 0.250000
O O20 0.000000 0.868987 0.402424
#
# Coordination Sequence:
#
# PCOD9468904 Si02
#       7
#     8  16  16  16  16  16  16
#     4  10  20  30  42  64  96 130 164 204 251 298
#     4  10  18  30  49  71  97 130 166 208 252 296
#     4  10  21  37  56  75  98 129 165 203 240 286
#     4   8  14  26  47  72  98 131 166 199 236 286
#     4   8  13  25  46  71  98 128 166 206 246 293
#     4  10  21  36  52  71  94 125 167 209 247 291
#     4  10  20  33  51  78 109 134 157 191 238 290
#
# _framework density 18.147030000000001
#
# number of rings (size 3 to 8) (size 9 to 14) (size 15 to 20)
#    0.000    2.615    0.769    2.769    0.000    4.923 
#    0.000    0.769    0.000    1.846    0.000    0.000 
#    0.000    0.000    0.000    0.000    0.000    0.000 
#
# Total GULP energy -289934.734886 kJ/mol
# GULP energy per Si atom -5575.667979 kJ/mol
# Density = 1.810573 g / cm^3
# Si number density = 18.147030 Si / 1000 Ang^3
#
#
#
# Elastic Constant Matrix: (Units=GPa)
#
#
# Indices 1 2 3 4 5 6 
#
# 1 8.4463 8.3272 13.6756 0.0000 0.0000 0.0000
# 2 8.3272 184.1741 81.1931 0.0000 0.0000 0.0000
# 3 13.6756 81.1931 104.8957 0.0000 0.0000 0.0000
# 4 0.0000 0.0000 0.0000 28.7424 0.0000 0.0000
# 5 0.0000 0.0000 0.0000 0.0000 19.3834 0.0000
# 6 0.0000 0.0000 0.0000 0.0000 0.0000 -0.2629
#
#
#
# Elastic Compliance Matrix: (Units=1/GPa)
#
#
# Indices 1 2 3 4 5 6 
#
# 1 0.151027 0.002811 -0.021866 0.000000 0.000000 0.000000
# 2 0.002811 0.008294 -0.006787 0.000000 0.000000 0.000000
# 3 -0.021866 -0.006787 0.017637 0.000000 0.000000 0.000000
# 4 0.000000 0.000000 0.000000 0.034792 0.000000 0.000000
# 5 0.000000 0.000000 0.000000 0.000000 0.051590 0.000000
# 6 0.000000 0.000000 0.000000 0.000000 0.000000 -3.804349
#
#
# Mechanical properties :
#
#
# Convention : Reuss Voigt Hill
#
# Bulk Modulus (GPa) = 7.98240 55.98976 31.98608
# Shear Modulus (GPa) = -1.45030 22.52729 10.53850
#
# Velocity S-wave (km/s) = -0.89495 3.52714 2.41245
# Velocity P-wave (km/s) = 1.82767 6.89260 5.04224
#
# Compressibility (1/GPa) = 0.12527558
#
# Stress axis : x y z
#
# Youngs Moduli (GPa) = 6.62135 120.56243 56.69865
#
# Poissons Ratio (x) = -0.33890 1.23975
# Poissons Ratio (y) = -0.01861 0.38480
# Poissons Ratio (z) = 0.14478 0.81822
#
# Static dielectric constant tensor:
#      x y z
#    x 1.632240 0.000000 0.000000 
#    y 0.000000 1.626950 0.000000 
#    z 0.000000 0.000000 1.617300 
# 
# From -- ./inp_files/9151.got.cif
#   From: 2010.05.17/outbox.cif.g08.bks.cpg/sg63_5_cif.got.tgz:9151.got - 2010.06.03 15:47:04.
