data_PCOD9468725
_publ_section_title
;
Structure prediction by ZEFSAII (Michael W. Deem and Ramdas Pophale) SiO2 
 PCOD9468725
Probable space group: C M C M
;
_chemical_formula_sum "Si O2"
_cell_formula_units_Z 96
_cell_length_a 7.780087
_cell_length_b 24.421470
_cell_length_c 27.194388
_cell_angle_alpha 90.000000
_cell_angle_beta 90.000000
_cell_angle_gamma 90.000000
_cell_volume 5166.965300
_symmetry_space_group_name_H-M "C M C M"
_symmetry_group_IT_number 63
_symmetry_cell_setting 'orthorhombic'
loop_
_space_group_symop_operation_xyz
x,y,z
-x,-y,1/2+z
x,-y,-z
-x,y,1/2-z
-x,-y,-z
x,y,1/2-z
-x,y,z
x,-y,1/2+z
1/2+x,1/2+y,z
1/2-x,1/2-y,1/2+z
1/2+x,1/2-y,-z
1/2-x,1/2+y,1/2-z
1/2-x,1/2-y,-z
1/2+x,1/2+y,1/2-z
1/2-x,1/2+y,z
1/2+x,1/2-y,1/2+z
loop_
_atom_site_type_symbol
_atom_site_label
_atom_site_fract_x
_atom_site_fract_y
_atom_site_fract_z
Si Si1 0.291326 0.328564 0.109628
Si Si2 0.207344 0.725285 0.446461
Si Si3 0.304295 0.994011 0.628068
Si Si4 0.203583 0.907074 0.305095
Si Si5 0.796858 0.928901 0.042455
Si Si6 0.291755 0.899045 0.565696
O O1 0.500000 0.326250 0.113204
O O2 0.230171 0.268523 0.094616
O O3 0.226483 0.360082 0.158139
O O4 0.252620 0.369131 0.064224
O O5 0.250000 0.750000 0.500000
O O6 0.270904 0.663506 0.438016
O O7 0.000000 0.723250 0.443713
O O8 0.500000 0.985727 0.643856
O O9 0.222656 0.034318 0.668023
O O10 0.299101 0.028583 0.577246
O O11 0.228710 0.935507 0.611661
O O12 0.275786 0.906696 0.250000
O O13 0.000000 0.897081 0.301643
O O14 0.000000 0.938206 0.050193
O O15 0.757861 0.928455 0.985230
O O16 0.500000 0.898508 0.568211
#
# Coordination Sequence:
#
# PCOD9468725 Si02
#       6
#    16  16  16  16  16  16
#     4   8  15  28  46  69  94 119 152 196 238 275
#     4  10  18  30  46  66  96 132 166 194 227 275
#     4  10  20  32  45  67  98 128 158 194 240 290
#     4   9  18  34  55  75  92 114 152 204 255 295
#     4  10  18  29  46  68  94 127 165 201 234 275
#     4  10  20  30  43  65  98 135 164 191 230 282
#
# _framework density 18.579571999999999
#
# number of rings (size 3 to 8) (size 9 to 14) (size 15 to 20)
#    0.000    2.500    1.667    2.500    0.000    3.667 
#    0.000    0.000    0.000    1.000    0.000    4.667 
#    0.000    0.000    0.000    0.000    0.000    0.000 
#
# Total GULP energy -267531.899155 kJ/mol
# GULP energy per Si atom -5573.581232 kJ/mol
# Density = 1.853728 g / cm^3
# Si number density = 18.579572 Si / 1000 Ang^3
#
#
#
# Elastic Constant Matrix: (Units=GPa)
#
#
# Indices 1 2 3 4 5 6 
#
# 1 25.5552 -2.7856 -2.2167 0.0000 0.0000 0.0000
# 2 -2.7856 94.0068 43.2111 0.0000 0.0000 0.0000
# 3 -2.2167 43.2111 111.9986 0.0000 0.0000 0.0000
# 4 0.0000 0.0000 0.0000 13.0415 0.0000 0.0000
# 5 0.0000 0.0000 0.0000 0.0000 12.9644 0.0000
# 6 0.0000 0.0000 0.0000 0.0000 0.0000 12.1851
#
#
#
# Elastic Compliance Matrix: (Units=1/GPa)
#
#
# Indices 1 2 3 4 5 6 
#
# 1 0.039272 0.000980 0.000399 0.000000 0.000000 0.000000
# 2 0.000980 0.012955 -0.004979 0.000000 0.000000 0.000000
# 3 0.000399 -0.004979 0.010858 0.000000 0.000000 0.000000
# 4 0.000000 0.000000 0.000000 0.076679 0.000000 0.000000
# 5 0.000000 0.000000 0.000000 0.000000 0.077135 0.000000
# 6 0.000000 0.000000 0.000000 0.000000 0.000000 0.082067
#
#
# Mechanical properties :
#
#
# Convention : Reuss Voigt Hill
#
# Bulk Modulus (GPa) = 17.89357 34.21981 26.05669
# Shear Modulus (GPa) = 15.39441 20.52832 17.96136
#
# Velocity S-wave (km/s) = 2.88161 3.32759 3.11260
# Velocity P-wave (km/s) = 4.55228 5.76383 5.19350
#
# Compressibility (1/GPa) = 0.05588599
#
# Stress axis : x y z
#
# Youngs Moduli (GPa) = 25.46314 77.18915 92.10181
#
# Poissons Ratio (x) = -0.07566 -0.03676
# Poissons Ratio (y) = -0.02496 0.45857
# Poissons Ratio (z) = -0.01016 0.38432
#
# Static dielectric constant tensor:
#      x y z
#    x 1.688190 0.000000 0.000000 
#    y 0.000000 1.688810 0.000000 
#    z 0.000000 0.000000 1.627550 
# 
# From -- ./inp_files/67192.got.cif
#   From: 2010.05.17/outbox.cif.g08.bks.cpg/sg63_34_cif.got.tgz:67192.got - 2010.06.03 15:47:04.
