data_PCOD9468638
_publ_section_title
;
Structure prediction by ZEFSAII (Michael W. Deem and Ramdas Pophale) SiO2 
 PCOD9468638
Probable space group: C M C M
;
_chemical_formula_sum "Si O2"
_cell_formula_units_Z 128
_cell_length_a 24.036722
_cell_length_b 12.592008
_cell_length_c 25.205607
_cell_angle_alpha 90.000000
_cell_angle_beta 90.000000
_cell_angle_gamma 90.000000
_cell_volume 7628.996086
_symmetry_space_group_name_H-M "C M C M"
_symmetry_group_IT_number 63
_symmetry_cell_setting 'orthorhombic'
loop_
_space_group_symop_operation_xyz
x,y,z
-x,-y,1/2+z
x,-y,-z
-x,y,1/2-z
-x,-y,-z
x,y,1/2-z
-x,y,z
x,-y,1/2+z
1/2+x,1/2+y,z
1/2-x,1/2-y,1/2+z
1/2+x,1/2-y,-z
1/2-x,1/2+y,1/2-z
1/2-x,1/2-y,-z
1/2+x,1/2+y,1/2-z
1/2-x,1/2+y,z
1/2+x,1/2-y,1/2+z
loop_
_atom_site_type_symbol
_atom_site_label
_atom_site_fract_x
_atom_site_fract_y
_atom_site_fract_z
Si Si1 0.318810 0.099753 0.114808
Si Si2 0.803358 0.996508 0.629150
Si Si3 0.185868 0.723616 0.005941
Si Si4 0.710906 0.716053 0.686806
Si Si5 0.385201 0.584262 0.459901
Si Si6 0.938620 0.252521 0.386966
Si Si7 0.387556 0.061191 0.946305
Si Si8 0.663971 0.287613 0.687976
O O1 0.320620 0.179464 0.064912
O O2 0.318746 0.176460 0.165884
O O3 0.260348 0.036167 0.116517
O O4 0.367408 0.017181 0.100336
O O5 0.807428 0.112952 0.653977
O O6 0.840783 0.976956 0.577309
O O7 0.825415 0.909445 0.671240
O O8 0.250000 0.750000 0.000000
O O9 0.148979 0.825565 0.991790
O O10 0.165355 0.631375 0.965987
O O11 0.703565 0.702887 0.750000
O O12 0.777166 0.730802 0.676019
O O13 0.410905 0.500000 0.500000
O O14 0.427459 0.648443 0.422800
O O15 0.931534 0.355108 0.424373
O O16 0.887437 0.255212 0.345954
O O17 0.000000 0.249269 0.363082
O O18 0.405507 0.000000 0.000000
O O19 0.653042 0.278011 0.750000
#
# Coordination Sequence:
#
# PCOD9468638 Si02
#       8
#    16  16  16  16  16  16  16  16
#     4  10  19  29  47  68 102 134 165 195 235 287
#     4  10  18  28  47  70 102 137 161 190 232 293
#     4  10  18  28  46  72 104 134 164 191 233 289
#     4  10  20  32  48  72 103 138 163 189 240 302
#     4  10  20  30  47  75 104 133 167 198 241 287
#     4  10  21  37  53  70  94 126 168 215 251 281
#     4   9  20  33  48  73  98 129 163 198 237 292
#     4   9  19  34  49  70  97 124 163 207 243 289
#
# _framework density 16.778092000000001
#
# number of rings (size 3 to 8) (size 9 to 14) (size 15 to 20)
#    0.000    2.250    1.250    1.875    5.250    1.250 
#    0.000    0.625    0.000    0.000    0.000    0.875 
#    0.000    4.000    0.000    0.000    0.000    0.000 
#
# Total GULP energy -356811.557234 kJ/mol
# GULP energy per Si atom -5575.180582 kJ/mol
# Density = 1.673990 g / cm^3
# Si number density = 16.778092 Si / 1000 Ang^3
#
#
#
# Elastic Constant Matrix: (Units=GPa)
#
#
# Indices 1 2 3 4 5 6 
#
# 1 28.2800 11.4491 9.3224 0.0000 0.0000 0.0000
# 2 11.4491 84.9301 36.8011 0.0000 0.0000 0.0000
# 3 9.3224 36.8011 56.0673 0.0000 0.0000 0.0000
# 4 0.0000 0.0000 0.0000 24.0608 0.0000 0.0000
# 5 0.0000 0.0000 0.0000 0.0000 10.9099 0.0000
# 6 0.0000 0.0000 0.0000 0.0000 0.0000 4.2102
#
#
#
# Elastic Compliance Matrix: (Units=1/GPa)
#
#
# Indices 1 2 3 4 5 6 
#
# 1 0.038077 -0.003339 -0.004139 0.000000 0.000000 0.000000
# 2 -0.003339 0.016747 -0.010437 0.000000 0.000000 0.000000
# 3 -0.004139 -0.010437 0.025375 0.000000 0.000000 0.000000
# 4 0.000000 0.000000 0.000000 0.041561 0.000000 0.000000
# 5 0.000000 0.000000 0.000000 0.000000 0.091660 0.000000
# 6 0.000000 0.000000 0.000000 0.000000 0.000000 0.237516
#
#
# Mechanical properties :
#
#
# Convention : Reuss Voigt Hill
#
# Bulk Modulus (GPa) = 22.53914 31.60251 27.07082
# Shear Modulus (GPa) = 9.96897 15.28318 12.62607
#
# Velocity S-wave (km/s) = 2.44020 3.02139 2.74621
# Velocity P-wave (km/s) = 4.62626 5.57209 5.12106
#
# Compressibility (1/GPa) = 0.04436727
#
# Stress axis : x y z
#
# Youngs Moduli (GPa) = 26.26251 59.71190 39.40953
#
# Poissons Ratio (x) = 0.19941 0.16312
# Poissons Ratio (y) = 0.08770 0.41132
# Poissons Ratio (z) = 0.10870 0.62322
#
# Static dielectric constant tensor:
#      x y z
#    x 1.544470 0.000000 0.000000 
#    y 0.000000 1.596400 0.000000 
#    z 0.000000 0.000000 1.583220 
# 
# From -- ./inp_files/70804.got.cif
#   From: 2010.05.17/outbox.cif.g08.bks.cpg/sg63_36_cif.got.tgz:70804.got - 2010.06.03 15:47:04.
