data_PCOD9468490
_publ_section_title
;
Structure prediction by ZEFSAII (Michael W. Deem and Ramdas Pophale) SiO2 
 PCOD9468490
Probable space group: C M C M
;
_chemical_formula_sum "Si O2"
_cell_formula_units_Z 80
_cell_length_a 25.870999
_cell_length_b 21.137680
_cell_length_c 8.196171
_cell_angle_alpha 90.000000
_cell_angle_beta 90.000000
_cell_angle_gamma 90.000000
_cell_volume 4482.099865
_symmetry_space_group_name_H-M "C M C M"
_symmetry_group_IT_number 63
_symmetry_cell_setting 'orthorhombic'
loop_
_space_group_symop_operation_xyz
x,y,z
-x,-y,1/2+z
x,-y,-z
-x,y,1/2-z
-x,-y,-z
x,y,1/2-z
-x,y,z
x,-y,1/2+z
1/2+x,1/2+y,z
1/2-x,1/2-y,1/2+z
1/2+x,1/2-y,-z
1/2-x,1/2+y,1/2-z
1/2-x,1/2-y,-z
1/2+x,1/2+y,1/2-z
1/2-x,1/2+y,z
1/2+x,1/2-y,1/2+z
loop_
_atom_site_type_symbol
_atom_site_label
_atom_site_fract_x
_atom_site_fract_y
_atom_site_fract_z
Si Si1 0.776720 0.932458 0.055732
Si Si2 0.888288 0.107804 0.550991
Si Si3 0.500000 0.739386 0.438764
Si Si4 0.500000 0.598399 0.560215
Si Si5 0.892218 0.743257 0.053244
Si Si6 0.784340 0.690651 0.444981
O O1 0.779881 0.931112 0.250000
O O2 0.835677 0.924072 0.991326
O O3 0.741886 0.873770 0.002435
O O4 0.756108 0.000000 0.000000
O O5 0.889935 0.104291 0.750000
O O6 0.884208 0.182480 0.509820
O O7 0.943620 0.081168 0.489307
O O8 0.500000 0.719869 0.250000
O O9 0.500000 0.675310 0.547567
O O10 0.552697 0.775316 0.479532
O O11 0.500000 0.579477 0.750000
O O12 0.895337 0.740173 0.250000
O O13 0.842885 0.703411 0.996862
O O14 0.785583 0.690666 0.250000
O O15 0.750000 0.750000 0.500000
#
# Coordination Sequence:
#
# PCOD9468490 Si02
#       6
#    16  16   8   8  16  16
#     4  11  22  37  52  74 105 141 182 223 271 320
#     4   8  14  28  49  69  94 132 175 213 254 308
#     4  10  18  26  42  75 108 131 163 212 261 299
#     4   8  14  28  47  65  91 133 175 212 259 311
#     4   9  17  32  51  72 101 139 173 205 259 320
#     4  11  21  35  56  81 106 138 178 222 268 317
#
# _framework density 17.848776000000001
#
# number of rings (size 3 to 8) (size 9 to 14) (size 15 to 20)
#    0.000    2.400    2.000    3.300    0.000    1.600 
#    0.000    1.500    0.000    0.000    0.000    0.700 
#    0.000    0.000    0.000    0.000    0.000    0.000 
#
# Total GULP energy -223050.228720 kJ/mol
# GULP energy per Si atom -5576.255718 kJ/mol
# Density = 1.780815 g / cm^3
# Si number density = 17.848776 Si / 1000 Ang^3
#
#
#
# Elastic Constant Matrix: (Units=GPa)
#
#
# Indices 1 2 3 4 5 6 
#
# 1 140.8089 60.4484 15.5129 0.0000 0.0000 0.0000
# 2 60.4484 96.5006 11.8889 0.0000 0.0000 0.0000
# 3 15.5129 11.8889 27.0465 0.0000 0.0000 0.0000
# 4 0.0000 0.0000 0.0000 14.9428 0.0000 0.0000
# 5 0.0000 0.0000 0.0000 0.0000 17.9540 0.0000
# 6 0.0000 0.0000 0.0000 0.0000 0.0000 -13.0069
#
#
#
# Elastic Compliance Matrix: (Units=1/GPa)
#
#
# Indices 1 2 3 4 5 6 
#
# 1 0.009960 -0.005852 -0.003140 0.000000 0.000000 0.000000
# 2 -0.005852 0.014394 -0.002971 0.000000 0.000000 0.000000
# 3 -0.003140 -0.002971 0.040080 0.000000 0.000000 0.000000
# 4 0.000000 0.000000 0.000000 0.066922 0.000000 0.000000
# 5 0.000000 0.000000 0.000000 0.000000 0.055698 0.000000
# 6 0.000000 0.000000 0.000000 0.000000 0.000000 -0.076882
#
#
# Mechanical properties :
#
#
# Convention : Reuss Voigt Hill
#
# Bulk Modulus (GPa) = 24.68623 48.89514 36.79069
# Shear Modulus (GPa) = 33.87491 15.74503 24.80997
#
# Velocity S-wave (km/s) = 4.36120 2.97330 3.73233
# Velocity P-wave (km/s) = 6.26266 6.26426 6.26346
#
# Compressibility (1/GPa) = 0.04050841
#
# Stress axis : x y z
#
# Youngs Moduli (GPa) = 100.40072 69.47115 24.94984
#
# Poissons Ratio (x) = 0.40656 0.07835
# Poissons Ratio (y) = 0.58756 0.07412
# Poissons Ratio (z) = 0.31529 0.20639
#
# Static dielectric constant tensor:
#      x y z
#    x 1.671280 0.000000 0.000000 
#    y 0.000000 1.578210 0.000000 
#    z 0.000000 0.000000 1.664410 
# 
# From -- ./inp_files/10095.got.cif
#   From: 2010.05.17/outbox.cif.g08.bks.cpg/sg63_6_cif.got.tgz:10095.got - 2010.06.03 15:47:04.
