data_PCOD9468852
_publ_section_title
;
Structure prediction by ZEFSAII (Michael W. Deem and Ramdas Pophale) SiO2 
 PCOD9468852
Probable space group: C M C M
;
_chemical_formula_sum "Si O2"
_cell_formula_units_Z 64
_cell_length_a 23.359386
_cell_length_b 7.006465
_cell_length_c 16.243448
_cell_angle_alpha 90.000000
_cell_angle_beta 90.000000
_cell_angle_gamma 90.000000
_cell_volume 2658.511863
_symmetry_space_group_name_H-M "C M C M"
_symmetry_group_IT_number 63
_symmetry_cell_setting 'orthorhombic'
loop_
_space_group_symop_operation_xyz
x,y,z
-x,-y,1/2+z
x,-y,-z
-x,y,1/2-z
-x,-y,-z
x,y,1/2-z
-x,y,z
x,-y,1/2+z
1/2+x,1/2+y,z
1/2-x,1/2-y,1/2+z
1/2+x,1/2-y,-z
1/2-x,1/2+y,1/2-z
1/2-x,1/2-y,-z
1/2+x,1/2+y,1/2-z
1/2-x,1/2+y,z
1/2+x,1/2-y,1/2+z
loop_
_atom_site_type_symbol
_atom_site_label
_atom_site_fract_x
_atom_site_fract_y
_atom_site_fract_z
Si Si1 0.000000 0.669978 0.339265
Si Si2 0.917848 0.307787 0.157557
Si Si3 0.193748 0.506147 0.344250
Si Si4 0.500000 0.768362 0.016523
Si Si5 0.297084 0.350500 0.058364
O O1 0.053475 0.520495 0.339593
O O2 0.000000 0.769281 0.250000
O O3 0.000000 0.797015 0.421749
O O4 0.929025 0.226692 0.250000
O O5 0.850212 0.332342 0.147354
O O6 0.946850 0.221257 0.076575
O O7 0.194690 0.565780 0.250000
O O8 0.257208 0.451763 0.373429
O O9 0.170277 0.678308 0.399969
O O10 0.500000 0.000000 0.000000
O O11 0.328259 0.500000 0.000000
O O12 0.250000 0.250000 0.000000
#
# Coordination Sequence:
#
# PCOD9468852 Si02
#       5
#     8  16  16   8  16
#     4   8  14  23  34  57  86 110 142 180 218 268
#     4   8  14  23  38  60  85 110 142 183 226 269
#     4  10  18  30  47  66  89 119 152 189 229 270
#     4   8  13  21  36  57  83 112 137 176 227 270
#     4   9  19  31  43  62  89 119 152 188 223 267
#
# _framework density 24.073619999999998
#
# number of rings (size 3 to 8) (size 9 to 14) (size 15 to 20)
#    0.000    3.500    0.000    1.875    0.000    9.000 
#    0.000    0.000    0.000    0.000    0.000    5.250 
#    0.000   24.000    0.000  232.000    0.000   28.750 
#
# Total GULP energy -178362.109950 kJ/mol
# GULP energy per Si atom -5573.815936 kJ/mol
# Density = 2.401883 g / cm^3
# Si number density = 24.073620 Si / 1000 Ang^3
#
#
#
# Elastic Constant Matrix: (Units=GPa)
#
#
# Indices 1 2 3 4 5 6 
#
# 1 60.6706 2.2722 17.0204 0.0000 0.0000 0.0000
# 2 2.2722 44.8000 21.8021 0.0000 0.0000 0.0000
# 3 17.0204 21.8021 211.9283 0.0000 0.0000 0.0000
# 4 0.0000 0.0000 0.0000 7.2330 0.0000 0.0000
# 5 0.0000 0.0000 0.0000 0.0000 20.0451 0.0000
# 6 0.0000 0.0000 0.0000 0.0000 0.0000 10.9466
#
#
#
# Elastic Compliance Matrix: (Units=1/GPa)
#
#
# Indices 1 2 3 4 5 6 
#
# 1 0.016864 -0.000207 -0.001333 0.000000 0.000000 0.000000
# 2 -0.000207 0.023500 -0.002401 0.000000 0.000000 0.000000
# 3 -0.001333 -0.002401 0.005073 0.000000 0.000000 0.000000
# 4 0.000000 0.000000 0.000000 0.138254 0.000000 0.000000
# 5 0.000000 0.000000 0.000000 0.000000 0.049888 0.000000
# 6 0.000000 0.000000 0.000000 0.000000 0.000000 0.091352
#
#
# Mechanical properties :
#
#
# Convention : Reuss Voigt Hill
#
# Bulk Modulus (GPa) = 26.62706 44.39871 35.51288
# Shear Modulus (GPa) = 14.47884 26.06522 20.27203
#
# Velocity S-wave (km/s) = 2.45509 3.29406 2.90502
# Velocity P-wave (km/s) = 4.37279 5.74027 5.10255
#
# Compressibility (1/GPa) = 0.03755578
#
# Stress axis : x y z
#
# Youngs Moduli (GPa) = 59.29726 42.55255 197.13564
#
# Poissons Ratio (x) = 0.00879 0.26281
# Poissons Ratio (y) = 0.01225 0.47332
# Poissons Ratio (z) = 0.07905 0.10217
#
# Static dielectric constant tensor:
#      x y z
#    x 2.736110 0.000000 0.000000 
#    y 0.000000 1.980100 0.000000 
#    z 0.000000 0.000000 1.967080 
# 
# From -- ./inp_files/47746.got.cif
#   From: 2010.05.17/outbox.cif.g08.bks.cpg/sg63_24_cif.got.tgz:47746.got - 2010.06.03 15:47:04.
