data_PCOD9468344
_publ_section_title
;
Structure prediction by ZEFSAII (Michael W. Deem and Ramdas Pophale) SiO2 
 PCOD9468344
Probable space group: C M C M
;
_chemical_formula_sum "Si O2"
_cell_formula_units_Z 96
_cell_length_a 12.404423
_cell_length_b 14.500107
_cell_length_c 26.020886
_cell_angle_alpha 90.000000
_cell_angle_beta 90.000000
_cell_angle_gamma 90.000000
_cell_volume 4680.258650
_symmetry_space_group_name_H-M "C M C M"
_symmetry_group_IT_number 63
_symmetry_cell_setting 'orthorhombic'
loop_
_space_group_symop_operation_xyz
x,y,z
-x,-y,1/2+z
x,-y,-z
-x,y,1/2-z
-x,-y,-z
x,y,1/2-z
-x,y,z
x,-y,1/2+z
1/2+x,1/2+y,z
1/2-x,1/2-y,1/2+z
1/2+x,1/2-y,-z
1/2-x,1/2+y,1/2-z
1/2-x,1/2-y,-z
1/2+x,1/2+y,1/2-z
1/2-x,1/2+y,z
1/2+x,1/2-y,1/2+z
loop_
_atom_site_type_symbol
_atom_site_label
_atom_site_fract_x
_atom_site_fract_y
_atom_site_fract_z
Si Si1 0.231196 0.361841 0.156539
Si Si2 0.500000 0.864252 0.188312
Si Si3 0.000000 0.857954 0.810251
Si Si4 0.376808 0.385843 0.555965
Si Si5 0.622835 0.140673 0.250000
Si Si6 0.772949 0.144365 0.156596
Si Si7 0.379016 0.607194 0.939385
Si Si8 0.622704 0.632953 0.750000
O O1 0.110669 0.400016 0.163303
O O2 0.222345 0.253033 0.167880
O O3 0.287555 0.371237 0.101750
O O4 0.311467 0.398218 0.200155
O O5 0.500000 0.878704 0.250000
O O6 0.500000 0.752794 0.180236
O O7 0.110692 0.898657 0.830710
O O8 0.000000 0.868691 0.750000
O O9 0.500000 0.352188 0.570269
O O10 0.279182 0.361703 0.594714
O O11 0.382840 0.496503 0.556485
O O12 0.358188 0.356398 0.497018
O O13 0.500000 0.107758 0.250000
O O14 0.684700 0.110858 0.197635
O O15 0.619240 0.253777 0.250000
O O16 0.500000 0.638294 0.922948
O O17 0.500000 0.600628 0.750000
#
# Coordination Sequence:
#
# PCOD9468344 Si02
#       8
#    16   8   8  16   8  16  16   8
#     4  10  18  29  50  75 102 131 163 203 239 289
#     4   9  16  28  46  71 100 132 165 193 236 290
#     4   9  14  24  46  77  98 120 161 207 248 280
#     4   9  18  34  55  74  95 126 164 211 258 291
#     4   9  18  29  44  71 105 137 159 185 242 303
#     4  10  17  28  52  76  99 128 163 206 241 284
#     4   9  19  35  53  73  98 128 162 206 259 299
#     4   9  16  27  46  73 103 131 157 197 252 297
#
# _framework density 20.511686999999998
#
# number of rings (size 3 to 8) (size 9 to 14) (size 15 to 20)
#    0.000    2.667    2.500    1.500    0.000    1.333 
#    0.000    0.833    3.667    3.000    0.000    0.000 
#    0.000    0.000    0.000    0.000    0.000    0.000 
#
# Total GULP energy -267382.573017 kJ/mol
# GULP energy per Si atom -5570.470271 kJ/mol
# Density = 2.046500 g / cm^3
# Si number density = 20.511687 Si / 1000 Ang^3
#
#
#
# Elastic Constant Matrix: (Units=GPa)
#
#
# Indices 1 2 3 4 5 6 
#
# 1 185.4895 8.0283 114.0301 0.0000 0.0000 0.0000
# 2 8.0283 35.0599 -7.1431 0.0000 0.0000 0.0000
# 3 114.0301 -7.1431 142.7150 0.0000 0.0000 0.0000
# 4 0.0000 0.0000 0.0000 45.9852 0.0000 0.0000
# 5 0.0000 0.0000 0.0000 0.0000 28.7191 0.0000
# 6 0.0000 0.0000 0.0000 0.0000 0.0000 0.5436
#
#
#
# Elastic Compliance Matrix: (Units=1/GPa)
#
#
# Indices 1 2 3 4 5 6 
#
# 1 0.011243 -0.004450 -0.009206 0.000000 0.000000 0.000000
# 2 -0.004450 0.030578 0.005086 0.000000 0.000000 0.000000
# 3 -0.009206 0.005086 0.014617 0.000000 0.000000 0.000000
# 4 0.000000 0.000000 0.000000 0.021746 0.000000 0.000000
# 5 0.000000 0.000000 0.000000 0.000000 0.034820 0.000000
# 6 0.000000 0.000000 0.000000 0.000000 0.000000 1.839526
#
#
# Mechanical properties :
#
#
# Convention : Reuss Voigt Hill
#
# Bulk Modulus (GPa) = 25.44645 65.89943 45.67294
# Shear Modulus (GPa) = 2.52172 31.60618 17.06395
#
# Velocity S-wave (km/s) = 1.10999 3.92967 2.88742
# Velocity P-wave (km/s) = 3.75174 7.26548 5.78199
#
# Compressibility (1/GPa) = 0.03929822
#
# Stress axis : x y z
#
# Youngs Moduli (GPa) = 88.94197 32.70329 68.41187
#
# Poissons Ratio (x) = 0.14554 0.62981
# Poissons Ratio (y) = 0.39581 -0.34796
# Poissons Ratio (z) = 0.81882 -0.16634
#
# Static dielectric constant tensor:
#      x y z
#    x 1.764840 0.000000 0.000000 
#    y 0.000000 1.749870 0.000000 
#    z 0.000000 0.000000 1.813370 
# 
# From -- ./inp_files/61737.got.cif
#   From: 2010.05.17/outbox.cif.g08.bks.cpg/sg63_31_cif.got.tgz:61737.got - 2010.06.03 15:47:04.
