data_PCOD9468991
_publ_section_title
;
Structure prediction by ZEFSAII (Michael W. Deem and Ramdas Pophale) SiO2 
 PCOD9468991
Probable space group: C M C M
;
_chemical_formula_sum "Si O2"
_cell_formula_units_Z 80
_cell_length_a 8.654611
_cell_length_b 26.390202
_cell_length_c 20.430390
_cell_angle_alpha 90.000000
_cell_angle_beta 90.000000
_cell_angle_gamma 90.000000
_cell_volume 4666.238406
_symmetry_space_group_name_H-M "C M C M"
_symmetry_group_IT_number 63
_symmetry_cell_setting 'orthorhombic'
loop_
_space_group_symop_operation_xyz
x,y,z
-x,-y,1/2+z
x,-y,-z
-x,y,1/2-z
-x,-y,-z
x,y,1/2-z
-x,y,z
x,-y,1/2+z
1/2+x,1/2+y,z
1/2-x,1/2-y,1/2+z
1/2+x,1/2-y,-z
1/2-x,1/2+y,1/2-z
1/2-x,1/2-y,-z
1/2+x,1/2+y,1/2-z
1/2-x,1/2+y,z
1/2+x,1/2-y,1/2+z
loop_
_atom_site_type_symbol
_atom_site_label
_atom_site_fract_x
_atom_site_fract_y
_atom_site_fract_z
Si Si1 0.814838 0.977496 0.070949
Si Si2 0.185983 0.151251 0.400446
Si Si3 0.185811 0.739842 0.572504
Si Si4 0.185853 0.630771 0.546632
Si Si5 0.185050 0.443047 0.674688
O O1 0.748294 0.921060 0.076359
O O2 0.000000 0.975788 0.072411
O O3 0.754473 0.014571 0.127015
O O4 0.767542 0.000000 0.000000
O O5 0.231965 0.210013 0.387411
O O6 0.245409 0.136871 0.473330
O O7 0.255918 0.111274 0.350463
O O8 0.000000 0.147252 0.400103
O O9 0.250000 0.750000 0.500000
O O10 0.230678 0.681798 0.586795
O O11 0.000000 0.740645 0.570090
O O12 0.000000 0.628719 0.541778
O O13 0.230067 0.451294 0.750000
O O14 0.000000 0.444467 0.669861
#
# Coordination Sequence:
#
# PCOD9468991 Si02
#       5
#    16  16  16  16  16
#     4  11  22  35  54  80 108 140 179 224 270 321
#     4  10  18  31  51  76 107 138 172 214 262 315
#     4   8  16  28  45  73 105 135 167 205 253 306
#     4  10  18  30  51  78 108 140 174 217 264 309
#     4  11  24  39  55  77 105 140 181 223 270 324
#
# _framework density 17.144431000000001
#
# number of rings (size 3 to 8) (size 9 to 14) (size 15 to 20)
#    0.000    2.000    2.000    2.400    0.000    4.000 
#    0.000    0.000    0.000    1.200    0.000    2.800 
#    0.000    0.000    0.000    0.000    0.000    0.000 
#
# Total GULP energy -223002.690377 kJ/mol
# GULP energy per Si atom -5575.067259 kJ/mol
# Density = 1.710541 g / cm^3
# Si number density = 17.144431 Si / 1000 Ang^3
#
#
#
# Elastic Constant Matrix: (Units=GPa)
#
#
# Indices 1 2 3 4 5 6 
#
# 1 34.8109 37.0250 26.0407 0.0000 0.0000 0.0000
# 2 37.0250 189.2253 63.0166 0.0000 0.0000 0.0000
# 3 26.0407 63.0166 80.8278 0.0000 0.0000 0.0000
# 4 0.0000 0.0000 0.0000 18.2850 0.0000 0.0000
# 5 0.0000 0.0000 0.0000 0.0000 17.1020 0.0000
# 6 0.0000 0.0000 0.0000 0.0000 0.0000 28.0071
#
#
#
# Elastic Compliance Matrix: (Units=1/GPa)
#
#
# Indices 1 2 3 4 5 6 
#
# 1 0.040941 -0.004887 -0.009380 0.000000 0.000000 0.000000
# 2 -0.004887 0.007721 -0.004445 0.000000 0.000000 0.000000
# 3 -0.009380 -0.004445 0.018860 0.000000 0.000000 0.000000
# 4 0.000000 0.000000 0.000000 0.054690 0.000000 0.000000
# 5 0.000000 0.000000 0.000000 0.000000 0.058473 0.000000
# 6 0.000000 0.000000 0.000000 0.000000 0.000000 0.035705
#
#
# Mechanical properties :
#
#
# Convention : Reuss Voigt Hill
#
# Bulk Modulus (GPa) = 33.22546 61.89208 47.55877
# Shear Modulus (GPa) = 18.95031 24.59759 21.77395
#
# Velocity S-wave (km/s) = 3.32826 3.79189 3.56761
# Velocity P-wave (km/s) = 5.84736 7.43976 6.69110
#
# Compressibility (1/GPa) = 0.03009740
#
# Stress axis : x y z
#
# Youngs Moduli (GPa) = 24.42518 129.51081 53.02272
#
# Poissons Ratio (x) = 0.63292 0.49736
# Poissons Ratio (y) = 0.11937 0.23571
# Poissons Ratio (z) = 0.22911 0.57573
#
# Static dielectric constant tensor:
#      x y z
#    x 1.584940 0.000000 0.000000 
#    y 0.000000 1.627490 0.000000 
#    z 0.000000 0.000000 1.544150 
# 
# From -- ./inp_files/40449.got.cif
#   From: 2010.05.17/outbox.cif.g08.bks.cpg/sg63_21_cif.got.tgz:40449.got - 2010.06.03 15:47:04.
