data_PCOD9468052
_publ_section_title
;
Structure prediction by ZEFSAII (Michael W. Deem and Ramdas Pophale) SiO2 
 PCOD9468052
Probable space group: P N M A
;
_chemical_formula_sum "Si O2"
_cell_formula_units_Z 56
_cell_length_a 9.000000
_cell_length_b 21.000000
_cell_length_c 15.000000
_cell_angle_alpha 90.000000
_cell_angle_beta 90.000000
_cell_angle_gamma 90.000000
_cell_volume 2835.000000
_symmetry_space_group_name_H-M "P N M A"
_symmetry_group_IT_number 62
_symmetry_cell_setting 'orthorhombic'
loop_
_space_group_symop_operation_xyz
x,y,z
1/2-x,-y,1/2+z
1/2+x,1/2-y,1/2-z
-x,1/2+y,-z
-x,-y,-z
1/2+x,y,1/2-z
1/2-x,1/2+y,1/2+z
x,1/2-y,z
loop_
_atom_site_type_symbol
_atom_site_label
_atom_site_fract_x
_atom_site_fract_y
_atom_site_fract_z
Si Si1 0.480321 0.250000 0.282997
Si Si2 0.836118 0.750000 0.620765
Si Si3 0.909760 0.447566 0.297202
Si Si4 0.194199 0.673499 0.287028
Si Si5 0.041908 0.371500 0.460773
Si Si6 0.095681 0.115174 0.150743
Si Si7 0.211240 0.174993 0.984084
Si Si8 0.601697 0.403277 0.841156
O O1 0.510165 0.250000 0.177648
O O2 0.311250 0.250000 0.317839
O O3 0.562391 0.313779 0.314448
O O4 0.846301 0.814547 0.564699
O O5 0.014937 0.417519 0.375606
O O6 0.751051 0.414022 0.314684
O O7 0.899874 0.523726 0.307485
O O8 0.971602 0.427484 0.200006
O O9 0.173491 0.750000 0.273584
O O10 0.293985 0.665920 0.377265
O O11 0.266259 0.637504 0.203299
O O12 0.042886 0.636691 0.310521
O O13 0.881173 0.340460 0.485739
O O14 0.099147 0.404560 0.551071
O O15 0.111459 0.127596 0.044439
O O16 0.179525 0.250000 0.001730
#
# Coordination Sequence:
#
# PCOD9468052 Si02
#       8
#     4   4   8   8   8   8   8   8
#     4  12  24  38  62  95 133 162 206 261 311 369
#     4  12  24  38  62  99 125 166 208 261 319 375
#     4  11  23  39  62  92 127 174 210 250 323 391
#     4  10  22  41  65  89 115 161 216 272 328 368
#     4  10  22  37  65  89 124 163 214 254 312 380
#     4  11  22  38  62  89 127 169 204 254 313 385
#     4   9  18  36  60  85 119 162 202 256 322 376
#     4  11  23  44  64  90 126 165 215 271 313 384
#
# _framework density 19.753086
#
# number of rings (size 3 to 8) (size 9 to 14) (size 15 to 20)
#    0.000    1.429    2.857    2.571    4.000    0.000 
#    2.571    0.714    0.000    0.000    0.000    0.000 
#    0.000    0.000    0.000    0.000    0.000    0.000 
#
# Total GULP energy -312690.199893 kJ/mol
# GULP energy per Si atom -5583.753570 kJ/mol
# Density = 1.970813 g / cm^3
# Si number density = 19.753086 Si / 1000 Ang^3
#
#
#
# Elastic Constant Matrix: (Units=GPa)
#
#
# Indices 1 2 3 4 5 6 
#
# 1 34.0781 32.8994 1.3131 0.0000 0.0000 0.0000
# 2 32.8994 138.8146 14.9717 0.0000 0.0000 0.0000
# 3 1.3131 14.9717 38.3559 0.0000 0.0000 0.0000
# 4 0.0000 0.0000 0.0000 28.7445 0.0000 0.0000
# 5 0.0000 0.0000 0.0000 0.0000 23.9949 0.0000
# 6 0.0000 0.0000 0.0000 0.0000 0.0000 24.7540
#
#
#
# Elastic Compliance Matrix: (Units=1/GPa)
#
#
# Indices 1 2 3 4 5 6 
#
# 1 0.038248 -0.009316 0.002327 0.000000 0.000000 0.000000
# 2 -0.009316 0.009789 -0.003502 0.000000 0.000000 0.000000
# 3 0.002327 -0.003502 0.027359 0.000000 0.000000 0.000000
# 4 0.000000 0.000000 0.000000 0.034789 0.000000 0.000000
# 5 0.000000 0.000000 0.000000 0.000000 0.041676 0.000000
# 6 0.000000 0.000000 0.000000 0.000000 0.000000 0.040397
#
#
# Mechanical properties :
#
#
# Convention : Reuss Voigt Hill
#
# Bulk Modulus (GPa) = 18.37751 34.40190 26.38971
# Shear Modulus (GPa) = 21.60950 26.30299 23.95624
#
# Velocity S-wave (km/s) = 3.31113 3.65305 3.48628
# Velocity P-wave (km/s) = 4.89304 5.93690 5.44007
#
# Compressibility (1/GPa) = 0.05441434
#
# Stress axis : x y z
#
# Youngs Moduli (GPa) = 26.14489 102.15038 36.55108
#
# Poissons Ratio (x) = 0.95163 -0.08505
# Poissons Ratio (y) = 0.24356 0.12801
# Poissons Ratio (z) = -0.06084 0.35776
#
# Static dielectric constant tensor:
#      x y z
#    x 1.711430 0.000000 0.000000 
#    y 0.000000 1.666440 0.000000 
#    z 0.000000 0.000000 1.727530 
# 
# From -- ./inp_files/17255.got.cif
#   From: 2010.05.17/outbox.ucp.g08.bks.cvg/sg62_9_cif.got.tgz:17255.got - 2010.06.11 16:29:25.
