data_PCOD9468586
_publ_section_title
;
Structure prediction by ZEFSAII (Michael W. Deem and Ramdas Pophale) SiO2 
 PCOD9468586
Probable space group: C M C M
;
_chemical_formula_sum "Si O2"
_cell_formula_units_Z 96
_cell_length_a 23.448643
_cell_length_b 27.442695
_cell_length_c 8.596582
_cell_angle_alpha 90.000000
_cell_angle_beta 90.000000
_cell_angle_gamma 90.000000
_cell_volume 5531.848577
_symmetry_space_group_name_H-M "C M C M"
_symmetry_group_IT_number 63
_symmetry_cell_setting 'orthorhombic'
loop_
_space_group_symop_operation_xyz
x,y,z
-x,-y,1/2+z
x,-y,-z
-x,y,1/2-z
-x,-y,-z
x,y,1/2-z
-x,y,z
x,-y,1/2+z
1/2+x,1/2+y,z
1/2-x,1/2-y,1/2+z
1/2+x,1/2-y,-z
1/2-x,1/2+y,1/2-z
1/2-x,1/2-y,-z
1/2+x,1/2+y,1/2-z
1/2-x,1/2+y,z
1/2+x,1/2-y,1/2+z
loop_
_atom_site_type_symbol
_atom_site_label
_atom_site_fract_x
_atom_site_fract_y
_atom_site_fract_z
Si Si1 0.932470 0.720992 0.936786
Si Si2 0.237346 0.198811 0.574420
Si Si3 0.666630 0.616198 0.069255
Si Si4 0.433965 0.327370 0.435965
Si Si5 0.770300 0.554407 0.562493
Si Si6 0.147621 0.636703 0.925768
O O1 0.922663 0.723363 0.750000
O O2 0.899402 0.672956 0.997728
O O3 0.000000 0.715769 0.964616
O O4 0.914708 0.773394 0.006366
O O5 0.212966 0.201507 0.750000
O O6 0.250000 0.250000 0.500000
O O7 0.198474 0.167293 0.461506
O O8 0.296965 0.170828 0.586615
O O9 0.662138 0.604571 0.250000
O O10 0.604965 0.628569 0.998292
O O11 0.709712 0.577846 0.989311
O O12 0.431896 0.327463 0.250000
O O13 0.500000 0.332709 0.486574
O O14 0.774814 0.500000 0.500000
O O15 0.771847 0.555822 0.750000
O O16 0.823724 0.587887 0.504248
O O17 0.127444 0.624301 0.750000
#
# Coordination Sequence:
#
# PCOD9468586 Si02
#       6
#    16  16  16  16  16  16
#     4   9  16  28  48  73 101 135 173 207 241 288
#     4  10  18  28  43  66  98 132 165 203 247 296
#     4  11  21  33  50  72  98 129 166 205 249 301
#     4  10  20  33  49  72 104 139 171 204 243 288
#     4  10  20  36  55  74  97 124 161 209 261 312
#     4   8  16  29  45  67  95 126 160 201 245 291
#
# _framework density 17.354054000000001
#
# number of rings (size 3 to 8) (size 9 to 14) (size 15 to 20)
#    0.000    2.333    0.000    5.000    0.000    2.333 
#    0.000    4.167    0.000    1.000    0.000    0.000 
#    0.000    0.000    0.000    0.000    0.000    0.667 
#
# Total GULP energy -267314.066394 kJ/mol
# GULP energy per Si atom -5569.043050 kJ/mol
# Density = 1.731456 g / cm^3
# Si number density = 17.354054 Si / 1000 Ang^3
#
#
#
# Elastic Constant Matrix: (Units=GPa)
#
#
# Indices 1 2 3 4 5 6 
#
# 1 51.4614 6.2162 12.7239 0.0000 0.0000 0.0000
# 2 6.2162 66.5448 17.8801 0.0000 0.0000 0.0000
# 3 12.7239 17.8801 46.8142 0.0000 0.0000 0.0000
# 4 0.0000 0.0000 0.0000 19.1192 0.0000 0.0000
# 5 0.0000 0.0000 0.0000 0.0000 17.6449 0.0000
# 6 0.0000 0.0000 0.0000 0.0000 0.0000 25.1479
#
#
#
# Elastic Compliance Matrix: (Units=1/GPa)
#
#
# Indices 1 2 3 4 5 6 
#
# 1 0.020845 -0.000474 -0.005485 0.000000 0.000000 0.000000
# 2 -0.000474 0.016757 -0.006271 0.000000 0.000000 0.000000
# 3 -0.005485 -0.006271 0.025247 0.000000 0.000000 0.000000
# 4 0.000000 0.000000 0.000000 0.052303 0.000000 0.000000
# 5 0.000000 0.000000 0.000000 0.000000 0.056674 0.000000
# 6 0.000000 0.000000 0.000000 0.000000 0.000000 0.039765
#
#
# Mechanical properties :
#
#
# Convention : Reuss Voigt Hill
#
# Bulk Modulus (GPa) = 26.04856 26.49564 26.27210
# Shear Modulus (GPa) = 20.09266 20.91574 20.50420
#
# Velocity S-wave (km/s) = 3.40635 3.47542 3.44106
# Velocity P-wave (km/s) = 5.52391 5.60407 5.56413
#
# Compressibility (1/GPa) = 0.03838984
#
# Stress axis : x y z
#
# Youngs Moduli (GPa) = 47.97226 59.67741 39.60857
#
# Poissons Ratio (x) = 0.02826 0.21725
# Poissons Ratio (y) = 0.02272 0.24840
# Poissons Ratio (z) = 0.26312 0.37426
#
# Static dielectric constant tensor:
#      x y z
#    x 1.623880 0.000000 0.000000 
#    y 0.000000 1.540130 0.000000 
#    z 0.000000 0.000000 1.610620 
# 
# From -- ./inp_files/10705.got.cif
#   From: 2010.05.17/outbox.cif.g08.bks.cpg/sg63_6_cif.got.tgz:10705.got - 2010.06.03 15:47:04.
