data_PCOD9468592
_publ_section_title
;
Structure prediction by ZEFSAII (Michael W. Deem and Ramdas Pophale) SiO2 
 PCOD9468592
Probable space group: C M C M
;
_chemical_formula_sum "Si O2"
_cell_formula_units_Z 80
_cell_length_a 7.378882
_cell_length_b 20.958481
_cell_length_c 26.125577
_cell_angle_alpha 90.000000
_cell_angle_beta 90.000000
_cell_angle_gamma 90.000000
_cell_volume 4040.324616
_symmetry_space_group_name_H-M "C M C M"
_symmetry_group_IT_number 63
_symmetry_cell_setting 'orthorhombic'
loop_
_space_group_symop_operation_xyz
x,y,z
-x,-y,1/2+z
x,-y,-z
-x,y,1/2-z
-x,-y,-z
x,y,1/2-z
-x,y,z
x,-y,1/2+z
1/2+x,1/2+y,z
1/2-x,1/2-y,1/2+z
1/2+x,1/2-y,-z
1/2-x,1/2+y,1/2-z
1/2-x,1/2-y,-z
1/2+x,1/2+y,1/2-z
1/2-x,1/2+y,z
1/2+x,1/2-y,1/2+z
loop_
_atom_site_type_symbol
_atom_site_label
_atom_site_fract_x
_atom_site_fract_y
_atom_site_fract_z
Si Si1 0.783974 0.812105 0.534247
Si Si2 0.220124 0.244026 0.139408
Si Si3 0.787392 0.895571 0.138370
Si Si4 0.777859 0.935181 0.028059
Si Si5 0.208060 0.234788 0.250000
Si Si6 0.278633 0.385365 0.250000
O O1 0.750000 0.750000 0.500000
O O2 0.715573 0.796400 0.591020
O O3 0.716034 0.874363 0.504983
O O4 0.000000 0.820103 0.538853
O O5 0.270417 0.318599 0.132894
O O6 0.286701 0.218702 0.194458
O O7 0.000000 0.243035 0.140645
O O8 0.714307 0.927326 0.086721
O O9 0.717361 0.912950 0.195219
O O10 0.000000 0.910859 0.139607
O O11 0.000000 0.933751 0.029353
O O12 0.724485 0.000000 0.000000
O O13 0.213727 0.312069 0.250000
O O14 0.000000 0.212598 0.250000
O O15 0.500000 0.383976 0.250000
#
# Coordination Sequence:
#
# PCOD9468592 Si02
#       6
#    16  16  16  16   8   8
#     4  10  18  28  44  64  84 109 141 175 209 247
#     4   9  16  25  40  61  84 107 134 170 209 250
#     4   9  15  25  41  60  82 107 136 171 206 245
#     4   9  17  28  42  60  84 114 143 169 204 252
#     4   8  14  24  36  55  83 109 129 159 208 254
#     4   8  14  22  36  59  81 101 131 171 208 236
#
# _framework density 19.80039
#
# number of rings (size 3 to 8) (size 9 to 14) (size 15 to 20)
#    0.000    3.000    2.000    0.000    0.000    0.000 
#    0.000    0.000    0.000    3.600    0.000    8.400 
#    0.000    0.000    0.000   29.400    0.000   20.400 
#
# Total GULP energy -222860.678870 kJ/mol
# GULP energy per Si atom -5571.516972 kJ/mol
# Density = 1.975532 g / cm^3
# Si number density = 19.800390 Si / 1000 Ang^3
#
#
#
# Elastic Constant Matrix: (Units=GPa)
#
#
# Indices 1 2 3 4 5 6 
#
# 1 70.8929 -3.9297 6.9021 0.0000 0.0000 0.0000
# 2 -3.9297 90.9351 82.2798 0.0000 0.0000 0.0000
# 3 6.9021 82.2798 271.9105 0.0000 0.0000 0.0000
# 4 0.0000 0.0000 0.0000 23.3542 0.0000 0.0000
# 5 0.0000 0.0000 0.0000 0.0000 2.6928 0.0000
# 6 0.0000 0.0000 0.0000 0.0000 0.0000 9.4458
#
#
#
# Elastic Compliance Matrix: (Units=1/GPa)
#
#
# Indices 1 2 3 4 5 6 
#
# 1 0.014251 0.001299 -0.000755 0.000000 0.000000 0.000000
# 2 0.001299 0.015261 -0.004651 0.000000 0.000000 0.000000
# 3 -0.000755 -0.004651 0.005104 0.000000 0.000000 0.000000
# 4 0.000000 0.000000 0.000000 0.042819 0.000000 0.000000
# 5 0.000000 0.000000 0.000000 0.000000 0.371359 0.000000
# 6 0.000000 0.000000 0.000000 0.000000 0.000000 0.105867
#
#
# Mechanical properties :
#
#
# Convention : Reuss Voigt Hill
#
# Bulk Modulus (GPa) = 37.87474 67.13809 52.50642
# Shear Modulus (GPa) = 8.74620 30.33097 19.53859
#
# Velocity S-wave (km/s) = 2.10399 3.91812 3.14471
# Velocity P-wave (km/s) = 5.00721 7.37902 6.30564
#
# Compressibility (1/GPa) = 0.02640282
#
# Stress axis : x y z
#
# Youngs Moduli (GPa) = 70.16921 65.52513 195.91582
#
# Poissons Ratio (x) = -0.08510 0.14787
# Poissons Ratio (y) = -0.09113 0.91121
# Poissons Ratio (z) = 0.05296 0.30476
#
# Static dielectric constant tensor:
#      x y z
#    x 1.795870 0.000000 0.000000 
#    y 0.000000 1.619460 0.000000 
#    z 0.000000 0.000000 1.770250 
# 
# From -- ./inp_files/61389.got.cif
#   From: 2010.05.17/outbox.cif.g08.bks.cpg/sg63_31_cif.got.tgz:61389.got - 2010.06.03 15:47:04.
