data_PCOD9468901
_publ_section_title
;
Structure prediction by ZEFSAII (Michael W. Deem and Ramdas Pophale) SiO2 
 PCOD9468901
Probable space group: C M C M
;
_chemical_formula_sum "Si O2"
_cell_formula_units_Z 112
_cell_length_a 21.598379
_cell_length_b 12.869676
_cell_length_c 25.295256
_cell_angle_alpha 90.000000
_cell_angle_beta 90.000000
_cell_angle_gamma 90.000000
_cell_volume 7031.174076
_symmetry_space_group_name_H-M "C M C M"
_symmetry_group_IT_number 63
_symmetry_cell_setting 'orthorhombic'
loop_
_space_group_symop_operation_xyz
x,y,z
-x,-y,1/2+z
x,-y,-z
-x,y,1/2-z
-x,-y,-z
x,y,1/2-z
-x,y,z
x,-y,1/2+z
1/2+x,1/2+y,z
1/2-x,1/2-y,1/2+z
1/2+x,1/2-y,-z
1/2-x,1/2+y,1/2-z
1/2-x,1/2-y,-z
1/2+x,1/2+y,1/2-z
1/2-x,1/2+y,z
1/2+x,1/2-y,1/2+z
loop_
_atom_site_type_symbol
_atom_site_label
_atom_site_fract_x
_atom_site_fract_y
_atom_site_fract_z
Si Si1 0.257907 0.635079 0.624012
Si Si2 0.330139 0.988355 0.191065
Si Si3 0.926655 0.378665 0.988223
Si Si4 0.364592 0.242834 0.583160
Si Si5 0.207087 0.944350 0.944510
Si Si6 0.172746 0.341906 0.901095
Si Si7 0.926355 0.309549 0.309361
O O1 0.225309 0.592616 0.677149
O O2 0.197763 0.673221 0.590307
O O3 0.290809 0.536126 0.598257
O O4 0.303863 0.732706 0.622853
O O5 0.321996 0.030342 0.250000
O O6 0.393110 0.921643 0.188711
O O7 0.332129 0.075704 0.146384
O O8 0.906474 0.312789 0.039485
O O9 0.000000 0.370359 0.979431
O O10 0.911965 0.500000 0.000000
O O11 0.887866 0.340191 0.937487
O O12 0.343869 0.356785 0.565337
O O13 0.397206 0.248578 0.640439
O O14 0.272570 0.884768 0.939069
O O15 0.200375 0.000000 0.000000
O O16 0.912867 0.267050 0.250000
O O17 0.000000 0.317025 0.314984
#
# Coordination Sequence:
#
# PCOD9468901 Si02
#       7
#    16  16  16  16  16  16  16
#     4   9  18  31  48  70  96 125 157 195 240 288
#     4   9  18  31  48  73 100 123 156 200 242 289
#     4  11  21  31  47  71 100 131 162 202 248 295
#     4  10  19  31  49  73  99 127 161 202 246 290
#     4  10  18  30  49  70  95 127 161 195 234 286
#     4  10  19  31  48  71  99 131 160 193 243 296
#     4   9  17  31  51  72  95 124 159 201 246 290
#
# _framework density 15.929061000000001
#
# number of rings (size 3 to 8) (size 9 to 14) (size 15 to 20)
#    0.000    2.286    0.000    5.143    0.000    4.571 
#    0.000    7.143    0.000    7.714    0.000    0.000 
#    0.000    2.286    0.000    0.000    0.000    0.000 
#
# Total GULP energy -312029.840491 kJ/mol
# GULP energy per Si atom -5571.961437 kJ/mol
# Density = 1.589281 g / cm^3
# Si number density = 15.929061 Si / 1000 Ang^3
#
#
#
# Elastic Constant Matrix: (Units=GPa)
#
#
# Indices 1 2 3 4 5 6 
#
# 1 68.6942 33.7989 44.8943 0.0000 0.0000 0.0000
# 2 33.7989 75.9411 35.8495 0.0000 0.0000 0.0000
# 3 44.8943 35.8495 110.5461 0.0000 0.0000 0.0000
# 4 0.0000 0.0000 0.0000 5.4152 0.0000 0.0000
# 5 0.0000 0.0000 0.0000 0.0000 11.4405 0.0000
# 6 0.0000 0.0000 0.0000 0.0000 0.0000 -0.1553
#
#
#
# Elastic Compliance Matrix: (Units=1/GPa)
#
#
# Indices 1 2 3 4 5 6 
#
# 1 0.022368 -0.006691 -0.006914 0.000000 0.000000 0.000000
# 2 -0.006691 0.017550 -0.002974 0.000000 0.000000 0.000000
# 3 -0.006914 -0.002974 0.012818 0.000000 0.000000 0.000000
# 4 0.000000 0.000000 0.000000 0.184664 0.000000 0.000000
# 5 0.000000 0.000000 0.000000 0.000000 0.087409 0.000000
# 6 0.000000 0.000000 0.000000 0.000000 0.000000 -6.440051
#
#
# Mechanical properties :
#
#
# Convention : Reuss Voigt Hill
#
# Bulk Modulus (GPa) = 51.07819 53.80743 52.44281
# Shear Modulus (GPa) = -0.82297 12.71600 5.94652
#
# Velocity S-wave (km/s) = -0.71956 2.82847 1.93423
# Velocity P-wave (km/s) = 5.60761 6.67231 6.16299
#
# Compressibility (1/GPa) = 0.01957783
#
# Stress axis : x y z
#
# Youngs Moduli (GPa) = 44.70636 56.97961 78.01344
#
# Poissons Ratio (x) = 0.38128 0.53939
# Poissons Ratio (y) = 0.29915 0.23201
# Poissons Ratio (z) = 0.30910 0.16945
#
# Static dielectric constant tensor:
#      x y z
#    x 1.527310 0.000000 0.000000 
#    y 0.000000 1.517680 0.000000 
#    z 0.000000 0.000000 1.548740 
# 
# From -- ./inp_files/64640.got.cif
#   From: 2010.05.17/outbox.cif.g08.bks.cpg/sg63_33_cif.got.tgz:64640.got - 2010.06.03 15:47:04.
