data_PCOD9468145
_publ_section_title
;
Structure prediction by ZEFSAII (Michael W. Deem and Ramdas Pophale) SiO2 
 PCOD9468145
Probable space group: C M C M
;
_chemical_formula_sum "Si O2"
_cell_formula_units_Z 128
_cell_length_a 18.723941
_cell_length_b 19.001826
_cell_length_c 23.359744
_cell_angle_alpha 90.000000
_cell_angle_beta 90.000000
_cell_angle_gamma 90.000000
_cell_volume 8311.141568
_symmetry_space_group_name_H-M "C M C M"
_symmetry_group_IT_number 63
_symmetry_cell_setting 'orthorhombic'
loop_
_space_group_symop_operation_xyz
x,y,z
-x,-y,1/2+z
x,-y,-z
-x,y,1/2-z
-x,-y,-z
x,y,1/2-z
-x,y,z
x,-y,1/2+z
1/2+x,1/2+y,z
1/2-x,1/2-y,1/2+z
1/2+x,1/2-y,-z
1/2-x,1/2+y,1/2-z
1/2-x,1/2-y,-z
1/2+x,1/2+y,1/2-z
1/2-x,1/2+y,z
1/2+x,1/2-y,1/2+z
loop_
_atom_site_type_symbol
_atom_site_label
_atom_site_fract_x
_atom_site_fract_y
_atom_site_fract_z
Si Si1 0.916275 0.495965 0.181587
Si Si2 0.277174 0.508459 0.430815
Si Si3 0.237134 0.246159 0.903070
Si Si4 0.682023 0.111821 0.614805
Si Si5 0.081361 0.649990 0.991130
Si Si6 0.145017 0.200475 0.492134
Si Si7 0.577889 0.443042 0.550220
Si Si8 0.342482 0.883588 0.609312
O O1 0.911962 0.498467 0.250000
O O2 0.869147 0.430386 0.158214
O O3 0.883812 0.567875 0.154794
O O4 0.000000 0.488645 0.165166
O O5 0.275815 0.500000 0.500000
O O6 0.247243 0.438951 0.401527
O O7 0.356860 0.528801 0.412012
O O8 0.223326 0.569790 0.413218
O O9 0.283865 0.187764 0.869590
O O10 0.293279 0.285540 0.945117
O O11 0.190447 0.307481 0.873140
O O12 0.184279 0.204812 0.946625
O O13 0.635063 0.120950 0.556942
O O14 0.091213 0.734086 0.988766
O O15 0.000000 0.628773 0.980495
O O16 0.107188 0.627655 0.054031
O O17 0.105348 0.128806 0.478333
O O18 0.571297 0.500000 0.500000
O O19 0.500000 0.433874 0.577298
#
# Coordination Sequence:
#
# PCOD9468145 Si02
#       8
#    16  16  16  16  16  16  16  16
#     4  10  22  38  52  69  97 129 160 202 256 298
#     4  10  16  27  41  63  92 125 160 192 227 275
#     4   9  16  28  45  70  90 124 159 192 229 277
#     4  10  19  30  50  71  97 129 160 195 236 285
#     4  10  18  27  44  74 101 125 158 192 230 282
#     4   9  16  26  40  60 100 130 150 181 231 280
#     4  10  18  24  35  54  85 129 165 185 214 267
#     4  10  18  30  50  70  96 129 160 195 237 286
#
# _framework density 15.401013000000001
#
# number of rings (size 3 to 8) (size 9 to 14) (size 15 to 20)
#    0.000    2.250    2.500    3.375    0.000    0.000 
#    0.000    2.500    0.000    0.750    0.000    0.000 
#    0.000    8.000    0.000    0.000    0.000    0.625 
#
# Total GULP energy -356332.449163 kJ/mol
# GULP energy per Si atom -5567.694518 kJ/mol
# Density = 1.536596 g / cm^3
# Si number density = 15.401013 Si / 1000 Ang^3
#
#
#
# Elastic Constant Matrix: (Units=GPa)
#
#
# Indices 1 2 3 4 5 6 
#
# 1 107.9615 45.2630 21.2054 0.0000 0.0000 0.0000
# 2 45.2630 105.7491 28.4706 0.0000 0.0000 0.0000
# 3 21.2054 28.4706 39.8290 0.0000 0.0000 0.0000
# 4 0.0000 0.0000 0.0000 8.4490 0.0000 0.0000
# 5 0.0000 0.0000 0.0000 0.0000 43.2942 0.0000
# 6 0.0000 0.0000 0.0000 0.0000 0.0000 -558.5830
#
#
#
# Elastic Compliance Matrix: (Units=1/GPa)
#
#
# Indices 1 2 3 4 5 6 
#
# 1 0.011620 -0.004096 -0.003258 0.000000 0.000000 0.000000
# 2 -0.004096 0.013154 -0.007222 0.000000 0.000000 0.000000
# 3 -0.003258 -0.007222 0.032004 0.000000 0.000000 0.000000
# 4 0.000000 0.000000 0.000000 0.118357 0.000000 0.000000
# 5 0.000000 0.000000 0.000000 0.000000 0.023098 0.000000
# 6 0.000000 0.000000 0.000000 0.000000 0.000000 -0.001790
#
#
# Mechanical properties :
#
#
# Convention : Reuss Voigt Hill
#
# Bulk Modulus (GPa) = 36.19882 49.26861 42.73372
# Shear Modulus (GPa) = 21.29435 -90.79456 -34.75011
#
# Velocity S-wave (km/s) = 3.72245 -7.68646 -4.75526
# Velocity P-wave (km/s) = 6.48311 6.83488 1.53050
#
# Compressibility (1/GPa) = 0.02762521
#
# Stress axis : x y z
#
# Youngs Moduli (GPa) = 86.05882 76.02262 31.24571
#
# Poissons Ratio (x) = 0.31141 0.10181
# Poissons Ratio (y) = 0.35253 0.22565
# Poissons Ratio (z) = 0.28042 0.54902
#
# Static dielectric constant tensor:
#      x y z
#    x 1.547510 0.000000 0.000000 
#    y 0.000000 1.554410 0.000000 
#    z 0.000000 0.000000 1.476190 
# 
# From -- ./inp_files/64080.got.cif
#   From: 2010.05.17/outbox.cif.g08.bks.cpg/sg63_33_cif.got.tgz:64080.got - 2010.06.03 15:47:04.
