data_PCOD9468252
_publ_section_title
;
Structure prediction by ZEFSAII (Michael W. Deem and Ramdas Pophale) SiO2 
 PCOD9468252
Probable space group: C M C M
;
_chemical_formula_sum "Si O2"
_cell_formula_units_Z 96
_cell_length_a 29.819949
_cell_length_b 27.061774
_cell_length_c 8.788607
_cell_angle_alpha 90.000000
_cell_angle_beta 90.000000
_cell_angle_gamma 90.000000
_cell_volume 7092.236409
_symmetry_space_group_name_H-M "C M C M"
_symmetry_group_IT_number 63
_symmetry_cell_setting 'orthorhombic'
loop_
_space_group_symop_operation_xyz
x,y,z
-x,-y,1/2+z
x,-y,-z
-x,y,1/2-z
-x,-y,-z
x,y,1/2-z
-x,y,z
x,-y,1/2+z
1/2+x,1/2+y,z
1/2-x,1/2-y,1/2+z
1/2+x,1/2-y,-z
1/2-x,1/2+y,1/2-z
1/2-x,1/2-y,-z
1/2+x,1/2+y,1/2-z
1/2-x,1/2+y,z
1/2+x,1/2-y,1/2+z
loop_
_atom_site_type_symbol
_atom_site_label
_atom_site_fract_x
_atom_site_fract_y
_atom_site_fract_z
Si Si1 0.224449 0.297336 0.567305
Si Si2 0.192292 0.854918 0.933010
Si Si3 0.140320 0.052867 0.569113
Si Si4 0.051082 0.904275 0.567469
Si Si5 0.358864 0.259359 0.432243
Si Si6 0.449428 0.287042 0.567490
O O1 0.226644 0.294921 0.750000
O O2 0.250000 0.250000 0.500000
O O3 0.255761 0.343519 0.523587
O O4 0.172710 0.287469 0.525311
O O5 0.188277 0.857185 0.750000
O O6 0.172039 0.904015 0.004634
O O7 0.163530 0.808010 0.992217
O O8 0.142632 0.051627 0.750000
O O9 0.089770 0.066325 0.516869
O O10 0.152525 0.000000 0.500000
O O11 0.056411 0.910015 0.750000
O O12 0.055986 0.845679 0.533683
O O13 0.000000 0.918677 0.527932
O O14 0.357759 0.265275 0.250000
O O15 0.409618 0.257515 0.488977
O O16 0.445993 0.282250 0.750000
O O17 0.500000 0.272951 0.521905
#
# Coordination Sequence:
#
# PCOD9468252 Si02
#       6
#    16  16  16  16  16  16
#     4   8  16  27  41  61  83 104 126 155 195 238
#     4  10  18  31  46  59  80 106 129 161 202 242
#     4  12  24  35  47  62  78 100 131 169 210 253
#     4   9  18  33  49  61  76 100 131 168 210 252
#     4  10  17  26  42  65  85 103 131 164 197 237
#     4   9  17  28  42  59  81 110 138 164 201 244
#
# _framework density 13.535928
#
# number of rings (size 3 to 8) (size 9 to 14) (size 15 to 20)
#    0.000    2.333    1.667    3.500    0.000    2.333 
#    0.000    1.667    0.000    0.000    0.000    0.000 
#    0.000    0.000    0.000    0.000    0.000    0.833 
#
# Total GULP energy -267428.280791 kJ/mol
# GULP energy per Si atom -5571.422516 kJ/mol
# Density = 1.350512 g / cm^3
# Si number density = 13.535928 Si / 1000 Ang^3
#
#
#
# Elastic Constant Matrix: (Units=GPa)
#
#
# Indices 1 2 3 4 5 6 
#
# 1 105.4397 55.1168 39.0115 0.0000 0.0000 0.0000
# 2 55.1168 55.3106 28.7928 0.0000 0.0000 0.0000
# 3 39.0115 28.7928 45.3579 0.0000 0.0000 0.0000
# 4 0.0000 0.0000 0.0000 14.6478 0.0000 0.0000
# 5 0.0000 0.0000 0.0000 0.0000 19.1979 0.0000
# 6 0.0000 0.0000 0.0000 0.0000 0.0000 14.3742
#
#
#
# Elastic Compliance Matrix: (Units=1/GPa)
#
#
# Indices 1 2 3 4 5 6 
#
# 1 0.021272 -0.017435 -0.007228 0.000000 0.000000 0.000000
# 2 -0.017435 0.041293 -0.011217 0.000000 0.000000 0.000000
# 3 -0.007228 -0.011217 0.035384 0.000000 0.000000 0.000000
# 4 0.000000 0.000000 0.000000 0.068270 0.000000 0.000000
# 5 0.000000 0.000000 0.000000 0.000000 0.052089 0.000000
# 6 0.000000 0.000000 0.000000 0.000000 0.000000 0.069569
#
#
# Mechanical properties :
#
#
# Convention : Reuss Voigt Hill
#
# Bulk Modulus (GPa) = 38.18395 50.21670 44.20032
# Shear Modulus (GPa) = 13.57343 15.18978 14.38161
#
# Velocity S-wave (km/s) = 3.17009 3.35353 3.26310
# Velocity P-wave (km/s) = 6.45522 7.22318 6.84997
#
# Compressibility (1/GPa) = 0.02618902
#
# Stress axis : x y z
#
# Youngs Moduli (GPa) = 47.00933 24.21738 28.26126
#
# Poissons Ratio (x) = 0.42223 0.20428
# Poissons Ratio (y) = 0.81961 0.31700
# Poissons Ratio (z) = 0.33980 0.27164
#
# Static dielectric constant tensor:
#      x y z
#    x 1.480250 0.000000 0.000000 
#    y 0.000000 1.418800 0.000000 
#    z 0.000000 0.000000 1.451980 
# 
# From -- ./inp_files/12971.got.cif
#   From: 2010.05.17/outbox.cif.g08.bks.cpg/sg63_7_cif.got.tgz:12971.got - 2010.06.03 15:47:04.
