data_PCOD9468175
_publ_section_title
;
Structure prediction by ZEFSAII (Michael W. Deem and Ramdas Pophale) SiO2 
 PCOD9468175
Probable space group: C M C M
;
_chemical_formula_sum "Si O2"
_cell_formula_units_Z 72
_cell_length_a 24.802003
_cell_length_b 8.732936
_cell_length_c 15.093799
_cell_angle_alpha 90.000000
_cell_angle_beta 90.000000
_cell_angle_gamma 90.000000
_cell_volume 3269.230902
_symmetry_space_group_name_H-M "C M C M"
_symmetry_group_IT_number 63
_symmetry_cell_setting 'orthorhombic'
loop_
_space_group_symop_operation_xyz
x,y,z
-x,-y,1/2+z
x,-y,-z
-x,y,1/2-z
-x,-y,-z
x,y,1/2-z
-x,y,z
x,-y,1/2+z
1/2+x,1/2+y,z
1/2-x,1/2-y,1/2+z
1/2+x,1/2-y,-z
1/2-x,1/2+y,1/2-z
1/2-x,1/2-y,-z
1/2+x,1/2+y,1/2-z
1/2-x,1/2+y,z
1/2+x,1/2-y,1/2+z
loop_
_atom_site_type_symbol
_atom_site_label
_atom_site_fract_x
_atom_site_fract_y
_atom_site_fract_z
Si Si1 0.881680 0.321575 0.425711
Si Si2 0.340796 0.840822 0.893860
Si Si3 0.000000 0.949103 0.750000
Si Si4 0.667360 0.706807 0.250000
Si Si5 0.500000 0.204515 0.904002
Si Si6 0.265450 0.023288 0.250000
Si Si7 0.590956 0.697830 0.750000
Si Si8 0.000000 0.453879 0.750000
O O1 0.839330 0.289292 0.504408
O O2 0.874104 0.499472 0.399624
O O3 0.868186 0.227541 0.337624
O O4 0.943413 0.296329 0.455535
O O5 0.288854 0.891413 0.837577
O O6 0.372324 0.717626 0.836155
O O7 0.000000 0.847225 0.662322
O O8 0.052882 0.053305 0.750000
O O9 0.702116 0.552636 0.250000
O O10 0.709574 0.852524 0.250000
O O11 0.500000 0.060202 0.836862
O O12 0.551708 0.845479 0.750000
#
# Coordination Sequence:
#
# PCOD9468175 Si02
#       8
#    16  16   4   8   8   8   8   4
#     4  10  20  35  62  89 117 143 199 239 282 332
#     4   9  19  36  59  89 110 146 193 249 277 335
#     4  10  24  32  52  76 122 162 192 224 284 334
#     4  10  20  39  59  86 114 150 187 244 284 344
#     4  11  20  35  54  88 115 159 184 229 280 349
#     4   9  20  38  61  83 115 147 192 235 299 331
#     4  10  18  36  52  77 113 153 188 233 274 333
#     4  10  16  28  58  78 100 144 200 220 260 322
#
# _framework density 22.023527999999999
#
# number of rings (size 3 to 8) (size 9 to 14) (size 15 to 20)
#    0.000    2.222    2.222    2.000    0.000    4.444 
#    8.000    2.222    0.000    0.000    0.000    0.000 
#    0.000    0.000    0.000    0.000    0.000    0.000 
#
# Total GULP energy -201096.968720 kJ/mol
# GULP energy per Si atom -5586.026909 kJ/mol
# Density = 2.197340 g / cm^3
# Si number density = 22.023528 Si / 1000 Ang^3
#
#
#
# Elastic Constant Matrix: (Units=GPa)
#
#
# Indices 1 2 3 4 5 6 
#
# 1 64.7302 17.7974 18.5859 0.0000 0.0000 0.0000
# 2 17.7974 63.3527 12.9542 0.0000 0.0000 0.0000
# 3 18.5859 12.9542 115.4451 0.0000 0.0000 0.0000
# 4 0.0000 0.0000 0.0000 9.4680 0.0000 0.0000
# 5 0.0000 0.0000 0.0000 0.0000 10.6125 0.0000
# 6 0.0000 0.0000 0.0000 0.0000 0.0000 32.6103
#
#
#
# Elastic Compliance Matrix: (Units=1/GPa)
#
#
# Indices 1 2 3 4 5 6 
#
# 1 0.017316 -0.004395 -0.002295 0.000000 0.000000 0.000000
# 2 -0.004395 0.017271 -0.001230 0.000000 0.000000 0.000000
# 3 -0.002295 -0.001230 0.009170 0.000000 0.000000 0.000000
# 4 0.000000 0.000000 0.000000 0.105619 0.000000 0.000000
# 5 0.000000 0.000000 0.000000 0.000000 0.094229 0.000000
# 6 0.000000 0.000000 0.000000 0.000000 0.000000 0.030665
#
#
# Mechanical properties :
#
#
# Convention : Reuss Voigt Hill
#
# Bulk Modulus (GPa) = 35.82162 38.02254 36.92208
# Shear Modulus (GPa) = 16.69920 23.48419 20.09170
#
# Velocity S-wave (km/s) = 2.75661 3.26900 3.02368
# Velocity P-wave (km/s) = 5.14124 5.61698 5.38437
#
# Compressibility (1/GPa) = 0.02791610
#
# Stress axis : x y z
#
# Youngs Moduli (GPa) = 57.74988 57.90052 109.05608
#
# Poissons Ratio (x) = 0.25449 0.25024
# Poissons Ratio (y) = 0.25383 0.13418
# Poissons Ratio (z) = 0.13251 0.07124
#
# Static dielectric constant tensor:
#      x y z
#    x 1.808460 0.000000 0.000000 
#    y 0.000000 1.798850 0.000000 
#    z 0.000000 0.000000 1.833700 
# 
# From -- ./inp_files/37640.got.cif
#   From: 2010.05.17/outbox.cif.g08.bks.cpg/sg63_19_cif.got.tgz:37640.got - 2010.06.03 15:47:04.
