data_PCOD9468993
_publ_section_title
;
Structure prediction by ZEFSAII (Michael W. Deem and Ramdas Pophale) SiO2 
 PCOD9468993
Probable space group: C M C M
;
_chemical_formula_sum "Si O2"
_cell_formula_units_Z 112
_cell_length_a 27.927802
_cell_length_b 11.736931
_cell_length_c 14.008803
_cell_angle_alpha 90.000000
_cell_angle_beta 90.000000
_cell_angle_gamma 90.000000
_cell_volume 4591.899097
_symmetry_space_group_name_H-M "C M C M"
_symmetry_group_IT_number 63
_symmetry_cell_setting 'orthorhombic'
loop_
_space_group_symop_operation_xyz
x,y,z
-x,-y,1/2+z
x,-y,-z
-x,y,1/2-z
-x,-y,-z
x,y,1/2-z
-x,y,z
x,-y,1/2+z
1/2+x,1/2+y,z
1/2-x,1/2-y,1/2+z
1/2+x,1/2-y,-z
1/2-x,1/2+y,1/2-z
1/2-x,1/2-y,-z
1/2+x,1/2+y,1/2-z
1/2-x,1/2+y,z
1/2+x,1/2-y,1/2+z
loop_
_atom_site_type_symbol
_atom_site_label
_atom_site_fract_x
_atom_site_fract_y
_atom_site_fract_z
Si Si1 0.260855 0.984707 0.394414
Si Si2 0.447411 0.251389 0.633772
Si Si3 0.447423 0.485188 0.366086
Si Si4 0.368668 0.080461 0.634140
Si Si5 0.275831 0.756417 0.601907
Si Si6 0.880948 0.200259 0.865100
Si Si7 0.447557 0.101561 0.134983
O O1 0.316150 0.945423 0.402527
O O2 0.236849 0.868719 0.352433
O O3 0.239466 0.000000 0.500000
O O4 0.261849 0.117067 0.356251
O O5 0.447374 0.242808 0.750000
O O6 0.500000 0.204308 0.604614
O O7 0.445876 0.382972 0.607956
O O8 0.398735 0.190528 0.602709
O O9 0.447686 0.477728 0.250000
O O10 0.500000 0.440471 0.396692
O O11 0.398734 0.423397 0.395749
O O12 0.363681 0.082781 0.750000
O O13 0.405303 0.981470 0.606747
O O14 0.250000 0.750000 0.500000
O O15 0.333058 0.752024 0.592281
O O16 0.873184 0.204574 0.750000
O O17 0.928287 0.273737 0.885553
O O18 0.450317 0.090341 0.250000
O O19 0.500000 0.078327 0.096849
#
# Coordination Sequence:
#
# PCOD9468993 Si02
#       7
#    16  16  16  16  16  16  16
#     4  10  22  40  58  75 102 138 188 235 287 336
#     4   8  14  25  43  72 112 151 180 206 249 319
#     4   8  14  25  43  74 118 155 176 206 260 326
#     4  10  18  30  51  79 108 139 178 221 267 319
#     4  10  22  40  58  76 100 141 188 233 282 337
#     4  10  18  30  51  80 111 138 176 226 272 320
#     4   9  16  26  46  78 112 139 163 200 258 322
#
# _framework density 24.390778999999998
#
# number of rings (size 3 to 8) (size 9 to 14) (size 15 to 20)
#    0.000    2.714    1.429    1.714    0.000    5.143 
#    0.000    0.000    0.000    1.714    0.000    0.000 
#    0.000   15.429    0.000    0.000    0.000    0.571 
#
# Total GULP energy -312367.698088 kJ/mol
# GULP energy per Si atom -5577.994609 kJ/mol
# Density = 2.433526 g / cm^3
# Si number density = 24.390779 Si / 1000 Ang^3
#
#
#
# Elastic Constant Matrix: (Units=GPa)
#
#
# Indices 1 2 3 4 5 6 
#
# 1 100.5461 44.3310 -0.8229 0.0000 0.0000 0.0000
# 2 44.3310 151.5186 4.5255 0.0000 0.0000 0.0000
# 3 -0.8229 4.5255 95.3976 0.0000 0.0000 0.0000
# 4 0.0000 0.0000 0.0000 2.6275 0.0000 0.0000
# 5 0.0000 0.0000 0.0000 0.0000 20.7037 0.0000
# 6 0.0000 0.0000 0.0000 0.0000 0.0000 29.3022
#
#
#
# Elastic Compliance Matrix: (Units=1/GPa)
#
#
# Indices 1 2 3 4 5 6 
#
# 1 0.011425 -0.003350 0.000257 0.000000 0.000000 0.000000
# 2 -0.003350 0.007592 -0.000389 0.000000 0.000000 0.000000
# 3 0.000257 -0.000389 0.010503 0.000000 0.000000 0.000000
# 4 0.000000 0.000000 0.000000 0.380592 0.000000 0.000000
# 5 0.000000 0.000000 0.000000 0.000000 0.048301 0.000000
# 6 0.000000 0.000000 0.000000 0.000000 0.000000 0.034127
#
#
# Mechanical properties :
#
#
# Convention : Reuss Voigt Hill
#
# Bulk Modulus (GPa) = 44.33421 49.28106 46.80763
# Shear Modulus (GPa) = 9.86151 30.48860 20.17505
#
# Velocity S-wave (km/s) = 2.01293 3.53938 2.87916
# Velocity P-wave (km/s) = 4.85990 6.07878 5.50319
#
# Compressibility (1/GPa) = 0.02255595
#
# Stress axis : x y z
#
# Youngs Moduli (GPa) = 87.52744 131.72248 95.20980
#
# Poissons Ratio (x) = 0.44132 -0.02452
# Poissons Ratio (y) = 0.29325 0.03704
# Poissons Ratio (z) = -0.02254 0.05125
#
# Static dielectric constant tensor:
#      x y z
#    x 1.799180 0.000000 0.000000 
#    y 0.000000 2.026740 0.000000 
#    z 0.000000 0.000000 1.985460 
# 
# From -- ./inp_files/57585.got.cif
#   From: 2010.05.17/outbox.cif.g08.bks.cpg/sg63_29_cif.got.tgz:57585.got - 2010.06.03 15:47:04.
