data_PCOD9468185
_publ_section_title
;
Structure prediction by ZEFSAII (Michael W. Deem and Ramdas Pophale) SiO2 
 PCOD9468185
Probable space group: C M C M
;
_chemical_formula_sum "Si O2"
_cell_formula_units_Z 120
_cell_length_a 23.983171
_cell_length_b 13.889954
_cell_length_c 23.299627
_cell_angle_alpha 90.000000
_cell_angle_beta 90.000000
_cell_angle_gamma 90.000000
_cell_volume 7761.691552
_symmetry_space_group_name_H-M "C M C M"
_symmetry_group_IT_number 63
_symmetry_cell_setting 'orthorhombic'
loop_
_space_group_symop_operation_xyz
x,y,z
-x,-y,1/2+z
x,-y,-z
-x,y,1/2-z
-x,-y,-z
x,y,1/2-z
-x,y,z
x,-y,1/2+z
1/2+x,1/2+y,z
1/2-x,1/2-y,1/2+z
1/2+x,1/2-y,-z
1/2-x,1/2+y,1/2-z
1/2-x,1/2-y,-z
1/2+x,1/2+y,1/2-z
1/2-x,1/2+y,z
1/2+x,1/2-y,1/2+z
loop_
_atom_site_type_symbol
_atom_site_label
_atom_site_fract_x
_atom_site_fract_y
_atom_site_fract_z
Si Si1 0.434414 0.567438 0.180983
Si Si2 0.269963 0.951285 0.875931
Si Si3 0.663539 0.689309 0.129354
Si Si4 0.232726 0.000000 0.000000
Si Si5 0.261406 0.845096 0.317497
Si Si6 0.312684 0.707431 0.999918
Si Si7 0.339867 0.767789 0.622400
Si Si8 0.934851 0.846587 0.318704
O O1 0.428041 0.574726 0.250000
O O2 0.500000 0.582330 0.168063
O O3 0.393210 0.641669 0.150780
O O4 0.419798 0.456837 0.164710
O O5 0.212463 0.891685 0.866812
O O6 0.319411 0.875768 0.864619
O O7 0.270957 0.045816 0.837370
O O8 0.268533 0.981768 0.942861
O O9 0.685731 0.778427 0.166778
O O10 0.661778 0.721207 0.062793
O O11 0.194925 0.093598 0.990256
O O12 0.249047 0.839629 0.250000
O O13 0.209998 0.800653 0.353721
O O14 0.250000 0.750000 0.000000
O O15 0.343018 0.753994 0.946022
O O16 0.395594 0.730623 0.651649
O O17 0.928420 0.840594 0.250000
O O18 0.000000 0.832842 0.332048
#
# Coordination Sequence:
#
# PCOD9468185 Si02
#       8
#    16  16  16   8  16  16  16  16
#     4   9  18  34  54  74  98 134 174 205 248 306
#     4  10  20  30  49  74 100 133 168 203 248 305
#     4  10  20  32  50  74 101 135 164 211 247 304
#     4  10  16  30  48  66 102 130 164 198 236 298
#     4  11  21  31  46  74 108 130 159 208 260 306
#     4  11  18  32  48  73 103 134 172 195 247 304
#     4  11  20  32  51  74  99 135 169 207 249 305
#     4   9  19  35  53  72  98 133 171 209 250 299
#
# _framework density 15.460547
#
# number of rings (size 3 to 8) (size 9 to 14) (size 15 to 20)
#    0.000    1.867    5.333    2.400    1.867    4.267 
#    0.000    0.667    0.000    2.400    0.000    2.333 
#    0.000    0.000    0.000    0.000    0.000    0.000 
#
# Total GULP energy -334626.024936 kJ/mol
# GULP energy per Si atom -5577.100416 kJ/mol
# Density = 1.542536 g / cm^3
# Si number density = 15.460547 Si / 1000 Ang^3
#
#
#
# Elastic Constant Matrix: (Units=GPa)
#
#
# Indices 1 2 3 4 5 6 
#
# 1 43.6592 8.3705 20.6559 0.0000 0.0000 0.0000
# 2 8.3705 61.3710 19.6053 0.0000 0.0000 0.0000
# 3 20.6559 19.6053 64.9242 0.0000 0.0000 0.0000
# 4 0.0000 0.0000 0.0000 24.0537 0.0000 0.0000
# 5 0.0000 0.0000 0.0000 0.0000 16.2845 0.0000
# 6 0.0000 0.0000 0.0000 0.0000 0.0000 26.5489
#
#
#
# Elastic Compliance Matrix: (Units=1/GPa)
#
#
# Indices 1 2 3 4 5 6 
#
# 1 0.027023 -0.001040 -0.008284 0.000000 0.000000 0.000000
# 2 -0.001040 0.018074 -0.005127 0.000000 0.000000 0.000000
# 3 -0.008284 -0.005127 0.019586 0.000000 0.000000 0.000000
# 4 0.000000 0.000000 0.000000 0.041574 0.000000 0.000000
# 5 0.000000 0.000000 0.000000 0.000000 0.061408 0.000000
# 6 0.000000 0.000000 0.000000 0.000000 0.000000 0.037666
#
#
# Mechanical properties :
#
#
# Convention : Reuss Voigt Hill
#
# Bulk Modulus (GPa) = 27.94629 29.69086 28.81858
# Shear Modulus (GPa) = 20.31205 21.46561 20.88883
#
# Velocity S-wave (km/s) = 3.62857 3.73018 3.67973
# Velocity P-wave (km/s) = 5.97248 6.14803 6.06089
#
# Compressibility (1/GPa) = 0.03578292
#
# Stress axis : x y z
#
# Youngs Moduli (GPa) = 37.00545 55.32809 51.05621
#
# Poissons Ratio (x) = 0.05751 0.42293
# Poissons Ratio (y) = 0.03847 0.26177
# Poissons Ratio (z) = 0.30654 0.28367
#
# Static dielectric constant tensor:
#      x y z
#    x 1.492220 0.000000 0.000000 
#    y 0.000000 1.523940 0.000000 
#    z 0.000000 0.000000 1.528990 
# 
# From -- ./inp_files/64689.got.cif
#   From: 2010.05.17/outbox.cif.g08.bks.cpg/sg63_33_cif.got.tgz:64689.got - 2010.06.03 15:47:04.
