data_PCOD9468425
_publ_section_title
;
Structure prediction by ZEFSAII (Michael W. Deem and Ramdas Pophale) SiO2 
 PCOD9468425
Probable space group: C M C M
;
_chemical_formula_sum "Si O2"
_cell_formula_units_Z 88
_cell_length_a 18.024024
_cell_length_b 16.016825
_cell_length_c 17.398355
_cell_angle_alpha 90.000000
_cell_angle_beta 90.000000
_cell_angle_gamma 90.000000
_cell_volume 5022.690014
_symmetry_space_group_name_H-M "C M C M"
_symmetry_group_IT_number 63
_symmetry_cell_setting 'orthorhombic'
loop_
_space_group_symop_operation_xyz
x,y,z
-x,-y,1/2+z
x,-y,-z
-x,y,1/2-z
-x,-y,-z
x,y,1/2-z
-x,y,z
x,-y,1/2+z
1/2+x,1/2+y,z
1/2-x,1/2-y,1/2+z
1/2+x,1/2-y,-z
1/2-x,1/2+y,1/2-z
1/2-x,1/2-y,-z
1/2+x,1/2+y,1/2-z
1/2-x,1/2+y,z
1/2+x,1/2-y,1/2+z
loop_
_atom_site_type_symbol
_atom_site_label
_atom_site_fract_x
_atom_site_fract_y
_atom_site_fract_z
Si Si1 0.340096 0.000000 0.500000
Si Si2 0.654977 0.683505 0.942688
Si Si3 0.715631 0.588131 0.094960
Si Si4 0.920198 0.977159 0.091017
Si Si5 0.790598 0.736910 0.838159
Si Si6 0.411510 0.174122 0.544737
O O1 0.286313 0.965361 0.567979
O O2 0.387738 0.921247 0.471297
O O3 0.595663 0.620984 0.906045
O O4 0.722321 0.698113 0.885204
O O5 0.689271 0.635329 0.016544
O O6 0.618531 0.767934 0.974682
O O7 0.649947 0.527384 0.121682
O O8 0.723310 0.663685 0.153823
O O9 0.000000 0.999877 0.124520
O O10 0.922639 0.000000 0.000000
O O11 0.792173 0.711456 0.750000
O O12 0.865706 0.709374 0.882122
O O13 0.500000 0.182616 0.552723
#
# Coordination Sequence:
#
# PCOD9468425 Si02
#       6
#     8  16  16  16  16  16
#     4  12  17  36  57  84 114 140 196 250 271 318
#     4  10  17  35  57  80 108 142 192 233 268 326
#     4  10  17  32  57  81 109 143 188 234 272 330
#     4   9  16  27  51  85 111 132 168 230 287 318
#     4  11  22  37  57  81 115 152 186 227 281 346
#     4  11  22  35  59  87 112 148 191 240 285 323
#
# _framework density 17.520491
#
# number of rings (size 3 to 8) (size 9 to 14) (size 15 to 20)
#    0.000    1.636    6.364    1.909    0.000    4.727 
#    0.000    3.636    0.000    3.273    0.000    0.000 
#    0.000    0.000    0.000    0.000    0.000    0.000 
#
# Total GULP energy -245313.193539 kJ/mol
# GULP energy per Si atom -5575.299853 kJ/mol
# Density = 1.748061 g / cm^3
# Si number density = 17.520491 Si / 1000 Ang^3
#
#
#
# Elastic Constant Matrix: (Units=GPa)
#
#
# Indices 1 2 3 4 5 6 
#
# 1 138.4510 42.1148 44.0709 0.0000 0.0000 0.0000
# 2 42.1148 105.4249 23.5217 0.0000 0.0000 0.0000
# 3 44.0709 23.5217 60.9135 0.0000 0.0000 0.0000
# 4 0.0000 0.0000 0.0000 8.0942 0.0000 0.0000
# 5 0.0000 0.0000 0.0000 0.0000 6.3071 0.0000
# 6 0.0000 0.0000 0.0000 0.0000 0.0000 17.5672
#
#
#
# Elastic Compliance Matrix: (Units=1/GPa)
#
#
# Indices 1 2 3 4 5 6 
#
# 1 0.009997 -0.002604 -0.006227 0.000000 0.000000 0.000000
# 2 -0.002604 0.011058 -0.002386 0.000000 0.000000 0.000000
# 3 -0.006227 -0.002386 0.021844 0.000000 0.000000 0.000000
# 4 0.000000 0.000000 0.000000 0.123545 0.000000 0.000000
# 5 0.000000 0.000000 0.000000 0.000000 0.158552 0.000000
# 6 0.000000 0.000000 0.000000 0.000000 0.000000 0.056924
#
#
# Mechanical properties :
#
#
# Convention : Reuss Voigt Hill
#
# Bulk Modulus (GPa) = 48.86671 58.24491 53.55581
# Shear Modulus (GPa) = 12.16023 19.39916 15.77969
#
# Velocity S-wave (km/s) = 2.63735 3.33111 3.00433
# Velocity P-wave (km/s) = 6.10130 6.93622 6.53211
#
# Compressibility (1/GPa) = 0.02046383
#
# Stress axis : x y z
#
# Youngs Moduli (GPa) = 100.02795 90.43152 45.78013
#
# Poissons Ratio (x) = 0.23551 0.28509
# Poissons Ratio (y) = 0.26050 0.10923
# Poissons Ratio (z) = 0.62291 0.21576
#
# Static dielectric constant tensor:
#      x y z
#    x 1.608430 0.000000 0.000000 
#    y 0.000000 1.635010 0.000000 
#    z 0.000000 0.000000 1.585690 
# 
# From -- ./inp_files/45535.got.cif
#   From: 2010.05.17/outbox.cif.g08.bks.cpg/sg63_23_cif.got.tgz:45535.got - 2010.06.03 15:47:04.
