data_PCOD9468672
_publ_section_title
;
Structure prediction by ZEFSAII (Michael W. Deem and Ramdas Pophale) SiO2 
 PCOD9468672
Probable space group: C M C M
;
_chemical_formula_sum "Si O2"
_cell_formula_units_Z 80
_cell_length_a 8.945484
_cell_length_b 18.616477
_cell_length_c 26.859548
_cell_angle_alpha 90.000000
_cell_angle_beta 90.000000
_cell_angle_gamma 90.000000
_cell_volume 4473.011774
_symmetry_space_group_name_H-M "C M C M"
_symmetry_group_IT_number 63
_symmetry_cell_setting 'orthorhombic'
loop_
_space_group_symop_operation_xyz
x,y,z
-x,-y,1/2+z
x,-y,-z
-x,y,1/2-z
-x,-y,-z
x,y,1/2-z
-x,y,z
x,-y,1/2+z
1/2+x,1/2+y,z
1/2-x,1/2-y,1/2+z
1/2+x,1/2-y,-z
1/2-x,1/2+y,1/2-z
1/2-x,1/2-y,-z
1/2+x,1/2+y,1/2-z
1/2-x,1/2+y,z
1/2+x,1/2-y,1/2+z
loop_
_atom_site_type_symbol
_atom_site_label
_atom_site_fract_x
_atom_site_fract_y
_atom_site_fract_z
Si Si1 0.677383 0.792070 0.250000
Si Si2 0.179033 0.050458 0.750000
Si Si3 0.180516 0.708804 0.453374
Si Si4 0.819815 0.542607 0.450788
Si Si5 0.320494 0.290744 0.147527
Si Si6 0.177981 0.039755 0.859238
O O1 0.500000 0.786371 0.250000
O O2 0.730883 0.875220 0.250000
O O3 0.744678 0.763223 0.198237
O O4 0.211005 0.013622 0.802760
O O5 0.000000 0.067833 0.750000
O O6 0.250000 0.750000 0.500000
O O7 0.227027 0.625595 0.453350
O O8 0.222832 0.746571 0.401398
O O9 0.000000 0.711920 0.457115
O O10 0.769099 0.500000 0.500000
O O11 0.760341 0.503936 0.401637
O O12 0.000000 0.540969 0.449847
O O13 0.500000 0.287031 0.153785
O O14 0.282975 0.375189 0.139385
O O15 0.000000 0.034400 0.867073
#
# Coordination Sequence:
#
# PCOD9468672 Si02
#       6
#     8   8  16  16  16  16
#     4  10  18  28  49  80 105 129 167 211 253 294
#     4   8  16  32  51  74 105 137 169 205 247 296
#     4  10  21  36  54  75 100 134 171 208 255 306
#     4  10  21  35  50  73 105 133 160 205 260 302
#     4   9  18  34  53  73 102 138 172 205 246 299
#     4   9  17  31  53  76  98 131 171 206 241 289
#
# _framework density 17.885041000000001
#
# number of rings (size 3 to 8) (size 9 to 14) (size 15 to 20)
#    0.000    2.600    0.000    3.300    0.000    5.200 
#    0.000    1.000    0.000    3.600    0.000    0.000 
#    0.000    0.000    0.000    0.000    0.000    0.000 
#
# Total GULP energy -223040.633041 kJ/mol
# GULP energy per Si atom -5576.015826 kJ/mol
# Density = 1.784433 g / cm^3
# Si number density = 17.885041 Si / 1000 Ang^3
#
#
#
# Elastic Constant Matrix: (Units=GPa)
#
#
# Indices 1 2 3 4 5 6 
#
# 1 22.0870 30.0487 54.0767 0.0000 0.0000 0.0000
# 2 30.0487 99.8118 96.1728 0.0000 0.0000 0.0000
# 3 54.0767 96.1728 218.4520 0.0000 0.0000 0.0000
# 4 0.0000 0.0000 0.0000 31.6920 0.0000 0.0000
# 5 0.0000 0.0000 0.0000 0.0000 33.8151 0.0000
# 6 0.0000 0.0000 0.0000 0.0000 0.0000 10.5271
#
#
#
# Elastic Compliance Matrix: (Units=1/GPa)
#
#
# Indices 1 2 3 4 5 6 
#
# 1 0.124647 -0.013537 -0.024896 0.000000 0.000000 0.000000
# 2 -0.013537 0.018870 -0.004956 0.000000 0.000000 0.000000
# 3 -0.024896 -0.004956 0.012923 0.000000 0.000000 0.000000
# 4 0.000000 0.000000 0.000000 0.031554 0.000000 0.000000
# 5 0.000000 0.000000 0.000000 0.000000 0.029573 0.000000
# 6 0.000000 0.000000 0.000000 0.000000 0.000000 0.094993
#
#
# Mechanical properties :
#
#
# Convention : Reuss Voigt Hill
#
# Bulk Modulus (GPa) = 14.35535 77.88301 46.11918
# Shear Modulus (GPa) = 11.83270 25.87701 18.85485
#
# Velocity S-wave (km/s) = 2.57494 3.80788 3.25041
# Velocity P-wave (km/s) = 4.10905 7.93563 6.31896
#
# Compressibility (1/GPa) = 0.06966042
#
# Stress axis : x y z
#
# Youngs Moduli (GPa) = 8.02267 52.99443 77.38365
#
# Poissons Ratio (x) = 0.71738 1.92655
# Poissons Ratio (y) = 0.10860 0.38355
# Poissons Ratio (z) = 0.19973 0.26266
#
# Static dielectric constant tensor:
#      x y z
#    x 1.601210 0.000000 0.000000 
#    y 0.000000 1.600320 0.000000 
#    z 0.000000 0.000000 1.618690 
# 
# From -- ./inp_files/59565.got.cif
#   From: 2010.05.17/outbox.cif.g08.bks.cpg/sg63_30_cif.got.tgz:59565.got - 2010.06.03 15:47:04.
