data_PCOD9468874
_publ_section_title
;
Structure prediction by ZEFSAII (Michael W. Deem and Ramdas Pophale) SiO2 
 PCOD9468874
Probable space group: C M C M
;
_chemical_formula_sum "Si O2"
_cell_formula_units_Z 72
_cell_length_a 33.736171
_cell_length_b 15.179463
_cell_length_c 8.632895
_cell_angle_alpha 90.000000
_cell_angle_beta 90.000000
_cell_angle_gamma 90.000000
_cell_volume 4420.879281
_symmetry_space_group_name_H-M "C M C M"
_symmetry_group_IT_number 63
_symmetry_cell_setting 'orthorhombic'
loop_
_space_group_symop_operation_xyz
x,y,z
-x,-y,1/2+z
x,-y,-z
-x,y,1/2-z
-x,-y,-z
x,y,1/2-z
-x,y,z
x,-y,1/2+z
1/2+x,1/2+y,z
1/2-x,1/2-y,1/2+z
1/2+x,1/2-y,-z
1/2-x,1/2+y,1/2-z
1/2-x,1/2-y,-z
1/2+x,1/2+y,1/2-z
1/2-x,1/2+y,z
1/2+x,1/2-y,1/2+z
loop_
_atom_site_type_symbol
_atom_site_label
_atom_site_fract_x
_atom_site_fract_y
_atom_site_fract_z
Si Si1 0.842051 0.782662 0.562967
Si Si2 0.583025 0.599499 0.063553
Si Si3 0.817889 0.594107 0.936285
Si Si4 0.774295 0.904924 0.435531
Si Si5 0.000000 0.099883 0.935189
O O1 0.840476 0.784118 0.750000
O O2 0.880358 0.839000 0.515811
O O3 0.841679 0.680693 0.513062
O O4 0.802872 0.830422 0.500739
O O5 0.581072 0.595010 0.250000
O O6 0.588561 0.500000 0.000000
O O7 0.541389 0.636625 0.999087
O O8 0.818719 0.589879 0.750000
O O9 0.771662 0.606946 0.982935
O O10 0.831396 0.500000 0.000000
O O11 0.776178 0.905732 0.250000
O O12 0.787417 0.000000 0.500000
O O13 0.000000 0.099060 0.750000
O O14 0.000000 0.000000 0.000000
#
# Coordination Sequence:
#
# PCOD9468874 Si02
#       5
#    16  16  16  16   8
#     4  10  20  32  47  68  94 121 154 194 232 271
#     4  10  19  31  47  68  95 124 150 180 219 267
#     4   9  19  34  48  65  89 121 159 197 235 273
#     4  10  19  30  46  66  92 124 157 192 231 274
#     4  10  18  30  48  68  93 122 149 178 213 264
#
# _framework density 16.286352999999998
#
# number of rings (size 3 to 8) (size 9 to 14) (size 15 to 20)
#    0.000    2.222    0.000    5.000    0.000    5.333 
#    0.000    0.000    0.000    0.000    0.000    0.778 
#    0.000    0.000    0.000    0.000    0.000    0.000 
#
# Total GULP energy -200819.495053 kJ/mol
# GULP energy per Si atom -5578.319307 kJ/mol
# Density = 1.624928 g / cm^3
# Si number density = 16.286353 Si / 1000 Ang^3
#
#
#
# Elastic Constant Matrix: (Units=GPa)
#
#
# Indices 1 2 3 4 5 6 
#
# 1 71.7068 59.6903 24.8433 0.0000 0.0000 0.0000
# 2 59.6903 125.0775 23.9897 0.0000 0.0000 0.0000
# 3 24.8433 23.9897 29.1384 0.0000 0.0000 0.0000
# 4 0.0000 0.0000 0.0000 21.7094 0.0000 0.0000
# 5 0.0000 0.0000 0.0000 0.0000 18.4618 0.0000
# 6 0.0000 0.0000 0.0000 0.0000 0.0000 14.7998
#
#
#
# Elastic Compliance Matrix: (Units=1/GPa)
#
#
# Indices 1 2 3 4 5 6 
#
# 1 0.027848 -0.010374 -0.015202 0.000000 0.000000 0.000000
# 2 -0.010374 0.013359 -0.002153 0.000000 0.000000 0.000000
# 3 -0.015202 -0.002153 0.049053 0.000000 0.000000 0.000000
# 4 0.000000 0.000000 0.000000 0.046063 0.000000 0.000000
# 5 0.000000 0.000000 0.000000 0.000000 0.054166 0.000000
# 6 0.000000 0.000000 0.000000 0.000000 0.000000 0.067569
#
#
# Mechanical properties :
#
#
# Convention : Reuss Voigt Hill
#
# Bulk Modulus (GPa) = 28.73498 49.21880 38.97689
# Shear Modulus (GPa) = 15.37901 18.82080 17.09991
#
# Velocity S-wave (km/s) = 3.07626 3.40313 3.24381
# Velocity P-wave (km/s) = 5.50452 6.76226 6.16555
#
# Compressibility (1/GPa) = 0.03480079
#
# Stress axis : x y z
#
# Youngs Moduli (GPa) = 35.90877 74.85649 20.38593
#
# Poissons Ratio (x) = 0.77657 0.30991
# Poissons Ratio (y) = 0.37252 0.04390
# Poissons Ratio (z) = 0.54590 0.16120
#
# Static dielectric constant tensor:
#      x y z
#    x 1.559130 0.000000 0.000000 
#    y 0.000000 1.558600 0.000000 
#    z 0.000000 0.000000 1.551550 
# 
# From -- ./inp_files/13913.got.cif
#   From: 2010.05.17/outbox.cif.g08.bks.cpg/sg63_7_cif.got.tgz:13913.got - 2010.06.03 15:47:04.
