data_PCOD9468927
_publ_section_title
;
Structure prediction by ZEFSAII (Michael W. Deem and Ramdas Pophale) SiO2 
 PCOD9468927
Probable space group: C M C M
;
_chemical_formula_sum "Si O2"
_cell_formula_units_Z 80
_cell_length_a 26.978889
_cell_length_b 19.320563
_cell_length_c 8.683491
_cell_angle_alpha 90.000000
_cell_angle_beta 90.000000
_cell_angle_gamma 90.000000
_cell_volume 4526.246452
_symmetry_space_group_name_H-M "C M C M"
_symmetry_group_IT_number 63
_symmetry_cell_setting 'orthorhombic'
loop_
_space_group_symop_operation_xyz
x,y,z
-x,-y,1/2+z
x,-y,-z
-x,y,1/2-z
-x,-y,-z
x,y,1/2-z
-x,y,z
x,-y,1/2+z
1/2+x,1/2+y,z
1/2-x,1/2-y,1/2+z
1/2+x,1/2-y,-z
1/2-x,1/2+y,1/2-z
1/2-x,1/2-y,-z
1/2+x,1/2+y,1/2-z
1/2-x,1/2+y,z
1/2+x,1/2-y,1/2+z
loop_
_atom_site_type_symbol
_atom_site_label
_atom_site_fract_x
_atom_site_fract_y
_atom_site_fract_z
Si Si1 0.197658 0.330274 0.435345
Si Si2 0.000000 0.421526 0.565761
Si Si3 0.396969 0.922159 0.064688
Si Si4 0.391867 0.422094 0.065115
Si Si5 0.303608 0.330701 0.565977
Si Si6 0.000000 0.922156 0.064668
O O1 0.202268 0.332745 0.250000
O O2 0.150568 0.376506 0.479017
O O3 0.249536 0.354017 0.507668
O O4 0.190343 0.249946 0.480504
O O5 0.000000 0.500000 0.500000
O O6 0.948340 0.391739 0.502714
O O7 0.000000 0.422677 0.750000
O O8 0.400774 0.925190 0.250000
O O9 0.391141 0.000000 0.000000
O O10 0.389696 0.425049 0.250000
O O11 0.446402 0.392613 0.018262
O O12 0.388000 0.500000 0.000000
O O13 0.347411 0.376110 0.002930
O O14 0.305055 0.334526 0.750000
O O15 0.000000 0.924814 0.250000
O O16 0.000000 0.000000 0.000000
#
# Coordination Sequence:
#
# PCOD9468927 Si02
#       6
#    16   8  16  16  16   8
#     4   9  20  37  54  72  99 136 172 208 253 303
#     4  10  18  30  49  74 103 133 165 201 249 300
#     4  10  19  33  53  76 102 131 167 208 250 297
#     4  10  19  33  53  77 104 133 168 209 252 298
#     4  10  20  35  54  75 100 133 171 209 254 304
#     4   8  16  30  49  72  99 131 163 199 245 294
#
# _framework density 17.674689000000001
#
# number of rings (size 3 to 8) (size 9 to 14) (size 15 to 20)
#    0.000    2.400    0.000    3.900    0.000    4.000 
#    0.000    3.000    0.000    3.600    0.000    0.000 
#    0.000    0.000    0.000    0.000    0.000    0.000 
#
# Total GULP energy -223007.376256 kJ/mol
# GULP energy per Si atom -5575.184406 kJ/mol
# Density = 1.763446 g / cm^3
# Si number density = 17.674689 Si / 1000 Ang^3
#
#
#
# Elastic Constant Matrix: (Units=GPa)
#
#
# Indices 1 2 3 4 5 6 
#
# 1 231.4574 79.7671 63.5084 0.0000 0.0000 0.0000
# 2 79.7671 48.2377 25.5036 0.0000 0.0000 0.0000
# 3 63.5084 25.5036 52.2662 0.0000 0.0000 0.0000
# 4 0.0000 0.0000 0.0000 22.2170 0.0000 0.0000
# 5 0.0000 0.0000 0.0000 0.0000 20.1063 0.0000
# 6 0.0000 0.0000 0.0000 0.0000 0.0000 -67.0191
#
#
#
# Elastic Compliance Matrix: (Units=1/GPa)
#
#
# Indices 1 2 3 4 5 6 
#
# 1 0.011388 -0.015519 -0.006265 0.000000 0.000000 0.000000
# 2 -0.015519 0.049087 -0.005096 0.000000 0.000000 0.000000
# 3 -0.006265 -0.005096 0.029231 0.000000 0.000000 0.000000
# 4 0.000000 0.000000 0.000000 0.045011 0.000000 0.000000
# 5 0.000000 0.000000 0.000000 0.000000 0.049736 0.000000
# 6 0.000000 0.000000 0.000000 0.000000 0.000000 -0.014921
#
#
# Mechanical properties :
#
#
# Convention : Reuss Voigt Hill
#
# Bulk Modulus (GPa) = 27.81792 74.39108 51.10450
# Shear Modulus (GPa) = 21.25211 5.93963 13.59587
#
# Velocity S-wave (km/s) = 3.47133 1.83516 2.77651
# Velocity P-wave (km/s) = 5.64268 6.83161 6.26541
#
# Compressibility (1/GPa) = 0.03594805
#
# Stress axis : x y z
#
# Youngs Moduli (GPa) = 87.81554 20.37211 34.20997
#
# Poissons Ratio (x) = 0.31615 0.21431
# Poissons Ratio (y) = 1.36277 0.17432
# Poissons Ratio (z) = 0.55012 0.10381
#
# Static dielectric constant tensor:
#      x y z
#    x 1.631100 0.000000 0.000000 
#    y 0.000000 1.576560 0.000000 
#    z 0.000000 0.000000 1.606500 
# 
# From -- ./inp_files/10090.got.cif
#   From: 2010.05.17/outbox.cif.g08.bks.cpg/sg63_6_cif.got.tgz:10090.got - 2010.06.03 15:47:04.
