data_PCOD9468476
_publ_section_title
;
Structure prediction by ZEFSAII (Michael W. Deem and Ramdas Pophale) SiO2 
 PCOD9468476
Probable space group: C M C M
;
_chemical_formula_sum "Si O2"
_cell_formula_units_Z 88
_cell_length_a 32.180759
_cell_length_b 18.355062
_cell_length_c 7.494303
_cell_angle_alpha 90.000000
_cell_angle_beta 90.000000
_cell_angle_gamma 90.000000
_cell_volume 4426.733597
_symmetry_space_group_name_H-M "C M C M"
_symmetry_group_IT_number 63
_symmetry_cell_setting 'orthorhombic'
loop_
_space_group_symop_operation_xyz
x,y,z
-x,-y,1/2+z
x,-y,-z
-x,y,1/2-z
-x,-y,-z
x,y,1/2-z
-x,y,z
x,-y,1/2+z
1/2+x,1/2+y,z
1/2-x,1/2-y,1/2+z
1/2+x,1/2-y,-z
1/2-x,1/2+y,1/2-z
1/2-x,1/2-y,-z
1/2+x,1/2+y,1/2-z
1/2-x,1/2+y,z
1/2+x,1/2-y,1/2+z
loop_
_atom_site_type_symbol
_atom_site_label
_atom_site_fract_x
_atom_site_fract_y
_atom_site_fract_z
Si Si1 0.202150 0.234777 0.463726
Si Si2 0.086332 0.856930 0.967081
Si Si3 0.381686 0.803605 0.033379
Si Si4 0.170242 0.079950 0.036972
Si Si5 0.047084 0.585878 0.963945
Si Si6 0.500000 0.414901 0.536188
O O1 0.197101 0.233578 0.250000
O O2 0.250000 0.250000 0.500000
O O3 0.166524 0.292155 0.527128
O O4 0.192531 0.152884 0.531140
O O5 0.085668 0.859925 0.750000
O O6 0.098205 0.774489 0.011750
O O7 0.122803 0.910964 0.027681
O O8 0.041793 0.879565 0.035365
O O9 0.380411 0.810696 0.250000
O O10 0.413698 0.866127 0.969604
O O11 0.169814 0.086010 0.250000
O O12 0.187441 0.000000 0.000000
O O13 0.045920 0.595811 0.750000
O O14 0.000000 0.605267 0.029405
O O15 0.053222 0.500000 0.000000
O O16 0.500000 0.500000 0.500000
O O17 0.500000 0.404085 0.750000
#
# Coordination Sequence:
#
# PCOD9468476 Si02
#       6
#    16  16  16  16  16   8
#     4   9  18  33  51  70  94 121 154 197 241 282
#     4   8  15  26  42  65  89 115 150 187 216 249
#     4   8  15  29  48  69  91 118 154 193 228 268
#     4   9  17  30  47  67  91 119 150 186 226 270
#     4   9  17  29  48  72  96 124 157 194 237 285
#     4  10  18  26  40  62  89 118 146 178 213 250
#
# _framework density 19.879218000000002
#
# number of rings (size 3 to 8) (size 9 to 14) (size 15 to 20)
#    0.000    3.273    0.000    2.727    1.273    0.727 
#    0.000    1.818    0.000    7.636    0.000    0.000 
#    0.000    0.000    0.000    0.000    0.000    0.000 
#
# Total GULP energy -245009.851270 kJ/mol
# GULP energy per Si atom -5568.405711 kJ/mol
# Density = 1.983397 g / cm^3
# Si number density = 19.879218 Si / 1000 Ang^3
#
#
#
# Elastic Constant Matrix: (Units=GPa)
#
#
# Indices 1 2 3 4 5 6 
#
# 1 194.1507 88.7988 5.6994 0.0000 0.0000 0.0000
# 2 88.7988 103.1598 -1.1137 0.0000 0.0000 0.0000
# 3 5.6994 -1.1137 53.0192 0.0000 0.0000 0.0000
# 4 0.0000 0.0000 0.0000 17.8133 0.0000 0.0000
# 5 0.0000 0.0000 0.0000 0.0000 -0.7484 0.0000
# 6 0.0000 0.0000 0.0000 0.0000 0.0000 20.0970
#
#
#
# Elastic Compliance Matrix: (Units=1/GPa)
#
#
# Indices 1 2 3 4 5 6 
#
# 1 0.008556 -0.007376 -0.001075 0.000000 0.000000 0.000000
# 2 -0.007376 0.016055 0.001130 0.000000 0.000000 0.000000
# 3 -0.001075 0.001130 0.019000 0.000000 0.000000 0.000000
# 4 0.000000 0.000000 0.000000 0.056138 0.000000 0.000000
# 5 0.000000 0.000000 0.000000 0.000000 -1.336233 0.000000
# 6 0.000000 0.000000 0.000000 0.000000 0.000000 0.049759
#
#
# Mechanical properties :
#
#
# Convention : Reuss Voigt Hill
#
# Bulk Modulus (GPa) = 34.51862 59.67764 47.09813
# Shear Modulus (GPa) = -4.30135 24.56205 10.13035
#
# Velocity S-wave (km/s) = -1.47256 3.51887 2.25987
# Velocity P-wave (km/s) = 3.80928 6.82607 5.52747
#
# Compressibility (1/GPa) = 0.02896987
#
# Stress axis : x y z
#
# Youngs Moduli (GPa) = 116.87742 62.28400 52.63059
#
# Poissons Ratio (x) = 0.45944 0.05656
# Poissons Ratio (y) = 0.86214 -0.05948
# Poissons Ratio (z) = 0.12561 -0.07039
#
# Static dielectric constant tensor:
#      x y z
#    x 1.728330 0.000000 0.000000 
#    y 0.000000 1.676920 0.000000 
#    z 0.000000 0.000000 1.800560 
# 
# From -- ./inp_files/24899.got.cif
#   From: 2010.05.17/outbox.cif.g08.bks.cpg/sg63_13_cif.got.tgz:24899.got - 2010.06.03 15:47:04.
