data_PCOD9468980
_publ_section_title
;
Structure prediction by ZEFSAII (Michael W. Deem and Ramdas Pophale) SiO2 
 PCOD9468980
Probable space group: C M C M
;
_chemical_formula_sum "Si O2"
_cell_formula_units_Z 48
_cell_length_a 8.703066
_cell_length_b 18.836282
_cell_length_c 16.789157
_cell_angle_alpha 90.000000
_cell_angle_beta 90.000000
_cell_angle_gamma 90.000000
_cell_volume 2752.303681
_symmetry_space_group_name_H-M "C M C M"
_symmetry_group_IT_number 63
_symmetry_cell_setting 'orthorhombic'
loop_
_space_group_symop_operation_xyz
x,y,z
-x,-y,1/2+z
x,-y,-z
-x,y,1/2-z
-x,-y,-z
x,y,1/2-z
-x,y,z
x,-y,1/2+z
1/2+x,1/2+y,z
1/2-x,1/2-y,1/2+z
1/2+x,1/2-y,-z
1/2-x,1/2+y,1/2-z
1/2-x,1/2-y,-z
1/2+x,1/2+y,1/2-z
1/2-x,1/2+y,z
1/2+x,1/2-y,1/2+z
loop_
_atom_site_type_symbol
_atom_site_label
_atom_site_fract_x
_atom_site_fract_y
_atom_site_fract_z
Si Si1 0.683733 0.082825 0.508099
Si Si2 0.816403 0.836020 0.160335
Si Si3 0.183494 0.791072 0.922759
O O1 0.500000 0.091966 0.505921
O O2 0.745062 0.114536 0.591674
O O3 0.757334 0.129421 0.437037
O O4 0.720797 0.000000 0.500000
O O5 0.782378 0.860657 0.250000
O O6 0.750217 0.756524 0.148110
O O7 0.000000 0.833864 0.149207
O O8 0.000000 0.788990 0.922629
O O9 0.250000 0.750000 0.000000
#
# Coordination Sequence:
#
# PCOD9468980 Si02
#       3
#    16  16  16
#     4  10  20  34  53  76 103 136 171 207 251 303
#     4  10  20  34  53  76 102 132 168 212 257 300
#     4  10  18  30  51  74  98 129 165 204 244 293
#
# _framework density 17.439934999999998
#
# number of rings (size 3 to 8) (size 9 to 14) (size 15 to 20)
#    0.000    2.000    0.000    9.000    0.000    5.333 
#    0.000    1.667    0.000    2.000    0.000    0.000 
#    0.000    0.000    0.000    0.000    0.000    0.000 
#
# Total GULP energy -133812.463814 kJ/mol
# GULP energy per Si atom -5575.519326 kJ/mol
# Density = 1.740024 g / cm^3
# Si number density = 17.439935 Si / 1000 Ang^3
#
#
#
# Elastic Constant Matrix: (Units=GPa)
#
#
# Indices 1 2 3 4 5 6 
#
# 1 93.2058 53.0998 30.4161 0.0000 0.0000 0.0000
# 2 53.0998 129.1451 39.0651 0.0000 0.0000 0.0000
# 3 30.4161 39.0651 74.5078 0.0000 0.0000 0.0000
# 4 0.0000 0.0000 0.0000 19.5172 0.0000 0.0000
# 5 0.0000 0.0000 0.0000 0.0000 23.1702 0.0000
# 6 0.0000 0.0000 0.0000 0.0000 0.0000 29.2898
#
#
#
# Elastic Compliance Matrix: (Units=1/GPa)
#
#
# Indices 1 2 3 4 5 6 
#
# 1 0.014687 -0.005022 -0.003363 0.000000 0.000000 0.000000
# 2 -0.005022 0.010920 -0.003675 0.000000 0.000000 0.000000
# 3 -0.003363 -0.003675 0.016721 0.000000 0.000000 0.000000
# 4 0.000000 0.000000 0.000000 0.051237 0.000000 0.000000
# 5 0.000000 0.000000 0.000000 0.000000 0.043159 0.000000
# 6 0.000000 0.000000 0.000000 0.000000 0.000000 0.034142
#
#
# Mechanical properties :
#
#
# Convention : Reuss Voigt Hill
#
# Bulk Modulus (GPa) = 54.91929 60.22453 57.57191
# Shear Modulus (GPa) = 24.86889 26.01396 25.44142
#
# Velocity S-wave (km/s) = 3.78030 3.86635 3.82357
# Velocity P-wave (km/s) = 7.11429 7.38506 7.25094
#
# Compressibility (1/GPa) = 0.01820854
#
# Stress axis : x y z
#
# Youngs Moduli (GPa) = 68.08658 91.57777 59.80428
#
# Poissons Ratio (x) = 0.45987 0.20111
# Poissons Ratio (y) = 0.34190 0.21980
# Poissons Ratio (z) = 0.22896 0.33658
#
# Static dielectric constant tensor:
#      x y z
#    x 1.583040 0.000000 0.000000 
#    y 0.000000 1.629630 0.000000 
#    z 0.000000 0.000000 1.663380 
# 
# From -- ./inp_files/26861.got.cif
#   From: 2010.05.17/outbox.cif.g08.bks.cpg/sg63_14_cif.got.tgz:26861.got - 2010.06.03 15:47:04.
