data_PCOD9468717
_publ_section_title
;
Structure prediction by ZEFSAII (Michael W. Deem and Ramdas Pophale) SiO2 
 PCOD9468717
Probable space group: C M C M
;
_chemical_formula_sum "Si O2"
_cell_formula_units_Z 96
_cell_length_a 20.442209
_cell_length_b 25.826588
_cell_length_c 10.746774
_cell_angle_alpha 90.000000
_cell_angle_beta 90.000000
_cell_angle_gamma 90.000000
_cell_volume 5673.786304
_symmetry_space_group_name_H-M "C M C M"
_symmetry_group_IT_number 63
_symmetry_cell_setting 'orthorhombic'
loop_
_space_group_symop_operation_xyz
x,y,z
-x,-y,1/2+z
x,-y,-z
-x,y,1/2-z
-x,-y,-z
x,y,1/2-z
-x,y,z
x,-y,1/2+z
1/2+x,1/2+y,z
1/2-x,1/2-y,1/2+z
1/2+x,1/2-y,-z
1/2-x,1/2+y,1/2-z
1/2-x,1/2-y,-z
1/2+x,1/2+y,1/2-z
1/2-x,1/2+y,z
1/2+x,1/2-y,1/2+z
loop_
_atom_site_type_symbol
_atom_site_label
_atom_site_fract_x
_atom_site_fract_y
_atom_site_fract_z
Si Si1 0.425396 0.361696 0.898298
Si Si2 0.754872 0.695904 0.617398
Si Si3 0.864756 0.757243 0.000219
Si Si4 0.826716 0.956713 0.604602
Si Si5 0.212447 0.619764 0.105543
Si Si6 0.071959 0.654991 0.101550
O O1 0.423743 0.353027 0.750000
O O2 0.500000 0.374208 0.934382
O O3 0.376421 0.409224 0.922113
O O4 0.402116 0.308774 0.961649
O O5 0.757472 0.668095 0.750000
O O6 0.816457 0.734392 0.605297
O O7 0.687812 0.727648 0.605978
O O8 0.759079 0.659159 0.496884
O O9 0.910967 0.710447 0.041639
O O10 0.836943 0.972950 0.750000
O O11 0.753847 0.932530 0.595686
O O12 0.835811 0.000000 0.500000
O O13 0.221037 0.637809 0.250000
O O14 0.134839 0.618476 0.078314
O O15 0.069938 0.661872 0.250000
O O16 0.000000 0.636949 0.060299
#
# Coordination Sequence:
#
# PCOD9468717 Si02
#       6
#    16  16  16  16  16  16
#     4  10  20  34  52  72  99 137 174 206 248 302
#     4  10  19  28  47  76 104 136 174 210 243 285
#     4  10  18  29  45  70 108 142 171 204 242 286
#     4  10  21  38  57  77  97 124 165 216 264 308
#     4   9  18  34  54  74 100 132 166 207 254 300
#     4   9  17  29  47  73 105 139 171 202 238 289
#
# _framework density 16.919919
#
# number of rings (size 3 to 8) (size 9 to 14) (size 15 to 20)
#    0.000    2.333    1.667    1.500    0.000    5.000 
#    0.000    0.000    0.000    7.000    0.000    0.000 
#    0.000    0.000    0.000    0.000    0.000    0.000 
#
# Total GULP energy -267279.666509 kJ/mol
# GULP energy per Si atom -5568.326386 kJ/mol
# Density = 1.688141 g / cm^3
# Si number density = 16.919919 Si / 1000 Ang^3
#
#
#
# Elastic Constant Matrix: (Units=GPa)
#
#
# Indices 1 2 3 4 5 6 
#
# 1 109.9426 27.1443 12.2843 0.0000 0.0000 0.0000
# 2 27.1443 48.5709 20.2181 0.0000 0.0000 0.0000
# 3 12.2843 20.2181 61.2242 0.0000 0.0000 0.0000
# 4 0.0000 0.0000 0.0000 -8.0164 0.0000 0.0000
# 5 0.0000 0.0000 0.0000 0.0000 3.7716 0.0000
# 6 0.0000 0.0000 0.0000 0.0000 0.0000 9.0641
#
#
#
# Elastic Compliance Matrix: (Units=1/GPa)
#
#
# Indices 1 2 3 4 5 6 
#
# 1 0.010554 -0.005816 -0.000197 0.000000 0.000000 0.000000
# 2 -0.005816 0.027075 -0.007774 0.000000 0.000000 0.000000
# 3 -0.000197 -0.007774 0.018940 0.000000 0.000000 0.000000
# 4 0.000000 0.000000 0.000000 -0.124744 0.000000 0.000000
# 5 0.000000 0.000000 0.000000 0.000000 0.265138 0.000000
# 6 0.000000 0.000000 0.000000 0.000000 0.000000 0.110325
#
#
# Mechanical properties :
#
#
# Convention : Reuss Voigt Hill
#
# Bulk Modulus (GPa) = 34.48901 37.67011 36.07956
# Shear Modulus (GPa) = 14.51270 11.63660 13.07465
#
# Velocity S-wave (km/s) = 2.93188 2.62534 2.78283
# Velocity P-wave (km/s) = 5.64705 5.61266 5.62988
#
# Compressibility (1/GPa) = 0.02899474
#
# Stress axis : x y z
#
# Youngs Moduli (GPa) = 94.75444 36.93476 52.79795
#
# Poissons Ratio (x) = 0.21481 0.01040
# Poissons Ratio (y) = 0.55109 0.41045
# Poissons Ratio (z) = 0.01866 0.28713
#
# Static dielectric constant tensor:
#      x y z
#    x 1.609510 0.000000 0.000000 
#    y 0.000000 1.550500 0.000000 
#    z 0.000000 0.000000 1.597320 
# 
# From -- ./inp_files/21343.got.cif
#   From: 2010.05.17/outbox.cif.g08.bks.cpg/sg63_11_cif.got.tgz:21343.got - 2010.06.03 15:47:04.
