data_PCOD9468895
_publ_section_title
;
Structure prediction by ZEFSAII (Michael W. Deem and Ramdas Pophale) SiO2 
 PCOD9468895
Probable space group: C M C M
;
_chemical_formula_sum "Si O2"
_cell_formula_units_Z 40
_cell_length_a 23.530242
_cell_length_b 8.863902
_cell_length_c 8.226917
_cell_angle_alpha 90.000000
_cell_angle_beta 90.000000
_cell_angle_gamma 90.000000
_cell_volume 1715.886097
_symmetry_space_group_name_H-M "C M C M"
_symmetry_group_IT_number 63
_symmetry_cell_setting 'orthorhombic'
loop_
_space_group_symop_operation_xyz
x,y,z
-x,-y,1/2+z
x,-y,-z
-x,y,1/2-z
-x,-y,-z
x,y,1/2-z
-x,y,z
x,-y,1/2+z
1/2+x,1/2+y,z
1/2-x,1/2-y,1/2+z
1/2+x,1/2-y,-z
1/2-x,1/2+y,1/2-z
1/2-x,1/2-y,-z
1/2+x,1/2+y,1/2-z
1/2-x,1/2+y,z
1/2+x,1/2-y,1/2+z
loop_
_atom_site_type_symbol
_atom_site_label
_atom_site_fract_x
_atom_site_fract_y
_atom_site_fract_z
Si Si1 0.621872 0.287418 0.934442
Si Si2 0.686569 0.046764 0.750000
Si Si3 0.500000 0.173233 0.555097
Si Si4 0.187778 0.815885 0.250000
O O1 0.621375 0.355569 0.750000
O O2 0.652406 0.127243 0.896431
O O3 0.557741 0.257293 0.992927
O O4 0.656186 0.357339 0.082898
O O5 0.749915 0.113430 0.750000
O O6 0.689702 0.867545 0.750000
O O7 0.500000 0.170362 0.750000
O O8 0.500000 0.000000 0.500000
#
# Coordination Sequence:
#
# PCOD9468895 Si02
#       4
#    16   8   8   8
#     4   9  22  33  52  79 109 140 176 220 270 318
#     4  10  22  35  55  77 109 144 177 218 266 312
#     4  10  18  30  48  76 107 137 170 217 273 319
#     4  12  20  39  53  79 111 144 177 222 262 316
#
# _framework density 23.311572000000002
#
# number of rings (size 3 to 8) (size 9 to 14) (size 15 to 20)
#    1.200    0.800    0.000    4.800    2.800    0.000 
#    0.000    0.000    0.000    0.000    0.000    8.400 
#    0.000    0.000    0.000    0.000    0.000    0.000 
#
# Total GULP energy -111636.242555 kJ/mol
# GULP energy per Si atom -5581.812128 kJ/mol
# Density = 2.325851 g / cm^3
# Si number density = 23.311572 Si / 1000 Ang^3
#
#
#
# Elastic Constant Matrix: (Units=GPa)
#
#
# Indices 1 2 3 4 5 6 
#
# 1 203.9050 37.6540 57.6593 0.0000 0.0000 0.0000
# 2 37.6540 109.3009 48.3909 0.0000 0.0000 0.0000
# 3 57.6593 48.3909 99.0886 0.0000 0.0000 0.0000
# 4 0.0000 0.0000 0.0000 38.5662 0.0000 0.0000
# 5 0.0000 0.0000 0.0000 0.0000 75.2541 0.0000
# 6 0.0000 0.0000 0.0000 0.0000 0.0000 -79.9196
#
#
#
# Elastic Compliance Matrix: (Units=1/GPa)
#
#
# Indices 1 2 3 4 5 6 
#
# 1 0.005907 -0.000655 -0.003117 0.000000 0.000000 0.000000
# 2 -0.000655 0.011745 -0.005355 0.000000 0.000000 0.000000
# 3 -0.003117 -0.005355 0.014521 0.000000 0.000000 0.000000
# 4 0.000000 0.000000 0.000000 0.025929 0.000000 0.000000
# 5 0.000000 0.000000 0.000000 0.000000 0.013288 0.000000
# 6 0.000000 0.000000 0.000000 0.000000 0.000000 -0.012513
#
#
# Mechanical properties :
#
#
# Convention : Reuss Voigt Hill
#
# Bulk Modulus (GPa) = 71.84376 77.74475 74.79426
# Shear Modulus (GPa) = 61.14549 24.68617 42.91583
#
# Velocity S-wave (km/s) = 5.12705 3.25771 4.29530
# Velocity P-wave (km/s) = 8.12002 6.89731 7.53351
#
# Compressibility (1/GPa) = 0.01391909
#
# Stress axis : x y z
#
# Youngs Moduli (GPa) = 169.30078 85.13945 68.86522
#
# Poissons Ratio (x) = 0.05574 0.21468
# Poissons Ratio (y) = 0.11084 0.36878
# Poissons Ratio (z) = 0.52777 0.45592
#
# Static dielectric constant tensor:
#      x y z
#    x 1.850120 0.000000 0.000000 
#    y 0.000000 1.864370 0.000000 
#    z 0.000000 0.000000 1.875120 
# 
# From -- ./inp_files/7109.got.cif
#   From: 2010.05.17/outbox.cif.g08.bks.cpg/sg63_4_cif.got.tgz:7109.got - 2010.06.03 15:47:04.
