data_PCOD9468863
_publ_section_title
;
Structure prediction by ZEFSAII (Michael W. Deem and Ramdas Pophale) SiO2 
 PCOD9468863
Probable space group: C M C M
;
_chemical_formula_sum "Si O2"
_cell_formula_units_Z 96
_cell_length_a 8.256846
_cell_length_b 24.460066
_cell_length_c 26.767937
_cell_angle_alpha 90.000000
_cell_angle_beta 90.000000
_cell_angle_gamma 90.000000
_cell_volume 5406.132810
_symmetry_space_group_name_H-M "C M C M"
_symmetry_group_IT_number 63
_symmetry_cell_setting 'orthorhombic'
loop_
_space_group_symop_operation_xyz
x,y,z
-x,-y,1/2+z
x,-y,-z
-x,y,1/2-z
-x,-y,-z
x,y,1/2-z
-x,y,z
x,-y,1/2+z
1/2+x,1/2+y,z
1/2-x,1/2-y,1/2+z
1/2+x,1/2-y,-z
1/2-x,1/2+y,1/2-z
1/2-x,1/2-y,-z
1/2+x,1/2+y,1/2-z
1/2-x,1/2+y,z
1/2+x,1/2-y,1/2+z
loop_
_atom_site_type_symbol
_atom_site_label
_atom_site_fract_x
_atom_site_fract_y
_atom_site_fract_z
Si Si1 0.691766 0.913563 0.605173
Si Si2 0.695858 0.244902 0.881541
Si Si3 0.191307 0.983533 0.444184
Si Si4 0.689739 0.325481 0.530906
Si Si5 0.805112 0.335460 0.693539
Si Si6 0.188961 0.637520 0.927550
O O1 0.500000 0.903148 0.598643
O O2 0.787694 0.881248 0.562138
O O3 0.743049 0.885896 0.657437
O O4 0.726367 0.976918 0.596247
O O5 0.500000 0.245368 0.881967
O O6 0.748321 0.278957 0.930819
O O7 0.753276 0.279939 0.834454
O O8 0.749252 0.182168 0.887341
O O9 0.223080 0.920207 0.432572
O O10 0.000000 0.993836 0.443398
O O11 0.251971 0.000000 0.500000
O O12 0.500000 0.317426 0.519258
O O13 0.789786 0.332063 0.480671
O O14 0.742352 0.339202 0.750000
O O15 0.000000 0.336010 0.695521
O O16 0.000000 0.626575 0.918664
#
# Coordination Sequence:
#
# PCOD9468863 Si02
#       6
#    16  16  16  16  16  16
#     4  10  19  32  52  76 102 134 172 213 253 299
#     4   9  20  34  49  74 104 133 169 210 252 302
#     4  11  22  34  49  71 103 141 177 214 251 298
#     4  10  18  30  47  70 103 137 169 207 248 295
#     4   9  19  36  58  82 104 128 163 210 263 311
#     4  11  21  32  48  71 102 139 176 208 245 297
#
# _framework density 17.757611000000001
#
# number of rings (size 3 to 8) (size 9 to 14) (size 15 to 20)
#    0.000    2.000    1.667    2.500    0.000    3.667 
#    0.000    0.000    0.000    1.000    0.000    2.333 
#    0.000    0.000    0.000    0.000    0.000    0.000 
#
# Total GULP energy -267786.861162 kJ/mol
# GULP energy per Si atom -5578.892941 kJ/mol
# Density = 1.771719 g / cm^3
# Si number density = 17.757611 Si / 1000 Ang^3
#
#
#
# Elastic Constant Matrix: (Units=GPa)
#
#
# Indices 1 2 3 4 5 6 
#
# 1 19.8816 9.8859 5.5501 0.0000 0.0000 0.0000
# 2 9.8859 98.8670 50.5685 0.0000 0.0000 0.0000
# 3 5.5501 50.5685 97.1245 0.0000 0.0000 0.0000
# 4 0.0000 0.0000 0.0000 8.9193 0.0000 0.0000
# 5 0.0000 0.0000 0.0000 0.0000 17.7776 0.0000
# 6 0.0000 0.0000 0.0000 0.0000 0.0000 18.4222
#
#
#
# Elastic Compliance Matrix: (Units=1/GPa)
#
#
# Indices 1 2 3 4 5 6 
#
# 1 0.052939 -0.005106 -0.000367 0.000000 0.000000 0.000000
# 2 -0.005106 0.014278 -0.007142 0.000000 0.000000 0.000000
# 3 -0.000367 -0.007142 0.014036 0.000000 0.000000 0.000000
# 4 0.000000 0.000000 0.000000 0.112117 0.000000 0.000000
# 5 0.000000 0.000000 0.000000 0.000000 0.056251 0.000000
# 6 0.000000 0.000000 0.000000 0.000000 0.000000 0.054282
#
#
# Mechanical properties :
#
#
# Convention : Reuss Voigt Hill
#
# Bulk Modulus (GPa) = 17.84981 38.65357 28.25169
# Shear Modulus (GPa) = 14.37579 19.01505 16.69542
#
# Velocity S-wave (km/s) = 2.84836 3.27588 3.06957
# Velocity P-wave (km/s) = 4.57070 6.01025 5.33921
#
# Compressibility (1/GPa) = 0.05602301
#
# Stress axis : x y z
#
# Youngs Moduli (GPa) = 18.88972 70.03632 71.24678
#
# Poissons Ratio (x) = 0.35760 0.02613
# Poissons Ratio (y) = 0.09645 0.50887
# Poissons Ratio (z) = 0.00693 0.50022
#
# Static dielectric constant tensor:
#      x y z
#    x 1.608810 0.000000 0.000000 
#    y 0.000000 1.638000 0.000000 
#    z 0.000000 0.000000 1.600470 
# 
# From -- ./inp_files/59901.got.cif
#   From: 2010.05.17/outbox.cif.g08.bks.cpg/sg63_30_cif.got.tgz:59901.got - 2010.06.03 15:47:04.
