data_PCOD9468109
_publ_section_title
;
Structure prediction by ZEFSAII (Michael W. Deem and Ramdas Pophale) SiO2 
 PCOD9468109
Probable space group: C M C M
;
_chemical_formula_sum "Si O2"
_cell_formula_units_Z 80
_cell_length_a 27.991871
_cell_length_b 7.238801
_cell_length_c 15.895908
_cell_angle_alpha 90.000000
_cell_angle_beta 90.000000
_cell_angle_gamma 90.000000
_cell_volume 3220.949430
_symmetry_space_group_name_H-M "C M C M"
_symmetry_group_IT_number 63
_symmetry_cell_setting 'orthorhombic'
loop_
_space_group_symop_operation_xyz
x,y,z
-x,-y,1/2+z
x,-y,-z
-x,y,1/2-z
-x,-y,-z
x,y,1/2-z
-x,y,z
x,-y,1/2+z
1/2+x,1/2+y,z
1/2-x,1/2-y,1/2+z
1/2+x,1/2-y,-z
1/2-x,1/2+y,1/2-z
1/2-x,1/2-y,-z
1/2+x,1/2+y,1/2-z
1/2-x,1/2+y,z
1/2+x,1/2-y,1/2+z
loop_
_atom_site_type_symbol
_atom_site_label
_atom_site_fract_x
_atom_site_fract_y
_atom_site_fract_z
Si Si1 0.897755 0.127164 0.845630
Si Si2 0.798620 0.893866 0.083517
Si Si3 0.500000 0.602575 0.911496
Si Si4 0.201091 0.496578 0.651254
Si Si5 0.898104 0.422794 0.347157
Si Si6 0.000000 0.472474 0.144095
O O1 0.887555 0.083615 0.750000
O O2 0.852751 0.050468 0.895392
O O3 0.898693 0.351606 0.852621
O O4 0.949719 0.053739 0.868479
O O5 0.800884 0.673287 0.087016
O O6 0.754651 0.929222 0.146824
O O7 0.785249 0.000000 0.000000
O O8 0.500000 0.827329 0.901161
O O9 0.500000 0.500000 0.000000
O O10 0.192138 0.443619 0.750000
O O11 0.155900 0.625155 0.625217
O O12 0.900476 0.366021 0.250000
O O13 0.950449 0.374133 0.382447
O O14 0.000000 0.497144 0.250000
#
# Coordination Sequence:
#
# PCOD9468109 Si02
#       6
#    16  16   8  16  16   8
#     4   9  16  28  43  61  88 124 158 191 235 293
#     4  11  21  33  49  73 100 127 162 209 252 287
#     4  10  16  22  36  62  91 118 149 192 239 282
#     4  10  19  33  50  70  96 130 164 195 239 302
#     4   7  12  22  40  62  84 110 148 192 231 273
#     4   8  12  22  38  58  84 114 146 190 241 280
#
# _framework density 24.837395999999998
#
# number of rings (size 3 to 8) (size 9 to 14) (size 15 to 20)
#    0.000    2.800    0.000    6.300    0.000    0.000 
#    0.000    0.000    0.000    0.000    0.000    2.100 
#    0.000    3.200    0.000    0.000    0.000    0.000 
#
# Total GULP energy -222992.493067 kJ/mol
# GULP energy per Si atom -5574.812327 kJ/mol
# Density = 2.478086 g / cm^3
# Si number density = 24.837396 Si / 1000 Ang^3
#
#
#
# Elastic Constant Matrix: (Units=GPa)
#
#
# Indices 1 2 3 4 5 6 
#
# 1 236.6954 0.4898 24.5776 0.0000 0.0000 0.0000
# 2 0.4898 74.2235 -9.3809 0.0000 0.0000 0.0000
# 3 24.5776 -9.3809 38.3484 0.0000 0.0000 0.0000
# 4 0.0000 0.0000 0.0000 -1.4798 0.0000 0.0000
# 5 0.0000 0.0000 0.0000 0.0000 32.7598 0.0000
# 6 0.0000 0.0000 0.0000 0.0000 0.0000 -9.2176
#
#
#
# Elastic Compliance Matrix: (Units=1/GPa)
#
#
# Indices 1 2 3 4 5 6 
#
# 1 0.004538 -0.000410 -0.003009 0.000000 0.000000 0.000000
# 2 -0.000410 0.013940 0.003673 0.000000 0.000000 0.000000
# 3 -0.003009 0.003673 0.028904 0.000000 0.000000 0.000000
# 4 0.000000 0.000000 0.000000 -0.675763 0.000000 0.000000
# 5 0.000000 0.000000 0.000000 0.000000 0.030525 0.000000
# 6 0.000000 0.000000 0.000000 0.000000 0.000000 -0.108489
#
#
# Mechanical properties :
#
#
# Convention : Reuss Voigt Hill
#
# Bulk Modulus (GPa) = 20.88159 42.29338 31.58748
# Shear Modulus (GPa) = -7.23704 26.65119 9.70708
#
# Velocity S-wave (km/s) = -1.70883 3.27926 1.97907
# Velocity P-wave (km/s) = 2.12888 5.60385 4.23882
#
# Compressibility (1/GPa) = 0.04788907
#
# Stress axis : x y z
#
# Youngs Moduli (GPa) = 220.35572 71.73741 34.59778
#
# Poissons Ratio (x) = 0.02943 0.10410
# Poissons Ratio (y) = 0.09040 -0.12707
# Poissons Ratio (z) = 0.66302 -0.26348
#
# Static dielectric constant tensor:
#      x y z
#    x 2.247090 0.000000 0.000000 
#    y 0.000000 2.035130 0.000000 
#    z 0.000000 0.000000 2.092450 
# 
# From -- ./inp_files/37747.got.cif
#   From: 2010.05.17/outbox.cif.g08.bks.cpg/sg63_19_cif.got.tgz:37747.got - 2010.06.03 15:47:04.
