data_PCOD9468783
_publ_section_title
;
Structure prediction by ZEFSAII (Michael W. Deem and Ramdas Pophale) SiO2 
 PCOD9468783
Probable space group: C M C M
;
_chemical_formula_sum "Si O2"
_cell_formula_units_Z 64
_cell_length_a 7.385594
_cell_length_b 23.516772
_cell_length_c 17.027129
_cell_angle_alpha 90.000000
_cell_angle_beta 90.000000
_cell_angle_gamma 90.000000
_cell_volume 2957.362522
_symmetry_space_group_name_H-M "C M C M"
_symmetry_group_IT_number 63
_symmetry_cell_setting 'orthorhombic'
loop_
_space_group_symop_operation_xyz
x,y,z
-x,-y,1/2+z
x,-y,-z
-x,y,1/2-z
-x,-y,-z
x,y,1/2-z
-x,y,z
x,-y,1/2+z
1/2+x,1/2+y,z
1/2-x,1/2-y,1/2+z
1/2+x,1/2-y,-z
1/2-x,1/2+y,1/2-z
1/2-x,1/2-y,-z
1/2+x,1/2+y,1/2-z
1/2-x,1/2+y,z
1/2+x,1/2-y,1/2+z
loop_
_atom_site_type_symbol
_atom_site_label
_atom_site_fract_x
_atom_site_fract_y
_atom_site_fract_z
Si Si1 0.779766 0.466730 0.891321
Si Si2 0.207968 0.243177 0.250000
Si Si3 0.720184 0.084725 0.940625
Si Si4 0.779951 0.611650 0.250000
Si Si5 0.782712 0.713837 0.580175
O O1 0.722912 0.532598 0.884413
O O2 0.719946 0.424522 0.824366
O O3 0.000000 0.467678 0.890297
O O4 0.727870 0.438926 0.973962
O O5 0.211687 0.175291 0.250000
O O6 0.284907 0.262142 0.164620
O O7 0.000000 0.263895 0.250000
O O8 0.500000 0.087086 0.938156
O O9 0.783565 0.148759 0.927877
O O10 0.000000 0.614667 0.250000
O O11 0.750000 0.750000 0.500000
O O12 0.000000 0.712626 0.585551
#
# Coordination Sequence:
#
# PCOD9468783 Si02
#       5
#    16   8  16   8  16
#     4   8  14  24  42  69  93 113 147 199 246 281
#     4  10  22  35  47  71 105 136 165 200 248 302
#     4   8  14  26  43  65  94 122 150 191 244 290
#     4  10  18  29  49  73  93 120 163 206 242 288
#     4  10  20  34  52  73 101 137 170 203 247 298
#
# _framework density 21.640903999999999
#
# number of rings (size 3 to 8) (size 9 to 14) (size 15 to 20)
#    0.000    3.000    0.000    3.000    0.000    4.000 
#    0.000    5.000    0.000    1.500    0.000    8.750 
#    0.000    0.000    0.000    0.000    0.000    0.000 
#
# Total GULP energy -178367.759203 kJ/mol
# GULP energy per Si atom -5573.992475 kJ/mol
# Density = 2.159165 g / cm^3
# Si number density = 21.640904 Si / 1000 Ang^3
#
#
#
# Elastic Constant Matrix: (Units=GPa)
#
#
# Indices 1 2 3 4 5 6 
#
# 1 75.7802 -0.7868 4.7167 0.0000 0.0000 0.0000
# 2 -0.7868 236.3259 113.4673 0.0000 0.0000 0.0000
# 3 4.7167 113.4673 147.2486 0.0000 0.0000 0.0000
# 4 0.0000 0.0000 0.0000 38.8697 0.0000 0.0000
# 5 0.0000 0.0000 0.0000 0.0000 4.9644 0.0000
# 6 0.0000 0.0000 0.0000 0.0000 0.0000 9.5101
#
#
#
# Elastic Compliance Matrix: (Units=1/GPa)
#
#
# Indices 1 2 3 4 5 6 
#
# 1 0.013245 0.000393 -0.000727 0.000000 0.000000 0.000000
# 2 0.000393 0.006728 -0.005197 0.000000 0.000000 0.000000
# 3 -0.000727 -0.005197 0.010819 0.000000 0.000000 0.000000
# 4 0.000000 0.000000 0.000000 0.025727 0.000000 0.000000
# 5 0.000000 0.000000 0.000000 0.000000 0.201432 0.000000
# 6 0.000000 0.000000 0.000000 0.000000 0.000000 0.105151
#
#
# Mechanical properties :
#
#
# Convention : Reuss Voigt Hill
#
# Bulk Modulus (GPa) = 50.68299 77.12768 63.90534
# Shear Modulus (GPa) = 13.13222 33.46602 23.29912
#
# Velocity S-wave (km/s) = 2.46605 3.93673 3.28475
# Velocity P-wave (km/s) = 5.61955 7.50872 6.63175
#
# Compressibility (1/GPa) = 0.01973048
#
# Stress axis : x y z
#
# Youngs Moduli (GPa) = 75.49785 148.63136 92.42697
#
# Poissons Ratio (x) = -0.05846 0.06723
# Poissons Ratio (y) = -0.02970 0.48035
# Poissons Ratio (z) = 0.05492 0.77246
#
# Static dielectric constant tensor:
#      x y z
#    x 1.879490 0.000000 0.000000 
#    y 0.000000 1.758660 0.000000 
#    z 0.000000 0.000000 1.786910 
# 
# From -- ./inp_files/42008.got.cif
#   From: 2010.05.17/outbox.cif.g08.bks.cpg/sg63_22_cif.got.tgz:42008.got - 2010.06.03 15:47:04.
