data_PCOD9468886
_publ_section_title
;
Structure prediction by ZEFSAII (Michael W. Deem and Ramdas Pophale) SiO2 
 PCOD9468886
Probable space group: C M C M
;
_chemical_formula_sum "Si O2"
_cell_formula_units_Z 104
_cell_length_a 25.224312
_cell_length_b 26.120619
_cell_length_c 8.458155
_cell_angle_alpha 90.000000
_cell_angle_beta 90.000000
_cell_angle_gamma 90.000000
_cell_volume 5572.863859
_symmetry_space_group_name_H-M "C M C M"
_symmetry_group_IT_number 63
_symmetry_cell_setting 'orthorhombic'
loop_
_space_group_symop_operation_xyz
x,y,z
-x,-y,1/2+z
x,-y,-z
-x,y,1/2-z
-x,-y,-z
x,y,1/2-z
-x,y,z
x,-y,1/2+z
1/2+x,1/2+y,z
1/2-x,1/2-y,1/2+z
1/2+x,1/2-y,-z
1/2-x,1/2+y,1/2-z
1/2-x,1/2-y,-z
1/2+x,1/2+y,1/2-z
1/2-x,1/2+y,z
1/2+x,1/2-y,1/2+z
loop_
_atom_site_type_symbol
_atom_site_label
_atom_site_fract_x
_atom_site_fract_y
_atom_site_fract_z
Si Si1 0.000000 0.941517 0.937426
Si Si2 0.438811 0.267192 0.441353
Si Si3 0.392133 0.556672 0.563233
Si Si4 0.157466 0.843818 0.443136
Si Si5 0.112480 0.662785 0.940722
Si Si6 0.269367 0.804708 0.059551
Si Si7 0.937750 0.556639 0.439828
O O1 0.000000 0.941647 0.750000
O O2 0.052379 0.919047 0.009072
O O3 0.000000 0.000000 0.000000
O O4 0.438619 0.268659 0.250000
O O5 0.500000 0.280023 0.491687
O O6 0.389851 0.304749 0.495195
O O7 0.423841 0.209585 0.496090
O O8 0.385428 0.500000 0.500000
O O9 0.392303 0.552942 0.750000
O O10 0.352061 0.598335 0.504883
O O11 0.155586 0.841557 0.250000
O O12 0.217718 0.835462 0.491902
O O13 0.110934 0.663541 0.750000
O O14 0.172913 0.676249 0.994769
O O15 0.093319 0.606657 0.997052
O O16 0.272032 0.804091 0.250000
O O17 0.250000 0.750000 0.000000
O O18 0.920240 0.500000 0.500000
O O19 0.934639 0.556657 0.250000
O O20 0.000000 0.562105 0.486234
#
# Coordination Sequence:
#
# PCOD9468886 Si02
#       7
#     8  16  16  16  16  16  16
#     4  10  18  30  48  72 100 132 168 210 255 308
#     4  10  20  34  55  81 108 143 187 228 274 335
#     4  10  19  33  53  74 100 135 175 218 266 318
#     4   9  19  35  56  77 103 140 182 227 273 325
#     4  11  22  35  56  85 117 150 186 231 284 338
#     4  10  20  37  58  80 106 144 190 233 277 329
#     4  10  21  38  61  88 119 156 195 234 281 339
#
# _framework density 18.661860000000001
#
# number of rings (size 3 to 8) (size 9 to 14) (size 15 to 20)
#    0.000    2.000    1.538    3.462    1.077    3.692 
#    0.000    3.846    0.000    1.846    0.000    0.000 
#    0.000    0.000    0.000    0.000    0.000    0.000 
#
# Total GULP energy -289551.741973 kJ/mol
# GULP energy per Si atom -5568.302730 kJ/mol
# Density = 1.861938 g / cm^3
# Si number density = 18.661860 Si / 1000 Ang^3
#
#
#
# Elastic Constant Matrix: (Units=GPa)
#
#
# Indices 1 2 3 4 5 6 
#
# 1 121.7368 52.9716 13.6058 0.0000 0.0000 0.0000
# 2 52.9716 103.6759 19.3293 0.0000 0.0000 0.0000
# 3 13.6058 19.3293 15.0845 0.0000 0.0000 0.0000
# 4 0.0000 0.0000 0.0000 22.8427 0.0000 0.0000
# 5 0.0000 0.0000 0.0000 0.0000 7.3552 0.0000
# 6 0.0000 0.0000 0.0000 0.0000 0.0000 39.7561
#
#
#
# Elastic Compliance Matrix: (Units=1/GPa)
#
#
# Indices 1 2 3 4 5 6 
#
# 1 0.010700 -0.004819 -0.003476 0.000000 0.000000 0.000000
# 2 -0.004819 0.014843 -0.014674 0.000000 0.000000 0.000000
# 3 -0.003476 -0.014674 0.088232 0.000000 0.000000 0.000000
# 4 0.000000 0.000000 0.000000 0.043778 0.000000 0.000000
# 5 0.000000 0.000000 0.000000 0.000000 0.135959 0.000000
# 6 0.000000 0.000000 0.000000 0.000000 0.000000 0.025153
#
#
# Mechanical properties :
#
#
# Convention : Reuss Voigt Hill
#
# Bulk Modulus (GPa) = 14.74113 45.81228 30.27670
# Shear Modulus (GPa) = 12.91274 24.29682 18.60478
#
# Velocity S-wave (km/s) = 2.63331 3.61217 3.16086
# Velocity P-wave (km/s) = 4.14270 6.48066 5.43879
#
# Compressibility (1/GPa) = 0.06783743
#
# Stress axis : x y z
#
# Youngs Moduli (GPa) = 93.46006 67.37028 11.33378
#
# Poissons Ratio (x) = 0.32464 0.03940
# Poissons Ratio (y) = 0.45037 0.16631
# Poissons Ratio (z) = 0.32487 0.98859
#
# Static dielectric constant tensor:
#      x y z
#    x 1.642130 0.000000 0.000000 
#    y 0.000000 1.674560 0.000000 
#    z 0.000000 0.000000 1.748160 
# 
# From -- ./inp_files/10858.got.cif
#   From: 2010.05.17/outbox.cif.g08.bks.cpg/sg63_6_cif.got.tgz:10858.got - 2010.06.03 15:47:04.
