data_PCOD9468066
_publ_section_title
;
Structure prediction by ZEFSAII (Michael W. Deem and Ramdas Pophale) SiO2 
 PCOD9468066
Probable space group: P N M A
;
_chemical_formula_sum "Si O2"
_cell_formula_units_Z 40
_cell_length_a 12.000000
_cell_length_b 9.000000
_cell_length_c 18.000000
_cell_angle_alpha 90.000000
_cell_angle_beta 90.000000
_cell_angle_gamma 90.000000
_cell_volume 1944.000000
_symmetry_space_group_name_H-M "P N M A"
_symmetry_group_IT_number 62
_symmetry_cell_setting 'orthorhombic'
loop_
_space_group_symop_operation_xyz
x,y,z
1/2-x,-y,1/2+z
1/2+x,1/2-y,1/2-z
-x,1/2+y,-z
-x,-y,-z
1/2+x,y,1/2-z
1/2-x,1/2+y,1/2+z
x,1/2-y,z
loop_
_atom_site_type_symbol
_atom_site_label
_atom_site_fract_x
_atom_site_fract_y
_atom_site_fract_z
Si Si1 0.536984 0.575259 0.422628
Si Si2 0.109249 0.922299 0.797703
Si Si3 0.751429 0.423711 0.456766
Si Si4 0.973329 0.077798 0.370064
Si Si5 0.297062 0.422411 0.873270
O O1 0.500000 0.500000 0.500000
O O2 0.522234 0.750000 0.429026
O O3 0.468896 0.515103 0.352695
O O4 0.665363 0.528226 0.415038
O O5 0.098654 0.750000 0.817939
O O6 0.076603 0.939271 0.712303
O O7 0.233604 0.977543 0.813923
O O8 0.724837 0.250000 0.441696
O O9 0.876068 0.449921 0.428902
O O10 0.745286 0.447597 0.545025
O O11 0.010429 0.250000 0.378396
O O12 0.075487 0.968356 0.378748
O O13 0.283920 0.250000 0.854756
#
# Coordination Sequence:
#
# PCOD9468066 Si02
#       5
#     8   8   8   8   8
#     4  12  24  40  64  94 125 165 210 261 314 371
#     4  11  24  42  64  91 126 170 213 259 315 377
#     4  10  22  42  66  94 125 163 212 261 312 376
#     4  10  24  43  65  91 126 170 212 256 312 381
#     4  11  23  40  65  94 128 164 207 266 317 371
#
# _framework density 20.576132000000001
#
# number of rings (size 3 to 8) (size 9 to 14) (size 15 to 20)
#    0.000    1.200    2.000    3.600    2.800    3.200 
#    0.000    0.000    0.000    0.000    0.000    0.000 
#    0.000    0.000    0.000    0.000    0.000    0.000 
#
# Total GULP energy -223694.331419 kJ/mol
# GULP energy per Si atom -5592.358285 kJ/mol
# Density = 2.052930 g / cm^3
# Si number density = 20.576132 Si / 1000 Ang^3
#
#
#
# Elastic Constant Matrix: (Units=GPa)
#
#
# Indices 1 2 3 4 5 6 
#
# 1 57.5266 39.7265 3.8268 0.0000 0.0000 0.0000
# 2 39.7265 73.5937 28.6350 0.0000 0.0000 0.0000
# 3 3.8268 28.6350 18.0488 0.0000 0.0000 0.0000
# 4 0.0000 0.0000 0.0000 62.6795 0.0000 0.0000
# 5 0.0000 0.0000 0.0000 0.0000 45.2672 0.0000
# 6 0.0000 0.0000 0.0000 0.0000 0.0000 35.2687
#
#
#
# Elastic Compliance Matrix: (Units=1/GPa)
#
#
# Indices 1 2 3 4 5 6 
#
# 1 0.060615 -0.072434 0.102067 0.000000 0.000000 0.000000
# 2 -0.072434 0.122065 -0.178303 0.000000 0.000000 0.000000
# 3 0.102067 -0.178303 0.316647 0.000000 0.000000 0.000000
# 4 0.000000 0.000000 0.000000 0.015954 0.000000 0.000000
# 5 0.000000 0.000000 0.000000 0.000000 0.022091 0.000000
# 6 0.000000 0.000000 0.000000 0.000000 0.000000 0.028354
#
#
# Mechanical properties :
#
#
# Convention : Reuss Voigt Hill
#
# Bulk Modulus (GPa) = 4.95078 32.61617 18.78348
# Shear Modulus (GPa) = 5.37406 33.77516 19.57461
#
# Velocity S-wave (km/s) = 1.61786 4.05590 3.08770
# Velocity P-wave (km/s) = 2.42925 6.14977 4.67552
#
# Compressibility (1/GPa) = 0.20198824
#
# Stress axis : x y z
#
# Youngs Moduli (GPa) = 16.49758 8.19233 3.15809
#
# Poissons Ratio (x) = 0.59341 -0.32234
# Poissons Ratio (y) = 1.19499 0.56310
# Poissons Ratio (z) = -1.68387 1.46071
#
# Static dielectric constant tensor:
#      x y z
#    x 1.771150 0.000000 0.000000 
#    y 0.000000 1.690490 0.000000 
#    z 0.000000 0.000000 1.690050 
# 
# From -- ./inp_files/22766.got.cif
#   From: 2010.05.17/outbox.ucp.g08.bks.cvg/sg62_12_cif.got.tgz:22766.got - 2010.06.11 16:29:25.
