data_PCOD9468596
_publ_section_title
;
Structure prediction by ZEFSAII (Michael W. Deem and Ramdas Pophale) SiO2 
 PCOD9468596
Probable space group: C M C M
;
_chemical_formula_sum "Si O2"
_cell_formula_units_Z 112
_cell_length_a 7.343089
_cell_length_b 30.479431
_cell_length_c 23.660218
_cell_angle_alpha 90.000000
_cell_angle_beta 90.000000
_cell_angle_gamma 90.000000
_cell_volume 5295.468500
_symmetry_space_group_name_H-M "C M C M"
_symmetry_group_IT_number 63
_symmetry_cell_setting 'orthorhombic'
loop_
_space_group_symop_operation_xyz
x,y,z
-x,-y,1/2+z
x,-y,-z
-x,y,1/2-z
-x,-y,-z
x,y,1/2-z
-x,y,z
x,-y,1/2+z
1/2+x,1/2+y,z
1/2-x,1/2-y,1/2+z
1/2+x,1/2-y,-z
1/2-x,1/2+y,1/2-z
1/2-x,1/2-y,-z
1/2+x,1/2+y,1/2-z
1/2-x,1/2+y,z
1/2+x,1/2-y,1/2+z
loop_
_atom_site_type_symbol
_atom_site_label
_atom_site_fract_x
_atom_site_fract_y
_atom_site_fract_z
Si Si1 0.722916 0.648237 0.412178
Si Si2 0.780721 0.191711 0.852418
Si Si3 0.278623 0.556020 0.449261
Si Si4 0.222263 0.096675 0.687130
Si Si5 0.283070 0.700554 0.979694
Si Si6 0.221758 0.957645 0.076863
Si Si7 0.284587 0.289773 0.688195
O O1 0.500000 0.649472 0.411940
O O2 0.777966 0.597574 0.412345
O O3 0.784470 0.668761 0.471488
O O4 0.787307 0.679498 0.361783
O O5 0.720707 0.147305 0.821907
O O6 0.712195 0.192599 0.916947
O O7 0.735438 0.238245 0.824859
O O8 0.000000 0.189817 0.853513
O O9 0.500000 0.555313 0.449944
O O10 0.223723 0.561110 0.515238
O O11 0.222091 0.508693 0.425728
O O12 0.278251 0.081673 0.750000
O O13 0.282048 0.068328 0.632705
O O14 0.000000 0.095799 0.686464
O O15 0.500000 0.694035 0.976424
O O16 0.250000 0.750000 0.000000
O O17 0.000000 0.956320 0.077645
O O18 0.208114 0.299350 0.750000
O O19 0.500000 0.298310 0.690082
#
# Coordination Sequence:
#
# PCOD9468596 Si02
#       7
#    16  16  16  16  16  16  16
#     4   9  16  27  41  58  83 114 145 178 216 257
#     4  10  19  30  46  66  87 115 150 183 219 262
#     4   8  13  22  38  56  76 105 141 177 212 256
#     4   9  16  25  37  56  84 113 139 173 219 264
#     4  10  18  28  44  65  87 113 144 180 220 257
#     4   8  13  22  36  56  79 105 138 173 213 261
#     4  10  20  32  44  59  85 121 154 182 214 255
#
# _framework density 21.150158999999999
#
# number of rings (size 3 to 8) (size 9 to 14) (size 15 to 20)
#    0.000    2.857    1.429    2.143    0.000    4.286 
#    0.000    0.714    0.000    4.286    0.000    0.000 
#    0.000    2.286    0.000   12.143    0.000   12.429 
#
# Total GULP energy -312586.453413 kJ/mol
# GULP energy per Si atom -5581.900954 kJ/mol
# Density = 2.110202 g / cm^3
# Si number density = 21.150159 Si / 1000 Ang^3
#
#
#
# Elastic Constant Matrix: (Units=GPa)
#
#
# Indices 1 2 3 4 5 6 
#
# 1 79.7920 -6.0101 2.3863 0.0000 0.0000 0.0000
# 2 -6.0101 134.7475 69.1915 0.0000 0.0000 0.0000
# 3 2.3863 69.1915 139.7553 0.0000 0.0000 0.0000
# 4 0.0000 0.0000 0.0000 22.5897 0.0000 0.0000
# 5 0.0000 0.0000 0.0000 0.0000 -4.6233 0.0000
# 6 0.0000 0.0000 0.0000 0.0000 0.0000 7.1576
#
#
#
# Elastic Compliance Matrix: (Units=1/GPa)
#
#
# Indices 1 2 3 4 5 6 
#
# 1 0.012620 0.000903 -0.000663 0.000000 0.000000 0.000000
# 2 0.000903 0.010016 -0.004974 0.000000 0.000000 0.000000
# 3 -0.000663 -0.004974 0.009629 0.000000 0.000000 0.000000
# 4 0.000000 0.000000 0.000000 0.044268 0.000000 0.000000
# 5 0.000000 0.000000 0.000000 0.000000 -0.216296 0.000000
# 6 0.000000 0.000000 0.000000 0.000000 0.000000 0.139712
#
#
# Mechanical properties :
#
#
# Convention : Reuss Voigt Hill
#
# Bulk Modulus (GPa) = 43.86293 53.93670 48.89982
# Shear Modulus (GPa) = 293.85097 24.27328 159.06212
#
# Velocity S-wave (km/s) = 11.79988 3.39139 8.68155
# Velocity P-wave (km/s) = 14.36779 6.39473 11.12039
#
# Compressibility (1/GPa) = 0.02279829
#
# Stress axis : x y z
#
# Youngs Moduli (GPa) = 79.23658 99.84292 103.84953
#
# Poissons Ratio (x) = -0.09017 0.06882
# Poissons Ratio (y) = -0.07156 0.51656
# Poissons Ratio (z) = 0.05251 0.49663
#
# Static dielectric constant tensor:
#      x y z
#    x 1.835730 0.000000 0.000000 
#    y 0.000000 1.730790 0.000000 
#    z 0.000000 0.000000 1.913430 
# 
# From -- ./inp_files/62123.got.cif
#   From: 2010.05.17/outbox.cif.g08.bks.cpg/sg63_32_cif.got.tgz:62123.got - 2010.06.03 15:47:04.
