data_PCOD9468683
_publ_section_title
;
Structure prediction by ZEFSAII (Michael W. Deem and Ramdas Pophale) SiO2 
 PCOD9468683
Probable space group: C M C M
;
_chemical_formula_sum "Si O2"
_cell_formula_units_Z 96
_cell_length_a 30.374606
_cell_length_b 25.058897
_cell_length_c 8.795451
_cell_angle_alpha 90.000000
_cell_angle_beta 90.000000
_cell_angle_gamma 90.000000
_cell_volume 6694.693794
_symmetry_space_group_name_H-M "C M C M"
_symmetry_group_IT_number 63
_symmetry_cell_setting 'orthorhombic'
loop_
_space_group_symop_operation_xyz
x,y,z
-x,-y,1/2+z
x,-y,-z
-x,y,1/2-z
-x,-y,-z
x,y,1/2-z
-x,y,z
x,-y,1/2+z
1/2+x,1/2+y,z
1/2-x,1/2-y,1/2+z
1/2+x,1/2-y,-z
1/2-x,1/2+y,1/2-z
1/2-x,1/2-y,-z
1/2+x,1/2+y,1/2-z
1/2-x,1/2+y,z
1/2+x,1/2-y,1/2+z
loop_
_atom_site_type_symbol
_atom_site_label
_atom_site_fract_x
_atom_site_fract_y
_atom_site_fract_z
Si Si1 0.316561 0.719939 0.432145
Si Si2 0.621575 0.361532 0.071385
Si Si3 0.720401 0.173048 0.065561
Si Si4 0.787530 0.555299 0.423495
Si Si5 0.818518 0.054742 0.075094
Si Si6 0.551655 0.441793 0.931730
O O1 0.319045 0.720355 0.250000
O O2 0.360629 0.693214 0.498477
O O3 0.307695 0.778705 0.497397
O O4 0.271669 0.686597 0.472227
O O5 0.614720 0.355716 0.250000
O O6 0.662328 0.400232 0.031886
O O7 0.580823 0.393542 0.997592
O O8 0.718079 0.173122 0.250000
O O9 0.704423 0.114629 0.010815
O O10 0.802252 0.500000 0.500000
O O11 0.803325 0.554650 0.250000
O O12 0.734169 0.554002 0.421113
O O13 0.833614 0.061712 0.250000
O O14 0.833557 0.000000 0.000000
O O15 0.556792 0.444084 0.750000
O O16 0.500000 0.433357 0.967185
O O17 0.563732 0.500000 0.000000
#
# Coordination Sequence:
#
# PCOD9468683 Si02
#       6
#    16  16  16  16  16  16
#     4  10  19  31  45  61  82 109 142 179 217 261
#     4  12  22  31  45  64  84 109 140 176 217 264
#     4   9  17  31  44  59  83 110 140 178 220 260
#     4   9  17  28  41  57  79 105 136 174 212 252
#     4  10  18  29  40  56  79 104 134 173 215 254
#     4  10  21  37  54  69  87 112 142 180 227 276
#
# _framework density 14.339715
#
# number of rings (size 3 to 8) (size 9 to 14) (size 15 to 20)
#    0.000    2.000    1.667    3.500    0.000    3.000 
#    0.000    0.000    0.000    0.000    0.000    0.000 
#    0.000    0.000    0.000    0.000    0.000    0.833 
#
# Total GULP energy -267407.585837 kJ/mol
# GULP energy per Si atom -5570.991372 kJ/mol
# Density = 1.430708 g / cm^3
# Si number density = 14.339715 Si / 1000 Ang^3
#
#
#
# Elastic Constant Matrix: (Units=GPa)
#
#
# Indices 1 2 3 4 5 6 
#
# 1 52.2912 36.1118 23.3183 0.0000 0.0000 0.0000
# 2 36.1118 132.6795 40.5119 0.0000 0.0000 0.0000
# 3 23.3183 40.5119 53.2640 0.0000 0.0000 0.0000
# 4 0.0000 0.0000 0.0000 23.0766 0.0000 0.0000
# 5 0.0000 0.0000 0.0000 0.0000 10.6992 0.0000
# 6 0.0000 0.0000 0.0000 0.0000 0.0000 27.4099
#
#
#
# Elastic Compliance Matrix: (Units=1/GPa)
#
#
# Indices 1 2 3 4 5 6 
#
# 1 0.025795 -0.004653 -0.007753 0.000000 0.000000 0.000000
# 2 -0.004653 0.010656 -0.006068 0.000000 0.000000 0.000000
# 3 -0.007753 -0.006068 0.026784 0.000000 0.000000 0.000000
# 4 0.000000 0.000000 0.000000 0.043334 0.000000 0.000000
# 5 0.000000 0.000000 0.000000 0.000000 0.093465 0.000000
# 6 0.000000 0.000000 0.000000 0.000000 0.000000 0.036483
#
#
# Mechanical properties :
#
#
# Convention : Reuss Voigt Hill
#
# Bulk Modulus (GPa) = 38.04339 48.67987 43.36163
# Shear Modulus (GPa) = 17.71621 21.45666 19.58643
#
# Velocity S-wave (km/s) = 3.51873 3.87241 3.69980
# Velocity P-wave (km/s) = 6.56478 7.34952 6.96820
#
# Compressibility (1/GPa) = 0.02628578
#
# Stress axis : x y z
#
# Youngs Moduli (GPa) = 38.76784 93.84240 37.33597
#
# Poissons Ratio (x) = 0.43667 0.28948
# Poissons Ratio (y) = 0.18039 0.22655
# Poissons Ratio (z) = 0.30058 0.56942
#
# Static dielectric constant tensor:
#      x y z
#    x 1.464000 0.000000 0.000000 
#    y 0.000000 1.466770 0.000000 
#    z 0.000000 0.000000 1.489060 
# 
# From -- ./inp_files/12741.got.cif
#   From: 2010.05.17/outbox.cif.g08.bks.cpg/sg63_7_cif.got.tgz:12741.got - 2010.06.03 15:47:04.
