data_PCOD9468964
_publ_section_title
;
Structure prediction by ZEFSAII (Michael W. Deem and Ramdas Pophale) SiO2 
 PCOD9468964
Probable space group: C M C M
;
_chemical_formula_sum "Si O2"
_cell_formula_units_Z 96
_cell_length_a 14.398044
_cell_length_b 19.307355
_cell_length_c 15.045412
_cell_angle_alpha 90.000000
_cell_angle_beta 90.000000
_cell_angle_gamma 90.000000
_cell_volume 4182.446200
_symmetry_space_group_name_H-M "C M C M"
_symmetry_group_IT_number 63
_symmetry_cell_setting 'orthorhombic'
loop_
_space_group_symop_operation_xyz
x,y,z
-x,-y,1/2+z
x,-y,-z
-x,y,1/2-z
-x,-y,-z
x,y,1/2-z
-x,y,z
x,-y,1/2+z
1/2+x,1/2+y,z
1/2-x,1/2-y,1/2+z
1/2+x,1/2-y,-z
1/2-x,1/2+y,1/2-z
1/2-x,1/2-y,-z
1/2+x,1/2+y,1/2-z
1/2-x,1/2+y,z
1/2+x,1/2-y,1/2+z
loop_
_atom_site_type_symbol
_atom_site_label
_atom_site_fract_x
_atom_site_fract_y
_atom_site_fract_z
Si Si1 0.242907 0.267965 0.102141
Si Si2 0.101654 0.536844 0.146064
Si Si3 0.108123 0.134242 0.610002
Si Si4 0.096880 0.628692 0.853748
Si Si5 0.690000 0.487908 0.603295
Si Si6 0.395507 0.349695 0.607368
O O1 0.339291 0.295730 0.141831
O O2 0.181757 0.337139 0.100160
O O3 0.181012 0.205562 0.140523
O O4 0.250000 0.250000 0.000000
O O5 0.104639 0.557165 0.250000
O O6 0.096315 0.453497 0.141596
O O7 0.205287 0.544976 0.107743
O O8 0.000000 0.561909 0.109383
O O9 0.163723 0.064333 0.640284
O O10 0.109641 0.142775 0.501298
O O11 0.000000 0.129221 0.635405
O O12 0.101995 0.647032 0.750000
O O13 0.000000 0.655258 0.891801
O O14 0.670020 0.500000 0.500000
O O15 0.626150 0.426948 0.640590
O O16 0.500000 0.327969 0.630228
#
# Coordination Sequence:
#
# PCOD9468964 Si02
#       6
#    16  16  16  16  16  16
#     4  10  18  30  50  76 105 135 171 219 263 307
#     4   9  18  33  53  76 102 134 171 212 260 310
#     4   9  17  30  48  71 100 138 177 210 250 302
#     4   9  17  31  53  77 100 131 173 220 264 306
#     4  10  18  31  52  75 103 133 173 215 254 305
#     4   9  18  30  47  74 105 135 166 207 261 307
#
# _framework density 22.953075999999999
#
# number of rings (size 3 to 8) (size 9 to 14) (size 15 to 20)
#    0.000    2.667    1.667    2.000    0.000    3.000 
#    0.000    1.667    0.000    4.500    0.000    0.000 
#    0.000    0.000    0.000    0.000    0.000    0.000 
#
# Total GULP energy -267223.824379 kJ/mol
# GULP energy per Si atom -5567.163008 kJ/mol
# Density = 2.290083 g / cm^3
# Si number density = 22.953076 Si / 1000 Ang^3
#
#
#
# Elastic Constant Matrix: (Units=GPa)
#
#
# Indices 1 2 3 4 5 6 
#
# 1 123.4512 54.2272 -4.0022 0.0000 0.0000 0.0000
# 2 54.2272 92.4379 2.7390 0.0000 0.0000 0.0000
# 3 -4.0022 2.7390 37.8139 0.0000 0.0000 0.0000
# 4 0.0000 0.0000 0.0000 -51.2969 0.0000 0.0000
# 5 0.0000 0.0000 0.0000 0.0000 -147.8995 0.0000
# 6 0.0000 0.0000 0.0000 0.0000 0.0000 36.9256
#
#
#
# Elastic Compliance Matrix: (Units=1/GPa)
#
#
# Indices 1 2 3 4 5 6 
#
# 1 0.011013 -0.006509 0.001637 0.000000 0.000000 0.000000
# 2 -0.006509 0.014688 -0.001753 0.000000 0.000000 0.000000
# 3 0.001637 -0.001753 0.026746 0.000000 0.000000 0.000000
# 4 0.000000 0.000000 0.000000 -0.019494 0.000000 0.000000
# 5 0.000000 0.000000 0.000000 0.000000 -0.006761 0.000000
# 6 0.000000 0.000000 0.000000 0.000000 0.000000 0.027081
#
#
# Mechanical properties :
#
#
# Convention : Reuss Voigt Hill
#
# Bulk Modulus (GPa) = 25.51209 39.95901 32.73555
# Shear Modulus (GPa) = 62.82427 -19.07156 21.87635
#
# Velocity S-wave (km/s) = 5.23738 -2.88565 3.09057
# Velocity P-wave (km/s) = 6.90743 2.51876 5.19888
#
# Compressibility (1/GPa) = 0.03919711
#
# Stress axis : x y z
#
# Youngs Moduli (GPa) = 90.80588 68.08137 37.38940
#
# Poissons Ratio (x) = 0.44313 -0.06121
# Poissons Ratio (y) = 0.59104 0.06554
# Poissons Ratio (z) = -0.14865 0.11934
#
# Static dielectric constant tensor:
#      x y z
#    x 2.015520 0.000000 0.000000 
#    y 0.000000 1.863260 0.000000 
#    z 0.000000 0.000000 1.864660 
# 
# From -- ./inp_files/52868.got.cif
#   From: 2010.05.17/outbox.cif.g08.bks.cpg/sg63_27_cif.got.tgz:52868.got - 2010.06.03 15:47:04.
