data_PCOD9468718
_publ_section_title
;
Structure prediction by ZEFSAII (Michael W. Deem and Ramdas Pophale) SiO2 
 PCOD9468718
Probable space group: C M C M
;
_chemical_formula_sum "Si O2"
_cell_formula_units_Z 128
_cell_length_a 25.079079
_cell_length_b 11.818200
_cell_length_c 21.835305
_cell_angle_alpha 90.000000
_cell_angle_beta 90.000000
_cell_angle_gamma 90.000000
_cell_volume 6471.756691
_symmetry_space_group_name_H-M "C M C M"
_symmetry_group_IT_number 63
_symmetry_cell_setting 'orthorhombic'
loop_
_space_group_symop_operation_xyz
x,y,z
-x,-y,1/2+z
x,-y,-z
-x,y,1/2-z
-x,-y,-z
x,y,1/2-z
-x,y,z
x,-y,1/2+z
1/2+x,1/2+y,z
1/2-x,1/2-y,1/2+z
1/2+x,1/2-y,-z
1/2-x,1/2+y,1/2-z
1/2-x,1/2-y,-z
1/2+x,1/2+y,1/2-z
1/2-x,1/2+y,z
1/2+x,1/2-y,1/2+z
loop_
_atom_site_type_symbol
_atom_site_label
_atom_site_fract_x
_atom_site_fract_y
_atom_site_fract_z
Si Si1 0.436781 0.174693 0.180082
Si Si2 0.397358 0.972914 0.930962
Si Si3 0.725160 0.548767 0.568418
Si Si4 0.340885 0.761126 0.529211
Si Si5 0.061783 0.132863 0.482655
Si Si6 0.439904 0.423621 0.178144
Si Si7 0.636853 0.389899 0.869770
Si Si8 0.175204 0.332936 0.105793
O O1 0.417026 0.146443 0.250000
O O2 0.500000 0.188013 0.185559
O O3 0.427618 0.087703 0.124758
O O4 0.417601 0.300156 0.160190
O O5 0.348397 0.885839 0.943979
O O6 0.376394 0.089911 0.903857
O O7 0.420003 0.000000 0.000000
O O8 0.738326 0.500000 0.500000
O O9 0.694285 0.667783 0.561616
O O10 0.683867 0.460733 0.597878
O O11 0.775342 0.581493 0.610884
O O12 0.400592 0.709878 0.524263
O O13 0.316937 0.775733 0.461188
O O14 0.090544 0.145084 0.417761
O O15 0.000000 0.164405 0.484263
O O16 0.066590 0.000000 0.500000
O O17 0.447760 0.412961 0.250000
O O18 0.500000 0.444566 0.150039
O O19 0.396760 0.521697 0.169788
O O20 0.663309 0.271290 0.848888
#
# Coordination Sequence:
#
# PCOD9468718 Si02
#       8
#    16  16  16  16  16  16  16  16
#     4   9  19  37  62  89 115 150 199 247 294 362
#     4  10  21  36  53  81 122 158 202 245 301 360
#     4  12  19  32  53  79 110 155 199 238 291 348
#     4  10  18  33  49  77 111 151 191 240 291 347
#     4  10  18  29  45  76 113 140 174 223 288 353
#     4   9  19  38  65  92 112 141 190 249 309 365
#     4  11  20  35  53  80 112 145 187 236 293 348
#     4  10  23  33  50  77 116 153 193 242 286 348
#
# _framework density 19.778245999999999
#
# number of rings (size 3 to 8) (size 9 to 14) (size 15 to 20)
#    0.000    1.875    3.750    3.375    1.750    0.750 
#    0.000    6.250    0.000    3.000    0.000    0.000 
#    0.000    0.000    0.000    0.000    0.000    0.000 
#
# Total GULP energy -356273.343930 kJ/mol
# GULP energy per Si atom -5566.770999 kJ/mol
# Density = 1.973323 g / cm^3
# Si number density = 19.778246 Si / 1000 Ang^3
#
#
#
# Elastic Constant Matrix: (Units=GPa)
#
#
# Indices 1 2 3 4 5 6 
#
# 1 79.4451 26.9531 14.3670 0.0000 0.0000 0.0000
# 2 26.9531 113.9369 27.8964 0.0000 0.0000 0.0000
# 3 14.3670 27.8964 61.9147 0.0000 0.0000 0.0000
# 4 0.0000 0.0000 0.0000 27.2586 0.0000 0.0000
# 5 0.0000 0.0000 0.0000 0.0000 11.9737 0.0000
# 6 0.0000 0.0000 0.0000 0.0000 0.0000 18.0361
#
#
#
# Elastic Compliance Matrix: (Units=1/GPa)
#
#
# Indices 1 2 3 4 5 6 
#
# 1 0.013894 -0.002807 -0.001959 0.000000 0.000000 0.000000
# 2 -0.002807 0.010432 -0.004049 0.000000 0.000000 0.000000
# 3 -0.001959 -0.004049 0.018430 0.000000 0.000000 0.000000
# 4 0.000000 0.000000 0.000000 0.036686 0.000000 0.000000
# 5 0.000000 0.000000 0.000000 0.000000 0.083516 0.000000
# 6 0.000000 0.000000 0.000000 0.000000 0.000000 0.055444
#
#
# Mechanical properties :
#
#
# Convention : Reuss Voigt Hill
#
# Bulk Modulus (GPa) = 39.79984 43.74776 41.77380
# Shear Modulus (GPa) = 20.45755 23.85903 22.15829
#
# Velocity S-wave (km/s) = 3.21961 3.47699 3.35077
# Velocity P-wave (km/s) = 5.82992 6.18760 6.01142
#
# Compressibility (1/GPa) = 0.02512573
#
# Stress axis : x y z
#
# Youngs Moduli (GPa) = 71.97364 95.85712 54.25871
#
# Poissons Ratio (x) = 0.26908 0.10631
# Poissons Ratio (y) = 0.20204 0.21969
# Poissons Ratio (z) = 0.14102 0.38812
#
# Static dielectric constant tensor:
#      x y z
#    x 1.733700 0.000000 0.000000 
#    y 0.000000 1.818940 0.000000 
#    z 0.000000 0.000000 1.744410 
# 
# From -- ./inp_files/65164.got.cif
#   From: 2010.05.17/outbox.cif.g08.bks.cpg/sg63_33_cif.got.tgz:65164.got - 2010.06.03 15:47:04.
