data_PCOD9468243
_publ_section_title
;
Structure prediction by ZEFSAII (Michael W. Deem and Ramdas Pophale) SiO2 
 PCOD9468243
Probable space group: C M C M
;
_chemical_formula_sum "Si O2"
_cell_formula_units_Z 40
_cell_length_a 13.288365
_cell_length_b 30.541367
_cell_length_c 5.490842
_cell_angle_alpha 90.000000
_cell_angle_beta 90.000000
_cell_angle_gamma 90.000000
_cell_volume 2228.429851
_symmetry_space_group_name_H-M "C M C M"
_symmetry_group_IT_number 63
_symmetry_cell_setting 'orthorhombic'
loop_
_space_group_symop_operation_xyz
x,y,z
-x,-y,1/2+z
x,-y,-z
-x,y,1/2-z
-x,-y,-z
x,y,1/2-z
-x,y,z
x,-y,1/2+z
1/2+x,1/2+y,z
1/2-x,1/2-y,1/2+z
1/2+x,1/2-y,-z
1/2-x,1/2+y,1/2-z
1/2-x,1/2-y,-z
1/2+x,1/2+y,1/2-z
1/2-x,1/2+y,z
1/2+x,1/2-y,1/2+z
loop_
_atom_site_type_symbol
_atom_site_label
_atom_site_fract_x
_atom_site_fract_y
_atom_site_fract_z
Si Si1 0.323138 0.774309 0.750000
Si Si2 0.622584 0.625620 0.250000
Si Si3 0.113485 0.732224 0.750000
Si Si4 0.122478 0.976398 0.750000
Si Si5 0.379743 0.671152 0.750000
O O1 0.202921 0.768136 0.750000
O O2 0.366382 0.793204 0.500561
O O3 0.359479 0.723144 0.750000
O O4 0.500000 0.628126 0.250000
O O5 0.650672 0.574607 0.250000
O O6 0.657155 0.648228 0.501757
O O7 0.000000 0.750046 0.750000
O O8 0.000000 0.977963 0.750000
O O9 0.155349 0.000000 0.500000
O O10 0.500000 0.666111 0.750000
#
# Coordination Sequence:
#
# PCOD9468243 Si02
#       5
#     8   8   8   8   8
#     4  10  20  30  45  64  80 107 138 167 210 249
#     4   9  17  25  35  52  72  98 129 161 194 227
#     4  10  19  32  46  62  83 104 136 174 205 244
#     4   9  15  23  34  47  66  93 127 161 187 217
#     4  10  17  26  38  53  76 100 128 163 197 233
#
# _framework density 17.949857000000002
#
# number of rings (size 3 to 8) (size 9 to 14) (size 15 to 20)
#    0.000    2.400    0.000    4.200    0.000    6.400 
#    0.000    0.000    0.000    0.000    0.000    0.000 
#    0.000    0.000    0.000    0.000    0.000   20.000 
#
# Total GULP energy -111494.992780 kJ/mol
# GULP energy per Si atom -5574.749639 kJ/mol
# Density = 1.790900 g / cm^3
# Si number density = 17.949857 Si / 1000 Ang^3
#
#
#
# Elastic Constant Matrix: (Units=GPa)
#
#
# Indices 1 2 3 4 5 6 
#
# 1 69.2891 0.0419 27.0561 0.0000 0.0000 0.0000
# 2 0.0419 73.7013 41.4249 0.0000 0.0000 0.0000
# 3 27.0561 41.4249 195.6387 0.0000 0.0000 0.0000
# 4 0.0000 0.0000 0.0000 20.5835 0.0000 0.0000
# 5 0.0000 0.0000 0.0000 0.0000 17.6367 0.0000
# 6 0.0000 0.0000 0.0000 0.0000 0.0000 11.4302
#
#
#
# Elastic Compliance Matrix: (Units=1/GPa)
#
#
# Indices 1 2 3 4 5 6 
#
# 1 0.015373 0.001346 -0.002411 0.000000 0.000000 0.000000
# 2 0.001346 0.015519 -0.003472 0.000000 0.000000 0.000000
# 3 -0.002411 -0.003472 0.006180 0.000000 0.000000 0.000000
# 4 0.000000 0.000000 0.000000 0.048583 0.000000 0.000000
# 5 0.000000 0.000000 0.000000 0.000000 0.056700 0.000000
# 6 0.000000 0.000000 0.000000 0.000000 0.000000 0.087488
#
#
# Mechanical properties :
#
#
# Convention : Reuss Voigt Hill
#
# Bulk Modulus (GPa) = 35.71632 52.85278 44.28455
# Shear Modulus (GPa) = 20.14106 27.93716 24.03911
#
# Velocity S-wave (km/s) = 3.35337 3.94940 3.66353
# Velocity P-wave (km/s) = 5.91054 7.09265 6.52840
#
# Compressibility (1/GPa) = 0.02799840
#
# Stress axis : x y z
#
# Youngs Moduli (GPa) = 65.04926 64.43651 161.80870
#
# Poissons Ratio (x) = -0.08676 0.39014
# Poissons Ratio (y) = -0.08759 0.56184
# Poissons Ratio (z) = 0.15684 0.22374
#
# Static dielectric constant tensor:
#      x y z
#    x 1.627170 0.000000 0.000000 
#    y 0.000000 1.601730 0.000000 
#    z 0.000000 0.000000 1.763900 
# 
# From -- ./inp_files/575.got.cif
#   From: 2010.05.17/outbox.cif.g08.bks.cpg/sg63_1_cif.got.tgz:575.got - 2010.06.03 15:47:04.
