data_PCOD9468383
_publ_section_title
;
Structure prediction by ZEFSAII (Michael W. Deem and Ramdas Pophale) SiO2 
 PCOD9468383
Probable space group: C M C M
;
_chemical_formula_sum "Si O2"
_cell_formula_units_Z 112
_cell_length_a 22.809480
_cell_length_b 19.201890
_cell_length_c 14.396232
_cell_angle_alpha 90.000000
_cell_angle_beta 90.000000
_cell_angle_gamma 90.000000
_cell_volume 6305.335485
_symmetry_space_group_name_H-M "C M C M"
_symmetry_group_IT_number 63
_symmetry_cell_setting 'orthorhombic'
loop_
_space_group_symop_operation_xyz
x,y,z
-x,-y,1/2+z
x,-y,-z
-x,y,1/2-z
-x,-y,-z
x,y,1/2-z
-x,y,z
x,-y,1/2+z
1/2+x,1/2+y,z
1/2-x,1/2-y,1/2+z
1/2+x,1/2-y,-z
1/2-x,1/2+y,1/2-z
1/2-x,1/2-y,-z
1/2+x,1/2+y,1/2-z
1/2-x,1/2+y,z
1/2+x,1/2-y,1/2+z
loop_
_atom_site_type_symbol
_atom_site_label
_atom_site_fract_x
_atom_site_fract_y
_atom_site_fract_z
Si Si1 0.265396 0.353039 0.362799
Si Si2 0.935015 0.438218 0.424331
Si Si3 0.677834 0.727445 0.362240
Si Si4 0.369729 0.740358 0.860449
Si Si5 0.280728 0.133298 0.137298
Si Si6 0.691305 0.980406 0.359714
Si Si7 0.564890 0.775795 0.469450
O O1 0.265516 0.354078 0.250000
O O2 0.218815 0.293218 0.388139
O O3 0.329989 0.326282 0.387516
O O4 0.238987 0.425522 0.396680
O O5 0.935858 0.500000 0.500000
O O6 0.874904 0.452512 0.369972
O O7 0.930037 0.359972 0.464383
O O8 0.000000 0.441375 0.377265
O O9 0.671983 0.726429 0.250000
O O10 0.716671 0.660739 0.392183
O O11 0.615784 0.740248 0.409263
O O12 0.380958 0.739526 0.750000
O O13 0.328162 0.806917 0.882755
O O14 0.425126 0.750173 0.925531
O O15 0.278669 0.131130 0.250000
O O16 0.300868 0.058226 0.101696
O O17 0.702472 0.985508 0.250000
O O18 0.500000 0.757899 0.435742
#
# Coordination Sequence:
#
# PCOD9468383 Si02
#       7
#    16  16  16  16  16  16  16
#     4   8  15  28  49  73  96 122 156 204 257 297
#     4  10  21  34  43  63 104 139 167 205 237 278
#     4   9  17  33  50  72 104 130 157 207 256 295
#     4   9  18  34  50  68  97 129 163 212 260 293
#     4   8  16  29  50  74  98 129 165 203 253 303
#     4  10  17  30  50  73  97 126 166 204 239 299
#     4  11  22  33  50  73  96 135 180 205 239 302
#
# _framework density 17.762734999999999
#
# number of rings (size 3 to 8) (size 9 to 14) (size 15 to 20)
#    0.000    2.714    1.429    2.571    0.000    3.143 
#    2.571    1.429    0.000    5.143    0.000    2.000 
#    0.000    5.714    0.000    0.000    0.000    0.143 
#
# Total GULP energy -312065.653737 kJ/mol
# GULP energy per Si atom -5572.600960 kJ/mol
# Density = 1.772231 g / cm^3
# Si number density = 17.762735 Si / 1000 Ang^3
#
#
#
# Elastic Constant Matrix: (Units=GPa)
#
#
# Indices 1 2 3 4 5 6 
#
# 1 65.3200 13.5755 0.3356 0.0000 0.0000 0.0000
# 2 13.5755 48.7736 -6.0423 0.0000 0.0000 0.0000
# 3 0.3356 -6.0423 37.8371 0.0000 0.0000 0.0000
# 4 0.0000 0.0000 0.0000 12.9590 0.0000 0.0000
# 5 0.0000 0.0000 0.0000 0.0000 7.5785 0.0000
# 6 0.0000 0.0000 0.0000 0.0000 0.0000 27.1279
#
#
#
# Elastic Compliance Matrix: (Units=1/GPa)
#
#
# Indices 1 2 3 4 5 6 
#
# 1 0.016278 -0.004641 -0.000885 0.000000 0.000000 0.000000
# 2 -0.004641 0.022240 0.003593 0.000000 0.000000 0.000000
# 3 -0.000885 0.003593 0.027011 0.000000 0.000000 0.000000
# 4 0.000000 0.000000 0.000000 0.077166 0.000000 0.000000
# 5 0.000000 0.000000 0.000000 0.000000 0.131952 0.000000
# 6 0.000000 0.000000 0.000000 0.000000 0.000000 0.036862
#
#
# Mechanical properties :
#
#
# Convention : Reuss Voigt Hill
#
# Bulk Modulus (GPa) = 16.21748 18.62981 17.42364
# Shear Modulus (GPa) = 14.88404 19.13720 17.01062
#
# Velocity S-wave (km/s) = 2.89785 3.28591 3.09796
# Velocity P-wave (km/s) = 4.51072 4.99071 4.75677
#
# Compressibility (1/GPa) = 0.06166187
#
# Stress axis : x y z
#
# Youngs Moduli (GPa) = 61.43170 44.96481 37.02246
#
# Poissons Ratio (x) = 0.20866 0.03278
# Poissons Ratio (y) = 0.28508 -0.13301
# Poissons Ratio (z) = 0.05439 -0.16154
#
# Static dielectric constant tensor:
#      x y z
#    x 1.595580 0.000000 0.000000 
#    y 0.000000 1.619960 0.000000 
#    z 0.000000 0.000000 1.668300 
# 
# From -- ./inp_files/46118.got.cif
#   From: 2010.05.17/outbox.cif.g08.bks.cpg/sg63_24_cif.got.tgz:46118.got - 2010.06.03 15:47:04.
