data_PCOD9468295
_publ_section_title
;
Structure prediction by ZEFSAII (Michael W. Deem and Ramdas Pophale) SiO2 
 PCOD9468295
Probable space group: C M C M
;
_chemical_formula_sum "Si O2"
_cell_formula_units_Z 112
_cell_length_a 14.261304
_cell_length_b 14.173834
_cell_length_c 28.521782
_cell_angle_alpha 90.000000
_cell_angle_beta 90.000000
_cell_angle_gamma 90.000000
_cell_volume 5765.317588
_symmetry_space_group_name_H-M "C M C M"
_symmetry_group_IT_number 63
_symmetry_cell_setting 'orthorhombic'
loop_
_space_group_symop_operation_xyz
x,y,z
-x,-y,1/2+z
x,-y,-z
-x,y,1/2-z
-x,-y,-z
x,y,1/2-z
-x,y,z
x,-y,1/2+z
1/2+x,1/2+y,z
1/2-x,1/2-y,1/2+z
1/2+x,1/2-y,-z
1/2-x,1/2+y,1/2-z
1/2-x,1/2-y,-z
1/2+x,1/2+y,1/2-z
1/2-x,1/2+y,z
1/2+x,1/2-y,1/2+z
loop_
_atom_site_type_symbol
_atom_site_label
_atom_site_fract_x
_atom_site_fract_y
_atom_site_fract_z
Si Si1 0.730342 0.191914 0.553643
Si Si2 0.110699 0.221750 0.198188
Si Si3 0.387444 0.456845 0.447430
Si Si4 0.100566 0.602429 0.369254
Si Si5 0.304114 0.625095 0.384910
Si Si6 0.606674 0.113729 0.866129
Si Si7 0.605596 0.105146 0.482205
O O1 0.833493 0.144200 0.554698
O O2 0.703708 0.291990 0.576547
O O3 0.670051 0.123677 0.588312
O O4 0.680740 0.176423 0.503530
O O5 0.150031 0.201959 0.250000
O O6 0.125257 0.146082 0.157190
O O7 0.145370 0.319510 0.174787
O O8 0.000000 0.233872 0.203548
O O9 0.376810 0.500000 0.500000
O O10 0.500000 0.449738 0.438074
O O11 0.335166 0.530094 0.411928
O O12 0.204014 0.636620 0.358182
O O13 0.100863 0.494675 0.352507
O O14 0.103197 0.603353 0.426178
O O15 0.000000 0.646198 0.355222
O O16 0.500000 0.144261 0.878005
O O17 0.500000 0.128205 0.498677
O O18 0.628326 0.000000 0.500000
#
# Coordination Sequence:
#
# PCOD9468295 Si02
#       7
#    16  16  16  16  16  16  16
#     4  11  20  33  54  77 109 153 192 235 278 333
#     4   9  19  36  59  86 110 135 180 240 292 343
#     4  11  24  39  53  78 120 162 199 241 288 341
#     4  10  19  31  50  78 111 142 180 227 275 329
#     4  11  22  37  59  81 112 153 197 235 286 344
#     4   9  16  30  54  80 105 132 169 229 295 336
#     4  10  17  27  47  74 105 140 185 231 268 313
#
# _framework density 19.426511000000001
#
# number of rings (size 3 to 8) (size 9 to 14) (size 15 to 20)
#    0.000    1.857    2.857    2.143    0.000    4.571 
#    0.000    3.571    0.000    1.286    0.000    0.000 
#    0.000    0.000    0.000    0.000    0.000    0.000 
#
# Total GULP energy -311908.742079 kJ/mol
# GULP energy per Si atom -5569.798966 kJ/mol
# Density = 1.938230 g / cm^3
# Si number density = 19.426511 Si / 1000 Ang^3
#
#
#
# Elastic Constant Matrix: (Units=GPa)
#
#
# Indices 1 2 3 4 5 6 
#
# 1 75.3845 10.6638 3.2540 0.0000 0.0000 0.0000
# 2 10.6638 53.9242 17.3527 0.0000 0.0000 0.0000
# 3 3.2540 17.3527 86.6600 0.0000 0.0000 0.0000
# 4 0.0000 0.0000 0.0000 10.0415 0.0000 0.0000
# 5 0.0000 0.0000 0.0000 0.0000 14.5764 0.0000
# 6 0.0000 0.0000 0.0000 0.0000 0.0000 26.4647
#
#
#
# Elastic Compliance Matrix: (Units=1/GPa)
#
#
# Indices 1 2 3 4 5 6 
#
# 1 0.013647 -0.002708 0.000030 0.000000 0.000000 0.000000
# 2 -0.002708 0.020359 -0.003975 0.000000 0.000000 0.000000
# 3 0.000030 -0.003975 0.012334 0.000000 0.000000 0.000000
# 4 0.000000 0.000000 0.000000 0.099586 0.000000 0.000000
# 5 0.000000 0.000000 0.000000 0.000000 0.068604 0.000000
# 6 0.000000 0.000000 0.000000 0.000000 0.000000 0.037786
#
#
# Mechanical properties :
#
#
# Convention : Reuss Voigt Hill
#
# Bulk Modulus (GPa) = 30.27224 30.94551 30.60887
# Shear Modulus (GPa) = 18.07434 22.52976 20.30205
#
# Velocity S-wave (km/s) = 3.05355 3.40919 3.23626
# Velocity P-wave (km/s) = 5.29613 5.60900 5.45481
#
# Compressibility (1/GPa) = 0.03303357
#
# Stress axis : x y z
#
# Youngs Moduli (GPa) = 73.27526 49.11763 81.07550
#
# Poissons Ratio (x) = 0.13303 -0.00242
# Poissons Ratio (y) = 0.19846 0.32228
# Poissons Ratio (z) = -0.00219 0.19524
#
# Static dielectric constant tensor:
#      x y z
#    x 1.792440 0.000000 0.000000 
#    y 0.000000 1.714570 0.000000 
#    z 0.000000 0.000000 1.719110 
# 
# From -- ./inp_files/73434.got.cif
#   From: 2010.05.17/outbox.cif.g08.bks.cpg/sg63_37_cif.got.tgz:73434.got - 2010.06.03 15:47:04.
