data_PCOD9468298
_publ_section_title
;
Structure prediction by ZEFSAII (Michael W. Deem and Ramdas Pophale) SiO2 
 PCOD9468298
Probable space group: C M C M
;
_chemical_formula_sum "Si O2"
_cell_formula_units_Z 96
_cell_length_a 16.071963
_cell_length_b 18.321361
_cell_length_c 18.768570
_cell_angle_alpha 90.000000
_cell_angle_beta 90.000000
_cell_angle_gamma 90.000000
_cell_volume 5526.597553
_symmetry_space_group_name_H-M "C M C M"
_symmetry_group_IT_number 63
_symmetry_cell_setting 'orthorhombic'
loop_
_space_group_symop_operation_xyz
x,y,z
-x,-y,1/2+z
x,-y,-z
-x,y,1/2-z
-x,-y,-z
x,y,1/2-z
-x,y,z
x,-y,1/2+z
1/2+x,1/2+y,z
1/2-x,1/2-y,1/2+z
1/2+x,1/2-y,-z
1/2-x,1/2+y,1/2-z
1/2-x,1/2-y,-z
1/2+x,1/2+y,1/2-z
1/2-x,1/2+y,z
1/2+x,1/2-y,1/2+z
loop_
_atom_site_type_symbol
_atom_site_label
_atom_site_fract_x
_atom_site_fract_y
_atom_site_fract_z
Si Si1 0.600810 0.988292 0.250000
Si Si2 0.597295 0.268441 0.327547
Si Si3 0.403236 0.808572 0.407094
Si Si4 0.596356 0.102985 0.131922
Si Si5 0.600722 0.820189 0.250000
Si Si6 0.792160 0.413312 0.003428
Si Si7 0.167830 0.202436 0.982844
O O1 0.500000 0.987227 0.250000
O O2 0.628769 0.904954 0.250000
O O3 0.624166 0.036153 0.181391
O O4 0.630330 0.293480 0.250000
O O5 0.500000 0.289889 0.332214
O O6 0.598756 0.180233 0.328293
O O7 0.641378 0.292191 0.400524
O O8 0.500000 0.832573 0.405776
O O9 0.375856 0.786996 0.326737
O O10 0.344490 0.875237 0.432702
O O11 0.395615 0.741573 0.462925
O O12 0.500000 0.090631 0.109892
O O13 0.655547 0.111066 0.065153
O O14 0.500000 0.819216 0.250000
O O15 0.700171 0.378868 0.002112
O O16 0.791562 0.500000 0.000000
O O17 0.250000 0.250000 0.000000
#
# Coordination Sequence:
#
# PCOD9468298 Si02
#       7
#     8  16  16  16   8  16  16
#     4   9  16  26  41  70 112 139 163 211 258 306
#     4  10  18  32  56  80 100 131 180 230 267 302
#     4  10  19  34  55  76 103 139 181 221 255 304
#     4  10  17  27  48  74 101 136 173 211 256 306
#     4   9  18  30  45  72 104 137 173 207 252 306
#     4  11  22  34  48  72 107 141 171 209 263 324
#     4  10  20  35  50  77 107 140 174 215 265 321
#
# _framework density 17.370543000000001
#
# number of rings (size 3 to 8) (size 9 to 14) (size 15 to 20)
#    0.000    2.000    4.167    2.000    0.000    2.667 
#    6.000    0.833    0.000    2.000    0.000    0.000 
#    0.000    0.000    0.000    0.000    0.000    0.000 
#
# Total GULP energy -267269.078372 kJ/mol
# GULP energy per Si atom -5568.105799 kJ/mol
# Density = 1.733101 g / cm^3
# Si number density = 17.370543 Si / 1000 Ang^3
#
#
#
# Elastic Constant Matrix: (Units=GPa)
#
#
# Indices 1 2 3 4 5 6 
#
# 1 32.3543 22.8886 34.1677 0.0000 0.0000 0.0000
# 2 22.8886 55.7626 29.9760 0.0000 0.0000 0.0000
# 3 34.1677 29.9760 162.2298 0.0000 0.0000 0.0000
# 4 0.0000 0.0000 0.0000 13.4045 0.0000 0.0000
# 5 0.0000 0.0000 0.0000 0.0000 -66.0368 0.0000
# 6 0.0000 0.0000 0.0000 0.0000 0.0000 18.6322
#
#
#
# Elastic Compliance Matrix: (Units=1/GPa)
#
#
# Indices 1 2 3 4 5 6 
#
# 1 0.050793 -0.016763 -0.007600 0.000000 0.000000 0.000000
# 2 -0.016763 0.025443 -0.001171 0.000000 0.000000 0.000000
# 3 -0.007600 -0.001171 0.007981 0.000000 0.000000 0.000000
# 4 0.000000 0.000000 0.000000 0.074602 0.000000 0.000000
# 5 0.000000 0.000000 0.000000 0.000000 -0.015143 0.000000
# 6 0.000000 0.000000 0.000000 0.000000 0.000000 0.053671
#
#
# Mechanical properties :
#
#
# Convention : Reuss Voigt Hill
#
# Bulk Modulus (GPa) = 30.16679 47.15680 38.66179
# Shear Modulus (GPa) = 19.27046 4.08760 11.67903
#
# Velocity S-wave (km/s) = 3.33434 1.53567 2.59578
# Velocity P-wave (km/s) = 5.67698 5.50916 5.59370
#
# Compressibility (1/GPa) = 0.03314904
#
# Stress axis : x y z
#
# Youngs Moduli (GPa) = 19.68780 39.30321 125.29570
#
# Poissons Ratio (x) = 0.65884 0.95227
# Poissons Ratio (y) = 0.33003 0.14669
# Poissons Ratio (z) = 0.14963 0.04601
#
# Static dielectric constant tensor:
#      x y z
#    x 1.631170 0.000000 0.000000 
#    y 0.000000 1.610010 0.000000 
#    z 0.000000 0.000000 1.651620 
# 
# From -- ./inp_files/45809.got.cif
#   From: 2010.05.17/outbox.cif.g08.bks.cpg/sg63_23_cif.got.tgz:45809.got - 2010.06.03 15:47:04.
