data_PCOD9468973
_publ_section_title
;
Structure prediction by ZEFSAII (Michael W. Deem and Ramdas Pophale) SiO2 
 PCOD9468973
Probable space group: C M C M
;
_chemical_formula_sum "Si O2"
_cell_formula_units_Z 104
_cell_length_a 31.356836
_cell_length_b 22.076972
_cell_length_c 8.631801
_cell_angle_alpha 90.000000
_cell_angle_beta 90.000000
_cell_angle_gamma 90.000000
_cell_volume 5975.485004
_symmetry_space_group_name_H-M "C M C M"
_symmetry_group_IT_number 63
_symmetry_cell_setting 'orthorhombic'
loop_
_space_group_symop_operation_xyz
x,y,z
-x,-y,1/2+z
x,-y,-z
-x,y,1/2-z
-x,-y,-z
x,y,1/2-z
-x,y,z
x,-y,1/2+z
1/2+x,1/2+y,z
1/2-x,1/2-y,1/2+z
1/2+x,1/2-y,-z
1/2-x,1/2+y,1/2-z
1/2-x,1/2-y,-z
1/2+x,1/2+y,1/2-z
1/2-x,1/2+y,z
1/2+x,1/2-y,1/2+z
loop_
_atom_site_type_symbol
_atom_site_label
_atom_site_fract_x
_atom_site_fract_y
_atom_site_fract_z
Si Si1 0.155075 0.198452 0.564089
Si Si2 0.067485 0.158900 0.435359
Si Si3 0.000000 0.738708 0.935286
Si Si4 0.159507 0.664377 0.563485
Si Si5 0.000000 0.933006 0.434179
Si Si6 0.747481 0.681823 0.563784
Si Si7 0.000000 0.604934 0.064735
Si Si8 0.406335 0.065348 0.436454
O O1 0.154107 0.204344 0.750000
O O2 0.114204 0.163405 0.503843
O O3 0.153249 0.266309 0.492731
O O4 0.199282 0.164558 0.519134
O O5 0.068280 0.154423 0.250000
O O6 0.041017 0.220163 0.474116
O O7 0.040666 0.103890 0.503975
O O8 0.000000 0.728259 0.750000
O O9 0.000000 0.675479 0.021268
O O10 0.156106 0.662909 0.750000
O O11 0.208725 0.648867 0.515830
O O12 0.124900 0.618634 0.494073
O O13 0.000000 0.933454 0.250000
O O14 0.000000 0.000000 0.500000
O O15 0.748860 0.683651 0.750000
O O16 0.750000 0.750000 0.500000
O O17 0.044795 0.577136 0.007828
O O18 0.000000 0.598331 0.250000
O O19 0.406085 0.064936 0.250000
O O20 0.392473 0.000000 0.500000
#
# Coordination Sequence:
#
# PCOD9468973 Si02
#       8
#    16  16   8  16   8  16   8  16
#     4  10  18  30  50  79 109 137 169 210 256 305
#     4  10  20  34  51  77 109 140 173 210 251 300
#     4   9  19  32  48  71 102 135 166 200 245 295
#     4  10  19  33  52  75 103 137 170 208 258 310
#     4  11  22  38  58  78 102 137 175 212 251 300
#     4   8  16  29  47  72 103 133 163 198 243 298
#     4  10  22  36  51  71  98 128 163 206 254 301
#     4  11  23  38  53  71  94 127 170 215 257 305
#
# _framework density 17.404446
#
# number of rings (size 3 to 8) (size 9 to 14) (size 15 to 20)
#    0.000    2.154    0.000    4.154    0.000    6.769 
#    0.000    0.000    0.000    0.923    0.000    4.308 
#    0.000    0.000    0.000    0.000    0.000    0.000 
#
# Total GULP energy -289963.978771 kJ/mol
# GULP energy per Si atom -5576.230361 kJ/mol
# Density = 1.736483 g / cm^3
# Si number density = 17.404446 Si / 1000 Ang^3
#
#
#
# Elastic Constant Matrix: (Units=GPa)
#
#
# Indices 1 2 3 4 5 6 
#
# 1 169.3381 48.4068 37.7008 0.0000 0.0000 0.0000
# 2 48.4068 75.7483 21.4705 0.0000 0.0000 0.0000
# 3 37.7008 21.4705 46.2529 0.0000 0.0000 0.0000
# 4 0.0000 0.0000 0.0000 26.5702 0.0000 0.0000
# 5 0.0000 0.0000 0.0000 0.0000 24.9234 0.0000
# 6 0.0000 0.0000 0.0000 0.0000 0.0000 0.9880
#
#
#
# Elastic Compliance Matrix: (Units=1/GPa)
#
#
# Indices 1 2 3 4 5 6 
#
# 1 0.008059 -0.003786 -0.004811 0.000000 0.000000 0.000000
# 2 -0.003786 0.016981 -0.004796 0.000000 0.000000 0.000000
# 3 -0.004811 -0.004796 0.027768 0.000000 0.000000 0.000000
# 4 0.000000 0.000000 0.000000 0.037636 0.000000 0.000000
# 5 0.000000 0.000000 0.000000 0.000000 0.040123 0.000000
# 6 0.000000 0.000000 0.000000 0.000000 0.000000 1.012130
#
#
# Mechanical properties :
#
#
# Convention : Reuss Voigt Hill
#
# Bulk Modulus (GPa) = 38.43131 56.27729 47.35430
# Shear Modulus (GPa) = 4.24391 22.74705 13.49548
#
# Velocity S-wave (km/s) = 1.56323 3.61912 2.78763
# Velocity P-wave (km/s) = 5.03860 7.06182 6.13420
#
# Compressibility (1/GPa) = 0.02602045
#
# Stress axis : x y z
#
# Youngs Moduli (GPa) = 124.08750 58.89043 36.01231
#
# Poissons Ratio (x) = 0.22297 0.17326
# Poissons Ratio (y) = 0.46983 0.17272
# Poissons Ratio (z) = 0.59701 0.28245
#
# Static dielectric constant tensor:
#      x y z
#    x 1.668190 0.000000 0.000000 
#    y 0.000000 1.536330 0.000000 
#    z 0.000000 0.000000 1.586450 
# 
# From -- ./inp_files/14536.got.cif
#   From: 2010.05.17/outbox.cif.g08.bks.cpg/sg63_8_cif.got.tgz:14536.got - 2010.06.03 15:47:04.
