data_PCOD9468837
_publ_section_title
;
Structure prediction by ZEFSAII (Michael W. Deem and Ramdas Pophale) SiO2 
 PCOD9468837
Probable space group: C M C M
;
_chemical_formula_sum "Si O2"
_cell_formula_units_Z 120
_cell_length_a 21.340484
_cell_length_b 11.880366
_cell_length_c 24.443149
_cell_angle_alpha 90.000000
_cell_angle_beta 90.000000
_cell_angle_gamma 90.000000
_cell_volume 6197.139042
_symmetry_space_group_name_H-M "C M C M"
_symmetry_group_IT_number 63
_symmetry_cell_setting 'orthorhombic'
loop_
_space_group_symop_operation_xyz
x,y,z
-x,-y,1/2+z
x,-y,-z
-x,y,1/2-z
-x,-y,-z
x,y,1/2-z
-x,y,z
x,-y,1/2+z
1/2+x,1/2+y,z
1/2-x,1/2-y,1/2+z
1/2+x,1/2-y,-z
1/2-x,1/2+y,1/2-z
1/2-x,1/2-y,-z
1/2+x,1/2+y,1/2-z
1/2-x,1/2+y,z
1/2+x,1/2-y,1/2+z
loop_
_atom_site_type_symbol
_atom_site_label
_atom_site_fract_x
_atom_site_fract_y
_atom_site_fract_z
Si Si1 0.159039 0.148939 0.917314
Si Si2 0.624757 0.145614 0.688709
Si Si3 0.716312 0.500000 0.500000
Si Si4 0.569954 0.044920 0.918670
Si Si5 0.275787 0.269139 0.625419
Si Si6 0.825941 0.322567 0.015843
Si Si7 0.310237 0.908602 0.690739
Si Si8 0.427493 0.805301 0.862111
O O1 0.219381 0.176692 0.879315
O O2 0.096456 0.185347 0.885296
O O3 0.172171 0.032003 0.948364
O O4 0.158169 0.243223 0.965469
O O5 0.598535 0.160048 0.750000
O O6 0.578415 0.111327 0.639354
O O7 0.670514 0.244739 0.669519
O O8 0.670602 0.037603 0.689941
O O9 0.765839 0.397043 0.500369
O O10 0.500000 0.062826 0.939545
O O11 0.620700 0.095575 0.960001
O O12 0.578027 0.912302 0.904402
O O13 0.308894 0.256010 0.567418
O O14 0.237178 0.378644 0.642391
O O15 0.283411 0.878200 0.750000
O O16 0.375384 0.841386 0.682047
O O17 0.500000 0.802659 0.844937
#
# Coordination Sequence:
#
# PCOD9468837 Si02
#       8
#    16  16   8  16  16  16  16  16
#     4  10  20  31  46  68  91 122 155 188 226 270
#     4   9  17  28  44  67  93 119 147 183 226 274
#     4  10  18  30  46  64  88 118 146 178 224 268
#     4   9  18  31  47  67  91 120 152 188 231 276
#     4   9  17  28  43  63  91 119 145 181 220 262
#     4  10  19  30  46  68  93 120 153 190 226 270
#     4   9  17  29  46  68  92 118 147 181 225 273
#     4   9  18  32  47  66  92 119 152 191 228 270
#
# _framework density 19.363773999999999
#
# number of rings (size 3 to 8) (size 9 to 14) (size 15 to 20)
#    0.000    2.667    0.000    2.800    0.000    8.533 
#    0.000    4.667    0.000    0.000    0.000    0.000 
#    0.000    0.000    0.000   37.333    0.000    0.533 
#
# Total GULP energy -334062.449013 kJ/mol
# GULP energy per Si atom -5567.707484 kJ/mol
# Density = 1.931970 g / cm^3
# Si number density = 19.363774 Si / 1000 Ang^3
#
#
#
# Elastic Constant Matrix: (Units=GPa)
#
#
# Indices 1 2 3 4 5 6 
#
# 1 74.8071 13.7966 18.3600 0.0000 0.0000 0.0000
# 2 13.7966 28.5571 11.7361 0.0000 0.0000 0.0000
# 3 18.3600 11.7361 56.4252 0.0000 0.0000 0.0000
# 4 0.0000 0.0000 0.0000 13.2031 0.0000 0.0000
# 5 0.0000 0.0000 0.0000 0.0000 15.7120 0.0000
# 6 0.0000 0.0000 0.0000 0.0000 0.0000 20.5503
#
#
#
# Elastic Compliance Matrix: (Units=1/GPa)
#
#
# Indices 1 2 3 4 5 6 
#
# 1 0.015380 -0.005876 -0.003782 0.000000 0.000000 0.000000
# 2 -0.005876 0.040536 -0.006519 0.000000 0.000000 0.000000
# 3 -0.003782 -0.006519 0.020309 0.000000 0.000000 0.000000
# 4 0.000000 0.000000 0.000000 0.075740 0.000000 0.000000
# 5 0.000000 0.000000 0.000000 0.000000 0.063646 0.000000
# 6 0.000000 0.000000 0.000000 0.000000 0.000000 0.048661
#
#
# Mechanical properties :
#
#
# Convention : Reuss Voigt Hill
#
# Bulk Modulus (GPa) = 22.79471 27.50831 25.15151
# Shear Modulus (GPa) = 16.06433 17.61954 16.84193
#
# Velocity S-wave (km/s) = 2.88342 3.01976 2.95238
# Velocity P-wave (km/s) = 4.78360 5.13766 4.96379
#
# Compressibility (1/GPa) = 0.04386982
#
# Stress axis : x y z
#
# Youngs Moduli (GPa) = 65.02089 24.66971 49.23877
#
# Poissons Ratio (x) = 0.14496 0.18623
# Poissons Ratio (y) = 0.38206 0.32100
# Poissons Ratio (z) = 0.24592 0.16083
#
# Static dielectric constant tensor:
#      x y z
#    x 1.666600 0.000000 0.000000 
#    y 0.000000 1.730320 0.000000 
#    z 0.000000 0.000000 1.754250 
# 
# From -- ./inp_files/70530.got.cif
#   From: 2010.05.17/outbox.cif.g08.bks.cpg/sg63_36_cif.got.tgz:70530.got - 2010.06.03 15:47:04.
