data_PCOD9468687
_publ_section_title
;
Structure prediction by ZEFSAII (Michael W. Deem and Ramdas Pophale) SiO2 
 PCOD9468687
Probable space group: C M C M
;
_chemical_formula_sum "Si O2"
_cell_formula_units_Z 64
_cell_length_a 27.256847
_cell_length_b 18.813330
_cell_length_c 8.571639
_cell_angle_alpha 90.000000
_cell_angle_beta 90.000000
_cell_angle_gamma 90.000000
_cell_volume 4395.468398
_symmetry_space_group_name_H-M "C M C M"
_symmetry_group_IT_number 63
_symmetry_cell_setting 'orthorhombic'
loop_
_space_group_symop_operation_xyz
x,y,z
-x,-y,1/2+z
x,-y,-z
-x,y,1/2-z
-x,-y,-z
x,y,1/2-z
-x,y,z
x,-y,1/2+z
1/2+x,1/2+y,z
1/2-x,1/2-y,1/2+z
1/2+x,1/2-y,-z
1/2-x,1/2+y,1/2-z
1/2-x,1/2-y,-z
1/2+x,1/2+y,1/2-z
1/2-x,1/2+y,z
1/2+x,1/2-y,1/2+z
loop_
_atom_site_type_symbol
_atom_site_label
_atom_site_fract_x
_atom_site_fract_y
_atom_site_fract_z
Si Si1 0.555856 0.078289 0.938175
Si Si2 0.759671 0.420322 0.936559
Si Si3 0.296327 0.704793 0.936293
Si Si4 0.851990 0.329861 0.062258
O O1 0.556178 0.075570 0.750000
O O2 0.500000 0.094014 0.989395
O O3 0.596398 0.135581 0.985898
O O4 0.569026 0.000000 0.000000
O O5 0.761481 0.419487 0.750000
O O6 0.757506 0.500000 0.000000
O O7 0.713693 0.373088 0.995390
O O8 0.808609 0.381581 0.001676
O O9 0.294989 0.702884 0.750000
O O10 0.250000 0.750000 0.000000
O O11 0.341990 0.751391 0.994920
O O12 0.849032 0.327120 0.250000
#
# Coordination Sequence:
#
# PCOD9468687 Si02
#       4
#    16  16  16  16
#     4   9  18  30  43  60  83 111 143 178 212 245
#     4  11  20  30  43  61  85 111 141 173 208 248
#     4  10  18  29  43  60  82 108 139 172 208 247
#     4  10  18  29  44  61  83 112 144 175 210 248
#
# _framework density 14.560451
#
# number of rings (size 3 to 8) (size 9 to 14) (size 15 to 20)
#    0.000    2.000    0.000    9.000    0.000    4.000 
#    0.000    0.000    0.000    0.000    0.000    0.000 
#    0.000    1.000    0.000    2.750    0.000    4.000 
#
# Total GULP energy -178420.858301 kJ/mol
# GULP energy per Si atom -5575.651822 kJ/mol
# Density = 1.452731 g / cm^3
# Si number density = 14.560451 Si / 1000 Ang^3
#
#
#
# Elastic Constant Matrix: (Units=GPa)
#
#
# Indices 1 2 3 4 5 6 
#
# 1 67.2996 39.6578 20.7830 0.0000 0.0000 0.0000
# 2 39.6578 93.2255 31.8202 0.0000 0.0000 0.0000
# 3 20.7830 31.8202 90.9621 0.0000 0.0000 0.0000
# 4 0.0000 0.0000 0.0000 25.6196 0.0000 0.0000
# 5 0.0000 0.0000 0.0000 0.0000 15.4977 0.0000
# 6 0.0000 0.0000 0.0000 0.0000 0.0000 27.8263
#
#
#
# Elastic Compliance Matrix: (Units=1/GPa)
#
#
# Indices 1 2 3 4 5 6 
#
# 1 0.020091 -0.007926 -0.001818 0.000000 0.000000 0.000000
# 2 -0.007926 0.015308 -0.003544 0.000000 0.000000 0.000000
# 3 -0.001818 -0.003544 0.012649 0.000000 0.000000 0.000000
# 4 0.000000 0.000000 0.000000 0.039033 0.000000 0.000000
# 5 0.000000 0.000000 0.000000 0.000000 0.064526 0.000000
# 6 0.000000 0.000000 0.000000 0.000000 0.000000 0.035937
#
#
# Mechanical properties :
#
#
# Convention : Reuss Voigt Hill
#
# Bulk Modulus (GPa) = 46.57256 48.44548 47.50902
# Shear Modulus (GPa) = 22.59616 24.40379 23.49997
#
# Velocity S-wave (km/s) = 3.94367 4.09838 4.02177
# Velocity P-wave (km/s) = 7.26580 7.46591 7.36653
#
# Compressibility (1/GPa) = 0.02147187
#
# Stress axis : x y z
#
# Youngs Moduli (GPa) = 49.77365 65.32467 79.05964
#
# Poissons Ratio (x) = 0.51778 0.14370
# Poissons Ratio (y) = 0.39452 0.28019
# Poissons Ratio (z) = 0.09047 0.23152
#
# Static dielectric constant tensor:
#      x y z
#    x 1.505280 0.000000 0.000000 
#    y 0.000000 1.410180 0.000000 
#    z 0.000000 0.000000 1.488470 
# 
# From -- ./inp_files/11839.got.cif
#   From: 2010.05.17/outbox.cif.g08.bks.cpg/sg63_6_cif.got.tgz:11839.got - 2010.06.03 15:47:04.
