data_PCOD9468302
_publ_section_title
;
Structure prediction by ZEFSAII (Michael W. Deem and Ramdas Pophale) SiO2 
 PCOD9468302
Probable space group: C M C M
;
_chemical_formula_sum "Si O2"
_cell_formula_units_Z 96
_cell_length_a 29.783861
_cell_length_b 27.596726
_cell_length_c 8.522946
_cell_angle_alpha 90.000000
_cell_angle_beta 90.000000
_cell_angle_gamma 90.000000
_cell_volume 7005.325103
_symmetry_space_group_name_H-M "C M C M"
_symmetry_group_IT_number 63
_symmetry_cell_setting 'orthorhombic'
loop_
_space_group_symop_operation_xyz
x,y,z
-x,-y,1/2+z
x,-y,-z
-x,y,1/2-z
-x,-y,-z
x,y,1/2-z
-x,y,z
x,-y,1/2+z
1/2+x,1/2+y,z
1/2-x,1/2-y,1/2+z
1/2+x,1/2-y,-z
1/2-x,1/2+y,1/2-z
1/2-x,1/2-y,-z
1/2+x,1/2+y,1/2-z
1/2-x,1/2+y,z
1/2+x,1/2-y,1/2+z
loop_
_atom_site_type_symbol
_atom_site_label
_atom_site_fract_x
_atom_site_fract_y
_atom_site_fract_z
Si Si1 0.804002 0.353201 0.559204
Si Si2 0.357403 0.947453 0.939718
Si Si3 0.778582 0.795794 0.938068
Si Si4 0.450032 0.098044 0.439478
Si Si5 0.640785 0.757096 0.937459
Si Si6 0.050584 0.292537 0.062365
O O1 0.805393 0.353292 0.750000
O O2 0.825182 0.403671 0.506150
O O3 0.752622 0.341227 0.513919
O O4 0.835014 0.307561 0.509415
O O5 0.357075 0.947708 0.750000
O O6 0.408192 0.934240 0.992425
O O7 0.344215 0.000000 0.000000
O O8 0.780253 0.794238 0.750000
O O9 0.750000 0.750000 0.000000
O O10 0.828141 0.786883 0.003792
O O11 0.449743 0.098244 0.250000
O O12 0.500000 0.082602 0.492438
O O13 0.442928 0.153247 0.494760
O O14 0.640753 0.757229 0.750000
O O15 0.590369 0.759105 0.999756
O O16 0.052910 0.295074 0.250000
O O17 0.000000 0.277185 0.017308
#
# Coordination Sequence:
#
# PCOD9468302 Si02
#       6
#    16  16  16  16  16  16
#     4   8  15  28  42  55  76 100 123 156 199 241
#     4  10  19  31  42  56  75  99 131 166 204 247
#     4   9  16  26  41  61  80 100 124 156 197 239
#     4   9  17  30  45  55  69  98 131 165 209 253
#     4  10  17  28  44  60  78 103 129 158 195 239
#     4  10  19  28  40  60  82 102 129 165 200 236
#
# _framework density 13.703861
#
# number of rings (size 3 to 8) (size 9 to 14) (size 15 to 20)
#    0.000    2.667    1.667    2.500    0.000    2.000 
#    0.000    1.667    0.000    0.000    0.000    0.000 
#    0.000    0.000    0.000    0.000    0.000    0.833 
#
# Total GULP energy -267290.562715 kJ/mol
# GULP energy per Si atom -5568.553390 kJ/mol
# Density = 1.367267 g / cm^3
# Si number density = 13.703861 Si / 1000 Ang^3
#
#
#
# Elastic Constant Matrix: (Units=GPa)
#
#
# Indices 1 2 3 4 5 6 
#
# 1 94.5603 52.4308 13.1154 0.0000 0.0000 0.0000
# 2 52.4308 57.3699 9.3803 0.0000 0.0000 0.0000
# 3 13.1154 9.3803 10.7598 0.0000 0.0000 0.0000
# 4 0.0000 0.0000 0.0000 15.3399 0.0000 0.0000
# 5 0.0000 0.0000 0.0000 0.0000 18.2087 0.0000
# 6 0.0000 0.0000 0.0000 0.0000 0.0000 19.1242
#
#
#
# Elastic Compliance Matrix: (Units=1/GPa)
#
#
# Indices 1 2 3 4 5 6 
#
# 1 0.022519 -0.018767 -0.011088 0.000000 0.000000 0.000000
# 2 -0.018767 0.035969 -0.008481 0.000000 0.000000 0.000000
# 3 -0.011088 -0.008481 0.113848 0.000000 0.000000 0.000000
# 4 0.000000 0.000000 0.000000 0.065189 0.000000 0.000000
# 5 0.000000 0.000000 0.000000 0.000000 0.054919 0.000000
# 6 0.000000 0.000000 0.000000 0.000000 0.000000 0.052290
#
#
# Mechanical properties :
#
#
# Convention : Reuss Voigt Hill
#
# Bulk Modulus (GPa) = 10.45339 34.72698 22.59018
# Shear Modulus (GPa) = 11.03034 16.38547 13.70790
#
# Velocity S-wave (km/s) = 2.84017 3.46162 3.16618
# Velocity P-wave (km/s) = 4.28952 6.43219 5.46686
#
# Compressibility (1/GPa) = 0.09566276
#
# Stress axis : x y z
#
# Youngs Moduli (GPa) = 44.40664 27.80153 8.78365
#
# Poissons Ratio (x) = 0.52176 0.09739
# Poissons Ratio (y) = 0.83340 0.07450
# Poissons Ratio (z) = 0.49238 0.23579
#
# Static dielectric constant tensor:
#      x y z
#    x 1.485560 0.000000 0.000000 
#    y 0.000000 1.425240 0.000000 
#    z 0.000000 0.000000 1.465460 
# 
# From -- ./inp_files/12968.got.cif
#   From: 2010.05.17/outbox.cif.g08.bks.cpg/sg63_7_cif.got.tgz:12968.got - 2010.06.03 15:47:04.
