data_PCOD9468324
_publ_section_title
;
Structure prediction by ZEFSAII (Michael W. Deem and Ramdas Pophale) SiO2 
 PCOD9468324
Probable space group: C M C M
;
_chemical_formula_sum "Si O2"
_cell_formula_units_Z 80
_cell_length_a 18.234111
_cell_length_b 12.178913
_cell_length_c 20.025800
_cell_angle_alpha 90.000000
_cell_angle_beta 90.000000
_cell_angle_gamma 90.000000
_cell_volume 4447.162479
_symmetry_space_group_name_H-M "C M C M"
_symmetry_group_IT_number 63
_symmetry_cell_setting 'orthorhombic'
loop_
_space_group_symop_operation_xyz
x,y,z
-x,-y,1/2+z
x,-y,-z
-x,y,1/2-z
-x,-y,-z
x,y,1/2-z
-x,y,z
x,-y,1/2+z
1/2+x,1/2+y,z
1/2-x,1/2-y,1/2+z
1/2+x,1/2-y,-z
1/2-x,1/2+y,1/2-z
1/2-x,1/2-y,-z
1/2+x,1/2+y,1/2-z
1/2-x,1/2+y,z
1/2+x,1/2-y,1/2+z
loop_
_atom_site_type_symbol
_atom_site_label
_atom_site_fract_x
_atom_site_fract_y
_atom_site_fract_z
Si Si1 0.000000 0.809302 0.000131
Si Si2 0.911264 0.319015 0.675011
Si Si3 0.000000 0.994369 0.891020
Si Si4 0.231012 0.090486 0.549239
Si Si5 0.856247 0.317511 0.534219
Si Si6 0.853930 0.066293 0.675382
O O1 0.930680 0.730636 0.005081
O O2 0.000000 0.886511 0.936002
O O3 0.000000 0.896968 0.061449
O O4 0.895078 0.363875 0.750000
O O5 0.874380 0.367762 0.607630
O O6 0.882454 0.192924 0.675565
O O7 0.000000 0.319224 0.667273
O O8 0.074478 0.000473 0.848840
O O9 0.192130 0.208109 0.545185
O O10 0.311400 0.110874 0.518948
O O11 0.212805 0.051955 0.623750
O O12 0.195212 0.000000 0.500000
O O13 0.832806 0.036061 0.750000
#
# Coordination Sequence:
#
# PCOD9468324 Si02
#       6
#     8  16   8  16  16  16
#     4  11  18  28  49  78 100 127 162 205 261 298
#     4   9  14  24  44  71  99 123 155 204 257 297
#     4  11  17  26  50  80 102 121 155 213 263 310
#     4  10  20  33  48  70 100 137 168 207 246 303
#     4  10  18  31  49  71 102 130 170 209 252 306
#     4  10  17  28  47  73 101 129 162 200 256 310
#
# _framework density 17.988997999999999
#
# number of rings (size 3 to 8) (size 9 to 14) (size 15 to 20)
#    0.000    2.000    6.000    1.500    0.000    0.000 
#    0.000    1.500    0.000   10.800    0.000    0.000 
#    0.000    0.000    0.000    0.000    0.000    0.000 
#
# Total GULP energy -222686.868740 kJ/mol
# GULP energy per Si atom -5567.171719 kJ/mol
# Density = 1.794805 g / cm^3
# Si number density = 17.988998 Si / 1000 Ang^3
#
#
#
# Elastic Constant Matrix: (Units=GPa)
#
#
# Indices 1 2 3 4 5 6 
#
# 1 98.9131 20.7542 82.5581 0.0000 0.0000 0.0000
# 2 20.7542 25.5834 28.1057 0.0000 0.0000 0.0000
# 3 82.5581 28.1057 192.0053 0.0000 0.0000 0.0000
# 4 0.0000 0.0000 0.0000 10.6212 0.0000 0.0000
# 5 0.0000 0.0000 0.0000 0.0000 81.7310 0.0000
# 6 0.0000 0.0000 0.0000 0.0000 0.0000 21.8632
#
#
#
# Elastic Compliance Matrix: (Units=1/GPa)
#
#
# Indices 1 2 3 4 5 6 
#
# 1 0.016691 -0.006740 -0.006190 0.000000 0.000000 0.000000
# 2 -0.006740 0.049300 -0.004319 0.000000 0.000000 0.000000
# 3 -0.006190 -0.004319 0.008502 0.000000 0.000000 0.000000
# 4 0.000000 0.000000 0.000000 0.094151 0.000000 0.000000
# 5 0.000000 0.000000 0.000000 0.000000 0.012235 0.000000
# 6 0.000000 0.000000 0.000000 0.000000 0.000000 0.045739
#
#
# Mechanical properties :
#
#
# Convention : Reuss Voigt Hill
#
# Bulk Modulus (GPa) = 25.00273 64.37088 44.68680
# Shear Modulus (GPa) = 18.21849 35.18198 26.70024
#
# Velocity S-wave (km/s) = 3.18584 4.42718 3.85678
# Velocity P-wave (km/s) = 5.24040 7.87365 6.68791
#
# Compressibility (1/GPa) = 0.03999564
#
# Stress axis : x y z
#
# Youngs Moduli (GPa) = 59.91415 20.28408 117.62053
#
# Poissons Ratio (x) = 0.13671 0.72807
# Poissons Ratio (y) = 0.40380 0.50795
# Poissons Ratio (z) = 0.37087 0.08760
#
# Static dielectric constant tensor:
#      x y z
#    x 1.643630 0.000000 0.000000 
#    y 0.000000 1.591480 0.000000 
#    z 0.000000 0.000000 1.665420 
# 
# From -- ./inp_files/55321.got.cif
#   From: 2010.05.17/outbox.cif.g08.bks.cpg/sg63_28_cif.got.tgz:55321.got - 2010.06.03 15:47:04.
