data_PCOD9468919
_publ_section_title
;
Structure prediction by ZEFSAII (Michael W. Deem and Ramdas Pophale) SiO2 
 PCOD9468919
Probable space group: C M C M
;
_chemical_formula_sum "Si O2"
_cell_formula_units_Z 120
_cell_length_a 29.265206
_cell_length_b 27.894406
_cell_length_c 9.036756
_cell_angle_alpha 90.000000
_cell_angle_beta 90.000000
_cell_angle_gamma 90.000000
_cell_volume 7377.025070
_symmetry_space_group_name_H-M "C M C M"
_symmetry_group_IT_number 63
_symmetry_cell_setting 'orthorhombic'
loop_
_space_group_symop_operation_xyz
x,y,z
-x,-y,1/2+z
x,-y,-z
-x,y,1/2-z
-x,-y,-z
x,y,1/2-z
-x,y,z
x,-y,1/2+z
1/2+x,1/2+y,z
1/2-x,1/2-y,1/2+z
1/2+x,1/2-y,-z
1/2-x,1/2+y,1/2-z
1/2-x,1/2-y,-z
1/2+x,1/2+y,1/2-z
1/2-x,1/2+y,z
1/2+x,1/2-y,1/2+z
loop_
_atom_site_type_symbol
_atom_site_label
_atom_site_fract_x
_atom_site_fract_y
_atom_site_fract_z
Si Si1 0.203114 0.183073 0.577732
Si Si2 0.082110 0.896058 0.424608
Si Si3 0.052965 0.788089 0.071141
Si Si4 0.272099 0.050178 0.426505
Si Si5 0.500000 0.449143 0.923769
Si Si6 0.804343 0.648127 0.923318
Si Si7 0.637787 0.226326 0.426574
Si Si8 0.327415 0.588996 0.077538
O O1 0.192381 0.168752 0.750000
O O2 0.257904 0.180365 0.563812
O O3 0.176434 0.232358 0.551949
O O4 0.186026 0.143525 0.462678
O O5 0.074109 0.901898 0.250000
O O6 0.077051 0.839318 0.458627
O O7 0.043555 0.920827 0.519422
O O8 0.129758 0.919382 0.472297
O O9 0.050683 0.784700 0.250000
O O10 0.088881 0.747478 0.021730
O O11 0.000000 0.786470 0.017767
O O12 0.279189 0.049194 0.250000
O O13 0.295459 0.097531 0.495557
O O14 0.217714 0.058078 0.453342
O O15 0.286300 0.000000 0.500000
O O16 0.500000 0.454201 0.750000
O O17 0.500000 0.500000 0.000000
O O18 0.811431 0.639178 0.750000
O O19 0.845016 0.678896 0.992749
O O20 0.635271 0.217961 0.250000
O O21 0.339498 0.584233 0.250000
#
# Coordination Sequence:
#
# PCOD9468919 Si02
#       8
#    16  16  16  16   8  16  16  16
#     4   9  17  30  47  69  98 135 173 206 249 301
#     4  11  20  36  58  75  97 131 169 214 266 320
#     4   9  17  31  53  77 100 132 174 212 257 313
#     4  10  21  37  55  74 100 135 172 212 256 303
#     4  12  26  42  56  74  94 120 164 220 277 324
#     4  10  20  32  48  73 104 135 170 211 253 304
#     4  10  18  30  49  73 102 136 171 209 254 309
#     4  10  20  32  49  75 103 130 167 213 256 302
#
# _framework density 16.266719999999999
#
# number of rings (size 3 to 8) (size 9 to 14) (size 15 to 20)
#    0.000    2.000    2.000    2.600    0.000    3.200 
#    0.000    1.333    0.000    0.000    0.000    0.000 
#    0.000    0.533    0.000    1.467    0.000    2.133 
#
# Total GULP energy -334575.007474 kJ/mol
# GULP energy per Si atom -5576.250125 kJ/mol
# Density = 1.622970 g / cm^3
# Si number density = 16.266720 Si / 1000 Ang^3
#
#
#
# Elastic Constant Matrix: (Units=GPa)
#
#
# Indices 1 2 3 4 5 6 
#
# 1 48.4249 36.6602 30.1865 0.0000 0.0000 0.0000
# 2 36.6602 83.2181 43.3529 0.0000 0.0000 0.0000
# 3 30.1865 43.3529 64.9669 0.0000 0.0000 0.0000
# 4 0.0000 0.0000 0.0000 27.0700 0.0000 0.0000
# 5 0.0000 0.0000 0.0000 0.0000 10.0860 0.0000
# 6 0.0000 0.0000 0.0000 0.0000 0.0000 19.7919
#
#
#
# Elastic Compliance Matrix: (Units=1/GPa)
#
#
# Indices 1 2 3 4 5 6 
#
# 1 0.034044 -0.010357 -0.008907 0.000000 0.000000 0.000000
# 2 -0.010357 0.021571 -0.009582 0.000000 0.000000 0.000000
# 3 -0.008907 -0.009582 0.025925 0.000000 0.000000 0.000000
# 4 0.000000 0.000000 0.000000 0.036941 0.000000 0.000000
# 5 0.000000 0.000000 0.000000 0.000000 0.099147 0.000000
# 6 0.000000 0.000000 0.000000 0.000000 0.000000 0.050526
#
#
# Mechanical properties :
#
#
# Convention : Reuss Voigt Hill
#
# Bulk Modulus (GPa) = 41.93275 46.33436 44.13356
# Shear Modulus (GPa) = 14.97918 17.15025 16.06472
#
# Velocity S-wave (km/s) = 3.03784 3.25054 3.14599
# Velocity P-wave (km/s) = 6.17567 6.52947 6.35503
#
# Compressibility (1/GPa) = 0.02384771
#
# Stress axis : x y z
#
# Youngs Moduli (GPa) = 29.37390 46.35793 38.57255
#
# Poissons Ratio (x) = 0.48015 0.34355
# Poissons Ratio (y) = 0.30424 0.36961
# Poissons Ratio (z) = 0.26162 0.44421
#
# Static dielectric constant tensor:
#      x y z
#    x 1.677740 0.000000 0.000000 
#    y 0.000000 1.512030 0.000000 
#    z 0.000000 0.000000 1.574540 
# 
# From -- ./inp_files/13140.got.cif
#   From: 2010.05.17/outbox.cif.g08.bks.cpg/sg63_7_cif.got.tgz:13140.got - 2010.06.03 15:47:04.
