data_PCOD9468984
_publ_section_title
;
Structure prediction by ZEFSAII (Michael W. Deem and Ramdas Pophale) SiO2 
 PCOD9468984
Probable space group: C M C M
;
_chemical_formula_sum "Si O2"
_cell_formula_units_Z 72
_cell_length_a 16.468768
_cell_length_b 28.819530
_cell_length_c 8.301138
_cell_angle_alpha 90.000000
_cell_angle_beta 90.000000
_cell_angle_gamma 90.000000
_cell_volume 3939.903994
_symmetry_space_group_name_H-M "C M C M"
_symmetry_group_IT_number 63
_symmetry_cell_setting 'orthorhombic'
loop_
_space_group_symop_operation_xyz
x,y,z
-x,-y,1/2+z
x,-y,-z
-x,y,1/2-z
-x,-y,-z
x,y,1/2-z
-x,y,z
x,-y,1/2+z
1/2+x,1/2+y,z
1/2-x,1/2-y,1/2+z
1/2+x,1/2-y,-z
1/2-x,1/2+y,1/2-z
1/2-x,1/2-y,-z
1/2+x,1/2+y,1/2-z
1/2-x,1/2+y,z
1/2+x,1/2-y,1/2+z
loop_
_atom_site_type_symbol
_atom_site_label
_atom_site_fract_x
_atom_site_fract_y
_atom_site_fract_z
Si Si1 0.675113 0.219562 0.944692
Si Si2 0.500000 0.879960 0.938257
Si Si3 0.500000 0.776249 0.061119
Si Si4 0.822636 0.946638 0.943578
Si Si5 0.330063 0.887816 0.442230
Si Si6 0.000000 0.946525 0.944192
O O1 0.672602 0.219742 0.750000
O O2 0.587536 0.238306 0.005929
O O3 0.682796 0.165767 0.995839
O O4 0.750000 0.250000 0.000000
O O5 0.500000 0.868004 0.750000
O O6 0.500000 0.832284 0.041733
O O7 0.584667 0.904442 0.981560
O O8 0.500000 0.764318 0.250000
O O9 0.820111 0.945614 0.750000
O O10 0.911925 0.927742 0.997224
O O11 0.747419 0.917754 0.009710
O O12 0.816809 0.000000 0.000000
O O13 0.339230 0.888246 0.250000
O O14 0.000000 0.945182 0.750000
O O15 0.000000 0.000000 0.000000
#
# Coordination Sequence:
#
# PCOD9468984 Si02
#       6
#    16   8   8  16  16   8
#     4   9  18  32  51  72  97 128 164 203 245 290
#     4  10  18  30  51  76  97 126 167 207 246 298
#     4   8  16  32  49  68  97 133 165 198 245 300
#     4  10  19  33  53  77 102 132 168 207 249 296
#     4  10  20  35  52  73 102 135 167 205 250 298
#     4   8  16  30  49  72  99 129 165 203 241 288
#
# _framework density 18.274556
#
# number of rings (size 3 to 8) (size 9 to 14) (size 15 to 20)
#    0.000    2.667    0.000    3.667    0.000    5.333 
#    0.000    1.667    0.000    6.667    0.000    0.000 
#    0.000    0.000    0.000    0.000    0.000    0.000 
#
# Total GULP energy -200485.387022 kJ/mol
# GULP energy per Si atom -5569.038528 kJ/mol
# Density = 1.823296 g / cm^3
# Si number density = 18.274556 Si / 1000 Ang^3
#
#
#
# Elastic Constant Matrix: (Units=GPa)
#
#
# Indices 1 2 3 4 5 6 
#
# 1 233.2404 63.9610 24.0593 0.0000 0.0000 0.0000
# 2 63.9610 40.2725 11.6792 0.0000 0.0000 0.0000
# 3 24.0593 11.6792 27.9701 0.0000 0.0000 0.0000
# 4 0.0000 0.0000 0.0000 22.6211 0.0000 0.0000
# 5 0.0000 0.0000 0.0000 0.0000 24.2571 0.0000
# 6 0.0000 0.0000 0.0000 0.0000 0.0000 33.4203
#
#
#
# Elastic Compliance Matrix: (Units=1/GPa)
#
#
# Indices 1 2 3 4 5 6 
#
# 1 0.007667 -0.011679 -0.001719 0.000000 0.000000 0.000000
# 2 -0.011679 0.046041 -0.009179 0.000000 0.000000 0.000000
# 3 -0.001719 -0.009179 0.041064 0.000000 0.000000 0.000000
# 4 0.000000 0.000000 0.000000 0.044207 0.000000 0.000000
# 5 0.000000 0.000000 0.000000 0.000000 0.041225 0.000000
# 6 0.000000 0.000000 0.000000 0.000000 0.000000 0.029922
#
#
# Mechanical properties :
#
#
# Convention : Reuss Voigt Hill
#
# Bulk Modulus (GPa) = 20.15351 55.65354 37.90353
# Shear Modulus (GPa) = 18.39458 29.51192 23.95325
#
# Velocity S-wave (km/s) = 3.17609 4.02296 3.62435
# Velocity P-wave (km/s) = 4.94997 7.21798 6.18876
#
# Compressibility (1/GPa) = 0.04961914
#
# Stress axis : x y z
#
# Youngs Moduli (GPa) = 130.42203 21.71954 24.35244
#
# Poissons Ratio (x) = 0.25366 0.04185
# Poissons Ratio (y) = 1.52320 0.22353
# Poissons Ratio (z) = 0.22415 0.19936
#
# Static dielectric constant tensor:
#      x y z
#    x 1.692900 0.000000 0.000000 
#    y 0.000000 1.592890 0.000000 
#    z 0.000000 0.000000 1.636050 
# 
# From -- ./inp_files/4960.got.cif
#   From: 2010.05.17/outbox.cif.g08.bks.cpg/sg63_3_cif.got.tgz:4960.got - 2010.06.03 15:47:04.
