data_PCOD9468434
_publ_section_title
;
Structure prediction by ZEFSAII (Michael W. Deem and Ramdas Pophale) SiO2 
 PCOD9468434
Probable space group: C M C M
;
_chemical_formula_sum "Si O2"
_cell_formula_units_Z 60
_cell_length_a 12.567692
_cell_length_b 13.087952
_cell_length_c 15.311544
_cell_angle_alpha 90.000000
_cell_angle_beta 90.000000
_cell_angle_gamma 90.000000
_cell_volume 2518.524668
_symmetry_space_group_name_H-M "C M C M"
_symmetry_group_IT_number 63
_symmetry_cell_setting 'orthorhombic'
loop_
_space_group_symop_operation_xyz
x,y,z
-x,-y,1/2+z
x,-y,-z
-x,y,1/2-z
-x,-y,-z
x,y,1/2-z
-x,y,z
x,-y,1/2+z
1/2+x,1/2+y,z
1/2-x,1/2-y,1/2+z
1/2+x,1/2-y,-z
1/2-x,1/2+y,1/2-z
1/2-x,1/2-y,-z
1/2+x,1/2+y,1/2-z
1/2-x,1/2+y,z
1/2+x,1/2-y,1/2+z
loop_
_atom_site_type_symbol
_atom_site_label
_atom_site_fract_x
_atom_site_fract_y
_atom_site_fract_z
Si Si1 0.618142 0.795244 0.570373
Si Si2 0.784364 0.500000 0.500000
Si Si3 0.121092 0.010791 0.651037
Si Si4 0.500000 0.823093 0.250000
Si Si5 0.157685 0.773181 0.877424
O O1 0.500000 0.786493 0.606227
O O2 0.715549 0.764973 0.632007
O O3 0.629811 0.734068 0.479687
O O4 0.644857 0.910983 0.540827
O O5 0.706548 0.538893 0.577359
O O6 0.144760 0.044704 0.750000
O O7 0.123602 0.886300 0.652518
O O8 0.000000 0.041776 0.628102
O O9 0.407743 0.810340 0.325513
#
# Coordination Sequence:
#
# PCOD9468434 Si02
#       5
#    16   8  16   4  16
#     4  10  20  37  53  82 112 151 185 228 281 346
#     4  10  22  32  52  80 116 155 185 220 286 352
#     4  10  17  33  54  79 108 141 189 245 286 329
#     4  12  16  36  58  92 104 130 192 256 276 324
#     4  10  19  32  62  83 102 140 192 242 283 322
#
# _framework density 23.823471999999999
#
# number of rings (size 3 to 8) (size 9 to 14) (size 15 to 20)
#    0.000    1.867    4.000    0.800    0.000    0.000 
#    2.400    0.667    0.000    1.600    0.000    0.000 
#    0.000    0.000    0.000    0.000    0.000    0.000 
#
# Total GULP energy -167332.497728 kJ/mol
# GULP energy per Si atom -5577.749924 kJ/mol
# Density = 2.376925 g / cm^3
# Si number density = 23.823472 Si / 1000 Ang^3
#
#
#
# Elastic Constant Matrix: (Units=GPa)
#
#
# Indices 1 2 3 4 5 6 
#
# 1 242.3441 4.5389 46.0841 0.0000 0.0000 0.0000
# 2 4.5389 72.1730 6.5961 0.0000 0.0000 0.0000
# 3 46.0841 6.5961 65.2545 0.0000 0.0000 0.0000
# 4 0.0000 0.0000 0.0000 -79.3343 0.0000 0.0000
# 5 0.0000 0.0000 0.0000 0.0000 33.6318 0.0000
# 6 0.0000 0.0000 0.0000 0.0000 0.0000 5.7302
#
#
#
# Elastic Compliance Matrix: (Units=1/GPa)
#
#
# Indices 1 2 3 4 5 6 
#
# 1 0.004766 0.000008 -0.003367 0.000000 0.000000 0.000000
# 2 0.000008 0.013985 -0.001419 0.000000 0.000000 0.000000
# 3 -0.003367 -0.001419 0.017846 0.000000 0.000000 0.000000
# 4 0.000000 0.000000 0.000000 -0.012605 0.000000 0.000000
# 5 0.000000 0.000000 0.000000 0.000000 0.029734 0.000000
# 6 0.000000 0.000000 0.000000 0.000000 0.000000 0.174514
#
#
# Mechanical properties :
#
#
# Convention : Reuss Voigt Hill
#
# Bulk Modulus (GPa) = 36.98136 54.91219 45.94677
# Shear Modulus (GPa) = 20.25852 13.50905 16.88379
#
# Velocity S-wave (km/s) = 2.91926 2.38386 2.66504
# Velocity P-wave (km/s) = 5.18840 5.53866 5.36639
#
# Compressibility (1/GPa) = 0.02704065
#
# Stress axis : x y z
#
# Youngs Moduli (GPa) = 209.79840 71.50619 56.03525
#
# Poissons Ratio (x) = -0.00057 0.18867
# Poissons Ratio (y) = -0.00167 0.07953
# Poissons Ratio (z) = 0.70639 0.10148
#
# Static dielectric constant tensor:
#      x y z
#    x 1.900370 0.000000 0.000000 
#    y 0.000000 1.996830 0.000000 
#    z 0.000000 0.000000 1.863000 
# 
# From -- ./inp_files/29353.got.cif
#   From: 2010.05.17/outbox.cif.g08.bks.cpg/sg63_15_cif.got.tgz:29353.got - 2010.06.03 15:47:04.
