data_PCOD9468301
_publ_section_title
;
Structure prediction by ZEFSAII (Michael W. Deem and Ramdas Pophale) SiO2 
 PCOD9468301
Probable space group: C M C M
;
_chemical_formula_sum "Si O2"
_cell_formula_units_Z 64
_cell_length_a 21.261703
_cell_length_b 29.906575
_cell_length_c 5.520858
_cell_angle_alpha 90.000000
_cell_angle_beta 90.000000
_cell_angle_gamma 90.000000
_cell_volume 3510.518801
_symmetry_space_group_name_H-M "C M C M"
_symmetry_group_IT_number 63
_symmetry_cell_setting 'orthorhombic'
loop_
_space_group_symop_operation_xyz
x,y,z
-x,-y,1/2+z
x,-y,-z
-x,y,1/2-z
-x,-y,-z
x,y,1/2-z
-x,y,z
x,-y,1/2+z
1/2+x,1/2+y,z
1/2-x,1/2-y,1/2+z
1/2+x,1/2-y,-z
1/2-x,1/2+y,1/2-z
1/2-x,1/2-y,-z
1/2+x,1/2+y,1/2-z
1/2-x,1/2+y,z
1/2+x,1/2-y,1/2+z
loop_
_atom_site_type_symbol
_atom_site_label
_atom_site_fract_x
_atom_site_fract_y
_atom_site_fract_z
Si Si1 0.930430 0.971532 0.750000
Si Si2 0.201768 0.777155 0.750000
Si Si3 0.748224 0.895806 0.250000
Si Si4 0.332121 0.271351 0.250000
Si Si5 0.797085 0.074176 0.250000
Si Si6 0.140413 0.322246 0.250000
Si Si7 0.809719 0.505723 0.750000
Si Si8 0.574800 0.194140 0.250000
O O1 0.868665 0.941655 0.750000
O O2 0.000000 0.949703 0.750000
O O3 0.927167 0.000000 0.500000
O O4 0.276199 0.766756 0.750000
O O5 0.180088 0.797652 0.497174
O O6 0.168397 0.728170 0.750000
O O7 0.784286 0.898341 0.505229
O O8 0.697855 0.856414 0.250000
O O9 0.714195 0.943967 0.250000
O O10 0.397157 0.244793 0.250000
O O11 0.749301 0.030192 0.250000
O O12 0.101365 0.326900 0.499881
O O13 0.845670 0.500000 0.500000
O O14 0.500000 0.193696 0.250000
#
# Coordination Sequence:
#
# PCOD9468301 Si02
#       8
#     8   8   8   8   8   8   8   8
#     4  10  18  27  41  62  87 115 144 176 221 274
#     4   8  14  25  41  61  87 109 133 172 206 239
#     4  10  18  27  42  61  86 115 145 182 227 269
#     4   8  14  25  42  62  82 111 140 164 202 247
#     4  10  17  28  42  60  86 113 146 190 231 261
#     4  10  19  30  44  67  94 117 146 179 219 271
#     4   8  14  23  37  54  77 103 131 172 221 255
#     4  10  19  31  46  65  93 121 143 173 215 266
#
# _framework density 18.230923000000001
#
# number of rings (size 3 to 8) (size 9 to 14) (size 15 to 20)
#    0.000    2.750    0.000    4.125    0.000    0.000 
#    0.000    0.000    0.000    0.000    0.000    1.750 
#    0.000   90.000    0.000    0.000    0.000    0.000 
#
# Total GULP energy -178165.721524 kJ/mol
# GULP energy per Si atom -5567.678798 kJ/mol
# Density = 1.818943 g / cm^3
# Si number density = 18.230923 Si / 1000 Ang^3
#
#
#
# Elastic Constant Matrix: (Units=GPa)
#
#
# Indices 1 2 3 4 5 6 
#
# 1 94.7304 18.8364 33.9776 0.0000 0.0000 0.0000
# 2 18.8364 61.0092 18.2532 0.0000 0.0000 0.0000
# 3 33.9776 18.2532 196.4115 0.0000 0.0000 0.0000
# 4 0.0000 0.0000 0.0000 -6.0444 0.0000 0.0000
# 5 0.0000 0.0000 0.0000 0.0000 27.2113 0.0000
# 6 0.0000 0.0000 0.0000 0.0000 0.0000 25.4596
#
#
#
# Elastic Compliance Matrix: (Units=1/GPa)
#
#
# Indices 1 2 3 4 5 6 
#
# 1 0.011805 -0.003121 -0.001752 0.000000 0.000000 0.000000
# 2 -0.003121 0.017685 -0.001104 0.000000 0.000000 0.000000
# 3 -0.001752 -0.001104 0.005497 0.000000 0.000000 0.000000
# 4 0.000000 0.000000 0.000000 -0.165443 0.000000 0.000000
# 5 0.000000 0.000000 0.000000 0.000000 0.036749 0.000000
# 6 0.000000 0.000000 0.000000 0.000000 0.000000 0.039278
#
#
# Mechanical properties :
#
#
# Convention : Reuss Voigt Hill
#
# Bulk Modulus (GPa) = 43.41405 54.92061 49.16733
# Shear Modulus (GPa) = -143.68813 28.06423 -57.81195
#
# Velocity S-wave (km/s) = -8.88745 3.92774 -5.63735
# Velocity P-wave (km/s) = 9.02499 7.12460 3.91731
#
# Compressibility (1/GPa) = 0.02303402
#
# Stress axis : x y z
#
# Youngs Moduli (GPa) = 84.70803 56.54617 181.91630
#
# Poissons Ratio (x) = 0.17646 0.31875
# Poissons Ratio (y) = 0.26434 0.20077
# Poissons Ratio (z) = 0.14843 0.06241
#
# Static dielectric constant tensor:
#      x y z
#    x 1.583870 0.000000 0.000000 
#    y 0.000000 1.626850 0.000000 
#    z 0.000000 0.000000 1.767860 
# 
# From -- ./inp_files/842.got.cif
#   From: 2010.05.17/outbox.cif.g08.bks.cpg/sg63_1_cif.got.tgz:842.got - 2010.06.03 15:47:04.
