data_PCOD9468876
_publ_section_title
;
Structure prediction by ZEFSAII (Michael W. Deem and Ramdas Pophale) SiO2 
 PCOD9468876
Probable space group: C M C M
;
_chemical_formula_sum "Si O2"
_cell_formula_units_Z 72
_cell_length_a 16.140921
_cell_length_b 29.457526
_cell_length_c 8.481819
_cell_angle_alpha 90.000000
_cell_angle_beta 90.000000
_cell_angle_gamma 90.000000
_cell_volume 4032.864051
_symmetry_space_group_name_H-M "C M C M"
_symmetry_group_IT_number 63
_symmetry_cell_setting 'orthorhombic'
loop_
_space_group_symop_operation_xyz
x,y,z
-x,-y,1/2+z
x,-y,-z
-x,y,1/2-z
-x,-y,-z
x,y,1/2-z
-x,y,z
x,-y,1/2+z
1/2+x,1/2+y,z
1/2-x,1/2-y,1/2+z
1/2+x,1/2-y,-z
1/2-x,1/2+y,1/2-z
1/2-x,1/2-y,-z
1/2+x,1/2+y,1/2-z
1/2-x,1/2+y,z
1/2+x,1/2-y,1/2+z
loop_
_atom_site_type_symbol
_atom_site_label
_atom_site_fract_x
_atom_site_fract_y
_atom_site_fract_z
Si Si1 0.324434 0.551049 0.438288
Si Si2 0.092778 0.803183 0.942109
Si Si3 0.753183 0.359160 0.940290
Si Si4 0.092920 0.697684 0.560060
Si Si5 0.500000 0.551902 0.938079
O O1 0.311979 0.500000 0.500000
O O2 0.327587 0.548601 0.250000
O O3 0.256991 0.588240 0.488166
O O4 0.413600 0.569978 0.495876
O O5 0.091909 0.805101 0.750000
O O6 0.170892 0.832390 0.996525
O O7 0.105287 0.750402 0.987014
O O8 0.000000 0.817337 0.994682
O O9 0.752542 0.357879 0.750000
O O10 0.835055 0.334261 0.997866
O O11 0.094630 0.696841 0.750000
O O12 0.000000 0.684256 0.508959
O O13 0.500000 0.552721 0.750000
O O14 0.500000 0.500000 0.000000
#
# Coordination Sequence:
#
# PCOD9468876 Si02
#       5
#    16  16  16  16   8
#     4  10  20  33  49  71  99 132 169 205 249 295
#     4   8  15  29  49  73 102 134 165 196 237 294
#     4  10  20  31  51  77  98 130 170 207 246 290
#     4   9  18  33  52  73  99 132 165 201 250 300
#     4  10  18  30  48  68  94 130 166 200 242 288
#
# _framework density 17.853317000000001
#
# number of rings (size 3 to 8) (size 9 to 14) (size 15 to 20)
#    0.000    2.667    0.000    5.000    1.556    2.222 
#    0.000    0.000    0.000    2.000    0.000    0.000 
#    0.000    0.000    0.000    0.000    0.000    0.000 
#
# Total GULP energy -200716.106767 kJ/mol
# GULP energy per Si atom -5575.447410 kJ/mol
# Density = 1.781268 g / cm^3
# Si number density = 17.853317 Si / 1000 Ang^3
#
#
#
# Elastic Constant Matrix: (Units=GPa)
#
#
# Indices 1 2 3 4 5 6 
#
# 1 131.6530 92.4783 20.1547 0.0000 0.0000 0.0000
# 2 92.4783 110.1743 24.8926 0.0000 0.0000 0.0000
# 3 20.1547 24.8926 28.6364 0.0000 0.0000 0.0000
# 4 0.0000 0.0000 0.0000 16.4637 0.0000 0.0000
# 5 0.0000 0.0000 0.0000 0.0000 27.9033 0.0000
# 6 0.0000 0.0000 0.0000 0.0000 0.0000 27.1148
#
#
#
# Elastic Compliance Matrix: (Units=1/GPa)
#
#
# Indices 1 2 3 4 5 6 
#
# 1 0.018517 -0.015677 0.000595 0.000000 0.000000 0.000000
# 2 -0.015677 0.024568 -0.010322 0.000000 0.000000 0.000000
# 3 0.000595 -0.010322 0.043474 0.000000 0.000000 0.000000
# 4 0.000000 0.000000 0.000000 0.060740 0.000000 0.000000
# 5 0.000000 0.000000 0.000000 0.000000 0.035838 0.000000
# 6 0.000000 0.000000 0.000000 0.000000 0.000000 0.036880
#
#
# Mechanical properties :
#
#
# Convention : Reuss Voigt Hill
#
# Bulk Modulus (GPa) = 27.97140 60.61278 44.29209
# Shear Modulus (GPa) = 17.68393 23.15889 20.42141
#
# Velocity S-wave (km/s) = 3.15065 3.60554 3.38575
# Velocity P-wave (km/s) = 5.37930 7.16640 6.33617
#
# Compressibility (1/GPa) = 0.03575081
#
# Stress axis : x y z
#
# Youngs Moduli (GPa) = 54.00467 40.70353 23.00206
#
# Poissons Ratio (x) = 0.63812 -0.01369
# Poissons Ratio (y) = 0.84664 0.23743
# Poissons Ratio (z) = -0.03215 0.42015
#
# Static dielectric constant tensor:
#      x y z
#    x 1.613420 0.000000 0.000000 
#    y 0.000000 1.612940 0.000000 
#    z 0.000000 0.000000 1.615070 
# 
# From -- ./inp_files/4908.got.cif
#   From: 2010.05.17/outbox.cif.g08.bks.cpg/sg63_3_cif.got.tgz:4908.got - 2010.06.03 15:47:04.
