data_PCOD9468192
_publ_section_title
;
Structure prediction by ZEFSAII (Michael W. Deem and Ramdas Pophale) SiO2 
 PCOD9468192
Probable space group: C M C M
;
_chemical_formula_sum "Si O2"
_cell_formula_units_Z 128
_cell_length_a 19.483837
_cell_length_b 14.439810
_cell_length_c 24.108365
_cell_angle_alpha 90.000000
_cell_angle_beta 90.000000
_cell_angle_gamma 90.000000
_cell_volume 6782.717428
_symmetry_space_group_name_H-M "C M C M"
_symmetry_group_IT_number 63
_symmetry_cell_setting 'orthorhombic'
loop_
_space_group_symop_operation_xyz
x,y,z
-x,-y,1/2+z
x,-y,-z
-x,y,1/2-z
-x,-y,-z
x,y,1/2-z
-x,y,z
x,-y,1/2+z
1/2+x,1/2+y,z
1/2-x,1/2-y,1/2+z
1/2+x,1/2-y,-z
1/2-x,1/2+y,1/2-z
1/2-x,1/2-y,-z
1/2+x,1/2+y,1/2-z
1/2-x,1/2+y,z
1/2+x,1/2-y,1/2+z
loop_
_atom_site_type_symbol
_atom_site_label
_atom_site_fract_x
_atom_site_fract_y
_atom_site_fract_z
Si Si1 0.331059 0.694195 0.187630
Si Si2 0.417986 0.878461 0.314912
Si Si3 0.816450 0.439797 0.411196
Si Si4 0.575828 0.344611 0.105235
Si Si5 0.715972 0.280746 0.113316
Si Si6 0.780856 0.625593 0.472835
Si Si7 0.382201 0.394472 0.987389
Si Si8 0.576743 0.436813 0.630971
O O1 0.306642 0.695482 0.250000
O O2 0.389665 0.773143 0.181370
O O3 0.268181 0.721395 0.149185
O O4 0.365246 0.597695 0.172044
O O5 0.404325 0.907804 0.250000
O O6 0.500000 0.883684 0.323689
O O7 0.374553 0.929250 0.363902
O O8 0.749447 0.383100 0.390228
O O9 0.801922 0.545069 0.429226
O O10 0.825885 0.388402 0.471317
O O11 0.500000 0.312802 0.120074
O O12 0.638460 0.291563 0.133291
O O13 0.581728 0.453977 0.118853
O O14 0.587488 0.337685 0.038618
O O15 0.713294 0.224849 0.055550
O O16 0.700431 0.608547 0.485999
O O17 0.410147 0.378771 0.925777
O O18 0.402960 0.500000 0.000000
O O19 0.500000 0.418108 0.651419
#
# Coordination Sequence:
#
# PCOD9468192 Si02
#       8
#    16  16  16  16  16  16  16  16
#     4  10  21  36  57  84 108 140 195 251 295 344
#     4   9  19  37  58  80 112 151 189 237 295 348
#     4  10  20  34  55  85 113 147 198 241 289 348
#     4  10  21  34  52  83 119 153 187 224 279 360
#     4  11  21  35  58  77 117 154 193 235 296 348
#     4  11  19  33  55  83 114 154 192 241 292 335
#     4  10  16  30  52  79 114 149 185 226 278 340
#     4  10  19  32  53  82 117 149 181 232 296 348
#
# _framework density 18.871492
#
# number of rings (size 3 to 8) (size 9 to 14) (size 15 to 20)
#    0.000    1.875    3.750    1.875    0.000    2.250 
#    0.000    5.000    0.000    1.125    0.000    0.000 
#    0.000    0.000    0.000    0.000    0.000    0.000 
#
# Total GULP energy -356682.715100 kJ/mol
# GULP energy per Si atom -5573.167423 kJ/mol
# Density = 1.882854 g / cm^3
# Si number density = 18.871492 Si / 1000 Ang^3
#
#
#
# Elastic Constant Matrix: (Units=GPa)
#
#
# Indices 1 2 3 4 5 6 
#
# 1 134.7296 26.8532 45.0441 0.0000 0.0000 0.0000
# 2 26.8532 28.6957 17.9451 0.0000 0.0000 0.0000
# 3 45.0441 17.9451 68.2588 0.0000 0.0000 0.0000
# 4 0.0000 0.0000 0.0000 18.6704 0.0000 0.0000
# 5 0.0000 0.0000 0.0000 0.0000 23.1618 0.0000
# 6 0.0000 0.0000 0.0000 0.0000 0.0000 19.4706
#
#
#
# Elastic Compliance Matrix: (Units=1/GPa)
#
#
# Indices 1 2 3 4 5 6 
#
# 1 0.010459 -0.006548 -0.005181 0.000000 0.000000 0.000000
# 2 -0.006548 0.045804 -0.007721 0.000000 0.000000 0.000000
# 3 -0.005181 -0.007721 0.020099 0.000000 0.000000 0.000000
# 4 0.000000 0.000000 0.000000 0.053561 0.000000 0.000000
# 5 0.000000 0.000000 0.000000 0.000000 0.043175 0.000000
# 6 0.000000 0.000000 0.000000 0.000000 0.000000 0.051359
#
#
# Mechanical properties :
#
#
# Convention : Reuss Voigt Hill
#
# Bulk Modulus (GPa) = 26.69282 45.70765 36.20023
# Shear Modulus (GPa) = 18.12618 21.71667 19.92143
#
# Velocity S-wave (km/s) = 3.10257 3.39597 3.25258
# Velocity P-wave (km/s) = 5.19709 6.29682 5.77320
#
# Compressibility (1/GPa) = 0.03746326
#
# Stress axis : x y z
#
# Youngs Moduli (GPa) = 95.60723 21.83204 49.75444
#
# Poissons Ratio (x) = 0.14296 0.25777
# Poissons Ratio (y) = 0.62604 0.38414
# Poissons Ratio (z) = 0.49532 0.16856
#
# Static dielectric constant tensor:
#      x y z
#    x 1.650650 0.000000 0.000000 
#    y 0.000000 1.675070 0.000000 
#    z 0.000000 0.000000 1.699230 
# 
# From -- ./inp_files/64054.got.cif
#   From: 2010.05.17/outbox.cif.g08.bks.cpg/sg63_33_cif.got.tgz:64054.got - 2010.06.03 15:47:04.
