data_PCOD9468519
_publ_section_title
;
Structure prediction by ZEFSAII (Michael W. Deem and Ramdas Pophale) SiO2 
 PCOD9468519
Probable space group: C M C M
;
_chemical_formula_sum "Si O2"
_cell_formula_units_Z 112
_cell_length_a 14.884884
_cell_length_b 31.597331
_cell_length_c 13.940491
_cell_angle_alpha 90.000000
_cell_angle_beta 90.000000
_cell_angle_gamma 90.000000
_cell_volume 6556.528065
_symmetry_space_group_name_H-M "C M C M"
_symmetry_group_IT_number 63
_symmetry_cell_setting 'orthorhombic'
loop_
_space_group_symop_operation_xyz
x,y,z
-x,-y,1/2+z
x,-y,-z
-x,y,1/2-z
-x,-y,-z
x,y,1/2-z
-x,y,z
x,-y,1/2+z
1/2+x,1/2+y,z
1/2-x,1/2-y,1/2+z
1/2+x,1/2-y,-z
1/2-x,1/2+y,1/2-z
1/2-x,1/2-y,-z
1/2+x,1/2+y,1/2-z
1/2-x,1/2+y,z
1/2+x,1/2-y,1/2+z
loop_
_atom_site_type_symbol
_atom_site_label
_atom_site_fract_x
_atom_site_fract_y
_atom_site_fract_z
Si Si1 0.608788 0.726031 0.956972
Si Si2 0.326906 0.565014 0.509164
Si Si3 0.104007 0.825602 0.858433
Si Si4 0.108410 0.140421 0.641626
Si Si5 0.893501 0.311206 0.862467
Si Si6 0.601814 0.495461 0.638645
Si Si7 0.766998 0.609692 0.140281
O O1 0.500000 0.728329 0.949082
O O2 0.637409 0.687795 0.887187
O O3 0.641387 0.772093 0.925887
O O4 0.628974 0.709523 0.063403
O O5 0.356388 0.606964 0.564821
O O6 0.392890 0.545993 0.427502
O O7 0.329981 0.528680 0.590479
O O8 0.239974 0.575592 0.444512
O O9 0.109146 0.808908 0.750000
O O10 0.172395 0.864629 0.863341
O O11 0.000000 0.838437 0.876918
O O12 0.136202 0.129765 0.750000
O O13 0.000000 0.139346 0.638395
O O14 0.880775 0.299956 0.750000
O O15 0.841416 0.354699 0.879069
O O16 0.000000 0.316876 0.878089
O O17 0.620203 0.486925 0.750000
O O18 0.500000 0.513207 0.632368
O O19 0.778165 0.593825 0.250000
#
# Coordination Sequence:
#
# PCOD9468519 Si02
#       7
#    16  16  16  16  16  16  16
#     4   9  16  28  46  66  90 127 168 205 246 283
#     4  11  19  31  46  66  94 125 155 194 237 284
#     4   9  17  28  41  62  94 128 160 196 238 284
#     4  10  18  27  42  65  94 129 167 205 239 272
#     4   9  18  33  51  70  94 124 162 209 254 290
#     4  10  21  34  49  69  95 130 167 197 228 276
#     4  10  20  32  48  71  95 125 165 203 241 285
#
# _framework density 17.082211999999998
#
# number of rings (size 3 to 8) (size 9 to 14) (size 15 to 20)
#    0.000    2.286    1.429    3.000    0.000    4.571 
#    0.000    1.429    0.000    0.857    0.000    2.000 
#    0.000    1.143    0.000    0.000    0.000    0.000 
#
# Total GULP energy -311986.013988 kJ/mol
# GULP energy per Si atom -5571.178821 kJ/mol
# Density = 1.704333 g / cm^3
# Si number density = 17.082212 Si / 1000 Ang^3
#
#
#
# Elastic Constant Matrix: (Units=GPa)
#
#
# Indices 1 2 3 4 5 6 
#
# 1 22.4798 13.3402 9.7636 0.0000 0.0000 0.0000
# 2 13.3402 54.9059 32.5820 0.0000 0.0000 0.0000
# 3 9.7636 32.5820 120.4142 0.0000 0.0000 0.0000
# 4 0.0000 0.0000 0.0000 25.9756 0.0000 0.0000
# 5 0.0000 0.0000 0.0000 0.0000 11.6651 0.0000
# 6 0.0000 0.0000 0.0000 0.0000 0.0000 19.4982
#
#
#
# Elastic Compliance Matrix: (Units=1/GPa)
#
#
# Indices 1 2 3 4 5 6 
#
# 1 0.052070 -0.012086 -0.000952 0.000000 0.000000 0.000000
# 2 -0.012086 0.024502 -0.005650 0.000000 0.000000 0.000000
# 3 -0.000952 -0.005650 0.009911 0.000000 0.000000 0.000000
# 4 0.000000 0.000000 0.000000 0.038498 0.000000 0.000000
# 5 0.000000 0.000000 0.000000 0.000000 0.085726 0.000000
# 6 0.000000 0.000000 0.000000 0.000000 0.000000 0.051287
#
#
# Mechanical properties :
#
#
# Convention : Reuss Voigt Hill
#
# Bulk Modulus (GPa) = 20.36365 34.35240 27.35802
# Shear Modulus (GPa) = 15.83588 20.90204 18.36896
#
# Velocity S-wave (km/s) = 3.04804 3.50181 3.28278
# Velocity P-wave (km/s) = 4.93297 6.04185 5.51535
#
# Compressibility (1/GPa) = 0.04910711
#
# Stress axis : x y z
#
# Youngs Moduli (GPa) = 19.20481 40.81251 100.90216
#
# Poissons Ratio (x) = 0.49328 0.09602
# Poissons Ratio (y) = 0.23212 0.57009
# Poissons Ratio (z) = 0.01828 0.23059
#
# Static dielectric constant tensor:
#      x y z
#    x 1.577540 0.000000 0.000000 
#    y 0.000000 1.610700 0.000000 
#    z 0.000000 0.000000 1.616840 
# 
# From -- ./inp_files/32732.got.cif
#   From: 2010.05.17/outbox.cif.g08.bks.cpg/sg63_17_cif.got.tgz:32732.got - 2010.06.03 15:47:04.
