data_PCOD9468942
_publ_section_title
;
Structure prediction by ZEFSAII (Michael W. Deem and Ramdas Pophale) SiO2 
 PCOD9468942
Probable space group: C M C M
;
_chemical_formula_sum "Si O2"
_cell_formula_units_Z 96
_cell_length_a 9.056629
_cell_length_b 25.777874
_cell_length_c 25.662655
_cell_angle_alpha 90.000000
_cell_angle_beta 90.000000
_cell_angle_gamma 90.000000
_cell_volume 5991.219892
_symmetry_space_group_name_H-M "C M C M"
_symmetry_group_IT_number 63
_symmetry_cell_setting 'orthorhombic'
loop_
_space_group_symop_operation_xyz
x,y,z
-x,-y,1/2+z
x,-y,-z
-x,y,1/2-z
-x,-y,-z
x,y,1/2-z
-x,y,z
x,-y,1/2+z
1/2+x,1/2+y,z
1/2-x,1/2-y,1/2+z
1/2+x,1/2-y,-z
1/2-x,1/2+y,1/2-z
1/2-x,1/2-y,-z
1/2+x,1/2+y,1/2-z
1/2-x,1/2+y,z
1/2+x,1/2-y,1/2+z
loop_
_atom_site_type_symbol
_atom_site_label
_atom_site_fract_x
_atom_site_fract_y
_atom_site_fract_z
Si Si1 0.826455 0.448973 0.750000
Si Si2 0.673575 0.938866 0.865440
Si Si3 0.176021 0.137062 0.938385
Si Si4 0.323644 0.752981 0.556943
Si Si5 0.825128 0.059289 0.750000
Si Si6 0.675812 0.938173 0.142708
Si Si7 0.324266 0.357370 0.561452
O O1 0.804661 0.421265 0.694814
O O2 0.720436 0.498541 0.750000
O O3 0.000000 0.467144 0.750000
O O4 0.500000 0.932609 0.878051
O O5 0.769709 0.905611 0.904774
O O6 0.707353 0.000482 0.866427
O O7 0.206320 0.196140 0.919429
O O8 0.263992 0.095777 0.904674
O O9 0.000000 0.128009 0.933576
O O10 0.212787 0.134569 0.000094
O O11 0.500000 0.758280 0.552187
O O12 0.250000 0.750000 0.500000
O O13 0.254872 0.804744 0.581071
O O14 0.753547 0.079279 0.803582
O O15 0.000000 0.066156 0.750000
O O16 0.500000 0.933334 0.148071
O O17 0.500000 0.350810 0.564492
#
# Coordination Sequence:
#
# PCOD9468942 Si02
#       7
#     8  16  16  16   8  16  16
#     4   8  16  32  50  69  94 125 164 202 236 282
#     4   9  18  32  49  70  97 128 161 198 241 287
#     4   9  19  33  48  70  98 127 159 197 242 287
#     4   9  17  31  50  70  94 125 162 200 237 282
#     4  10  18  30  50  71  94 125 160 198 238 282
#     4  10  20  33  50  72  98 128 162 199 238 284
#     4  10  20  32  48  72 100 129 162 200 240 284
#
# _framework density 16.023447000000001
#
# number of rings (size 3 to 8) (size 9 to 14) (size 15 to 20)
#    0.000    2.667    0.000    4.250    0.000    8.000 
#    0.000    3.333    0.000    1.000    0.000    2.333 
#    0.000    0.000    0.000    0.000    0.000    0.000 
#
# Total GULP energy -267315.777424 kJ/mol
# GULP energy per Si atom -5569.078696 kJ/mol
# Density = 1.598698 g / cm^3
# Si number density = 16.023447 Si / 1000 Ang^3
#
#
#
# Elastic Constant Matrix: (Units=GPa)
#
#
# Indices 1 2 3 4 5 6 
#
# 1 70.5600 54.3656 52.9209 0.0000 0.0000 0.0000
# 2 54.3656 83.2119 55.8992 0.0000 0.0000 0.0000
# 3 52.9209 55.8992 86.3286 0.0000 0.0000 0.0000
# 4 0.0000 0.0000 0.0000 -3.4575 0.0000 0.0000
# 5 0.0000 0.0000 0.0000 0.0000 28.6279 0.0000
# 6 0.0000 0.0000 0.0000 0.0000 0.0000 30.2991
#
#
#
# Elastic Compliance Matrix: (Units=1/GPa)
#
#
# Indices 1 2 3 4 5 6 
#
# 1 0.033867 -0.014478 -0.011387 0.000000 0.000000 0.000000
# 2 -0.014478 0.027458 -0.008905 0.000000 0.000000 0.000000
# 3 -0.011387 -0.008905 0.024330 0.000000 0.000000 0.000000
# 4 0.000000 0.000000 0.000000 -0.289224 0.000000 0.000000
# 5 0.000000 0.000000 0.000000 0.000000 0.034931 0.000000
# 6 0.000000 0.000000 0.000000 0.000000 0.000000 0.033004
#
#
# Mechanical properties :
#
#
# Convention : Reuss Voigt Hill
#
# Bulk Modulus (GPa) = 62.04485 62.94132 62.49309
# Shear Modulus (GPa) = -82.34156 16.22155 -33.06000
#
# Velocity S-wave (km/s) = -7.17633 3.18522 -4.54720
# Velocity P-wave (km/s) = 5.46452 7.27279 3.39357
#
# Compressibility (1/GPa) = 0.01611737
#
# Stress axis : x y z
#
# Youngs Moduli (GPa) = 29.52689 36.41908 41.10186
#
# Poissons Ratio (x) = 0.52726 0.46802
# Poissons Ratio (y) = 0.42748 0.36599
# Poissons Ratio (z) = 0.33622 0.32430
#
# Static dielectric constant tensor:
#      x y z
#    x 1.530390 0.000000 0.000000 
#    y 0.000000 1.548860 0.000000 
#    z 0.000000 0.000000 1.539840 
# 
# From -- ./inp_files/60010.got.cif
#   From: 2010.05.17/outbox.cif.g08.bks.cpg/sg63_31_cif.got.tgz:60010.got - 2010.06.03 15:47:04.
