data_PCOD9468839
_publ_section_title
;
Structure prediction by ZEFSAII (Michael W. Deem and Ramdas Pophale) SiO2 
 PCOD9468839
Probable space group: C M C M
;
_chemical_formula_sum "Si O2"
_cell_formula_units_Z 88
_cell_length_a 20.668906
_cell_length_b 31.602968
_cell_length_c 7.958275
_cell_angle_alpha 90.000000
_cell_angle_beta 90.000000
_cell_angle_gamma 90.000000
_cell_volume 5198.335480
_symmetry_space_group_name_H-M "C M C M"
_symmetry_group_IT_number 63
_symmetry_cell_setting 'orthorhombic'
loop_
_space_group_symop_operation_xyz
x,y,z
-x,-y,1/2+z
x,-y,-z
-x,y,1/2-z
-x,-y,-z
x,y,1/2-z
-x,y,z
x,-y,1/2+z
1/2+x,1/2+y,z
1/2-x,1/2-y,1/2+z
1/2+x,1/2-y,-z
1/2-x,1/2+y,1/2-z
1/2-x,1/2-y,-z
1/2+x,1/2+y,1/2-z
1/2-x,1/2+y,z
1/2+x,1/2-y,1/2+z
loop_
_atom_site_type_symbol
_atom_site_label
_atom_site_fract_x
_atom_site_fract_y
_atom_site_fract_z
Si Si1 0.143038 0.548891 0.449251
Si Si2 0.788657 0.207243 0.045948
Si Si3 0.295496 0.870253 0.554702
Si Si4 0.429643 0.270139 0.952644
Si Si5 0.000000 0.450635 0.051673
Si Si6 0.928010 0.330825 0.048461
O O1 0.150701 0.500000 0.500000
O O2 0.148368 0.549871 0.250000
O O3 0.194300 0.582840 0.520675
O O4 0.070096 0.564282 0.491342
O O5 0.789120 0.205918 0.250000
O O6 0.752021 0.165309 0.981364
O O7 0.862750 0.210099 0.984865
O O8 0.750000 0.250000 0.000000
O O9 0.276808 0.875174 0.750000
O O10 0.367263 0.850538 0.543606
O O11 0.430340 0.275793 0.750000
O O12 0.500000 0.284968 0.016949
O O13 0.426074 0.219662 0.980418
O O14 0.000000 0.446391 0.250000
O O15 0.000000 0.500000 0.000000
O O16 0.921392 0.337820 0.250000
O O17 0.000000 0.345857 0.999109
#
# Coordination Sequence:
#
# PCOD9468839 Si02
#       6
#    16  16  16  16   8  16
#     4  10  20  34  46  60  84 112 145 184 225 265
#     4  10  18  30  46  65  90 117 144 176 216 258
#     4  10  21  31  43  64  88 114 143 182 230 262
#     4   8  14  26  44  63  85 114 146 178 208 244
#     4  10  18  30  48  66  82 108 146 186 228 264
#     4   9  17  28  42  62  85 114 153 186 210 248
#
# _framework density 16.928495999999999
#
# number of rings (size 3 to 8) (size 9 to 14) (size 15 to 20)
#    0.000    2.545    1.818    3.545    1.273    1.818 
#    0.000    0.000    0.000    0.545    0.000    0.000 
#    0.000    0.727    0.000    0.545    0.000    1.091 
#
# Total GULP energy -245168.175667 kJ/mol
# GULP energy per Si atom -5572.003992 kJ/mol
# Density = 1.688997 g / cm^3
# Si number density = 16.928496 Si / 1000 Ang^3
#
#
#
# Elastic Constant Matrix: (Units=GPa)
#
#
# Indices 1 2 3 4 5 6 
#
# 1 116.7256 65.4341 1.8731 0.0000 0.0000 0.0000
# 2 65.4341 102.9696 10.0556 0.0000 0.0000 0.0000
# 3 1.8731 10.0556 21.0419 0.0000 0.0000 0.0000
# 4 0.0000 0.0000 0.0000 10.1739 0.0000 0.0000
# 5 0.0000 0.0000 0.0000 0.0000 10.2999 0.0000
# 6 0.0000 0.0000 0.0000 0.0000 0.0000 34.6442
#
#
#
# Elastic Compliance Matrix: (Units=1/GPa)
#
#
# Indices 1 2 3 4 5 6 
#
# 1 0.013490 -0.008869 0.003038 0.000000 0.000000 0.000000
# 2 -0.008869 0.016018 -0.006865 0.000000 0.000000 0.000000
# 3 0.003038 -0.006865 0.050535 0.000000 0.000000 0.000000
# 4 0.000000 0.000000 0.000000 0.098291 0.000000 0.000000
# 5 0.000000 0.000000 0.000000 0.000000 0.097089 0.000000
# 6 0.000000 0.000000 0.000000 0.000000 0.000000 0.028865
#
#
# Mechanical properties :
#
#
# Convention : Reuss Voigt Hill
#
# Bulk Modulus (GPa) = 18.29854 43.94031 31.11942
# Shear Modulus (GPa) = 14.37203 21.91521 18.14362
#
# Velocity S-wave (km/s) = 2.91689 3.60192 3.27736
# Velocity P-wave (km/s) = 4.70926 6.58113 5.72225
#
# Compressibility (1/GPa) = 0.05464916
#
# Stress axis : x y z
#
# Youngs Moduli (GPa) = 74.12712 62.42880 19.78839
#
# Poissons Ratio (x) = 0.55370 -0.06011
# Poissons Ratio (y) = 0.65746 0.13585
# Poissons Ratio (z) = -0.22517 0.42860
#
# Static dielectric constant tensor:
#      x y z
#    x 1.605380 0.000000 0.000000 
#    y 0.000000 1.629540 0.000000 
#    z 0.000000 0.000000 1.619570 
# 
# From -- ./inp_files/9005.got.cif
#   From: 2010.05.17/outbox.cif.g08.bks.cpg/sg63_5_cif.got.tgz:9005.got - 2010.06.03 15:47:04.
