data_PCOD9468230
_publ_section_title
;
Structure prediction by ZEFSAII (Michael W. Deem and Ramdas Pophale) SiO2 
 PCOD9468230
Probable space group: C M C M
;
_chemical_formula_sum "Si O2"
_cell_formula_units_Z 100
_cell_length_a 34.085905
_cell_length_b 6.910688
_cell_length_c 16.942126
_cell_angle_alpha 90.000000
_cell_angle_beta 90.000000
_cell_angle_gamma 90.000000
_cell_volume 3990.837300
_symmetry_space_group_name_H-M "C M C M"
_symmetry_group_IT_number 63
_symmetry_cell_setting 'orthorhombic'
loop_
_space_group_symop_operation_xyz
x,y,z
-x,-y,1/2+z
x,-y,-z
-x,y,1/2-z
-x,-y,-z
x,y,1/2-z
-x,y,z
x,-y,1/2+z
1/2+x,1/2+y,z
1/2-x,1/2-y,1/2+z
1/2+x,1/2-y,-z
1/2-x,1/2+y,1/2-z
1/2-x,1/2-y,-z
1/2+x,1/2+y,1/2-z
1/2-x,1/2+y,z
1/2+x,1/2-y,1/2+z
loop_
_atom_site_type_symbol
_atom_site_label
_atom_site_fract_x
_atom_site_fract_y
_atom_site_fract_z
Si Si1 0.116229 0.896220 0.660321
Si Si2 0.642293 0.940616 0.658601
Si Si3 0.500000 0.263605 0.250000
Si Si4 0.043142 0.783766 0.930884
Si Si5 0.799761 0.050631 0.157568
Si Si6 0.221365 0.560769 0.911678
Si Si7 0.442249 0.161556 0.391514
O O1 0.103312 0.933430 0.750000
O O2 0.130718 0.671093 0.657374
O O3 0.079449 0.904783 0.602680
O O4 0.155758 0.018462 0.644247
O O5 0.645612 0.885174 0.750000
O O6 0.604729 0.839965 0.619471
O O7 0.685212 0.930885 0.619390
O O8 0.465795 0.249473 0.319183
O O9 0.046357 0.567573 0.894335
O O10 0.000000 0.860672 0.910646
O O11 0.046581 0.749989 0.024135
O O12 0.799395 0.113947 0.250000
O O13 0.794454 0.223081 0.095339
O O14 0.760262 0.932844 0.142142
O O15 0.230721 0.500000 0.000000
#
# Coordination Sequence:
#
# PCOD9468230 Si02
#       7
#    16  16   4  16  16  16  16
#     4   8  17  28  45  64  90 129 169 206 259 311
#     4   9  17  28  42  63  89 132 172 205 252 311
#     4  12  16  26  36  56  86 128 176 208 240 316
#     4  10  17  25  36  59  88 123 161 205 257 303
#     4  10  20  38  55  75 105 146 179 220 268 327
#     4  11  22  34  54  80 106 137 183 225 275 315
#     4  10  18  24  36  56  87 126 168 206 247 299
#
# _framework density 25.057396000000001
#
# number of rings (size 3 to 8) (size 9 to 14) (size 15 to 20)
#    0.000    2.240    2.400    3.360    7.840    0.320 
#    0.000    0.000    0.000    0.000    0.000    0.000 
#    0.000    0.640    2.720    1.280    0.000    6.240 
#
# Total GULP energy -279376.206018 kJ/mol
# GULP energy per Si atom -5587.524120 kJ/mol
# Density = 2.500036 g / cm^3
# Si number density = 25.057396 Si / 1000 Ang^3
#
#
#
# Elastic Constant Matrix: (Units=GPa)
#
#
# Indices 1 2 3 4 5 6 
#
# 1 244.2171 39.7310 75.4256 0.0000 0.0000 0.0000
# 2 39.7310 60.6445 14.4146 0.0000 0.0000 0.0000
# 3 75.4256 14.4146 93.6236 0.0000 0.0000 0.0000
# 4 0.0000 0.0000 0.0000 7.8075 0.0000 0.0000
# 5 0.0000 0.0000 0.0000 0.0000 45.6983 0.0000
# 6 0.0000 0.0000 0.0000 0.0000 0.0000 39.1253
#
#
#
# Elastic Compliance Matrix: (Units=1/GPa)
#
#
# Indices 1 2 3 4 5 6 
#
# 1 0.005885 -0.002832 -0.004305 0.000000 0.000000 0.000000
# 2 -0.002832 0.018479 -0.000563 0.000000 0.000000 0.000000
# 3 -0.004305 -0.000563 0.014236 0.000000 0.000000 0.000000
# 4 0.000000 0.000000 0.000000 0.128082 0.000000 0.000000
# 5 0.000000 0.000000 0.000000 0.000000 0.021883 0.000000
# 6 0.000000 0.000000 0.000000 0.000000 0.000000 0.025559
#
#
# Mechanical properties :
#
#
# Convention : Reuss Voigt Hill
#
# Bulk Modulus (GPa) = 43.10577 73.06973 58.08775
# Shear Modulus (GPa) = 21.07404 36.45382 28.76393
#
# Velocity S-wave (km/s) = 2.90320 3.81834 3.39178
# Velocity P-wave (km/s) = 5.33650 6.97595 6.21056
#
# Compressibility (1/GPa) = 0.02319875
#
# Stress axis : x y z
#
# Youngs Moduli (GPa) = 169.91989 54.11539 70.24382
#
# Poissons Ratio (x) = 0.15327 0.30241
# Poissons Ratio (y) = 0.48127 0.03957
# Poissons Ratio (z) = 0.73153 0.03048
#
# Static dielectric constant tensor:
#      x y z
#    x 2.015870 0.000000 0.000000 
#    y 0.000000 2.106610 0.000000 
#    z 0.000000 0.000000 1.860700 
# 
# From -- ./inp_files/38479.got.cif
#   From: 2010.05.17/outbox.cif.g08.bks.cpg/sg63_20_cif.got.tgz:38479.got - 2010.06.03 15:47:04.
