data_PCOD9468312
_publ_section_title
;
Structure prediction by ZEFSAII (Michael W. Deem and Ramdas Pophale) SiO2 
 PCOD9468312
Probable space group: C M C M
;
_chemical_formula_sum "Si O2"
_cell_formula_units_Z 96
_cell_length_a 29.732637
_cell_length_b 23.753413
_cell_length_c 9.091231
_cell_angle_alpha 90.000000
_cell_angle_beta 90.000000
_cell_angle_gamma 90.000000
_cell_volume 6420.696496
_symmetry_space_group_name_H-M "C M C M"
_symmetry_group_IT_number 63
_symmetry_cell_setting 'orthorhombic'
loop_
_space_group_symop_operation_xyz
x,y,z
-x,-y,1/2+z
x,-y,-z
-x,y,1/2-z
-x,-y,-z
x,y,1/2-z
-x,y,z
x,-y,1/2+z
1/2+x,1/2+y,z
1/2-x,1/2-y,1/2+z
1/2+x,1/2-y,-z
1/2-x,1/2+y,1/2-z
1/2-x,1/2-y,-z
1/2+x,1/2+y,1/2-z
1/2-x,1/2+y,z
1/2+x,1/2-y,1/2+z
loop_
_atom_site_type_symbol
_atom_site_label
_atom_site_fract_x
_atom_site_fract_y
_atom_site_fract_z
Si Si1 0.908567 0.095602 0.575567
Si Si2 0.690994 0.558055 0.572936
Si Si3 0.257756 0.660679 0.422638
Si Si4 0.907743 0.230209 0.925135
Si Si5 0.000000 0.090746 0.081584
Si Si6 0.180981 0.272854 0.077443
Si Si7 0.000000 0.227994 0.420418
O O1 0.914840 0.088337 0.750000
O O2 0.861503 0.067847 0.531372
O O3 0.903090 0.162765 0.548082
O O4 0.953388 0.074087 0.495631
O O5 0.706082 0.500000 0.500000
O O6 0.693694 0.556715 0.750000
O O7 0.719874 0.609385 0.509263
O O8 0.252264 0.647623 0.250000
O O9 0.211222 0.680884 0.495348
O O10 0.291300 0.714212 0.433917
O O11 0.907647 0.238555 0.750000
O O12 0.866558 0.262058 0.000617
O O13 0.955162 0.246897 0.996427
O O14 0.000000 0.159394 0.076379
O O15 0.000000 0.072399 0.250000
O O16 0.176048 0.285959 0.250000
O O17 0.000000 0.244865 0.250000
#
# Coordination Sequence:
#
# PCOD9468312 Si02
#       7
#    16  16  16  16   8  16   8
#     4   9  18  31  46  62  85 114 148 188 233 280
#     4  11  22  36  51  68  89 118 153 193 237 283
#     4  10  20  33  49  69  92 119 151 189 232 279
#     4  10  17  28  45  66  91 121 154 189 229 275
#     4   9  17  27  44  64  83 107 144 191 234 276
#     4  10  19  30  48  71  95 120 149 189 232 275
#     4   9  17  27  39  62  92 121 152 185 227 275
#
# _framework density 14.951648
#
# number of rings (size 3 to 8) (size 9 to 14) (size 15 to 20)
#    0.000    2.167    1.667    2.500    0.000    5.333 
#    0.000    0.417    0.000    0.000    0.000    0.000 
#    0.000    0.000    0.000    0.750    0.000   10.500 
#
# Total GULP energy -267857.876974 kJ/mol
# GULP energy per Si atom -5580.372437 kJ/mol
# Density = 1.491762 g / cm^3
# Si number density = 14.951648 Si / 1000 Ang^3
#
#
#
# Elastic Constant Matrix: (Units=GPa)
#
#
# Indices 1 2 3 4 5 6 
#
# 1 104.9212 35.2316 62.8433 0.0000 0.0000 0.0000
# 2 35.2316 50.6636 39.8691 0.0000 0.0000 0.0000
# 3 62.8433 39.8691 91.3167 0.0000 0.0000 0.0000
# 4 0.0000 0.0000 0.0000 16.7047 0.0000 0.0000
# 5 0.0000 0.0000 0.0000 0.0000 31.0081 0.0000
# 6 0.0000 0.0000 0.0000 0.0000 0.0000 4.8925
#
#
#
# Elastic Compliance Matrix: (Units=1/GPa)
#
#
# Indices 1 2 3 4 5 6 
#
# 1 0.016709 -0.003916 -0.009790 0.000000 0.000000 0.000000
# 2 -0.003916 0.030987 -0.010834 0.000000 0.000000 0.000000
# 3 -0.009790 -0.010834 0.022418 0.000000 0.000000 0.000000
# 4 0.000000 0.000000 0.000000 0.059863 0.000000 0.000000
# 5 0.000000 0.000000 0.000000 0.000000 0.032250 0.000000
# 6 0.000000 0.000000 0.000000 0.000000 0.000000 0.204396
#
#
# Mechanical properties :
#
#
# Convention : Reuss Voigt Hill
#
# Bulk Modulus (GPa) = 47.53896 58.08772 52.81334
# Shear Modulus (GPa) = 11.82833 17.78488 14.80660
#
# Velocity S-wave (km/s) = 2.81571 3.45264 3.15032
# Velocity P-wave (km/s) = 6.51422 7.40466 6.97367
#
# Compressibility (1/GPa) = 0.02103538
#
# Stress axis : x y z
#
# Youngs Moduli (GPa) = 59.84639 32.27164 44.60678
#
# Poissons Ratio (x) = 0.12638 0.43668
# Poissons Ratio (y) = 0.23436 0.48327
# Poissons Ratio (z) = 0.58587 0.34963
#
# Static dielectric constant tensor:
#      x y z
#    x 1.482750 0.000000 0.000000 
#    y 0.000000 1.473620 0.000000 
#    z 0.000000 0.000000 1.494050 
# 
# From -- ./inp_files/12797.got.cif
#   From: 2010.05.17/outbox.cif.g08.bks.cpg/sg63_7_cif.got.tgz:12797.got - 2010.06.03 15:47:04.
