data_PCOD9468733
_publ_section_title
;
Structure prediction by ZEFSAII (Michael W. Deem and Ramdas Pophale) SiO2 
 PCOD9468733
Probable space group: C M C M
;
_chemical_formula_sum "Si O2"
_cell_formula_units_Z 128
_cell_length_a 24.506759
_cell_length_b 19.259114
_cell_length_c 14.840932
_cell_angle_alpha 90.000000
_cell_angle_beta 90.000000
_cell_angle_gamma 90.000000
_cell_volume 7004.600310
_symmetry_space_group_name_H-M "C M C M"
_symmetry_group_IT_number 63
_symmetry_cell_setting 'orthorhombic'
loop_
_space_group_symop_operation_xyz
x,y,z
-x,-y,1/2+z
x,-y,-z
-x,y,1/2-z
-x,-y,-z
x,y,1/2-z
-x,y,z
x,-y,1/2+z
1/2+x,1/2+y,z
1/2-x,1/2-y,1/2+z
1/2+x,1/2-y,-z
1/2-x,1/2+y,1/2-z
1/2-x,1/2-y,-z
1/2+x,1/2+y,1/2-z
1/2-x,1/2+y,z
1/2+x,1/2-y,1/2+z
loop_
_atom_site_type_symbol
_atom_site_label
_atom_site_fract_x
_atom_site_fract_y
_atom_site_fract_z
Si Si1 0.747728 0.677851 0.358979
Si Si2 0.060940 0.970974 0.601267
Si Si3 0.061777 0.315424 0.359678
Si Si4 0.660265 0.901490 0.353864
Si Si5 0.332436 0.465247 0.400381
Si Si6 0.273197 0.668291 0.640170
Si Si7 0.721551 0.972384 0.898175
Si Si8 0.120207 0.170546 0.358990
O O1 0.747943 0.677295 0.250000
O O2 0.773464 0.751365 0.387000
O O3 0.779309 0.609746 0.391409
O O4 0.683897 0.672391 0.386581
O O5 0.086335 0.893857 0.602090
O O6 0.000000 0.971602 0.641199
O O7 0.055385 0.000000 0.500000
O O8 0.109640 0.017098 0.643215
O O9 0.058214 0.318238 0.250000
O O10 0.103375 0.375011 0.392692
O O11 0.090363 0.242350 0.381907
O O12 0.000000 0.320352 0.393845
O O13 0.659101 0.879191 0.250000
O O14 0.714317 0.862618 0.389454
O O15 0.672740 0.983072 0.356674
O O16 0.334463 0.500000 0.500000
O O17 0.317911 0.384129 0.399750
O O18 0.279527 0.502291 0.356442
O O19 0.276920 0.664086 0.750000
O O20 0.722010 0.000000 0.000000
O O21 0.119382 0.163440 0.250000
#
# Coordination Sequence:
#
# PCOD9468733 Si02
#       8
#    16  16  16  16  16  16  16  16
#     4  10  18  30  49  72  96 126 158 194 244 293
#     4  10  20  33  47  63  93 133 166 197 233 281
#     4   9  16  27  45  69  95 119 146 186 237 289
#     4   9  16  29  47  69  94 121 152 191 234 280
#     4   9  18  32  46  66  96 124 160 200 238 282
#     4   9  17  30  49  70  94 125 159 195 240 288
#     4  10  19  31  46  67  97 127 161 196 235 285
#     4  10  18  29  46  70  96 119 151 194 237 287
#
# _framework density 18.273706000000001
#
# number of rings (size 3 to 8) (size 9 to 14) (size 15 to 20)
#    0.000    2.500    2.500    0.750    0.000    1.750 
#    0.000    8.125    0.000    0.375    0.000    0.875 
#    0.000    1.000    0.000    0.000    0.000    0.000 
#
# Total GULP energy -356606.344115 kJ/mol
# GULP energy per Si atom -5571.974127 kJ/mol
# Density = 1.823211 g / cm^3
# Si number density = 18.273706 Si / 1000 Ang^3
#
#
#
# Elastic Constant Matrix: (Units=GPa)
#
#
# Indices 1 2 3 4 5 6 
#
# 1 121.4078 88.9960 4.6109 0.0000 0.0000 0.0000
# 2 88.9960 172.8910 17.5019 0.0000 0.0000 0.0000
# 3 4.6109 17.5019 40.3287 0.0000 0.0000 0.0000
# 4 0.0000 0.0000 0.0000 26.5290 0.0000 0.0000
# 5 0.0000 0.0000 0.0000 0.0000 -0.4811 0.0000
# 6 0.0000 0.0000 0.0000 0.0000 0.0000 16.8638
#
#
#
# Elastic Compliance Matrix: (Units=1/GPa)
#
#
# Indices 1 2 3 4 5 6 
#
# 1 0.013316 -0.007008 0.001519 0.000000 0.000000 0.000000
# 2 -0.007008 0.009738 -0.003425 0.000000 0.000000 0.000000
# 3 0.001519 -0.003425 0.026109 0.000000 0.000000 0.000000
# 4 0.000000 0.000000 0.000000 0.037695 0.000000 0.000000
# 5 0.000000 0.000000 0.000000 0.000000 -2.078652 0.000000
# 6 0.000000 0.000000 0.000000 0.000000 0.000000 0.059298
#
#
# Mechanical properties :
#
#
# Convention : Reuss Voigt Hill
#
# Bulk Modulus (GPa) = 31.91327 61.87166 46.89246
# Shear Modulus (GPa) = -2.62574 23.48361 10.42893
#
# Velocity S-wave (km/s) = -1.20001 3.58872 2.39154
# Velocity P-wave (km/s) = 3.94740 7.14869 5.77432
#
# Compressibility (1/GPa) = 0.03133493
#
# Stress axis : x y z
#
# Youngs Moduli (GPa) = 75.09526 102.68733 38.30113
#
# Poissons Ratio (x) = 0.71968 -0.05818
# Poissons Ratio (y) = 0.52630 0.13118
# Poissons Ratio (z) = -0.11407 0.35170
#
# Static dielectric constant tensor:
#      x y z
#    x 1.668410 0.000000 0.000000 
#    y 0.000000 1.651900 0.000000 
#    z 0.000000 0.000000 1.738670 
# 
# From -- ./inp_files/56954.got.cif
#   From: 2010.05.17/outbox.cif.g08.bks.cpg/sg63_29_cif.got.tgz:56954.got - 2010.06.03 15:47:04.
