data_PCOD9468082
_publ_section_title
;
Structure prediction by ZEFSAII (Michael W. Deem and Ramdas Pophale) SiO2 
 PCOD9468082
Probable space group: C M C M
;
_chemical_formula_sum "Si O2"
_cell_formula_units_Z 68
_cell_length_a 21.330661
_cell_length_b 7.083043
_cell_length_c 20.692305
_cell_angle_alpha 90.000000
_cell_angle_beta 90.000000
_cell_angle_gamma 90.000000
_cell_volume 3126.317367
_symmetry_space_group_name_H-M "C M C M"
_symmetry_group_IT_number 63
_symmetry_cell_setting 'orthorhombic'
loop_
_space_group_symop_operation_xyz
x,y,z
-x,-y,1/2+z
x,-y,-z
-x,y,1/2-z
-x,-y,-z
x,y,1/2-z
-x,y,z
x,-y,1/2+z
1/2+x,1/2+y,z
1/2-x,1/2-y,1/2+z
1/2+x,1/2-y,-z
1/2-x,1/2+y,1/2-z
1/2-x,1/2-y,-z
1/2+x,1/2+y,1/2-z
1/2-x,1/2+y,z
1/2+x,1/2-y,1/2+z
loop_
_atom_site_type_symbol
_atom_site_label
_atom_site_fract_x
_atom_site_fract_y
_atom_site_fract_z
Si Si1 0.845440 0.361195 0.250000
Si Si2 0.391081 0.338415 0.149245
Si Si3 0.295825 0.565037 0.750000
Si Si4 0.500000 0.760340 0.750000
Si Si5 0.574517 0.217407 0.629951
Si Si6 0.572502 0.726285 0.513140
O O1 0.778175 0.457608 0.250000
O O2 0.886184 0.387272 0.185273
O O3 0.826348 0.141232 0.250000
O O4 0.325346 0.336366 0.186906
O O5 0.445191 0.255226 0.194087
O O6 0.412077 0.558784 0.140367
O O7 0.389362 0.246868 0.078614
O O8 0.500000 0.186601 0.639433
O O9 0.590681 0.179414 0.554909
O O10 0.573610 0.500000 0.500000
O O11 0.500000 0.776040 0.526475
#
# Coordination Sequence:
#
# PCOD9468082 Si02
#       6
#     8  16   8   4  16  16
#     4  10  19  32  43  65  88 120 149 181 215 260
#     4   9  14  22  38  63  91 109 137 174 227 261
#     4   9  20  29  44  61  90 122 149 175 214 261
#     4  10  12  16  34  58  84 112 132 172 216 258
#     4   9  15  23  43  66  84 108 144 188 224 254
#     4   8  12  20  34  61  91 108 129 179 233 262
#
# _framework density 21.750831999999999
#
# number of rings (size 3 to 8) (size 9 to 14) (size 15 to 20)
#    0.000    3.059    2.353    2.471    0.000    0.000 
#    0.000    1.176    0.000    0.000   12.235    0.000 
#    0.000    3.765    0.000    0.000    0.000    0.000 
#
# Total GULP energy -189419.883503 kJ/mol
# GULP energy per Si atom -5571.173044 kJ/mol
# Density = 2.170133 g / cm^3
# Si number density = 21.750832 Si / 1000 Ang^3
#
#
#
# Elastic Constant Matrix: (Units=GPa)
#
#
# Indices 1 2 3 4 5 6 
#
# 1 106.4734 19.4982 95.6173 0.0000 0.0000 0.0000
# 2 19.4982 69.0427 25.1491 0.0000 0.0000 0.0000
# 3 95.6173 25.1491 228.7389 0.0000 0.0000 0.0000
# 4 0.0000 0.0000 0.0000 2.9010 0.0000 0.0000
# 5 0.0000 0.0000 0.0000 0.0000 16.5467 0.0000
# 6 0.0000 0.0000 0.0000 0.0000 0.0000 4.9835
#
#
#
# Elastic Compliance Matrix: (Units=1/GPa)
#
#
# Indices 1 2 3 4 5 6 
#
# 1 0.015317 -0.002077 -0.006175 0.000000 0.000000 0.000000
# 2 -0.002077 0.015370 -0.000822 0.000000 0.000000 0.000000
# 3 -0.006175 -0.000822 0.007043 0.000000 0.000000 0.000000
# 4 0.000000 0.000000 0.000000 0.344708 0.000000 0.000000
# 5 0.000000 0.000000 0.000000 0.000000 0.060435 0.000000
# 6 0.000000 0.000000 0.000000 0.000000 0.000000 0.200660
#
#
# Mechanical properties :
#
#
# Convention : Reuss Voigt Hill
#
# Bulk Modulus (GPa) = 51.06163 76.08711 63.57437
# Shear Modulus (GPa) = 7.48271 22.48562 14.98416
#
# Velocity S-wave (km/s) = 1.85679 3.21874 2.62754
# Velocity P-wave (km/s) = 5.30317 6.99077 6.20461
#
# Compressibility (1/GPa) = 0.01958418
#
# Stress axis : x y z
#
# Youngs Moduli (GPa) = 65.28533 65.06360 141.97953
#
# Poissons Ratio (x) = 0.13511 0.87667
# Poissons Ratio (y) = 0.13557 0.11667
# Poissons Ratio (z) = 0.40311 0.05347
#
# Static dielectric constant tensor:
#      x y z
#    x 1.725280 0.000000 0.000000 
#    y 0.000000 1.930160 0.000000 
#    z 0.000000 0.000000 1.801360 
# 
# From -- ./inp_files/53876.got.cif
#   From: 2010.05.17/outbox.cif.g08.bks.cpg/sg63_27_cif.got.tgz:53876.got - 2010.06.03 15:47:04.
