data_PCOD9468359
_publ_section_title
;
Structure prediction by ZEFSAII (Michael W. Deem and Ramdas Pophale) SiO2 
 PCOD9468359
Probable space group: C M C M
;
_chemical_formula_sum "Si O2"
_cell_formula_units_Z 40
_cell_length_a 12.799308
_cell_length_b 21.348267
_cell_length_c 5.522165
_cell_angle_alpha 90.000000
_cell_angle_beta 90.000000
_cell_angle_gamma 90.000000
_cell_volume 1508.893177
_symmetry_space_group_name_H-M "C M C M"
_symmetry_group_IT_number 63
_symmetry_cell_setting 'orthorhombic'
loop_
_space_group_symop_operation_xyz
x,y,z
-x,-y,1/2+z
x,-y,-z
-x,y,1/2-z
-x,-y,-z
x,y,1/2-z
-x,y,z
x,-y,1/2+z
1/2+x,1/2+y,z
1/2-x,1/2-y,1/2+z
1/2+x,1/2-y,-z
1/2-x,1/2+y,1/2-z
1/2-x,1/2-y,-z
1/2+x,1/2+y,1/2-z
1/2-x,1/2+y,z
1/2+x,1/2-y,1/2+z
loop_
_atom_site_type_symbol
_atom_site_label
_atom_site_fract_x
_atom_site_fract_y
_atom_site_fract_z
Si Si1 0.613377 0.557516 0.750000
Si Si2 0.158534 0.470990 0.250000
Si Si3 0.658487 0.178892 0.750000
Si Si4 0.825010 0.278817 0.750000
Si Si5 0.615280 0.363652 0.750000
O O1 0.500000 0.525200 0.750000
O O2 0.716956 0.516249 0.750000
O O3 0.617841 0.597422 0.501417
O O4 0.117201 0.500000 0.500000
O O5 0.149400 0.395745 0.250000
O O6 0.776205 0.209435 0.750000
O O7 0.617033 0.205159 0.496623
O O8 0.720744 0.322771 0.750000
O O9 0.500000 0.332048 0.750000
#
# Coordination Sequence:
#
# PCOD9468359 Si02
#       5
#     8   8   8   8   8
#     4  10  20  32  44  62  89 121 158 187 214 252
#     4  12  22  32  46  62  91 122 158 191 216 258
#     4  10  20  31  48  68  85 117 151 186 232 261
#     4  10  17  32  51  66  89 110 149 190 225 281
#     4  10  17  29  49  68  90 114 144 188 229 264
#
# _framework density 26.509498000000001
#
# number of rings (size 3 to 8) (size 9 to 14) (size 15 to 20)
#    0.000    1.600    4.000    2.400    0.000    0.800 
#    0.000    0.000    0.000    0.000    0.000    0.000 
#    0.000    1.600    0.000    0.000    0.000    4.800 
#
# Total GULP energy -111866.507800 kJ/mol
# GULP energy per Si atom -5593.325390 kJ/mol
# Density = 2.644916 g / cm^3
# Si number density = 26.509498 Si / 1000 Ang^3
#
#
#
# Elastic Constant Matrix: (Units=GPa)
#
#
# Indices 1 2 3 4 5 6 
#
# 1 149.1047 11.0014 28.1811 0.0000 0.0000 0.0000
# 2 11.0014 147.6433 101.6278 0.0000 0.0000 0.0000
# 3 28.1811 101.6278 337.5082 0.0000 0.0000 0.0000
# 4 0.0000 0.0000 0.0000 65.3839 0.0000 0.0000
# 5 0.0000 0.0000 0.0000 0.0000 -24.7628 0.0000
# 6 0.0000 0.0000 0.0000 0.0000 0.0000 1.1239
#
#
#
# Elastic Compliance Matrix: (Units=1/GPa)
#
#
# Indices 1 2 3 4 5 6 
#
# 1 0.006817 -0.000147 -0.000525 0.000000 0.000000 0.000000
# 2 -0.000147 0.008547 -0.002561 0.000000 0.000000 0.000000
# 3 -0.000525 -0.002561 0.003778 0.000000 0.000000 0.000000
# 4 0.000000 0.000000 0.000000 0.015294 0.000000 0.000000
# 5 0.000000 0.000000 0.000000 0.000000 -0.040383 0.000000
# 6 0.000000 0.000000 0.000000 0.000000 0.000000 0.889737
#
#
# Mechanical properties :
#
#
# Convention : Reuss Voigt Hill
#
# Bulk Modulus (GPa) = 78.89002 101.76408 90.32705
# Shear Modulus (GPa) = 5.58983 41.24539 23.41761
#
# Velocity S-wave (km/s) = 1.45368 3.94873 2.97537
# Velocity P-wave (km/s) = 5.71326 7.69812 6.77873
#
# Compressibility (1/GPa) = 0.01267588
#
# Stress axis : x y z
#
# Youngs Moduli (GPa) = 146.69760 116.99884 264.69033
#
# Poissons Ratio (x) = 0.01714 0.13898
# Poissons Ratio (y) = 0.02149 0.67798
# Poissons Ratio (z) = 0.07703 0.29968
#
# Static dielectric constant tensor:
#      x y z
#    x 2.026210 0.000000 0.000000 
#    y 0.000000 2.075190 0.000000 
#    z 0.000000 0.000000 2.121120 
# 
# From -- ./inp_files/721.got.cif
#   From: 2010.05.17/outbox.cif.g08.bks.cpg/sg63_1_cif.got.tgz:721.got - 2010.06.03 15:47:04.
