data_PCOD9468198
_publ_section_title
;
Structure prediction by ZEFSAII (Michael W. Deem and Ramdas Pophale) SiO2 
 PCOD9468198
Probable space group: C M C M
;
_chemical_formula_sum "Si O2"
_cell_formula_units_Z 68
_cell_length_a 9.711119
_cell_length_b 16.644314
_cell_length_c 17.310781
_cell_angle_alpha 90.000000
_cell_angle_beta 90.000000
_cell_angle_gamma 90.000000
_cell_volume 2798.026597
_symmetry_space_group_name_H-M "C M C M"
_symmetry_group_IT_number 63
_symmetry_cell_setting 'orthorhombic'
loop_
_space_group_symop_operation_xyz
x,y,z
-x,-y,1/2+z
x,-y,-z
-x,y,1/2-z
-x,-y,-z
x,y,1/2-z
-x,y,z
x,-y,1/2+z
1/2+x,1/2+y,z
1/2-x,1/2-y,1/2+z
1/2+x,1/2-y,-z
1/2-x,1/2+y,1/2-z
1/2-x,1/2-y,-z
1/2+x,1/2+y,1/2-z
1/2-x,1/2+y,z
1/2+x,1/2-y,1/2+z
loop_
_atom_site_type_symbol
_atom_site_label
_atom_site_fract_x
_atom_site_fract_y
_atom_site_fract_z
Si Si1 0.154978 0.179337 0.463376
Si Si2 0.292423 0.397275 0.385938
Si Si3 0.347531 0.214657 0.159512
Si Si4 0.500000 0.967806 0.412350
Si Si5 0.845323 0.017952 0.250000
Si Si6 0.000000 0.453512 0.750000
O O1 0.250000 0.250000 0.500000
O O2 0.152176 0.109236 0.526568
O O3 0.233409 0.162644 0.383956
O O4 0.000000 0.206779 0.449351
O O5 0.316124 0.309045 0.350173
O O6 0.132525 0.413854 0.397393
O O7 0.349920 0.462245 0.327110
O O8 0.356235 0.199199 0.250000
O O9 0.500000 0.202412 0.125391
O O10 0.500000 0.032226 0.342931
O O11 0.500000 0.000000 0.500000
O O12 0.680817 0.043869 0.250000
O O13 0.000000 0.061686 0.250000
#
# Coordination Sequence:
#
# PCOD9468198 Si02
#       6
#    16  16  16   8   8   4
#     4  10  20  31  47  77 115 153 185 219 268 338
#     4  10  19  31  54  77 110 147 184 231 290 342
#     4  10  20  33  52  81 116 149 190 232 282 342
#     4  10  22  38  60  88 116 144 196 256 299 351
#     4  10  16  30  54  82 111 143 181 239 300 342
#     4   8  20  36  56  92 110 134 194 246 308 358
#
# _framework density 24.302841999999998
#
# number of rings (size 3 to 8) (size 9 to 14) (size 15 to 20)
#    0.000    2.118    1.176    4.235    8.235    0.471 
#    0.000    0.000    2.588   25.412    0.000    0.000 
#    0.000    0.000    0.000    0.000    0.000    0.000 
#
# Total GULP energy -189348.737067 kJ/mol
# GULP energy per Si atom -5569.080502 kJ/mol
# Density = 2.424753 g / cm^3
# Si number density = 24.302842 Si / 1000 Ang^3
#
#
#
# Elastic Constant Matrix: (Units=GPa)
#
#
# Indices 1 2 3 4 5 6 
#
# 1 256.1463 35.5121 63.5513 0.0000 0.0000 0.0000
# 2 35.5121 68.8122 11.5845 0.0000 0.0000 0.0000
# 3 63.5513 11.5845 133.8829 0.0000 0.0000 0.0000
# 4 0.0000 0.0000 0.0000 -9.0578 0.0000 0.0000
# 5 0.0000 0.0000 0.0000 0.0000 30.5528 0.0000
# 6 0.0000 0.0000 0.0000 0.0000 0.0000 -98.3207
#
#
#
# Elastic Compliance Matrix: (Units=1/GPa)
#
#
# Indices 1 2 3 4 5 6 
#
# 1 0.004702 -0.002081 -0.002052 0.000000 0.000000 0.000000
# 2 -0.002081 0.015668 -0.000368 0.000000 0.000000 0.000000
# 3 -0.002052 -0.000368 0.008475 0.000000 0.000000 0.000000
# 4 0.000000 0.000000 0.000000 -0.110402 0.000000 0.000000
# 5 0.000000 0.000000 0.000000 0.000000 0.032730 0.000000
# 6 0.000000 0.000000 0.000000 0.000000 0.000000 -0.010171
#
#
# Mechanical properties :
#
#
# Convention : Reuss Voigt Hill
#
# Bulk Modulus (GPa) = 50.39421 75.57078 62.98249
# Shear Modulus (GPa) = -115.25562 7.84775 -53.70393
#
# Velocity S-wave (km/s) = -6.89403 1.79893 -4.70593
# Velocity P-wave (km/s) = 6.52605 5.95633 1.88567
#
# Compressibility (1/GPa) = 0.01984355
#
# Stress axis : x y z
#
# Youngs Moduli (GPa) = 212.69583 63.82365 117.99502
#
# Poissons Ratio (x) = 0.13281 0.24209
# Poissons Ratio (y) = 0.44261 0.04342
# Poissons Ratio (z) = 0.43638 0.02348
#
# Static dielectric constant tensor:
#      x y z
#    x 1.855090 0.000000 0.000000 
#    y 0.000000 1.985250 0.000000 
#    z 0.000000 0.000000 1.987500 
# 
# From -- ./inp_files/40028.got.cif
#   From: 2010.05.17/outbox.cif.g08.bks.cpg/sg63_21_cif.got.tgz:40028.got - 2010.06.03 15:47:04.
