data_PCOD9468009
_publ_section_title
;
Structure prediction by ZEFSAII (Michael W. Deem and Ramdas Pophale) SiO2 
 PCOD9468009
Probable space group: P N M A
;
_chemical_formula_sum "Si O2"
_cell_formula_units_Z 64
_cell_length_a 18.000000
_cell_length_b 15.000000
_cell_length_c 12.000000
_cell_angle_alpha 90.000000
_cell_angle_beta 90.000000
_cell_angle_gamma 90.000000
_cell_volume 3240.000000
_symmetry_space_group_name_H-M "P N M A"
_symmetry_group_IT_number 62
_symmetry_cell_setting 'orthorhombic'
loop_
_space_group_symop_operation_xyz
x,y,z
1/2-x,-y,1/2+z
1/2+x,1/2-y,1/2-z
-x,1/2+y,-z
-x,-y,-z
1/2+x,y,1/2-z
1/2-x,1/2+y,1/2+z
x,1/2-y,z
loop_
_atom_site_type_symbol
_atom_site_label
_atom_site_fract_x
_atom_site_fract_y
_atom_site_fract_z
Si Si1 0.101594 0.481210 0.070664
Si Si2 0.817404 0.853181 0.752939
Si Si3 0.691563 0.641151 0.333641
Si Si4 0.648950 0.647759 0.829721
Si Si5 0.559206 0.513482 0.673679
Si Si6 0.147386 0.854066 0.415507
Si Si7 0.828632 0.855286 0.497654
Si Si8 0.983264 0.577160 0.406003
O O1 0.148604 0.413041 0.147830
O O2 0.128235 0.580710 0.107473
O O3 0.017928 0.462332 0.112754
O O4 0.105555 0.476158 0.934429
O O5 0.846050 0.750000 0.757295
O O6 0.730249 0.849904 0.777403
O O7 0.826728 0.890614 0.626077
O O8 0.680996 0.750000 0.340231
O O9 0.688613 0.616539 0.200253
O O10 0.766264 0.616901 0.405351
O O11 0.620509 0.750000 0.840265
O O12 0.599364 0.593005 0.741767
O O13 0.657452 0.608908 0.956996
O O14 0.537207 0.452239 0.779814
O O15 0.167305 0.750000 0.425331
O O16 0.059467 0.867748 0.396727
O O17 0.815568 0.750000 0.510692
O O18 0.910662 0.873058 0.451450
O O19 0.000000 0.500000 0.500000
#
# Coordination Sequence:
#
# PCOD9468009 Si02
#       8
#     8   8   8   8   8   8   8   8
#     4  11  24  42  63  90 131 167 214 269 318 383
#     4  10  23  43  65  95 128 167 215 267 325 382
#     4  10  22  42  65  93 128 170 214 266 326 382
#     4  10  22  41  65  92 125 166 216 269 323 388
#     4  11  24  40  60  95 123 167 216 255 323 393
#     4  10  21  38  63  91 124 166 210 264 324 384
#     4  10  23  41  65  93 124 167 217 266 317 384
#     4  12  22  38  62  93 127 161 210 261 322 388
#
# _framework density 19.753086
#
# number of rings (size 3 to 8) (size 9 to 14) (size 15 to 20)
#    0.000    1.500    2.500    1.875    1.750    3.000 
#    0.000    4.375    0.000    0.000    0.000    0.000 
#    0.000    0.000    0.000    0.000    0.000    0.000 
#
# Total GULP energy -356673.556544 kJ/mol
# GULP energy per Si atom -5573.024321 kJ/mol
# Density = 1.970813 g / cm^3
# Si number density = 19.753086 Si / 1000 Ang^3
#
#
#
# Elastic Constant Matrix: (Units=GPa)
#
#
# Indices 1 2 3 4 5 6 
#
# 1 68.3114 9.1545 29.9380 0.0000 0.0000 0.0000
# 2 9.1545 36.2816 24.7158 0.0000 0.0000 0.0000
# 3 29.9380 24.7158 208.3815 0.0000 0.0000 0.0000
# 4 0.0000 0.0000 0.0000 34.2051 0.0000 0.0000
# 5 0.0000 0.0000 0.0000 0.0000 48.3063 0.0000
# 6 0.0000 0.0000 0.0000 0.0000 0.0000 28.6324
#
#
#
# Elastic Compliance Matrix: (Units=1/GPa)
#
#
# Indices 1 2 3 4 5 6 
#
# 1 0.015856 -0.002664 -0.001962 0.000000 0.000000 0.000000
# 2 -0.002664 0.030433 -0.003227 0.000000 0.000000 0.000000
# 3 -0.001962 -0.003227 0.005463 0.000000 0.000000 0.000000
# 4 0.000000 0.000000 0.000000 0.029235 0.000000 0.000000
# 5 0.000000 0.000000 0.000000 0.000000 0.020701 0.000000
# 6 0.000000 0.000000 0.000000 0.000000 0.000000 0.034926
#
#
# Mechanical properties :
#
#
# Convention : Reuss Voigt Hill
#
# Bulk Modulus (GPa) = 27.74239 48.95457 38.34848
# Shear Modulus (GPa) = 30.42562 38.83982 34.63272
#
# Velocity S-wave (km/s) = 3.92892 4.43907 4.19176
# Velocity P-wave (km/s) = 5.88702 7.14919 6.54858
#
# Compressibility (1/GPa) = 0.03604592
#
# Stress axis : x y z
#
# Youngs Moduli (GPa) = 63.06865 32.85951 183.03302
#
# Poissons Ratio (x) = 0.08754 0.35911
# Poissons Ratio (y) = 0.16802 0.59061
# Poissons Ratio (z) = 0.12374 0.10603
#
# Static dielectric constant tensor:
#      x y z
#    x 1.698450 0.000000 0.000000 
#    y 0.000000 1.750440 0.000000 
#    z 0.000000 0.000000 1.710420 
# 
# From -- ./inp_files/14359.got.cif
#   From: 2010.05.17/outbox.ucp.g08.bks.cvg/sg62_8_cif.got.tgz:14359.got - 2010.06.11 16:29:25.
