data_PCOD9468960
_publ_section_title
;
Structure prediction by ZEFSAII (Michael W. Deem and Ramdas Pophale) SiO2 
 PCOD9468960
Probable space group: C M C M
;
_chemical_formula_sum "Si O2"
_cell_formula_units_Z 56
_cell_length_a 17.978632
_cell_length_b 18.604596
_cell_length_c 8.991651
_cell_angle_alpha 90.000000
_cell_angle_beta 90.000000
_cell_angle_gamma 90.000000
_cell_volume 3007.574048
_symmetry_space_group_name_H-M "C M C M"
_symmetry_group_IT_number 63
_symmetry_cell_setting 'orthorhombic'
loop_
_space_group_symop_operation_xyz
x,y,z
-x,-y,1/2+z
x,-y,-z
-x,y,1/2-z
-x,-y,-z
x,y,1/2-z
-x,y,z
x,-y,1/2+z
1/2+x,1/2+y,z
1/2-x,1/2-y,1/2+z
1/2+x,1/2-y,-z
1/2-x,1/2+y,1/2-z
1/2-x,1/2-y,-z
1/2+x,1/2+y,1/2-z
1/2-x,1/2+y,z
1/2+x,1/2-y,1/2+z
loop_
_atom_site_type_symbol
_atom_site_label
_atom_site_fract_x
_atom_site_fract_y
_atom_site_fract_z
Si Si1 0.215790 0.680831 0.078422
Si Si2 0.413070 0.922522 0.929477
Si Si3 0.644576 0.423778 0.922120
Si Si4 0.500000 0.580510 0.572399
O O1 0.200666 0.700020 0.250000
O O2 0.141908 0.641007 0.018451
O O3 0.281013 0.621859 0.073596
O O4 0.250000 0.750000 0.000000
O O5 0.405237 0.928173 0.750000
O O6 0.500000 0.908097 0.963072
O O7 0.393709 0.000000 0.000000
O O8 0.622884 0.434968 0.750000
O O9 0.658283 0.500000 0.000000
O O10 0.576048 0.386794 0.008823
O O11 0.500000 0.500000 0.500000
O O12 0.500000 0.578145 0.750000
#
# Coordination Sequence:
#
# PCOD9468960 Si02
#       4
#    16  16  16   8
#     4  10  22  37  53  77 111 147 180 222 271 325
#     4   9  18  35  59  85 111 140 181 230 276 324
#     4  10  19  33  53  77 105 138 178 224 267 314
#     4  10  18  30  50  76 102 132 169 212 259 310
#
# _framework density 18.619658999999999
#
# number of rings (size 3 to 8) (size 9 to 14) (size 15 to 20)
#    0.000    2.286    0.000    4.714    0.000    3.429 
#    2.571    0.000    0.000    0.000    0.000    0.000 
#    0.000    0.000    0.000    0.000    0.000    0.000 
#
# Total GULP energy -156112.639061 kJ/mol
# GULP energy per Si atom -5575.451395 kJ/mol
# Density = 1.857728 g / cm^3
# Si number density = 18.619659 Si / 1000 Ang^3
#
#
#
# Elastic Constant Matrix: (Units=GPa)
#
#
# Indices 1 2 3 4 5 6 
#
# 1 97.4671 54.7255 39.6314 0.0000 0.0000 0.0000
# 2 54.7255 95.7371 39.3543 0.0000 0.0000 0.0000
# 3 39.6314 39.3543 94.0151 0.0000 0.0000 0.0000
# 4 0.0000 0.0000 0.0000 30.4659 0.0000 0.0000
# 5 0.0000 0.0000 0.0000 0.0000 23.5480 0.0000
# 6 0.0000 0.0000 0.0000 0.0000 0.0000 22.0175
#
#
#
# Elastic Compliance Matrix: (Units=1/GPa)
#
#
# Indices 1 2 3 4 5 6 
#
# 1 0.016022 -0.007709 -0.003527 0.000000 0.000000 0.000000
# 2 -0.007709 0.016325 -0.003584 0.000000 0.000000 0.000000
# 3 -0.003527 -0.003584 0.013624 0.000000 0.000000 0.000000
# 4 0.000000 0.000000 0.000000 0.032824 0.000000 0.000000
# 5 0.000000 0.000000 0.000000 0.000000 0.042466 0.000000
# 6 0.000000 0.000000 0.000000 0.000000 0.000000 0.045418
#
#
# Mechanical properties :
#
#
# Convention : Reuss Voigt Hill
#
# Bulk Modulus (GPa) = 61.23311 61.62688 61.43000
# Shear Modulus (GPa) = 24.78146 25.44013 25.11080
#
# Velocity S-wave (km/s) = 3.65215 3.70037 3.67634
# Velocity P-wave (km/s) = 7.12334 7.17123 7.14732
#
# Compressibility (1/GPa) = 0.01633103
#
# Stress axis : x y z
#
# Youngs Moduli (GPa) = 62.41242 61.25533 73.40139
#
# Poissons Ratio (x) = 0.47221 0.25891
# Poissons Ratio (y) = 0.48113 0.26307
# Poissons Ratio (z) = 0.22014 0.21954
#
# Static dielectric constant tensor:
#      x y z
#    x 1.701920 0.000000 0.000000 
#    y 0.000000 1.708250 0.000000 
#    z 0.000000 0.000000 1.648510 
# 
# From -- ./inp_files/5513.got.cif
#   From: 2010.05.17/outbox.cif.g08.bks.cpg/sg63_3_cif.got.tgz:5513.got - 2010.06.03 15:47:04.
