data_PCOD9468207
_publ_section_title
;
Structure prediction by ZEFSAII (Michael W. Deem and Ramdas Pophale) SiO2 
 PCOD9468207
Probable space group: C M C M
;
_chemical_formula_sum "Si O2"
_cell_formula_units_Z 128
_cell_length_a 16.829793
_cell_length_b 21.085711
_cell_length_c 20.973764
_cell_angle_alpha 90.000000
_cell_angle_beta 90.000000
_cell_angle_gamma 90.000000
_cell_volume 7442.920858
_symmetry_space_group_name_H-M "C M C M"
_symmetry_group_IT_number 63
_symmetry_cell_setting 'orthorhombic'
loop_
_space_group_symop_operation_xyz
x,y,z
-x,-y,1/2+z
x,-y,-z
-x,y,1/2-z
-x,-y,-z
x,y,1/2-z
-x,y,z
x,-y,1/2+z
1/2+x,1/2+y,z
1/2-x,1/2-y,1/2+z
1/2+x,1/2-y,-z
1/2-x,1/2+y,1/2-z
1/2-x,1/2-y,-z
1/2+x,1/2+y,1/2-z
1/2-x,1/2+y,z
1/2+x,1/2-y,1/2+z
loop_
_atom_site_type_symbol
_atom_site_label
_atom_site_fract_x
_atom_site_fract_y
_atom_site_fract_z
Si Si1 0.340340 0.251442 0.822650
Si Si2 0.717155 0.544125 0.062328
Si Si3 0.644275 0.288667 0.453752
Si Si4 0.265467 0.954381 0.322114
Si Si5 0.826461 0.820733 0.321009
Si Si6 0.812250 0.346251 0.000627
Si Si7 0.407598 0.121859 0.626085
Si Si8 0.090605 0.148217 0.419809
O O1 0.356616 0.270782 0.750000
O O2 0.249418 0.226883 0.826000
O O3 0.392794 0.190193 0.841126
O O4 0.360137 0.306212 0.872535
O O5 0.740939 0.503100 0.123333
O O6 0.782147 0.597929 0.044951
O O7 0.635729 0.581741 0.074864
O O8 0.710286 0.500000 0.000000
O O9 0.620323 0.306663 0.382334
O O10 0.732796 0.318534 0.464921
O O11 0.650381 0.213564 0.464496
O O12 0.594127 0.319106 0.510619
O O13 0.259706 0.979267 0.250000
O O14 0.210231 0.891426 0.326212
O O15 0.353823 0.928573 0.336484
O O16 0.860911 0.813731 0.250000
O O17 0.870431 0.371528 0.055368
O O18 0.500000 0.106683 0.624756
O O19 0.000000 0.143009 0.398350
#
# Coordination Sequence:
#
# PCOD9468207 Si02
#       8
#    16  16  16  16  16  16  16  16
#     4  10  19  32  51  80 116 139 161 206 269 335
#     4  11  21  37  56  70 102 143 184 227 257 297
#     4  10  16  32  54  74 107 138 170 223 262 318
#     4  10  20  35  52  75 104 142 185 217 255 311
#     4   9  16  30  54  80 100 134 182 221 260 305
#     4  10  18  30  52  78 102 140 178 209 265 314
#     4  11  19  32  54  82 111 136 168 215 269 318
#     4  11  23  34  52  80 106 139 177 218 279 330
#
# _framework density 17.19755
#
# number of rings (size 3 to 8) (size 9 to 14) (size 15 to 20)
#    0.000    1.750    5.000    3.750    0.000    2.500 
#    0.000    1.875    0.000    0.375    0.000    1.750 
#    0.000    1.000    0.000    0.000    0.000    0.000 
#
# Total GULP energy -357114.817463 kJ/mol
# GULP energy per Si atom -5579.919023 kJ/mol
# Density = 1.715841 g / cm^3
# Si number density = 17.197550 Si / 1000 Ang^3
#
#
#
# Elastic Constant Matrix: (Units=GPa)
#
#
# Indices 1 2 3 4 5 6 
#
# 1 16.6699 20.5570 13.8290 0.0000 0.0000 0.0000
# 2 20.5570 87.7844 50.1817 0.0000 0.0000 0.0000
# 3 13.8290 50.1817 150.4000 0.0000 0.0000 0.0000
# 4 0.0000 0.0000 0.0000 25.8094 0.0000 0.0000
# 5 0.0000 0.0000 0.0000 0.0000 10.3760 0.0000
# 6 0.0000 0.0000 0.0000 0.0000 0.0000 5.0574
#
#
#
# Elastic Compliance Matrix: (Units=1/GPa)
#
#
# Indices 1 2 3 4 5 6 
#
# 1 0.084599 -0.018986 -0.001444 0.000000 0.000000 0.000000
# 2 -0.018986 0.018337 -0.004373 0.000000 0.000000 0.000000
# 3 -0.001444 -0.004373 0.008241 0.000000 0.000000 0.000000
# 4 0.000000 0.000000 0.000000 0.038746 0.000000 0.000000
# 5 0.000000 0.000000 0.000000 0.000000 0.096376 0.000000
# 6 0.000000 0.000000 0.000000 0.000000 0.000000 0.197728
#
#
# Mechanical properties :
#
#
# Convention : Reuss Voigt Hill
#
# Bulk Modulus (GPa) = 16.24110 47.10996 31.67553
# Shear Modulus (GPa) = 9.72470 19.60103 14.66286
#
# Velocity S-wave (km/s) = 2.38054 3.37969 2.92312
# Velocity P-wave (km/s) = 4.12557 6.53319 5.46365
#
# Compressibility (1/GPa) = 0.06157220
#
# Stress axis : x y z
#
# Youngs Moduli (GPa) = 11.82049 54.53432 121.34975
#
# Poissons Ratio (x) = 1.03537 0.17524
# Poissons Ratio (y) = 0.22442 0.53061
# Poissons Ratio (z) = 0.01707 0.23846
#
# Static dielectric constant tensor:
#      x y z
#    x 1.571550 0.000000 0.000000 
#    y 0.000000 1.568820 0.000000 
#    z 0.000000 0.000000 1.614030 
# 
# From -- ./inp_files/56059.got.cif
#   From: 2010.05.17/outbox.cif.g08.bks.cpg/sg63_29_cif.got.tgz:56059.got - 2010.06.03 15:47:04.
