data_PCOD9468483
_publ_section_title
;
Structure prediction by ZEFSAII (Michael W. Deem and Ramdas Pophale) SiO2 
 PCOD9468483
Probable space group: C M C M
;
_chemical_formula_sum "Si O2"
_cell_formula_units_Z 128
_cell_length_a 12.904367
_cell_length_b 31.709704
_cell_length_c 21.376109
_cell_angle_alpha 90.000000
_cell_angle_beta 90.000000
_cell_angle_gamma 90.000000
_cell_volume 8746.968233
_symmetry_space_group_name_H-M "C M C M"
_symmetry_group_IT_number 63
_symmetry_cell_setting 'orthorhombic'
loop_
_space_group_symop_operation_xyz
x,y,z
-x,-y,1/2+z
x,-y,-z
-x,y,1/2-z
-x,-y,-z
x,y,1/2-z
-x,y,z
x,-y,1/2+z
1/2+x,1/2+y,z
1/2-x,1/2-y,1/2+z
1/2+x,1/2-y,-z
1/2-x,1/2+y,1/2-z
1/2-x,1/2-y,-z
1/2+x,1/2+y,1/2-z
1/2-x,1/2+y,z
1/2+x,1/2-y,1/2+z
loop_
_atom_site_type_symbol
_atom_site_label
_atom_site_fract_x
_atom_site_fract_y
_atom_site_fract_z
Si Si1 0.625882 0.462245 0.045943
Si Si2 0.622387 0.785009 0.541252
Si Si3 0.251785 0.704628 0.583749
Si Si4 0.125425 0.992807 0.180064
Si Si5 0.379186 0.746466 0.323635
Si Si6 0.121300 0.134204 0.531017
Si Si7 0.800809 0.834092 0.900006
Si Si8 0.119424 0.908343 0.676355
O O1 0.500000 0.464733 0.046160
O O2 0.661335 0.469097 0.117698
O O3 0.661477 0.500000 0.000000
O O4 0.651634 0.414918 0.024393
O O5 0.500000 0.788819 0.544331
O O6 0.661720 0.739574 0.565680
O O7 0.665556 0.790755 0.470907
O O8 0.685859 0.818898 0.582285
O O9 0.195925 0.718280 0.647214
O O10 0.306582 0.659472 0.579446
O O11 0.162833 0.980607 0.250000
O O12 0.000000 0.989008 0.181928
O O13 0.146399 0.042537 0.170100
O O14 0.361450 0.740222 0.250000
O O15 0.500000 0.757050 0.332965
O O16 0.353841 0.703527 0.361166
O O17 0.140013 0.157683 0.465140
O O18 0.000000 0.136116 0.547939
O O19 0.808814 0.876738 0.860989
O O20 0.121035 0.898320 0.750000
O O21 0.000000 0.902851 0.654048
#
# Coordination Sequence:
#
# PCOD9468483 Si02
#       8
#    16  16  16  16  16  16  16  16
#     4   9  16  25  38  58  86 116 142 171 208 251
#     4   9  17  29  44  60  81 109 136 167 206 241
#     4   9  18  29  44  62  80 105 139 173 201 240
#     4   8  14  24  37  54  79 113 146 171 203 249
#     4  10  19  30  45  63  84 109 136 174 220 255
#     4  10  18  27  42  63  87 115 143 172 208 248
#     4  10  18  26  41  64  87 110 138 172 208 256
#     4   9  15  23  38  60  87 115 140 171 208 247
#
# _framework density 14.633641000000001
#
# number of rings (size 3 to 8) (size 9 to 14) (size 15 to 20)
#    0.000    2.750    0.000    4.500    0.000    3.000 
#    0.000    0.625    0.000   13.500    0.000    0.000 
#    0.000   41.500    0.000    2.250    0.000    0.000 
#
# Total GULP energy -356404.604305 kJ/mol
# GULP energy per Si atom -5568.821942 kJ/mol
# Density = 1.460033 g / cm^3
# Si number density = 14.633641 Si / 1000 Ang^3
#
#
#
# Elastic Constant Matrix: (Units=GPa)
#
#
# Indices 1 2 3 4 5 6 
#
# 1 67.4250 31.3197 26.8187 0.0000 0.0000 0.0000
# 2 31.3197 69.3172 42.3407 0.0000 0.0000 0.0000
# 3 26.8187 42.3407 74.5478 0.0000 0.0000 0.0000
# 4 0.0000 0.0000 0.0000 25.8504 0.0000 0.0000
# 5 0.0000 0.0000 0.0000 0.0000 15.2130 0.0000
# 6 0.0000 0.0000 0.0000 0.0000 0.0000 16.5380
#
#
#
# Elastic Compliance Matrix: (Units=1/GPa)
#
#
# Indices 1 2 3 4 5 6 
#
# 1 0.019209 -0.006826 -0.003033 0.000000 0.000000 0.000000
# 2 -0.006826 0.024516 -0.011469 0.000000 0.000000 0.000000
# 3 -0.003033 -0.011469 0.021019 0.000000 0.000000 0.000000
# 4 0.000000 0.000000 0.000000 0.038684 0.000000 0.000000
# 5 0.000000 0.000000 0.000000 0.000000 0.065733 0.000000
# 6 0.000000 0.000000 0.000000 0.000000 0.000000 0.060467
#
#
# Mechanical properties :
#
#
# Convention : Reuss Voigt Hill
#
# Bulk Modulus (GPa) = 45.27396 45.80535 45.53966
# Shear Modulus (GPa) = 17.87969 18.90767 18.39368
#
# Velocity S-wave (km/s) = 3.49925 3.59844 3.54919
# Velocity P-wave (km/s) = 6.87981 6.97383 6.92698
#
# Compressibility (1/GPa) = 0.02208775
#
# Stress axis : x y z
#
# Youngs Moduli (GPa) = 52.05976 40.78960 47.57564
#
# Poissons Ratio (x) = 0.27844 0.14431
# Poissons Ratio (y) = 0.35538 0.54562
# Poissons Ratio (z) = 0.15791 0.46780
#
# Static dielectric constant tensor:
#      x y z
#    x 1.452980 0.000000 0.000000 
#    y 0.000000 1.494160 0.000000 
#    z 0.000000 0.000000 1.522280 
# 
# From -- ./inp_files/62158.got.cif
#   From: 2010.05.17/outbox.cif.g08.bks.cpg/sg63_32_cif.got.tgz:62158.got - 2010.06.03 15:47:04.
