data_PCOD9468961
_publ_section_title
;
Structure prediction by ZEFSAII (Michael W. Deem and Ramdas Pophale) SiO2 
 PCOD9468961
Probable space group: C M C M
;
_chemical_formula_sum "Si O2"
_cell_formula_units_Z 112
_cell_length_a 12.663889
_cell_length_b 23.135314
_cell_length_c 24.144121
_cell_angle_alpha 90.000000
_cell_angle_beta 90.000000
_cell_angle_gamma 90.000000
_cell_volume 7073.818173
_symmetry_space_group_name_H-M "C M C M"
_symmetry_group_IT_number 63
_symmetry_cell_setting 'orthorhombic'
loop_
_space_group_symop_operation_xyz
x,y,z
-x,-y,1/2+z
x,-y,-z
-x,y,1/2-z
-x,-y,-z
x,y,1/2-z
-x,y,z
x,-y,1/2+z
1/2+x,1/2+y,z
1/2-x,1/2-y,1/2+z
1/2+x,1/2-y,-z
1/2-x,1/2+y,1/2-z
1/2-x,1/2-y,-z
1/2+x,1/2+y,1/2-z
1/2-x,1/2+y,z
1/2+x,1/2-y,1/2+z
loop_
_atom_site_type_symbol
_atom_site_label
_atom_site_fract_x
_atom_site_fract_y
_atom_site_fract_z
Si Si1 0.761048 0.237065 0.586678
Si Si2 0.127929 0.538814 0.811869
Si Si3 0.126080 0.622108 0.589788
Si Si4 0.625890 0.797720 0.685246
Si Si5 0.747823 0.933213 0.988790
Si Si6 0.877072 0.820076 0.986534
Si Si7 0.874196 0.421166 0.873057
O O1 0.678696 0.184700 0.590760
O O2 0.811635 0.254878 0.644779
O O3 0.848987 0.214541 0.543046
O O4 0.699160 0.290661 0.558983
O O5 0.168167 0.548501 0.750000
O O6 0.161363 0.586245 0.856349
O O7 0.154431 0.475446 0.834521
O O8 0.000000 0.541170 0.810041
O O9 0.166223 0.587612 0.536084
O O10 0.000000 0.626281 0.588777
O O11 0.656177 0.794998 0.750000
O O12 0.500000 0.786502 0.681833
O O13 0.643252 0.861776 0.659987
O O14 0.842793 0.886921 0.992234
O O15 0.691209 0.926000 0.929514
O O16 0.776129 0.000000 0.000000
O O17 0.000000 0.814054 0.973241
O O18 0.000000 0.424858 0.885737
#
# Coordination Sequence:
#
# PCOD9468961 Si02
#       7
#    16  16  16  16  16  16  16
#     4  10  20  35  53  76 101 138 174 207 254 307
#     4   9  17  29  45  68 100 134 163 199 252 306
#     4  10  20  31  48  76 107 135 168 209 257 311
#     4  10  20  34  54  80 106 133 170 213 253 298
#     4  11  20  32  52  78 102 130 171 211 263 311
#     4  10  21  36  53  74 104 136 170 213 257 303
#     4  10  18  30  50  76 104 131 163 208 259 307
#
# _framework density 15.833034
#
# number of rings (size 3 to 8) (size 9 to 14) (size 15 to 20)
#    0.000    2.000    2.857    1.714    0.000    3.143 
#    0.000    0.000    0.000    1.286    0.000    0.000 
#    0.000    1.429    0.000    0.000    0.000    0.000 
#
# Total GULP energy -312280.539591 kJ/mol
# GULP energy per Si atom -5576.438207 kJ/mol
# Density = 1.579700 g / cm^3
# Si number density = 15.833034 Si / 1000 Ang^3
#
#
#
# Elastic Constant Matrix: (Units=GPa)
#
#
# Indices 1 2 3 4 5 6 
#
# 1 42.4058 23.9845 23.1075 0.0000 0.0000 0.0000
# 2 23.9845 97.6892 30.0834 0.0000 0.0000 0.0000
# 3 23.1075 30.0834 122.3984 0.0000 0.0000 0.0000
# 4 0.0000 0.0000 0.0000 18.2426 0.0000 0.0000
# 5 0.0000 0.0000 0.0000 0.0000 18.6649 0.0000
# 6 0.0000 0.0000 0.0000 0.0000 0.0000 8.3401
#
#
#
# Elastic Compliance Matrix: (Units=1/GPa)
#
#
# Indices 1 2 3 4 5 6 
#
# 1 0.029127 -0.005905 -0.004048 0.000000 0.000000 0.000000
# 2 -0.005905 0.012272 -0.001901 0.000000 0.000000 0.000000
# 3 -0.004048 -0.001901 0.009402 0.000000 0.000000 0.000000
# 4 0.000000 0.000000 0.000000 0.054817 0.000000 0.000000
# 5 0.000000 0.000000 0.000000 0.000000 0.053577 0.000000
# 6 0.000000 0.000000 0.000000 0.000000 0.000000 0.119903
#
#
# Mechanical properties :
#
#
# Convention : Reuss Voigt Hill
#
# Bulk Modulus (GPa) = 36.91026 46.31603 41.61314
# Shear Modulus (GPa) = 16.03413 21.40404 18.71909
#
# Velocity S-wave (km/s) = 3.18575 3.68075 3.44216
# Velocity P-wave (km/s) = 6.07411 6.88333 6.49134
#
# Compressibility (1/GPa) = 0.02709274
#
# Stress axis : x y z
#
# Youngs Moduli (GPa) = 34.33248 81.48746 106.36576
#
# Poissons Ratio (x) = 0.48116 0.43052
# Poissons Ratio (y) = 0.20273 0.20225
# Poissons Ratio (z) = 0.13896 0.15494
#
# Static dielectric constant tensor:
#      x y z
#    x 1.495190 0.000000 0.000000 
#    y 0.000000 1.533600 0.000000 
#    z 0.000000 0.000000 1.526010 
# 
# From -- ./inp_files/53194.got.cif
#   From: 2010.05.17/outbox.cif.g08.bks.cpg/sg63_27_cif.got.tgz:53194.got - 2010.06.03 15:47:04.
