data_PCOD9468923
_publ_section_title
;
Structure prediction by ZEFSAII (Michael W. Deem and Ramdas Pophale) SiO2 
 PCOD9468923
Probable space group: C M C M
;
_chemical_formula_sum "Si O2"
_cell_formula_units_Z 96
_cell_length_a 21.971639
_cell_length_b 19.578706
_cell_length_c 10.803272
_cell_angle_alpha 90.000000
_cell_angle_beta 90.000000
_cell_angle_gamma 90.000000
_cell_volume 4647.311148
_symmetry_space_group_name_H-M "C M C M"
_symmetry_group_IT_number 63
_symmetry_cell_setting 'orthorhombic'
loop_
_space_group_symop_operation_xyz
x,y,z
-x,-y,1/2+z
x,-y,-z
-x,y,1/2-z
-x,-y,-z
x,y,1/2-z
-x,y,z
x,-y,1/2+z
1/2+x,1/2+y,z
1/2-x,1/2-y,1/2+z
1/2+x,1/2-y,-z
1/2-x,1/2+y,1/2-z
1/2-x,1/2-y,-z
1/2+x,1/2+y,1/2-z
1/2-x,1/2+y,z
1/2+x,1/2-y,1/2+z
loop_
_atom_site_type_symbol
_atom_site_label
_atom_site_fract_x
_atom_site_fract_y
_atom_site_fract_z
Si Si1 0.925611 0.583590 0.750000
Si Si2 0.425418 0.076202 0.250000
Si Si3 0.736607 0.297004 0.384955
Si Si4 0.428324 0.150812 0.002870
Si Si5 0.091334 0.050705 0.607938
Si Si6 0.760127 0.046872 0.611549
Si Si7 0.091084 0.794047 0.388576
O O1 0.909516 0.503678 0.750000
O O2 0.903758 0.621208 0.625634
O O3 0.000000 0.586618 0.750000
O O4 0.500000 0.079977 0.250000
O O5 0.402916 0.114311 0.126114
O O6 0.759169 0.272687 0.250000
O O7 0.750000 0.250000 0.500000
O O8 0.758272 0.374405 0.404361
O O9 0.663692 0.298713 0.379410
O O10 0.500000 0.134090 0.002151
O O11 0.423384 0.232232 0.020104
O O12 0.072970 0.034498 0.750000
O O13 0.165559 0.047309 0.608237
O O14 0.071854 0.128792 0.580724
O O15 0.070714 0.000000 0.500000
O O16 0.742453 0.024010 0.750000
O O17 0.737932 0.000000 0.500000
O O18 0.068275 0.776520 0.250000
#
# Coordination Sequence:
#
# PCOD9468923 Si02
#       7
#     8   8  16  16  16  16  16
#     4   9  18  30  44  70 102 125 155 207 247 266
#     4   9  16  28  50  72  90 123 169 201 229 284
#     4   9  18  32  48  69  94 122 155 195 236 278
#     4  10  18  30  49  73  99 127 159 196 242 289
#     4   8  14  26  43  64  90 116 148 189 227 267
#     4   8  14  25  43  65  87 111 143 187 231 266
#     4   9  17  31  49  70  97 126 156 194 237 281
#
# _framework density 20.657107
#
# number of rings (size 3 to 8) (size 9 to 14) (size 15 to 20)
#    0.000    3.167    0.833    2.500    0.000    2.667 
#    3.000    1.667    0.000    2.500    0.000    0.000 
#    0.000    0.000    0.000    0.000    0.000    0.000 
#
# Total GULP energy -267721.864931 kJ/mol
# GULP energy per Si atom -5577.538853 kJ/mol
# Density = 2.061009 g / cm^3
# Si number density = 20.657107 Si / 1000 Ang^3
#
#
#
# Elastic Constant Matrix: (Units=GPa)
#
#
# Indices 1 2 3 4 5 6 
#
# 1 46.2800 3.7938 9.8951 0.0000 0.0000 0.0000
# 2 3.7938 132.0961 135.1685 0.0000 0.0000 0.0000
# 3 9.8951 135.1685 220.9994 0.0000 0.0000 0.0000
# 4 0.0000 0.0000 0.0000 41.5971 0.0000 0.0000
# 5 0.0000 0.0000 0.0000 0.0000 -16.2878 0.0000
# 6 0.0000 0.0000 0.0000 0.0000 0.0000 15.5866
#
#
#
# Elastic Compliance Matrix: (Units=1/GPa)
#
#
# Indices 1 2 3 4 5 6 
#
# 1 0.021866 0.000999 -0.001590 0.000000 0.000000 0.000000
# 2 0.000999 0.020279 -0.012448 0.000000 0.000000 0.000000
# 3 -0.001590 -0.012448 0.012209 0.000000 0.000000 0.000000
# 4 0.000000 0.000000 0.000000 0.024040 0.000000 0.000000
# 5 0.000000 0.000000 0.000000 0.000000 -0.061396 0.000000
# 6 0.000000 0.000000 0.000000 0.000000 0.000000 0.064158
#
#
# Mechanical properties :
#
#
# Convention : Reuss Voigt Hill
#
# Bulk Modulus (GPa) = 35.36510 77.45446 56.40978
# Shear Modulus (GPa) = 42.85998 24.88039 33.87018
#
# Velocity S-wave (km/s) = 4.55997 3.47428 4.05364
# Velocity P-wave (km/s) = 6.69938 7.32604 7.01971
#
# Compressibility (1/GPa) = 0.02827647
#
# Stress axis : x y z
#
# Youngs Moduli (GPa) = 45.73374 49.31259 81.90396
#
# Poissons Ratio (x) = -0.04927 0.13023
# Poissons Ratio (y) = -0.04569 1.01952
# Poissons Ratio (z) = 0.07272 0.61383
#
# Static dielectric constant tensor:
#      x y z
#    x 1.813220 0.000000 0.000000 
#    y 0.000000 1.712230 0.000000 
#    z 0.000000 0.000000 1.774590 
# 
# From -- ./inp_files/25891.got.cif
#   From: 2010.05.17/outbox.cif.g08.bks.cpg/sg63_13_cif.got.tgz:25891.got - 2010.06.03 15:47:04.
