data_PCOD9468079
_publ_section_title
;
Structure prediction by ZEFSAII (Michael W. Deem and Ramdas Pophale) SiO2 
 PCOD9468079
Probable space group: P N M A
;
_chemical_formula_sum "Si O2"
_cell_formula_units_Z 40
_cell_length_a 21.000000
_cell_length_b 9.000000
_cell_length_c 12.000000
_cell_angle_alpha 90.000000
_cell_angle_beta 90.000000
_cell_angle_gamma 90.000000
_cell_volume 2268.000000
_symmetry_space_group_name_H-M "P N M A"
_symmetry_group_IT_number 62
_symmetry_cell_setting 'orthorhombic'
loop_
_space_group_symop_operation_xyz
x,y,z
1/2-x,-y,1/2+z
1/2+x,1/2-y,1/2-z
-x,1/2+y,-z
-x,-y,-z
1/2+x,y,1/2-z
1/2-x,1/2+y,1/2+z
x,1/2-y,z
loop_
_atom_site_type_symbol
_atom_site_label
_atom_site_fract_x
_atom_site_fract_y
_atom_site_fract_z
Si Si1 0.527025 0.750000 0.591530
Si Si2 0.090114 0.250000 0.941194
Si Si3 0.344556 0.984879 0.606494
Si Si4 0.907046 0.750000 0.574835
Si Si5 0.535224 0.486873 0.242783
Si Si6 0.321799 0.250000 0.456109
Si Si7 0.215946 0.250000 0.272646
Si Si8 0.941603 0.750000 0.313704
O O1 0.484477 0.750000 0.478579
O O2 0.503997 0.888037 0.667488
O O3 0.601978 0.750000 0.568802
O O4 0.122283 0.113897 0.008885
O O5 0.097045 0.250000 0.806527
O O6 0.402390 0.038710 0.687174
O O7 0.299870 0.887966 0.689293
O O8 0.308930 0.110080 0.536575
O O9 0.940853 0.610894 0.637665
O O10 0.836233 0.750000 0.627633
O O11 0.910890 0.750000 0.439324
O O12 0.488081 0.609776 0.197459
O O13 0.282218 0.250000 0.340514
#
# Coordination Sequence:
#
# PCOD9468079 Si02
#       8
#     4   4   8   4   8   4   4   4
#     4   9  18  33  53  84 111 132 166 227 286 315
#     4   9  18  33  55  86 116 134 164 228 292 332
#     4   9  19  38  58  76 109 145 176 224 280 314
#     4   9  20  37  49  66 111 157 171 211 268 322
#     4   9  18  33  54  78 111 137 168 220 282 329
#     4  12  20  34  61  86 102 139 193 228 256 322
#     4   9  22  43  52  71 111 152 182 217 268 316
#     4  12  18  26  52  89 105 132 182 217 262 333
#
# _framework density 17.636683999999999
#
# number of rings (size 3 to 8) (size 9 to 14) (size 15 to 20)
#    0.000    2.400    0.000    6.000    0.000    3.200 
#    7.200    1.000    0.000    0.000    0.000    0.000 
#    0.000    0.000    0.000    0.000    0.000    0.000 
#
# Total GULP energy -222831.212238 kJ/mol
# GULP energy per Si atom -5570.780306 kJ/mol
# Density = 1.759654 g / cm^3
# Si number density = 17.636684 Si / 1000 Ang^3
#
#
#
# Elastic Constant Matrix: (Units=GPa)
#
#
# Indices 1 2 3 4 5 6 
#
# 1 63.5392 23.8606 37.7920 0.0000 0.0000 0.0000
# 2 23.8606 63.7077 28.7311 0.0000 0.0000 0.0000
# 3 37.7920 28.7311 164.1695 0.0000 0.0000 0.0000
# 4 0.0000 0.0000 0.0000 7.0924 0.0000 0.0000
# 5 0.0000 0.0000 0.0000 0.0000 34.0421 0.0000
# 6 0.0000 0.0000 0.0000 0.0000 0.0000 34.9808
#
#
#
# Elastic Compliance Matrix: (Units=1/GPa)
#
#
# Indices 1 2 3 4 5 6 
#
# 1 0.020092 -0.005905 -0.003592 0.000000 0.000000 0.000000
# 2 -0.005905 0.018777 -0.001927 0.000000 0.000000 0.000000
# 3 -0.003592 -0.001927 0.007255 0.000000 0.000000 0.000000
# 4 0.000000 0.000000 0.000000 0.140996 0.000000 0.000000
# 5 0.000000 0.000000 0.000000 0.000000 0.029375 0.000000
# 6 0.000000 0.000000 0.000000 0.000000 0.000000 0.028587
#
#
# Mechanical properties :
#
#
# Convention : Reuss Voigt Hill
#
# Bulk Modulus (GPa) = 42.96071 52.46488 47.71279
# Shear Modulus (GPa) = 18.13632 28.62525 23.38079
#
# Velocity S-wave (km/s) = 3.21024 4.03308 3.64495
# Velocity P-wave (km/s) = 6.17677 7.17634 6.69523
#
# Compressibility (1/GPa) = 0.02327708
#
# Stress axis : x y z
#
# Youngs Moduli (GPa) = 49.77046 53.25558 137.83030
#
# Poissons Ratio (x) = 0.31449 0.49505
# Poissons Ratio (y) = 0.29391 0.26557
# Poissons Ratio (z) = 0.17876 0.10261
#
# Static dielectric constant tensor:
#      x y z
#    x 1.599020 0.000000 0.000000 
#    y 0.000000 1.714710 0.000000 
#    z 0.000000 0.000000 1.569290 
# 
# From -- ./inp_files/13932.got.cif
#   From: 2010.05.17/outbox.ucp.g08.bks.cvg/sg62_7_cif.got.tgz:13932.got - 2010.06.11 16:29:25.
