data_PCOD9468881
_publ_section_title
;
Structure prediction by ZEFSAII (Michael W. Deem and Ramdas Pophale) SiO2 
 PCOD9468881
Probable space group: C M C M
;
_chemical_formula_sum "Si O2"
_cell_formula_units_Z 64
_cell_length_a 14.844568
_cell_length_b 28.559832
_cell_length_c 8.623287
_cell_angle_alpha 90.000000
_cell_angle_beta 90.000000
_cell_angle_gamma 90.000000
_cell_volume 3655.914685
_symmetry_space_group_name_H-M "C M C M"
_symmetry_group_IT_number 63
_symmetry_cell_setting 'orthorhombic'
loop_
_space_group_symop_operation_xyz
x,y,z
-x,-y,1/2+z
x,-y,-z
-x,y,1/2-z
-x,-y,-z
x,y,1/2-z
-x,y,z
x,-y,1/2+z
1/2+x,1/2+y,z
1/2-x,1/2-y,1/2+z
1/2+x,1/2-y,-z
1/2-x,1/2+y,1/2-z
1/2-x,1/2-y,-z
1/2+x,1/2+y,1/2-z
1/2-x,1/2+y,z
1/2+x,1/2-y,1/2+z
loop_
_atom_site_type_symbol
_atom_site_label
_atom_site_fract_x
_atom_site_fract_y
_atom_site_fract_z
Si Si1 0.902004 0.670750 0.564403
Si Si2 0.605233 0.448269 0.064182
Si Si3 0.153222 0.234135 0.564544
Si Si4 0.209300 0.860312 0.934656
O O1 0.891025 0.670869 0.750000
O O2 0.905687 0.724352 0.505145
O O3 0.812349 0.647622 0.492405
O O4 0.000000 0.648917 0.526609
O O5 0.614618 0.447722 0.250000
O O6 0.500000 0.438203 0.026501
O O7 0.625272 0.500000 0.000000
O O8 0.669185 0.409385 0.989963
O O9 0.149671 0.235074 0.750000
O O10 0.250000 0.250000 0.500000
O O11 0.146653 0.181071 0.505768
O O12 0.208340 0.856105 0.750000
#
# Coordination Sequence:
#
# PCOD9468881 Si02
#       4
#    16  16  16  16
#     4  10  20  34  52  75 106 143 181 220 261 308
#     4  10  21  38  59  82 107 134 168 212 262 315
#     4  10  18  30  48  70 100 135 173 215 256 301
#     4  11  21  34  54  78 107 141 177 217 260 311
#
# _framework density 17.505877999999999
#
# number of rings (size 3 to 8) (size 9 to 14) (size 15 to 20)
#    0.000    1.750    0.000    9.000    0.000    4.500 
#    0.000    0.000    0.000    0.750    0.000    0.000 
#    0.000    0.000    0.000    0.000    0.000    0.000 
#
# Total GULP energy -178463.725798 kJ/mol
# GULP energy per Si atom -5576.991431 kJ/mol
# Density = 1.746603 g / cm^3
# Si number density = 17.505878 Si / 1000 Ang^3
#
#
#
# Elastic Constant Matrix: (Units=GPa)
#
#
# Indices 1 2 3 4 5 6 
#
# 1 100.0584 60.6403 37.9430 0.0000 0.0000 0.0000
# 2 60.6403 112.9399 39.5532 0.0000 0.0000 0.0000
# 3 37.9430 39.5532 108.4875 0.0000 0.0000 0.0000
# 4 0.0000 0.0000 0.0000 32.0054 0.0000 0.0000
# 5 0.0000 0.0000 0.0000 0.0000 16.4161 0.0000
# 6 0.0000 0.0000 0.0000 0.0000 0.0000 25.3219
#
#
#
# Elastic Compliance Matrix: (Units=1/GPa)
#
#
# Indices 1 2 3 4 5 6 
#
# 1 0.015492 -0.007360 -0.002735 0.000000 0.000000 0.000000
# 2 -0.007360 0.013647 -0.002401 0.000000 0.000000 0.000000
# 3 -0.002735 -0.002401 0.011050 0.000000 0.000000 0.000000
# 4 0.000000 0.000000 0.000000 0.031245 0.000000 0.000000
# 5 0.000000 0.000000 0.000000 0.000000 0.060916 0.000000
# 6 0.000000 0.000000 0.000000 0.000000 0.000000 0.039492
#
#
# Mechanical properties :
#
#
# Convention : Reuss Voigt Hill
#
# Bulk Modulus (GPa) = 65.80713 66.41766 66.11239
# Shear Modulus (GPa) = 24.76489 26.97196 25.86843
#
# Velocity S-wave (km/s) = 3.76528 3.92948 3.84826
# Velocity P-wave (km/s) = 7.52171 7.65574 7.58902
#
# Compressibility (1/GPa) = 0.01519592
#
# Stress axis : x y z
#
# Youngs Moduli (GPa) = 64.54998 73.27533 90.50075
#
# Poissons Ratio (x) = 0.53932 0.24750
# Poissons Ratio (y) = 0.47510 0.21733
# Poissons Ratio (z) = 0.17653 0.17596
#
# Static dielectric constant tensor:
#      x y z
#    x 1.614430 0.000000 0.000000 
#    y 0.000000 1.596040 0.000000 
#    z 0.000000 0.000000 1.579780 
# 
# From -- ./inp_files/4272.got.cif
#   From: 2010.05.17/outbox.cif.g08.bks.cpg/sg63_3_cif.got.tgz:4272.got - 2010.06.03 15:47:04.
