data_PCOD9468508
_publ_section_title
;
Structure prediction by ZEFSAII (Michael W. Deem and Ramdas Pophale) SiO2 
 PCOD9468508
Probable space group: C M C M
;
_chemical_formula_sum "Si O2"
_cell_formula_units_Z 96
_cell_length_a 19.430173
_cell_length_b 23.405034
_cell_length_c 9.510594
_cell_angle_alpha 90.000000
_cell_angle_beta 90.000000
_cell_angle_gamma 90.000000
_cell_volume 4325.074435
_symmetry_space_group_name_H-M "C M C M"
_symmetry_group_IT_number 63
_symmetry_cell_setting 'orthorhombic'
loop_
_space_group_symop_operation_xyz
x,y,z
-x,-y,1/2+z
x,-y,-z
-x,y,1/2-z
-x,-y,-z
x,y,1/2-z
-x,y,z
x,-y,1/2+z
1/2+x,1/2+y,z
1/2-x,1/2-y,1/2+z
1/2+x,1/2-y,-z
1/2-x,1/2+y,1/2-z
1/2-x,1/2-y,-z
1/2+x,1/2+y,1/2-z
1/2-x,1/2+y,z
1/2+x,1/2-y,1/2+z
loop_
_atom_site_type_symbol
_atom_site_label
_atom_site_fract_x
_atom_site_fract_y
_atom_site_fract_z
Si Si1 0.764144 0.821283 0.098046
Si Si2 0.707685 0.421363 0.588313
Si Si3 0.576022 0.407805 0.417023
Si Si4 0.369215 0.944166 0.917642
Si Si5 0.897317 0.668610 0.908427
Si Si6 0.901510 0.771591 0.407934
O O1 0.782247 0.851915 0.250000
O O2 0.683494 0.816352 0.105662
O O3 0.817616 0.769910 0.096633
O O4 0.780635 0.855966 0.957880
O O5 0.689990 0.429532 0.750000
O O6 0.641773 0.436002 0.492450
O O7 0.785178 0.444583 0.565305
O O8 0.578822 0.418202 0.250000
O O9 0.500000 0.425469 0.468684
O O10 0.580810 0.338176 0.436703
O O11 0.382933 0.944824 0.750000
O O12 0.398917 0.887449 0.992930
O O13 0.395066 0.000000 0.000000
O O14 0.922467 0.657714 0.750000
O O15 0.926527 0.724737 0.983339
O O16 0.924567 0.758451 0.250000
#
# Coordination Sequence:
#
# PCOD9468508 Si02
#       6
#    16  16  16  16  16  16
#     4   8  15  26  39  57  84 117 146 171 204 255
#     4   9  17  28  44  66  88 111 143 185 227 265
#     4   9  18  32  48  65  88 120 154 186 223 267
#     4  10  20  33  48  66  89 117 149 185 225 267
#     4  10  18  27  41  62  88 117 147 177 213 259
#     4   9  16  26  40  60  87 116 146 179 214 255
#
# _framework density 22.196149999999999
#
# number of rings (size 3 to 8) (size 9 to 14) (size 15 to 20)
#    0.000    2.833    0.000    3.000    0.000    5.667 
#    0.000    3.333    0.000    0.500    0.000    0.000 
#    0.000    0.667    0.000    1.833    0.000    2.667 
#
# Total GULP energy -267234.899920 kJ/mol
# GULP energy per Si atom -5567.393748 kJ/mol
# Density = 2.214563 g / cm^3
# Si number density = 22.196150 Si / 1000 Ang^3
#
#
#
# Elastic Constant Matrix: (Units=GPa)
#
#
# Indices 1 2 3 4 5 6 
#
# 1 77.5634 -2.6465 -3.6978 0.0000 0.0000 0.0000
# 2 -2.6465 89.7563 68.3431 0.0000 0.0000 0.0000
# 3 -3.6978 68.3431 104.8903 0.0000 0.0000 0.0000
# 4 0.0000 0.0000 0.0000 14.8146 0.0000 0.0000
# 5 0.0000 0.0000 0.0000 0.0000 -20.9337 0.0000
# 6 0.0000 0.0000 0.0000 0.0000 0.0000 -7.4260
#
#
#
# Elastic Compliance Matrix: (Units=1/GPa)
#
#
# Indices 1 2 3 4 5 6 
#
# 1 0.012915 0.000068 0.000411 0.000000 0.000000 0.000000
# 2 0.000068 0.022111 -0.014405 0.000000 0.000000 0.000000
# 3 0.000411 -0.014405 0.018934 0.000000 0.000000 0.000000
# 4 0.000000 0.000000 0.000000 0.067501 0.000000 0.000000
# 5 0.000000 0.000000 0.000000 0.000000 -0.047770 0.000000
# 6 0.000000 0.000000 0.000000 0.000000 0.000000 -0.134661
#
#
# Mechanical properties :
#
#
# Convention : Reuss Voigt Hill
#
# Bulk Modulus (GPa) = 38.30200 44.02305 41.16253
# Shear Modulus (GPa) = -204.78556 11.30505 -96.74025
#
# Velocity S-wave (km/s) = -9.61572 2.25927 -6.60900
# Velocity P-wave (km/s) = 10.29510 5.16550 6.29709
#
# Compressibility (1/GPa) = 0.02610830
#
# Stress axis : x y z
#
# Youngs Moduli (GPa) = 77.43184 45.22537 52.81523
#
# Poissons Ratio (x) = -0.00306 -0.02172
# Poissons Ratio (y) = -0.00524 0.76079
# Poissons Ratio (z) = -0.03184 0.65146
#
# Static dielectric constant tensor:
#      x y z
#    x 1.889520 0.000000 0.000000 
#    y 0.000000 1.813090 0.000000 
#    z 0.000000 0.000000 1.815690 
# 
# From -- ./inp_files/13009.got.cif
#   From: 2010.05.17/outbox.cif.g08.bks.cpg/sg63_7_cif.got.tgz:13009.got - 2010.06.03 15:47:04.
