data_PCOD9468650
_publ_section_title
;
Structure prediction by ZEFSAII (Michael W. Deem and Ramdas Pophale) SiO2 
 PCOD9468650
Probable space group: C M C M
;
_chemical_formula_sum "Si O2"
_cell_formula_units_Z 128
_cell_length_a 17.597937
_cell_length_b 25.347456
_cell_length_c 18.456394
_cell_angle_alpha 90.000000
_cell_angle_beta 90.000000
_cell_angle_gamma 90.000000
_cell_volume 8232.713255
_symmetry_space_group_name_H-M "C M C M"
_symmetry_group_IT_number 63
_symmetry_cell_setting 'orthorhombic'
loop_
_space_group_symop_operation_xyz
x,y,z
-x,-y,1/2+z
x,-y,-z
-x,y,1/2-z
-x,-y,-z
x,y,1/2-z
-x,y,z
x,-y,1/2+z
1/2+x,1/2+y,z
1/2-x,1/2-y,1/2+z
1/2+x,1/2-y,-z
1/2-x,1/2+y,1/2-z
1/2-x,1/2-y,-z
1/2+x,1/2+y,1/2-z
1/2-x,1/2+y,z
1/2+x,1/2-y,1/2+z
loop_
_atom_site_type_symbol
_atom_site_label
_atom_site_fract_x
_atom_site_fract_y
_atom_site_fract_z
Si Si1 0.084414 0.391766 0.664848
Si Si2 0.091116 0.788973 0.526608
Si Si3 0.587400 0.878568 0.402374
Si Si4 0.791099 0.124470 0.462844
Si Si5 0.243118 0.552194 0.163918
Si Si6 0.865590 0.316049 0.955410
Si Si7 0.214474 0.540006 0.564639
Si Si8 0.407823 0.772676 0.170809
O O1 0.085723 0.379975 0.750000
O O2 0.154313 0.431479 0.651326
O O3 0.101327 0.339883 0.618159
O O4 0.000000 0.412273 0.646223
O O5 0.132495 0.844543 0.519910
O O6 0.118993 0.745139 0.469230
O O7 0.115061 0.764638 0.604841
O O8 0.000000 0.792378 0.523809
O O9 0.500000 0.892620 0.388253
O O10 0.593551 0.848538 0.479724
O O11 0.642696 0.928004 0.405318
O O12 0.613424 0.833095 0.346620
O O13 0.789486 0.093535 0.386000
O O14 0.722542 0.167210 0.460112
O O15 0.768524 0.082339 0.524681
O O16 0.258376 0.554330 0.250000
O O17 0.252003 0.494924 0.127582
O O18 0.191240 0.500000 0.500000
O O19 0.380716 0.756166 0.250000
O O20 0.500000 0.772288 0.170675
#
# Coordination Sequence:
#
# PCOD9468650 Si02
#       8
#    16  16  16  16  16  16  16  16
#     4   9  16  26  42  65  92 119 146 177 210 245
#     4  10  18  28  47  70  87 110 143 177 214 254
#     4   9  16  25  40  62  86 116 149 174 202 245
#     4   9  18  31  46  65  89 114 141 176 216 256
#     4   9  18  31  46  63  84 114 149 182 218 258
#     4   9  16  28  44  63  91 121 144 167 203 257
#     4   9  18  30  43  59  83 115 146 182 223 254
#     4   8  15  27  40  59  89 116 135 161 203 253
#
# _framework density 15.54773
#
# number of rings (size 3 to 8) (size 9 to 14) (size 15 to 20)
#    0.000    3.000    0.000    3.000    0.000    1.750 
#    0.000    0.000    0.000    4.125    0.000    0.000 
#    0.000    0.000    0.000    0.000    0.000    0.000 
#
# Total GULP energy -356314.484918 kJ/mol
# GULP energy per Si atom -5567.413827 kJ/mol
# Density = 1.551234 g / cm^3
# Si number density = 15.547730 Si / 1000 Ang^3
#
#
#
# Elastic Constant Matrix: (Units=GPa)
#
#
# Indices 1 2 3 4 5 6 
#
# 1 36.0953 36.5518 16.8486 0.0000 0.0000 0.0000
# 2 36.5518 86.9100 30.2364 0.0000 0.0000 0.0000
# 3 16.8486 30.2364 58.0551 0.0000 0.0000 0.0000
# 4 0.0000 0.0000 0.0000 12.1402 0.0000 0.0000
# 5 0.0000 0.0000 0.0000 0.0000 8.2652 0.0000
# 6 0.0000 0.0000 0.0000 0.0000 0.0000 14.6506
#
#
#
# Elastic Compliance Matrix: (Units=1/GPa)
#
#
# Indices 1 2 3 4 5 6 
#
# 1 0.049108 -0.019168 -0.004269 0.000000 0.000000 0.000000
# 2 -0.019168 0.021534 -0.005653 0.000000 0.000000 0.000000
# 3 -0.004269 -0.005653 0.021408 0.000000 0.000000 0.000000
# 4 0.000000 0.000000 0.000000 0.082371 0.000000 0.000000
# 5 0.000000 0.000000 0.000000 0.000000 0.120989 0.000000
# 6 0.000000 0.000000 0.000000 0.000000 0.000000 0.068257
#
#
# Mechanical properties :
#
#
# Convention : Reuss Voigt Hill
#
# Bulk Modulus (GPa) = 29.52389 38.70378 34.11383
# Shear Modulus (GPa) = 11.54375 13.50611 12.52493
#
# Velocity S-wave (km/s) = 2.72779 2.95055 2.84135
# Velocity P-wave (km/s) = 5.38066 6.04609 5.72306
#
# Compressibility (1/GPa) = 0.03387088
#
# Stress axis : x y z
#
# Youngs Moduli (GPa) = 20.36349 46.43756 46.71176
#
# Poissons Ratio (x) = 0.89012 0.19940
# Poissons Ratio (y) = 0.39033 0.26405
# Poissons Ratio (z) = 0.08692 0.26250
#
# Static dielectric constant tensor:
#      x y z
#    x 1.518760 0.000000 0.000000 
#    y 0.000000 1.519550 0.000000 
#    z 0.000000 0.000000 1.539100 
# 
# From -- ./inp_files/46344.got.cif
#   From: 2010.05.17/outbox.cif.g08.bks.cpg/sg63_24_cif.got.tgz:46344.got - 2010.06.03 15:47:04.
