data_PCOD9468636
_publ_section_title
;
Structure prediction by ZEFSAII (Michael W. Deem and Ramdas Pophale) SiO2 
 PCOD9468636
Probable space group: C M C M
;
_chemical_formula_sum "Si O2"
_cell_formula_units_Z 96
_cell_length_a 9.342391
_cell_length_b 23.125976
_cell_length_c 26.998725
_cell_angle_alpha 90.000000
_cell_angle_beta 90.000000
_cell_angle_gamma 90.000000
_cell_volume 5833.126105
_symmetry_space_group_name_H-M "C M C M"
_symmetry_group_IT_number 63
_symmetry_cell_setting 'orthorhombic'
loop_
_space_group_symop_operation_xyz
x,y,z
-x,-y,1/2+z
x,-y,-z
-x,y,1/2-z
-x,-y,-z
x,y,1/2-z
-x,y,z
x,-y,1/2+z
1/2+x,1/2+y,z
1/2-x,1/2-y,1/2+z
1/2+x,1/2-y,-z
1/2-x,1/2+y,1/2-z
1/2-x,1/2-y,-z
1/2+x,1/2+y,1/2-z
1/2-x,1/2+y,z
1/2+x,1/2-y,1/2+z
loop_
_atom_site_type_symbol
_atom_site_label
_atom_site_fract_x
_atom_site_fract_y
_atom_site_fract_z
Si Si1 0.162995 0.127244 0.250000
Si Si2 0.172006 0.047141 0.957666
Si Si3 0.334938 0.167588 0.535322
Si Si4 0.170203 0.006211 0.149651
Si Si5 0.663883 0.227742 0.072543
Si Si6 0.328938 0.009190 0.250000
Si Si7 0.163838 0.855940 0.641529
O O1 0.279124 0.076499 0.250000
O O2 0.173855 0.161349 0.300828
O O3 0.000000 0.100911 0.250000
O O4 0.251909 0.107243 0.966512
O O5 0.000000 0.055377 0.960601
O O6 0.206019 0.024528 0.902237
O O7 0.209928 0.000000 0.000000
O O8 0.500000 0.159017 0.549643
O O9 0.332150 0.197202 0.481211
O O10 0.256265 0.213923 0.570231
O O11 0.258612 0.987101 0.198355
O O12 0.192832 0.075168 0.141050
O O13 0.000000 0.998535 0.159045
O O14 0.500000 0.241509 0.084290
O O15 0.730103 0.181536 0.109672
O O16 0.500000 0.002994 0.250000
O O17 0.000000 0.847739 0.624121
#
# Coordination Sequence:
#
# PCOD9468636 Si02
#       7
#     8  16  16  16  16   8  16
#     4   8  16  30  46  67  98 131 160 194 240 292
#     4  10  20  34  53  76 102 132 164 199 243 296
#     4  10  21  35  50  70  97 129 163 199 239 284
#     4   9  18  32  50  72 101 135 165 198 244 296
#     4  10  20  33  50  71  96 127 162 199 239 286
#     4  10  18  28  46  71  98 129 168 210 244 280
#     4   9  16  29  50  73  97 127 162 198 239 285
#
# _framework density 16.457727999999999
#
# number of rings (size 3 to 8) (size 9 to 14) (size 15 to 20)
#    0.000    2.500    0.000    3.750    0.000    7.000 
#    0.000    0.000    0.000    1.000    0.000    4.667 
#    0.000    0.000    0.000    0.000    0.000    0.000 
#
# Total GULP energy -267481.318976 kJ/mol
# GULP energy per Si atom -5572.527479 kJ/mol
# Density = 1.642027 g / cm^3
# Si number density = 16.457728 Si / 1000 Ang^3
#
#
#
# Elastic Constant Matrix: (Units=GPa)
#
#
# Indices 1 2 3 4 5 6 
#
# 1 86.3944 47.2668 45.5333 0.0000 0.0000 0.0000
# 2 47.2668 71.0683 20.7200 0.0000 0.0000 0.0000
# 3 45.5333 20.7200 58.2858 0.0000 0.0000 0.0000
# 4 0.0000 0.0000 0.0000 19.4981 0.0000 0.0000
# 5 0.0000 0.0000 0.0000 0.0000 24.7025 0.0000
# 6 0.0000 0.0000 0.0000 0.0000 0.0000 25.1447
#
#
#
# Elastic Compliance Matrix: (Units=1/GPa)
#
#
# Indices 1 2 3 4 5 6 
#
# 1 0.028043 -0.013682 -0.017044 0.000000 0.000000 0.000000
# 2 -0.013682 0.022373 0.002735 0.000000 0.000000 0.000000
# 3 -0.017044 0.002735 0.029499 0.000000 0.000000 0.000000
# 4 0.000000 0.000000 0.000000 0.051287 0.000000 0.000000
# 5 0.000000 0.000000 0.000000 0.000000 0.040482 0.000000
# 6 0.000000 0.000000 0.000000 0.000000 0.000000 0.039770
#
#
# Mechanical properties :
#
#
# Convention : Reuss Voigt Hill
#
# Bulk Modulus (GPa) = 41.78104 49.19875 45.48989
# Shear Modulus (GPa) = 18.15452 20.68429 19.41940
#
# Velocity S-wave (km/s) = 3.32490 3.54900 3.43878
# Velocity P-wave (km/s) = 6.33892 6.83760 6.59298
#
# Compressibility (1/GPa) = 0.02393430
#
# Stress axis : x y z
#
# Youngs Moduli (GPa) = 35.65946 44.69596 33.89926
#
# Poissons Ratio (x) = 0.61153 0.57777
# Poissons Ratio (y) = 0.48790 -0.09272
# Poissons Ratio (z) = 0.60777 -0.12225
#
# Static dielectric constant tensor:
#      x y z
#    x 1.557510 0.000000 0.000000 
#    y 0.000000 1.518860 0.000000 
#    z 0.000000 0.000000 1.585180 
# 
# From -- ./inp_files/60041.got.cif
#   From: 2010.05.17/outbox.cif.g08.bks.cpg/sg63_31_cif.got.tgz:60041.got - 2010.06.03 15:47:04.
