data_PCOD9468861
_publ_section_title
;
Structure prediction by ZEFSAII (Michael W. Deem and Ramdas Pophale) SiO2 
 PCOD9468861
Probable space group: C M C M
;
_chemical_formula_sum "Si O2"
_cell_formula_units_Z 64
_cell_length_a 28.748646
_cell_length_b 14.919767
_cell_length_c 8.559729
_cell_angle_alpha 90.000000
_cell_angle_beta 90.000000
_cell_angle_gamma 90.000000
_cell_volume 3671.465497
_symmetry_space_group_name_H-M "C M C M"
_symmetry_group_IT_number 63
_symmetry_cell_setting 'orthorhombic'
loop_
_space_group_symop_operation_xyz
x,y,z
-x,-y,1/2+z
x,-y,-z
-x,y,1/2-z
-x,-y,-z
x,y,1/2-z
-x,y,z
x,-y,1/2+z
1/2+x,1/2+y,z
1/2-x,1/2-y,1/2+z
1/2+x,1/2-y,-z
1/2-x,1/2+y,1/2-z
1/2-x,1/2-y,-z
1/2+x,1/2+y,1/2-z
1/2-x,1/2+y,z
1/2+x,1/2-y,1/2+z
loop_
_atom_site_type_symbol
_atom_site_label
_atom_site_fract_x
_atom_site_fract_y
_atom_site_fract_z
Si Si1 0.640291 0.214536 0.062157
Si Si2 0.233569 0.653654 0.936909
Si Si3 0.447071 0.099032 0.438466
Si Si4 0.671877 0.407484 0.936174
O O1 0.643554 0.218165 0.250000
O O2 0.591068 0.172201 0.014078
O O3 0.681168 0.148825 0.999810
O O4 0.648982 0.315103 0.998412
O O5 0.233849 0.650317 0.750000
O O6 0.250000 0.750000 0.000000
O O7 0.274594 0.593615 0.004927
O O8 0.446723 0.095932 0.250000
O O9 0.500000 0.119499 0.489705
O O10 0.435101 0.000000 0.500000
O O11 0.671040 0.406255 0.750000
O O12 0.650323 0.500000 0.000000
#
# Coordination Sequence:
#
# PCOD9468861 Si02
#       4
#    16  16  16  16
#     4  10  19  33  52  75 104 136 171 210 253 299
#     4  10  18  30  47  69  98 131 168 205 244 288
#     4   9  19  35  55  78 103 131 164 205 253 303
#     4  11  21  34  51  73 102 136 174 211 252 299
#
# _framework density 17.431730999999999
#
# number of rings (size 3 to 8) (size 9 to 14) (size 15 to 20)
#    0.000    2.000    0.000    8.250    0.000    3.000 
#    0.000    2.500    0.000    0.750    0.000    0.000 
#    0.000    0.000    0.000    0.000    0.000    0.000 
#
# Total GULP energy -178381.381289 kJ/mol
# GULP energy per Si atom -5574.418165 kJ/mol
# Density = 1.739206 g / cm^3
# Si number density = 17.431731 Si / 1000 Ang^3
#
#
#
# Elastic Constant Matrix: (Units=GPa)
#
#
# Indices 1 2 3 4 5 6 
#
# 1 115.4060 74.0094 40.0485 0.0000 0.0000 0.0000
# 2 74.0094 120.2412 36.8752 0.0000 0.0000 0.0000
# 3 40.0485 36.8752 111.2897 0.0000 0.0000 0.0000
# 4 0.0000 0.0000 0.0000 23.5890 0.0000 0.0000
# 5 0.0000 0.0000 0.0000 0.0000 20.2314 0.0000
# 6 0.0000 0.0000 0.0000 0.0000 0.0000 24.7453
#
#
#
# Elastic Compliance Matrix: (Units=1/GPa)
#
#
# Indices 1 2 3 4 5 6 
#
# 1 0.014961 -0.008412 -0.002596 0.000000 0.000000 0.000000
# 2 -0.008412 0.013987 -0.001607 0.000000 0.000000 0.000000
# 3 -0.002596 -0.001607 0.010453 0.000000 0.000000 0.000000
# 4 0.000000 0.000000 0.000000 0.042393 0.000000 0.000000
# 5 0.000000 0.000000 0.000000 0.000000 0.049428 0.000000
# 6 0.000000 0.000000 0.000000 0.000000 0.000000 0.040412
#
#
# Mechanical properties :
#
#
# Convention : Reuss Voigt Hill
#
# Bulk Modulus (GPa) = 70.57893 72.08922 71.33407
# Shear Modulus (GPa) = 24.80304 26.78006 25.79155
#
# Velocity S-wave (km/s) = 3.77618 3.92380 3.85070
# Velocity P-wave (km/s) = 7.71942 7.87230 7.79624
#
# Compressibility (1/GPa) = 0.01416853
#
# Stress axis : x y z
#
# Youngs Moduli (GPa) = 66.84129 71.49304 95.67083
#
# Poissons Ratio (x) = 0.60142 0.24840
# Poissons Ratio (y) = 0.56228 0.15378
# Poissons Ratio (z) = 0.17355 0.11492
#
# Static dielectric constant tensor:
#      x y z
#    x 1.624230 0.000000 0.000000 
#    y 0.000000 1.589760 0.000000 
#    z 0.000000 0.000000 1.582300 
# 
# From -- ./inp_files/9623.got.cif
#   From: 2010.05.17/outbox.cif.g08.bks.cpg/sg63_5_cif.got.tgz:9623.got - 2010.06.03 15:47:04.
