data_PCOD9468044
_publ_section_title
;
Structure prediction by ZEFSAII (Michael W. Deem and Ramdas Pophale) SiO2 
 PCOD9468044
Probable space group: P N M A
;
_chemical_formula_sum "Si O2"
_cell_formula_units_Z 64
_cell_length_a 12.000000
_cell_length_b 30.000000
_cell_length_c 9.000000
_cell_angle_alpha 90.000000
_cell_angle_beta 90.000000
_cell_angle_gamma 90.000000
_cell_volume 3240.000000
_symmetry_space_group_name_H-M "P N M A"
_symmetry_group_IT_number 62
_symmetry_cell_setting 'orthorhombic'
loop_
_space_group_symop_operation_xyz
x,y,z
1/2-x,-y,1/2+z
1/2+x,1/2-y,1/2-z
-x,1/2+y,-z
-x,-y,-z
1/2+x,y,1/2-z
1/2-x,1/2+y,1/2+z
x,1/2-y,z
loop_
_atom_site_type_symbol
_atom_site_label
_atom_site_fract_x
_atom_site_fract_y
_atom_site_fract_z
Si Si1 0.656139 0.333297 0.659913
Si Si2 0.646220 0.886583 0.995205
Si Si3 0.054789 0.606110 0.199833
Si Si4 0.379955 0.021961 0.518580
Si Si5 0.915990 0.867612 0.662019
Si Si6 0.495757 0.798384 0.591079
Si Si7 0.772169 0.950190 0.762374
Si Si8 0.276028 0.174428 0.548442
O O1 0.757864 0.353020 0.558447
O O2 0.570817 0.374222 0.703484
O O3 0.577481 0.302615 0.558631
O O4 0.700696 0.309450 0.810470
O O5 0.532488 0.866329 0.927997
O O6 0.699967 0.918340 0.871485
O O7 0.598245 0.910930 0.141472
O O8 0.080026 0.568842 0.081468
O O9 0.140696 0.643293 0.143473
O O10 0.302997 0.031360 0.374064
O O11 0.500000 0.000000 0.500000
O O12 0.315092 0.991276 0.637830
O O13 0.948273 0.838076 0.806066
O O14 0.872485 0.917451 0.705166
O O15 0.813444 0.847208 0.565331
O O16 0.475813 0.750000 0.661873
O O17 0.627915 0.801432 0.550022
#
# Coordination Sequence:
#
# PCOD9468044 Si02
#       8
#     8   8   8   8   8   8   8   8
#     4  10  21  43  71 100 130 170 226 277 339 408
#     4  11  22  39  68  94 125 178 221 271 335 407
#     4  10  21  41  67  95 129 171 227 277 334 395
#     4  12  26  41  64  96 136 178 228 288 333 398
#     4  12  23  44  70  98 134 181 225 273 352 409
#     4  11  26  44  70 103 137 175 223 283 340 414
#     4  12  25  43  63  98 139 181 227 286 343 403
#     4  10  22  43  71  98 130 178 222 274 338 409
#
# _framework density 19.753086
#
# number of rings (size 3 to 8) (size 9 to 14) (size 15 to 20)
#    0.000    1.000    3.750    3.000    3.500    3.000 
#    0.000    2.500    0.000    0.000    0.000    0.000 
#    0.000    0.000    0.000    0.000    0.000    0.000 
#
# Total GULP energy -356556.315375 kJ/mol
# GULP energy per Si atom -5571.192428 kJ/mol
# Density = 1.970813 g / cm^3
# Si number density = 19.753086 Si / 1000 Ang^3
#
#
#
# Elastic Constant Matrix: (Units=GPa)
#
#
# Indices 1 2 3 4 5 6 
#
# 1 137.7368 24.8086 35.6516 0.0000 0.0000 0.0000
# 2 24.8086 42.9249 20.2331 0.0000 0.0000 0.0000
# 3 35.6516 20.2331 94.1897 0.0000 0.0000 0.0000
# 4 0.0000 0.0000 0.0000 3.3833 0.0000 0.0000
# 5 0.0000 0.0000 0.0000 0.0000 45.2202 0.0000
# 6 0.0000 0.0000 0.0000 0.0000 0.0000 10.8592
#
#
#
# Elastic Compliance Matrix: (Units=1/GPa)
#
#
# Indices 1 2 3 4 5 6 
#
# 1 0.008575 -0.003812 -0.002427 0.000000 0.000000 0.000000
# 2 -0.003812 0.027616 -0.004489 0.000000 0.000000 0.000000
# 3 -0.002427 -0.004489 0.012500 0.000000 0.000000 0.000000
# 4 0.000000 0.000000 0.000000 0.295568 0.000000 0.000000
# 5 0.000000 0.000000 0.000000 0.000000 0.022114 0.000000
# 6 0.000000 0.000000 0.000000 0.000000 0.000000 0.092088
#
#
# Mechanical properties :
#
#
# Convention : Reuss Voigt Hill
#
# Bulk Modulus (GPa) = 36.71851 48.47087 42.59469
# Shear Modulus (GPa) = 10.22506 24.83642 17.53074
#
# Velocity S-wave (km/s) = 2.27765 3.54975 2.98231
# Velocity P-wave (km/s) = 5.05430 6.43371 5.78527
#
# Compressibility (1/GPa) = 0.02723422
#
# Stress axis : x y z
#
# Youngs Moduli (GPa) = 116.61817 36.21118 80.00127
#
# Poissons Ratio (x) = 0.13804 0.19415
# Poissons Ratio (y) = 0.44455 0.35915
# Poissons Ratio (z) = 0.28301 0.16256
#
# Static dielectric constant tensor:
#      x y z
#    x 1.649640 0.000000 0.000000 
#    y 0.000000 1.700990 0.000000 
#    z 0.000000 0.000000 1.702870 
# 
# From -- ./inp_files/5525.got.cif
#   From: 2010.05.17/outbox.ucp.g08.bks.cvg/sg62_3_cif.got.tgz:5525.got - 2010.06.11 16:29:25.
