data_PCOD9468073
_publ_section_title
;
Structure prediction by ZEFSAII (Michael W. Deem and Ramdas Pophale) SiO2 
 PCOD9468073
Probable space group: P N M A
;
_chemical_formula_sum "Si O2"
_cell_formula_units_Z 48
_cell_length_a 18.000000
_cell_length_b 9.000000
_cell_length_c 15.000000
_cell_angle_alpha 90.000000
_cell_angle_beta 90.000000
_cell_angle_gamma 90.000000
_cell_volume 2430.000000
_symmetry_space_group_name_H-M "P N M A"
_symmetry_group_IT_number 62
_symmetry_cell_setting 'orthorhombic'
loop_
_space_group_symop_operation_xyz
x,y,z
1/2-x,-y,1/2+z
1/2+x,1/2-y,1/2-z
-x,1/2+y,-z
-x,-y,-z
1/2+x,y,1/2-z
1/2-x,1/2+y,1/2+z
x,1/2-y,z
loop_
_atom_site_type_symbol
_atom_site_label
_atom_site_fract_x
_atom_site_fract_y
_atom_site_fract_z
Si Si1 0.080005 0.071524 0.022322
Si Si2 0.925892 0.419392 0.280637
Si Si3 0.430942 0.423047 0.703998
Si Si4 0.075683 0.425629 0.534340
Si Si5 0.686685 0.920143 0.620718
Si Si6 0.336632 0.420342 0.884004
O O1 0.078589 0.250000 0.012942
O O2 0.098145 0.022836 0.123197
O O3 0.136675 0.992301 0.956001
O O4 0.000000 0.000000 0.000000
O O5 0.952195 0.250000 0.298076
O O6 0.905256 0.498917 0.372098
O O7 0.859217 0.412886 0.211670
O O8 0.989476 0.513973 0.232437
O O9 0.435203 0.250000 0.676572
O O10 0.382827 0.433262 0.793341
O O11 0.066623 0.250000 0.544651
O O12 0.134189 0.469127 0.459313
O O13 0.000000 0.500000 0.500000
O O14 0.708003 0.750000 0.597383
O O15 0.754088 0.030359 0.635440
O O16 0.342768 0.250000 0.915585
#
# Coordination Sequence:
#
# PCOD9468073 Si02
#       6
#     8   8   8   8   8   8
#     4  12  24  40  66  96 130 170 217 268 321 383
#     4  11  23  40  66  96 129 169 218 265 319 383
#     4  11  23  40  66  96 129 169 218 265 319 383
#     4  12  24  40  66  96 130 170 217 268 321 383
#     4  11  25  44  66  95 131 170 213 266 326 386
#     4  11  25  44  66  95 131 170 213 266 326 386
#
# _framework density 19.753086
#
# number of rings (size 3 to 8) (size 9 to 14) (size 15 to 20)
#    0.000    0.667    3.333    5.000    0.000    5.333 
#    0.000    3.333    0.000    0.000    0.000    0.000 
#    0.000    0.000    0.000    0.000    0.000    0.000 
#
# Total GULP energy -268324.855841 kJ/mol
# GULP energy per Si atom -5590.101163 kJ/mol
# Density = 1.970813 g / cm^3
# Si number density = 19.753086 Si / 1000 Ang^3
#
#
#
# Elastic Constant Matrix: (Units=GPa)
#
#
# Indices 1 2 3 4 5 6 
#
# 1 36.7187 -24.7818 3.5407 0.0000 0.0000 0.0000
# 2 -24.7818 66.4740 34.9563 0.0000 0.0000 0.0000
# 3 3.5407 34.9563 100.5923 0.0000 0.0000 0.0000
# 4 0.0000 0.0000 0.0000 35.2873 0.0000 0.0000
# 5 0.0000 0.0000 0.0000 0.0000 13.6746 0.0000
# 6 0.0000 0.0000 0.0000 0.0000 0.0000 26.4854
#
#
#
# Elastic Compliance Matrix: (Units=1/GPa)
#
#
# Indices 1 2 3 4 5 6 
#
# 1 0.041427 0.019836 -0.008351 0.000000 0.000000 0.000000
# 2 0.019836 0.027905 -0.010395 0.000000 0.000000 0.000000
# 3 -0.008351 -0.010395 0.013847 0.000000 0.000000 0.000000
# 4 0.000000 0.000000 0.000000 0.028339 0.000000 0.000000
# 5 0.000000 0.000000 0.000000 0.000000 0.073128 0.000000
# 6 0.000000 0.000000 0.000000 0.000000 0.000000 0.037757
#
#
# Mechanical properties :
#
#
# Convention : Reuss Voigt Hill
#
# Bulk Modulus (GPa) = 11.71547 25.69059 18.70303
# Shear Modulus (GPa) = 20.10646 27.76078 23.93362
#
# Velocity S-wave (km/s) = 3.19390 3.75292 3.48464
# Velocity P-wave (km/s) = 4.42099 5.64033 5.06747
#
# Compressibility (1/GPa) = 0.08535725
#
# Stress axis : x y z
#
# Youngs Moduli (GPa) = 24.13910 35.83622 72.21546
#
# Poissons Ratio (x) = -0.71083 0.60308
# Poissons Ratio (y) = -0.47881 0.75069
# Poissons Ratio (z) = 0.20159 0.37252
#
# Static dielectric constant tensor:
#      x y z
#    x 1.548480 0.000000 0.000000 
#    y 0.000000 1.686820 0.000000 
#    z 0.000000 0.000000 1.655600 
# 
# From -- ./inp_files/19621.got.cif
#   From: 2010.05.17/outbox.ucp.g08.bks.cvg/sg62_10_cif.got.tgz:19621.got - 2010.06.11 16:29:25.
