data_PCOD9468074
_publ_section_title
;
Structure prediction by ZEFSAII (Michael W. Deem and Ramdas Pophale) SiO2 
 PCOD9468074
Probable space group: P N M A
;
_chemical_formula_sum "Si O2"
_cell_formula_units_Z 40
_cell_length_a 12.000000
_cell_length_b 9.000000
_cell_length_c 18.000000
_cell_angle_alpha 90.000000
_cell_angle_beta 90.000000
_cell_angle_gamma 90.000000
_cell_volume 1944.000000
_symmetry_space_group_name_H-M "P N M A"
_symmetry_group_IT_number 62
_symmetry_cell_setting 'orthorhombic'
loop_
_space_group_symop_operation_xyz
x,y,z
1/2-x,-y,1/2+z
1/2+x,1/2-y,1/2-z
-x,1/2+y,-z
-x,-y,-z
1/2+x,y,1/2-z
1/2-x,1/2+y,1/2+z
x,1/2-y,z
loop_
_atom_site_type_symbol
_atom_site_label
_atom_site_fract_x
_atom_site_fract_y
_atom_site_fract_z
Si Si1 0.699945 0.574150 0.382216
Si Si2 0.963563 0.076521 0.128300
Si Si3 0.726589 0.076502 0.534723
Si Si4 0.619289 0.923856 0.796779
Si Si5 0.971107 0.075787 0.578613
O O1 0.708622 0.750000 0.387756
O O2 0.573799 0.520221 0.379178
O O3 0.751186 0.495225 0.454799
O O4 0.767266 0.512070 0.312138
O O5 0.987180 0.250000 0.113235
O O6 0.919187 0.063359 0.212217
O O7 0.872108 0.014599 0.072020
O O8 0.697549 0.250000 0.525792
O O9 0.837558 0.067209 0.583973
O O10 0.635055 0.750000 0.814357
O O11 0.530010 0.993765 0.853380
O O12 0.003429 0.250000 0.577167
O O13 0.000000 0.000000 0.500000
#
# Coordination Sequence:
#
# PCOD9468074 Si02
#       5
#     8   8   8   8   8
#     4  12  25  43  69  96 130 171 216 269 323 386
#     4  11  26  45  67  95 132 174 216 266 327 388
#     4  11  24  43  68  98 132 170 218 269 321 384
#     4  11  25  44  66  95 132 172 216 268 325 388
#     4  11  23  40  66  97 130 170 216 267 319 381
#
# _framework density 20.576132000000001
#
# number of rings (size 3 to 8) (size 9 to 14) (size 15 to 20)
#    0.000    0.800    2.000    4.800    2.800    5.600 
#    0.000    0.000    0.000    0.000    0.000    0.000 
#    0.000    0.000    0.000    0.000    0.000    0.000 
#
# Total GULP energy -223861.751230 kJ/mol
# GULP energy per Si atom -5596.543781 kJ/mol
# Density = 2.052930 g / cm^3
# Si number density = 20.576132 Si / 1000 Ang^3
#
#
#
# Elastic Constant Matrix: (Units=GPa)
#
#
# Indices 1 2 3 4 5 6 
#
# 1 65.1462 -6.6760 8.6050 0.0000 0.0000 0.0000
# 2 -6.6760 80.7186 30.9979 0.0000 0.0000 0.0000
# 3 8.6050 30.9979 38.5986 0.0000 0.0000 0.0000
# 4 0.0000 0.0000 0.0000 202.3705 0.0000 0.0000
# 5 0.0000 0.0000 0.0000 0.0000 49.1273 0.0000
# 6 0.0000 0.0000 0.0000 0.0000 0.0000 35.5636
#
#
#
# Elastic Compliance Matrix: (Units=1/GPa)
#
#
# Indices 1 2 3 4 5 6 
#
# 1 0.016689 0.004062 -0.006982 0.000000 0.000000 0.000000
# 2 0.004062 0.018902 -0.016085 0.000000 0.000000 0.000000
# 3 -0.006982 -0.016085 0.040382 0.000000 0.000000 0.000000
# 4 0.000000 0.000000 0.000000 0.004941 0.000000 0.000000
# 5 0.000000 0.000000 0.000000 0.000000 0.020355 0.000000
# 6 0.000000 0.000000 0.000000 0.000000 0.000000 0.028119
#
#
# Mechanical properties :
#
#
# Convention : Reuss Voigt Hill
#
# Bulk Modulus (GPa) = 26.34305 27.81302 27.07803
# Shear Modulus (GPa) = 27.76962 67.51471 47.64216
#
# Velocity S-wave (km/s) = 3.67768 5.73440 4.81709
# Velocity P-wave (km/s) = 5.55556 7.57568 6.64286
#
# Compressibility (1/GPa) = 0.03796068
#
# Stress axis : x y z
#
# Youngs Moduli (GPa) = 59.92116 52.90518 24.76352
#
# Poissons Ratio (x) = -0.21488 0.17291
# Poissons Ratio (y) = -0.24338 0.39833
# Poissons Ratio (z) = 0.41839 0.85099
#
# Static dielectric constant tensor:
#      x y z
#    x 1.760970 0.000000 0.000000 
#    y 0.000000 1.684220 0.000000 
#    z 0.000000 0.000000 1.695380 
# 
# From -- ./inp_files/22761.got.cif
#   From: 2010.05.17/outbox.ucp.g08.bks.cvg/sg62_12_cif.got.tgz:22761.got - 2010.06.11 16:29:25.
