data_PCOD9468216
_publ_section_title
;
Structure prediction by ZEFSAII (Michael W. Deem and Ramdas Pophale) SiO2 
 PCOD9468216
Probable space group: C M C M
;
_chemical_formula_sum "Si O2"
_cell_formula_units_Z 80
_cell_length_a 17.868501
_cell_length_b 7.706207
_cell_length_c 32.810605
_cell_angle_alpha 90.000000
_cell_angle_beta 90.000000
_cell_angle_gamma 90.000000
_cell_volume 4517.966745
_symmetry_space_group_name_H-M "C M C M"
_symmetry_group_IT_number 63
_symmetry_cell_setting 'orthorhombic'
loop_
_space_group_symop_operation_xyz
x,y,z
-x,-y,1/2+z
x,-y,-z
-x,y,1/2-z
-x,-y,-z
x,y,1/2-z
-x,y,z
x,-y,1/2+z
1/2+x,1/2+y,z
1/2-x,1/2-y,1/2+z
1/2+x,1/2-y,-z
1/2-x,1/2+y,1/2-z
1/2-x,1/2-y,-z
1/2+x,1/2+y,1/2-z
1/2-x,1/2+y,z
1/2+x,1/2-y,1/2+z
loop_
_atom_site_type_symbol
_atom_site_label
_atom_site_fract_x
_atom_site_fract_y
_atom_site_fract_z
Si Si1 0.158398 0.253543 0.203531
Si Si2 0.692291 0.590121 0.090321
Si Si3 0.912435 0.940596 0.344312
Si Si4 0.204352 0.628870 0.969167
Si Si5 0.195917 0.379327 0.832514
O O1 0.139142 0.295234 0.250000
O O2 0.163750 0.429641 0.176743
O O3 0.241052 0.168531 0.200629
O O4 0.105213 0.104835 0.184988
O O5 0.624824 0.496748 0.112984
O O6 0.734271 0.472802 0.057442
O O7 0.664050 0.756568 0.065030
O O8 0.755455 0.627878 0.125282
O O9 0.866672 0.768834 0.331655
O O10 0.000000 0.908053 0.346457
O O11 0.161400 0.500000 0.000000
O O12 0.250000 0.750000 0.000000
#
# Coordination Sequence:
#
# PCOD9468216 Si02
#       5
#    16  16  16  16  16
#     4  11  22  37  60  88 114 148 199 251 293 343
#     4  10  16  35  54  82 114 144 195 239 274 347
#     4  11  24  39  58  86 120 158 194 239 296 348
#     4   9  17  27  54  90 110 137 185 245 288 324
#     4  11  20  36  62  87 112 153 202 240 287 346
#
# _framework density 17.707080999999999
#
# number of rings (size 3 to 8) (size 9 to 14) (size 15 to 20)
#    0.000    1.600    6.000    1.800    0.000    2.000 
#    0.000    0.000    0.000    6.000    0.000    0.000 
#    0.000    0.000    0.000    0.000    0.000    0.000 
#
# Total GULP energy -222760.835513 kJ/mol
# GULP energy per Si atom -5569.020888 kJ/mol
# Density = 1.766678 g / cm^3
# Si number density = 17.707081 Si / 1000 Ang^3
#
#
#
# Elastic Constant Matrix: (Units=GPa)
#
#
# Indices 1 2 3 4 5 6 
#
# 1 80.6466 16.7982 7.8822 0.0000 0.0000 0.0000
# 2 16.7982 87.9740 24.8505 0.0000 0.0000 0.0000
# 3 7.8822 24.8505 97.7080 0.0000 0.0000 0.0000
# 4 0.0000 0.0000 0.0000 28.6193 0.0000 0.0000
# 5 0.0000 0.0000 0.0000 0.0000 9.8354 0.0000
# 6 0.0000 0.0000 0.0000 0.0000 0.0000 20.5065
#
#
#
# Elastic Compliance Matrix: (Units=1/GPa)
#
#
# Indices 1 2 3 4 5 6 
#
# 1 0.012932 -0.002343 -0.000447 0.000000 0.000000 0.000000
# 2 -0.002343 0.012671 -0.003034 0.000000 0.000000 0.000000
# 3 -0.000447 -0.003034 0.011042 0.000000 0.000000 0.000000
# 4 0.000000 0.000000 0.000000 0.034941 0.000000 0.000000
# 5 0.000000 0.000000 0.000000 0.000000 0.101673 0.000000
# 6 0.000000 0.000000 0.000000 0.000000 0.000000 0.048765
#
#
# Mechanical properties :
#
#
# Convention : Reuss Voigt Hill
#
# Bulk Modulus (GPa) = 40.00447 40.59894 40.30170
# Shear Modulus (GPa) = 20.66071 26.24542 23.45307
#
# Velocity S-wave (km/s) = 3.41956 3.85411 3.64332
# Velocity P-wave (km/s) = 6.18325 6.54090 6.36459
#
# Compressibility (1/GPa) = 0.02499721
#
# Stress axis : x y z
#
# Youngs Moduli (GPa) = 77.33052 78.91841 90.56128
#
# Poissons Ratio (x) = 0.18489 0.04051
# Poissons Ratio (y) = 0.18117 0.27474
# Poissons Ratio (z) = 0.03459 0.23942
#
# Static dielectric constant tensor:
#      x y z
#    x 1.548380 0.000000 0.000000 
#    y 0.000000 1.685010 0.000000 
#    z 0.000000 0.000000 1.646420 
# 
# From -- ./inp_files/73732.got.cif
#   From: 2010.05.17/outbox.cif.g08.bks.cpg/sg63_37_cif.got.tgz:73732.got - 2010.06.03 15:47:04.
