data_PCOD9468658
_publ_section_title
;
Structure prediction by ZEFSAII (Michael W. Deem and Ramdas Pophale) SiO2 
 PCOD9468658
Probable space group: C M C M
;
_chemical_formula_sum "Si O2"
_cell_formula_units_Z 80
_cell_length_a 25.179713
_cell_length_b 20.781727
_cell_length_c 8.817320
_cell_angle_alpha 90.000000
_cell_angle_beta 90.000000
_cell_angle_gamma 90.000000
_cell_volume 4613.908883
_symmetry_space_group_name_H-M "C M C M"
_symmetry_group_IT_number 63
_symmetry_cell_setting 'orthorhombic'
loop_
_space_group_symop_operation_xyz
x,y,z
-x,-y,1/2+z
x,-y,-z
-x,y,1/2-z
-x,-y,-z
x,y,1/2-z
-x,y,z
x,-y,1/2+z
1/2+x,1/2+y,z
1/2-x,1/2-y,1/2+z
1/2+x,1/2-y,-z
1/2-x,1/2+y,1/2-z
1/2-x,1/2-y,-z
1/2+x,1/2+y,1/2-z
1/2-x,1/2+y,z
1/2+x,1/2-y,1/2+z
loop_
_atom_site_type_symbol
_atom_site_label
_atom_site_fract_x
_atom_site_fract_y
_atom_site_fract_z
Si Si1 0.500000 0.606748 0.571407
Si Si2 0.383613 0.237303 0.925937
Si Si3 0.000000 0.245462 0.071612
Si Si4 0.280603 0.810670 0.929009
Si Si5 0.777354 0.932877 0.430608
Si Si6 0.611839 0.607087 0.070759
O O1 0.500000 0.593948 0.750000
O O2 0.500000 0.683583 0.536566
O O3 0.444884 0.584676 0.495010
O O4 0.368992 0.225636 0.750000
O O5 0.444900 0.217915 0.949645
O O6 0.383229 0.314994 0.947794
O O7 0.341996 0.202208 0.032261
O O8 0.000000 0.222153 0.250000
O O9 0.271228 0.813029 0.750000
O O10 0.250000 0.750000 0.000000
O O11 0.257315 0.874351 0.005125
O O12 0.775530 0.933876 0.250000
O O13 0.837967 0.922345 0.485652
O O14 0.758371 0.000000 0.500000
O O15 0.614488 0.593450 0.250000
#
# Coordination Sequence:
#
# PCOD9468658 Si02
#       6
#     8  16   8  16  16  16
#     4  10  18  28  47  75 106 141 185 229 273 319
#     4   9  17  31  53  80 110 144 182 226 274 324
#     4   8  16  30  48  73 110 145 178 221 276 327
#     4  12  23  36  56  83 113 147 187 232 277 326
#     4  12  25  41  59  80 109 145 185 230 282 337
#     4  10  19  34  54  76 107 144 185 228 276 326
#
# _framework density 17.338877
#
# number of rings (size 3 to 8) (size 9 to 14) (size 15 to 20)
#    0.000    1.600    2.000    6.300    0.000    3.200 
#    0.000    0.500    0.000    0.000    0.000    0.700 
#    0.000    0.000    0.000    0.000    0.000    0.000 
#
# Total GULP energy -223442.921646 kJ/mol
# GULP energy per Si atom -5586.073041 kJ/mol
# Density = 1.729941 g / cm^3
# Si number density = 17.338877 Si / 1000 Ang^3
#
#
#
# Elastic Constant Matrix: (Units=GPa)
#
#
# Indices 1 2 3 4 5 6 
#
# 1 89.0035 41.3670 51.1930 0.0000 0.0000 0.0000
# 2 41.3670 89.5784 57.0961 0.0000 0.0000 0.0000
# 3 51.1930 57.0961 152.5209 0.0000 0.0000 0.0000
# 4 0.0000 0.0000 0.0000 21.6735 0.0000 0.0000
# 5 0.0000 0.0000 0.0000 0.0000 33.2052 0.0000
# 6 0.0000 0.0000 0.0000 0.0000 0.0000 6.8094
#
#
#
# Elastic Compliance Matrix: (Units=1/GPa)
#
#
# Indices 1 2 3 4 5 6 
#
# 1 0.015482 -0.005040 -0.003310 0.000000 0.000000 0.000000
# 2 -0.005040 0.016302 -0.004411 0.000000 0.000000 0.000000
# 3 -0.003310 -0.004411 0.009319 0.000000 0.000000 0.000000
# 4 0.000000 0.000000 0.000000 0.046139 0.000000 0.000000
# 5 0.000000 0.000000 0.000000 0.000000 0.030116 0.000000
# 6 0.000000 0.000000 0.000000 0.000000 0.000000 0.146855
#
#
# Mechanical properties :
#
#
# Convention : Reuss Voigt Hill
#
# Bulk Modulus (GPa) = 64.17949 70.04613 67.11281
# Shear Modulus (GPa) = 16.95329 24.43407 20.69368
#
# Velocity S-wave (km/s) = 3.13031 3.75801 3.45843
# Velocity P-wave (km/s) = 7.08239 7.70170 7.39853
#
# Compressibility (1/GPa) = 0.01558130
#
# Stress axis : x y z
#
# Youngs Moduli (GPa) = 64.59296 61.34055 107.31112
#
# Poissons Ratio (x) = 0.30914 0.35517
# Poissons Ratio (y) = 0.32554 0.47337
# Poissons Ratio (z) = 0.21378 0.27059
#
# Static dielectric constant tensor:
#      x y z
#    x 1.623900 0.000000 0.000000 
#    y 0.000000 1.569300 0.000000 
#    z 0.000000 0.000000 1.582010 
# 
# From -- ./inp_files/10105.got.cif
#   From: 2010.05.17/outbox.cif.g08.bks.cpg/sg63_6_cif.got.tgz:10105.got - 2010.06.03 15:47:04.
