data_PCOD9468532
_publ_section_title
;
Structure prediction by ZEFSAII (Michael W. Deem and Ramdas Pophale) SiO2 
 PCOD9468532
Probable space group: C M C M
;
_chemical_formula_sum "Si O2"
_cell_formula_units_Z 112
_cell_length_a 30.782996
_cell_length_b 13.824462
_cell_length_c 17.466703
_cell_angle_alpha 90.000000
_cell_angle_beta 90.000000
_cell_angle_gamma 90.000000
_cell_volume 7433.101456
_symmetry_space_group_name_H-M "C M C M"
_symmetry_group_IT_number 63
_symmetry_cell_setting 'orthorhombic'
loop_
_space_group_symop_operation_xyz
x,y,z
-x,-y,1/2+z
x,-y,-z
-x,y,1/2-z
-x,-y,-z
x,y,1/2-z
-x,y,z
x,-y,1/2+z
1/2+x,1/2+y,z
1/2-x,1/2-y,1/2+z
1/2+x,1/2-y,-z
1/2-x,1/2+y,1/2-z
1/2-x,1/2-y,-z
1/2+x,1/2+y,1/2-z
1/2-x,1/2+y,z
1/2+x,1/2-y,1/2+z
loop_
_atom_site_type_symbol
_atom_site_label
_atom_site_fract_x
_atom_site_fract_y
_atom_site_fract_z
Si Si1 0.049408 0.896485 0.043804
Si Si2 0.123704 0.167620 0.058819
Si Si3 0.116138 0.025800 0.839754
Si Si4 0.763653 0.316665 0.659707
Si Si5 0.825487 0.301628 0.160527
Si Si6 0.721980 0.022983 0.916667
Si Si7 0.689682 0.642082 0.919421
O O1 0.000000 0.863956 0.054717
O O2 0.075735 0.917804 0.121596
O O3 0.079361 0.829366 0.990081
O O4 0.048311 0.000000 0.000000
O O5 0.121138 0.075208 0.114958
O O6 0.136082 0.260185 0.108606
O O7 0.161763 0.149826 0.996659
O O8 0.110818 0.010547 0.750000
O O9 0.159022 0.088090 0.858443
O O10 0.773959 0.312840 0.750000
O O11 0.715031 0.273396 0.651055
O O12 0.767882 0.424525 0.628075
O O13 0.795001 0.245547 0.612202
O O14 0.836480 0.304859 0.250000
O O15 0.808044 0.404534 0.131446
O O16 0.767044 0.079743 0.931273
O O17 0.702697 0.000000 0.000000
#
# Coordination Sequence:
#
# PCOD9468532 Si02
#       7
#    16  16  16  16  16  16  16
#     4   8  16  30  45  63  88 116 144 173 211 263
#     4  10  18  30  47  64  87 118 149 182 221 265
#     4  10  18  27  44  67  90 117 147 182 221 261
#     4  10  20  31  43  60  87 120 152 191 233 265
#     4  10  20  31  44  64  88 116 152 192 229 266
#     4  11  20  30  44  61  86 120 157 192 226 265
#     4  10  19  31  44  62  86 118 158 191 218 261
#
# _framework density 15.067734
#
# number of rings (size 3 to 8) (size 9 to 14) (size 15 to 20)
#    0.000    2.143    0.000    6.000    0.000    5.429 
#    0.000    0.000    0.000    1.286    0.000    0.000 
#    0.000   14.286    0.000    6.286    0.000    0.571 
#
# Total GULP energy -312451.138803 kJ/mol
# GULP energy per Si atom -5579.484621 kJ/mol
# Density = 1.503344 g / cm^3
# Si number density = 15.067734 Si / 1000 Ang^3
#
#
#
# Elastic Constant Matrix: (Units=GPa)
#
#
# Indices 1 2 3 4 5 6 
#
# 1 50.6637 11.1175 27.4519 0.0000 0.0000 0.0000
# 2 11.1175 78.2051 29.2392 0.0000 0.0000 0.0000
# 3 27.4519 29.2392 112.8638 0.0000 0.0000 0.0000
# 4 0.0000 0.0000 0.0000 21.7351 0.0000 0.0000
# 5 0.0000 0.0000 0.0000 0.0000 8.5597 0.0000
# 6 0.0000 0.0000 0.0000 0.0000 0.0000 15.9181
#
#
#
# Elastic Compliance Matrix: (Units=1/GPa)
#
#
# Indices 1 2 3 4 5 6 
#
# 1 0.022852 -0.001296 -0.005223 0.000000 0.000000 0.000000
# 2 -0.001296 0.014232 -0.003372 0.000000 0.000000 0.000000
# 3 -0.005223 -0.003372 0.011004 0.000000 0.000000 0.000000
# 4 0.000000 0.000000 0.000000 0.046008 0.000000 0.000000
# 5 0.000000 0.000000 0.000000 0.000000 0.116827 0.000000
# 6 0.000000 0.000000 0.000000 0.000000 0.000000 0.062822
#
#
# Mechanical properties :
#
#
# Convention : Reuss Voigt Hill
#
# Bulk Modulus (GPa) = 35.32656 41.92775 38.62715
# Shear Modulus (GPa) = 16.50378 20.83753 18.67065
#
# Velocity S-wave (km/s) = 3.31313 3.72280 3.52392
# Velocity P-wave (km/s) = 6.17510 6.80923 6.49990
#
# Compressibility (1/GPa) = 0.02830731
#
# Stress axis : x y z
#
# Youngs Moduli (GPa) = 43.75939 70.26543 90.87586
#
# Poissons Ratio (x) = 0.09107 0.47461
# Poissons Ratio (y) = 0.05671 0.30641
# Poissons Ratio (z) = 0.22854 0.23692
#
# Static dielectric constant tensor:
#      x y z
#    x 1.490730 0.000000 0.000000 
#    y 0.000000 1.489080 0.000000 
#    z 0.000000 0.000000 1.512430 
# 
# From -- ./inp_files/38716.got.cif
#   From: 2010.05.17/outbox.cif.g08.bks.cpg/sg63_20_cif.got.tgz:38716.got - 2010.06.03 15:47:04.
