data_PCOD9468676
_publ_section_title
;
Structure prediction by ZEFSAII (Michael W. Deem and Ramdas Pophale) SiO2 
 PCOD9468676
Probable space group: C M C M
;
_chemical_formula_sum "Si O2"
_cell_formula_units_Z 96
_cell_length_a 17.088028
_cell_length_b 19.430362
_cell_length_c 14.394168
_cell_angle_alpha 90.000000
_cell_angle_beta 90.000000
_cell_angle_gamma 90.000000
_cell_volume 4779.246228
_symmetry_space_group_name_H-M "C M C M"
_symmetry_group_IT_number 63
_symmetry_cell_setting 'orthorhombic'
loop_
_space_group_symop_operation_xyz
x,y,z
-x,-y,1/2+z
x,-y,-z
-x,y,1/2-z
-x,-y,-z
x,y,1/2-z
-x,y,z
x,-y,1/2+z
1/2+x,1/2+y,z
1/2-x,1/2-y,1/2+z
1/2+x,1/2-y,-z
1/2-x,1/2+y,1/2-z
1/2-x,1/2-y,-z
1/2+x,1/2+y,1/2-z
1/2-x,1/2+y,z
1/2+x,1/2-y,1/2+z
loop_
_atom_site_type_symbol
_atom_site_label
_atom_site_fract_x
_atom_site_fract_y
_atom_site_fract_z
Si Si1 0.773208 0.634210 0.142722
Si Si2 0.836822 0.252896 0.364434
Si Si3 0.181838 0.407703 0.141877
Si Si4 0.000000 0.022089 0.106874
Si Si5 0.171631 0.999178 0.111288
Si Si6 0.000000 0.815128 0.638044
Si Si7 0.089546 0.459046 0.864512
O O1 0.790716 0.650823 0.250000
O O2 0.730754 0.700790 0.102385
O O3 0.711391 0.570917 0.141673
O O4 0.852226 0.601236 0.102687
O O5 0.835345 0.251396 0.250000
O O6 0.825146 0.331083 0.396270
O O7 0.920933 0.222672 0.393384
O O8 0.159637 0.401526 0.250000
O O9 0.269471 0.438231 0.137900
O O10 0.125870 0.467967 0.103834
O O11 0.917305 0.995670 0.145899
O O12 0.000000 0.104829 0.111600
O O13 0.000000 0.000000 0.000000
O O14 0.169859 0.000000 0.000000
O O15 0.000000 0.813097 0.750000
O O16 0.092729 0.459156 0.750000
O O17 0.000000 0.450766 0.891948
#
# Coordination Sequence:
#
# PCOD9468676 Si02
#       7
#    16  16  16   8  16   8  16
#     4   9  16  29  48  68  92 123 157 195 236 284
#     4   9  17  28  46  73 100 121 150 196 245 286
#     4   9  18  31  48  71  99 124 151 195 247 292
#     4  10  20  32  50  70 100 128 164 206 242 289
#     4  10  19  32  49  70  94 127 164 198 239 285
#     4  10  18  28  50  80 101 122 158 205 251 290
#     4   8  14  24  42  67  89 115 152 186 222 274
#
# _framework density 20.086849999999998
#
# number of rings (size 3 to 8) (size 9 to 14) (size 15 to 20)
#    0.000    2.833    1.667    1.500    1.167    0.667 
#    0.000    0.833    1.833    8.000    0.000    0.000 
#    0.000    0.000    0.000    0.000    0.000    0.000 
#
# Total GULP energy -267716.280244 kJ/mol
# GULP energy per Si atom -5577.422505 kJ/mol
# Density = 2.004113 g / cm^3
# Si number density = 20.086850 Si / 1000 Ang^3
#
#
#
# Elastic Constant Matrix: (Units=GPa)
#
#
# Indices 1 2 3 4 5 6 
#
# 1 196.8573 101.9268 0.1782 0.0000 0.0000 0.0000
# 2 101.9268 168.6461 9.9501 0.0000 0.0000 0.0000
# 3 0.1782 9.9501 47.9134 0.0000 0.0000 0.0000
# 4 0.0000 0.0000 0.0000 58.7065 0.0000 0.0000
# 5 0.0000 0.0000 0.0000 0.0000 14.4864 0.0000
# 6 0.0000 0.0000 0.0000 0.0000 0.0000 11.5393
#
#
#
# Elastic Compliance Matrix: (Units=1/GPa)
#
#
# Indices 1 2 3 4 5 6 
#
# 1 0.007433 -0.004546 0.000917 0.000000 0.000000 0.000000
# 2 -0.004546 0.008784 -0.001807 0.000000 0.000000 0.000000
# 3 0.000917 -0.001807 0.021243 0.000000 0.000000 0.000000
# 4 0.000000 0.000000 0.000000 0.017034 0.000000 0.000000
# 5 0.000000 0.000000 0.000000 0.000000 0.069030 0.000000
# 6 0.000000 0.000000 0.000000 0.000000 0.000000 0.086660
#
#
# Mechanical properties :
#
#
# Convention : Reuss Voigt Hill
#
# Bulk Modulus (GPa) = 37.61448 70.83631 54.22539
# Shear Modulus (GPa) = 21.74662 37.03722 29.39192
#
# Velocity S-wave (km/s) = 3.29390 4.29867 3.82938
# Velocity P-wave (km/s) = 5.76480 7.74465 6.82688
#
# Compressibility (1/GPa) = 0.02658551
#
# Stress axis : x y z
#
# Youngs Moduli (GPa) = 134.53505 113.84335 47.07461
#
# Poissons Ratio (x) = 0.51758 -0.04314
# Poissons Ratio (y) = 0.61166 0.08508
# Poissons Ratio (z) = -0.12330 0.20574
#
# Static dielectric constant tensor:
#      x y z
#    x 1.715710 0.000000 0.000000 
#    y 0.000000 1.676180 0.000000 
#    z 0.000000 0.000000 1.729530 
# 
# From -- ./inp_files/45795.got.cif
#   From: 2010.05.17/outbox.cif.g08.bks.cpg/sg63_23_cif.got.tgz:45795.got - 2010.06.03 15:47:04.
