data_PCOD9468116
_publ_section_title
;
Structure prediction by ZEFSAII (Michael W. Deem and Ramdas Pophale) SiO2 
 PCOD9468116
Probable space group: C M C M
;
_chemical_formula_sum "Si O2"
_cell_formula_units_Z 80
_cell_length_a 20.039349
_cell_length_b 34.533556
_cell_length_c 7.454688
_cell_angle_alpha 90.000000
_cell_angle_beta 90.000000
_cell_angle_gamma 90.000000
_cell_volume 5158.867594
_symmetry_space_group_name_H-M "C M C M"
_symmetry_group_IT_number 63
_symmetry_cell_setting 'orthorhombic'
loop_
_space_group_symop_operation_xyz
x,y,z
-x,-y,1/2+z
x,-y,-z
-x,y,1/2-z
-x,-y,-z
x,y,1/2-z
-x,y,z
x,-y,1/2+z
1/2+x,1/2+y,z
1/2-x,1/2-y,1/2+z
1/2+x,1/2-y,-z
1/2-x,1/2+y,1/2-z
1/2-x,1/2-y,-z
1/2+x,1/2+y,1/2-z
1/2-x,1/2+y,z
1/2+x,1/2-y,1/2+z
loop_
_atom_site_type_symbol
_atom_site_label
_atom_site_fract_x
_atom_site_fract_y
_atom_site_fract_z
Si Si1 0.500000 0.259649 0.956221
Si Si2 0.353266 0.265052 0.532270
Si Si3 0.500000 0.830247 0.966819
Si Si4 0.923527 0.456365 0.964482
Si Si5 0.227823 0.687725 0.038014
Si Si6 0.367106 0.877027 0.530826
O O1 0.500000 0.273100 0.750000
O O2 0.571611 0.271527 0.034699
O O3 0.500000 0.212932 0.959125
O O4 0.354522 0.266067 0.750000
O O5 0.297538 0.295412 0.466385
O O6 0.325868 0.222434 0.483609
O O7 0.500000 0.827201 0.750000
O O8 0.565833 0.853789 0.019058
O O9 0.927660 0.452099 0.750000
O O10 0.877673 0.421152 0.029474
O O11 0.000000 0.452770 0.033450
O O12 0.900231 0.500000 0.000000
O O13 0.237934 0.682245 0.250000
O O14 0.195515 0.648294 0.966386
O O15 0.364361 0.876984 0.750000
#
# Coordination Sequence:
#
# PCOD9468116 Si02
#       6
#     8  16   8  16  16  16
#     4  10  18  26  34  49  75  98 114 143 183 214
#     4   9  17  26  35  50  72  94 115 143 179 211
#     4  10  16  24  37  53  67  88 124 153 171 198
#     4   9  16  26  37  50  68  88 110 138 172 206
#     4   9  16  26  39  52  66  89 121 150 174 202
#     4   9  15  24  39  53  66  87 118 152 175 196
#
# _framework density 15.507277999999999
#
# number of rings (size 3 to 8) (size 9 to 14) (size 15 to 20)
#    0.000    2.800    3.000    0.000    0.000    0.000 
#    0.000    2.000    0.000    0.000    0.000    0.000 
#    0.000    0.000    0.000    0.900    0.000    4.400 
#
# Total GULP energy -222906.278819 kJ/mol
# GULP energy per Si atom -5572.656970 kJ/mol
# Density = 1.547198 g / cm^3
# Si number density = 15.507278 Si / 1000 Ang^3
#
#
#
# Elastic Constant Matrix: (Units=GPa)
#
#
# Indices 1 2 3 4 5 6 
#
# 1 115.1663 60.6209 -1.4003 0.0000 0.0000 0.0000
# 2 60.6209 119.7479 0.4994 0.0000 0.0000 0.0000
# 3 -1.4003 0.4994 44.0760 0.0000 0.0000 0.0000
# 4 0.0000 0.0000 0.0000 10.6348 0.0000 0.0000
# 5 0.0000 0.0000 0.0000 0.0000 3.4323 0.0000
# 6 0.0000 0.0000 0.0000 0.0000 0.0000 22.7917
#
#
#
# Elastic Compliance Matrix: (Units=1/GPa)
#
#
# Indices 1 2 3 4 5 6 
#
# 1 0.011846 -0.005999 0.000444 0.000000 0.000000 0.000000
# 2 -0.005999 0.011389 -0.000320 0.000000 0.000000 0.000000
# 3 0.000444 -0.000320 0.022706 0.000000 0.000000 0.000000
# 4 0.000000 0.000000 0.000000 0.094031 0.000000 0.000000
# 5 0.000000 0.000000 0.000000 0.000000 0.291347 0.000000
# 6 0.000000 0.000000 0.000000 0.000000 0.000000 0.043876
#
#
# Mechanical properties :
#
#
# Convention : Reuss Voigt Hill
#
# Bulk Modulus (GPa) = 29.24598 44.27004 36.75801
# Shear Modulus (GPa) = 10.03329 21.98978 16.01153
#
# Velocity S-wave (km/s) = 2.54639 3.76976 3.21677
# Velocity P-wave (km/s) = 5.24842 6.89623 6.12797
#
# Compressibility (1/GPa) = 0.03419274
#
# Stress axis : x y z
#
# Youngs Moduli (GPa) = 84.41573 87.80373 44.04159
#
# Poissons Ratio (x) = 0.52672 -0.01957
# Poissons Ratio (y) = 0.50639 0.01408
# Poissons Ratio (z) = -0.03751 0.02807
#
# Static dielectric constant tensor:
#      x y z
#    x 1.537170 0.000000 0.000000 
#    y 0.000000 1.516370 0.000000 
#    z 0.000000 0.000000 1.584440 
# 
# From -- ./inp_files/21457.got.cif
#   From: 2010.05.17/outbox.cif.g08.bks.cpg/sg63_11_cif.got.tgz:21457.got - 2010.06.03 15:47:04.
