data_PCOD9468405
_publ_section_title
;
Structure prediction by ZEFSAII (Michael W. Deem and Ramdas Pophale) SiO2 
 PCOD9468405
Probable space group: C M C M
;
_chemical_formula_sum "Si O2"
_cell_formula_units_Z 96
_cell_length_a 8.508247
_cell_length_b 21.225523
_cell_length_c 25.586299
_cell_angle_alpha 90.000000
_cell_angle_beta 90.000000
_cell_angle_gamma 90.000000
_cell_volume 4620.680714
_symmetry_space_group_name_H-M "C M C M"
_symmetry_group_IT_number 63
_symmetry_cell_setting 'orthorhombic'
loop_
_space_group_symop_operation_xyz
x,y,z
-x,-y,1/2+z
x,-y,-z
-x,y,1/2-z
-x,-y,-z
x,y,1/2-z
-x,y,z
x,-y,1/2+z
1/2+x,1/2+y,z
1/2-x,1/2-y,1/2+z
1/2+x,1/2-y,-z
1/2-x,1/2+y,1/2-z
1/2-x,1/2-y,-z
1/2+x,1/2+y,1/2-z
1/2-x,1/2+y,z
1/2+x,1/2-y,1/2+z
loop_
_atom_site_type_symbol
_atom_site_label
_atom_site_fract_x
_atom_site_fract_y
_atom_site_fract_z
Si Si1 0.178766 0.164285 0.493074
Si Si2 0.670482 0.048528 0.453196
Si Si3 0.680937 0.976475 0.344044
Si Si4 0.687236 0.784992 0.610663
Si Si5 0.308365 0.892264 0.692407
Si Si6 0.188064 0.348094 0.110059
O O1 0.193041 0.097292 0.463507
O O2 0.264553 0.208100 0.450381
O O3 0.251396 0.151115 0.550046
O O4 0.000000 0.184847 0.498985
O O5 0.500000 0.083381 0.452520
O O6 0.668081 0.000000 0.500000
O O7 0.678065 0.008399 0.401181
O O8 0.500000 0.967407 0.325549
O O9 0.748924 0.906979 0.355053
O O10 0.750944 0.035386 0.312128
O O11 0.500000 0.780468 0.614240
O O12 0.739264 0.844903 0.645904
O O13 0.762150 0.720152 0.630873
O O14 0.268903 0.867332 0.750000
O O15 0.500000 0.896243 0.688727
O O16 0.000000 0.353954 0.107940
#
# Coordination Sequence:
#
# PCOD9468405 Si02
#       6
#    16  16  16  16  16  16
#     4  12  23  34  52  83 118 154 194 234 276 332
#     4  10  17  31  53  78 110 151 190 224 271 330
#     4   9  17  32  56  82 109 143 184 229 277 327
#     4  11  22  38  58  82 115 153 192 235 280 335
#     4   9  18  35  62  89 107 135 188 242 282 331
#     4  11  22  37  56  82 118 156 189 227 281 342
#
# _framework density 20.776160000000001
#
# number of rings (size 3 to 8) (size 9 to 14) (size 15 to 20)
#    0.000    1.667    3.333    3.000    0.000    0.333 
#    0.000    0.833    0.000    3.000    0.000    0.000 
#    0.000    0.000    0.000    0.000    0.000    0.000 
#
# Total GULP energy -267608.921778 kJ/mol
# GULP energy per Si atom -5575.185870 kJ/mol
# Density = 2.072887 g / cm^3
# Si number density = 20.776160 Si / 1000 Ang^3
#
#
#
# Elastic Constant Matrix: (Units=GPa)
#
#
# Indices 1 2 3 4 5 6 
#
# 1 49.2278 17.6184 7.8386 0.0000 0.0000 0.0000
# 2 17.6184 140.6974 25.6086 0.0000 0.0000 0.0000
# 3 7.8386 25.6086 85.0048 0.0000 0.0000 0.0000
# 4 0.0000 0.0000 0.0000 23.6809 0.0000 0.0000
# 5 0.0000 0.0000 0.0000 0.0000 1.2804 0.0000
# 6 0.0000 0.0000 0.0000 0.0000 0.0000 27.9150
#
#
#
# Elastic Compliance Matrix: (Units=1/GPa)
#
#
# Indices 1 2 3 4 5 6 
#
# 1 0.021388 -0.002454 -0.001233 0.000000 0.000000 0.000000
# 2 -0.002454 0.007801 -0.002124 0.000000 0.000000 0.000000
# 3 -0.001233 -0.002124 0.012518 0.000000 0.000000 0.000000
# 4 0.000000 0.000000 0.000000 0.042228 0.000000 0.000000
# 5 0.000000 0.000000 0.000000 0.000000 0.781028 0.000000
# 6 0.000000 0.000000 0.000000 0.000000 0.000000 0.035823
#
#
# Mechanical properties :
#
#
# Convention : Reuss Voigt Hill
#
# Bulk Modulus (GPa) = 33.23858 41.89570 37.56714
# Shear Modulus (GPa) = 5.42043 25.49954 15.45998
#
# Velocity S-wave (km/s) = 1.61698 3.50715 2.73082
# Velocity P-wave (km/s) = 4.41807 6.05055 5.29757
#
# Compressibility (1/GPa) = 0.03008552
#
# Stress axis : x y z
#
# Youngs Moduli (GPa) = 46.75452 128.18355 79.88748
#
# Poissons Ratio (x) = 0.31454 0.09850
# Poissons Ratio (y) = 0.11473 0.16968
# Poissons Ratio (z) = 0.05765 0.27226
#
# Static dielectric constant tensor:
#      x y z
#    x 1.738910 0.000000 0.000000 
#    y 0.000000 1.821700 0.000000 
#    z 0.000000 0.000000 1.760170 
# 
# From -- ./inp_files/66932.got.cif
#   From: 2010.05.17/outbox.cif.g08.bks.cpg/sg63_34_cif.got.tgz:66932.got - 2010.06.03 15:47:04.
