data_PCOD9468467
_publ_section_title
;
Structure prediction by ZEFSAII (Michael W. Deem and Ramdas Pophale) SiO2 
 PCOD9468467
Probable space group: C M C M
;
_chemical_formula_sum "Si O2"
_cell_formula_units_Z 72
_cell_length_a 23.318717
_cell_length_b 24.309605
_cell_length_c 8.985273
_cell_angle_alpha 90.000000
_cell_angle_beta 90.000000
_cell_angle_gamma 90.000000
_cell_volume 5093.470918
_symmetry_space_group_name_H-M "C M C M"
_symmetry_group_IT_number 63
_symmetry_cell_setting 'orthorhombic'
loop_
_space_group_symop_operation_xyz
x,y,z
-x,-y,1/2+z
x,-y,-z
-x,y,1/2-z
-x,-y,-z
x,y,1/2-z
-x,y,z
x,-y,1/2+z
1/2+x,1/2+y,z
1/2-x,1/2-y,1/2+z
1/2+x,1/2-y,-z
1/2-x,1/2+y,1/2-z
1/2-x,1/2-y,-z
1/2+x,1/2+y,1/2-z
1/2-x,1/2+y,z
1/2+x,1/2-y,1/2+z
loop_
_atom_site_type_symbol
_atom_site_label
_atom_site_fract_x
_atom_site_fract_y
_atom_site_fract_z
Si Si1 0.172815 0.297062 0.579125
Si Si2 0.000000 0.060320 0.429123
Si Si3 0.064863 0.743391 0.925931
Si Si4 0.282782 0.670098 0.921719
Si Si5 0.593128 0.360715 0.429655
O O1 0.160344 0.309818 0.750000
O O2 0.114902 0.296485 0.483514
O O3 0.225361 0.332950 0.517531
O O4 0.195486 0.233683 0.572623
O O5 0.054883 0.093801 0.490502
O O6 0.000000 0.058689 0.250000
O O7 0.000000 0.000000 0.500000
O O8 0.072569 0.753882 0.750000
O O9 0.000000 0.723117 0.949904
O O10 0.072015 0.801103 0.012964
O O11 0.269251 0.658021 0.750000
O O12 0.339080 0.635965 0.966894
O O13 0.587199 0.363177 0.250000
#
# Coordination Sequence:
#
# PCOD9468467 Si02
#       5
#    16   8  16  16  16
#     4   9  16  24  36  54  75 100 127 160 195 228
#     4  12  24  36  48  62  80 102 130 168 210 250
#     4  10  18  26  38  56  78 105 135 165 198 237
#     4   8  15  26  39  55  74  96 122 156 196 235
#     4  10  19  31  46  60  75  97 127 164 204 244
#
# _framework density 14.135745
#
# number of rings (size 3 to 8) (size 9 to 14) (size 15 to 20)
#    0.000    2.444    1.111    4.333    0.000    7.556 
#    0.000    0.000    0.000    0.000    0.000    0.000 
#    0.000    0.000    0.000    0.000    0.000    1.111 
#
# Total GULP energy -200496.488437 kJ/mol
# GULP energy per Si atom -5569.346901 kJ/mol
# Density = 1.410357 g / cm^3
# Si number density = 14.135745 Si / 1000 Ang^3
#
#
#
# Elastic Constant Matrix: (Units=GPa)
#
#
# Indices 1 2 3 4 5 6 
#
# 1 127.3208 36.6550 70.9261 0.0000 0.0000 0.0000
# 2 36.6550 30.9031 22.6652 0.0000 0.0000 0.0000
# 3 70.9261 22.6652 93.3668 0.0000 0.0000 0.0000
# 4 0.0000 0.0000 0.0000 13.1245 0.0000 0.0000
# 5 0.0000 0.0000 0.0000 0.0000 26.5791 0.0000
# 6 0.0000 0.0000 0.0000 0.0000 0.0000 9.0823
#
#
#
# Elastic Compliance Matrix: (Units=1/GPa)
#
#
# Indices 1 2 3 4 5 6 
#
# 1 0.017074 -0.013066 -0.009799 0.000000 0.000000 0.000000
# 2 -0.013066 0.049367 -0.002059 0.000000 0.000000 0.000000
# 3 -0.009799 -0.002059 0.018654 0.000000 0.000000 0.000000
# 4 0.000000 0.000000 0.000000 0.076193 0.000000 0.000000
# 5 0.000000 0.000000 0.000000 0.000000 0.037624 0.000000
# 6 0.000000 0.000000 0.000000 0.000000 0.000000 0.110105
#
#
# Mechanical properties :
#
#
# Convention : Reuss Voigt Hill
#
# Bulk Modulus (GPa) = 28.36987 56.89814 42.63401
# Shear Modulus (GPa) = 13.49122 17.84680 15.66901
#
# Velocity S-wave (km/s) = 3.09270 3.55706 3.33298
# Velocity P-wave (km/s) = 5.73290 7.56366 6.71100
#
# Compressibility (1/GPa) = 0.03524866
#
# Stress axis : x y z
#
# Youngs Moduli (GPa) = 58.56780 20.25663 53.60832
#
# Poissons Ratio (x) = 0.26466 0.52529
# Poissons Ratio (y) = 0.76522 0.11036
# Poissons Ratio (z) = 0.57389 0.04170
#
# Static dielectric constant tensor:
#      x y z
#    x 1.499460 0.000000 0.000000 
#    y 0.000000 1.425190 0.000000 
#    z 0.000000 0.000000 1.473880 
# 
# From -- ./inp_files/8013.got.cif
#   From: 2010.05.17/outbox.cif.g08.bks.cpg/sg63_5_cif.got.tgz:8013.got - 2010.06.03 15:47:04.
