data_PCOD9468567
_publ_section_title
;
Structure prediction by ZEFSAII (Michael W. Deem and Ramdas Pophale) SiO2 
 PCOD9468567
Probable space group: C M C M
;
_chemical_formula_sum "Si O2"
_cell_formula_units_Z 96
_cell_length_a 34.261720
_cell_length_b 18.862232
_cell_length_c 7.490570
_cell_angle_alpha 90.000000
_cell_angle_beta 90.000000
_cell_angle_gamma 90.000000
_cell_volume 4840.799674
_symmetry_space_group_name_H-M "C M C M"
_symmetry_group_IT_number 63
_symmetry_cell_setting 'orthorhombic'
loop_
_space_group_symop_operation_xyz
x,y,z
-x,-y,1/2+z
x,-y,-z
-x,y,1/2-z
-x,-y,-z
x,y,1/2-z
-x,y,z
x,-y,1/2+z
1/2+x,1/2+y,z
1/2-x,1/2-y,1/2+z
1/2+x,1/2-y,-z
1/2-x,1/2+y,1/2-z
1/2-x,1/2-y,-z
1/2+x,1/2+y,1/2-z
1/2-x,1/2+y,z
1/2+x,1/2-y,1/2+z
loop_
_atom_site_type_symbol
_atom_site_label
_atom_site_fract_x
_atom_site_fract_y
_atom_site_fract_z
Si Si1 0.000000 0.326346 0.531964
Si Si2 0.078102 0.082721 0.963575
Si Si3 0.500000 0.660797 0.968378
Si Si4 0.335304 0.919229 0.963452
Si Si5 0.869742 0.205763 0.967249
Si Si6 0.585725 0.151280 0.467005
Si Si7 0.792605 0.280174 0.536287
O O1 0.958756 0.359618 0.472184
O O2 0.000000 0.328158 0.750000
O O3 0.000000 0.243202 0.479950
O O4 0.077323 0.090238 0.750000
O O5 0.113725 0.130992 0.029952
O O6 0.038183 0.118580 0.029333
O O7 0.080694 0.000000 0.000000
O O8 0.500000 0.660996 0.750000
O O9 0.336969 0.911967 0.750000
O O10 0.379183 0.899850 0.029061
O O11 0.305051 0.858911 0.028713
O O12 0.324678 0.000000 0.000000
O O13 0.868536 0.204700 0.750000
O O14 0.899594 0.269341 0.013509
O O15 0.826958 0.228245 0.029705
O O16 0.584914 0.147935 0.250000
O O17 0.795709 0.282726 0.750000
O O18 0.750000 0.250000 0.500000
#
# Coordination Sequence:
#
# PCOD9468567 Si02
#       7
#     8  16   8  16  16  16  16
#     4   9  12  19  40  69  91 112 153 202 230 254
#     4  10  18  28  42  63  91 122 155 191 230 271
#     4   9  15  23  40  65  89 116 155 196 229 264
#     4   9  18  32  50  73  99 125 153 187 229 277
#     4   8  14  27  45  63  87 118 151 188 227 268
#     4   8  13  23  42  67  91 116 153 194 224 257
#     4   9  18  33  53  75  95 118 152 193 234 278
#
# _framework density 19.831434999999999
#
# number of rings (size 3 to 8) (size 9 to 14) (size 15 to 20)
#    0.000    3.167    1.667    2.250    0.000    0.667 
#    0.000    2.083    0.000    5.000    0.000    0.000 
#    0.000    0.000    0.000    0.000    0.000    0.000 
#
# Total GULP energy -267527.179871 kJ/mol
# GULP energy per Si atom -5573.482914 kJ/mol
# Density = 1.978630 g / cm^3
# Si number density = 19.831435 Si / 1000 Ang^3
#
#
#
# Elastic Constant Matrix: (Units=GPa)
#
#
# Indices 1 2 3 4 5 6 
#
# 1 179.9323 79.1951 8.4507 0.0000 0.0000 0.0000
# 2 79.1951 122.7083 4.1653 0.0000 0.0000 0.0000
# 3 8.4507 4.1653 51.5278 0.0000 0.0000 0.0000
# 4 0.0000 0.0000 0.0000 16.2458 0.0000 0.0000
# 5 0.0000 0.0000 0.0000 0.0000 2.7136 0.0000
# 6 0.0000 0.0000 0.0000 0.0000 0.0000 19.4431
#
#
#
# Elastic Compliance Matrix: (Units=1/GPa)
#
#
# Indices 1 2 3 4 5 6 
#
# 1 0.007802 -0.005006 -0.000875 0.000000 0.000000 0.000000
# 2 -0.005006 0.011383 -0.000099 0.000000 0.000000 0.000000
# 3 -0.000875 -0.000099 0.019559 0.000000 0.000000 0.000000
# 4 0.000000 0.000000 0.000000 0.061554 0.000000 0.000000
# 5 0.000000 0.000000 0.000000 0.000000 0.368509 0.000000
# 6 0.000000 0.000000 0.000000 0.000000 0.000000 0.051432
#
#
# Mechanical properties :
#
#
# Convention : Reuss Voigt Hill
#
# Bulk Modulus (GPa) = 37.33535 59.75450 48.54492
# Shear Modulus (GPa) = 9.23998 25.17099 17.20548
#
# Velocity S-wave (km/s) = 2.16087 3.56651 2.94868
# Velocity P-wave (km/s) = 5.00930 6.86707 6.01039
#
# Compressibility (1/GPa) = 0.02678427
#
# Stress axis : x y z
#
# Youngs Moduli (GPa) = 128.17405 87.84755 51.12865
#
# Poissons Ratio (x) = 0.43973 0.04473
# Poissons Ratio (y) = 0.64159 0.00507
# Poissons Ratio (z) = 0.11214 0.00872
#
# Static dielectric constant tensor:
#      x y z
#    x 1.712440 0.000000 0.000000 
#    y 0.000000 1.688370 0.000000 
#    z 0.000000 0.000000 1.787850 
# 
# From -- ./inp_files/25892.got.cif
#   From: 2010.05.17/outbox.cif.g08.bks.cpg/sg63_13_cif.got.tgz:25892.got - 2010.06.03 15:47:04.
