data_PCOD9468918
_publ_section_title
;
Structure prediction by ZEFSAII (Michael W. Deem and Ramdas Pophale) SiO2 
 PCOD9468918
Probable space group: C M C M
;
_chemical_formula_sum "Si O2"
_cell_formula_units_Z 96
_cell_length_a 8.171304
_cell_length_b 28.704881
_cell_length_c 22.802975
_cell_angle_alpha 90.000000
_cell_angle_beta 90.000000
_cell_angle_gamma 90.000000
_cell_volume 5348.581649
_symmetry_space_group_name_H-M "C M C M"
_symmetry_group_IT_number 63
_symmetry_cell_setting 'orthorhombic'
loop_
_space_group_symop_operation_xyz
x,y,z
-x,-y,1/2+z
x,-y,-z
-x,y,1/2-z
-x,-y,-z
x,y,1/2-z
-x,y,z
x,-y,1/2+z
1/2+x,1/2+y,z
1/2-x,1/2-y,1/2+z
1/2+x,1/2-y,-z
1/2-x,1/2+y,1/2-z
1/2-x,1/2-y,-z
1/2+x,1/2+y,1/2-z
1/2-x,1/2+y,z
1/2+x,1/2-y,1/2+z
loop_
_atom_site_type_symbol
_atom_site_label
_atom_site_fract_x
_atom_site_fract_y
_atom_site_fract_z
Si Si1 0.200267 0.517757 0.750000
Si Si2 0.309534 0.389534 0.941238
Si Si3 0.696277 0.126629 0.750000
Si Si4 0.304590 0.028216 0.129163
Si Si5 0.304804 0.639562 0.623972
Si Si6 0.308568 0.055629 0.552876
Si Si7 0.196942 0.802418 0.010983
O O1 0.250444 0.572011 0.750000
O O2 0.256369 0.490790 0.691504
O O3 0.000000 0.517595 0.750000
O O4 0.500000 0.384020 0.928415
O O5 0.233153 0.419030 0.888573
O O6 0.286336 0.421386 0.999231
O O7 0.240842 0.339517 0.962196
O O8 0.500000 0.127410 0.750000
O O9 0.761192 0.150077 0.690724
O O10 0.500000 0.022508 0.129802
O O11 0.246025 0.993303 0.077682
O O12 0.500000 0.631858 0.618509
O O13 0.211182 0.592333 0.605872
O O14 0.255577 0.677668 0.575096
O O15 0.500000 0.051824 0.536000
O O16 0.000000 0.804279 0.008881
O O17 0.250000 0.750000 0.000000
#
# Coordination Sequence:
#
# PCOD9468918 Si02
#       7
#     8  16   8  16  16  16  16
#     4   9  18  33  49  70 103 140 179 218 243 278
#     4  10  21  34  48  73 105 131 162 212 264 310
#     4  11  19  33  53  76 107 146 181 212 247 300
#     4  10  19  32  49  70 100 139 178 212 244 291
#     4  10  20  33  50  78 111 139 169 215 266 310
#     4  10  18  30  49  73 101 137 177 209 245 301
#     4   9  20  37  56  77 102 130 167 217 271 319
#
# _framework density 17.948685000000001
#
# number of rings (size 3 to 8) (size 9 to 14) (size 15 to 20)
#    0.000    2.167    1.667    3.250    0.000    7.333 
#    0.000    0.417    0.000    1.000    0.000    3.500 
#    0.000    0.000    0.000    0.000    0.000    0.000 
#
# Total GULP energy -267708.785475 kJ/mol
# GULP energy per Si atom -5577.266364 kJ/mol
# Density = 1.790783 g / cm^3
# Si number density = 17.948685 Si / 1000 Ang^3
#
#
#
# Elastic Constant Matrix: (Units=GPa)
#
#
# Indices 1 2 3 4 5 6 
#
# 1 13.8898 6.6363 -0.4137 0.0000 0.0000 0.0000
# 2 6.6363 127.0696 43.9136 0.0000 0.0000 0.0000
# 3 -0.4137 43.9136 56.8613 0.0000 0.0000 0.0000
# 4 0.0000 0.0000 0.0000 18.4168 0.0000 0.0000
# 5 0.0000 0.0000 0.0000 0.0000 23.8529 0.0000
# 6 0.0000 0.0000 0.0000 0.0000 0.0000 20.1384
#
#
#
# Elastic Compliance Matrix: (Units=1/GPa)
#
#
# Indices 1 2 3 4 5 6 
#
# 1 0.074809 -0.005586 0.004858 0.000000 0.000000 0.000000
# 2 -0.005586 0.011152 -0.008653 0.000000 0.000000 0.000000
# 3 0.004858 -0.008653 0.024305 0.000000 0.000000 0.000000
# 4 0.000000 0.000000 0.000000 0.054298 0.000000 0.000000
# 5 0.000000 0.000000 0.000000 0.000000 0.041924 0.000000
# 6 0.000000 0.000000 0.000000 0.000000 0.000000 0.049656
#
#
# Mechanical properties :
#
#
# Convention : Reuss Voigt Hill
#
# Bulk Modulus (GPa) = 10.92855 33.12148 22.02502
# Shear Modulus (GPa) = 16.37164 22.32726 19.34945
#
# Velocity S-wave (km/s) = 3.02344 3.53079 3.28692
# Velocity P-wave (km/s) = 4.27671 5.92583 5.16748
#
# Compressibility (1/GPa) = 0.09150345
#
# Stress axis : x y z
#
# Youngs Moduli (GPa) = 13.36745 89.67131 41.14426
#
# Poissons Ratio (x) = 0.50089 -0.19989
# Poissons Ratio (y) = 0.07467 0.35603
# Poissons Ratio (z) = -0.06494 0.77594
#
# Static dielectric constant tensor:
#      x y z
#    x 1.627150 0.000000 0.000000 
#    y 0.000000 1.613120 0.000000 
#    z 0.000000 0.000000 1.644480 
# 
# From -- ./inp_files/59991.got.cif
#   From: 2010.05.17/outbox.cif.g08.bks.cpg/sg63_30_cif.got.tgz:59991.got - 2010.06.03 15:47:04.
