data_PCOD9468763
_publ_section_title
;
Structure prediction by ZEFSAII (Michael W. Deem and Ramdas Pophale) SiO2 
 PCOD9468763
Probable space group: C M C M
;
_chemical_formula_sum "Si O2"
_cell_formula_units_Z 64
_cell_length_a 10.640221
_cell_length_b 30.403175
_cell_length_c 9.075516
_cell_angle_alpha 90.000000
_cell_angle_beta 90.000000
_cell_angle_gamma 90.000000
_cell_volume 2935.897672
_symmetry_space_group_name_H-M "C M C M"
_symmetry_group_IT_number 63
_symmetry_cell_setting 'orthorhombic'
loop_
_space_group_symop_operation_xyz
x,y,z
-x,-y,1/2+z
x,-y,-z
-x,y,1/2-z
-x,-y,-z
x,y,1/2-z
-x,y,z
x,-y,1/2+z
1/2+x,1/2+y,z
1/2-x,1/2-y,1/2+z
1/2+x,1/2-y,-z
1/2-x,1/2+y,1/2-z
1/2-x,1/2-y,-z
1/2+x,1/2+y,1/2-z
1/2-x,1/2+y,z
1/2+x,1/2-y,1/2+z
loop_
_atom_site_type_symbol
_atom_site_label
_atom_site_fract_x
_atom_site_fract_y
_atom_site_fract_z
Si Si1 0.000000 0.640099 0.411698
Si Si2 0.500000 0.949392 0.033529
Si Si3 0.212555 0.046648 0.584629
Si Si4 0.216672 0.863209 0.571291
Si Si5 0.862549 0.776316 0.074269
O O1 0.862136 0.648162 0.476852
O O2 0.000000 0.660372 0.250000
O O3 0.000000 0.586562 0.405116
O O4 0.637325 0.944607 0.102058
O O5 0.500000 0.000000 0.000000
O O6 0.158803 0.045098 0.750000
O O7 0.173939 0.089216 0.489256
O O8 0.194233 0.000000 0.500000
O O9 0.213785 0.863096 0.750000
O O10 0.138737 0.824340 0.498951
O O11 0.844586 0.779239 0.250000
O O12 0.000000 0.755478 0.047400
O O13 0.750000 0.750000 0.000000
#
# Coordination Sequence:
#
# PCOD9468763 Si02
#       5
#     8   8  16  16  16
#     4   8  16  29  48  78 116 158 202 254 309 367
#     4   8  15  23  37  64 104 154 206 258 310 365
#     4  10  18  29  47  76 116 163 215 266 319 378
#     4  10  20  36  59  88 125 167 213 265 323 384
#     4  11  26  47  71 100 133 169 213 266 324 389
#
# _framework density 21.799123999999999
#
# number of rings (size 3 to 8) (size 9 to 14) (size 15 to 20)
#    0.000    2.250    0.000    2.625    1.750    8.000 
#    0.000    1.250    0.000    0.750    0.000    0.000 
#    0.000    0.000    0.000    0.000    0.000    0.000 
#
# Total GULP energy -178202.226782 kJ/mol
# GULP energy per Si atom -5568.819587 kJ/mol
# Density = 2.174951 g / cm^3
# Si number density = 21.799124 Si / 1000 Ang^3
#
#
#
# Elastic Constant Matrix: (Units=GPa)
#
#
# Indices 1 2 3 4 5 6 
#
# 1 101.9961 47.4478 47.7738 0.0000 0.0000 0.0000
# 2 47.4478 123.3105 57.2931 0.0000 0.0000 0.0000
# 3 47.7738 57.2931 135.7072 0.0000 0.0000 0.0000
# 4 0.0000 0.0000 0.0000 32.0006 0.0000 0.0000
# 5 0.0000 0.0000 0.0000 0.0000 8.1419 0.0000
# 6 0.0000 0.0000 0.0000 0.0000 0.0000 26.0626
#
#
#
# Elastic Compliance Matrix: (Units=1/GPa)
#
#
# Indices 1 2 3 4 5 6 
#
# 1 0.012875 -0.003543 -0.003037 0.000000 0.000000 0.000000
# 2 -0.003543 0.011064 -0.003424 0.000000 0.000000 0.000000
# 3 -0.003037 -0.003424 0.009883 0.000000 0.000000 0.000000
# 4 0.000000 0.000000 0.000000 0.031249 0.000000 0.000000
# 5 0.000000 0.000000 0.000000 0.000000 0.122822 0.000000
# 6 0.000000 0.000000 0.000000 0.000000 0.000000 0.038369
#
#
# Mechanical properties :
#
#
# Convention : Reuss Voigt Hill
#
# Bulk Modulus (GPa) = 72.38461 74.00481 73.19471
# Shear Modulus (GPa) = 19.93038 27.14095 23.53567
#
# Velocity S-wave (km/s) = 3.02698 3.53235 3.28938
# Velocity P-wave (km/s) = 6.74494 7.11751 6.93372
#
# Compressibility (1/GPa) = 0.01381509
#
# Stress axis : x y z
#
# Youngs Moduli (GPa) = 77.67100 90.38634 101.18252
#
# Poissons Ratio (x) = 0.32025 0.30724
# Poissons Ratio (y) = 0.27520 0.34640
# Poissons Ratio (z) = 0.23585 0.30944
#
# Static dielectric constant tensor:
#      x y z
#    x 1.885550 0.000000 0.000000 
#    y 0.000000 1.770700 0.000000 
#    z 0.000000 0.000000 1.798210 
# 
# From -- ./inp_files/3204.got.cif
#   From: 2010.05.17/outbox.cif.g08.bks.cpg/sg63_2_cif.got.tgz:3204.got - 2010.06.03 15:47:04.
