data_PCOD9468967
_publ_section_title
;
Structure prediction by ZEFSAII (Michael W. Deem and Ramdas Pophale) SiO2 
 PCOD9468967
Probable space group: C M C M
;
_chemical_formula_sum "Si O2"
_cell_formula_units_Z 128
_cell_length_a 23.825291
_cell_length_b 18.161416
_cell_length_c 18.755698
_cell_angle_alpha 90.000000
_cell_angle_beta 90.000000
_cell_angle_gamma 90.000000
_cell_volume 8115.609677
_symmetry_space_group_name_H-M "C M C M"
_symmetry_group_IT_number 63
_symmetry_cell_setting 'orthorhombic'
loop_
_space_group_symop_operation_xyz
x,y,z
-x,-y,1/2+z
x,-y,-z
-x,y,1/2-z
-x,-y,-z
x,y,1/2-z
-x,y,z
x,-y,1/2+z
1/2+x,1/2+y,z
1/2-x,1/2-y,1/2+z
1/2+x,1/2-y,-z
1/2-x,1/2+y,1/2-z
1/2-x,1/2-y,-z
1/2+x,1/2+y,1/2-z
1/2-x,1/2+y,z
1/2+x,1/2-y,1/2+z
loop_
_atom_site_type_symbol
_atom_site_label
_atom_site_fract_x
_atom_site_fract_y
_atom_site_fract_z
Si Si1 0.148293 0.461809 0.571948
Si Si2 0.218290 0.430096 0.332158
Si Si3 0.823338 0.040030 0.166083
Si Si4 0.721753 0.305306 0.095801
Si Si5 0.757396 0.859376 0.941687
Si Si6 0.100054 0.197009 0.835618
Si Si7 0.434323 0.137961 0.334448
Si Si8 0.938565 0.037531 0.836740
O O1 0.126193 0.500000 0.500000
O O2 0.173292 0.525623 0.622092
O O3 0.202012 0.410466 0.552613
O O4 0.104194 0.413093 0.616107
O O5 0.201874 0.429458 0.250000
O O6 0.277559 0.474206 0.337983
O O7 0.230955 0.349341 0.361183
O O8 0.825555 0.062269 0.250000
O O9 0.799338 0.102580 0.114199
O O10 0.884075 0.009728 0.142776
O O11 0.738771 0.221005 0.084451
O O12 0.663322 0.307220 0.136869
O O13 0.716831 0.346393 0.019732
O O14 0.099902 0.194895 0.750000
O O15 0.074359 0.276137 0.855203
O O16 0.069140 0.122585 0.859738
O O17 0.418737 0.130687 0.250000
O O18 0.500000 0.119689 0.341068
O O19 0.937921 0.037474 0.750000
O O20 0.000000 0.010342 0.859799
#
# Coordination Sequence:
#
# PCOD9468967 Si02
#       8
#    16  16  16  16  16  16  16  16
#     4  11  20  35  52  73 104 135 167 205 252 303
#     4  10  19  31  50  76 103 131 165 202 247 301
#     4   9  18  31  47  72 100 130 167 207 247 291
#     4  11  19  33  50  73 101 135 166 198 249 303
#     4  10  22  33  49  72 100 137 167 205 249 302
#     4  10  18  30  50  77 105 130 161 203 249 301
#     4  10  21  36  54  76 101 131 169 212 256 300
#     4   9  16  28  48  73 100 131 165 200 241 289
#
# _framework density 15.772074999999999
#
# number of rings (size 3 to 8) (size 9 to 14) (size 15 to 20)
#    0.000    2.000    3.750    1.125    0.000    3.250 
#    0.000    0.000    0.000    2.250    0.000    0.875 
#    0.000    2.000    0.000    0.000    0.000    0.000 
#
# Total GULP energy -356795.057909 kJ/mol
# GULP energy per Si atom -5574.922780 kJ/mol
# Density = 1.573618 g / cm^3
# Si number density = 15.772075 Si / 1000 Ang^3
#
#
#
# Elastic Constant Matrix: (Units=GPa)
#
#
# Indices 1 2 3 4 5 6 
#
# 1 66.5745 22.1678 14.8770 0.0000 0.0000 0.0000
# 2 22.1678 60.8737 34.0708 0.0000 0.0000 0.0000
# 3 14.8770 34.0708 46.2429 0.0000 0.0000 0.0000
# 4 0.0000 0.0000 0.0000 27.4988 0.0000 0.0000
# 5 0.0000 0.0000 0.0000 0.0000 10.8535 0.0000
# 6 0.0000 0.0000 0.0000 0.0000 0.0000 11.3857
#
#
#
# Elastic Compliance Matrix: (Units=1/GPa)
#
#
# Indices 1 2 3 4 5 6 
#
# 1 0.017159 -0.005376 -0.001560 0.000000 0.000000 0.000000
# 2 -0.005376 0.029640 -0.020108 0.000000 0.000000 0.000000
# 3 -0.001560 -0.020108 0.036942 0.000000 0.000000 0.000000
# 4 0.000000 0.000000 0.000000 0.036365 0.000000 0.000000
# 5 0.000000 0.000000 0.000000 0.000000 0.092136 0.000000
# 6 0.000000 0.000000 0.000000 0.000000 0.000000 0.087829
#
#
# Mechanical properties :
#
#
# Convention : Reuss Voigt Hill
#
# Bulk Modulus (GPa) = 33.72287 35.10247 34.41267
# Shear Modulus (GPa) = 13.73460 16.78598 15.26029
#
# Velocity S-wave (km/s) = 2.95416 3.26588 3.11392
# Velocity P-wave (km/s) = 5.75012 6.04365 5.89871
#
# Compressibility (1/GPa) = 0.02965347
#
# Stress axis : x y z
#
# Youngs Moduli (GPa) = 58.27745 33.73847 27.06931
#
# Poissons Ratio (x) = 0.18137 0.04222
# Poissons Ratio (y) = 0.31329 0.54432
# Poissons Ratio (z) = 0.09089 0.67843
#
# Static dielectric constant tensor:
#      x y z
#    x 1.515080 0.000000 0.000000 
#    y 0.000000 1.525320 0.000000 
#    z 0.000000 0.000000 1.528060 
# 
# From -- ./inp_files/48443.got.cif
#   From: 2010.05.17/outbox.cif.g08.bks.cpg/sg63_25_cif.got.tgz:48443.got - 2010.06.03 15:47:04.
