data_PCOD9468891
_publ_section_title
;
Structure prediction by ZEFSAII (Michael W. Deem and Ramdas Pophale) SiO2 
 PCOD9468891
Probable space group: C M C M
;
_chemical_formula_sum "Si O2"
_cell_formula_units_Z 116
_cell_length_a 22.564583
_cell_length_b 8.807433
_cell_length_c 32.433034
_cell_angle_alpha 90.000000
_cell_angle_beta 90.000000
_cell_angle_gamma 90.000000
_cell_volume 6445.613162
_symmetry_space_group_name_H-M "C M C M"
_symmetry_group_IT_number 63
_symmetry_cell_setting 'orthorhombic'
loop_
_space_group_symop_operation_xyz
x,y,z
-x,-y,1/2+z
x,-y,-z
-x,y,1/2-z
-x,-y,-z
x,y,1/2-z
-x,y,z
x,-y,1/2+z
1/2+x,1/2+y,z
1/2-x,1/2-y,1/2+z
1/2+x,1/2-y,-z
1/2-x,1/2+y,1/2-z
1/2-x,1/2-y,-z
1/2+x,1/2+y,1/2-z
1/2-x,1/2+y,z
1/2+x,1/2-y,1/2+z
loop_
_atom_site_type_symbol
_atom_site_label
_atom_site_fract_x
_atom_site_fract_y
_atom_site_fract_z
Si Si1 0.570154 0.681592 0.844038
Si Si2 0.928352 0.332410 0.927692
Si Si3 0.715647 0.182374 0.798828
Si Si4 0.901435 0.163529 0.179480
Si Si5 0.830127 0.355234 0.700017
Si Si6 0.072265 0.171585 0.490004
Si Si7 0.500000 0.271957 0.750000
Si Si8 0.428215 0.170997 0.905702
O O1 0.500000 0.706270 0.838659
O O2 0.584737 0.710142 0.892088
O O3 0.585312 0.512761 0.829266
O O4 0.607683 0.802128 0.818061
O O5 0.907888 0.498051 0.913100
O O6 0.000000 0.341133 0.930306
O O7 0.907718 0.280253 0.972656
O O8 0.723481 0.162893 0.750000
O O9 0.665551 0.308874 0.805775
O O10 0.779143 0.238207 0.814428
O O11 0.690269 0.022107 0.814044
O O12 0.947798 0.220943 0.213783
O O13 0.908862 0.256069 0.137103
O O14 0.833511 0.354340 0.750000
O O15 0.090940 0.230448 0.445278
O O16 0.000000 0.173546 0.489910
O O17 0.090448 0.000000 0.500000
O O18 0.500000 0.170300 0.905119
#
# Coordination Sequence:
#
# PCOD9468891 Si02
#       8
#    16  16  16  16  16  16   4  16
#     4  11  22  35  53  79 113 146 182 226 279 330
#     4   9  18  31  47  71 106 140 177 222 274 328
#     4  10  21  39  57  77 101 140 186 236 276 331
#     4  12  22  36  54  78 110 149 190 226 279 332
#     4  10  22  38  57  78 103 138 187 233 282 326
#     4   9  16  27  46  71 101 138 176 216 271 331
#     4  12  24  36  52  78 116 152 190 230 282 336
#     4  10  18  30  48  73 104 141 180 225 271 329
#
# _framework density 17.996735999999999
#
# number of rings (size 3 to 8) (size 9 to 14) (size 15 to 20)
#    0.000    1.793    2.069    2.897    0.966    5.241 
#    1.241    0.000    0.000    0.828    0.000    0.966 
#    0.000    0.000    0.000    0.000    0.000    0.000 
#
# Total GULP energy -323061.996823 kJ/mol
# GULP energy per Si atom -5570.034428 kJ/mol
# Density = 1.795577 g / cm^3
# Si number density = 17.996736 Si / 1000 Ang^3
#
#
#
# Elastic Constant Matrix: (Units=GPa)
#
#
# Indices 1 2 3 4 5 6 
#
# 1 37.0480 21.8389 8.2677 0.0000 0.0000 0.0000
# 2 21.8389 77.7595 30.0729 0.0000 0.0000 0.0000
# 3 8.2677 30.0729 83.9914 0.0000 0.0000 0.0000
# 4 0.0000 0.0000 0.0000 24.8651 0.0000 0.0000
# 5 0.0000 0.0000 0.0000 0.0000 8.5291 0.0000
# 6 0.0000 0.0000 0.0000 0.0000 0.0000 13.0988
#
#
#
# Elastic Compliance Matrix: (Units=1/GPa)
#
#
# Indices 1 2 3 4 5 6 
#
# 1 0.032348 -0.009116 0.000080 0.000000 0.000000 0.000000
# 2 -0.009116 0.017496 -0.005367 0.000000 0.000000 0.000000
# 3 0.000080 -0.005367 0.013820 0.000000 0.000000 0.000000
# 4 0.000000 0.000000 0.000000 0.040217 0.000000 0.000000
# 5 0.000000 0.000000 0.000000 0.000000 0.117246 0.000000
# 6 0.000000 0.000000 0.000000 0.000000 0.000000 0.076343
#
#
# Mechanical properties :
#
#
# Convention : Reuss Voigt Hill
#
# Bulk Modulus (GPa) = 28.68838 35.46198 32.07518
# Shear Modulus (GPa) = 14.79749 18.53989 16.66869
#
# Velocity S-wave (km/s) = 2.87057 3.21313 3.04667
# Velocity P-wave (km/s) = 5.19253 5.78904 5.49888
#
# Compressibility (1/GPa) = 0.03485732
#
# Stress axis : x y z
#
# Youngs Moduli (GPa) = 30.91404 57.15575 72.35989
#
# Poissons Ratio (x) = 0.52102 -0.00577
# Poissons Ratio (y) = 0.28181 0.38836
# Poissons Ratio (z) = -0.00247 0.30676
#
# Static dielectric constant tensor:
#      x y z
#    x 1.603200 0.000000 0.000000 
#    y 0.000000 1.649880 0.000000 
#    z 0.000000 0.000000 1.612040 
# 
# From -- ./inp_files/74350.got.cif
#   From: 2010.05.17/outbox.cif.g08.bks.cpg/sg63_38_cif.got.tgz:74350.got - 2010.06.03 15:47:04.
