data_PCOD9468303
_publ_section_title
;
Structure prediction by ZEFSAII (Michael W. Deem and Ramdas Pophale) SiO2 
 PCOD9468303
Probable space group: C M C M
;
_chemical_formula_sum "Si O2"
_cell_formula_units_Z 80
_cell_length_a 23.964964
_cell_length_b 11.507337
_cell_length_c 16.041506
_cell_angle_alpha 90.000000
_cell_angle_beta 90.000000
_cell_angle_gamma 90.000000
_cell_volume 4423.812902
_symmetry_space_group_name_H-M "C M C M"
_symmetry_group_IT_number 63
_symmetry_cell_setting 'orthorhombic'
loop_
_space_group_symop_operation_xyz
x,y,z
-x,-y,1/2+z
x,-y,-z
-x,y,1/2-z
-x,-y,-z
x,y,1/2-z
-x,y,z
x,-y,1/2+z
1/2+x,1/2+y,z
1/2-x,1/2-y,1/2+z
1/2+x,1/2-y,-z
1/2-x,1/2+y,1/2-z
1/2-x,1/2-y,-z
1/2+x,1/2+y,1/2-z
1/2-x,1/2+y,z
1/2+x,1/2-y,1/2+z
loop_
_atom_site_type_symbol
_atom_site_label
_atom_site_fract_x
_atom_site_fract_y
_atom_site_fract_z
Si Si1 0.248932 0.058255 0.342771
Si Si2 0.842133 0.918640 0.420106
Si Si3 0.845069 0.736736 0.655742
Si Si4 0.308145 0.182802 0.484400
Si Si5 0.063010 0.073711 0.150645
O O1 0.273288 0.053404 0.250000
O O2 0.203281 0.163703 0.343120
O O3 0.292016 0.086728 0.416485
O O4 0.210428 0.945430 0.360104
O O5 0.845532 0.784688 0.443837
O O6 0.828840 0.000000 0.500000
O O7 0.899322 0.970410 0.385333
O O8 0.847266 0.687879 0.750000
O O9 0.832188 0.656769 0.576180
O O10 0.901817 0.808205 0.637565
O O11 0.250000 0.250000 0.500000
O O12 0.061033 0.058288 0.250000
O O13 0.000000 0.077650 0.117938
#
# Coordination Sequence:
#
# PCOD9468303 Si02
#       5
#    16  16  16  16  16
#     4   9  18  29  42  60  84 113 149 186 221 264
#     4  11  17  28  44  62  87 117 153 186 216 261
#     4   8  14  26  40  57  80 109 144 179 213 251
#     4  10  17  28  44  60  83 115 150 185 224 261
#     4   9  17  28  41  59  86 119 153 185 217 259
#
# _framework density 18.083946999999998
#
# number of rings (size 3 to 8) (size 9 to 14) (size 15 to 20)
#    0.000    2.600    6.000    1.800    0.000    2.000 
#    0.000    0.000    0.000    1.200    0.000    0.000 
#    0.000    0.000    0.000   64.800    0.000  255.200 
#
# Total GULP energy -222873.090657 kJ/mol
# GULP energy per Si atom -5571.827266 kJ/mol
# Density = 1.804279 g / cm^3
# Si number density = 18.083947 Si / 1000 Ang^3
#
#
#
# Elastic Constant Matrix: (Units=GPa)
#
#
# Indices 1 2 3 4 5 6 
#
# 1 92.9157 35.0845 52.8544 0.0000 0.0000 0.0000
# 2 35.0845 61.9652 34.1713 0.0000 0.0000 0.0000
# 3 52.8544 34.1713 135.0866 0.0000 0.0000 0.0000
# 4 0.0000 0.0000 0.0000 11.1560 0.0000 0.0000
# 5 0.0000 0.0000 0.0000 0.0000 22.5360 0.0000
# 6 0.0000 0.0000 0.0000 0.0000 0.0000 10.5577
#
#
#
# Elastic Compliance Matrix: (Units=1/GPa)
#
#
# Indices 1 2 3 4 5 6 
#
# 1 0.015775 -0.006424 -0.004547 0.000000 0.000000 0.000000
# 2 -0.006424 0.021370 -0.002892 0.000000 0.000000 0.000000
# 3 -0.004547 -0.002892 0.009913 0.000000 0.000000 0.000000
# 4 0.000000 0.000000 0.000000 0.089638 0.000000 0.000000
# 5 0.000000 0.000000 0.000000 0.000000 0.044373 0.000000
# 6 0.000000 0.000000 0.000000 0.000000 0.000000 0.094718
#
#
# Mechanical properties :
#
#
# Convention : Reuss Voigt Hill
#
# Bulk Modulus (GPa) = 51.72874 59.35418 55.54146
# Shear Modulus (GPa) = 16.13121 20.04043 18.08582
#
# Velocity S-wave (km/s) = 2.98991 3.33256 3.16587
# Velocity P-wave (km/s) = 6.37074 6.90657 6.64405
#
# Compressibility (1/GPa) = 0.01933161
#
# Stress axis : x y z
#
# Youngs Moduli (GPa) = 63.39276 46.79378 100.87387
#
# Poissons Ratio (x) = 0.30061 0.45868
# Poissons Ratio (y) = 0.40724 0.29176
# Poissons Ratio (z) = 0.28825 0.13534
#
# Static dielectric constant tensor:
#      x y z
#    x 1.637140 0.000000 0.000000 
#    y 0.000000 1.696560 0.000000 
#    z 0.000000 0.000000 1.716750 
# 
# From -- ./inp_files/36671.got.cif
#   From: 2010.05.17/outbox.cif.g08.bks.cpg/sg63_19_cif.got.tgz:36671.got - 2010.06.03 15:47:04.
