data_PCOD9468085
_publ_section_title
;
Structure prediction by ZEFSAII (Michael W. Deem and Ramdas Pophale) SiO2 
 PCOD9468085
Probable space group: C M C M
;
_chemical_formula_sum "Si O2"
_cell_formula_units_Z 64
_cell_length_a 25.378104
_cell_length_b 7.196313
_cell_length_c 15.425893
_cell_angle_alpha 90.000000
_cell_angle_beta 90.000000
_cell_angle_gamma 90.000000
_cell_volume 2817.212015
_symmetry_space_group_name_H-M "C M C M"
_symmetry_group_IT_number 63
_symmetry_cell_setting 'orthorhombic'
loop_
_space_group_symop_operation_xyz
x,y,z
-x,-y,1/2+z
x,-y,-z
-x,y,1/2-z
-x,-y,-z
x,y,1/2-z
-x,y,z
x,-y,1/2+z
1/2+x,1/2+y,z
1/2-x,1/2-y,1/2+z
1/2+x,1/2-y,-z
1/2-x,1/2+y,1/2-z
1/2-x,1/2-y,-z
1/2+x,1/2+y,1/2-z
1/2-x,1/2+y,z
1/2+x,1/2-y,1/2+z
loop_
_atom_site_type_symbol
_atom_site_label
_atom_site_fract_x
_atom_site_fract_y
_atom_site_fract_z
Si Si1 0.812145 0.720988 0.004677
Si Si2 0.890043 0.687470 0.349377
Si Si3 0.500000 0.704530 0.153005
Si Si4 0.500000 0.105957 0.408111
Si Si5 0.884060 0.764730 0.649425
O O1 0.843277 0.770158 0.092672
O O2 0.820309 0.500000 0.000000
O O3 0.750000 0.750000 0.000000
O O4 0.840127 0.810532 0.921211
O O5 0.889217 0.749286 0.250000
O O6 0.947017 0.719791 0.392730
O O7 0.885430 0.461658 0.348904
O O8 0.500000 0.626920 0.250000
O O9 0.558286 0.665760 0.117336
O O10 0.500000 0.930882 0.157163
O O11 0.500000 0.000000 0.500000
O O12 0.875443 0.820389 0.750000
#
# Coordination Sequence:
#
# PCOD9468085 Si02
#       5
#    16  16   8   8  16
#     4  10  20  32  45  63  88 119 154 188 221 263
#     4   9  16  26  41  64  92 119 146 183 229 276
#     4   8  12  20  36  60  86 107 129 167 219 267
#     4  10  14  20  38  64  94 119 140 173 228 283
#     4   8  14  25  42  64  89 112 138 178 228 271
#
# _framework density 22.717496000000001
#
# number of rings (size 3 to 8) (size 9 to 14) (size 15 to 20)
#    0.000    3.000    0.000    6.375    0.000    1.000 
#    0.000    0.000    0.000    0.000    0.000    3.500 
#    0.000    4.000    0.000    0.000    0.000    0.000 
#
# Total GULP energy -178513.329695 kJ/mol
# GULP energy per Si atom -5578.541553 kJ/mol
# Density = 2.266579 g / cm^3
# Si number density = 22.717496 Si / 1000 Ang^3
#
#
#
# Elastic Constant Matrix: (Units=GPa)
#
#
# Indices 1 2 3 4 5 6 
#
# 1 246.6039 -2.9813 136.9505 0.0000 0.0000 0.0000
# 2 -2.9813 91.1443 11.2195 0.0000 0.0000 0.0000
# 3 136.9505 11.2195 198.4012 0.0000 0.0000 0.0000
# 4 0.0000 0.0000 0.0000 -10.6060 0.0000 0.0000
# 5 0.0000 0.0000 0.0000 0.0000 19.7930 0.0000
# 6 0.0000 0.0000 0.0000 0.0000 0.0000 14.6627
#
#
#
# Elastic Compliance Matrix: (Units=1/GPa)
#
#
# Indices 1 2 3 4 5 6 
#
# 1 0.006631 0.000786 -0.004622 0.000000 0.000000 0.000000
# 2 0.000786 0.011142 -0.001172 0.000000 0.000000 0.000000
# 3 -0.004622 -0.001172 0.008297 0.000000 0.000000 0.000000
# 4 0.000000 0.000000 0.000000 -0.094286 0.000000 0.000000
# 5 0.000000 0.000000 0.000000 0.000000 0.050523 0.000000
# 6 0.000000 0.000000 0.000000 0.000000 0.000000 0.068200
#
#
# Mechanical properties :
#
#
# Convention : Reuss Voigt Hill
#
# Bulk Modulus (GPa) = 62.29409 91.83629 77.06519
# Shear Modulus (GPa) = 75.90165 30.83399 53.36782
#
# Velocity S-wave (km/s) = 5.78650 3.68812 4.85211
# Velocity P-wave (km/s) = 8.49268 7.65829 8.08625
#
# Compressibility (1/GPa) = 0.01605289
#
# Stress axis : x y z
#
# Youngs Moduli (GPa) = 150.79996 89.75329 120.52678
#
# Poissons Ratio (x) = -0.07053 0.55705
# Poissons Ratio (y) = -0.11850 0.14132
# Poissons Ratio (z) = 0.69697 0.10524
#
# Static dielectric constant tensor:
#      x y z
#    x 1.856700 0.000000 0.000000 
#    y 0.000000 1.948260 0.000000 
#    z 0.000000 0.000000 1.854840 
# 
# From -- ./inp_files/35058.got.cif
#   From: 2010.05.17/outbox.cif.g08.bks.cpg/sg63_18_cif.got.tgz:35058.got - 2010.06.03 15:47:04.
