data_PCOD9468215
_publ_section_title
;
Structure prediction by ZEFSAII (Michael W. Deem and Ramdas Pophale) SiO2 
 PCOD9468215
Probable space group: C M C M
;
_chemical_formula_sum "Si O2"
_cell_formula_units_Z 80
_cell_length_a 26.369292
_cell_length_b 10.296037
_cell_length_c 16.968108
_cell_angle_alpha 90.000000
_cell_angle_beta 90.000000
_cell_angle_gamma 90.000000
_cell_volume 4606.827851
_symmetry_space_group_name_H-M "C M C M"
_symmetry_group_IT_number 63
_symmetry_cell_setting 'orthorhombic'
loop_
_space_group_symop_operation_xyz
x,y,z
-x,-y,1/2+z
x,-y,-z
-x,y,1/2-z
-x,-y,-z
x,y,1/2-z
-x,y,z
x,-y,1/2+z
1/2+x,1/2+y,z
1/2-x,1/2-y,1/2+z
1/2+x,1/2-y,-z
1/2-x,1/2+y,1/2-z
1/2-x,1/2-y,-z
1/2+x,1/2+y,1/2-z
1/2-x,1/2+y,z
1/2+x,1/2-y,1/2+z
loop_
_atom_site_type_symbol
_atom_site_label
_atom_site_fract_x
_atom_site_fract_y
_atom_site_fract_z
Si Si1 0.286961 0.504296 0.905614
Si Si2 0.500000 0.128372 0.551890
Si Si3 0.292346 0.213679 0.655923
Si Si4 0.000000 0.122990 0.939176
Si Si5 0.409132 0.779233 0.156123
Si Si6 0.599385 0.488174 0.095146
O O1 0.279323 0.357285 0.875671
O O2 0.245315 0.604652 0.875692
O O3 0.343768 0.546579 0.878283
O O4 0.285397 0.500000 0.000000
O O5 0.500000 0.249611 0.491829
O O6 0.549386 0.142260 0.607082
O O7 0.500000 0.000000 0.500000
O O8 0.289596 0.217412 0.750000
O O9 0.351136 0.185401 0.634716
O O10 0.052177 0.107424 0.890967
O O11 0.000000 0.000000 0.000000
O O12 0.416119 0.793143 0.250000
O O13 0.414299 0.627558 0.132052
O O14 0.603719 0.500000 0.000000
#
# Coordination Sequence:
#
# PCOD9468215 Si02
#       6
#    16   8  16   8  16  16
#     4  10  20  34  55  84 112 143 188 235 273 322
#     4  12  23  36  56  89 110 148 181 228 280 334
#     4  10  21  37  56  80 114 150 186 226 281 335
#     4  10  16  34  61  79 112 136 177 221 279 321
#     4  10  20  36  58  83 110 150 191 225 269 342
#     4   9  16  32  60  85 109 137 186 233 271 323
#
# _framework density 17.365528000000001
#
# number of rings (size 3 to 8) (size 9 to 14) (size 15 to 20)
#    0.000    2.000    4.000    1.500    0.000    1.600 
#    3.600    0.000    0.000    2.400    0.000    0.000 
#    0.000    0.000    0.000    0.000    0.000    0.000 
#
# Total GULP energy -223006.685130 kJ/mol
# GULP energy per Si atom -5575.167128 kJ/mol
# Density = 1.732600 g / cm^3
# Si number density = 17.365528 Si / 1000 Ang^3
#
#
#
# Elastic Constant Matrix: (Units=GPa)
#
#
# Indices 1 2 3 4 5 6 
#
# 1 170.9738 95.4112 65.2534 0.0000 0.0000 0.0000
# 2 95.4112 106.6668 51.4753 0.0000 0.0000 0.0000
# 3 65.2534 51.4753 60.4369 0.0000 0.0000 0.0000
# 4 0.0000 0.0000 0.0000 26.5926 0.0000 0.0000
# 5 0.0000 0.0000 0.0000 0.0000 45.1689 0.0000
# 6 0.0000 0.0000 0.0000 0.0000 0.0000 29.6612
#
#
#
# Elastic Compliance Matrix: (Units=1/GPa)
#
#
# Indices 1 2 3 4 5 6 
#
# 1 0.013287 -0.008424 -0.007170 0.000000 0.000000 0.000000
# 2 -0.008424 0.021259 -0.009011 0.000000 0.000000 0.000000
# 3 -0.007170 -0.009011 0.031963 0.000000 0.000000 0.000000
# 4 0.000000 0.000000 0.000000 0.037604 0.000000 0.000000
# 5 0.000000 0.000000 0.000000 0.000000 0.022139 0.000000
# 6 0.000000 0.000000 0.000000 0.000000 0.000000 0.033714
#
#
# Mechanical properties :
#
#
# Convention : Reuss Voigt Hill
#
# Bulk Modulus (GPa) = 57.81321 84.70639 71.25980
# Shear Modulus (GPa) = 23.26203 28.68038 25.97121
#
# Velocity S-wave (km/s) = 3.66396 4.06836 3.87144
# Velocity P-wave (km/s) = 7.15987 8.42337 7.81719
#
# Compressibility (1/GPa) = 0.01729709
#
# Stress axis : x y z
#
# Youngs Moduli (GPa) = 75.26358 47.03918 31.28655
#
# Poissons Ratio (x) = 0.39628 0.22433
# Poissons Ratio (y) = 0.63405 0.28192
# Poissons Ratio (z) = 0.53966 0.42386
#
# Static dielectric constant tensor:
#      x y z
#    x 1.654620 0.000000 0.000000 
#    y 0.000000 1.538640 0.000000 
#    z 0.000000 0.000000 1.582610 
# 
# From -- ./inp_files/48844.got.cif
#   From: 2010.05.17/outbox.cif.g08.bks.cpg/sg63_25_cif.got.tgz:48844.got - 2010.06.03 15:47:04.
