data_PCOD9468746
_publ_section_title
;
Structure prediction by ZEFSAII (Michael W. Deem and Ramdas Pophale) SiO2 
 PCOD9468746
Probable space group: C M C M
;
_chemical_formula_sum "Si O2"
_cell_formula_units_Z 96
_cell_length_a 7.362193
_cell_length_b 24.944944
_cell_length_c 22.811307
_cell_angle_alpha 90.000000
_cell_angle_beta 90.000000
_cell_angle_gamma 90.000000
_cell_volume 4189.284945
_symmetry_space_group_name_H-M "C M C M"
_symmetry_group_IT_number 63
_symmetry_cell_setting 'orthorhombic'
loop_
_space_group_symop_operation_xyz
x,y,z
-x,-y,1/2+z
x,-y,-z
-x,y,1/2-z
-x,-y,-z
x,y,1/2-z
-x,y,z
x,-y,1/2+z
1/2+x,1/2+y,z
1/2-x,1/2-y,1/2+z
1/2+x,1/2-y,-z
1/2-x,1/2+y,1/2-z
1/2-x,1/2-y,-z
1/2+x,1/2+y,1/2-z
1/2-x,1/2+y,z
1/2+x,1/2-y,1/2+z
loop_
_atom_site_type_symbol
_atom_site_label
_atom_site_fract_x
_atom_site_fract_y
_atom_site_fract_z
Si Si1 0.719137 0.817887 0.343291
Si Si2 0.713972 0.803134 0.687934
Si Si3 0.216532 0.308993 0.025195
Si Si4 0.278322 0.124456 0.082354
Si Si5 0.721515 0.936877 0.185022
Si Si6 0.720656 0.003307 0.069237
O O1 0.500000 0.818991 0.342336
O O2 0.768941 0.760836 0.316349
O O3 0.787751 0.815224 0.409856
O O4 0.776944 0.874319 0.316636
O O5 0.791716 0.821111 0.750000
O O6 0.500000 0.814948 0.688377
O O7 0.787259 0.834857 0.632241
O O8 0.000000 0.315863 0.029298
O O9 0.250000 0.250000 0.000000
O O10 0.284872 0.352836 0.979823
O O11 0.500000 0.126185 0.081356
O O12 0.229395 0.063020 0.090106
O O13 0.775684 0.958853 0.250000
O O14 0.500000 0.939291 0.184110
O O15 0.779345 0.964153 0.122957
O O16 0.500000 0.997967 0.066854
O O17 0.778661 0.000000 0.000000
#
# Coordination Sequence:
#
# PCOD9468746 Si02
#       6
#    16  16  16  16  16  16
#     4  10  19  31  49  72  98 127 160 200 242 287
#     4  10  20  32  46  67  97 131 162 193 235 287
#     4  10  18  29  47  70  96 125 156 192 237 286
#     4   9  17  29  44  65  95 125 156 195 237 284
#     4   9  17  28  43  66  95 125 159 201 246 288
#     4   9  16  27  44  65  91 124 159 197 242 290
#
# _framework density 22.915603999999998
#
# number of rings (size 3 to 8) (size 9 to 14) (size 15 to 20)
#    0.000    2.500    1.667    1.500    0.000    5.667 
#    0.000    3.333    0.000    0.000    0.000    2.333 
#    0.000    6.000    0.000    0.000    0.000    0.000 
#
# Total GULP energy -267838.449887 kJ/mol
# GULP energy per Si atom -5579.967706 kJ/mol
# Density = 2.286345 g / cm^3
# Si number density = 22.915604 Si / 1000 Ang^3
#
#
#
# Elastic Constant Matrix: (Units=GPa)
#
#
# Indices 1 2 3 4 5 6 
#
# 1 82.6132 -11.1185 3.2253 0.0000 0.0000 0.0000
# 2 -11.1185 100.3092 58.2715 0.0000 0.0000 0.0000
# 3 3.2253 58.2715 200.7965 0.0000 0.0000 0.0000
# 4 0.0000 0.0000 0.0000 14.3801 0.0000 0.0000
# 5 0.0000 0.0000 0.0000 0.0000 -5.8398 0.0000
# 6 0.0000 0.0000 0.0000 0.0000 0.0000 10.4385
#
#
#
# Elastic Compliance Matrix: (Units=1/GPa)
#
#
# Indices 1 2 3 4 5 6 
#
# 1 0.012373 0.001788 -0.000718 0.000000 0.000000 0.000000
# 2 0.001788 0.012249 -0.003583 0.000000 0.000000 0.000000
# 3 -0.000718 -0.003583 0.006032 0.000000 0.000000 0.000000
# 4 0.000000 0.000000 0.000000 0.069541 0.000000 0.000000
# 5 0.000000 0.000000 0.000000 0.000000 -0.171240 0.000000
# 6 0.000000 0.000000 0.000000 0.000000 0.000000 0.095799
#
#
# Mechanical properties :
#
#
# Convention : Reuss Voigt Hill
#
# Bulk Modulus (GPa) = 39.01899 53.83060 46.42480
# Shear Modulus (GPa) = 130.47126 26.01847 78.24487
#
# Velocity S-wave (km/s) = 7.55375 3.37323 5.84969
# Velocity P-wave (km/s) = 9.65107 6.22201 8.11962
#
# Compressibility (1/GPa) = 0.02562854
#
# Stress axis : x y z
#
# Youngs Moduli (GPa) = 80.81901 81.63870 165.79314
#
# Poissons Ratio (x) = -0.14601 0.11900
# Poissons Ratio (y) = -0.14454 0.59411
# Poissons Ratio (z) = 0.05801 0.29255
#
# Static dielectric constant tensor:
#      x y z
#    x 1.750210 0.000000 0.000000 
#    y 0.000000 1.793520 0.000000 
#    z 0.000000 0.000000 1.871220 
# 
# From -- ./inp_files/51419.got.cif
#   From: 2010.05.17/outbox.cif.g08.bks.cpg/sg63_26_cif.got.tgz:51419.got - 2010.06.03 15:47:04.
