data_PCOD9468049
_publ_section_title
;
Structure prediction by ZEFSAII (Michael W. Deem and Ramdas Pophale) SiO2 
 PCOD9468049
Probable space group: P N M A
;
_chemical_formula_sum "Si O2"
_cell_formula_units_Z 64
_cell_length_a 12.000000
_cell_length_b 9.000000
_cell_length_c 30.000000
_cell_angle_alpha 90.000000
_cell_angle_beta 90.000000
_cell_angle_gamma 90.000000
_cell_volume 3240.000000
_symmetry_space_group_name_H-M "P N M A"
_symmetry_group_IT_number 62
_symmetry_cell_setting 'orthorhombic'
loop_
_space_group_symop_operation_xyz
x,y,z
1/2-x,-y,1/2+z
1/2+x,1/2-y,1/2-z
-x,1/2+y,-z
-x,-y,-z
1/2+x,y,1/2-z
1/2-x,1/2+y,1/2+z
x,1/2-y,z
loop_
_atom_site_type_symbol
_atom_site_label
_atom_site_fract_x
_atom_site_fract_y
_atom_site_fract_z
Si Si1 0.815365 0.079489 0.854026
Si Si2 0.872161 0.931205 0.576390
Si Si3 0.529100 0.921613 0.439230
Si Si4 0.043580 0.420278 0.287620
Si Si5 0.326596 0.428454 0.477472
Si Si6 0.410767 0.079160 0.119030
Si Si7 0.233804 0.571681 0.834877
Si Si8 0.012502 0.427090 0.797988
O O1 0.785404 0.250000 0.843806
O O2 0.906652 0.077228 0.893253
O O3 0.890088 0.016003 0.813865
O O4 0.704759 0.000965 0.871246
O O5 0.879599 0.750000 0.576600
O O6 0.797869 0.979776 0.534337
O O7 0.998597 0.984955 0.583797
O O8 0.794303 0.971093 0.618815
O O9 0.499896 0.750000 0.449931
O O10 0.617591 0.977192 0.476259
O O11 0.417453 0.016891 0.441621
O O12 0.040025 0.250000 0.270977
O O13 0.980357 0.421380 0.334849
O O14 0.171856 0.461783 0.297619
O O15 0.982102 0.526281 0.253311
O O16 0.323539 0.250000 0.477530
O O17 0.386382 0.250000 0.107073
O O18 0.218604 0.750000 0.835829
O O19 0.116992 0.495328 0.824232
O O20 0.013972 0.250000 0.803902
#
# Coordination Sequence:
#
# PCOD9468049 Si02
#       8
#     8   8   8   8   8   8   8   8
#     4  10  22  37  49  70 107 143 169 200 250 308
#     4   8  15  31  54  78  99 124 166 215 257 294
#     4   9  18  32  49  74 109 141 167 204 253 302
#     4   9  20  37  54  73  96 125 165 210 255 298
#     4   9  16  29  54  80 102 132 170 212 255 299
#     4   9  19  36  56  74  96 130 170 213 254 297
#     4   9  18  34  54  74  98 125 160 209 255 299
#     4  11  23  34  49  73 101 132 165 205 250 300
#
# _framework density 19.753086
#
# number of rings (size 3 to 8) (size 9 to 14) (size 15 to 20)
#    0.000    2.750    0.000    2.625    1.750    2.500 
#    0.000    3.125    0.000    0.000    0.000    0.000 
#    0.000    0.000    0.000    0.000    0.000    0.000 
#
# Total GULP energy -356506.772767 kJ/mol
# GULP energy per Si atom -5570.418324 kJ/mol
# Density = 1.970813 g / cm^3
# Si number density = 19.753086 Si / 1000 Ang^3
#
#
#
# Elastic Constant Matrix: (Units=GPa)
#
#
# Indices 1 2 3 4 5 6 
#
# 1 47.1863 6.8620 -24.3360 0.0000 0.0000 0.0000
# 2 6.8620 8.9124 -6.9169 0.0000 0.0000 0.0000
# 3 -24.3360 -6.9169 9.4871 0.0000 0.0000 0.0000
# 4 0.0000 0.0000 0.0000 11.7368 0.0000 0.0000
# 5 0.0000 0.0000 0.0000 0.0000 16.1406 0.0000
# 6 0.0000 0.0000 0.0000 0.0000 0.0000 25.0654
#
#
#
# Elastic Compliance Matrix: (Units=1/GPa)
#
#
# Indices 1 2 3 4 5 6 
#
# 1 -0.021815 -0.061348 -0.100689 0.000000 0.000000 0.000000
# 2 -0.061348 0.085922 -0.094724 0.000000 0.000000 0.000000
# 3 -0.100689 -0.094724 -0.221939 0.000000 0.000000 0.000000
# 4 0.000000 0.000000 0.000000 0.085202 0.000000 0.000000
# 5 0.000000 0.000000 0.000000 0.000000 0.061955 0.000000
# 6 0.000000 0.000000 0.000000 0.000000 0.000000 0.039896
#
#
# Mechanical properties :
#
#
# Convention : Reuss Voigt Hill
#
# Bulk Modulus (GPa) = -1.48953 1.86710 0.18879
# Shear Modulus (GPa) = 15.67605 16.58702 16.13153
#
# Velocity S-wave (km/s) = 2.82015 2.90093 2.86082
# Velocity P-wave (km/s) = 3.13825 3.48824 3.31786
#
# Compressibility (1/GPa) = -0.67135418
#
# Stress axis : x y z
#
# Youngs Moduli (GPa) = -45.83933 11.63841 -4.50574
#
# Poissons Ratio (x) = 0.71400 -0.45368
# Poissons Ratio (y) = -2.81217 -0.42680
# Poissons Ratio (z) = -4.61549 1.10244
#
# Static dielectric constant tensor:
#      x y z
#    x 1.695860 0.000000 0.000000 
#    y 0.000000 1.688250 0.000000 
#    z 0.000000 0.000000 1.770170 
# 
# From -- ./inp_files/32483.got.cif
#   From: 2010.05.17/outbox.ucp.g08.bks.cvg/sg62_17_cif.got.tgz:32483.got - 2010.06.11 16:29:25.
