data_PCOD9468695
_publ_section_title
;
Structure prediction by ZEFSAII (Michael W. Deem and Ramdas Pophale) SiO2 
 PCOD9468695
Probable space group: C M C M
;
_chemical_formula_sum "Si O2"
_cell_formula_units_Z 80
_cell_length_a 21.899797
_cell_length_b 16.418014
_cell_length_c 14.566310
_cell_angle_alpha 90.000000
_cell_angle_beta 90.000000
_cell_angle_gamma 90.000000
_cell_volume 5237.333858
_symmetry_space_group_name_H-M "C M C M"
_symmetry_group_IT_number 63
_symmetry_cell_setting 'orthorhombic'
loop_
_space_group_symop_operation_xyz
x,y,z
-x,-y,1/2+z
x,-y,-z
-x,y,1/2-z
-x,-y,-z
x,y,1/2-z
-x,y,z
x,-y,1/2+z
1/2+x,1/2+y,z
1/2-x,1/2-y,1/2+z
1/2+x,1/2-y,-z
1/2-x,1/2+y,1/2-z
1/2-x,1/2-y,-z
1/2+x,1/2+y,1/2-z
1/2-x,1/2+y,z
1/2+x,1/2-y,1/2+z
loop_
_atom_site_type_symbol
_atom_site_label
_atom_site_fract_x
_atom_site_fract_y
_atom_site_fract_z
Si Si1 0.571403 0.112796 0.359557
Si Si2 0.796439 0.865274 0.523916
Si Si3 0.859839 0.551982 0.643606
Si Si4 0.284378 0.480934 0.143584
Si Si5 0.343097 0.191137 0.000494
O O1 0.579528 0.121988 0.250000
O O2 0.500000 0.119063 0.381069
O O3 0.611780 0.177062 0.414884
O O4 0.597139 0.023003 0.383843
O O5 0.805533 0.909937 0.425677
O O6 0.725393 0.837665 0.527689
O O7 0.836568 0.784327 0.530412
O O8 0.806058 0.933303 0.601651
O O9 0.871773 0.572119 0.750000
O O10 0.789690 0.521086 0.637052
O O11 0.864912 0.630368 0.579590
O O12 0.300878 0.469593 0.250000
#
# Coordination Sequence:
#
# PCOD9468695 Si02
#       5
#    16  16  16  16  16
#     4  10  20  32  47  67  92 128 166 191 222 271
#     4   9  18  28  43  68  91 119 154 186 236 290
#     4   9  17  29  43  62  90 122 156 190 226 271
#     4   9  16  29  45  62  90 122 150 187 233 280
#     4  10  18  29  44  65  94 120 151 196 235 271
#
# _framework density 15.274948
#
# number of rings (size 3 to 8) (size 9 to 14) (size 15 to 20)
#    0.000    2.600    2.000    0.600    0.000    3.200 
#    0.000    4.000    0.000    0.000    0.000    2.800 
#    0.000    1.600    0.000    0.000    0.000    0.000 
#
# Total GULP energy -222913.982171 kJ/mol
# GULP energy per Si atom -5572.849554 kJ/mol
# Density = 1.524018 g / cm^3
# Si number density = 15.274948 Si / 1000 Ang^3
#
#
#
# Elastic Constant Matrix: (Units=GPa)
#
#
# Indices 1 2 3 4 5 6 
#
# 1 40.8194 30.7312 27.3534 0.0000 0.0000 0.0000
# 2 30.7312 85.4611 35.4343 0.0000 0.0000 0.0000
# 3 27.3534 35.4343 75.5516 0.0000 0.0000 0.0000
# 4 0.0000 0.0000 0.0000 11.3556 0.0000 0.0000
# 5 0.0000 0.0000 0.0000 0.0000 17.7767 0.0000
# 6 0.0000 0.0000 0.0000 0.0000 0.0000 9.4691
#
#
#
# Elastic Compliance Matrix: (Units=1/GPa)
#
#
# Indices 1 2 3 4 5 6 
#
# 1 0.038080 -0.009903 -0.009142 0.000000 0.000000 0.000000
# 2 -0.009903 0.017101 -0.004435 0.000000 0.000000 0.000000
# 3 -0.009142 -0.004435 0.018626 0.000000 0.000000 0.000000
# 4 0.000000 0.000000 0.000000 0.088062 0.000000 0.000000
# 5 0.000000 0.000000 0.000000 0.000000 0.056253 0.000000
# 6 0.000000 0.000000 0.000000 0.000000 0.000000 0.105606
#
#
# Mechanical properties :
#
#
# Convention : Reuss Voigt Hill
#
# Bulk Modulus (GPa) = 37.24878 43.20777 40.22827
# Shear Modulus (GPa) = 13.17043 14.94117 14.05580
#
# Velocity S-wave (km/s) = 2.93955 3.13093 3.03675
# Velocity P-wave (km/s) = 5.99665 6.43571 6.22005
#
# Compressibility (1/GPa) = 0.02684652
#
# Stress axis : x y z
#
# Youngs Moduli (GPa) = 26.26065 58.47571 53.68787
#
# Poissons Ratio (x) = 0.57906 0.49084
# Poissons Ratio (y) = 0.26005 0.23812
# Poissons Ratio (z) = 0.24009 0.25936
#
# Static dielectric constant tensor:
#      x y z
#    x 1.482350 0.000000 0.000000 
#    y 0.000000 1.497710 0.000000 
#    z 0.000000 0.000000 1.527510 
# 
# From -- ./inp_files/33851.got.cif
#   From: 2010.05.17/outbox.cif.g08.bks.cpg/sg63_17_cif.got.tgz:33851.got - 2010.06.03 15:47:04.
