data_PCOD9468331
_publ_section_title
;
Structure prediction by ZEFSAII (Michael W. Deem and Ramdas Pophale) SiO2 
 PCOD9468331
Probable space group: C M C M
;
_chemical_formula_sum "Si O2"
_cell_formula_units_Z 104
_cell_length_a 20.132572
_cell_length_b 22.307231
_cell_length_c 14.354840
_cell_angle_alpha 90.000000
_cell_angle_beta 90.000000
_cell_angle_gamma 90.000000
_cell_volume 6446.786410
_symmetry_space_group_name_H-M "C M C M"
_symmetry_group_IT_number 63
_symmetry_cell_setting 'orthorhombic'
loop_
_space_group_symop_operation_xyz
x,y,z
-x,-y,1/2+z
x,-y,-z
-x,y,1/2-z
-x,-y,-z
x,y,1/2-z
-x,y,z
x,-y,1/2+z
1/2+x,1/2+y,z
1/2-x,1/2-y,1/2+z
1/2+x,1/2-y,-z
1/2-x,1/2+y,1/2-z
1/2-x,1/2-y,-z
1/2+x,1/2+y,1/2-z
1/2-x,1/2+y,z
1/2+x,1/2-y,1/2+z
loop_
_atom_site_type_symbol
_atom_site_label
_atom_site_fract_x
_atom_site_fract_y
_atom_site_fract_z
Si Si1 0.500000 0.164501 0.856984
Si Si2 0.761102 0.182636 0.963461
Si Si3 0.000000 0.588470 0.135744
Si Si4 0.645794 0.889479 0.138882
Si Si5 0.366304 0.977100 0.860836
Si Si6 0.773609 0.636447 0.144688
Si Si7 0.868104 0.754332 0.356785
Si Si8 0.000000 0.720826 0.044762
O O1 0.500000 0.185024 0.750000
O O2 0.568268 0.127810 0.871653
O O3 0.500000 0.215520 0.934043
O O4 0.695769 0.154122 0.916043
O O5 0.819614 0.192560 0.889945
O O6 0.750000 0.250000 0.000000
O O7 0.775187 0.146318 0.058171
O O8 0.935157 0.551528 0.105921
O O9 0.000000 0.653584 0.088985
O O10 0.000000 0.595799 0.250000
O O11 0.661035 0.885765 0.250000
O O12 0.652818 0.957610 0.102407
O O13 0.377230 0.987321 0.750000
O O14 0.310905 0.926260 0.868549
O O15 0.746200 0.639663 0.250000
O O16 0.828288 0.690449 0.138143
O O17 0.887747 0.761782 0.250000
O O18 0.932908 0.750794 0.419605
#
# Coordination Sequence:
#
# PCOD9468331 Si02
#       8
#     8  16   8  16  16  16  16   8
#     4  10  21  34  44  62  98 140 175 206 236 283
#     4  10  20  33  47  66  91 128 171 211 249 300
#     4  10  17  28  48  72 102 132 163 205 252 290
#     4  10  20  34  49  67  98 136 173 209 250 297
#     4   9  17  29  46  70  99 131 166 206 248 296
#     4   9  17  30  46  68  95 125 161 204 244 290
#     4  10  19  32  51  72  95 122 160 211 264 301
#     4  12  20  32  51  74  96 127 172 218 250 300
#
# _framework density 16.132069000000001
#
# number of rings (size 3 to 8) (size 9 to 14) (size 15 to 20)
#    0.000    2.154    1.538    3.462    0.000    3.077 
#    0.000    1.538    0.000    0.000    0.000    0.000 
#    0.000    2.462    0.000    5.923    0.000   21.000 
#
# Total GULP energy -289905.244664 kJ/mol
# GULP energy per Si atom -5575.100859 kJ/mol
# Density = 1.609535 g / cm^3
# Si number density = 16.132069 Si / 1000 Ang^3
#
#
#
# Elastic Constant Matrix: (Units=GPa)
#
#
# Indices 1 2 3 4 5 6 
#
# 1 51.8515 45.0377 27.6649 0.0000 0.0000 0.0000
# 2 45.0377 65.5441 29.7106 0.0000 0.0000 0.0000
# 3 27.6649 29.7106 87.0054 0.0000 0.0000 0.0000
# 4 0.0000 0.0000 0.0000 23.2071 0.0000 0.0000
# 5 0.0000 0.0000 0.0000 0.0000 22.7095 0.0000
# 6 0.0000 0.0000 0.0000 0.0000 0.0000 8.7703
#
#
#
# Elastic Compliance Matrix: (Units=1/GPa)
#
#
# Indices 1 2 3 4 5 6 
#
# 1 0.049530 -0.031820 -0.004883 0.000000 0.000000 0.000000
# 2 -0.031820 0.038494 -0.003027 0.000000 0.000000 0.000000
# 3 -0.004883 -0.003027 0.014080 0.000000 0.000000 0.000000
# 4 0.000000 0.000000 0.000000 0.043090 0.000000 0.000000
# 5 0.000000 0.000000 0.000000 0.000000 0.044034 0.000000
# 6 0.000000 0.000000 0.000000 0.000000 0.000000 0.114021
#
#
# Mechanical properties :
#
#
# Convention : Reuss Voigt Hill
#
# Bulk Modulus (GPa) = 44.16373 45.46973 44.81673
# Shear Modulus (GPa) = 12.81205 17.73656 15.27431
#
# Velocity S-wave (km/s) = 2.82121 3.31941 3.08040
# Velocity P-wave (km/s) = 6.16831 6.55274 6.36343
#
# Compressibility (1/GPa) = 0.02264301
#
# Stress axis : x y z
#
# Youngs Moduli (GPa) = 20.18980 25.97809 71.02359
#
# Poissons Ratio (x) = 0.82663 0.34680
# Poissons Ratio (y) = 0.64245 0.21499
# Poissons Ratio (z) = 0.09859 0.07864
#
# Static dielectric constant tensor:
#      x y z
#    x 1.523230 0.000000 0.000000 
#    y 0.000000 1.535330 0.000000 
#    z 0.000000 0.000000 1.623620 
# 
# From -- ./inp_files/34373.got.cif
#   From: 2010.05.17/outbox.cif.g08.bks.cpg/sg63_18_cif.got.tgz:34373.got - 2010.06.03 15:47:04.
