data_PCOD9468582
_publ_section_title
;
Structure prediction by ZEFSAII (Michael W. Deem and Ramdas Pophale) SiO2 
 PCOD9468582
Probable space group: C M C M
;
_chemical_formula_sum "Si O2"
_cell_formula_units_Z 96
_cell_length_a 7.691233
_cell_length_b 25.053771
_cell_length_c 26.534292
_cell_angle_alpha 90.000000
_cell_angle_beta 90.000000
_cell_angle_gamma 90.000000
_cell_volume 5113.009219
_symmetry_space_group_name_H-M "C M C M"
_symmetry_group_IT_number 63
_symmetry_cell_setting 'orthorhombic'
loop_
_space_group_symop_operation_xyz
x,y,z
-x,-y,1/2+z
x,-y,-z
-x,y,1/2-z
-x,-y,-z
x,y,1/2-z
-x,y,z
x,-y,1/2+z
1/2+x,1/2+y,z
1/2-x,1/2-y,1/2+z
1/2+x,1/2-y,-z
1/2-x,1/2+y,1/2-z
1/2-x,1/2-y,-z
1/2+x,1/2+y,1/2-z
1/2-x,1/2+y,z
1/2+x,1/2-y,1/2+z
loop_
_atom_site_type_symbol
_atom_site_label
_atom_site_fract_x
_atom_site_fract_y
_atom_site_fract_z
Si Si1 0.705820 0.421292 0.029862
Si Si2 0.292493 0.081708 0.693255
Si Si3 0.209257 0.165421 0.887424
Si Si4 0.709912 0.231068 0.442986
Si Si5 0.698920 0.886652 0.921852
Si Si6 0.788891 0.504710 0.112153
O O1 0.500000 0.415442 0.020494
O O2 0.765606 0.375118 0.068418
O O3 0.736084 0.475611 0.060247
O O4 0.800287 0.412268 0.977586
O O5 0.222716 0.080773 0.750000
O O6 0.500000 0.074565 0.695921
O O7 0.261775 0.137567 0.664538
O O8 0.225933 0.034006 0.657073
O O9 0.270942 0.223852 0.903625
O O10 0.000000 0.166167 0.888120
O O11 0.500000 0.228728 0.440798
O O12 0.750000 0.250000 0.500000
O O13 0.778200 0.172146 0.429103
O O14 0.500000 0.878793 0.904813
O O15 0.775492 0.934243 0.887797
O O16 0.000000 0.505713 0.113399
#
# Coordination Sequence:
#
# PCOD9468582 Si02
#       6
#    16  16  16  16  16  16
#     4  10  18  28  43  65  94 126 157 190 223 265
#     4   9  18  33  53  72  88 112 151 198 242 283
#     4   9  18  31  46  68  96 123 154 193 233 274
#     4  10  19  31  46  66  95 130 164 192 223 272
#     4  10  19  29  44  64  92 129 159 185 223 273
#     4   9  18  31  45  65  92 120 151 189 234 279
#
# _framework density 18.775637
#
# number of rings (size 3 to 8) (size 9 to 14) (size 15 to 20)
#    0.000    2.500    1.667    1.000    0.000    4.333 
#    0.000    0.000    0.000    1.000    0.000    4.667 
#    0.000    0.000    0.000    0.000    0.000    0.000 
#
# Total GULP energy -267583.893767 kJ/mol
# GULP energy per Si atom -5574.664453 kJ/mol
# Density = 1.873290 g / cm^3
# Si number density = 18.775637 Si / 1000 Ang^3
#
#
#
# Elastic Constant Matrix: (Units=GPa)
#
#
# Indices 1 2 3 4 5 6 
#
# 1 35.7380 3.9274 -1.2327 0.0000 0.0000 0.0000
# 2 3.9274 185.6708 57.7858 0.0000 0.0000 0.0000
# 3 -1.2327 57.7858 92.0822 0.0000 0.0000 0.0000
# 4 0.0000 0.0000 0.0000 11.7719 0.0000 0.0000
# 5 0.0000 0.0000 0.0000 0.0000 11.7199 0.0000
# 6 0.0000 0.0000 0.0000 0.0000 0.0000 14.5710
#
#
#
# Elastic Compliance Matrix: (Units=1/GPa)
#
#
# Indices 1 2 3 4 5 6 
#
# 1 0.028111 -0.000884 0.000931 0.000000 0.000000 0.000000
# 2 -0.000884 0.006721 -0.004230 0.000000 0.000000 0.000000
# 3 0.000931 -0.004230 0.013527 0.000000 0.000000 0.000000
# 4 0.000000 0.000000 0.000000 0.084948 0.000000 0.000000
# 5 0.000000 0.000000 0.000000 0.000000 0.085325 0.000000
# 6 0.000000 0.000000 0.000000 0.000000 0.000000 0.068629
#
#
# Mechanical properties :
#
#
# Convention : Reuss Voigt Hill
#
# Bulk Modulus (GPa) = 25.00440 48.27244 36.63842
# Shear Modulus (GPa) = 16.18348 24.47994 20.33171
#
# Velocity S-wave (km/s) = 2.93907 3.61475 3.29428
# Velocity P-wave (km/s) = 4.98637 6.57175 5.83317
#
# Compressibility (1/GPa) = 0.03999296
#
# Stress axis : x y z
#
# Youngs Moduli (GPa) = 35.57357 148.78903 73.92872
#
# Poissons Ratio (x) = 0.13160 -0.06886
# Poissons Ratio (y) = 0.03146 0.31268
# Poissons Ratio (z) = -0.03313 0.62931
#
# Static dielectric constant tensor:
#      x y z
#    x 1.730810 0.000000 0.000000 
#    y 0.000000 1.710970 0.000000 
#    z 0.000000 0.000000 1.626300 
# 
# From -- ./inp_files/59835.got.cif
#   From: 2010.05.17/outbox.cif.g08.bks.cpg/sg63_30_cif.got.tgz:59835.got - 2010.06.03 15:47:04.
