data_PCOD9468284
_publ_section_title
;
Structure prediction by ZEFSAII (Michael W. Deem and Ramdas Pophale) SiO2 
 PCOD9468284
Probable space group: C M C M
;
_chemical_formula_sum "Si O2"
_cell_formula_units_Z 96
_cell_length_a 9.200293
_cell_length_b 30.738279
_cell_length_c 21.686513
_cell_angle_alpha 90.000000
_cell_angle_beta 90.000000
_cell_angle_gamma 90.000000
_cell_volume 6132.971317
_symmetry_space_group_name_H-M "C M C M"
_symmetry_group_IT_number 63
_symmetry_cell_setting 'orthorhombic'
loop_
_space_group_symop_operation_xyz
x,y,z
-x,-y,1/2+z
x,-y,-z
-x,y,1/2-z
-x,-y,-z
x,y,1/2-z
-x,y,z
x,-y,1/2+z
1/2+x,1/2+y,z
1/2-x,1/2-y,1/2+z
1/2+x,1/2-y,-z
1/2-x,1/2+y,1/2-z
1/2-x,1/2-y,-z
1/2+x,1/2+y,1/2-z
1/2-x,1/2+y,z
1/2+x,1/2-y,1/2+z
loop_
_atom_site_type_symbol
_atom_site_label
_atom_site_fract_x
_atom_site_fract_y
_atom_site_fract_z
Si Si1 0.828115 0.725396 0.090601
Si Si2 0.326403 0.656960 0.322808
Si Si3 0.832708 0.487062 0.427262
Si Si4 0.327903 0.810551 0.451895
Si Si5 0.328249 0.427496 0.900045
Si Si6 0.172059 0.901204 0.456644
O O1 0.758978 0.694848 0.142314
O O2 0.747249 0.771522 0.085430
O O3 0.000000 0.731458 0.099736
O O4 0.807604 0.701761 0.024229
O O5 0.299664 0.657079 0.250000
O O6 0.500000 0.662643 0.333344
O O7 0.286169 0.610683 0.353270
O O8 0.830172 0.500000 0.500000
O O9 0.760775 0.528088 0.393468
O O10 0.741490 0.442794 0.422806
O O11 0.000000 0.480574 0.409469
O O12 0.500000 0.812345 0.439913
O O13 0.252281 0.856616 0.440176
O O14 0.500000 0.436713 0.893092
O O15 0.307277 0.409688 0.969819
O O16 0.000000 0.898316 0.445436
#
# Coordination Sequence:
#
# PCOD9468284 Si02
#       6
#    16  16  16  16  16  16
#     4  10  20  32  47  68  95 126 161 201 243 288
#     4  10  20  34  51  70  95 129 166 202 240 283
#     4   9  17  27  41  63  92 123 154 188 229 277
#     4  10  19  30  47  69  96 127 159 196 243 295
#     4   9  17  29  44  64  92 125 159 194 232 279
#     4  10  17  27  45  68  95 125 156 191 234 286
#
# _framework density 15.653097000000001
#
# number of rings (size 3 to 8) (size 9 to 14) (size 15 to 20)
#    0.000    2.333    1.667    2.000    0.000    5.000 
#    0.000    0.000    0.000    0.000    0.000    1.167 
#    0.000    6.667    0.000    0.000    0.000    0.000 
#
# Total GULP energy -267694.170570 kJ/mol
# GULP energy per Si atom -5576.961887 kJ/mol
# Density = 1.561747 g / cm^3
# Si number density = 15.653097 Si / 1000 Ang^3
#
#
#
# Elastic Constant Matrix: (Units=GPa)
#
#
# Indices 1 2 3 4 5 6 
#
# 1 101.9410 102.2456 44.1842 0.0000 0.0000 0.0000
# 2 102.2456 174.8962 47.8152 0.0000 0.0000 0.0000
# 3 44.1842 47.8152 49.9720 0.0000 0.0000 0.0000
# 4 0.0000 0.0000 0.0000 13.3904 0.0000 0.0000
# 5 0.0000 0.0000 0.0000 0.0000 14.6479 0.0000
# 6 0.0000 0.0000 0.0000 0.0000 0.0000 36.5203
#
#
#
# Elastic Compliance Matrix: (Units=1/GPa)
#
#
# Indices 1 2 3 4 5 6 
#
# 1 0.028549 -0.013257 -0.012558 0.000000 0.000000 0.000000
# 2 -0.013257 0.013899 -0.001578 0.000000 0.000000 0.000000
# 3 -0.012558 -0.001578 0.032624 0.000000 0.000000 0.000000
# 4 0.000000 0.000000 0.000000 0.074681 0.000000 0.000000
# 5 0.000000 0.000000 0.000000 0.000000 0.068269 0.000000
# 6 0.000000 0.000000 0.000000 0.000000 0.000000 0.027382
#
#
# Mechanical properties :
#
#
# Convention : Reuss Voigt Hill
#
# Bulk Modulus (GPa) = 49.29135 79.47769 64.38452
# Shear Modulus (GPa) = 16.28926 21.74933 19.01930
#
# Velocity S-wave (km/s) = 3.22940 3.73159 3.48954
# Velocity P-wave (km/s) = 6.74267 8.33373 7.58006
#
# Compressibility (1/GPa) = 0.02028754
#
# Stress axis : x y z
#
# Youngs Moduli (GPa) = 35.02787 71.94791 30.65200
#
# Poissons Ratio (x) = 0.95378 0.38492
# Poissons Ratio (y) = 0.46435 0.04836
# Poissons Ratio (z) = 0.43987 0.11352
#
# Static dielectric constant tensor:
#      x y z
#    x 1.521470 0.000000 0.000000 
#    y 0.000000 1.507870 0.000000 
#    z 0.000000 0.000000 1.490460 
# 
# From -- ./inp_files/51249.got.cif
#   From: 2010.05.17/outbox.cif.g08.bks.cpg/sg63_26_cif.got.tgz:51249.got - 2010.06.03 15:47:04.
