data_PCOD9468628
_publ_section_title
;
Structure prediction by ZEFSAII (Michael W. Deem and Ramdas Pophale) SiO2 
 PCOD9468628
Probable space group: C M C M
;
_chemical_formula_sum "Si O2"
_cell_formula_units_Z 64
_cell_length_a 5.515551
_cell_length_b 20.690891
_cell_length_c 27.926921
_cell_angle_alpha 90.000000
_cell_angle_beta 90.000000
_cell_angle_gamma 90.000000
_cell_volume 3187.066710
_symmetry_space_group_name_H-M "C M C M"
_symmetry_group_IT_number 63
_symmetry_cell_setting 'orthorhombic'
loop_
_space_group_symop_operation_xyz
x,y,z
-x,-y,1/2+z
x,-y,-z
-x,y,1/2-z
-x,-y,-z
x,y,1/2-z
-x,y,z
x,-y,1/2+z
1/2+x,1/2+y,z
1/2-x,1/2-y,1/2+z
1/2+x,1/2-y,-z
1/2-x,1/2+y,1/2-z
1/2-x,1/2-y,-z
1/2+x,1/2+y,1/2-z
1/2-x,1/2+y,z
1/2+x,1/2-y,1/2+z
loop_
_atom_site_type_symbol
_atom_site_label
_atom_site_fract_x
_atom_site_fract_y
_atom_site_fract_z
Si Si1 0.500000 0.423985 0.988626
Si Si2 0.500000 0.843337 0.694624
Si Si3 0.500000 0.986392 0.848825
Si Si4 0.500000 0.743005 0.064039
Si Si5 0.500000 0.308035 0.045909
Si Si6 0.500000 0.951320 0.955377
Si Si7 0.500000 0.331547 0.659759
Si Si8 0.500000 0.518311 0.192539
O O1 0.500000 0.384702 0.037922
O O2 0.500000 0.500000 0.000000
O O3 0.248365 0.411257 0.960739
O O4 0.500000 0.863245 0.750000
O O5 0.500000 0.909272 0.663603
O O6 0.749058 0.807312 0.682783
O O7 0.500000 0.989633 0.905903
O O8 0.749634 0.012214 0.826318
O O9 0.249494 0.783110 0.068695
O O10 0.500000 0.688893 0.104847
O O11 0.500000 0.716331 0.009704
O O12 0.500000 0.000000 0.000000
O O13 0.500000 0.408378 0.671329
O O14 0.500000 0.522228 0.250000
#
# Coordination Sequence:
#
# PCOD9468628 Si02
#       8
#     8   8   8   8   8   8   8   8
#     4  10  21  36  54  71  96 139 179 235 269 296
#     4  10  19  29  44  71  99 135 171 214 260 317
#     4  10  18  28  46  66  94 140 166 210 262 316
#     4  10  21  33  47  74  97 142 176 203 260 301
#     4  10  21  35  49  68 105 130 177 231 243 304
#     4  10  21  33  48  75 101 130 186 229 264 317
#     4  10  18  29  46  64  97 134 176 197 240 322
#     4  10  19  31  46  73 100 134 173 215 260 321
#
# _framework density 20.081161999999999
#
# number of rings (size 3 to 8) (size 9 to 14) (size 15 to 20)
#    0.000    2.000    0.000    6.000    7.000    0.000 
#    0.000    0.000    0.000    0.000    0.000    0.000 
#    0.000    0.000    0.000  522.000    0.000    0.000 
#
# Total GULP energy -178438.625119 kJ/mol
# GULP energy per Si atom -5576.207035 kJ/mol
# Density = 2.003546 g / cm^3
# Si number density = 20.081162 Si / 1000 Ang^3
#
#
#
# Elastic Constant Matrix: (Units=GPa)
#
#
# Indices 1 2 3 4 5 6 
#
# 1 233.2278 11.5576 38.9898 0.0000 0.0000 0.0000
# 2 11.5576 31.1184 21.3312 0.0000 0.0000 0.0000
# 3 38.9898 21.3312 96.4317 0.0000 0.0000 0.0000
# 4 0.0000 0.0000 0.0000 21.6134 0.0000 0.0000
# 5 0.0000 0.0000 0.0000 0.0000 29.2599 0.0000
# 6 0.0000 0.0000 0.0000 0.0000 0.0000 5.3856
#
#
#
# Elastic Compliance Matrix: (Units=1/GPa)
#
#
# Indices 1 2 3 4 5 6 
#
# 1 0.004605 -0.000512 -0.001749 0.000000 0.000000 0.000000
# 2 -0.000512 0.037936 -0.008185 0.000000 0.000000 0.000000
# 3 -0.001749 -0.008185 0.012888 0.000000 0.000000 0.000000
# 4 0.000000 0.000000 0.000000 0.046268 0.000000 0.000000
# 5 0.000000 0.000000 0.000000 0.000000 0.034177 0.000000
# 6 0.000000 0.000000 0.000000 0.000000 0.000000 0.185681
#
#
# Mechanical properties :
#
#
# Convention : Reuss Voigt Hill
#
# Bulk Modulus (GPa) = 28.95334 56.05947 42.50640
# Shear Modulus (GPa) = 14.12602 30.51173 22.31888
#
# Velocity S-wave (km/s) = 2.65513 3.90220 3.33743
# Velocity P-wave (km/s) = 4.88355 6.94838 6.00538
#
# Compressibility (1/GPa) = 0.03453833
#
# Stress axis : x y z
#
# Youngs Moduli (GPa) = 217.13742 26.36032 77.59359
#
# Poissons Ratio (x) = 0.01349 0.13570
# Poissons Ratio (y) = 0.11109 0.63508
# Poissons Ratio (z) = 0.37975 0.21575
#
# Static dielectric constant tensor:
#      x y z
#    x 1.933800 0.000000 0.000000 
#    y 0.000000 1.715650 0.000000 
#    z 0.000000 0.000000 1.683350 
# 
# From -- ./inp_files/58751.got.cif
#   From: 2010.05.17/outbox.cif.g08.bks.cpg/sg63_30_cif.got.tgz:58751.got - 2010.06.03 15:47:04.
