data_PCOD9468498
_publ_section_title
;
Structure prediction by ZEFSAII (Michael W. Deem and Ramdas Pophale) SiO2 
 PCOD9468498
Probable space group: C M C M
;
_chemical_formula_sum "Si O2"
_cell_formula_units_Z 112
_cell_length_a 19.184902
_cell_length_b 20.737543
_cell_length_c 13.224686
_cell_angle_alpha 90.000000
_cell_angle_beta 90.000000
_cell_angle_gamma 90.000000
_cell_volume 5261.411307
_symmetry_space_group_name_H-M "C M C M"
_symmetry_group_IT_number 63
_symmetry_cell_setting 'orthorhombic'
loop_
_space_group_symop_operation_xyz
x,y,z
-x,-y,1/2+z
x,-y,-z
-x,y,1/2-z
-x,-y,-z
x,y,1/2-z
-x,y,z
x,-y,1/2+z
1/2+x,1/2+y,z
1/2-x,1/2-y,1/2+z
1/2+x,1/2-y,-z
1/2-x,1/2+y,1/2-z
1/2-x,1/2-y,-z
1/2+x,1/2+y,1/2-z
1/2-x,1/2+y,z
1/2+x,1/2-y,1/2+z
loop_
_atom_site_type_symbol
_atom_site_label
_atom_site_fract_x
_atom_site_fract_y
_atom_site_fract_z
Si Si1 0.423309 0.827142 0.127175
Si Si2 0.221857 0.060674 0.575197
Si Si3 0.577077 0.620753 0.871311
Si Si4 0.371927 0.967797 0.136468
Si Si5 0.582471 0.896801 0.869263
Si Si6 0.228287 0.303868 0.127437
Si Si7 0.368052 0.759282 0.871762
O O1 0.426511 0.826805 0.250000
O O2 0.500000 0.806804 0.090868
O O3 0.352019 0.788052 0.106480
O O4 0.407373 0.901844 0.098347
O O5 0.142227 0.073874 0.607667
O O6 0.247545 0.135173 0.559336
O O7 0.218838 0.000000 0.500000
O O8 0.288748 0.040662 0.642001
O O9 0.573968 0.624593 0.750000
O O10 0.500000 0.601290 0.908341
O O11 0.595217 0.693464 0.908362
O O12 0.401381 0.973225 0.250000
O O13 0.384603 0.037716 0.088528
O O14 0.602547 0.894082 0.750000
O O15 0.500000 0.903316 0.875948
O O16 0.604078 0.827185 0.910931
O O17 0.233860 0.321438 0.250000
O O18 0.285471 0.249010 0.112370
O O19 0.380003 0.759186 0.750000
#
# Coordination Sequence:
#
# PCOD9468498 Si02
#       7
#    16  16  16  16  16  16  16
#     4   8  12  19  34  55  75  97 129 165 194 223
#     4  10  18  27  40  57  81 107 135 166 195 229
#     4   9  16  27  44  63  82 104 129 161 203 243
#     4   9  16  26  39  56  81 109 133 157 192 240
#     4   9  15  22  37  62  85 103 127 162 201 240
#     4   8  14  25  40  56  77 106 135 162 198 242
#     4   8  13  22  37  60  85 102 121 156 201 245
#
# _framework density 21.287063
#
# number of rings (size 3 to 8) (size 9 to 14) (size 15 to 20)
#    0.000    3.286    0.000    3.857    0.000    3.714 
#    0.000    0.000    0.000   14.143    0.000    1.000 
#    0.000    5.714    0.000    0.000    0.000    0.000 
#
# Total GULP energy -311782.878092 kJ/mol
# GULP energy per Si atom -5567.551394 kJ/mol
# Density = 2.123861 g / cm^3
# Si number density = 21.287063 Si / 1000 Ang^3
#
#
#
# Elastic Constant Matrix: (Units=GPa)
#
#
# Indices 1 2 3 4 5 6 
#
# 1 134.8342 28.1262 5.8527 0.0000 0.0000 0.0000
# 2 28.1262 89.0156 16.3370 0.0000 0.0000 0.0000
# 3 5.8527 16.3370 40.4073 0.0000 0.0000 0.0000
# 4 0.0000 0.0000 0.0000 30.6986 0.0000 0.0000
# 5 0.0000 0.0000 0.0000 0.0000 18.4674 0.0000
# 6 0.0000 0.0000 0.0000 0.0000 0.0000 28.8397
#
#
#
# Elastic Compliance Matrix: (Units=1/GPa)
#
#
# Indices 1 2 3 4 5 6 
#
# 1 0.007941 -0.002482 -0.000147 0.000000 0.000000 0.000000
# 2 -0.002482 0.012910 -0.004860 0.000000 0.000000 0.000000
# 3 -0.000147 -0.004860 0.026734 0.000000 0.000000 0.000000
# 4 0.000000 0.000000 0.000000 0.032575 0.000000 0.000000
# 5 0.000000 0.000000 0.000000 0.000000 0.054150 0.000000
# 6 0.000000 0.000000 0.000000 0.000000 0.000000 0.034674
#
#
# Mechanical properties :
#
#
# Convention : Reuss Voigt Hill
#
# Bulk Modulus (GPa) = 30.66796 40.54321 35.60558
# Shear Modulus (GPa) = 25.66330 29.86389 27.76359
#
# Velocity S-wave (km/s) = 3.47592 3.74961 3.61535
# Velocity P-wave (km/s) = 5.52697 6.15089 5.84726
#
# Compressibility (1/GPa) = 0.03260733
#
# Stress axis : x y z
#
# Youngs Moduli (GPa) = 125.93449 77.45796 37.40522
#
# Poissons Ratio (x) = 0.19226 0.00548
# Poissons Ratio (y) = 0.31258 0.18180
# Poissons Ratio (z) = 0.01846 0.37646
#
# Static dielectric constant tensor:
#      x y z
#    x 1.770610 0.000000 0.000000 
#    y 0.000000 1.782200 0.000000 
#    z 0.000000 0.000000 1.913670 
# 
# From -- ./inp_files/55982.got.cif
#   From: 2010.05.17/outbox.cif.g08.bks.cpg/sg63_28_cif.got.tgz:55982.got - 2010.06.03 15:47:04.
