data_PCOD9468221
_publ_section_title
;
Structure prediction by ZEFSAII (Michael W. Deem and Ramdas Pophale) SiO2 
 PCOD9468221
Probable space group: C M C M
;
_chemical_formula_sum "Si O2"
_cell_formula_units_Z 56
_cell_length_a 18.223245
_cell_length_b 8.665213
_cell_length_c 18.506376
_cell_angle_alpha 90.000000
_cell_angle_beta 90.000000
_cell_angle_gamma 90.000000
_cell_volume 2922.310364
_symmetry_space_group_name_H-M "C M C M"
_symmetry_group_IT_number 63
_symmetry_cell_setting 'orthorhombic'
loop_
_space_group_symop_operation_xyz
x,y,z
-x,-y,1/2+z
x,-y,-z
-x,y,1/2-z
-x,-y,-z
x,y,1/2-z
-x,y,z
x,-y,1/2+z
1/2+x,1/2+y,z
1/2-x,1/2-y,1/2+z
1/2+x,1/2-y,-z
1/2-x,1/2+y,1/2-z
1/2-x,1/2-y,-z
1/2+x,1/2+y,1/2-z
1/2-x,1/2+y,z
1/2+x,1/2-y,1/2+z
loop_
_atom_site_type_symbol
_atom_site_label
_atom_site_fract_x
_atom_site_fract_y
_atom_site_fract_z
Si Si1 0.626099 0.950736 0.750000
Si Si2 0.230629 0.732082 0.333166
Si Si3 0.000000 0.050702 0.125852
Si Si4 0.000000 0.698461 0.750000
Si Si5 0.163886 0.021611 0.082317
Si Si6 0.500000 0.300198 0.250000
O O1 0.573835 0.096463 0.750000
O O2 0.677453 0.916810 0.680831
O O3 0.570946 0.805898 0.750000
O O4 0.251002 0.776617 0.250000
O O5 0.187803 0.870678 0.371669
O O6 0.297840 0.667994 0.379354
O O7 0.923664 0.044503 0.083706
O O8 0.000000 0.905712 0.179862
O O9 0.000000 0.197313 0.178894
O O10 0.189076 0.000000 0.000000
#
# Coordination Sequence:
#
# PCOD9468221 Si02
#       6
#     8  16   8   4  16   4
#     4   9  20  38  64  94 123 155 217 266 317 359
#     4  10  23  40  68  91 123 165 216 265 315 376
#     4  11  23  38  63  90 130 166 217 258 317 385
#     4  10  24  34  66 102 122 162 220 278 304 368
#     4  12  25  42  63  95 133 171 208 264 330 383
#     4  10  16  38  64  88 118 172 206 264 312 372
#
# _framework density 19.16292
#
# number of rings (size 3 to 8) (size 9 to 14) (size 15 to 20)
#    0.857    0.571    2.857    2.143   10.000    0.000 
#    0.000    0.000    0.000    1.714    0.000    0.000 
#    0.000    0.000    0.000    0.000    0.000    0.000 
#
# Total GULP energy -156237.476022 kJ/mol
# GULP energy per Si atom -5579.909858 kJ/mol
# Density = 1.911930 g / cm^3
# Si number density = 19.162920 Si / 1000 Ang^3
#
#
#
# Elastic Constant Matrix: (Units=GPa)
#
#
# Indices 1 2 3 4 5 6 
#
# 1 116.7399 29.2066 22.3734 0.0000 0.0000 0.0000
# 2 29.2066 84.2058 30.3184 0.0000 0.0000 0.0000
# 3 22.3734 30.3184 108.2019 0.0000 0.0000 0.0000
# 4 0.0000 0.0000 0.0000 19.7991 0.0000 0.0000
# 5 0.0000 0.0000 0.0000 0.0000 9.3148 0.0000
# 6 0.0000 0.0000 0.0000 0.0000 0.0000 10.8941
#
#
#
# Elastic Compliance Matrix: (Units=1/GPa)
#
#
# Indices 1 2 3 4 5 6 
#
# 1 0.009509 -0.002881 -0.001159 0.000000 0.000000 0.000000
# 2 -0.002881 0.014081 -0.003350 0.000000 0.000000 0.000000
# 3 -0.001159 -0.003350 0.010420 0.000000 0.000000 0.000000
# 4 0.000000 0.000000 0.000000 0.050507 0.000000 0.000000
# 5 0.000000 0.000000 0.000000 0.000000 0.107356 0.000000
# 6 0.000000 0.000000 0.000000 0.000000 0.000000 0.091793
#
#
# Mechanical properties :
#
#
# Convention : Reuss Voigt Hill
#
# Bulk Modulus (GPa) = 51.99986 52.54940 52.27463
# Shear Modulus (GPa) = 16.40122 23.15155 19.77639
#
# Velocity S-wave (km/s) = 2.92872 3.47961 3.21598
# Velocity P-wave (km/s) = 6.21539 6.60496 6.41314
#
# Compressibility (1/GPa) = 0.01923082
#
# Stress axis : x y z
#
# Youngs Moduli (GPa) = 105.16437 71.01769 95.96684
#
# Poissons Ratio (x) = 0.20459 0.11122
# Poissons Ratio (y) = 0.30296 0.32147
# Poissons Ratio (z) = 0.12188 0.23790
#
# Static dielectric constant tensor:
#      x y z
#    x 1.726540 0.000000 0.000000 
#    y 0.000000 1.679870 0.000000 
#    z 0.000000 0.000000 1.627020 
# 
# From -- ./inp_files/45056.got.cif
#   From: 2010.05.17/outbox.cif.g08.bks.cpg/sg63_23_cif.got.tgz:45056.got - 2010.06.03 15:47:04.
