data_PCOD9468664
_publ_section_title
;
Structure prediction by ZEFSAII (Michael W. Deem and Ramdas Pophale) SiO2 
 PCOD9468664
Probable space group: C M C M
;
_chemical_formula_sum "Si O2"
_cell_formula_units_Z 88
_cell_length_a 29.052667
_cell_length_b 19.684962
_cell_length_c 7.931490
_cell_angle_alpha 90.000000
_cell_angle_beta 90.000000
_cell_angle_gamma 90.000000
_cell_volume 4536.024254
_symmetry_space_group_name_H-M "C M C M"
_symmetry_group_IT_number 63
_symmetry_cell_setting 'orthorhombic'
loop_
_space_group_symop_operation_xyz
x,y,z
-x,-y,1/2+z
x,-y,-z
-x,y,1/2-z
-x,-y,-z
x,y,1/2-z
-x,y,z
x,-y,1/2+z
1/2+x,1/2+y,z
1/2-x,1/2-y,1/2+z
1/2+x,1/2-y,-z
1/2-x,1/2+y,1/2-z
1/2-x,1/2-y,-z
1/2+x,1/2+y,1/2-z
1/2-x,1/2+y,z
1/2+x,1/2-y,1/2+z
loop_
_atom_site_type_symbol
_atom_site_label
_atom_site_fract_x
_atom_site_fract_y
_atom_site_fract_z
Si Si1 0.446742 0.694301 0.456723
Si Si2 0.880064 0.078788 0.448576
Si Si3 0.589861 0.839987 0.043679
Si Si4 0.000000 0.421712 0.047241
Si Si5 0.279987 0.579459 0.950908
Si Si6 0.320699 0.920518 0.453764
O O1 0.447236 0.693776 0.250000
O O2 0.500000 0.696223 0.510153
O O3 0.419176 0.628361 0.519191
O O4 0.420047 0.762743 0.507300
O O5 0.885543 0.079023 0.250000
O O6 0.828723 0.106763 0.485687
O O7 0.883399 0.000000 0.500000
O O8 0.590654 0.841051 0.250000
O O9 0.546170 0.884552 0.987326
O O10 0.637156 0.874522 0.985217
O O11 0.000000 0.416064 0.250000
O O12 0.000000 0.500000 0.000000
O O13 0.280746 0.585039 0.750000
O O14 0.229982 0.603868 0.013362
O O15 0.280520 0.500000 0.000000
O O16 0.320291 0.917745 0.250000
O O17 0.326952 0.000000 0.500000
#
# Coordination Sequence:
#
# PCOD9468664 Si02
#       6
#    16  16  16   8  16  16
#     4   9  17  31  50  71  94 123 160 197 233 279
#     4  10  19  31  51  75  95 118 153 197 240 285
#     4   9  16  29  47  69  95 125 161 196 231 271
#     4  10  18  28  48  72  95 124 158 198 235 268
#     4   9  16  28  46  68  96 126 155 189 233 281
#     4   9  17  28  46  71  97 127 160 195 232 272
#
# _framework density 19.40025
#
# number of rings (size 3 to 8) (size 9 to 14) (size 15 to 20)
#    0.000    2.727    0.909    2.727    0.000    1.091 
#    0.000    0.909    0.000    6.000    0.000    0.000 
#    0.000    0.000    0.000    0.000    0.000    0.000 
#
# Total GULP energy -245215.946945 kJ/mol
# GULP energy per Si atom -5573.089703 kJ/mol
# Density = 1.935609 g / cm^3
# Si number density = 19.400250 Si / 1000 Ang^3
#
#
#
# Elastic Constant Matrix: (Units=GPa)
#
#
# Indices 1 2 3 4 5 6 
#
# 1 154.9209 86.3255 3.1996 0.0000 0.0000 0.0000
# 2 86.3255 109.1552 5.5284 0.0000 0.0000 0.0000
# 3 3.1996 5.5284 15.8709 0.0000 0.0000 0.0000
# 4 0.0000 0.0000 0.0000 6.3995 0.0000 0.0000
# 5 0.0000 0.0000 0.0000 0.0000 -7.6549 0.0000
# 6 0.0000 0.0000 0.0000 0.0000 0.0000 -8.7295
#
#
#
# Elastic Compliance Matrix: (Units=1/GPa)
#
#
# Indices 1 2 3 4 5 6 
#
# 1 0.011552 -0.009180 0.000869 0.000000 0.000000 0.000000
# 2 -0.009180 0.016621 -0.003939 0.000000 0.000000 0.000000
# 3 0.000869 -0.003939 0.064205 0.000000 0.000000 0.000000
# 4 0.000000 0.000000 0.000000 0.156262 0.000000 0.000000
# 5 0.000000 0.000000 0.000000 0.000000 -0.130636 0.000000
# 6 0.000000 0.000000 0.000000 0.000000 0.000000 -0.114554
#
#
# Mechanical properties :
#
#
# Convention : Reuss Voigt Hill
#
# Bulk Modulus (GPa) = 14.73231 52.22822 33.48026
# Shear Modulus (GPa) = 98.85827 10.32927 54.59377
#
# Velocity S-wave (km/s) = 7.14618 2.30995 5.31054
# Velocity P-wave (km/s) = 8.70062 5.83904 7.40929
#
# Compressibility (1/GPa) = 0.06787804
#
# Stress axis : x y z
#
# Youngs Moduli (GPa) = 86.56225 60.16510 15.57502
#
# Poissons Ratio (x) = 0.55233 -0.01353
# Poissons Ratio (y) = 0.79466 0.06135
# Poissons Ratio (z) = -0.07521 0.23699
#
# Static dielectric constant tensor:
#      x y z
#    x 1.713690 0.000000 0.000000 
#    y 0.000000 1.663450 0.000000 
#    z 0.000000 0.000000 1.694730 
# 
# From -- ./inp_files/14247.got.cif
#   From: 2010.05.17/outbox.cif.g08.bks.cpg/sg63_8_cif.got.tgz:14247.got - 2010.06.03 15:47:04.
