data_PCOD9468845
_publ_section_title
;
Structure prediction by ZEFSAII (Michael W. Deem and Ramdas Pophale) SiO2 
 PCOD9468845
Probable space group: C M C M
;
_chemical_formula_sum "Si O2"
_cell_formula_units_Z 104
_cell_length_a 26.852805
_cell_length_b 24.301330
_cell_length_c 7.656423
_cell_angle_alpha 90.000000
_cell_angle_beta 90.000000
_cell_angle_gamma 90.000000
_cell_volume 4996.266785
_symmetry_space_group_name_H-M "C M C M"
_symmetry_group_IT_number 63
_symmetry_cell_setting 'orthorhombic'
loop_
_space_group_symop_operation_xyz
x,y,z
-x,-y,1/2+z
x,-y,-z
-x,y,1/2-z
-x,-y,-z
x,y,1/2-z
-x,y,z
x,-y,1/2+z
1/2+x,1/2+y,z
1/2-x,1/2-y,1/2+z
1/2+x,1/2-y,-z
1/2-x,1/2+y,1/2-z
1/2-x,1/2-y,-z
1/2+x,1/2+y,1/2-z
1/2-x,1/2+y,z
1/2+x,1/2-y,1/2+z
loop_
_atom_site_type_symbol
_atom_site_label
_atom_site_fract_x
_atom_site_fract_y
_atom_site_fract_z
Si Si1 0.635372 0.158960 0.964141
Si Si2 0.647710 0.278767 0.542462
Si Si3 0.500000 0.436128 0.540080
Si Si4 0.703795 0.440391 0.543039
Si Si5 0.247933 0.328199 0.052909
Si Si6 0.442440 0.064087 0.960081
Si Si7 0.103352 0.107634 0.036487
O O1 0.635983 0.155082 0.750000
O O2 0.622510 0.221836 0.016004
O O3 0.693204 0.160585 0.026811
O O4 0.598143 0.109912 0.022408
O O5 0.641733 0.279317 0.750000
O O6 0.707216 0.288678 0.513303
O O7 0.621240 0.333035 0.471882
O O8 0.500000 0.500000 0.500000
O O9 0.500000 0.429559 0.750000
O O10 0.450080 0.409006 0.470788
O O11 0.724536 0.500000 0.500000
O O12 0.707575 0.430526 0.750000
O O13 0.729305 0.389255 0.451753
O O14 0.645972 0.436013 0.490376
O O15 0.238908 0.309811 0.250000
O O16 0.443662 0.068792 0.750000
O O17 0.500000 0.073209 0.022526
O O18 0.429336 0.000000 0.000000
O O19 0.102078 0.109351 0.250000
#
# Coordination Sequence:
#
# PCOD9468845 Si02
#       7
#    16  16   8  16  16  16  16
#     4   9  18  32  52  77 102 128 164 206 247 296
#     4   9  17  33  51  70 100 133 163 203 250 294
#     4  10  18  30  46  68  92 120 159 198 236 282
#     4  10  19  32  48  68  96 131 167 207 251 297
#     4  10  19  31  48  72 102 134 167 205 246 296
#     4   9  18  35  56  77 102 132 166 206 255 310
#     4   8  16  29  46  67  93 123 157 198 242 285
#
# _framework density 20.815541
#
# number of rings (size 3 to 8) (size 9 to 14) (size 15 to 20)
#    0.000    2.769    0.000    2.769    0.000    0.615 
#    1.385    7.692    0.000    0.000    0.000    0.000 
#    0.000    0.000    0.000    0.000    0.000    0.000 
#
# Total GULP energy -289583.763685 kJ/mol
# GULP energy per Si atom -5568.918532 kJ/mol
# Density = 2.076816 g / cm^3
# Si number density = 20.815541 Si / 1000 Ang^3
#
#
#
# Elastic Constant Matrix: (Units=GPa)
#
#
# Indices 1 2 3 4 5 6 
#
# 1 115.1027 75.2077 1.9742 0.0000 0.0000 0.0000
# 2 75.2077 163.3088 0.9971 0.0000 0.0000 0.0000
# 3 1.9742 0.9971 40.8958 0.0000 0.0000 0.0000
# 4 0.0000 0.0000 0.0000 20.2728 0.0000 0.0000
# 5 0.0000 0.0000 0.0000 0.0000 11.7146 0.0000
# 6 0.0000 0.0000 0.0000 0.0000 0.0000 33.0722
#
#
#
# Elastic Compliance Matrix: (Units=1/GPa)
#
#
# Indices 1 2 3 4 5 6 
#
# 1 0.012436 -0.005724 -0.000461 0.000000 0.000000 0.000000
# 2 -0.005724 0.008759 0.000063 0.000000 0.000000 0.000000
# 3 -0.000461 0.000063 0.024473 0.000000 0.000000 0.000000
# 4 0.000000 0.000000 0.000000 0.049327 0.000000 0.000000
# 5 0.000000 0.000000 0.000000 0.000000 0.085364 0.000000
# 6 0.000000 0.000000 0.000000 0.000000 0.000000 0.030237
#
#
# Mechanical properties :
#
#
# Convention : Reuss Voigt Hill
#
# Bulk Modulus (GPa) = 29.91889 52.85171 41.38530
# Shear Modulus (GPa) = 21.36920 29.08715 25.22818
#
# Velocity S-wave (km/s) = 3.20753 3.74221 3.48514
# Velocity P-wave (km/s) = 5.30304 6.64212 6.00999
#
# Compressibility (1/GPa) = 0.03342370
#
# Stress axis : x y z
#
# Youngs Moduli (GPa) = 80.41161 114.16625 40.86122
#
# Poissons Ratio (x) = 0.65352 0.01883
# Poissons Ratio (y) = 0.46030 -0.00257
# Poissons Ratio (z) = 0.03705 -0.00717
#
# Static dielectric constant tensor:
#      x y z
#    x 1.766310 0.000000 0.000000 
#    y 0.000000 1.740690 0.000000 
#    z 0.000000 0.000000 1.787340 
# 
# From -- ./inp_files/12857.got.cif
#   From: 2010.05.17/outbox.cif.g08.bks.cpg/sg63_7_cif.got.tgz:12857.got - 2010.06.03 15:47:04.
