data_PCOD9468538
_publ_section_title
;
Structure prediction by ZEFSAII (Michael W. Deem and Ramdas Pophale) SiO2 
 PCOD9468538
Probable space group: C M C M
;
_chemical_formula_sum "Si O2"
_cell_formula_units_Z 80
_cell_length_a 14.274987
_cell_length_b 16.026646
_cell_length_c 14.279186
_cell_angle_alpha 90.000000
_cell_angle_beta 90.000000
_cell_angle_gamma 90.000000
_cell_volume 3266.794505
_symmetry_space_group_name_H-M "C M C M"
_symmetry_group_IT_number 63
_symmetry_cell_setting 'orthorhombic'
loop_
_space_group_symop_operation_xyz
x,y,z
-x,-y,1/2+z
x,-y,-z
-x,y,1/2-z
-x,-y,-z
x,y,1/2-z
-x,y,z
x,-y,1/2+z
1/2+x,1/2+y,z
1/2-x,1/2-y,1/2+z
1/2+x,1/2-y,-z
1/2-x,1/2+y,1/2-z
1/2-x,1/2-y,-z
1/2+x,1/2+y,1/2-z
1/2-x,1/2+y,z
1/2+x,1/2-y,1/2+z
loop_
_atom_site_type_symbol
_atom_site_label
_atom_site_fract_x
_atom_site_fract_y
_atom_site_fract_z
Si Si1 0.109347 0.219077 0.484945
Si Si2 0.110917 0.900015 0.360135
Si Si3 0.888608 0.363386 0.355953
Si Si4 0.192653 0.920234 0.637633
Si Si5 0.602885 0.942537 0.636260
O O1 0.143300 0.180576 0.582534
O O2 0.149216 0.299221 0.431952
O O3 0.123894 0.142696 0.413173
O O4 0.000000 0.235781 0.500481
O O5 0.120784 0.886295 0.250000
O O6 0.000000 0.914493 0.379392
O O7 0.166294 0.984156 0.385494
O O8 0.848960 0.355156 0.250000
O O9 0.883616 0.459619 0.385964
O O10 0.000000 0.346234 0.347431
O O11 0.184491 0.912532 0.750000
O O12 0.299939 0.900115 0.609436
O O13 0.598802 0.938236 0.750000
O O14 0.500000 0.915044 0.600995
#
# Coordination Sequence:
#
# PCOD9468538 Si02
#       5
#    16  16  16  16  16
#     4  10  18  28  46  73 101 125 154 199 251 295
#     4   9  18  31  45  64  94 130 163 196 240 297
#     4   8  14  26  45  69  97 126 156 195 242 286
#     4  10  18  27  44  71  99 126 158 197 241 289
#     4   8  15  29  47  67  94 129 166 200 235 279
#
# _framework density 24.488838000000001
#
# number of rings (size 3 to 8) (size 9 to 14) (size 15 to 20)
#    0.000    3.000    0.000    3.000    0.000    3.600 
#    0.000    1.000    0.000    2.400    0.000    4.200 
#    0.000   14.400    0.000    0.000    0.000    0.000 
#
# Total GULP energy -223642.905375 kJ/mol
# GULP energy per Si atom -5591.072634 kJ/mol
# Density = 2.443310 g / cm^3
# Si number density = 24.488838 Si / 1000 Ang^3
#
#
#
# Elastic Constant Matrix: (Units=GPa)
#
#
# Indices 1 2 3 4 5 6 
#
# 1 115.7003 16.7286 14.9724 0.0000 0.0000 0.0000
# 2 16.7286 62.0360 47.9010 0.0000 0.0000 0.0000
# 3 14.9724 47.9010 92.7333 0.0000 0.0000 0.0000
# 4 0.0000 0.0000 0.0000 81.3503 0.0000 0.0000
# 5 0.0000 0.0000 0.0000 0.0000 5.7991 0.0000
# 6 0.0000 0.0000 0.0000 0.0000 0.0000 979.0787
#
#
#
# Elastic Compliance Matrix: (Units=1/GPa)
#
#
# Indices 1 2 3 4 5 6 
#
# 1 0.009000 -0.002171 -0.000332 0.000000 0.000000 0.000000
# 2 -0.002171 0.027338 -0.013771 0.000000 0.000000 0.000000
# 3 -0.000332 -0.013771 0.017951 0.000000 0.000000 0.000000
# 4 0.000000 0.000000 0.000000 0.012293 0.000000 0.000000
# 5 0.000000 0.000000 0.000000 0.000000 0.172442 0.000000
# 6 0.000000 0.000000 0.000000 0.000000 0.000000 0.001021
#
#
# Mechanical properties :
#
#
# Convention : Reuss Voigt Hill
#
# Bulk Modulus (GPa) = 45.99473 47.74153 46.86813
# Shear Modulus (GPa) = 17.86745 225.97011 121.91878
#
# Velocity S-wave (km/s) = 2.70407 9.61640 7.06354
# Velocity P-wave (km/s) = 5.34528 11.95147 9.25769
#
# Compressibility (1/GPa) = 0.02174162
#
# Stress axis : x y z
#
# Youngs Moduli (GPa) = 111.11344 36.57880 55.70867
#
# Poissons Ratio (x) = 0.07940 0.01849
# Poissons Ratio (y) = 0.24119 0.76716
# Poissons Ratio (z) = 0.03687 0.50373
#
# Static dielectric constant tensor:
#      x y z
#    x 1.957700 0.000000 0.000000 
#    y 0.000000 1.897920 0.000000 
#    z 0.000000 0.000000 1.940220 
# 
# From -- ./inp_files/31635.got.cif
#   From: 2010.05.17/outbox.cif.g08.bks.cpg/sg63_16_cif.got.tgz:31635.got - 2010.06.03 15:47:04.
