data_PCOD9468958
_publ_section_title
;
Structure prediction by ZEFSAII (Michael W. Deem and Ramdas Pophale) SiO2 
 PCOD9468958
Probable space group: C M C M
;
_chemical_formula_sum "Si O2"
_cell_formula_units_Z 116
_cell_length_a 28.019599
_cell_length_b 27.827344
_cell_length_c 7.768958
_cell_angle_alpha 90.000000
_cell_angle_beta 90.000000
_cell_angle_gamma 90.000000
_cell_volume 6057.542167
_symmetry_space_group_name_H-M "C M C M"
_symmetry_group_IT_number 63
_symmetry_cell_setting 'orthorhombic'
loop_
_space_group_symop_operation_xyz
x,y,z
-x,-y,1/2+z
x,-y,-z
-x,y,1/2-z
-x,-y,-z
x,y,1/2-z
-x,y,z
x,-y,1/2+z
1/2+x,1/2+y,z
1/2-x,1/2-y,1/2+z
1/2+x,1/2-y,-z
1/2-x,1/2+y,1/2-z
1/2-x,1/2-y,-z
1/2+x,1/2+y,1/2-z
1/2-x,1/2+y,z
1/2+x,1/2-y,1/2+z
loop_
_atom_site_type_symbol
_atom_site_label
_atom_site_fract_x
_atom_site_fract_y
_atom_site_fract_z
Si Si1 0.578599 0.571179 0.054675
Si Si2 0.865879 0.253307 0.956487
Si Si3 0.711361 0.051851 0.956455
Si Si4 0.445584 0.320262 0.458400
Si Si5 0.681757 0.845097 0.042794
Si Si6 0.183261 0.924013 0.456399
Si Si7 0.000000 0.000000 0.500000
Si Si8 0.285385 0.683783 0.957758
O O1 0.561838 0.563219 0.250000
O O2 0.542138 0.539045 0.949602
O O3 0.573273 0.627465 0.012621
O O4 0.634059 0.558042 0.035168
O O5 0.865465 0.248565 0.750000
O O6 0.911147 0.222744 0.018687
O O7 0.818464 0.226217 0.025558
O O8 0.860795 0.309446 0.995776
O O9 0.714415 0.055447 0.750000
O O10 0.683409 0.099455 0.016894
O O11 0.766431 0.054647 0.020354
O O12 0.690726 0.000000 0.000000
O O13 0.445379 0.319736 0.250000
O O14 0.500000 0.314648 0.517674
O O15 0.684061 0.846192 0.250000
O O16 0.731557 0.821767 0.976507
O O17 0.180140 0.930525 0.250000
O O18 0.188580 0.866943 0.489561
O O19 0.282102 0.688651 0.750000
#
# Coordination Sequence:
#
# PCOD9468958 Si02
#       8
#    16  16  16  16  16  16   4  16
#     4  12  25  40  56  74  93 121 169 223 268 313
#     4  10  18  30  50  75 100 130 165 200 245 302
#     4   9  19  34  52  73 101 136 170 205 246 294
#     4  10  21  38  59  76  97 131 166 206 262 316
#     4   9  18  31  47  71 103 134 165 201 244 292
#     4   9  18  35  54  71  97 131 163 205 257 307
#     4  12  30  44  48  66 102 128 160 226 288 312
#     4   8  14  28  48  69  97 131 162 194 240 297
#
# _framework density 19.149681999999999
#
# number of rings (size 3 to 8) (size 9 to 14) (size 15 to 20)
#    0.000    2.345    2.069    2.690    0.966    3.862 
#    0.000    2.069    0.000    0.000    0.000    0.000 
#    0.000    0.552    0.000    1.241    0.000    1.931 
#
# Total GULP energy -323163.551447 kJ/mol
# GULP energy per Si atom -5571.785370 kJ/mol
# Density = 1.910610 g / cm^3
# Si number density = 19.149682 Si / 1000 Ang^3
#
#
#
# Elastic Constant Matrix: (Units=GPa)
#
#
# Indices 1 2 3 4 5 6 
#
# 1 57.5113 56.4909 5.8791 0.0000 0.0000 0.0000
# 2 56.4909 142.6187 4.2537 0.0000 0.0000 0.0000
# 3 5.8791 4.2537 31.1578 0.0000 0.0000 0.0000
# 4 0.0000 0.0000 0.0000 9.5043 0.0000 0.0000
# 5 0.0000 0.0000 0.0000 0.0000 12.8636 0.0000
# 6 0.0000 0.0000 0.0000 0.0000 0.0000 196.3046
#
#
#
# Elastic Compliance Matrix: (Units=1/GPa)
#
#
# Indices 1 2 3 4 5 6 
#
# 1 0.028928 -0.011342 -0.003910 0.000000 0.000000 0.000000
# 2 -0.011342 0.011487 0.000572 0.000000 0.000000 0.000000
# 3 -0.003910 0.000572 0.032754 0.000000 0.000000 0.000000
# 4 0.000000 0.000000 0.000000 0.105215 0.000000 0.000000
# 5 0.000000 0.000000 0.000000 0.000000 0.077739 0.000000
# 6 0.000000 0.000000 0.000000 0.000000 0.000000 0.005094
#
#
# Mechanical properties :
#
#
# Convention : Reuss Voigt Hill
#
# Bulk Modulus (GPa) = 22.82597 40.50391 31.66494
# Shear Modulus (GPa) = 16.38374 54.71211 35.54792
#
# Velocity S-wave (km/s) = 2.92817 5.35096 4.31318
# Velocity P-wave (km/s) = 4.83507 7.70546 6.43242
#
# Compressibility (1/GPa) = 0.04380975
#
# Stress axis : x y z
#
# Youngs Moduli (GPa) = 34.56849 87.05435 30.53026
#
# Poissons Ratio (x) = 0.98735 0.11937
# Poissons Ratio (y) = 0.39207 -0.01746
# Poissons Ratio (z) = 0.13516 -0.04978
#
# Static dielectric constant tensor:
#      x y z
#    x 1.657890 0.000000 0.000000 
#    y 0.000000 1.697690 0.000000 
#    z 0.000000 0.000000 1.734960 
# 
# From -- ./inp_files/10935.got.cif
#   From: 2010.05.17/outbox.cif.g08.bks.cpg/sg63_6_cif.got.tgz:10935.got - 2010.06.03 15:47:04.
