data_PCOD9468600
_publ_section_title
;
Structure prediction by ZEFSAII (Michael W. Deem and Ramdas Pophale) SiO2 
 PCOD9468600
Probable space group: C M C M
;
_chemical_formula_sum "Si O2"
_cell_formula_units_Z 128
_cell_length_a 24.036187
_cell_length_b 19.570772
_cell_length_c 15.326465
_cell_angle_alpha 90.000000
_cell_angle_beta 90.000000
_cell_angle_gamma 90.000000
_cell_volume 7209.672368
_symmetry_space_group_name_H-M "C M C M"
_symmetry_group_IT_number 63
_symmetry_cell_setting 'orthorhombic'
loop_
_space_group_symop_operation_xyz
x,y,z
-x,-y,1/2+z
x,-y,-z
-x,y,1/2-z
-x,-y,-z
x,y,1/2-z
-x,y,z
x,-y,1/2+z
1/2+x,1/2+y,z
1/2-x,1/2-y,1/2+z
1/2+x,1/2-y,-z
1/2-x,1/2+y,1/2-z
1/2-x,1/2-y,-z
1/2+x,1/2+y,1/2-z
1/2-x,1/2+y,z
1/2+x,1/2-y,1/2+z
loop_
_atom_site_type_symbol
_atom_site_label
_atom_site_fract_x
_atom_site_fract_y
_atom_site_fract_z
Si Si1 0.935745 0.742610 0.356524
Si Si2 0.240287 0.752432 0.895927
Si Si3 0.728621 0.465277 0.149592
Si Si4 0.342598 0.657864 0.648802
Si Si5 0.900089 0.405934 0.849093
Si Si6 0.673132 0.872367 0.096206
Si Si7 0.722428 0.898048 0.903282
Si Si8 0.436627 0.053575 0.643731
O O1 0.929794 0.742183 0.250000
O O2 0.895292 0.802500 0.390093
O O3 0.917046 0.667331 0.388186
O O4 0.000000 0.754022 0.376949
O O5 0.292487 0.712514 0.855082
O O6 0.186754 0.705610 0.877461
O O7 0.244052 0.831535 0.871772
O O8 0.250000 0.750000 0.000000
O O9 0.714928 0.482164 0.250000
O O10 0.682686 0.412532 0.111821
O O11 0.786211 0.422357 0.150016
O O12 0.740304 0.534725 0.098911
O O13 0.354808 0.643075 0.750000
O O14 0.922097 0.404466 0.750000
O O15 0.833367 0.409943 0.847757
O O16 0.923355 0.476120 0.888020
O O17 0.610401 0.896590 0.106556
O O18 0.696410 0.883795 0.998509
O O19 0.431326 0.054098 0.750000
O O20 0.500000 0.071385 0.621669
#
# Coordination Sequence:
#
# PCOD9468600 Si02
#       8
#    16  16  16  16  16  16  16  16
#     4   9  16  27  44  66  93 124 155 189 233 281
#     4   9  19  32  47  65  95 123 151 191 238 280
#     4  10  19  30  46  67  94 124 155 191 233 281
#     4   9  17  29  45  67  92 120 156 193 227 275
#     4  10  18  28  44  67  95 125 158 190 226 279
#     4  10  20  33  48  68  92 123 160 198 233 276
#     4  11  19  30  48  69  96 125 151 191 239 285
#     4  10  20  34  50  67  93 130 165 196 231 273
#
# _framework density 17.753927000000001
#
# number of rings (size 3 to 8) (size 9 to 14) (size 15 to 20)
#    0.000    2.250    2.500    1.500    0.000    2.500 
#    0.000    1.875    0.000    0.000    0.000    0.875 
#    0.000   15.000    0.000    0.000    0.000    0.000 
#
# Total GULP energy -356737.814391 kJ/mol
# GULP energy per Si atom -5574.028350 kJ/mol
# Density = 1.771352 g / cm^3
# Si number density = 17.753927 Si / 1000 Ang^3
#
#
#
# Elastic Constant Matrix: (Units=GPa)
#
#
# Indices 1 2 3 4 5 6 
#
# 1 122.0240 92.3313 5.5275 0.0000 0.0000 0.0000
# 2 92.3313 154.0321 5.9700 0.0000 0.0000 0.0000
# 3 5.5275 5.9700 27.0742 0.0000 0.0000 0.0000
# 4 0.0000 0.0000 0.0000 9.7352 0.0000 0.0000
# 5 0.0000 0.0000 0.0000 0.0000 9.6501 0.0000
# 6 0.0000 0.0000 0.0000 0.0000 0.0000 23.2001
#
#
#
# Elastic Compliance Matrix: (Units=1/GPa)
#
#
# Indices 1 2 3 4 5 6 
#
# 1 0.015029 -0.008967 -0.001091 0.000000 0.000000 0.000000
# 2 -0.008967 0.011898 -0.000793 0.000000 0.000000 0.000000
# 3 -0.001091 -0.000793 0.037333 0.000000 0.000000 0.000000
# 4 0.000000 0.000000 0.000000 0.102720 0.000000 0.000000
# 5 0.000000 0.000000 0.000000 0.000000 0.103625 0.000000
# 6 0.000000 0.000000 0.000000 0.000000 0.000000 0.043103
#
#
# Mechanical properties :
#
#
# Convention : Reuss Voigt Hill
#
# Bulk Modulus (GPa) = 23.49693 56.75421 40.12557
# Shear Modulus (GPa) = 14.30220 21.80387 18.05303
#
# Velocity S-wave (km/s) = 2.84135 3.50825 3.19226
# Velocity P-wave (km/s) = 4.90182 6.96038 6.01975
#
# Compressibility (1/GPa) = 0.04255875
#
# Stress axis : x y z
#
# Youngs Moduli (GPa) = 66.53641 84.04910 26.78582
#
# Poissons Ratio (x) = 0.75365 0.02923
# Poissons Ratio (y) = 0.59661 0.02124
# Poissons Ratio (z) = 0.07260 0.06664
#
# Static dielectric constant tensor:
#      x y z
#    x 1.593610 0.000000 0.000000 
#    y 0.000000 1.635960 0.000000 
#    z 0.000000 0.000000 1.691790 
# 
# From -- ./inp_files/47573.got.cif
#   From: 2010.05.17/outbox.cif.g08.bks.cpg/sg63_24_cif.got.tgz:47573.got - 2010.06.03 15:47:04.
