data_PCOD9468911
_publ_section_title
;
Structure prediction by ZEFSAII (Michael W. Deem and Ramdas Pophale) SiO2 
 PCOD9468911
Probable space group: C M C M
;
_chemical_formula_sum "Si O2"
_cell_formula_units_Z 80
_cell_length_a 26.986438
_cell_length_b 19.922817
_cell_length_c 8.318343
_cell_angle_alpha 90.000000
_cell_angle_beta 90.000000
_cell_angle_gamma 90.000000
_cell_volume 4472.322724
_symmetry_space_group_name_H-M "C M C M"
_symmetry_group_IT_number 63
_symmetry_cell_setting 'orthorhombic'
loop_
_space_group_symop_operation_xyz
x,y,z
-x,-y,1/2+z
x,-y,-z
-x,y,1/2-z
-x,-y,-z
x,y,1/2-z
-x,y,z
x,-y,1/2+z
1/2+x,1/2+y,z
1/2-x,1/2-y,1/2+z
1/2+x,1/2-y,-z
1/2-x,1/2+y,1/2-z
1/2-x,1/2-y,-z
1/2+x,1/2+y,1/2-z
1/2-x,1/2+y,z
1/2+x,1/2-y,1/2+z
loop_
_atom_site_type_symbol
_atom_site_label
_atom_site_fract_x
_atom_site_fract_y
_atom_site_fract_z
Si Si1 0.305417 0.674661 0.055611
Si Si2 0.000000 0.077230 0.056229
Si Si3 0.193264 0.673959 0.444235
Si Si4 0.500000 0.922767 0.059139
Si Si5 0.391991 0.423076 0.555318
Si Si6 0.394245 0.923056 0.557595
O O1 0.305683 0.673987 0.250000
O O2 0.249405 0.656924 0.002434
O O3 0.346948 0.622899 0.997642
O O4 0.316534 0.750162 0.999794
O O5 0.946363 0.103940 0.002325
O O6 0.000000 0.079529 0.250000
O O7 0.000000 0.000000 0.000000
O O8 0.192838 0.672769 0.250000
O O9 0.151287 0.622486 0.501329
O O10 0.500000 0.921793 0.250000
O O11 0.552303 0.894832 0.997539
O O12 0.500000 0.000000 0.000000
O O13 0.386852 0.500000 0.500000
O O14 0.391371 0.422946 0.750000
O O15 0.394007 0.923968 0.750000
O O16 0.389408 0.000000 0.500000
#
# Coordination Sequence:
#
# PCOD9468911 Si02
#       6
#    16   8  16   8  16  16
#     4   9  18  33  50  68  93 126 162 198 237 281
#     4   8  14  26  43  64  91 121 149 181 225 270
#     4   9  19  34  50  68  93 126 160 195 238 285
#     4  10  18  30  49  72  97 125 157 191 235 286
#     4   9  17  29  47  70  95 122 154 192 231 273
#     4  10  19  32  50  72  98 125 157 197 240 287
#
# _framework density 17.887796999999999
#
# number of rings (size 3 to 8) (size 9 to 14) (size 15 to 20)
#    0.000    2.800    0.000    2.700    0.000    3.200 
#    0.000    1.000    0.000    1.200    0.000    0.000 
#    0.000    0.000    0.000    0.000    0.000    0.000 
#
# Total GULP energy -222806.453450 kJ/mol
# GULP energy per Si atom -5570.161336 kJ/mol
# Density = 1.784708 g / cm^3
# Si number density = 17.887797 Si / 1000 Ang^3
#
#
#
# Elastic Constant Matrix: (Units=GPa)
#
#
# Indices 1 2 3 4 5 6 
#
# 1 208.4602 103.5171 23.8503 0.0000 0.0000 0.0000
# 2 103.5171 72.7641 9.7490 0.0000 0.0000 0.0000
# 3 23.8503 9.7490 23.4018 0.0000 0.0000 0.0000
# 4 0.0000 0.0000 0.0000 23.2481 0.0000 0.0000
# 5 0.0000 0.0000 0.0000 0.0000 4.6102 0.0000
# 6 0.0000 0.0000 0.0000 0.0000 0.0000 -23.2476
#
#
#
# Elastic Compliance Matrix: (Units=1/GPa)
#
#
# Indices 1 2 3 4 5 6 
#
# 1 0.017642 -0.024030 -0.007969 0.000000 0.000000 0.000000
# 2 -0.024030 0.047287 0.004791 0.000000 0.000000 0.000000
# 3 -0.007969 0.004791 0.048858 0.000000 0.000000 0.000000
# 4 0.000000 0.000000 0.000000 0.043014 0.000000 0.000000
# 5 0.000000 0.000000 0.000000 0.000000 0.216910 0.000000
# 6 0.000000 0.000000 0.000000 0.000000 0.000000 -0.043015
#
#
# Mechanical properties :
#
#
# Convention : Reuss Voigt Hill
#
# Bulk Modulus (GPa) = 16.84338 64.31766 40.58052
# Shear Modulus (GPa) = 12.34868 12.08947 12.21908
#
# Velocity S-wave (km/s) = 2.63028 2.60253 2.61645
# Velocity P-wave (km/s) = 4.31985 6.71306 5.64474
#
# Compressibility (1/GPa) = 0.05937050
#
# Stress axis : x y z
#
# Youngs Moduli (GPa) = 56.68419 21.14744 20.46762
#
# Poissons Ratio (x) = 0.50817 0.16311
# Poissons Ratio (y) = 1.36212 -0.09806
# Poissons Ratio (z) = 0.45172 -0.10132
#
# Static dielectric constant tensor:
#      x y z
#    x 1.671300 0.000000 0.000000 
#    y 0.000000 1.564400 0.000000 
#    z 0.000000 0.000000 1.613800 
# 
# From -- ./inp_files/10068.got.cif
#   From: 2010.05.17/outbox.cif.g08.bks.cpg/sg63_6_cif.got.tgz:10068.got - 2010.06.03 15:47:04.
