data_PCOD9468629
_publ_section_title
;
Structure prediction by ZEFSAII (Michael W. Deem and Ramdas Pophale) SiO2 
 PCOD9468629
Probable space group: C M C M
;
_chemical_formula_sum "Si O2"
_cell_formula_units_Z 88
_cell_length_a 18.429999
_cell_length_b 28.298245
_cell_length_c 7.437936
_cell_angle_alpha 90.000000
_cell_angle_beta 90.000000
_cell_angle_gamma 90.000000
_cell_volume 3879.156054
_symmetry_space_group_name_H-M "C M C M"
_symmetry_group_IT_number 63
_symmetry_cell_setting 'orthorhombic'
loop_
_space_group_symop_operation_xyz
x,y,z
-x,-y,1/2+z
x,-y,-z
-x,y,1/2-z
-x,-y,-z
x,y,1/2-z
-x,y,z
x,-y,1/2+z
1/2+x,1/2+y,z
1/2-x,1/2-y,1/2+z
1/2+x,1/2-y,-z
1/2-x,1/2+y,1/2-z
1/2-x,1/2-y,-z
1/2+x,1/2+y,1/2-z
1/2-x,1/2+y,z
1/2+x,1/2-y,1/2+z
loop_
_atom_site_type_symbol
_atom_site_label
_atom_site_fract_x
_atom_site_fract_y
_atom_site_fract_z
Si Si1 0.500000 0.555907 0.535180
Si Si2 0.767064 0.448608 0.464984
Si Si3 0.084507 0.216356 0.969599
Si Si4 0.080714 0.575953 0.544641
Si Si5 0.639472 0.615891 0.970176
Si Si6 0.087536 0.318079 0.544854
O O1 0.500000 0.500000 0.500000
O O2 0.500000 0.561422 0.750000
O O3 0.428054 0.583200 0.470934
O O4 0.734122 0.500000 0.500000
O O5 0.773058 0.442606 0.250000
O O6 0.848570 0.447031 0.541469
O O7 0.713907 0.407925 0.531412
O O8 0.085001 0.218256 0.750000
O O9 0.127314 0.169871 0.026236
O O10 0.113179 0.267694 0.030471
O O11 0.000000 0.210326 0.022333
O O12 0.075231 0.559175 0.750000
O O13 0.099073 0.631991 0.548428
O O14 0.000000 0.570094 0.463449
O O15 0.639399 0.615758 0.750000
O O16 0.113181 0.323375 0.750000
O O17 0.000000 0.312552 0.549391
#
# Coordination Sequence:
#
# PCOD9468629 Si02
#       6
#     8  16  16  16  16  16
#     4  10  18  28  46  68  90 120 156 192 229 268
#     4  10  21  35  50  68  91 121 155 193 236 276
#     4   8  12  22  43  71  97 120 151 188 221 261
#     4   9  18  33  50  67  91 123 155 186 228 284
#     4   9  16  28  46  69  94 121 154 189 227 270
#     4   8  14  25  46  74  96 116 148 190 230 265
#
# _framework density 22.685345999999999
#
# number of rings (size 3 to 8) (size 9 to 14) (size 15 to 20)
#    0.000    3.091    0.909    1.636    0.000    1.091 
#    0.000    0.909    0.000    2.182    0.000    0.000 
#    0.000    0.000    0.000    0.000    0.000    0.000 
#
# Total GULP energy -245404.786251 kJ/mol
# GULP energy per Si atom -5577.381506 kJ/mol
# Density = 2.263371 g / cm^3
# Si number density = 22.685346 Si / 1000 Ang^3
#
#
#
# Elastic Constant Matrix: (Units=GPa)
#
#
# Indices 1 2 3 4 5 6 
#
# 1 76.7981 11.3711 6.4776 0.0000 0.0000 0.0000
# 2 11.3711 77.8471 -9.2931 0.0000 0.0000 0.0000
# 3 6.4776 -9.2931 71.3616 0.0000 0.0000 0.0000
# 4 0.0000 0.0000 0.0000 18.3958 0.0000 0.0000
# 5 0.0000 0.0000 0.0000 0.0000 11.1684 0.0000
# 6 0.0000 0.0000 0.0000 0.0000 0.0000 29.6372
#
#
#
# Elastic Compliance Matrix: (Units=1/GPa)
#
#
# Indices 1 2 3 4 5 6 
#
# 1 0.013466 -0.002146 -0.001502 0.000000 0.000000 0.000000
# 2 -0.002146 0.013391 0.001939 0.000000 0.000000 0.000000
# 3 -0.001502 0.001939 0.014402 0.000000 0.000000 0.000000
# 4 0.000000 0.000000 0.000000 0.054360 0.000000 0.000000
# 5 0.000000 0.000000 0.000000 0.000000 0.089538 0.000000
# 6 0.000000 0.000000 0.000000 0.000000 0.000000 0.033741
#
#
# Mechanical properties :
#
#
# Convention : Reuss Voigt Hill
#
# Bulk Modulus (GPa) = 26.42749 27.01312 26.72031
# Shear Modulus (GPa) = 21.28298 26.33705 23.81001
#
# Velocity S-wave (km/s) = 3.06630 3.41100 3.24323
# Velocity P-wave (km/s) = 4.92048 5.23897 5.08222
#
# Compressibility (1/GPa) = 0.03783939
#
# Stress axis : x y z
#
# Youngs Moduli (GPa) = 74.26329 74.67921 69.43521
#
# Poissons Ratio (x) = 0.16028 0.10428
# Poissons Ratio (y) = 0.15938 -0.13461
# Poissons Ratio (z) = 0.11153 -0.14477
#
# Static dielectric constant tensor:
#      x y z
#    x 1.837940 0.000000 0.000000 
#    y 0.000000 1.847320 0.000000 
#    z 0.000000 0.000000 1.857840 
# 
# From -- ./inp_files/6867.got.cif
#   From: 2010.05.17/outbox.cif.g08.bks.cpg/sg63_4_cif.got.tgz:6867.got - 2010.06.03 15:47:04.
