data_PCOD9468620
_publ_section_title
;
Structure prediction by ZEFSAII (Michael W. Deem and Ramdas Pophale) SiO2 
 PCOD9468620
Probable space group: C M C M
;
_chemical_formula_sum "Si O2"
_cell_formula_units_Z 112
_cell_length_a 14.402553
_cell_length_b 28.253438
_cell_length_c 14.210385
_cell_angle_alpha 90.000000
_cell_angle_beta 90.000000
_cell_angle_gamma 90.000000
_cell_volume 5782.513144
_symmetry_space_group_name_H-M "C M C M"
_symmetry_group_IT_number 63
_symmetry_cell_setting 'orthorhombic'
loop_
_space_group_symop_operation_xyz
x,y,z
-x,-y,1/2+z
x,-y,-z
-x,y,1/2-z
-x,-y,-z
x,y,1/2-z
-x,y,z
x,-y,1/2+z
1/2+x,1/2+y,z
1/2-x,1/2-y,1/2+z
1/2+x,1/2-y,-z
1/2-x,1/2+y,1/2-z
1/2-x,1/2-y,-z
1/2+x,1/2+y,1/2-z
1/2-x,1/2+y,z
1/2+x,1/2-y,1/2+z
loop_
_atom_site_type_symbol
_atom_site_label
_atom_site_fract_x
_atom_site_fract_y
_atom_site_fract_z
Si Si1 0.204028 0.332313 0.364043
Si Si2 0.387797 0.075102 0.545968
Si Si3 0.113518 0.131897 0.142384
Si Si4 0.601902 0.368141 0.361579
Si Si5 0.113013 0.523554 0.356183
Si Si6 0.606932 0.264407 0.864793
Si Si7 0.111415 0.052338 0.500059
O O1 0.190902 0.337552 0.250000
O O2 0.157182 0.376976 0.415441
O O3 0.313529 0.334191 0.384315
O O4 0.161920 0.282142 0.393514
O O5 0.500000 0.079768 0.549469
O O6 0.361094 0.059928 0.439465
O O7 0.361971 0.029648 0.610362
O O8 0.142385 0.125408 0.250000
O O9 0.143471 0.183770 0.107171
O O10 0.000000 0.133021 0.141514
O O11 0.145238 0.088595 0.078873
O O12 0.596660 0.370943 0.250000
O O13 0.500000 0.354247 0.399415
O O14 0.623935 0.419753 0.403018
O O15 0.146224 0.533376 0.250000
O O16 0.000000 0.524290 0.354424
O O17 0.606864 0.265605 0.750000
O O18 0.500000 0.259721 0.894991
O O19 0.000000 0.048039 0.484707
O O20 0.151580 0.000000 0.500000
#
# Coordination Sequence:
#
# PCOD9468620 Si02
#       7
#    16  16  16  16  16  16  16
#     4  10  18  28  45  68  94 127 166 206 252 304
#     4   9  16  25  41  67  94 122 161 206 250 303
#     4   8  14  26  46  73 103 129 152 188 249 315
#     4   9  19  35  50  65  91 126 166 213 259 300
#     4   8  14  25  39  58  90 127 160 201 253 302
#     4   8  14  25  43  71 105 133 154 188 246 308
#     4   9  17  30  49  71  93 122 162 205 247 291
#
# _framework density 19.368742000000001
#
# number of rings (size 3 to 8) (size 9 to 14) (size 15 to 20)
#    0.000    3.286    0.000    2.571    0.000    2.000 
#    2.571    3.571    0.000    0.857    0.000    1.000 
#    0.000    5.714    0.000    0.286    0.000   31.571 
#
# Total GULP energy -312191.141067 kJ/mol
# GULP energy per Si atom -5574.841805 kJ/mol
# Density = 1.932466 g / cm^3
# Si number density = 19.368742 Si / 1000 Ang^3
#
#
#
# Elastic Constant Matrix: (Units=GPa)
#
#
# Indices 1 2 3 4 5 6 
#
# 1 68.4512 51.4369 20.8437 0.0000 0.0000 0.0000
# 2 51.4369 165.7670 48.2267 0.0000 0.0000 0.0000
# 3 20.8437 48.2267 89.3861 0.0000 0.0000 0.0000
# 4 0.0000 0.0000 0.0000 26.3247 0.0000 0.0000
# 5 0.0000 0.0000 0.0000 0.0000 7.6737 0.0000
# 6 0.0000 0.0000 0.0000 0.0000 0.0000 -6.1877
#
#
#
# Elastic Compliance Matrix: (Units=1/GPa)
#
#
# Indices 1 2 3 4 5 6 
#
# 1 0.019219 -0.005527 -0.001499 0.000000 0.000000 0.000000
# 2 -0.005527 0.008745 -0.003430 0.000000 0.000000 0.000000
# 3 -0.001499 -0.003430 0.013387 0.000000 0.000000 0.000000
# 4 0.000000 0.000000 0.000000 0.037987 0.000000 0.000000
# 5 0.000000 0.000000 0.000000 0.000000 0.130315 0.000000
# 6 0.000000 0.000000 0.000000 0.000000 0.000000 -0.161612
#
#
# Mechanical properties :
#
#
# Convention : Reuss Voigt Hill
#
# Bulk Modulus (GPa) = 48.92561 62.73541 55.83051
# Shear Modulus (GPa) = 65.99090 19.10195 42.54642
#
# Velocity S-wave (km/s) = 5.84335 3.14383 4.69193
# Velocity P-wave (km/s) = 8.41673 6.75563 7.63151
#
# Compressibility (1/GPa) = 0.02043919
#
# Stress axis : x y z
#
# Youngs Moduli (GPa) = 52.03187 114.34537 74.69695
#
# Poissons Ratio (x) = 0.63203 0.11200
# Poissons Ratio (y) = 0.28760 0.25618
# Poissons Ratio (z) = 0.07802 0.39215
#
# Static dielectric constant tensor:
#      x y z
#    x 1.710250 0.000000 0.000000 
#    y 0.000000 1.653220 0.000000 
#    z 0.000000 0.000000 1.699030 
# 
# From -- ./inp_files/32548.got.cif
#   From: 2010.05.17/outbox.cif.g08.bks.cpg/sg63_17_cif.got.tgz:32548.got - 2010.06.03 15:47:04.
