data_PCOD9468199
_publ_section_title
;
Structure prediction by ZEFSAII (Michael W. Deem and Ramdas Pophale) SiO2 
 PCOD9468199
Probable space group: C M C M
;
_chemical_formula_sum "Si O2"
_cell_formula_units_Z 80
_cell_length_a 11.974638
_cell_length_b 21.136676
_cell_length_c 13.711357
_cell_angle_alpha 90.000000
_cell_angle_beta 90.000000
_cell_angle_gamma 90.000000
_cell_volume 3470.399900
_symmetry_space_group_name_H-M "C M C M"
_symmetry_group_IT_number 63
_symmetry_cell_setting 'orthorhombic'
loop_
_space_group_symop_operation_xyz
x,y,z
-x,-y,1/2+z
x,-y,-z
-x,y,1/2-z
-x,-y,-z
x,y,1/2-z
-x,y,z
x,-y,1/2+z
1/2+x,1/2+y,z
1/2-x,1/2-y,1/2+z
1/2+x,1/2-y,-z
1/2-x,1/2+y,1/2-z
1/2-x,1/2-y,-z
1/2+x,1/2+y,1/2-z
1/2-x,1/2+y,z
1/2+x,1/2-y,1/2+z
loop_
_atom_site_type_symbol
_atom_site_label
_atom_site_fract_x
_atom_site_fract_y
_atom_site_fract_z
Si Si1 0.500000 0.686026 0.136304
Si Si2 0.000000 0.950253 0.913280
Si Si3 0.716077 0.226228 0.633771
Si Si4 0.753767 0.536825 0.137839
Si Si5 0.128644 0.334550 0.630564
Si Si6 0.130175 0.409104 0.130627
O O1 0.500000 0.662225 0.250000
O O2 0.500000 0.625091 0.067473
O O3 0.392360 0.729462 0.124802
O O4 0.119830 0.961959 0.863858
O O5 0.000000 0.000000 0.000000
O O6 0.736686 0.218529 0.750000
O O7 0.817299 0.268821 0.594601
O O8 0.687695 0.156234 0.598009
O O9 0.791145 0.536198 0.250000
O O10 0.804084 0.602703 0.099667
O O11 0.802711 0.471191 0.097642
O O12 0.134418 0.332565 0.750000
O O13 0.000000 0.339580 0.602892
O O14 0.130509 0.407292 0.250000
O O15 0.000000 0.412241 0.101812
#
# Coordination Sequence:
#
# PCOD9468199 Si02
#       6
#     8   8  16  16  16  16
#     4  10  16  30  56  80  98 125 173 218 254 301
#     4  12  24  36  52  74 102 135 176 222 263 306
#     4   9  15  25  46  77 107 131 165 211 253 299
#     4  10  19  33  53  76 103 135 169 210 260 308
#     4   9  16  26  44  73 105 133 163 203 251 298
#     4   9  16  27  47  79 111 134 164 208 255 304
#
# _framework density 23.052099999999999
#
# number of rings (size 3 to 8) (size 9 to 14) (size 15 to 20)
#    0.000    2.400    3.000    1.500    0.000    2.400 
#    1.800    0.000    0.000    3.600    0.000    0.000 
#    0.000    0.000    0.000    0.000    0.000    0.000 
#
# Total GULP energy -223611.194839 kJ/mol
# GULP energy per Si atom -5590.279871 kJ/mol
# Density = 2.299963 g / cm^3
# Si number density = 23.052100 Si / 1000 Ang^3
#
#
#
# Elastic Constant Matrix: (Units=GPa)
#
#
# Indices 1 2 3 4 5 6 
#
# 1 153.9511 107.5520 14.1292 0.0000 0.0000 0.0000
# 2 107.5520 234.1816 42.3727 0.0000 0.0000 0.0000
# 3 14.1292 42.3727 66.5688 0.0000 0.0000 0.0000
# 4 0.0000 0.0000 0.0000 40.5655 0.0000 0.0000
# 5 0.0000 0.0000 0.0000 0.0000 -17.9464 0.0000
# 6 0.0000 0.0000 0.0000 0.0000 0.0000 2.7322
#
#
#
# Elastic Compliance Matrix: (Units=1/GPa)
#
#
# Indices 1 2 3 4 5 6 
#
# 1 0.009609 -0.004570 0.000870 0.000000 0.000000 0.000000
# 2 -0.004570 0.007000 -0.003486 0.000000 0.000000 0.000000
# 3 0.000870 -0.003486 0.017056 0.000000 0.000000 0.000000
# 4 0.000000 0.000000 0.000000 0.024652 0.000000 0.000000
# 5 0.000000 0.000000 0.000000 0.000000 -0.055722 0.000000
# 6 0.000000 0.000000 0.000000 0.000000 0.000000 0.366006
#
#
# Mechanical properties :
#
#
# Convention : Reuss Voigt Hill
#
# Bulk Modulus (GPa) = 51.83425 86.97880 69.40652
# Shear Modulus (GPa) = 12.84016 24.44676 18.64346
#
# Velocity S-wave (km/s) = 2.36266 3.26007 2.84694
# Velocity P-wave (km/s) = 5.47516 7.20999 6.40162
#
# Compressibility (1/GPa) = 0.01929226
#
# Stress axis : x y z
#
# Youngs Moduli (GPa) = 104.07346 142.86045 58.63005
#
# Poissons Ratio (x) = 0.65291 -0.05099
# Poissons Ratio (y) = 0.47564 0.20436
# Poissons Ratio (z) = -0.09051 0.49794
#
# Static dielectric constant tensor:
#      x y z
#    x 1.798050 0.000000 0.000000 
#    y 0.000000 1.822530 0.000000 
#    z 0.000000 0.000000 1.962030 
# 
# From -- ./inp_files/42193.got.cif
#   From: 2010.05.17/outbox.cif.g08.bks.cpg/sg63_22_cif.got.tgz:42193.got - 2010.06.03 15:47:04.
