data_PCOD9468271
_publ_section_title
;
Structure prediction by ZEFSAII (Michael W. Deem and Ramdas Pophale) SiO2 
 PCOD9468271
Probable space group: C M C M
;
_chemical_formula_sum "Si O2"
_cell_formula_units_Z 96
_cell_length_a 27.477510
_cell_length_b 29.753834
_cell_length_c 8.601183
_cell_angle_alpha 90.000000
_cell_angle_beta 90.000000
_cell_angle_gamma 90.000000
_cell_volume 7031.994108
_symmetry_space_group_name_H-M "C M C M"
_symmetry_group_IT_number 63
_symmetry_cell_setting 'orthorhombic'
loop_
_space_group_symop_operation_xyz
x,y,z
-x,-y,1/2+z
x,-y,-z
-x,y,1/2-z
-x,-y,-z
x,y,1/2-z
-x,y,z
x,-y,1/2+z
1/2+x,1/2+y,z
1/2-x,1/2-y,1/2+z
1/2+x,1/2-y,-z
1/2-x,1/2+y,1/2-z
1/2-x,1/2-y,-z
1/2+x,1/2+y,1/2-z
1/2-x,1/2+y,z
1/2+x,1/2-y,1/2+z
loop_
_atom_site_type_symbol
_atom_site_label
_atom_site_fract_x
_atom_site_fract_y
_atom_site_fract_z
Si Si1 0.295742 0.721398 0.563388
Si Si2 0.445340 0.139614 0.438107
Si Si3 0.146613 0.695909 0.438896
Si Si4 0.712123 0.048295 0.564179
Si Si5 0.743335 0.859270 0.935990
Si Si6 0.598143 0.951611 0.436238
O O1 0.293662 0.719668 0.750000
O O2 0.250000 0.750000 0.500000
O O3 0.341490 0.752615 0.516565
O O4 0.287180 0.671878 0.496882
O O5 0.444087 0.139236 0.250000
O O6 0.500000 0.151515 0.487459
O O7 0.403520 0.173952 0.493581
O O8 0.431469 0.090034 0.496326
O O9 0.146282 0.694930 0.250000
O O10 0.192547 0.664898 0.487608
O O11 0.714079 0.048087 0.750000
O O12 0.741685 0.090366 0.498732
O O13 0.655120 0.054006 0.517187
O O14 0.728145 0.000000 0.500000
O O15 0.743837 0.859252 0.750000
O O16 0.595428 0.951647 0.250000
O O17 0.581838 0.000000 0.500000
#
# Coordination Sequence:
#
# PCOD9468271 Si02
#       6
#    16  16  16  16  16  16
#     4   9  16  26  40  59  80 100 125 156 194 237
#     4  10  19  31  46  60  75  99 130 164 205 247
#     4   8  15  27  41  57  77  99 123 159 198 234
#     4  10  19  29  42  60  79 104 132 162 199 240
#     4  10  17  27  43  60  80 102 126 160 196 236
#     4  10  20  32  45  58  73  96 128 167 208 247
#
# _framework density 13.651888
#
# number of rings (size 3 to 8) (size 9 to 14) (size 15 to 20)
#    0.000    2.500    1.667    3.000    0.000    2.000 
#    0.000    0.833    0.000    0.000    0.000    0.000 
#    0.000    0.000    0.000    0.000    0.000    0.833 
#
# Total GULP energy -267422.651125 kJ/mol
# GULP energy per Si atom -5571.305232 kJ/mol
# Density = 1.362082 g / cm^3
# Si number density = 13.651888 Si / 1000 Ang^3
#
#
#
# Elastic Constant Matrix: (Units=GPa)
#
#
# Indices 1 2 3 4 5 6 
#
# 1 57.9198 58.1728 13.5746 0.0000 0.0000 0.0000
# 2 58.1728 114.9182 26.4598 0.0000 0.0000 0.0000
# 3 13.5746 26.4598 26.8328 0.0000 0.0000 0.0000
# 4 0.0000 0.0000 0.0000 22.0896 0.0000 0.0000
# 5 0.0000 0.0000 0.0000 0.0000 10.1310 0.0000
# 6 0.0000 0.0000 0.0000 0.0000 0.0000 18.2908
#
#
#
# Elastic Compliance Matrix: (Units=1/GPa)
#
#
# Indices 1 2 3 4 5 6 
#
# 1 0.035124 -0.017710 -0.000306 0.000000 0.000000 0.000000
# 2 -0.017710 0.020187 -0.010947 0.000000 0.000000 0.000000
# 3 -0.000306 -0.010947 0.048218 0.000000 0.000000 0.000000
# 4 0.000000 0.000000 0.000000 0.045270 0.000000 0.000000
# 5 0.000000 0.000000 0.000000 0.000000 0.098707 0.000000
# 6 0.000000 0.000000 0.000000 0.000000 0.000000 0.054672
#
#
# Mechanical properties :
#
#
# Convention : Reuss Voigt Hill
#
# Bulk Modulus (GPa) = 21.92813 44.00948 32.96880
# Shear Modulus (GPa) = 13.32250 16.86652 15.09451
#
# Velocity S-wave (km/s) = 3.12728 3.51874 3.32877
# Velocity P-wave (km/s) = 5.39788 6.98682 6.24310
#
# Compressibility (1/GPa) = 0.04560353
#
# Stress axis : x y z
#
# Youngs Moduli (GPa) = 28.47053 49.53597 20.73933
#
# Poissons Ratio (x) = 0.87727 0.00634
# Poissons Ratio (y) = 0.50421 0.22704
# Poissons Ratio (z) = 0.00870 0.54229
#
# Static dielectric constant tensor:
#      x y z
#    x 1.443890 0.000000 0.000000 
#    y 0.000000 1.445570 0.000000 
#    z 0.000000 0.000000 1.455540 
# 
# From -- ./inp_files/10675.got.cif
#   From: 2010.05.17/outbox.cif.g08.bks.cpg/sg63_6_cif.got.tgz:10675.got - 2010.06.03 15:47:04.
