data_PCOD9468497
_publ_section_title
;
Structure prediction by ZEFSAII (Michael W. Deem and Ramdas Pophale) SiO2 
 PCOD9468497
Probable space group: C M C M
;
_chemical_formula_sum "Si O2"
_cell_formula_units_Z 128
_cell_length_a 23.773314
_cell_length_b 21.709864
_cell_length_c 17.775398
_cell_angle_alpha 90.000000
_cell_angle_beta 90.000000
_cell_angle_gamma 90.000000
_cell_volume 9174.156894
_symmetry_space_group_name_H-M "C M C M"
_symmetry_group_IT_number 63
_symmetry_cell_setting 'orthorhombic'
loop_
_space_group_symop_operation_xyz
x,y,z
-x,-y,1/2+z
x,-y,-z
-x,y,1/2-z
-x,-y,-z
x,y,1/2-z
-x,y,z
x,-y,1/2+z
1/2+x,1/2+y,z
1/2-x,1/2-y,1/2+z
1/2+x,1/2-y,-z
1/2-x,1/2+y,1/2-z
1/2-x,1/2-y,-z
1/2+x,1/2+y,1/2-z
1/2-x,1/2+y,z
1/2+x,1/2-y,1/2+z
loop_
_atom_site_type_symbol
_atom_site_label
_atom_site_fract_x
_atom_site_fract_y
_atom_site_fract_z
Si Si1 0.276061 0.846742 0.531563
Si Si2 0.836079 0.864124 0.336197
Si Si3 0.247073 0.567318 0.337301
Si Si4 0.665532 0.278646 0.027819
Si Si5 0.065848 0.063225 0.611027
Si Si6 0.258509 0.455847 0.067822
Si Si7 0.434075 0.355898 0.965482
Si Si8 0.616982 0.565923 0.161617
O O1 0.276230 0.876589 0.613825
O O2 0.321459 0.793275 0.521381
O O3 0.215301 0.814838 0.516359
O O4 0.278525 0.903893 0.473511
O O5 0.817213 0.859614 0.250000
O O6 0.829689 0.802920 0.386162
O O7 0.900317 0.886994 0.339888
O O8 0.803047 0.917276 0.382928
O O9 0.233116 0.570184 0.250000
O O10 0.228668 0.503346 0.376132
O O11 0.315321 0.567574 0.345285
O O12 0.606270 0.302023 0.995804
O O13 0.072550 0.087925 0.525625
O O14 0.000000 0.060765 0.627922
O O15 0.092952 0.997404 0.627788
O O16 0.281861 0.500000 0.000000
O O17 0.500000 0.340361 0.962818
O O18 0.410955 0.379820 0.886214
O O19 0.603345 0.568584 0.250000
#
# Coordination Sequence:
#
# PCOD9468497 Si02
#       8
#    16  16  16  16  16  16  16  16
#     4   9  17  30  46  61  79 114 144 178 207 256
#     4  10  18  27  40  56  78 108 140 177 215 248
#     4  10  18  27  43  66  91 112 135 174 218 257
#     4   9  18  31  45  59  80 108 151 180 212 249
#     4  10  20  29  39  56  79 112 152 186 210 238
#     4   9  17  27  43  60  80 106 136 165 209 258
#     4  10  20  32  45  59  81 113 150 189 217 245
#     4  11  20  28  40  60  87 115 145 181 216 249
#
# _framework density 13.952235999999999
#
# number of rings (size 3 to 8) (size 9 to 14) (size 15 to 20)
#    0.000    2.250    2.500    1.500    1.750    3.250 
#    0.000    0.000    0.000    0.750    0.000    0.000 
#    0.000    4.500    0.000    0.250    0.000    0.500 
#
# Total GULP energy -356524.036996 kJ/mol
# GULP energy per Si atom -5570.688078 kJ/mol
# Density = 1.392048 g / cm^3
# Si number density = 13.952236 Si / 1000 Ang^3
#
#
#
# Elastic Constant Matrix: (Units=GPa)
#
#
# Indices 1 2 3 4 5 6 
#
# 1 38.2849 36.7465 26.7727 0.0000 0.0000 0.0000
# 2 36.7465 91.9224 51.6283 0.0000 0.0000 0.0000
# 3 26.7727 51.6283 98.2191 0.0000 0.0000 0.0000
# 4 0.0000 0.0000 0.0000 6.3944 0.0000 0.0000
# 5 0.0000 0.0000 0.0000 0.0000 8.7167 0.0000
# 6 0.0000 0.0000 0.0000 0.0000 0.0000 14.8417
#
#
#
# Elastic Compliance Matrix: (Units=1/GPa)
#
#
# Indices 1 2 3 4 5 6 
#
# 1 0.043381 -0.015183 -0.003844 0.000000 0.000000 0.000000
# 2 -0.015183 0.020750 -0.006768 0.000000 0.000000 0.000000
# 3 -0.003844 -0.006768 0.014787 0.000000 0.000000 0.000000
# 4 0.000000 0.000000 0.000000 0.156387 0.000000 0.000000
# 5 0.000000 0.000000 0.000000 0.000000 0.114722 0.000000
# 6 0.000000 0.000000 0.000000 0.000000 0.000000 0.067378
#
#
# Mechanical properties :
#
#
# Convention : Reuss Voigt Hill
#
# Bulk Modulus (GPa) = 36.59392 50.96905 43.78149
# Shear Modulus (GPa) = 10.45798 13.54249 12.00023
#
# Velocity S-wave (km/s) = 2.74077 3.11888 2.93592
# Velocity P-wave (km/s) = 6.02501 7.04133 6.55290
#
# Compressibility (1/GPa) = 0.02732694
#
# Stress axis : x y z
#
# Youngs Moduli (GPa) = 23.05169 48.19373 67.62738
#
# Poissons Ratio (x) = 0.73171 0.25997
# Poissons Ratio (y) = 0.34999 0.45773
# Poissons Ratio (z) = 0.08861 0.32619
#
# Static dielectric constant tensor:
#      x y z
#    x 1.446540 0.000000 0.000000 
#    y 0.000000 1.456150 0.000000 
#    z 0.000000 0.000000 1.490160 
# 
# From -- ./inp_files/48497.got.cif
#   From: 2010.05.17/outbox.cif.g08.bks.cpg/sg63_25_cif.got.tgz:48497.got - 2010.06.03 15:47:04.
