data_PCOD9468884
_publ_section_title
;
Structure prediction by ZEFSAII (Michael W. Deem and Ramdas Pophale) SiO2 
 PCOD9468884
Probable space group: C M C M
;
_chemical_formula_sum "Si O2"
_cell_formula_units_Z 120
_cell_length_a 29.795152
_cell_length_b 28.037245
_cell_length_c 8.458936
_cell_angle_alpha 90.000000
_cell_angle_beta 90.000000
_cell_angle_gamma 90.000000
_cell_volume 7066.375003
_symmetry_space_group_name_H-M "C M C M"
_symmetry_group_IT_number 63
_symmetry_cell_setting 'orthorhombic'
loop_
_space_group_symop_operation_xyz
x,y,z
-x,-y,1/2+z
x,-y,-z
-x,y,1/2-z
-x,-y,-z
x,y,1/2-z
-x,y,z
x,-y,1/2+z
1/2+x,1/2+y,z
1/2-x,1/2-y,1/2+z
1/2+x,1/2-y,-z
1/2-x,1/2+y,1/2-z
1/2-x,1/2-y,-z
1/2+x,1/2+y,1/2-z
1/2-x,1/2+y,z
1/2+x,1/2-y,1/2+z
loop_
_atom_site_type_symbol
_atom_site_label
_atom_site_fract_x
_atom_site_fract_y
_atom_site_fract_z
Si Si1 0.206520 0.195398 0.564961
Si Si2 0.086669 0.893178 0.438745
Si Si3 0.052105 0.789487 0.059892
Si Si4 0.271568 0.051374 0.437605
Si Si5 0.500000 0.446640 0.939630
Si Si6 0.800140 0.654143 0.941095
Si Si7 0.633237 0.231289 0.562261
Si Si8 0.320940 0.595458 0.063702
O O1 0.207490 0.208170 0.750000
O O2 0.257594 0.187061 0.504984
O O3 0.172726 0.230834 0.478042
O O4 0.186805 0.142567 0.540532
O O5 0.093483 0.893273 0.250000
O O6 0.076699 0.838565 0.491648
O O7 0.128573 0.917794 0.524211
O O8 0.042745 0.921034 0.487056
O O9 0.050080 0.791186 0.250000
O O10 0.000000 0.786648 0.003426
O O11 0.086177 0.747653 0.011265
O O12 0.276469 0.051469 0.250000
O O13 0.294324 0.099924 0.501859
O O14 0.218619 0.058844 0.476397
O O15 0.286997 0.000000 0.500000
O O16 0.500000 0.443639 0.750000
O O17 0.500000 0.500000 0.000000
O O18 0.797766 0.653833 0.750000
O O19 0.845641 0.680733 0.990462
O O20 0.627537 0.230257 0.750000
O O21 0.316389 0.607212 0.250000
#
# Coordination Sequence:
#
# PCOD9468884 Si02
#       8
#    16  16  16  16   8  16  16  16
#     4  10  18  30  48  71 102 139 173 206 251 302
#     4  11  21  37  57  75  99 130 168 215 268 322
#     4  10  21  37  55  75 102 137 175 213 262 320
#     4  10  21  36  55  76 102 136 174 215 256 304
#     4  12  26  42  58  74  94 122 164 220 277 324
#     4   9  20  35  50  73 106 140 173 212 255 304
#     4  11  21  32  50  77 107 136 171 214 259 310
#     4  10  20  33  50  75 101 130 171 214 257 304
#
# _framework density 16.981832000000001
#
# number of rings (size 3 to 8) (size 9 to 14) (size 15 to 20)
#    0.000    1.733    2.000    3.000    0.000    4.533 
#    0.000    1.333    0.000    0.000    0.000    0.000 
#    0.000    0.533    0.000    1.733    0.000    2.533 
#
# Total GULP energy -334688.612206 kJ/mol
# GULP energy per Si atom -5578.143537 kJ/mol
# Density = 1.694318 g / cm^3
# Si number density = 16.981832 Si / 1000 Ang^3
#
#
#
# Elastic Constant Matrix: (Units=GPa)
#
#
# Indices 1 2 3 4 5 6 
#
# 1 55.3776 37.7871 10.0494 0.0000 0.0000 0.0000
# 2 37.7871 80.4030 11.5631 0.0000 0.0000 0.0000
# 3 10.0494 11.5631 21.8768 0.0000 0.0000 0.0000
# 4 0.0000 0.0000 0.0000 21.7489 0.0000 0.0000
# 5 0.0000 0.0000 0.0000 0.0000 22.4477 0.0000
# 6 0.0000 0.0000 0.0000 0.0000 0.0000 13.4362
#
#
#
# Elastic Compliance Matrix: (Units=1/GPa)
#
#
# Indices 1 2 3 4 5 6 
#
# 1 0.027349 -0.011955 -0.006244 0.000000 0.000000 0.000000
# 2 -0.011955 0.018687 -0.004385 0.000000 0.000000 0.000000
# 3 -0.006244 -0.004385 0.050897 0.000000 0.000000 0.000000
# 4 0.000000 0.000000 0.000000 0.045979 0.000000 0.000000
# 5 0.000000 0.000000 0.000000 0.000000 0.044548 0.000000
# 6 0.000000 0.000000 0.000000 0.000000 0.000000 0.074426
#
#
# Mechanical properties :
#
#
# Convention : Reuss Voigt Hill
#
# Bulk Modulus (GPa) = 19.31873 30.71740 25.01806
# Shear Modulus (GPa) = 15.41747 18.07708 16.74728
#
# Velocity S-wave (km/s) = 3.01637 3.26620 3.14377
# Velocity P-wave (km/s) = 4.85100 5.68786 5.28601
#
# Compressibility (1/GPa) = 0.05176324
#
# Stress axis : x y z
#
# Youngs Moduli (GPa) = 36.56506 53.51450 19.64766
#
# Poissons Ratio (x) = 0.63977 0.12268
# Poissons Ratio (y) = 0.43714 0.08616
# Poissons Ratio (z) = 0.22831 0.23467
#
# Static dielectric constant tensor:
#      x y z
#    x 1.581430 0.000000 0.000000 
#    y 0.000000 1.573970 0.000000 
#    z 0.000000 0.000000 1.113120 
# 
# From -- ./inp_files/13138.got.cif
#   From: 2010.05.17/outbox.cif.g08.bks.cpg/sg63_7_cif.got.tgz:13138.got - 2010.06.03 15:47:04.
