data_PCOD9468574
_publ_section_title
;
Structure prediction by ZEFSAII (Michael W. Deem and Ramdas Pophale) SiO2 
 PCOD9468574
Probable space group: C M C M
;
_chemical_formula_sum "Si O2"
_cell_formula_units_Z 80
_cell_length_a 19.370319
_cell_length_b 12.831856
_cell_length_c 13.475731
_cell_angle_alpha 90.000000
_cell_angle_beta 90.000000
_cell_angle_gamma 90.000000
_cell_volume 3349.489212
_symmetry_space_group_name_H-M "C M C M"
_symmetry_group_IT_number 63
_symmetry_cell_setting 'orthorhombic'
loop_
_space_group_symop_operation_xyz
x,y,z
-x,-y,1/2+z
x,-y,-z
-x,y,1/2-z
-x,-y,-z
x,y,1/2-z
-x,y,z
x,-y,1/2+z
1/2+x,1/2+y,z
1/2-x,1/2-y,1/2+z
1/2+x,1/2-y,-z
1/2-x,1/2+y,1/2-z
1/2-x,1/2-y,-z
1/2+x,1/2+y,1/2-z
1/2-x,1/2+y,z
1/2+x,1/2-y,1/2+z
loop_
_atom_site_type_symbol
_atom_site_label
_atom_site_fract_x
_atom_site_fract_y
_atom_site_fract_z
Si Si1 0.500000 0.592060 0.082255
Si Si2 0.800907 0.375419 0.642316
Si Si3 0.500000 0.825993 0.365955
Si Si4 0.705049 0.377327 0.359186
Si Si5 0.643780 0.129888 0.932630
Si Si6 0.149440 0.118058 0.427133
O O1 0.500000 0.719538 0.065988
O O2 0.500000 0.500000 0.000000
O O3 0.421948 0.581843 0.122947
O O4 0.826701 0.407741 0.750000
O O5 0.797863 0.249112 0.641016
O O6 0.846958 0.401963 0.547395
O O7 0.721379 0.409175 0.625157
O O8 0.500000 0.792290 0.250000
O O9 0.430974 0.891052 0.387912
O O10 0.681655 0.409786 0.250000
O O11 0.785915 0.403619 0.377770
O O12 0.659480 0.407431 0.455086
O O13 0.647865 0.256023 0.925532
#
# Coordination Sequence:
#
# PCOD9468574 Si02
#       6
#     8  16   8  16  16  16
#     4  10  20  32  40  50  77 112 149 193 220 234
#     4   8  13  23  40  59  77  97 127 165 208 258
#     4  10  18  28  43  62  85 116 147 175 208 250
#     4   8  12  21  37  54  71  93 122 160 205 253
#     4   8  14  23  37  60  83 101 127 164 205 253
#     4   8  15  25  37  52  70  98 135 175 213 245
#
# _framework density 23.884238
#
# number of rings (size 3 to 8) (size 9 to 14) (size 15 to 20)
#    0.000    3.600    0.000    3.000    0.000    4.800 
#    0.000    2.000    0.000    7.200    0.000    0.000 
#    0.000    0.000    0.000   14.400    0.000   98.400 
#
# Total GULP energy -223141.597851 kJ/mol
# GULP energy per Si atom -5578.539946 kJ/mol
# Density = 2.382988 g / cm^3
# Si number density = 23.884238 Si / 1000 Ang^3
#
#
#
# Elastic Constant Matrix: (Units=GPa)
#
#
# Indices 1 2 3 4 5 6 
#
# 1 153.3193 42.5342 42.9901 0.0000 0.0000 0.0000
# 2 42.5342 79.8722 32.4344 0.0000 0.0000 0.0000
# 3 42.9901 32.4344 129.3723 0.0000 0.0000 0.0000
# 4 0.0000 0.0000 0.0000 34.7112 0.0000 0.0000
# 5 0.0000 0.0000 0.0000 0.0000 12.9850 0.0000
# 6 0.0000 0.0000 0.0000 0.0000 0.0000 36.6176
#
#
#
# Elastic Compliance Matrix: (Units=1/GPa)
#
#
# Indices 1 2 3 4 5 6 
#
# 1 0.008001 -0.003542 -0.001771 0.000000 0.000000 0.000000
# 2 -0.003542 0.015507 -0.002711 0.000000 0.000000 0.000000
# 3 -0.001771 -0.002711 0.008998 0.000000 0.000000 0.000000
# 4 0.000000 0.000000 0.000000 0.028809 0.000000 0.000000
# 5 0.000000 0.000000 0.000000 0.000000 0.077012 0.000000
# 6 0.000000 0.000000 0.000000 0.000000 0.000000 0.027309
#
#
# Mechanical properties :
#
#
# Convention : Reuss Voigt Hill
#
# Bulk Modulus (GPa) = 60.75672 66.49789 63.62731
# Shear Modulus (GPa) = 26.71373 33.16976 29.94175
#
# Velocity S-wave (km/s) = 3.34798 3.73067 3.54449
# Velocity P-wave (km/s) = 6.35913 6.81611 6.59158
#
# Compressibility (1/GPa) = 0.01645909
#
# Stress axis : x y z
#
# Youngs Moduli (GPa) = 124.97671 64.48728 111.13962
#
# Poissons Ratio (x) = 0.22841 0.19682
# Poissons Ratio (y) = 0.44265 0.30127
# Poissons Ratio (z) = 0.22132 0.17481
#
# Static dielectric constant tensor:
#      x y z
#    x 1.855720 0.000000 0.000000 
#    y 0.000000 2.104770 0.000000 
#    z 0.000000 0.000000 1.869620 
# 
# From -- ./inp_files/34076.got.cif
#   From: 2010.05.17/outbox.cif.g08.bks.cpg/sg63_18_cif.got.tgz:34076.got - 2010.06.03 15:47:04.
