data_PCOD9468756
_publ_section_title
;
Structure prediction by ZEFSAII (Michael W. Deem and Ramdas Pophale) SiO2 
 PCOD9468756
Probable space group: C M C M
;
_chemical_formula_sum "Si O2"
_cell_formula_units_Z 88
_cell_length_a 18.584379
_cell_length_b 11.871611
_cell_length_c 15.563087
_cell_angle_alpha 90.000000
_cell_angle_beta 90.000000
_cell_angle_gamma 90.000000
_cell_volume 3433.629697
_symmetry_space_group_name_H-M "C M C M"
_symmetry_group_IT_number 63
_symmetry_cell_setting 'orthorhombic'
loop_
_space_group_symop_operation_xyz
x,y,z
-x,-y,1/2+z
x,-y,-z
-x,y,1/2-z
-x,-y,-z
x,y,1/2-z
-x,y,z
x,-y,1/2+z
1/2+x,1/2+y,z
1/2-x,1/2-y,1/2+z
1/2+x,1/2-y,-z
1/2-x,1/2+y,1/2-z
1/2-x,1/2-y,-z
1/2+x,1/2+y,1/2-z
1/2-x,1/2+y,z
1/2+x,1/2-y,1/2+z
loop_
_atom_site_type_symbol
_atom_site_label
_atom_site_fract_x
_atom_site_fract_y
_atom_site_fract_z
Si Si1 0.125250 0.663706 0.549595
Si Si2 0.921018 0.866036 0.149343
Si Si3 0.580761 0.058239 0.372036
Si Si4 0.083291 0.136634 0.343356
Si Si5 0.286938 0.044003 0.250000
Si Si6 0.717415 0.423277 0.418353
O O1 0.089349 0.621075 0.462588
O O2 0.089057 0.577292 0.618267
O O3 0.115795 0.789536 0.581992
O O4 0.209266 0.635821 0.552626
O O5 0.919356 0.835347 0.250000
O O6 0.917737 0.002818 0.144291
O O7 0.000000 0.833586 0.114509
O O8 0.846950 0.836997 0.103255
O O9 0.500000 0.081698 0.340411
O O10 0.652882 0.087271 0.321478
O O11 0.118052 0.162256 0.250000
O O12 0.000000 0.169828 0.339413
O O13 0.237010 0.989347 0.328992
O O14 0.697083 0.500000 0.500000
#
# Coordination Sequence:
#
# PCOD9468756 Si02
#       6
#    16  16  16  16   8  16
#     4  10  18  30  47  78 111 138 174 223 270 321
#     4   9  19  36  57  80 106 142 183 229 281 329
#     4  10  18  29  47  72 105 147 182 215 262 315
#     4   9  18  31  50  79 112 143 180 225 275 322
#     4  10  19  32  47  72 106 142 176 226 267 312
#     4  11  20  35  55  76 109 142 180 231 273 327
#
# _framework density 25.628857
#
# number of rings (size 3 to 8) (size 9 to 14) (size 15 to 20)
#    0.000    2.182    4.545    3.545    5.091    0.364 
#    0.000    0.909    0.000    0.000    0.000    0.000 
#    0.000    0.000    0.000    0.000    0.000    0.000 
#
# Total GULP energy -245012.466654 kJ/mol
# GULP energy per Si atom -5568.465151 kJ/mol
# Density = 2.557052 g / cm^3
# Si number density = 25.628857 Si / 1000 Ang^3
#
#
#
# Elastic Constant Matrix: (Units=GPa)
#
#
# Indices 1 2 3 4 5 6 
#
# 1 193.5754 13.2882 34.4096 0.0000 0.0000 0.0000
# 2 13.2882 93.2238 20.3575 0.0000 0.0000 0.0000
# 3 34.4096 20.3575 126.4245 0.0000 0.0000 0.0000
# 4 0.0000 0.0000 0.0000 23.2737 0.0000 0.0000
# 5 0.0000 0.0000 0.0000 0.0000 36.0845 0.0000
# 6 0.0000 0.0000 0.0000 0.0000 0.0000 8.3288
#
#
#
# Elastic Compliance Matrix: (Units=1/GPa)
#
#
# Indices 1 2 3 4 5 6 
#
# 1 0.005448 -0.000469 -0.001407 0.000000 0.000000 0.000000
# 2 -0.000469 0.011158 -0.001669 0.000000 0.000000 0.000000
# 3 -0.001407 -0.001669 0.008562 0.000000 0.000000 0.000000
# 4 0.000000 0.000000 0.000000 0.042967 0.000000 0.000000
# 5 0.000000 0.000000 0.000000 0.000000 0.027713 0.000000
# 6 0.000000 0.000000 0.000000 0.000000 0.000000 0.120065
#
#
# Mechanical properties :
#
#
# Convention : Reuss Voigt Hill
#
# Bulk Modulus (GPa) = 55.31913 61.03713 58.17813
# Shear Modulus (GPa) = 21.83120 36.54862 29.18991
#
# Velocity S-wave (km/s) = 2.92176 3.78044 3.37849
# Velocity P-wave (km/s) = 5.74577 6.55157 6.16185
#
# Compressibility (1/GPa) = 0.01807693
#
# Stress axis : x y z
#
# Youngs Moduli (GPa) = 183.54263 89.61995 116.79983
#
# Poissons Ratio (x) = 0.04206 0.16438
# Poissons Ratio (y) = 0.08613 0.19494
# Poissons Ratio (z) = 0.25831 0.14958
#
# Static dielectric constant tensor:
#      x y z
#    x 2.021970 0.000000 0.000000 
#    y 0.000000 2.070630 0.000000 
#    z 0.000000 0.000000 2.052830 
# 
# From -- ./inp_files/35241.got.cif
#   From: 2010.05.17/outbox.cif.g08.bks.cpg/sg63_18_cif.got.tgz:35241.got - 2010.06.03 15:47:04.
