data_PCOD9468451
_publ_section_title
;
Structure prediction by ZEFSAII (Michael W. Deem and Ramdas Pophale) SiO2 
 PCOD9468451
Probable space group: C M C M
;
_chemical_formula_sum "Si O2"
_cell_formula_units_Z 56
_cell_length_a 9.397367
_cell_length_b 15.898748
_cell_length_c 20.254325
_cell_angle_alpha 90.000000
_cell_angle_beta 90.000000
_cell_angle_gamma 90.000000
_cell_volume 3026.125171
_symmetry_space_group_name_H-M "C M C M"
_symmetry_group_IT_number 63
_symmetry_cell_setting 'orthorhombic'
loop_
_space_group_symop_operation_xyz
x,y,z
-x,-y,1/2+z
x,-y,-z
-x,y,1/2-z
-x,-y,-z
x,y,1/2-z
-x,y,z
x,-y,1/2+z
1/2+x,1/2+y,z
1/2-x,1/2-y,1/2+z
1/2+x,1/2-y,-z
1/2-x,1/2+y,1/2-z
1/2-x,1/2-y,-z
1/2+x,1/2+y,1/2-z
1/2-x,1/2+y,z
1/2+x,1/2-y,1/2+z
loop_
_atom_site_type_symbol
_atom_site_label
_atom_site_fract_x
_atom_site_fract_y
_atom_site_fract_z
Si Si1 0.755301 0.637549 0.116649
Si Si2 0.500000 0.597889 0.018143
Si Si3 0.000000 0.364512 0.250000
Si Si4 0.500000 0.025382 0.326987
Si Si5 0.000000 0.777697 0.104897
Si Si6 0.000000 0.783266 0.250000
Si Si7 0.802702 0.208765 0.250000
O O1 0.642548 0.618238 0.060004
O O2 0.861730 0.561221 0.136010
O O3 0.861738 0.716088 0.101363
O O4 0.667642 0.660521 0.182793
O O5 0.500000 0.500000 0.000000
O O6 0.500000 0.655846 0.953310
O O7 0.000000 0.425401 0.186237
O O8 0.869214 0.301084 0.250000
O O9 0.500000 0.055397 0.250000
O O10 0.000000 0.823518 0.177145
O O11 0.135546 0.723944 0.250000
#
# Coordination Sequence:
#
# PCOD9468451 Si02
#       7
#    16   8   4   8   8   4   8
#     4  10  20  39  66  81 121 161 201 241 289 361
#     4  12  26  39  53  90 130 157 197 249 301 347
#     4  10  20  29  54  89 130 134 192 260 292 349
#     4   9  19  40  59  87 120 158 197 242 303 350
#     4   9  20  41  64  85 112 162 206 231 295 362
#     4   8  18  33  64  87 110 138 190 256 286 335
#     4  10  17  34  60  96 107 148 199 244 292 342
#
# _framework density 18.505514000000002
#
# number of rings (size 3 to 8) (size 9 to 14) (size 15 to 20)
#    0.429    1.714    1.429    2.571    2.000    4.571 
#    0.000    7.143    0.000    0.000    0.000    0.000 
#    0.000    0.000    0.000    0.000    0.000    0.000 
#
# Total GULP energy -155946.932756 kJ/mol
# GULP energy per Si atom -5569.533313 kJ/mol
# Density = 1.846339 g / cm^3
# Si number density = 18.505514 Si / 1000 Ang^3
#
#
#
# Elastic Constant Matrix: (Units=GPa)
#
#
# Indices 1 2 3 4 5 6 
#
# 1 121.2307 46.3711 62.3696 0.0000 0.0000 0.0000
# 2 46.3711 111.0183 62.5966 0.0000 0.0000 0.0000
# 3 62.3696 62.5966 162.6420 0.0000 0.0000 0.0000
# 4 0.0000 0.0000 0.0000 4.3680 0.0000 0.0000
# 5 0.0000 0.0000 0.0000 0.0000 -36.7000 0.0000
# 6 0.0000 0.0000 0.0000 0.0000 0.0000 -17.3497
#
#
#
# Elastic Compliance Matrix: (Units=1/GPa)
#
#
# Indices 1 2 3 4 5 6 
#
# 1 0.010922 -0.002810 -0.003107 0.000000 0.000000 0.000000
# 2 -0.002810 0.012227 -0.003628 0.000000 0.000000 0.000000
# 3 -0.003107 -0.003628 0.008736 0.000000 0.000000 0.000000
# 4 0.000000 0.000000 0.000000 0.228936 0.000000 0.000000
# 5 0.000000 0.000000 0.000000 0.000000 -0.027248 0.000000
# 6 0.000000 0.000000 0.000000 0.000000 0.000000 -0.057638
#
#
# Mechanical properties :
#
#
# Convention : Reuss Voigt Hill
#
# Bulk Modulus (GPa) = 78.15637 81.95174 80.05405
# Shear Modulus (GPa) = 25.08902 4.96726 15.02814
#
# Velocity S-wave (km/s) = 3.68606 1.64013 2.85281
# Velocity P-wave (km/s) = 7.77443 6.92589 7.36239
#
# Compressibility (1/GPa) = 0.01279486
#
# Stress axis : x y z
#
# Youngs Moduli (GPa) = 91.55829 81.78569 114.46581
#
# Poissons Ratio (x) = 0.22984 0.35562
# Poissons Ratio (y) = 0.25731 0.41530
# Poissons Ratio (z) = 0.28445 0.29673
#
# Static dielectric constant tensor:
#      x y z
#    x 1.654250 0.000000 0.000000 
#    y 0.000000 1.613210 0.000000 
#    z 0.000000 0.000000 1.670870 
# 
# From -- ./inp_files/50210.got.cif
#   From: 2010.05.17/outbox.cif.g08.bks.cpg/sg63_26_cif.got.tgz:50210.got - 2010.06.03 15:47:04.
