data_PCOD9468563
_publ_section_title
;
Structure prediction by ZEFSAII (Michael W. Deem and Ramdas Pophale) SiO2 
 PCOD9468563
Probable space group: C M C M
;
_chemical_formula_sum "Si O2"
_cell_formula_units_Z 112
_cell_length_a 7.361900
_cell_length_b 26.458423
_cell_length_c 30.074717
_cell_angle_alpha 90.000000
_cell_angle_beta 90.000000
_cell_angle_gamma 90.000000
_cell_volume 5858.081624
_symmetry_space_group_name_H-M "C M C M"
_symmetry_group_IT_number 63
_symmetry_cell_setting 'orthorhombic'
loop_
_space_group_symop_operation_xyz
x,y,z
-x,-y,1/2+z
x,-y,-z
-x,y,1/2-z
-x,-y,-z
x,y,1/2-z
-x,y,z
x,-y,1/2+z
1/2+x,1/2+y,z
1/2-x,1/2-y,1/2+z
1/2+x,1/2-y,-z
1/2-x,1/2+y,1/2-z
1/2-x,1/2-y,-z
1/2+x,1/2+y,1/2-z
1/2-x,1/2+y,z
1/2+x,1/2-y,1/2+z
loop_
_atom_site_type_symbol
_atom_site_label
_atom_site_fract_x
_atom_site_fract_y
_atom_site_fract_z
Si Si1 0.278331 0.443612 0.698948
Si Si2 0.288347 0.685634 0.547480
Si Si3 0.781205 0.250781 0.800951
Si Si4 0.779158 0.804532 0.949491
Si Si5 0.277278 0.653389 0.642145
Si Si6 0.786002 0.149426 0.358412
Si Si7 0.221009 0.057969 0.699017
O O1 0.224030 0.433205 0.750000
O O2 0.500000 0.442858 0.698723
O O3 0.212516 0.400171 0.665980
O O4 0.222920 0.500839 0.687470
O O5 0.500000 0.671699 0.545319
O O6 0.275379 0.745957 0.555432
O O7 0.213976 0.676967 0.497898
O O8 0.213341 0.659141 0.591406
O O9 0.716328 0.250285 0.750000
O O10 0.719916 0.202122 0.829074
O O11 0.732932 0.302176 0.826355
O O12 0.000000 0.248386 0.799614
O O13 0.713689 0.835620 0.906922
O O14 0.000000 0.804824 0.949899
O O15 0.500000 0.654156 0.641632
O O16 0.219612 0.602048 0.666186
O O17 0.000000 0.140405 0.364701
O O18 0.275946 0.068402 0.750000
O O19 0.000000 0.058311 0.698791
#
# Coordination Sequence:
#
# PCOD9468563 Si02
#       7
#    16  16  16  16  16  16  16
#     4   8  14  24  38  56  78 106 139 170 198 234
#     4   9  16  27  42  59  81 107 136 168 203 245
#     4  10  19  28  39  60  87 110 133 164 205 249
#     4   9  17  27  40  59  82 109 138 167 199 241
#     4   9  15  24  39  58  81 107 132 167 209 243
#     4  10  18  28  42  60  84 111 138 168 202 241
#     4   8  13  22  37  57  79 104 137 172 202 236
#
# _framework density 19.118886
#
# number of rings (size 3 to 8) (size 9 to 14) (size 15 to 20)
#    0.000    3.000    1.429    1.714    0.000    2.571 
#    0.000    0.000    0.000    0.857    0.000    8.000 
#    0.000    2.286    0.000    8.429    0.000    9.000 
#
# Total GULP energy -312402.055906 kJ/mol
# GULP energy per Si atom -5578.608141 kJ/mol
# Density = 1.907537 g / cm^3
# Si number density = 19.118886 Si / 1000 Ang^3
#
#
#
# Elastic Constant Matrix: (Units=GPa)
#
#
# Indices 1 2 3 4 5 6 
#
# 1 67.6032 -5.1828 0.4455 0.0000 0.0000 0.0000
# 2 -5.1828 134.1545 110.2055 0.0000 0.0000 0.0000
# 3 0.4455 110.2055 195.0034 0.0000 0.0000 0.0000
# 4 0.0000 0.0000 0.0000 24.9885 0.0000 0.0000
# 5 0.0000 0.0000 0.0000 0.0000 1.4313 0.0000
# 6 0.0000 0.0000 0.0000 0.0000 0.0000 8.3943
#
#
#
# Elastic Compliance Matrix: (Units=1/GPa)
#
#
# Indices 1 2 3 4 5 6 
#
# 1 0.014883 0.001125 -0.000670 0.000000 0.000000 0.000000
# 2 0.001125 0.013999 -0.007914 0.000000 0.000000 0.000000
# 3 -0.000670 -0.007914 0.009602 0.000000 0.000000 0.000000
# 4 0.000000 0.000000 0.000000 0.040018 0.000000 0.000000
# 5 0.000000 0.000000 0.000000 0.000000 0.698658 0.000000
# 6 0.000000 0.000000 0.000000 0.000000 0.000000 0.119128
#
#
# Mechanical properties :
#
#
# Convention : Reuss Voigt Hill
#
# Bulk Modulus (GPa) = 42.43275 67.52192 54.97734
# Shear Modulus (GPa) = 5.44034 26.38237 15.91135
#
# Velocity S-wave (km/s) = 1.68870 3.71875 2.88797
# Velocity P-wave (km/s) = 5.10339 7.33705 6.31969
#
# Compressibility (1/GPa) = 0.02356670
#
# Stress axis : x y z
#
# Youngs Moduli (GPa) = 67.19126 71.43534 104.14343
#
# Poissons Ratio (x) = -0.08039 0.06978
# Poissons Ratio (y) = -0.07561 0.82418
# Poissons Ratio (z) = 0.04502 0.56533
#
# Static dielectric constant tensor:
#      x y z
#    x 1.801280 0.000000 0.000000 
#    y 0.000000 1.621510 0.000000 
#    z 0.000000 0.000000 1.673430 
# 
# From -- ./inp_files/62113.got.cif
#   From: 2010.05.17/outbox.cif.g08.bks.cpg/sg63_32_cif.got.tgz:62113.got - 2010.06.03 15:47:04.
