data_PCOD9468184
_publ_section_title
;
Structure prediction by ZEFSAII (Michael W. Deem and Ramdas Pophale) SiO2 
 PCOD9468184
Probable space group: C M C M
;
_chemical_formula_sum "Si O2"
_cell_formula_units_Z 68
_cell_length_a 14.562832
_cell_length_b 6.914436
_cell_length_c 24.327596
_cell_angle_alpha 90.000000
_cell_angle_beta 90.000000
_cell_angle_gamma 90.000000
_cell_volume 2449.637352
_symmetry_space_group_name_H-M "C M C M"
_symmetry_group_IT_number 63
_symmetry_cell_setting 'orthorhombic'
loop_
_space_group_symop_operation_xyz
x,y,z
-x,-y,1/2+z
x,-y,-z
-x,y,1/2-z
-x,-y,-z
x,y,1/2-z
-x,y,z
x,-y,1/2+z
1/2+x,1/2+y,z
1/2-x,1/2-y,1/2+z
1/2+x,1/2-y,-z
1/2-x,1/2+y,1/2-z
1/2-x,1/2-y,-z
1/2+x,1/2+y,1/2-z
1/2-x,1/2+y,z
1/2+x,1/2-y,1/2+z
loop_
_atom_site_type_symbol
_atom_site_label
_atom_site_fract_x
_atom_site_fract_y
_atom_site_fract_z
Si Si1 0.852545 0.919471 0.686817
Si Si2 0.500000 0.964875 0.250000
Si Si3 0.135278 0.630116 0.164753
Si Si4 0.361251 0.778293 0.952827
Si Si5 0.640882 0.673752 0.432748
O O1 0.878903 0.866791 0.750000
O O2 0.742264 0.910504 0.678364
O O3 0.883873 0.807756 0.631326
O O4 0.880760 0.144251 0.680376
O O5 0.577976 0.996300 0.203085
O O6 0.106697 0.611114 0.101175
O O7 0.381197 0.551171 0.943357
O O8 0.251029 0.805280 0.943176
O O9 0.392077 0.803581 0.015927
#
# Coordination Sequence:
#
# PCOD9468184 Si02
#       5
#    16   4  16  16  16
#     4  10  16  30  46  74  91 130 153 204 227 286
#     4  12  20  32  44  76  96 136 146 196 236 302
#     4  10  20  30  52  67 100 122 164 190 244 274
#     4   8  14  26  38  66  84 120 142 196 222 276
#     4   8  14  22  42  60  94 108 154 185 236 255
#
# _framework density 27.759208999999998
#
# number of rings (size 3 to 8) (size 9 to 14) (size 15 to 20)
#    0.000    2.824    2.353    0.000    0.000    0.000 
#    0.000    0.000    0.000   14.118    0.000    0.000 
#    0.000  308.706    0.000    0.000    0.000    0.000 
#
# Total GULP energy -189516.861072 kJ/mol
# GULP energy per Si atom -5574.025326 kJ/mol
# Density = 2.769603 g / cm^3
# Si number density = 27.759209 Si / 1000 Ang^3
#
#
#
# Elastic Constant Matrix: (Units=GPa)
#
#
# Indices 1 2 3 4 5 6 
#
# 1 35.4455 11.3190 5.3555 0.0000 0.0000 0.0000
# 2 11.3190 118.4771 93.7722 0.0000 0.0000 0.0000
# 3 5.3555 93.7722 388.9953 0.0000 0.0000 0.0000
# 4 0.0000 0.0000 0.0000 62.3259 0.0000 0.0000
# 5 0.0000 0.0000 0.0000 0.0000 -92.1707 0.0000
# 6 0.0000 0.0000 0.0000 0.0000 0.0000 -68.9190
#
#
#
# Elastic Compliance Matrix: (Units=1/GPa)
#
#
# Indices 1 2 3 4 5 6 
#
# 1 0.029135 -0.003047 0.000334 0.000000 0.000000 0.000000
# 2 -0.003047 0.010749 -0.002549 0.000000 0.000000 0.000000
# 3 0.000334 -0.002549 0.003181 0.000000 0.000000 0.000000
# 4 0.000000 0.000000 0.000000 0.016045 0.000000 0.000000
# 5 0.000000 0.000000 0.000000 0.000000 -0.010849 0.000000
# 6 0.000000 0.000000 0.000000 0.000000 0.000000 -0.014510
#
#
# Mechanical properties :
#
#
# Convention : Reuss Voigt Hill
#
# Bulk Modulus (GPa) = 30.73274 84.86794 57.80034
# Shear Modulus (GPa) = 90.70583 9.07865 49.89224
#
# Velocity S-wave (km/s) = 5.72249 1.81041 4.24408
# Velocity P-wave (km/s) = 7.39985 5.91687 6.69952
#
# Compressibility (1/GPa) = 0.03253859
#
# Stress axis : x y z
#
# Youngs Moduli (GPa) = 34.32286 93.02921 314.39866
#
# Poissons Ratio (x) = 0.28350 -0.10485
# Poissons Ratio (y) = 0.10460 0.80150
# Poissons Ratio (z) = -0.01145 0.23716
#
# Static dielectric constant tensor:
#      x y z
#    x 2.144840 0.000000 0.000000 
#    y 0.000000 2.190470 0.000000 
#    z 0.000000 0.000000 2.170520 
# 
# From -- ./inp_files/62490.got.cif
#   From: 2010.05.17/outbox.cif.g08.bks.cpg/sg63_32_cif.got.tgz:62490.got - 2010.06.03 15:47:04.
