data_PCOD9468957
_publ_section_title
;
Structure prediction by ZEFSAII (Michael W. Deem and Ramdas Pophale) SiO2 
 PCOD9468957
Probable space group: C M C M
;
_chemical_formula_sum "Si O2"
_cell_formula_units_Z 104
_cell_length_a 25.063415
_cell_length_b 25.599409
_cell_length_c 8.952444
_cell_angle_alpha 90.000000
_cell_angle_beta 90.000000
_cell_angle_gamma 90.000000
_cell_volume 5743.965165
_symmetry_space_group_name_H-M "C M C M"
_symmetry_group_IT_number 63
_symmetry_cell_setting 'orthorhombic'
loop_
_space_group_symop_operation_xyz
x,y,z
-x,-y,1/2+z
x,-y,-z
-x,y,1/2-z
-x,-y,-z
x,y,1/2-z
-x,y,z
x,-y,1/2+z
1/2+x,1/2+y,z
1/2-x,1/2-y,1/2+z
1/2+x,1/2-y,-z
1/2-x,1/2+y,1/2-z
1/2-x,1/2-y,-z
1/2+x,1/2+y,1/2-z
1/2-x,1/2+y,z
1/2+x,1/2-y,1/2+z
loop_
_atom_site_type_symbol
_atom_site_label
_atom_site_fract_x
_atom_site_fract_y
_atom_site_fract_z
Si Si1 0.000000 0.057870 0.425949
Si Si2 0.438356 0.271779 0.569948
Si Si3 0.398506 0.553731 0.580289
Si Si4 0.155518 0.840888 0.421984
Si Si5 0.113256 0.660374 0.569494
Si Si6 0.267957 0.804446 0.069724
Si Si7 0.936337 0.555941 0.428294
O O1 0.946799 0.081020 0.491736
O O2 0.000000 0.057020 0.250000
O O3 0.000000 0.000000 0.500000
O O4 0.437366 0.276808 0.750000
O O5 0.500000 0.283299 0.521426
O O6 0.390538 0.308245 0.506709
O O7 0.422833 0.211465 0.533237
O O8 0.384187 0.500000 0.500000
O O9 0.415366 0.541859 0.750000
O O10 0.355000 0.597630 0.580151
O O11 0.153030 0.821856 0.250000
O O12 0.216209 0.837357 0.475315
O O13 0.112162 0.654406 0.750000
O O14 0.174043 0.674833 0.522625
O O15 0.092715 0.606744 0.496587
O O16 0.270793 0.800281 0.250000
O O17 0.250000 0.750000 0.000000
O O18 0.920065 0.500000 0.500000
O O19 0.928077 0.553989 0.250000
O O20 0.000000 0.561781 0.456636
#
# Coordination Sequence:
#
# PCOD9468957 Si02
#       7
#     8  16  16  16  16  16  16
#     4  10  18  30  50  74  98 130 170 212 257 310
#     4  10  21  35  53  82 115 147 184 227 278 335
#     4  10  20  35  52  73 102 136 175 218 268 320
#     4  10  22  37  55  79 109 143 182 229 280 329
#     4  10  20  36  59  84 115 152 189 234 285 337
#     4  10  20  37  59  82 109 146 189 234 279 331
#     4  10  21  37  59  88 121 157 196 237 285 344
#
# _framework density 18.10596
#
# number of rings (size 3 to 8) (size 9 to 14) (size 15 to 20)
#    0.000    2.000    1.538    3.000    1.077    4.308 
#    0.000    0.769    0.000    1.846    0.000    0.000 
#    0.000    0.000    0.000    0.000    0.000    0.000 
#
# Total GULP energy -289648.942269 kJ/mol
# GULP energy per Si atom -5570.171967 kJ/mol
# Density = 1.806475 g / cm^3
# Si number density = 18.105960 Si / 1000 Ang^3
#
#
#
# Elastic Constant Matrix: (Units=GPa)
#
#
# Indices 1 2 3 4 5 6 
#
# 1 110.5950 42.7684 31.8328 0.0000 0.0000 0.0000
# 2 42.7684 98.2414 34.1601 0.0000 0.0000 0.0000
# 3 31.8328 34.1601 60.2450 0.0000 0.0000 0.0000
# 4 0.0000 0.0000 0.0000 29.4527 0.0000 0.0000
# 5 0.0000 0.0000 0.0000 0.0000 17.7584 0.0000
# 6 0.0000 0.0000 0.0000 0.0000 0.0000 32.2741
#
#
#
# Elastic Compliance Matrix: (Units=1/GPa)
#
#
# Indices 1 2 3 4 5 6 
#
# 1 0.011624 -0.003643 -0.004076 0.000000 0.000000 0.000000
# 2 -0.003643 0.013821 -0.005912 0.000000 0.000000 0.000000
# 3 -0.004076 -0.005912 0.022105 0.000000 0.000000 0.000000
# 4 0.000000 0.000000 0.000000 0.033953 0.000000 0.000000
# 5 0.000000 0.000000 0.000000 0.000000 0.056311 0.000000
# 6 0.000000 0.000000 0.000000 0.000000 0.000000 0.030985
#
#
# Mechanical properties :
#
#
# Convention : Reuss Voigt Hill
#
# Bulk Modulus (GPa) = 49.29154 54.06711 51.67933
# Shear Modulus (GPa) = 24.65208 26.58503 25.61856
#
# Velocity S-wave (km/s) = 3.69392 3.83600 3.76563
# Velocity P-wave (km/s) = 6.74362 7.03891 6.89284
#
# Compressibility (1/GPa) = 0.02028746
#
# Stress axis : x y z
#
# Youngs Moduli (GPa) = 86.02807 72.35628 45.23904
#
# Poissons Ratio (x) = 0.26359 0.18441
# Poissons Ratio (y) = 0.31340 0.26743
# Poissons Ratio (z) = 0.35068 0.42774
#
# Static dielectric constant tensor:
#      x y z
#    x 1.624380 0.000000 0.000000 
#    y 0.000000 1.627370 0.000000 
#    z 0.000000 0.000000 1.642070 
# 
# From -- ./inp_files/10860.got.cif
#   From: 2010.05.17/outbox.cif.g08.bks.cpg/sg63_6_cif.got.tgz:10860.got - 2010.06.03 15:47:04.
