data_PCOD9468019
_publ_section_title
;
Structure prediction by ZEFSAII (Michael W. Deem and Ramdas Pophale) SiO2 
 PCOD9468019
Probable space group: P N M A
;
_chemical_formula_sum "Si O2"
_cell_formula_units_Z 56
_cell_length_a 15.000000
_cell_length_b 9.000000
_cell_length_c 21.000000
_cell_angle_alpha 90.000000
_cell_angle_beta 90.000000
_cell_angle_gamma 90.000000
_cell_volume 2835.000000
_symmetry_space_group_name_H-M "P N M A"
_symmetry_group_IT_number 62
_symmetry_cell_setting 'orthorhombic'
loop_
_space_group_symop_operation_xyz
x,y,z
1/2-x,-y,1/2+z
1/2+x,1/2-y,1/2-z
-x,1/2+y,-z
-x,-y,-z
1/2+x,y,1/2-z
1/2-x,1/2+y,1/2+z
x,1/2-y,z
loop_
_atom_site_type_symbol
_atom_site_label
_atom_site_fract_x
_atom_site_fract_y
_atom_site_fract_z
Si Si1 0.230026 0.076701 0.970776
Si Si2 0.513106 0.074834 0.725343
Si Si3 0.195287 0.572251 0.241718
Si Si4 0.668513 0.926444 0.655917
Si Si5 0.059491 0.576738 0.446286
Si Si6 0.950251 0.079029 0.347778
Si Si7 0.754748 0.423464 0.387945
O O1 0.203026 0.250000 0.963097
O O2 0.336593 0.071612 0.960849
O O3 0.188874 0.976991 0.915860
O O4 0.214183 0.031600 0.044138
O O5 0.516333 0.250000 0.712791
O O6 0.410346 0.032609 0.739396
O O7 0.569994 0.987192 0.673203
O O8 0.564918 0.030121 0.789366
O O9 0.201907 0.750000 0.250271
O O10 0.256474 0.497031 0.296391
O O11 0.228194 0.520998 0.172184
O O12 0.671537 0.750000 0.663690
O O13 0.033985 0.750000 0.438193
O O14 0.000000 0.500000 0.500000
O O15 0.035583 0.481919 0.384324
O O16 0.960721 0.250000 0.326917
O O17 0.862557 0.072901 0.391642
O O18 0.731487 0.250000 0.375859
#
# Coordination Sequence:
#
# PCOD9468019 Si02
#       7
#     8   8   8   8   8   8   8
#     4  10  22  41  60  84 124 167 205 252 311 371
#     4  11  24  42  64  91 122 163 209 257 312 369
#     4  11  24  42  66  94 125 164 211 258 310 373
#     4  12  25  41  64  95 127 163 208 260 314 369
#     4  11  21  34  54  83 121 161 201 246 303 371
#     4  11  21  36  58  89 122 157 201 251 309 369
#     4  10  21  39  62  89 123 162 203 252 308 363
#
# _framework density 19.753086
#
# number of rings (size 3 to 8) (size 9 to 14) (size 15 to 20)
#    0.000    1.143    2.857    3.857    0.000    8.000 
#    0.000    0.714    0.000    0.000    0.000    0.000 
#    0.000    0.000    0.000    0.000    0.000    0.000 
#
# Total GULP energy -312673.599339 kJ/mol
# GULP energy per Si atom -5583.457131 kJ/mol
# Density = 1.970813 g / cm^3
# Si number density = 19.753086 Si / 1000 Ang^3
#
#
#
# Elastic Constant Matrix: (Units=GPa)
#
#
# Indices 1 2 3 4 5 6 
#
# 1 52.9818 30.6613 10.9692 0.0000 0.0000 0.0000
# 2 30.6613 72.7701 19.7038 0.0000 0.0000 0.0000
# 3 10.9692 19.7038 79.1300 0.0000 0.0000 0.0000
# 4 0.0000 0.0000 0.0000 31.7946 0.0000 0.0000
# 5 0.0000 0.0000 0.0000 0.0000 30.6914 0.0000
# 6 0.0000 0.0000 0.0000 0.0000 0.0000 21.0527
#
#
#
# Elastic Compliance Matrix: (Units=1/GPa)
#
#
# Indices 1 2 3 4 5 6 
#
# 1 0.025021 -0.010298 -0.000904 0.000000 0.000000 0.000000
# 2 -0.010298 0.018973 -0.003297 0.000000 0.000000 0.000000
# 3 -0.000904 -0.003297 0.013584 0.000000 0.000000 0.000000
# 4 0.000000 0.000000 0.000000 0.031452 0.000000 0.000000
# 5 0.000000 0.000000 0.000000 0.000000 0.032582 0.000000
# 6 0.000000 0.000000 0.000000 0.000000 0.000000 0.047500
#
#
# Mechanical properties :
#
#
# Convention : Reuss Voigt Hill
#
# Bulk Modulus (GPa) = 34.98905 36.39448 35.69176
# Shear Modulus (GPa) = 24.08049 26.27758 25.17903
#
# Velocity S-wave (km/s) = 3.49531 3.65129 3.57415
# Velocity P-wave (km/s) = 5.83449 6.02001 5.92798
#
# Compressibility (1/GPa) = 0.02858037
#
# Stress axis : x y z
#
# Youngs Moduli (GPa) = 39.96644 52.70514 73.61726
#
# Poissons Ratio (x) = 0.54274 0.06657
# Poissons Ratio (y) = 0.41156 0.24272
# Poissons Ratio (z) = 0.03614 0.17377
#
# Static dielectric constant tensor:
#      x y z
#    x 1.708040 0.000000 0.000000 
#    y 0.000000 1.658170 0.000000 
#    z 0.000000 0.000000 1.701810 
# 
# From -- ./inp_files/27139.got.cif
#   From: 2010.05.17/outbox.ucp.g08.bks.cvg/sg62_14_cif.got.tgz:27139.got - 2010.06.11 16:29:25.
