data_PCOD9468590
_publ_section_title
;
Structure prediction by ZEFSAII (Michael W. Deem and Ramdas Pophale) SiO2 
 PCOD9468590
Probable space group: C M C M
;
_chemical_formula_sum "Si O2"
_cell_formula_units_Z 72
_cell_length_a 13.837658
_cell_length_b 26.491515
_cell_length_c 11.061015
_cell_angle_alpha 90.000000
_cell_angle_beta 90.000000
_cell_angle_gamma 90.000000
_cell_volume 4054.752680
_symmetry_space_group_name_H-M "C M C M"
_symmetry_group_IT_number 63
_symmetry_cell_setting 'orthorhombic'
loop_
_space_group_symop_operation_xyz
x,y,z
-x,-y,1/2+z
x,-y,-z
-x,y,1/2-z
-x,-y,-z
x,y,1/2-z
-x,y,z
x,-y,1/2+z
1/2+x,1/2+y,z
1/2-x,1/2-y,1/2+z
1/2+x,1/2-y,-z
1/2-x,1/2+y,1/2-z
1/2-x,1/2-y,-z
1/2+x,1/2+y,1/2-z
1/2-x,1/2+y,z
1/2+x,1/2-y,1/2+z
loop_
_atom_site_type_symbol
_atom_site_label
_atom_site_fract_x
_atom_site_fract_y
_atom_site_fract_z
Si Si1 0.616888 0.471805 0.619464
Si Si2 0.702117 0.368619 0.250000
Si Si3 0.383213 0.745061 0.750000
Si Si4 0.384339 0.628895 0.998524
Si Si5 0.615759 0.188968 0.750000
Si Si6 0.383294 0.745188 0.015726
O O1 0.653072 0.500000 0.500000
O O2 0.653950 0.488949 0.750000
O O3 0.500000 0.478381 0.620674
O O4 0.635118 0.412194 0.600834
O O5 0.652581 0.312688 0.250000
O O6 0.664065 0.390628 0.374990
O O7 0.816628 0.359922 0.250000
O O8 0.500000 0.745237 0.750000
O O9 0.353300 0.765389 0.617521
O O10 0.500000 0.630030 0.978395
O O11 0.353465 0.686366 0.026227
O O12 0.500000 0.180498 0.750000
O O13 0.643262 0.221041 0.630410
O O14 0.500000 0.744631 0.016903
#
# Coordination Sequence:
#
# PCOD9468590 Si02
#       6
#    16   8   8  16   8  16
#     4   9  18  29  43  66  95 127 154 174 204 251
#     4  10  18  28  44  61  85 117 152 187 233 261
#     4   8  14  26  40  58  79 105 144 180 217 261
#     4   9  17  28  45  65  89 120 156 183 211 258
#     4  10  20  30  42  61  86 112 150 199 238 270
#     4   8  15  27  42  58  80 112 147 187 224 255
#
# _framework density 17.75694
#
# number of rings (size 3 to 8) (size 9 to 14) (size 15 to 20)
#    0.000    3.111    0.000    2.333    3.111    3.556 
#    0.000    0.000    2.444    0.000    0.000    0.000 
#    0.000    0.889    0.000    0.000    0.000    1.556 
#
# Total GULP energy -200430.311979 kJ/mol
# GULP energy per Si atom -5567.508666 kJ/mol
# Density = 1.771652 g / cm^3
# Si number density = 17.756940 Si / 1000 Ang^3
#
#
#
# Elastic Constant Matrix: (Units=GPa)
#
#
# Indices 1 2 3 4 5 6 
#
# 1 56.0082 9.9709 10.9795 0.0000 0.0000 0.0000
# 2 9.9709 25.5824 28.0758 0.0000 0.0000 0.0000
# 3 10.9795 28.0758 148.0973 0.0000 0.0000 0.0000
# 4 0.0000 0.0000 0.0000 24.9562 0.0000 0.0000
# 5 0.0000 0.0000 0.0000 0.0000 4.9084 0.0000
# 6 0.0000 0.0000 0.0000 0.0000 0.0000 6.9032
#
#
#
# Elastic Compliance Matrix: (Units=1/GPa)
#
#
# Indices 1 2 3 4 5 6 
#
# 1 0.019186 -0.007471 -0.000006 0.000000 0.000000 0.000000
# 2 -0.007471 0.052268 -0.009355 0.000000 0.000000 0.000000
# 3 -0.000006 -0.009355 0.008526 0.000000 0.000000 0.000000
# 4 0.000000 0.000000 0.000000 0.040070 0.000000 0.000000
# 5 0.000000 0.000000 0.000000 0.000000 0.203734 0.000000
# 6 0.000000 0.000000 0.000000 0.000000 0.000000 0.144861
#
#
# Mechanical properties :
#
#
# Convention : Reuss Voigt Hill
#
# Bulk Modulus (GPa) = 21.59089 36.41560 29.00325
# Shear Modulus (GPa) = 9.65721 19.39766 14.52743
#
# Velocity S-wave (km/s) = 2.33460 3.30873 2.86340
# Velocity P-wave (km/s) = 4.41052 5.92868 5.22503
#
# Compressibility (1/GPa) = 0.04631582
#
# Stress axis : x y z
#
# Youngs Moduli (GPa) = 52.12194 19.13213 117.28501
#
# Poissons Ratio (x) = 0.14294 0.00071
# Poissons Ratio (y) = 0.38941 1.09719
# Poissons Ratio (z) = 0.00031 0.17898
#
# Static dielectric constant tensor:
#      x y z
#    x 1.601120 0.000000 0.000000 
#    y 0.000000 1.608160 0.000000 
#    z 0.000000 0.000000 1.678450 
# 
# From -- ./inp_files/19337.got.cif
#   From: 2010.05.17/outbox.cif.g08.bks.cpg/sg63_10_cif.got.tgz:19337.got - 2010.06.03 15:47:04.
