data_PCOD9468583
_publ_section_title
;
Structure prediction by ZEFSAII (Michael W. Deem and Ramdas Pophale) SiO2 
 PCOD9468583
Probable space group: C M C M
;
_chemical_formula_sum "Si O2"
_cell_formula_units_Z 96
_cell_length_a 8.560060
_cell_length_b 27.778379
_cell_length_c 23.631539
_cell_angle_alpha 90.000000
_cell_angle_beta 90.000000
_cell_angle_gamma 90.000000
_cell_volume 5619.215834
_symmetry_space_group_name_H-M "C M C M"
_symmetry_group_IT_number 63
_symmetry_cell_setting 'orthorhombic'
loop_
_space_group_symop_operation_xyz
x,y,z
-x,-y,1/2+z
x,-y,-z
-x,y,1/2-z
-x,-y,-z
x,y,1/2-z
-x,y,z
x,-y,1/2+z
1/2+x,1/2+y,z
1/2-x,1/2-y,1/2+z
1/2+x,1/2-y,-z
1/2-x,1/2+y,1/2-z
1/2-x,1/2-y,-z
1/2+x,1/2+y,1/2-z
1/2-x,1/2+y,z
1/2+x,1/2-y,1/2+z
loop_
_atom_site_type_symbol
_atom_site_label
_atom_site_fract_x
_atom_site_fract_y
_atom_site_fract_z
Si Si1 0.189076 0.444232 0.500605
Si Si2 0.177235 0.300840 0.488231
Si Si3 0.813481 0.692338 0.684646
Si Si4 0.677527 0.128462 0.406095
Si Si5 0.189033 0.296682 0.683571
Si Si6 0.819363 0.125034 0.906417
O O1 0.233831 0.500000 0.500000
O O2 0.247359 0.415871 0.557200
O O3 0.243391 0.417814 0.443154
O O4 0.000000 0.440491 0.501996
O O5 0.250000 0.250000 0.500000
O O6 0.167762 0.330379 0.546179
O O7 0.291374 0.329649 0.447531
O O8 0.000000 0.298785 0.464600
O O9 0.761944 0.688740 0.750000
O O10 0.749432 0.744269 0.663256
O O11 0.757730 0.645446 0.650535
O O12 0.000000 0.694587 0.682594
O O13 0.500000 0.113896 0.389730
O O14 0.747817 0.157382 0.352803
O O15 0.230232 0.301400 0.750000
O O16 0.000000 0.295984 0.678764
O O17 0.000000 0.114779 0.897210
#
# Coordination Sequence:
#
# PCOD9468583 Si02
#       6
#    16  16  16  16  16  16
#     4   9  18  34  54  71  91 123 163 210 260 303
#     4  10  18  28  43  65  95 127 160 197 238 286
#     4  10  20  33  49  70  98 131 166 200 233 280
#     4   8  15  27  43  65  90 118 154 193 235 286
#     4   9  16  27  45  69  98 129 158 190 232 286
#     4  11  21  32  48  70  97 127 161 202 247 298
#
# _framework density 17.084233999999999
#
# number of rings (size 3 to 8) (size 9 to 14) (size 15 to 20)
#    0.000    2.500    0.000    4.500    0.000    2.667 
#    0.000    3.333    0.000    1.000    0.000    4.667 
#    0.000    0.000    0.000    0.000    0.000    0.000 
#
# Total GULP energy -267207.136445 kJ/mol
# GULP energy per Si atom -5566.815343 kJ/mol
# Density = 1.704535 g / cm^3
# Si number density = 17.084234 Si / 1000 Ang^3
#
#
#
# Elastic Constant Matrix: (Units=GPa)
#
#
# Indices 1 2 3 4 5 6 
#
# 1 21.7533 17.4093 8.8452 0.0000 0.0000 0.0000
# 2 17.4093 134.5717 48.1090 0.0000 0.0000 0.0000
# 3 8.8452 48.1090 78.8167 0.0000 0.0000 0.0000
# 4 0.0000 0.0000 0.0000 23.8076 0.0000 0.0000
# 5 0.0000 0.0000 0.0000 0.0000 16.3249 0.0000
# 6 0.0000 0.0000 0.0000 0.0000 0.0000 13.8084
#
#
#
# Elastic Compliance Matrix: (Units=1/GPa)
#
#
# Indices 1 2 3 4 5 6 
#
# 1 0.051574 -0.005888 -0.002194 0.000000 0.000000 0.000000
# 2 -0.005888 0.010177 -0.005551 0.000000 0.000000 0.000000
# 3 -0.002194 -0.005551 0.016322 0.000000 0.000000 0.000000
# 4 0.000000 0.000000 0.000000 0.042003 0.000000 0.000000
# 5 0.000000 0.000000 0.000000 0.000000 0.061256 0.000000
# 6 0.000000 0.000000 0.000000 0.000000 0.000000 0.072420
#
#
# Mechanical properties :
#
#
# Convention : Reuss Voigt Hill
#
# Bulk Modulus (GPa) = 19.68217 42.65209 31.16713
# Shear Modulus (GPa) = 16.78108 21.50675 19.14392
#
# Velocity S-wave (km/s) = 3.13750 3.55190 3.35111
# Velocity P-wave (km/s) = 4.96698 6.46848 5.76681
#
# Compressibility (1/GPa) = 0.05080740
#
# Stress axis : x y z
#
# Youngs Moduli (GPa) = 19.38960 98.25840 61.26557
#
# Poissons Ratio (x) = 0.57851 0.13442
# Poissons Ratio (y) = 0.11416 0.34011
# Poissons Ratio (z) = 0.04254 0.54547
#
# Static dielectric constant tensor:
#      x y z
#    x 1.604400 0.000000 0.000000 
#    y 0.000000 1.550720 0.000000 
#    z 0.000000 0.000000 1.628210 
# 
# From -- ./inp_files/60230.got.cif
#   From: 2010.05.17/outbox.cif.g08.bks.cpg/sg63_31_cif.got.tgz:60230.got - 2010.06.03 15:47:04.
