data_PCOD9468151
_publ_section_title
;
Structure prediction by ZEFSAII (Michael W. Deem and Ramdas Pophale) SiO2 
 PCOD9468151
Probable space group: C M C M
;
_chemical_formula_sum "Si O2"
_cell_formula_units_Z 116
_cell_length_a 28.177084
_cell_length_b 7.426783
_cell_length_c 23.660744
_cell_angle_alpha 90.000000
_cell_angle_beta 90.000000
_cell_angle_gamma 90.000000
_cell_volume 4951.367686
_symmetry_space_group_name_H-M "C M C M"
_symmetry_group_IT_number 63
_symmetry_cell_setting 'orthorhombic'
loop_
_space_group_symop_operation_xyz
x,y,z
-x,-y,1/2+z
x,-y,-z
-x,y,1/2-z
-x,-y,-z
x,y,1/2-z
-x,y,z
x,-y,1/2+z
1/2+x,1/2+y,z
1/2-x,1/2-y,1/2+z
1/2+x,1/2-y,-z
1/2-x,1/2+y,1/2-z
1/2-x,1/2-y,-z
1/2+x,1/2+y,1/2-z
1/2-x,1/2+y,z
1/2+x,1/2-y,1/2+z
loop_
_atom_site_type_symbol
_atom_site_label
_atom_site_fract_x
_atom_site_fract_y
_atom_site_fract_z
Si Si1 0.557450 0.054567 0.685743
Si Si2 0.000000 0.984815 0.250000
Si Si3 0.424002 0.367249 0.342002
Si Si4 0.264494 0.807913 0.629624
Si Si5 0.096149 0.331398 0.071090
Si Si6 0.299844 0.105307 0.558475
Si Si7 0.445456 0.781936 0.957654
Si Si8 0.679910 0.507543 0.685290
O O1 0.569310 0.110339 0.750000
O O2 0.500000 0.058306 0.680997
O O3 0.579230 0.175369 0.635832
O O4 0.572722 0.844730 0.677715
O O5 0.040950 0.968685 0.200214
O O6 0.438327 0.360482 0.407807
O O7 0.371633 0.446918 0.337846
O O8 0.249353 0.706390 0.571882
O O9 0.289814 0.689351 0.676123
O O10 0.299521 0.964562 0.610612
O O11 0.213613 0.869954 0.652554
O O12 0.151154 0.287092 0.061796
O O13 0.087279 0.545176 0.057400
O O14 0.066681 0.232343 0.021969
O O15 0.298918 0.000000 0.500000
O O16 0.500000 0.843066 0.954352
O O17 0.676020 0.455013 0.750000
#
# Coordination Sequence:
#
# PCOD9468151 Si02
#       8
#    16   4  16  16  16  16  16  16
#     4  10  16  27  45  78 116 151 197 253 301 368
#     4  12  16  32  48  94 112 160 200 256 308 366
#     4  11  18  29  53  81 120 151 201 252 309 361
#     4  10  24  40  60  87 122 160 206 255 315 369
#     4  10  18  28  49  77 113 149 196 241 308 362
#     4  11  21  40  60  86 119 154 203 255 309 376
#     4  10  17  28  46  80 115 152 197 254 301 366
#     4  11  22  39  62  90 124 164 206 259 310 373
#
# _framework density 23.427871
#
# number of rings (size 3 to 8) (size 9 to 14) (size 15 to 20)
#    0.000    1.517    4.138    4.966    0.000    0.000 
#    0.000    3.448    0.000    0.000    5.379    0.966 
#    0.000    3.310    0.000    0.000    0.000    0.000 
#
# Total GULP energy -323578.401418 kJ/mol
# GULP energy per Si atom -5578.937955 kJ/mol
# Density = 2.337455 g / cm^3
# Si number density = 23.427871 Si / 1000 Ang^3
#
#
#
# Elastic Constant Matrix: (Units=GPa)
#
#
# Indices 1 2 3 4 5 6 
#
# 1 108.5444 7.2032 20.2371 0.0000 0.0000 0.0000
# 2 7.2032 29.5559 27.1322 0.0000 0.0000 0.0000
# 3 20.2371 27.1322 162.9354 0.0000 0.0000 0.0000
# 4 0.0000 0.0000 0.0000 21.1945 0.0000 0.0000
# 5 0.0000 0.0000 0.0000 0.0000 62.3563 0.0000
# 6 0.0000 0.0000 0.0000 0.0000 0.0000 9.8802
#
#
#
# Elastic Compliance Matrix: (Units=1/GPa)
#
#
# Indices 1 2 3 4 5 6 
#
# 1 0.009484 -0.001452 -0.000936 0.000000 0.000000 0.000000
# 2 -0.001452 0.040162 -0.006507 0.000000 0.000000 0.000000
# 3 -0.000936 -0.006507 0.007337 0.000000 0.000000 0.000000
# 4 0.000000 0.000000 0.000000 0.047182 0.000000 0.000000
# 5 0.000000 0.000000 0.000000 0.000000 0.016037 0.000000
# 6 0.000000 0.000000 0.000000 0.000000 0.000000 0.101213
#
#
# Mechanical properties :
#
#
# Convention : Reuss Voigt Hill
#
# Bulk Modulus (GPa) = 25.51556 45.57564 35.54560
# Shear Modulus (GPa) = 19.82006 35.11707 27.46856
#
# Velocity S-wave (km/s) = 2.91177 3.87582 3.42786
# Velocity P-wave (km/s) = 4.71373 6.28690 5.55628
#
# Compressibility (1/GPa) = 0.03919177
#
# Stress axis : x y z
#
# Youngs Moduli (GPa) = 105.44404 24.89924 136.28984
#
# Poissons Ratio (x) = 0.03615 0.12758
# Poissons Ratio (y) = 0.15310 0.88690
# Poissons Ratio (z) = 0.09871 0.16203
#
# Static dielectric constant tensor:
#      x y z
#    x 1.825520 0.000000 0.000000 
#    y 0.000000 2.002510 0.000000 
#    z 0.000000 0.000000 1.905440 
# 
# From -- ./inp_files/65497.got.cif
#   From: 2010.05.17/outbox.cif.g08.bks.cpg/sg63_33_cif.got.tgz:65497.got - 2010.06.03 15:47:04.
