data_PCOD9468503
_publ_section_title
;
Structure prediction by ZEFSAII (Michael W. Deem and Ramdas Pophale) SiO2 
 PCOD9468503
Probable space group: C M C M
;
_chemical_formula_sum "Si O2"
_cell_formula_units_Z 96
_cell_length_a 7.510179
_cell_length_b 25.034997
_cell_length_c 26.576817
_cell_angle_alpha 90.000000
_cell_angle_beta 90.000000
_cell_angle_gamma 90.000000
_cell_volume 4996.901607
_symmetry_space_group_name_H-M "C M C M"
_symmetry_group_IT_number 63
_symmetry_cell_setting 'orthorhombic'
loop_
_space_group_symop_operation_xyz
x,y,z
-x,-y,1/2+z
x,-y,-z
-x,y,1/2-z
-x,-y,-z
x,y,1/2-z
-x,y,z
x,-y,1/2+z
1/2+x,1/2+y,z
1/2-x,1/2-y,1/2+z
1/2+x,1/2-y,-z
1/2-x,1/2+y,1/2-z
1/2-x,1/2-y,-z
1/2+x,1/2+y,1/2-z
1/2-x,1/2+y,z
1/2+x,1/2-y,1/2+z
loop_
_atom_site_type_symbol
_atom_site_label
_atom_site_fract_x
_atom_site_fract_y
_atom_site_fract_z
Si Si1 0.292687 0.324366 0.028271
Si Si2 0.282068 0.980123 0.555587
Si Si3 0.714758 0.245141 0.386285
Si Si4 0.701949 0.137301 0.420899
Si Si5 0.287099 0.835802 0.306678
Si Si6 0.784304 0.585473 0.891682
O O1 0.500000 0.314348 0.017453
O O2 0.220885 0.277451 0.064219
O O3 0.276608 0.377194 0.062430
O O4 0.197714 0.335814 0.976160
O O5 0.500000 0.977647 0.553469
O O6 0.216984 0.921183 0.570614
O O7 0.225874 0.000000 0.500000
O O8 0.230444 0.025274 0.595838
O O9 0.500000 0.243087 0.390461
O O10 0.782380 0.184386 0.386745
O O11 0.754536 0.281842 0.338337
O O12 0.500000 0.128197 0.402883
O O13 0.216324 0.834314 0.250000
O O14 0.500000 0.841801 0.303625
O O15 0.221023 0.885112 0.341075
O O16 0.000000 0.586613 0.891726
#
# Coordination Sequence:
#
# PCOD9468503 Si02
#       6
#    16  16  16  16  16  16
#     4  10  18  27  40  63  93 121 152 185 218 255
#     4   9  15  25  44  66  87 119 157 181 208 255
#     4   9  19  31  44  65  91 119 149 184 223 267
#     4  10  18  29  44  62  90 125 157 180 211 262
#     4   9  18  32  51  71  87 108 143 188 235 275
#     4   9  16  29  47  65  88 118 150 185 223 264
#
# _framework density 19.211905999999999
#
# number of rings (size 3 to 8) (size 9 to 14) (size 15 to 20)
#    0.000    2.667    1.667    1.000    0.000    1.667 
#    0.000    1.667    0.000    1.000    0.000    4.667 
#    0.000    0.000    0.000    0.000    0.000    0.000 
#
# Total GULP energy -267653.615277 kJ/mol
# GULP energy per Si atom -5576.116985 kJ/mol
# Density = 1.916818 g / cm^3
# Si number density = 19.211906 Si / 1000 Ang^3
#
#
#
# Elastic Constant Matrix: (Units=GPa)
#
#
# Indices 1 2 3 4 5 6 
#
# 1 56.1655 4.1715 1.8862 0.0000 0.0000 0.0000
# 2 4.1715 177.8272 71.0298 0.0000 0.0000 0.0000
# 3 1.8862 71.0298 104.6287 0.0000 0.0000 0.0000
# 4 0.0000 0.0000 0.0000 8.4217 0.0000 0.0000
# 5 0.0000 0.0000 0.0000 0.0000 10.2614 0.0000
# 6 0.0000 0.0000 0.0000 0.0000 0.0000 9.9712
#
#
#
# Elastic Compliance Matrix: (Units=1/GPa)
#
#
# Indices 1 2 3 4 5 6 
#
# 1 0.017836 -0.000398 -0.000051 0.000000 0.000000 0.000000
# 2 -0.000398 0.007725 -0.005237 0.000000 0.000000 0.000000
# 3 -0.000051 -0.005237 0.013114 0.000000 0.000000 0.000000
# 4 0.000000 0.000000 0.000000 0.118741 0.000000 0.000000
# 5 0.000000 0.000000 0.000000 0.000000 0.097453 0.000000
# 6 0.000000 0.000000 0.000000 0.000000 0.000000 0.100288
#
#
# Mechanical properties :
#
#
# Convention : Reuss Voigt Hill
#
# Bulk Modulus (GPa) = 36.62766 54.75516 45.69141
# Shear Modulus (GPa) = 13.31100 23.16645 18.23873
#
# Velocity S-wave (km/s) = 2.63506 3.47629 3.08449
# Velocity P-wave (km/s) = 5.32584 6.68396 6.04317
#
# Compressibility (1/GPa) = 0.02730177
#
# Stress axis : x y z
#
# Youngs Moduli (GPa) = 56.06704 129.45792 76.25626
#
# Poissons Ratio (x) = 0.05150 0.00392
# Poissons Ratio (y) = 0.02231 0.39934
# Poissons Ratio (z) = 0.00288 0.67795
#
# Static dielectric constant tensor:
#      x y z
#    x 1.775700 0.000000 0.000000 
#    y 0.000000 1.714720 0.000000 
#    z 0.000000 0.000000 1.642010 
# 
# From -- ./inp_files/53056.got.cif
#   From: 2010.05.17/outbox.cif.g08.bks.cpg/sg63_27_cif.got.tgz:53056.got - 2010.06.03 15:47:04.
