data_PCOD9468056
_publ_section_title
;
Structure prediction by ZEFSAII (Michael W. Deem and Ramdas Pophale) SiO2 
 PCOD9468056
Probable space group: P N M A
;
_chemical_formula_sum "Si O2"
_cell_formula_units_Z 64
_cell_length_a 12.000000
_cell_length_b 15.000000
_cell_length_c 18.000000
_cell_angle_alpha 90.000000
_cell_angle_beta 90.000000
_cell_angle_gamma 90.000000
_cell_volume 3240.000000
_symmetry_space_group_name_H-M "P N M A"
_symmetry_group_IT_number 62
_symmetry_cell_setting 'orthorhombic'
loop_
_space_group_symop_operation_xyz
x,y,z
1/2-x,-y,1/2+z
1/2+x,1/2-y,1/2-z
-x,1/2+y,-z
-x,-y,-z
1/2+x,y,1/2-z
1/2-x,1/2+y,1/2+z
x,1/2-y,z
loop_
_atom_site_type_symbol
_atom_site_label
_atom_site_fract_x
_atom_site_fract_y
_atom_site_fract_z
Si Si1 0.673929 0.855996 0.021928
Si Si2 0.582131 0.142455 0.956331
Si Si3 0.137867 0.648715 0.650334
Si Si4 0.744911 0.855512 0.335184
Si Si5 0.630985 0.477261 0.578535
Si Si6 0.574611 0.857117 0.473723
Si Si7 0.727115 0.985448 0.726818
Si Si8 0.627092 0.355129 0.123698
O O1 0.691585 0.750000 0.039571
O O2 0.684580 0.864930 0.932823
O O3 0.547415 0.880669 0.042932
O O4 0.755812 0.924685 0.060232
O O5 0.588933 0.250000 0.956385
O O6 0.645810 0.113865 0.882272
O O7 0.634027 0.117671 0.036341
O O8 0.166541 0.750000 0.673562
O O9 0.183705 0.577832 0.707726
O O10 0.004249 0.643832 0.642590
O O11 0.754261 0.750000 0.313166
O O12 0.651928 0.860219 0.400150
O O13 0.728708 0.924046 0.266977
O O14 0.538883 0.406888 0.549938
O O15 0.618388 0.573805 0.537599
O O16 0.630880 0.490642 0.667224
O O17 0.565476 0.750000 0.494002
O O18 0.810898 0.924314 0.677480
O O19 0.663993 0.250000 0.130460
#
# Coordination Sequence:
#
# PCOD9468056 Si02
#       8
#     8   8   8   8   8   8   8   8
#     4   9  18  38  66  94 121 151 198 256 305 355
#     4   8  16  36  66  93 116 151 202 252 303 357
#     4   9  20  38  60  89 124 155 187 243 310 368
#     4  10  22  40  61  86 122 167 205 245 299 358
#     4  11  24  39  63  94 118 158 211 256 300 355
#     4  10  23  45  65  82 119 167 212 254 294 357
#     4  12  24  35  59  89 128 156 198 247 300 367
#     4   9  19  37  62  90 119 153 195 247 307 364
#
# _framework density 19.753086
#
# number of rings (size 3 to 8) (size 9 to 14) (size 15 to 20)
#    0.000    2.250    0.000    3.750    1.750    4.000 
#    0.000    3.125    0.000    0.000    0.000    0.000 
#    0.000    0.000    0.000    0.000    0.000    0.000 
#
# Total GULP energy -357196.284202 kJ/mol
# GULP energy per Si atom -5581.191941 kJ/mol
# Density = 1.970813 g / cm^3
# Si number density = 19.753086 Si / 1000 Ang^3
#
#
#
# Elastic Constant Matrix: (Units=GPa)
#
#
# Indices 1 2 3 4 5 6 
#
# 1 39.6166 24.4929 5.3688 0.0000 0.0000 0.0000
# 2 24.4929 124.7146 41.5756 0.0000 0.0000 0.0000
# 3 5.3688 41.5756 57.1623 0.0000 0.0000 0.0000
# 4 0.0000 0.0000 0.0000 40.6539 0.0000 0.0000
# 5 0.0000 0.0000 0.0000 0.0000 14.8343 0.0000
# 6 0.0000 0.0000 0.0000 0.0000 0.0000 28.9105
#
#
#
# Elastic Compliance Matrix: (Units=1/GPa)
#
#
# Indices 1 2 3 4 5 6 
#
# 1 0.028880 -0.006294 0.001865 0.000000 0.000000 0.000000
# 2 -0.006294 0.011956 -0.008105 0.000000 0.000000 0.000000
# 3 0.001865 -0.008105 0.023214 0.000000 0.000000 0.000000
# 4 0.000000 0.000000 0.000000 0.024598 0.000000 0.000000
# 5 0.000000 0.000000 0.000000 0.000000 0.067412 0.000000
# 6 0.000000 0.000000 0.000000 0.000000 0.000000 0.034590
#
#
# Mechanical properties :
#
#
# Convention : Reuss Voigt Hill
#
# Bulk Modulus (GPa) = 25.65213 40.48534 33.06873
# Shear Modulus (GPa) = 21.86169 26.88348 24.37258
#
# Velocity S-wave (km/s) = 3.33039 3.69314 3.51645
# Velocity P-wave (km/s) = 5.27288 6.22302 5.76755
#
# Compressibility (1/GPa) = 0.03898311
#
# Stress axis : x y z
#
# Youngs Moduli (GPa) = 34.62588 83.63850 43.07774
#
# Poissons Ratio (x) = 0.52638 -0.08034
# Poissons Ratio (y) = 0.21792 0.34914
# Poissons Ratio (z) = -0.06457 0.67789
#
# Static dielectric constant tensor:
#      x y z
#    x 1.740110 0.000000 0.000000 
#    y 0.000000 1.704340 0.000000 
#    z 0.000000 0.000000 1.682730 
# 
# From -- ./inp_files/23228.got.cif
#   From: 2010.05.17/outbox.ucp.g08.bks.cvg/sg62_12_cif.got.tgz:23228.got - 2010.06.11 16:29:25.
