data_PCOD9468030
_publ_section_title
;
Structure prediction by ZEFSAII (Michael W. Deem and Ramdas Pophale) SiO2 
 PCOD9468030
Probable space group: P N M A
;
_chemical_formula_sum "Si O2"
_cell_formula_units_Z 64
_cell_length_a 21.000000
_cell_length_b 9.000000
_cell_length_c 18.000000
_cell_angle_alpha 90.000000
_cell_angle_beta 90.000000
_cell_angle_gamma 90.000000
_cell_volume 3402.000000
_symmetry_space_group_name_H-M "P N M A"
_symmetry_group_IT_number 62
_symmetry_cell_setting 'orthorhombic'
loop_
_space_group_symop_operation_xyz
x,y,z
1/2-x,-y,1/2+z
1/2+x,1/2-y,1/2-z
-x,1/2+y,-z
-x,-y,-z
1/2+x,y,1/2-z
1/2-x,1/2+y,1/2+z
x,1/2-y,z
loop_
_atom_site_type_symbol
_atom_site_label
_atom_site_fract_x
_atom_site_fract_y
_atom_site_fract_z
Si Si1 0.099519 0.415461 0.168669
Si Si2 0.238001 0.081959 0.220098
Si Si3 0.064881 0.924594 0.029419
Si Si4 0.710899 0.570568 0.510767
Si Si5 0.707058 0.574851 0.134055
Si Si6 0.073291 0.075679 0.343767
Si Si7 0.536732 0.429122 0.929891
Si Si8 0.175869 0.574024 0.587000
O O1 0.080801 0.250000 0.142364
O O2 0.176186 0.424477 0.166894
O O3 0.069017 0.537682 0.116738
O O4 0.082198 0.428195 0.255000
O O5 0.235803 0.250000 0.253449
O O6 0.301594 0.065551 0.172710
O O7 0.225911 0.958132 0.281087
O O8 0.060519 0.750000 0.014956
O O9 0.136207 0.973823 0.000859
O O10 0.000000 0.000000 0.000000
O O11 0.713187 0.750000 0.506168
O O12 0.738564 0.508633 0.587810
O O13 0.765476 0.502778 0.456502
O O14 0.704335 0.750000 0.118050
O O15 0.637018 0.500831 0.122284
O O16 0.070090 0.250000 0.366582
O O17 0.009263 0.988404 0.364414
O O18 0.538181 0.250000 0.933157
O O19 0.608266 0.494527 0.925588
O O20 0.500000 0.500000 0.000000
O O21 0.171772 0.750000 0.567421
#
# Coordination Sequence:
#
# PCOD9468030 Si02
#       8
#     8   8   8   8   8   8   8   8
#     4   9  18  37  64  89 116 153 195 240 293 353
#     4   9  19  37  61  87 117 154 192 238 292 355
#     4  11  24  40  62  88 118 155 197 247 300 355
#     4  11  23  40  61  89 121 157 198 246 299 355
#     4  11  22  36  60  91 122 158 199 248 295 348
#     4  10  21  40  63  89 122 163 204 246 298 359
#     4  12  25  41  60  87 123 161 203 251 300 356
#     4  11  22  39  64  90 119 158 199 245 300 358
#
# _framework density 18.812463000000001
#
# number of rings (size 3 to 8) (size 9 to 14) (size 15 to 20)
#    0.000    1.500    1.250    5.250    0.000    5.000 
#    2.250    0.000    0.000    0.000    0.000    0.000 
#    0.000    0.000    0.000    0.000    0.000    0.000 
#
# Total GULP energy -357019.336330 kJ/mol
# GULP energy per Si atom -5578.427130 kJ/mol
# Density = 1.876965 g / cm^3
# Si number density = 18.812463 Si / 1000 Ang^3
#
#
#
# Elastic Constant Matrix: (Units=GPa)
#
#
# Indices 1 2 3 4 5 6 
#
# 1 172.5393 77.9419 43.5725 0.0000 0.0000 0.0000
# 2 77.9419 128.0450 28.5594 0.0000 0.0000 0.0000
# 3 43.5725 28.5594 45.0534 0.0000 0.0000 0.0000
# 4 0.0000 0.0000 0.0000 30.0561 0.0000 0.0000
# 5 0.0000 0.0000 0.0000 0.0000 26.3553 0.0000
# 6 0.0000 0.0000 0.0000 0.0000 0.0000 38.1681
#
#
#
# Elastic Compliance Matrix: (Units=1/GPa)
#
#
# Indices 1 2 3 4 5 6 
#
# 1 0.009314 -0.004263 -0.006305 0.000000 0.000000 0.000000
# 2 -0.004263 0.011047 -0.002880 0.000000 0.000000 0.000000
# 3 -0.006305 -0.002880 0.030119 0.000000 0.000000 0.000000
# 4 0.000000 0.000000 0.000000 0.033271 0.000000 0.000000
# 5 0.000000 0.000000 0.000000 0.000000 0.037943 0.000000
# 6 0.000000 0.000000 0.000000 0.000000 0.000000 0.026200
#
#
# Mechanical properties :
#
#
# Convention : Reuss Voigt Hill
#
# Bulk Modulus (GPa) = 42.40172 71.75392 57.07782
# Shear Modulus (GPa) = 27.37443 31.95350 29.66396
#
# Velocity S-wave (km/s) = 3.81874 4.12579 3.97523
# Velocity P-wave (km/s) = 6.48320 7.80517 7.17470
#
# Compressibility (1/GPa) = 0.02358395
#
# Stress axis : x y z
#
# Youngs Moduli (GPa) = 107.36653 90.52213 33.20110
#
# Poissons Ratio (x) = 0.38590 0.20935
# Poissons Ratio (y) = 0.45771 0.09561
# Poissons Ratio (z) = 0.67699 0.26068
#
# Static dielectric constant tensor:
#      x y z
#    x 1.631110 0.000000 0.000000 
#    y 0.000000 1.652830 0.000000 
#    z 0.000000 0.000000 1.740660 
# 
# From -- ./inp_files/24707.got.cif
#   From: 2010.05.17/outbox.ucp.g08.bks.cvg/sg62_13_cif.got.tgz:24707.got - 2010.06.11 16:29:25.
