data_PCOD9468161
_publ_section_title
;
Structure prediction by ZEFSAII (Michael W. Deem and Ramdas Pophale) SiO2 
 PCOD9468161
Probable space group: C M C M
;
_chemical_formula_sum "Si O2"
_cell_formula_units_Z 96
_cell_length_a 23.132686
_cell_length_b 28.089283
_cell_length_c 7.377979
_cell_angle_alpha 90.000000
_cell_angle_beta 90.000000
_cell_angle_gamma 90.000000
_cell_volume 4794.067353
_symmetry_space_group_name_H-M "C M C M"
_symmetry_group_IT_number 63
_symmetry_cell_setting 'orthorhombic'
loop_
_space_group_symop_operation_xyz
x,y,z
-x,-y,1/2+z
x,-y,-z
-x,y,1/2-z
-x,-y,-z
x,y,1/2-z
-x,y,z
x,-y,1/2+z
1/2+x,1/2+y,z
1/2-x,1/2-y,1/2+z
1/2+x,1/2-y,-z
1/2-x,1/2+y,1/2-z
1/2-x,1/2-y,-z
1/2+x,1/2+y,1/2-z
1/2-x,1/2+y,z
1/2+x,1/2-y,1/2+z
loop_
_atom_site_type_symbol
_atom_site_label
_atom_site_fract_x
_atom_site_fract_y
_atom_site_fract_z
Si Si1 0.626177 0.096619 0.970624
Si Si2 0.745404 0.946124 0.465776
Si Si3 0.607737 0.720942 0.545110
Si Si4 0.000000 0.282109 0.529180
Si Si5 0.193673 0.852070 0.471799
Si Si6 0.500000 0.105200 0.539044
Si Si7 0.313408 0.805290 0.031766
O O1 0.624497 0.094392 0.750000
O O2 0.679942 0.064293 0.033136
O O3 0.561334 0.087574 0.037791
O O4 0.644966 0.150512 0.017042
O O5 0.742314 0.939323 0.250000
O O6 0.789405 0.905325 0.530896
O O7 0.762743 0.000000 0.500000
O O8 0.589085 0.709502 0.750000
O O9 0.555697 0.752019 0.465622
O O10 0.634994 0.673029 0.463729
O O11 0.661367 0.757517 0.548892
O O12 0.000000 0.336935 0.468370
O O13 0.000000 0.284652 0.750000
O O14 0.191408 0.851488 0.250000
O O15 0.249410 0.820573 0.524738
O O16 0.500000 0.091468 0.750000
O O17 0.313881 0.800905 0.250000
#
# Coordination Sequence:
#
# PCOD9468161 Si02
#       7
#    16  16  16   8  16   8  16
#     4   8  15  26  43  63  83 110 145 177 207 249
#     4   9  17  32  49  65  83 105 138 182 226 266
#     4  10  18  28  40  60  90 121 144 170 209 251
#     4  10  20  28  38  61  94 123 148 178 208 239
#     4   8  16  29  45  62  85 114 142 172 214 263
#     4  10  16  28  47  61  79 119 161 178 197 243
#     4   9  15  26  43  63  84 111 146 179 205 245
#
# _framework density 20.024749
#
# number of rings (size 3 to 8) (size 9 to 14) (size 15 to 20)
#    0.000    3.000    1.667    2.500    0.000    0.000 
#    0.000    5.417    0.000    0.000    0.000    0.583 
#    0.000    0.000    0.000    0.000    0.000    0.000 
#
# Total GULP energy -267617.286703 kJ/mol
# GULP energy per Si atom -5575.360140 kJ/mol
# Density = 1.997917 g / cm^3
# Si number density = 20.024749 Si / 1000 Ang^3
#
#
#
# Elastic Constant Matrix: (Units=GPa)
#
#
# Indices 1 2 3 4 5 6 
#
# 1 17.3093 18.4128 -7.6393 0.0000 0.0000 0.0000
# 2 18.4128 83.1307 -10.3711 0.0000 0.0000 0.0000
# 3 -7.6393 -10.3711 69.7032 0.0000 0.0000 0.0000
# 4 0.0000 0.0000 0.0000 65.7782 0.0000 0.0000
# 5 0.0000 0.0000 0.0000 0.0000 -2.8037 0.0000
# 6 0.0000 0.0000 0.0000 0.0000 0.0000 13.1863
#
#
#
# Elastic Compliance Matrix: (Units=1/GPa)
#
#
# Indices 1 2 3 4 5 6 
#
# 1 0.078041 -0.016525 0.006094 0.000000 0.000000 0.000000
# 2 -0.016525 0.015756 0.000533 0.000000 0.000000 0.000000
# 3 0.006094 0.000533 0.015094 0.000000 0.000000 0.000000
# 4 0.000000 0.000000 0.000000 0.015203 0.000000 0.000000
# 5 0.000000 0.000000 0.000000 0.000000 -0.356668 0.000000
# 6 0.000000 0.000000 0.000000 0.000000 0.000000 0.075836
#
#
# Mechanical properties :
#
#
# Convention : Reuss Voigt Hill
#
# Bulk Modulus (GPa) = 11.22393 18.99422 15.10908
# Shear Modulus (GPa) = -46.62202 26.54821 -10.03690
#
# Velocity S-wave (km/s) = -4.83040 3.64506 -2.24123
# Velocity P-wave (km/s) = 5.04907 5.21740 0.92956
#
# Compressibility (1/GPa) = 0.08909532
#
# Stress axis : x y z
#
# Youngs Moduli (GPa) = 12.81384 63.46814 66.25235
#
# Poissons Ratio (x) = 1.04881 -0.40377
# Poissons Ratio (y) = 0.21175 -0.03533
# Poissons Ratio (z) = -0.07809 -0.03384
#
# Static dielectric constant tensor:
#      x y z
#    x 1.735640 0.000000 0.000000 
#    y 0.000000 1.707140 0.000000 
#    z 0.000000 0.000000 1.762190 
# 
# From -- ./inp_files/10776.got.cif
#   From: 2010.05.17/outbox.cif.g08.bks.cpg/sg63_6_cif.got.tgz:10776.got - 2010.06.03 15:47:04.
