data_PCOD9468663
_publ_section_title
;
Structure prediction by ZEFSAII (Michael W. Deem and Ramdas Pophale) SiO2 
 PCOD9468663
Probable space group: C M C M
;
_chemical_formula_sum "Si O2"
_cell_formula_units_Z 112
_cell_length_a 7.418709
_cell_length_b 26.941144
_cell_length_c 27.249842
_cell_angle_alpha 90.000000
_cell_angle_beta 90.000000
_cell_angle_gamma 90.000000
_cell_volume 5446.385249
_symmetry_space_group_name_H-M "C M C M"
_symmetry_group_IT_number 63
_symmetry_cell_setting 'orthorhombic'
loop_
_space_group_symop_operation_xyz
x,y,z
-x,-y,1/2+z
x,-y,-z
-x,y,1/2-z
-x,-y,-z
x,y,1/2-z
-x,y,z
x,-y,1/2+z
1/2+x,1/2+y,z
1/2-x,1/2-y,1/2+z
1/2+x,1/2-y,-z
1/2-x,1/2+y,1/2-z
1/2-x,1/2-y,-z
1/2+x,1/2+y,1/2-z
1/2-x,1/2+y,z
1/2+x,1/2-y,1/2+z
loop_
_atom_site_type_symbol
_atom_site_label
_atom_site_fract_x
_atom_site_fract_y
_atom_site_fract_z
Si Si1 0.781120 0.236218 0.307136
Si Si2 0.715229 0.043319 0.112284
Si Si3 0.715891 0.626325 0.193747
Si Si4 0.719847 0.909083 0.511234
Si Si5 0.279698 0.827692 0.371990
Si Si6 0.780323 0.434266 0.100495
Si Si7 0.714238 0.195453 0.981470
O O1 0.735181 0.239615 0.250000
O O2 0.720634 0.181133 0.323847
O O3 0.716612 0.285087 0.335186
O O4 0.000000 0.236563 0.311025
O O5 0.500000 0.039633 0.107305
O O6 0.746008 0.082659 0.155534
O O7 0.784012 0.062482 0.059437
O O8 0.780842 0.987218 0.120877
O O9 0.780714 0.617715 0.250000
O O10 0.500000 0.629632 0.196861
O O11 0.500000 0.911567 0.511961
O O12 0.772346 0.928884 0.457168
O O13 0.778442 0.851405 0.513047
O O14 0.500000 0.827729 0.369792
O O15 0.223046 0.885317 0.369418
O O16 0.221085 0.811017 0.426136
O O17 0.000000 0.433134 0.100560
O O18 0.500000 0.189544 0.979281
O O19 0.750000 0.250000 0.000000
#
# Coordination Sequence:
#
# PCOD9468663 Si02
#       7
#    16  16  16  16  16  16  16
#     4   8  14  26  44  63  83 111 148 185 222 267
#     4  10  18  28  48  72  91 118 155 190 223 263
#     4   9  19  34  48  64  89 120 151 184 227 276
#     4   8  15  27  42  64  94 124 151 179 218 270
#     4   8  14  25  42  63  87 114 144 183 225 259
#     4   8  14  26  43  65  93 122 150 181 221 268
#     4   9  17  27  40  61  90 119 146 178 218 263
#
# _framework density 20.564098000000001
#
# number of rings (size 3 to 8) (size 9 to 14) (size 15 to 20)
#    0.000    3.429    0.000    3.000    2.000    2.000 
#    0.000    0.714    0.000    7.714    0.000    0.000 
#    0.000    0.000    0.000    0.000    0.000    0.000 
#
# Total GULP energy -312053.232153 kJ/mol
# GULP energy per Si atom -5572.379146 kJ/mol
# Density = 2.051729 g / cm^3
# Si number density = 20.564098 Si / 1000 Ang^3
#
#
#
# Elastic Constant Matrix: (Units=GPa)
#
#
# Indices 1 2 3 4 5 6 
#
# 1 61.8980 4.0078 -0.2036 0.0000 0.0000 0.0000
# 2 4.0078 249.8816 100.2730 0.0000 0.0000 0.0000
# 3 -0.2036 100.2730 67.3496 0.0000 0.0000 0.0000
# 4 0.0000 0.0000 0.0000 34.5113 0.0000 0.0000
# 5 0.0000 0.0000 0.0000 0.0000 1.2640 0.0000
# 6 0.0000 0.0000 0.0000 0.0000 0.0000 389.6795
#
#
#
# Elastic Compliance Matrix: (Units=1/GPa)
#
#
# Indices 1 2 3 4 5 6 
#
# 1 0.016204 -0.000694 0.001083 0.000000 0.000000 0.000000
# 2 -0.000694 0.009971 -0.014847 0.000000 0.000000 0.000000
# 3 0.001083 -0.014847 0.036957 0.000000 0.000000 0.000000
# 4 0.000000 0.000000 0.000000 0.028976 0.000000 0.000000
# 5 0.000000 0.000000 0.000000 0.000000 0.791157 0.000000
# 6 0.000000 0.000000 0.000000 0.000000 0.000000 0.002566
#
#
# Mechanical properties :
#
#
# Convention : Reuss Voigt Hill
#
# Bulk Modulus (GPa) = 29.22786 65.25372 47.24079
# Shear Modulus (GPa) = 5.39867 103.42775 54.41321
#
# Velocity S-wave (km/s) = 1.62203 7.09961 5.14954
# Velocity P-wave (km/s) = 4.21330 9.95021 7.64064
#
# Compressibility (1/GPa) = 0.03421393
#
# Stress axis : x y z
#
# Youngs Moduli (GPa) = 61.71265 100.29065 27.05878
#
# Poissons Ratio (x) = 0.06965 -0.02930
# Poissons Ratio (y) = 0.04286 0.40175
# Poissons Ratio (z) = -0.06683 1.48905
#
# Static dielectric constant tensor:
#      x y z
#    x 1.901500 0.000000 0.000000 
#    y 0.000000 1.790750 0.000000 
#    z 0.000000 0.000000 1.702020 
# 
# From -- ./inp_files/61932.got.cif
#   From: 2010.05.17/outbox.cif.g08.bks.cpg/sg63_31_cif.got.tgz:61932.got - 2010.06.03 15:47:04.
