data_PCOD9468893
_publ_section_title
;
Structure prediction by ZEFSAII (Michael W. Deem and Ramdas Pophale) SiO2 
 PCOD9468893
Probable space group: C M C M
;
_chemical_formula_sum "Si O2"
_cell_formula_units_Z 80
_cell_length_a 8.930648
_cell_length_b 20.994780
_cell_length_c 25.365696
_cell_angle_alpha 90.000000
_cell_angle_beta 90.000000
_cell_angle_gamma 90.000000
_cell_volume 4755.991650
_symmetry_space_group_name_H-M "C M C M"
_symmetry_group_IT_number 63
_symmetry_cell_setting 'orthorhombic'
loop_
_space_group_symop_operation_xyz
x,y,z
-x,-y,1/2+z
x,-y,-z
-x,y,1/2-z
-x,-y,-z
x,y,1/2-z
-x,y,z
x,-y,1/2+z
1/2+x,1/2+y,z
1/2-x,1/2-y,1/2+z
1/2+x,1/2-y,-z
1/2-x,1/2+y,1/2-z
1/2-x,1/2-y,-z
1/2+x,1/2+y,1/2-z
1/2-x,1/2+y,z
1/2+x,1/2-y,1/2+z
loop_
_atom_site_type_symbol
_atom_site_label
_atom_site_fract_x
_atom_site_fract_y
_atom_site_fract_z
Si Si1 0.828082 0.391695 0.750000
Si Si2 0.320524 0.388343 0.640582
Si Si3 0.821096 0.736898 0.859929
Si Si4 0.673532 0.736867 0.750000
Si Si5 0.680032 0.307109 0.033922
Si Si6 0.317680 0.564564 0.472260
O O1 0.749740 0.411096 0.804501
O O2 0.822621 0.314265 0.750000
O O3 0.000000 0.411647 0.750000
O O4 0.500000 0.393737 0.644587
O O5 0.287798 0.312765 0.633384
O O6 0.268266 0.424724 0.588098
O O7 0.757018 0.716832 0.803242
O O8 0.742800 0.699852 0.907309
O O9 0.000000 0.729676 0.861909
O O10 0.500000 0.717332 0.750000
O O11 0.500000 0.301899 0.033644
O O12 0.750000 0.250000 0.000000
O O13 0.722391 0.373637 0.006564
O O14 0.265207 0.500000 0.500000
O O15 0.500000 0.562649 0.470689
#
# Coordination Sequence:
#
# PCOD9468893 Si02
#       6
#     8  16  16   8  16  16
#     4   9  17  27  43  70  99 128 159 201 251 294
#     4   9  16  29  48  71  97 128 164 203 247 296
#     4  10  18  30  48  74 103 134 168 208 256 306
#     4   9  17  29  45  72 103 134 165 207 259 302
#     4  11  20  32  51  76 102 133 169 211 255 301
#     4   9  18  33  52  74 101 133 172 213 252 297
#
# _framework density 16.820886999999999
#
# number of rings (size 3 to 8) (size 9 to 14) (size 15 to 20)
#    0.000    2.400    2.000    1.800    0.000    3.200 
#    0.000    0.000    0.000    6.600    0.000    4.200 
#    0.000    0.000    0.000    0.000    0.000    0.000 
#
# Total GULP energy -223025.108307 kJ/mol
# GULP energy per Si atom -5575.627708 kJ/mol
# Density = 1.678260 g / cm^3
# Si number density = 16.820887 Si / 1000 Ang^3
#
#
#
# Elastic Constant Matrix: (Units=GPa)
#
#
# Indices 1 2 3 4 5 6 
#
# 1 47.3742 32.0916 56.2108 0.0000 0.0000 0.0000
# 2 32.0916 80.4822 70.1774 0.0000 0.0000 0.0000
# 3 56.2108 70.1774 205.0151 0.0000 0.0000 0.0000
# 4 0.0000 0.0000 0.0000 18.4219 0.0000 0.0000
# 5 0.0000 0.0000 0.0000 0.0000 32.7762 0.0000
# 6 0.0000 0.0000 0.0000 0.0000 0.0000 12.3953
#
#
#
# Elastic Compliance Matrix: (Units=1/GPa)
#
#
# Indices 1 2 3 4 5 6 
#
# 1 0.034438 -0.007838 -0.006759 0.000000 0.000000 0.000000
# 2 -0.007838 0.019496 -0.004524 0.000000 0.000000 0.000000
# 3 -0.006759 -0.004524 0.008280 0.000000 0.000000 0.000000
# 4 0.000000 0.000000 0.000000 0.054283 0.000000 0.000000
# 5 0.000000 0.000000 0.000000 0.000000 0.030510 0.000000
# 6 0.000000 0.000000 0.000000 0.000000 0.000000 0.080676
#
#
# Mechanical properties :
#
#
# Convention : Reuss Voigt Hill
#
# Bulk Modulus (GPa) = 41.71890 72.20345 56.96117
# Shear Modulus (GPa) = 18.25380 24.34479 21.29930
#
# Velocity S-wave (km/s) = 3.29779 3.80846 3.56229
# Velocity P-wave (km/s) = 6.27346 7.89666 7.13139
#
# Compressibility (1/GPa) = 0.02396995
#
# Stress axis : x y z
#
# Youngs Moduli (GPa) = 29.03758 51.29373 120.77858
#
# Poissons Ratio (x) = 0.40205 0.81636
# Poissons Ratio (y) = 0.22760 0.54644
# Poissons Ratio (z) = 0.19627 0.23207
#
# Static dielectric constant tensor:
#      x y z
#    x 1.560840 0.000000 0.000000 
#    y 0.000000 1.547460 0.000000 
#    z 0.000000 0.000000 1.575960 
# 
# From -- ./inp_files/59500.got.cif
#   From: 2010.05.17/outbox.cif.g08.bks.cpg/sg63_30_cif.got.tgz:59500.got - 2010.06.03 15:47:04.
