data_PCOD9468757
_publ_section_title
;
Structure prediction by ZEFSAII (Michael W. Deem and Ramdas Pophale) SiO2 
 PCOD9468757
Probable space group: C M C M
;
_chemical_formula_sum "Si O2"
_cell_formula_units_Z 80
_cell_length_a 17.607882
_cell_length_b 13.571837
_cell_length_c 15.271269
_cell_angle_alpha 90.000000
_cell_angle_beta 90.000000
_cell_angle_gamma 90.000000
_cell_volume 3649.395073
_symmetry_space_group_name_H-M "C M C M"
_symmetry_group_IT_number 63
_symmetry_cell_setting 'orthorhombic'
loop_
_space_group_symop_operation_xyz
x,y,z
-x,-y,1/2+z
x,-y,-z
-x,y,1/2-z
-x,-y,-z
x,y,1/2-z
-x,y,z
x,-y,1/2+z
1/2+x,1/2+y,z
1/2-x,1/2-y,1/2+z
1/2+x,1/2-y,-z
1/2-x,1/2+y,1/2-z
1/2-x,1/2-y,-z
1/2+x,1/2+y,1/2-z
1/2-x,1/2+y,z
1/2+x,1/2-y,1/2+z
loop_
_atom_site_type_symbol
_atom_site_label
_atom_site_fract_x
_atom_site_fract_y
_atom_site_fract_z
Si Si1 0.365454 0.112492 0.516564
Si Si2 0.619781 0.729859 0.149719
Si Si3 0.243350 0.941229 0.346197
Si Si4 0.293205 0.168985 0.154090
Si Si5 0.416846 0.504750 0.395293
O O1 0.407538 0.184878 0.584171
O O2 0.284886 0.095909 0.566704
O O3 0.349935 0.172453 0.427406
O O4 0.394877 0.000000 0.500000
O O5 0.601002 0.753052 0.250000
O O6 0.711875 0.720526 0.140333
O O7 0.590955 0.619815 0.130130
O O8 0.264113 0.899893 0.250000
O O9 0.270682 0.054158 0.342794
O O10 0.153140 0.943908 0.356646
O O11 0.323716 0.197070 0.250000
O O12 0.410740 0.500000 0.500000
O O13 0.500000 0.469283 0.368149
#
# Coordination Sequence:
#
# PCOD9468757 Si02
#       5
#    16  16  16  16  16
#     4  10  18  29  47  72 107 140 172 216 263 315
#     4  10  19  31  49  74 103 137 176 216 262 315
#     4   9  16  27  44  69 102 137 169 204 254 309
#     4   8  15  26  41  63  93 129 166 206 255 309
#     4  10  20  34  52  74 103 139 178 221 267 315
#
# _framework density 21.921441999999999
#
# number of rings (size 3 to 8) (size 9 to 14) (size 15 to 20)
#    0.000    2.600    0.000    6.000    0.000    2.400 
#    0.000    0.000    0.000    1.800    0.000    0.000 
#    0.000    0.000    0.000    0.000    0.000    0.200 
#
# Total GULP energy -223091.058738 kJ/mol
# GULP energy per Si atom -5577.276468 kJ/mol
# Density = 2.187155 g / cm^3
# Si number density = 21.921442 Si / 1000 Ang^3
#
#
#
# Elastic Constant Matrix: (Units=GPa)
#
#
# Indices 1 2 3 4 5 6 
#
# 1 31.3781 -5.1144 5.5502 0.0000 0.0000 0.0000
# 2 -5.1144 64.1324 31.8952 0.0000 0.0000 0.0000
# 3 5.5502 31.8952 144.6862 0.0000 0.0000 0.0000
# 4 0.0000 0.0000 0.0000 32.2006 0.0000 0.0000
# 5 0.0000 0.0000 0.0000 0.0000 -17.5290 0.0000
# 6 0.0000 0.0000 0.0000 0.0000 0.0000 -5.0643
#
#
#
# Elastic Compliance Matrix: (Units=1/GPa)
#
#
# Indices 1 2 3 4 5 6 
#
# 1 0.032828 0.003644 -0.002063 0.000000 0.000000 0.000000
# 2 0.003644 0.017917 -0.004090 0.000000 0.000000 0.000000
# 3 -0.002063 -0.004090 0.007892 0.000000 0.000000 0.000000
# 4 0.000000 0.000000 0.000000 0.031055 0.000000 0.000000
# 5 0.000000 0.000000 0.000000 0.000000 -0.057048 0.000000
# 6 0.000000 0.000000 0.000000 0.000000 0.000000 -0.197463
#
#
# Mechanical properties :
#
#
# Convention : Reuss Voigt Hill
#
# Bulk Modulus (GPa) = 18.64947 33.87317 26.26132
# Shear Modulus (GPa) = -35.22912 15.77919 -9.72496
#
# Velocity S-wave (km/s) = -4.01317 2.68583 -2.10853
# Velocity P-wave (km/s) = 3.59835 5.01038 2.46533
#
# Compressibility (1/GPa) = 0.05362082
#
# Stress axis : x y z
#
# Youngs Moduli (GPa) = 30.46170 55.81240 126.70843
#
# Poissons Ratio (x) = -0.20337 0.26134
# Poissons Ratio (y) = -0.11099 0.51817
# Poissons Ratio (z) = 0.06283 0.22824
#
# Static dielectric constant tensor:
#      x y z
#    x 1.772210 0.000000 0.000000 
#    y 0.000000 1.877060 0.000000 
#    z 0.000000 0.000000 1.846650 
# 
# From -- ./inp_files/35085.got.cif
#   From: 2010.05.17/outbox.cif.g08.bks.cpg/sg63_18_cif.got.tgz:35085.got - 2010.06.03 15:47:04.
