data_PCOD9468204
_publ_section_title
;
Structure prediction by ZEFSAII (Michael W. Deem and Ramdas Pophale) SiO2 
 PCOD9468204
Probable space group: C M C M
;
_chemical_formula_sum "Si O2"
_cell_formula_units_Z 68
_cell_length_a 19.522987
_cell_length_b 9.808622
_cell_length_c 14.941979
_cell_angle_alpha 90.000000
_cell_angle_beta 90.000000
_cell_angle_gamma 90.000000
_cell_volume 2861.293347
_symmetry_space_group_name_H-M "C M C M"
_symmetry_group_IT_number 63
_symmetry_cell_setting 'orthorhombic'
loop_
_space_group_symop_operation_xyz
x,y,z
-x,-y,1/2+z
x,-y,-z
-x,y,1/2-z
-x,-y,-z
x,y,1/2-z
-x,y,z
x,-y,1/2+z
1/2+x,1/2+y,z
1/2-x,1/2-y,1/2+z
1/2+x,1/2-y,-z
1/2-x,1/2+y,1/2-z
1/2-x,1/2-y,-z
1/2+x,1/2+y,1/2-z
1/2-x,1/2+y,z
1/2+x,1/2-y,1/2+z
loop_
_atom_site_type_symbol
_atom_site_label
_atom_site_fract_x
_atom_site_fract_y
_atom_site_fract_z
Si Si1 0.500000 0.321147 0.250000
Si Si2 0.667637 0.637679 0.250000
Si Si3 0.764216 0.125553 0.750000
Si Si4 0.080672 0.182906 0.082423
Si Si5 0.922228 0.495848 0.358335
Si Si6 0.126080 0.779518 0.388388
O O1 0.560592 0.314357 0.327151
O O2 0.694329 0.792186 0.250000
O O3 0.732669 0.537457 0.250000
O O4 0.621006 0.612588 0.163336
O O5 0.806667 0.171905 0.837108
O O6 0.086440 0.344772 0.104419
O O7 0.000000 0.147882 0.083713
O O8 0.113894 0.160912 0.986320
O O9 0.920337 0.495959 0.250000
O O10 0.873413 0.614040 0.393479
O O11 0.000000 0.537461 0.383364
#
# Coordination Sequence:
#
# PCOD9468204 Si02
#       6
#     4   8   8  16  16  16
#     4  10  16  34  62 102 150 176 228 286 348 432
#     4  12  29  53  69 103 144 192 253 290 361 433
#     4  11  30  49  74  95 142 200 246 295 350 435
#     4  11  23  41  72 110 149 185 230 309 368 425
#     4  10  16  31  62 106 148 183 221 280 349 420
#     4  11  20  40  69 106 140 187 243 286 359 421
#
# _framework density 23.765476
#
# number of rings (size 3 to 8) (size 9 to 14) (size 15 to 20)
#    0.000    1.176    5.882    1.059    3.294    3.765 
#    8.471    1.176    0.000    0.000    0.000    0.000 
#    0.000    0.000    0.000    0.000    0.000    0.000 
#
# Total GULP energy -189956.684937 kJ/mol
# GULP energy per Si atom -5586.961322 kJ/mol
# Density = 2.371138 g / cm^3
# Si number density = 23.765476 Si / 1000 Ang^3
#
#
#
# Elastic Constant Matrix: (Units=GPa)
#
#
# Indices 1 2 3 4 5 6 
#
# 1 76.5317 5.9470 37.1025 0.0000 0.0000 0.0000
# 2 5.9470 92.3426 -3.8239 0.0000 0.0000 0.0000
# 3 37.1025 -3.8239 174.4401 0.0000 0.0000 0.0000
# 4 0.0000 0.0000 0.0000 2.8970 0.0000 0.0000
# 5 0.0000 0.0000 0.0000 0.0000 9.6279 0.0000
# 6 0.0000 0.0000 0.0000 0.0000 0.0000 32.7155
#
#
#
# Elastic Compliance Matrix: (Units=1/GPa)
#
#
# Indices 1 2 3 4 5 6 
#
# 1 0.014675 -0.001075 -0.003145 0.000000 0.000000 0.000000
# 2 -0.001075 0.010918 0.000468 0.000000 0.000000 0.000000
# 3 -0.003145 0.000468 0.006412 0.000000 0.000000 0.000000
# 4 0.000000 0.000000 0.000000 0.345182 0.000000 0.000000
# 5 0.000000 0.000000 0.000000 0.000000 0.103864 0.000000
# 6 0.000000 0.000000 0.000000 0.000000 0.000000 0.030567
#
#
# Mechanical properties :
#
#
# Convention : Reuss Voigt Hill
#
# Bulk Modulus (GPa) = 40.81605 46.86287 43.83946
# Shear Modulus (GPa) = 9.48249 29.32068 19.40158
#
# Velocity S-wave (km/s) = 1.99967 3.51629 2.86033
# Velocity P-wave (km/s) = 4.74799 6.02058 5.42175
#
# Compressibility (1/GPa) = 0.02450017
#
# Stress axis : x y z
#
# Youngs Moduli (GPa) = 68.14481 91.59295 155.96322
#
# Poissons Ratio (x) = 0.09849 0.49047
# Poissons Ratio (y) = 0.07328 -0.07300
# Poissons Ratio (z) = 0.21430 -0.04287
#
# Static dielectric constant tensor:
#      x y z
#    x 1.847350 0.000000 0.000000 
#    y 0.000000 1.998930 0.000000 
#    z 0.000000 0.000000 1.852540 
# 
# From -- ./inp_files/35001.got.cif
#   From: 2010.05.17/outbox.cif.g08.bks.cpg/sg63_18_cif.got.tgz:35001.got - 2010.06.03 15:47:04.
