data_PCOD9468866
_publ_section_title
;
Structure prediction by ZEFSAII (Michael W. Deem and Ramdas Pophale) SiO2 
 PCOD9468866
Probable space group: C M C M
;
_chemical_formula_sum "Si O2"
_cell_formula_units_Z 112
_cell_length_a 20.720349
_cell_length_b 19.507574
_cell_length_c 18.714752
_cell_angle_alpha 90.000000
_cell_angle_beta 90.000000
_cell_angle_gamma 90.000000
_cell_volume 7564.572778
_symmetry_space_group_name_H-M "C M C M"
_symmetry_group_IT_number 63
_symmetry_cell_setting 'orthorhombic'
loop_
_space_group_symop_operation_xyz
x,y,z
-x,-y,1/2+z
x,-y,-z
-x,y,1/2-z
-x,-y,-z
x,y,1/2-z
-x,y,z
x,-y,1/2+z
1/2+x,1/2+y,z
1/2-x,1/2-y,1/2+z
1/2+x,1/2-y,-z
1/2-x,1/2+y,1/2-z
1/2-x,1/2-y,-z
1/2+x,1/2+y,1/2-z
1/2-x,1/2+y,z
1/2+x,1/2-y,1/2+z
loop_
_atom_site_type_symbol
_atom_site_label
_atom_site_fract_x
_atom_site_fract_y
_atom_site_fract_z
Si Si1 0.747449 0.867256 0.334202
Si Si2 0.757233 0.339612 0.832654
Si Si3 0.073095 0.957648 0.573388
Si Si4 0.363337 0.766990 0.169235
Si Si5 0.426727 0.703169 0.037796
Si Si6 0.693110 0.259623 0.441032
Si Si7 0.197435 0.984767 0.834688
O O1 0.763124 0.853314 0.250000
O O2 0.674867 0.838190 0.343658
O O3 0.789775 0.822716 0.388720
O O4 0.761468 0.946673 0.348186
O O5 0.779547 0.338762 0.750000
O O6 0.693595 0.290702 0.835283
O O7 0.805471 0.306232 0.889276
O O8 0.736293 0.415879 0.853337
O O9 0.082802 0.877062 0.556996
O O10 0.129748 0.983721 0.624287
O O11 0.000000 0.965757 0.602564
O O12 0.076460 0.000000 0.500000
O O13 0.388782 0.765931 0.250000
O O14 0.413982 0.746971 0.109382
O O15 0.500000 0.711420 0.012455
O O16 0.373047 0.726469 0.981603
O O17 0.750000 0.250000 0.500000
O O18 0.184657 0.981203 0.750000
#
# Coordination Sequence:
#
# PCOD9468866 Si02
#       7
#    16  16  16  16  16  16  16
#     4   9  18  30  49  70  94 123 160 202 242 279
#     4   9  17  29  48  70  93 118 155 202 244 280
#     4  10  20  32  43  62  99 138 162 188 229 279
#     4   9  16  31  48  67  95 124 153 198 247 285
#     4  11  21  31  47  72  98 129 166 199 235 285
#     4  11  17  30  50  67  93 130 159 191 241 287
#     4  10  18  30  47  71  94 119 159 205 238 282
#
# _framework density 14.805859999999999
#
# number of rings (size 3 to 8) (size 9 to 14) (size 15 to 20)
#    0.000    2.143    4.286    2.143    0.000    0.571 
#    0.000    1.429    0.000    2.571    0.000    2.000 
#    0.000    3.429    0.000    0.000    0.000    0.143 
#
# Total GULP energy -311982.533959 kJ/mol
# GULP energy per Si atom -5571.116678 kJ/mol
# Density = 1.477216 g / cm^3
# Si number density = 14.805860 Si / 1000 Ang^3
#
#
#
# Elastic Constant Matrix: (Units=GPa)
#
#
# Indices 1 2 3 4 5 6 
#
# 1 57.7949 34.4892 25.0464 0.0000 0.0000 0.0000
# 2 34.4892 100.4097 28.6816 0.0000 0.0000 0.0000
# 3 25.0464 28.6816 46.7404 0.0000 0.0000 0.0000
# 4 0.0000 0.0000 0.0000 18.4224 0.0000 0.0000
# 5 0.0000 0.0000 0.0000 0.0000 22.9078 0.0000
# 6 0.0000 0.0000 0.0000 0.0000 0.0000 16.4447
#
#
#
# Elastic Compliance Matrix: (Units=1/GPa)
#
#
# Indices 1 2 3 4 5 6 
#
# 1 0.025026 -0.005778 -0.009865 0.000000 0.000000 0.000000
# 2 -0.005778 0.013410 -0.005133 0.000000 0.000000 0.000000
# 3 -0.009865 -0.005133 0.029830 0.000000 0.000000 0.000000
# 4 0.000000 0.000000 0.000000 0.054282 0.000000 0.000000
# 5 0.000000 0.000000 0.000000 0.000000 0.043653 0.000000
# 6 0.000000 0.000000 0.000000 0.000000 0.000000 0.060810
#
#
# Mechanical properties :
#
#
# Convention : Reuss Voigt Hill
#
# Bulk Modulus (GPa) = 37.43164 42.37548 39.90356
# Shear Modulus (GPa) = 18.02018 19.33683 18.67850
#
# Velocity S-wave (km/s) = 3.49248 3.61782 3.55570
# Velocity P-wave (km/s) = 6.44978 6.79223 6.62322
#
# Compressibility (1/GPa) = 0.02671537
#
# Stress axis : x y z
#
# Youngs Moduli (GPa) = 39.95893 74.57120 33.52289
#
# Poissons Ratio (x) = 0.43088 0.33069
# Poissons Ratio (y) = 0.23089 0.17206
# Poissons Ratio (z) = 0.39418 0.38274
#
# Static dielectric constant tensor:
#      x y z
#    x 1.471910 0.000000 0.000000 
#    y 0.000000 1.499330 0.000000 
#    z 0.000000 0.000000 1.504210 
# 
# From -- ./inp_files/47334.got.cif
#   From: 2010.05.17/outbox.cif.g08.bks.cpg/sg63_24_cif.got.tgz:47334.got - 2010.06.03 15:47:04.
