data_PCOD9468311
_publ_section_title
;
Structure prediction by ZEFSAII (Michael W. Deem and Ramdas Pophale) SiO2 
 PCOD9468311
Probable space group: C M C M
;
_chemical_formula_sum "Si O2"
_cell_formula_units_Z 88
_cell_length_a 13.357272
_cell_length_b 28.394856
_cell_length_c 15.572592
_cell_angle_alpha 90.000000
_cell_angle_beta 90.000000
_cell_angle_gamma 90.000000
_cell_volume 5906.338668
_symmetry_space_group_name_H-M "C M C M"
_symmetry_group_IT_number 63
_symmetry_cell_setting 'orthorhombic'
loop_
_space_group_symop_operation_xyz
x,y,z
-x,-y,1/2+z
x,-y,-z
-x,y,1/2-z
-x,-y,-z
x,y,1/2-z
-x,y,z
x,-y,1/2+z
1/2+x,1/2+y,z
1/2-x,1/2-y,1/2+z
1/2+x,1/2-y,-z
1/2-x,1/2+y,1/2-z
1/2-x,1/2-y,-z
1/2+x,1/2+y,1/2-z
1/2-x,1/2+y,z
1/2+x,1/2-y,1/2+z
loop_
_atom_site_type_symbol
_atom_site_label
_atom_site_fract_x
_atom_site_fract_y
_atom_site_fract_z
Si Si1 0.622197 0.928705 0.250000
Si Si2 0.116420 0.738229 0.911311
Si Si3 0.189635 0.678668 0.750000
Si Si4 0.115150 0.239604 0.750000
Si Si5 0.195476 0.699853 0.408318
Si Si6 0.115279 0.605354 0.351036
Si Si7 0.378672 0.000386 0.098954
O O1 0.500000 0.923780 0.250000
O O2 0.671020 0.877095 0.250000
O O3 0.651215 0.959150 0.334853
O O4 0.139682 0.702364 0.833792
O O5 0.190423 0.782628 0.901353
O O6 0.000000 0.750400 0.911853
O O7 0.149104 0.714797 0.000919
O O8 0.304810 0.696932 0.750000
O O9 0.137488 0.272020 0.666931
O O10 0.000000 0.224489 0.750000
O O11 0.181434 0.644569 0.396019
O O12 0.115151 0.615344 0.250000
O O13 0.147527 0.551736 0.364615
O O14 0.000000 0.609807 0.382350
O O15 0.500000 0.997878 0.097468
O O16 0.344045 0.000000 0.000000
#
# Coordination Sequence:
#
# PCOD9468311 Si02
#       7
#     8  16   8   8  16  16  16
#     4  10  18  31  44  62  93 121 149 184 221 274
#     4  10  20  34  46  66  98 127 156 190 223 271
#     4  10  22  32  46  69  93 129 162 179 227 285
#     4  10  18  33  50  69  94 118 155 203 232 261
#     4  10  20  30  49  72  91 123 160 188 231 275
#     4  10  17  28  45  66  91 117 150 193 233 269
#     4   9  18  29  43  63  88 120 151 182 226 273
#
# _framework density 14.899246
#
# number of rings (size 3 to 8) (size 9 to 14) (size 15 to 20)
#    0.000    2.182    1.818    2.455    2.545    0.000 
#    0.000    0.000    0.000    0.000    0.000    1.273 
#    0.000    1.455    0.000    0.000    0.000    0.000 
#
# Total GULP energy -245221.776926 kJ/mol
# GULP energy per Si atom -5573.222203 kJ/mol
# Density = 1.486533 g / cm^3
# Si number density = 14.899246 Si / 1000 Ang^3
#
#
#
# Elastic Constant Matrix: (Units=GPa)
#
#
# Indices 1 2 3 4 5 6 
#
# 1 90.5506 39.9901 27.3731 0.0000 0.0000 0.0000
# 2 39.9901 102.1392 38.4313 0.0000 0.0000 0.0000
# 3 27.3731 38.4313 102.7250 0.0000 0.0000 0.0000
# 4 0.0000 0.0000 0.0000 15.4835 0.0000 0.0000
# 5 0.0000 0.0000 0.0000 0.0000 -4.1906 0.0000
# 6 0.0000 0.0000 0.0000 0.0000 0.0000 18.4463
#
#
#
# Elastic Compliance Matrix: (Units=1/GPa)
#
#
# Indices 1 2 3 4 5 6 
#
# 1 0.013666 -0.004633 -0.001909 0.000000 0.000000 0.000000
# 2 -0.004633 0.012965 -0.003616 0.000000 0.000000 0.000000
# 3 -0.001909 -0.003616 0.011596 0.000000 0.000000 0.000000
# 4 0.000000 0.000000 0.000000 0.064585 0.000000 0.000000
# 5 0.000000 0.000000 0.000000 0.000000 -0.238627 0.000000
# 6 0.000000 0.000000 0.000000 0.000000 0.000000 0.054212
#
#
# Mechanical properties :
#
#
# Convention : Reuss Voigt Hill
#
# Bulk Modulus (GPa) = 55.82485 56.33375 56.07930
# Shear Modulus (GPa) = -90.38641 18.58918 -35.89861
#
# Velocity S-wave (km/s) = -7.79723 3.53605 -4.91391
# Velocity P-wave (km/s) = 6.59642 7.38671 2.35060
#
# Compressibility (1/GPa) = 0.01791317
#
# Stress axis : x y z
#
# Youngs Moduli (GPa) = 73.17211 77.13130 86.23603
#
# Poissons Ratio (x) = 0.35732 0.16458
# Poissons Ratio (y) = 0.33898 0.31183
# Poissons Ratio (z) = 0.13965 0.27890
#
# Static dielectric constant tensor:
#      x y z
#    x 1.475430 0.000000 0.000000 
#    y 0.000000 1.480100 0.000000 
#    z 0.000000 0.000000 1.519720 
# 
# From -- ./inp_files/30295.got.cif
#   From: 2010.05.17/outbox.cif.g08.bks.cpg/sg63_16_cif.got.tgz:30295.got - 2010.06.03 15:47:04.
