data_PCOD9468137
_publ_section_title
;
Structure prediction by ZEFSAII (Michael W. Deem and Ramdas Pophale) SiO2 
 PCOD9468137
Probable space group: C M C M
;
_chemical_formula_sum "Si O2"
_cell_formula_units_Z 128
_cell_length_a 23.961978
_cell_length_b 19.939502
_cell_length_c 14.468952
_cell_angle_alpha 90.000000
_cell_angle_beta 90.000000
_cell_angle_gamma 90.000000
_cell_volume 6913.119249
_symmetry_space_group_name_H-M "C M C M"
_symmetry_group_IT_number 63
_symmetry_cell_setting 'orthorhombic'
loop_
_space_group_symop_operation_xyz
x,y,z
-x,-y,1/2+z
x,-y,-z
-x,y,1/2-z
-x,-y,-z
x,y,1/2-z
-x,y,z
x,-y,1/2+z
1/2+x,1/2+y,z
1/2-x,1/2-y,1/2+z
1/2+x,1/2-y,-z
1/2-x,1/2+y,1/2-z
1/2-x,1/2-y,-z
1/2+x,1/2+y,1/2-z
1/2-x,1/2+y,z
1/2+x,1/2-y,1/2+z
loop_
_atom_site_type_symbol
_atom_site_label
_atom_site_fract_x
_atom_site_fract_y
_atom_site_fract_z
Si Si1 0.392244 0.442466 0.106662
Si Si2 0.831121 0.273931 0.863120
Si Si3 0.062059 0.799768 0.354882
Si Si4 0.236644 0.601174 0.137199
Si Si5 0.738348 0.547554 0.862901
Si Si6 0.278392 0.188405 0.862542
Si Si7 0.656581 0.313012 0.639320
Si Si8 0.065288 0.917479 0.900818
O O1 0.413840 0.374851 0.153325
O O2 0.325348 0.444388 0.103614
O O3 0.411776 0.514207 0.146165
O O4 0.420269 0.432234 0.007055
O O5 0.832817 0.272293 0.750000
O O6 0.889382 0.245030 0.899546
O O7 0.813022 0.348798 0.890590
O O8 0.779784 0.224959 0.887832
O O9 0.056202 0.774592 0.250000
O O10 0.000000 0.800014 0.397567
O O11 0.236970 0.600839 0.250000
O O12 0.237463 0.524203 0.107850
O O13 0.294239 0.636832 0.106866
O O14 0.735290 0.548143 0.750000
O O15 0.774205 0.611746 0.893666
O O16 0.280441 0.186306 0.750000
O O17 0.327458 0.238454 0.894705
O O18 0.661851 0.309869 0.750000
O O19 0.598763 0.349831 0.620668
O O20 0.000000 0.911164 0.884137
#
# Coordination Sequence:
#
# PCOD9468137 Si02
#       8
#    16  16  16  16  16  16  16  16
#     4  11  20  32  43  60  89 122 148 176 215 260
#     4   8  13  23  38  60  89 114 136 173 217 249
#     4  10  18  27  43  65  87 114 147 177 207 253
#     4   8  14  24  42  65  87 111 142 176 213 256
#     4  10  16  26  48  72  89 115 149 177 210 260
#     4   8  14  25  44  67  90 109 134 179 229 257
#     4   9  17  31  48  65  83 109 148 189 218 254
#     4  11  23  35  44  57  86 125 154 180 220 256
#
# _framework density 18.515521
#
# number of rings (size 3 to 8) (size 9 to 14) (size 15 to 20)
#    0.000    2.625    2.500    3.375    0.000    0.750 
#    0.000    0.625    0.000    0.000    0.000    0.875 
#    0.000    5.000    0.000    2.375    0.000    2.125 
#
# Total GULP energy -356846.883429 kJ/mol
# GULP energy per Si atom -5575.732554 kJ/mol
# Density = 1.847338 g / cm^3
# Si number density = 18.515521 Si / 1000 Ang^3
#
#
#
# Elastic Constant Matrix: (Units=GPa)
#
#
# Indices 1 2 3 4 5 6 
#
# 1 104.9907 89.1880 8.7527 0.0000 0.0000 0.0000
# 2 89.1880 178.0533 9.0675 0.0000 0.0000 0.0000
# 3 8.7527 9.0675 32.4473 0.0000 0.0000 0.0000
# 4 0.0000 0.0000 0.0000 -34.7529 0.0000 0.0000
# 5 0.0000 0.0000 0.0000 0.0000 17.2288 0.0000
# 6 0.0000 0.0000 0.0000 0.0000 0.0000 19.9780
#
#
#
# Elastic Compliance Matrix: (Units=1/GPa)
#
#
# Indices 1 2 3 4 5 6 
#
# 1 0.016733 -0.008270 -0.002203 0.000000 0.000000 0.000000
# 2 -0.008270 0.009784 -0.000504 0.000000 0.000000 0.000000
# 3 -0.002203 -0.000504 0.031554 0.000000 0.000000 0.000000
# 4 0.000000 0.000000 0.000000 -0.028775 0.000000 0.000000
# 5 0.000000 0.000000 0.000000 0.000000 0.058042 0.000000
# 6 0.000000 0.000000 0.000000 0.000000 0.000000 0.050055
#
#
# Mechanical properties :
#
#
# Convention : Reuss Voigt Hill
#
# Bulk Modulus (GPa) = 27.68570 58.83419 43.25994
# Shear Modulus (GPa) = 29.17389 14.38965 21.78177
#
# Velocity S-wave (km/s) = 3.97375 2.79080 3.43360
# Velocity P-wave (km/s) = 6.00328 6.49841 6.25574
#
# Compressibility (1/GPa) = 0.03611973
#
# Stress axis : x y z
#
# Youngs Moduli (GPa) = 59.76148 102.20537 31.69153
#
# Poissons Ratio (x) = 0.84520 0.06981
# Poissons Ratio (y) = 0.49420 0.01596
# Poissons Ratio (z) = 0.13165 0.05146
#
# Static dielectric constant tensor:
#      x y z
#    x 1.624770 0.000000 0.000000 
#    y 0.000000 1.677880 0.000000 
#    z 0.000000 0.000000 2.290420 
# 
# From -- ./inp_files/48508.got.cif
#   From: 2010.05.17/outbox.cif.g08.bks.cpg/sg63_25_cif.got.tgz:48508.got - 2010.06.03 15:47:04.
