data_PCOD9468531
_publ_section_title
;
Structure prediction by ZEFSAII (Michael W. Deem and Ramdas Pophale) SiO2 
 PCOD9468531
Probable space group: C M C M
;
_chemical_formula_sum "Si O2"
_cell_formula_units_Z 80
_cell_length_a 24.711059
_cell_length_b 25.099567
_cell_length_c 7.864275
_cell_angle_alpha 90.000000
_cell_angle_beta 90.000000
_cell_angle_gamma 90.000000
_cell_volume 4877.713397
_symmetry_space_group_name_H-M "C M C M"
_symmetry_group_IT_number 63
_symmetry_cell_setting 'orthorhombic'
loop_
_space_group_symop_operation_xyz
x,y,z
-x,-y,1/2+z
x,-y,-z
-x,y,1/2-z
-x,-y,-z
x,y,1/2-z
-x,y,z
x,-y,1/2+z
1/2+x,1/2+y,z
1/2-x,1/2-y,1/2+z
1/2+x,1/2-y,-z
1/2-x,1/2+y,1/2-z
1/2-x,1/2-y,-z
1/2+x,1/2+y,1/2-z
1/2-x,1/2+y,z
1/2+x,1/2-y,1/2+z
loop_
_atom_site_type_symbol
_atom_site_label
_atom_site_fract_x
_atom_site_fract_y
_atom_site_fract_z
Si Si1 0.885519 0.941532 0.045743
Si Si2 0.264551 0.171940 0.451154
Si Si3 0.339219 0.264306 0.050747
Si Si4 0.438732 0.331809 0.041159
Si Si5 0.738844 0.441527 0.452581
O O1 0.883254 0.938701 0.250000
O O2 0.919603 0.890832 0.986717
O O3 0.823395 0.938112 0.981234
O O4 0.907086 0.000000 0.000000
O O5 0.259216 0.182127 0.250000
O O6 0.312512 0.210020 0.518720
O O7 0.208508 0.191909 0.533876
O O8 0.270862 0.109429 0.480359
O O9 0.349478 0.254942 0.250000
O O10 0.394115 0.289380 0.979534
O O11 0.437623 0.331660 0.250000
O O12 0.500000 0.320873 0.988388
O O13 0.759747 0.500000 0.500000
O O14 0.737110 0.437459 0.250000
#
# Coordination Sequence:
#
# PCOD9468531 Si02
#       5
#    16  16  16  16  16
#     4   9  17  28  41  57  79 108 143 180 212 245
#     4  10  18  27  44  65  86 112 142 176 217 261
#     4   9  17  30  44  62  85 111 145 181 216 257
#     4   9  16  28  45  61  80 110 147 184 218 250
#     4  10  18  29  44  63  89 114 142 177 215 256
#
# _framework density 16.401126999999999
#
# number of rings (size 3 to 8) (size 9 to 14) (size 15 to 20)
#    0.000    2.600    2.000    1.200    0.000    2.000 
#    0.000    0.000    0.000    1.800    0.000    0.000 
#    0.000    0.800    0.000    1.400    0.000    2.000 
#
# Total GULP energy -222930.723680 kJ/mol
# GULP energy per Si atom -5573.268092 kJ/mol
# Density = 1.636380 g / cm^3
# Si number density = 16.401127 Si / 1000 Ang^3
#
#
#
# Elastic Constant Matrix: (Units=GPa)
#
#
# Indices 1 2 3 4 5 6 
#
# 1 93.6146 72.0884 2.3498 0.0000 0.0000 0.0000
# 2 72.0884 131.5554 -4.4111 0.0000 0.0000 0.0000
# 3 2.3498 -4.4111 16.7128 0.0000 0.0000 0.0000
# 4 0.0000 0.0000 0.0000 19.5441 0.0000 0.0000
# 5 0.0000 0.0000 0.0000 0.0000 6.6398 0.0000
# 6 0.0000 0.0000 0.0000 0.0000 0.0000 22.2775
#
#
#
# Elastic Compliance Matrix: (Units=1/GPa)
#
#
# Indices 1 2 3 4 5 6 
#
# 1 0.018961 -0.010573 -0.005456 0.000000 0.000000 0.000000
# 2 -0.010573 0.013565 0.005067 0.000000 0.000000 0.000000
# 3 -0.005456 0.005067 0.061939 0.000000 0.000000 0.000000
# 4 0.000000 0.000000 0.000000 0.051166 0.000000 0.000000
# 5 0.000000 0.000000 0.000000 0.000000 0.150608 0.000000
# 6 0.000000 0.000000 0.000000 0.000000 0.000000 0.044888
#
#
# Mechanical properties :
#
#
# Convention : Reuss Voigt Hill
#
# Bulk Modulus (GPa) = 13.78562 42.43746 28.11154
# Shear Modulus (GPa) = 12.91216 21.14932 17.03074
#
# Velocity S-wave (km/s) = 2.80888 3.59486 3.22590
# Velocity P-wave (km/s) = 4.35239 6.56975 5.57247
#
# Compressibility (1/GPa) = 0.07253937
#
# Stress axis : x y z
#
# Youngs Moduli (GPa) = 52.74051 73.71982 16.14497
#
# Poissons Ratio (x) = 0.77943 0.08809
# Poissons Ratio (y) = 0.55762 -0.08180
# Poissons Ratio (z) = 0.28777 -0.37352
#
# Static dielectric constant tensor:
#      x y z
#    x 1.544350 0.000000 0.000000 
#    y 0.000000 1.573550 0.000000 
#    z 0.000000 0.000000 1.600600 
# 
# From -- ./inp_files/14304.got.cif
#   From: 2010.05.17/outbox.cif.g08.bks.cpg/sg63_8_cif.got.tgz:14304.got - 2010.06.03 15:47:04.
