data_PCOD9468523
_publ_section_title
;
Structure prediction by ZEFSAII (Michael W. Deem and Ramdas Pophale) SiO2 
 PCOD9468523
Probable space group: C M C M
;
_chemical_formula_sum "Si O2"
_cell_formula_units_Z 80
_cell_length_a 24.847275
_cell_length_b 26.511006
_cell_length_c 8.246303
_cell_angle_alpha 90.000000
_cell_angle_beta 90.000000
_cell_angle_gamma 90.000000
_cell_volume 5432.056306
_symmetry_space_group_name_H-M "C M C M"
_symmetry_group_IT_number 63
_symmetry_cell_setting 'orthorhombic'
loop_
_space_group_symop_operation_xyz
x,y,z
-x,-y,1/2+z
x,-y,-z
-x,y,1/2-z
-x,-y,-z
x,y,1/2-z
-x,y,z
x,-y,1/2+z
1/2+x,1/2+y,z
1/2-x,1/2-y,1/2+z
1/2+x,1/2-y,-z
1/2-x,1/2+y,1/2-z
1/2-x,1/2-y,-z
1/2+x,1/2+y,1/2-z
1/2-x,1/2+y,z
1/2+x,1/2-y,1/2+z
loop_
_atom_site_type_symbol
_atom_site_label
_atom_site_fract_x
_atom_site_fract_y
_atom_site_fract_z
Si Si1 0.395438 0.556744 0.559301
Si Si2 0.381854 0.742595 0.552449
Si Si3 0.681441 0.358152 0.944712
Si Si4 0.500000 0.725747 0.559451
Si Si5 0.500000 0.614070 0.436858
Si Si6 0.281594 0.199927 0.054767
O O1 0.386951 0.500000 0.500000
O O2 0.406224 0.556685 0.750000
O O3 0.345051 0.592702 0.521163
O O4 0.447221 0.581388 0.473262
O O5 0.382130 0.740248 0.750000
O O6 0.355024 0.690372 0.492321
O O7 0.443138 0.745378 0.492583
O O8 0.342686 0.788689 0.502082
O O9 0.680341 0.362923 0.750000
O O10 0.742625 0.345369 0.999455
O O11 0.500000 0.738110 0.750000
O O12 0.500000 0.665181 0.540459
O O13 0.500000 0.629790 0.250000
O O14 0.281964 0.198061 0.250000
O O15 0.250000 0.250000 0.000000
#
# Coordination Sequence:
#
# PCOD9468523 Si02
#       6
#    16  16  16   8   8  16
#     4  12  24  37  49  62  81 107 142 181 222 259
#     4   9  16  27  42  61  85 113 142 174 210 251
#     4  10  18  29  44  62  82 107 140 178 215 253
#     4  10  18  27  43  64  88 116 146 177 212 247
#     4  12  23  35  48  62  83 110 144 181 219 253
#     4   8  15  26  41  60  82 107 137 171 209 250
#
# _framework density 14.727387999999999
#
# number of rings (size 3 to 8) (size 9 to 14) (size 15 to 20)
#    0.000    2.000    2.000    3.600    0.000    0.800 
#    0.000    0.000    0.000    0.000    0.000    0.000 
#    0.000    0.000    0.000    0.900    0.000    6.400 
#
# Total GULP energy -222893.599250 kJ/mol
# GULP energy per Si atom -5572.339981 kJ/mol
# Density = 1.469387 g / cm^3
# Si number density = 14.727388 Si / 1000 Ang^3
#
#
#
# Elastic Constant Matrix: (Units=GPa)
#
#
# Indices 1 2 3 4 5 6 
#
# 1 123.0651 44.5751 -5.0677 0.0000 0.0000 0.0000
# 2 44.5751 40.1796 -10.2840 0.0000 0.0000 0.0000
# 3 -5.0677 -10.2840 14.6356 0.0000 0.0000 0.0000
# 4 0.0000 0.0000 0.0000 13.6353 0.0000 0.0000
# 5 0.0000 0.0000 0.0000 0.0000 12.5675 0.0000
# 6 0.0000 0.0000 0.0000 0.0000 0.0000 -20.3660
#
#
#
# Elastic Compliance Matrix: (Units=1/GPa)
#
#
# Indices 1 2 3 4 5 6 
#
# 1 0.014232 -0.017714 -0.007519 0.000000 0.000000 0.000000
# 2 -0.017714 0.052392 0.030681 0.000000 0.000000 0.000000
# 3 -0.007519 0.030681 0.087282 0.000000 0.000000 0.000000
# 4 0.000000 0.000000 0.000000 0.073339 0.000000 0.000000
# 5 0.000000 0.000000 0.000000 0.000000 0.079570 0.000000
# 6 0.000000 0.000000 0.000000 0.000000 0.000000 -0.049102
#
#
# Mechanical properties :
#
#
# Convention : Reuss Voigt Hill
#
# Bulk Modulus (GPa) = 6.06781 26.25859 16.16320
# Shear Modulus (GPa) = 16.56994 11.07782 13.82388
#
# Velocity S-wave (km/s) = 3.35791 2.74559 3.06707
# Velocity P-wave (km/s) = 4.37756 5.28389 4.85193
#
# Compressibility (1/GPa) = 0.16480409
#
# Stress axis : x y z
#
# Youngs Moduli (GPa) = 70.26348 19.08673 11.45713
#
# Poissons Ratio (x) = 0.33809 0.08614
# Poissons Ratio (y) = 1.24461 -0.35152
# Poissons Ratio (z) = 0.52830 -0.58560
#
# Static dielectric constant tensor:
#      x y z
#    x 1.539850 0.000000 0.000000 
#    y 0.000000 1.458410 0.000000 
#    z 0.000000 0.000000 1.502950 
# 
# From -- ./inp_files/10371.got.cif
#   From: 2010.05.17/outbox.cif.g08.bks.cpg/sg63_6_cif.got.tgz:10371.got - 2010.06.03 15:47:04.
