data_PCOD9468974
_publ_section_title
;
Structure prediction by ZEFSAII (Michael W. Deem and Ramdas Pophale) SiO2 
 PCOD9468974
Probable space group: C M C M
;
_chemical_formula_sum "Si O2"
_cell_formula_units_Z 88
_cell_length_a 8.930232
_cell_length_b 20.740312
_cell_length_c 25.750938
_cell_angle_alpha 90.000000
_cell_angle_beta 90.000000
_cell_angle_gamma 90.000000
_cell_volume 4769.480529
_symmetry_space_group_name_H-M "C M C M"
_symmetry_group_IT_number 63
_symmetry_cell_setting 'orthorhombic'
loop_
_space_group_symop_operation_xyz
x,y,z
-x,-y,1/2+z
x,-y,-z
-x,y,1/2-z
-x,-y,-z
x,y,1/2-z
-x,y,z
x,-y,1/2+z
1/2+x,1/2+y,z
1/2-x,1/2-y,1/2+z
1/2+x,1/2-y,-z
1/2-x,1/2+y,1/2-z
1/2-x,1/2-y,-z
1/2+x,1/2+y,1/2-z
1/2-x,1/2+y,z
1/2+x,1/2-y,1/2+z
loop_
_atom_site_type_symbol
_atom_site_label
_atom_site_fract_x
_atom_site_fract_y
_atom_site_fract_z
Si Si1 0.256119 0.000000 0.500000
Si Si2 0.679773 0.695369 0.880343
Si Si3 0.672166 0.467214 0.615111
Si Si4 0.319268 0.326169 0.593453
Si Si5 0.669762 0.146390 0.985214
Si Si6 0.317170 0.422004 0.309278
O O1 0.173378 0.990099 0.555053
O O2 0.335931 0.931199 0.492462
O O3 0.500000 0.701048 0.882518
O O4 0.755161 0.765076 0.876530
O O5 0.739928 0.663758 0.933603
O O6 0.722730 0.646530 0.834402
O O7 0.500000 0.460647 0.631193
O O8 0.735411 0.394938 0.616214
O O9 0.739635 0.521097 0.652788
O O10 0.500000 0.325500 0.591814
O O11 0.254622 0.324811 0.534966
O O12 0.500000 0.171366 0.982015
O O13 0.268103 0.429447 0.250000
O O14 0.500000 0.423857 0.309866
#
# Coordination Sequence:
#
# PCOD9468974 Si02
#       6
#     8  16  16  16  16  16
#     4  10  18  30  50  80 111 144 175 220 275 330
#     4  11  21  35  55  79 108 145 184 226 271 321
#     4   9  17  31  53  80 109 140 179 224 270 322
#     4  10  21  35  53  79 113 147 179 220 271 330
#     4  11  21  33  51  79 114 148 180 219 270 330
#     4   9  18  34  57  82 105 137 186 234 272 318
#
# _framework density 18.450645999999999
#
# number of rings (size 3 to 8) (size 9 to 14) (size 15 to 20)
#    0.000    2.000    1.818    2.727    0.000    1.455 
#    0.000    0.909    0.000    3.273    0.000    0.000 
#    0.000    0.000    0.000    0.000    0.000    0.000 
#
# Total GULP energy -245286.666034 kJ/mol
# GULP energy per Si atom -5574.696955 kJ/mol
# Density = 1.840865 g / cm^3
# Si number density = 18.450646 Si / 1000 Ang^3
#
#
#
# Elastic Constant Matrix: (Units=GPa)
#
#
# Indices 1 2 3 4 5 6 
#
# 1 51.1548 20.8440 9.8100 0.0000 0.0000 0.0000
# 2 20.8440 143.2260 70.9089 0.0000 0.0000 0.0000
# 3 9.8100 70.9089 109.6927 0.0000 0.0000 0.0000
# 4 0.0000 0.0000 0.0000 21.5779 0.0000 0.0000
# 5 0.0000 0.0000 0.0000 0.0000 9.6583 0.0000
# 6 0.0000 0.0000 0.0000 0.0000 0.0000 15.1671
#
#
#
# Elastic Compliance Matrix: (Units=1/GPa)
#
#
# Indices 1 2 3 4 5 6 
#
# 1 0.020782 -0.003095 0.000142 0.000000 0.000000 0.000000
# 2 -0.003095 0.010729 -0.006659 0.000000 0.000000 0.000000
# 3 0.000142 -0.006659 0.013408 0.000000 0.000000 0.000000
# 4 0.000000 0.000000 0.000000 0.046344 0.000000 0.000000
# 5 0.000000 0.000000 0.000000 0.000000 0.103537 0.000000
# 6 0.000000 0.000000 0.000000 0.000000 0.000000 0.065932
#
#
# Mechanical properties :
#
#
# Convention : Reuss Voigt Hill
#
# Bulk Modulus (GPa) = 38.91622 56.35549 47.63585
# Shear Modulus (GPa) = 17.32974 22.78138 20.05556
#
# Velocity S-wave (km/s) = 3.06804 3.51767 3.30052
# Velocity P-wave (km/s) = 5.80417 6.86359 6.35599
#
# Compressibility (1/GPa) = 0.02569623
#
# Stress axis : x y z
#
# Youngs Moduli (GPa) = 48.11787 93.20492 74.58137
#
# Poissons Ratio (x) = 0.28845 -0.01059
# Poissons Ratio (y) = 0.14891 0.49663
# Poissons Ratio (z) = -0.00683 0.62064
#
# Static dielectric constant tensor:
#      x y z
#    x 1.640030 0.000000 0.000000 
#    y 0.000000 1.680650 0.000000 
#    z 0.000000 0.000000 1.609680 
# 
# From -- ./inp_files/59654.got.cif
#   From: 2010.05.17/outbox.cif.g08.bks.cpg/sg63_30_cif.got.tgz:59654.got - 2010.06.03 15:47:04.
