data_PCOD9468150
_publ_section_title
;
Structure prediction by ZEFSAII (Michael W. Deem and Ramdas Pophale) SiO2 
 PCOD9468150
Probable space group: C M C M
;
_chemical_formula_sum "Si O2"
_cell_formula_units_Z 96
_cell_length_a 28.487046
_cell_length_b 10.744349
_cell_length_c 15.759260
_cell_angle_alpha 90.000000
_cell_angle_beta 90.000000
_cell_angle_gamma 90.000000
_cell_volume 4823.511789
_symmetry_space_group_name_H-M "C M C M"
_symmetry_group_IT_number 63
_symmetry_cell_setting 'orthorhombic'
loop_
_space_group_symop_operation_xyz
x,y,z
-x,-y,1/2+z
x,-y,-z
-x,y,1/2-z
-x,-y,-z
x,y,1/2-z
-x,y,z
x,-y,1/2+z
1/2+x,1/2+y,z
1/2-x,1/2-y,1/2+z
1/2+x,1/2-y,-z
1/2-x,1/2+y,1/2-z
1/2-x,1/2-y,-z
1/2+x,1/2+y,1/2-z
1/2-x,1/2+y,z
1/2+x,1/2-y,1/2+z
loop_
_atom_site_type_symbol
_atom_site_label
_atom_site_fract_x
_atom_site_fract_y
_atom_site_fract_z
Si Si1 0.853080 0.268339 0.602854
Si Si2 0.650081 0.250890 0.596663
Si Si3 0.797023 0.506692 0.896142
Si Si4 0.687961 0.511146 0.896275
Si Si5 0.054190 0.576274 0.087795
Si Si6 0.948670 0.687505 0.653809
O O1 0.839836 0.255543 0.503426
O O2 0.819733 0.378642 0.636816
O O3 0.841410 0.130407 0.635645
O O4 0.906291 0.321085 0.605776
O O5 0.672886 0.125418 0.633110
O O6 0.669737 0.377757 0.634716
O O7 0.594318 0.246213 0.605349
O O8 0.742708 0.524737 0.874722
O O9 0.799785 0.500000 0.000000
O O10 0.684702 0.500000 0.000000
O O11 0.056742 0.461961 0.153130
O O12 0.000000 0.620643 0.084658
O O13 0.064608 0.500000 0.000000
O O14 0.947548 0.731902 0.750000
O O15 0.000000 0.713590 0.616101
#
# Coordination Sequence:
#
# PCOD9468150 Si02
#       6
#    16  16  16  16  16  16
#     4  10  16  27  45  73 101 126 157 196 244 285
#     4  10  17  29  46  70  98 129 160 196 238 281
#     4   9  15  26  44  69  99 132 163 194 233 279
#     4   9  18  26  41  71 107 130 154 195 239 284
#     4  10  17  29  50  73  96 121 156 205 252 290
#     4  10  20  33  51  73  94 123 165 205 242 293
#
# _framework density 19.902511000000001
#
# number of rings (size 3 to 8) (size 9 to 14) (size 15 to 20)
#    0.000    2.333    3.333    1.500    0.000    4.000 
#    0.000    0.833    0.000    5.000    0.000    2.333 
#    0.000    0.000    0.000    0.000    0.000    0.000 
#
# Total GULP energy -267524.447556 kJ/mol
# GULP energy per Si atom -5573.425991 kJ/mol
# Density = 1.985721 g / cm^3
# Si number density = 19.902511 Si / 1000 Ang^3
#
#
#
# Elastic Constant Matrix: (Units=GPa)
#
#
# Indices 1 2 3 4 5 6 
#
# 1 134.7116 81.9896 -10.2669 0.0000 0.0000 0.0000
# 2 81.9896 135.0349 -3.9213 0.0000 0.0000 0.0000
# 3 -10.2669 -3.9213 20.7446 0.0000 0.0000 0.0000
# 4 0.0000 0.0000 0.0000 -2.4469 0.0000 0.0000
# 5 0.0000 0.0000 0.0000 0.0000 -19.9629 0.0000
# 6 0.0000 0.0000 0.0000 0.0000 0.0000 0.5136
#
#
#
# Elastic Compliance Matrix: (Units=1/GPa)
#
#
# Indices 1 2 3 4 5 6 
#
# 1 0.012208 -0.007277 0.004666 0.000000 0.000000 0.000000
# 2 -0.007277 0.011784 -0.001374 0.000000 0.000000 0.000000
# 3 0.004666 -0.001374 0.050255 0.000000 0.000000 0.000000
# 4 0.000000 0.000000 0.000000 -0.408677 0.000000 0.000000
# 5 0.000000 0.000000 0.000000 0.000000 -0.050093 0.000000
# 6 0.000000 0.000000 0.000000 0.000000 0.000000 1.947170
#
#
# Mechanical properties :
#
#
# Convention : Reuss Voigt Hill
#
# Bulk Modulus (GPa) = 15.08793 47.34377 31.21585
# Shear Modulus (GPa) = 3.13931 10.46672 6.80301
#
# Velocity S-wave (km/s) = 1.25729 2.29574 1.85083
# Velocity P-wave (km/s) = 3.11530 5.55578 4.50398
#
# Compressibility (1/GPa) = 0.06627815
#
# Stress axis : x y z
#
# Youngs Moduli (GPa) = 81.91528 84.86216 19.89846
#
# Poissons Ratio (x) = 0.61752 -0.09285
# Poissons Ratio (y) = 0.59607 0.02734
# Poissons Ratio (z) = -0.38224 0.11659
#
# Static dielectric constant tensor:
#      x y z
#    x 1.691970 0.000000 0.000000 
#    y 0.000000 1.705140 0.000000 
#    z 0.000000 0.000000 1.751170 
# 
# From -- ./inp_files/58277.got.cif
#   From: 2010.05.17/outbox.cif.g08.bks.cpg/sg63_30_cif.got.tgz:58277.got - 2010.06.03 15:47:04.
