data_PCOD9468041
_publ_section_title
;
Structure prediction by ZEFSAII (Michael W. Deem and Ramdas Pophale) SiO2 
 PCOD9468041
Probable space group: P N M A
;
_chemical_formula_sum "Si O2"
_cell_formula_units_Z 40
_cell_length_a 18.000000
_cell_length_b 9.000000
_cell_length_c 12.000000
_cell_angle_alpha 90.000000
_cell_angle_beta 90.000000
_cell_angle_gamma 90.000000
_cell_volume 1944.000000
_symmetry_space_group_name_H-M "P N M A"
_symmetry_group_IT_number 62
_symmetry_cell_setting 'orthorhombic'
loop_
_space_group_symop_operation_xyz
x,y,z
1/2-x,-y,1/2+z
1/2+x,1/2-y,1/2-z
-x,1/2+y,-z
-x,-y,-z
1/2+x,y,1/2-z
1/2-x,1/2+y,1/2+z
x,1/2-y,z
loop_
_atom_site_type_symbol
_atom_site_label
_atom_site_fract_x
_atom_site_fract_y
_atom_site_fract_z
Si Si1 0.133278 0.073589 0.549723
Si Si2 0.079648 0.575937 0.980414
Si Si3 0.382612 0.928970 0.803444
Si Si4 0.712767 0.071851 0.387506
Si Si5 0.043727 0.578454 0.735149
O O1 0.140683 0.250000 0.546837
O O2 0.110679 0.016951 0.428153
O O3 0.211071 0.000444 0.578620
O O4 0.074762 0.025479 0.640951
O O5 0.078360 0.750000 0.014415
O O6 0.090486 0.571883 0.847205
O O7 0.145816 0.486547 0.036666
O O8 0.000000 0.500000 0.000000
O O9 0.377711 0.750000 0.806221
O O10 0.310984 0.978844 0.736511
O O11 0.458636 0.963546 0.740124
O O12 0.717413 0.250000 0.392296
O O13 0.044073 0.750000 0.695612
#
# Coordination Sequence:
#
# PCOD9468041 Si02
#       5
#     8   8   8   8   8
#     4  11  24  40  61  93 125 159 206 256 305 366
#     4  11  22  39  64  92 123 160 205 255 305 364
#     4   9  20  41  64  85 120 163 201 246 306 367
#     4  11  23  42  63  88 124 167 206 249 310 368
#     4  10  21  41  65  89 120 163 204 247 311 370
#
# _framework density 20.576132000000001
#
# number of rings (size 3 to 8) (size 9 to 14) (size 15 to 20)
#    0.000    1.600    2.000    2.400    2.800    1.600 
#    0.000    4.000    0.000    0.000    0.000    0.000 
#    0.000    0.000    0.000    0.000    0.000    0.000 
#
# Total GULP energy -223148.844801 kJ/mol
# GULP energy per Si atom -5578.721120 kJ/mol
# Density = 2.052930 g / cm^3
# Si number density = 20.576132 Si / 1000 Ang^3
#
#
#
# Elastic Constant Matrix: (Units=GPa)
#
#
# Indices 1 2 3 4 5 6 
#
# 1 58.5148 14.5167 21.0955 0.0000 0.0000 0.0000
# 2 14.5167 55.5174 28.5725 0.0000 0.0000 0.0000
# 3 21.0955 28.5725 75.7653 0.0000 0.0000 0.0000
# 4 0.0000 0.0000 0.0000 25.0920 0.0000 0.0000
# 5 0.0000 0.0000 0.0000 0.0000 29.8351 0.0000
# 6 0.0000 0.0000 0.0000 0.0000 0.0000 33.2776
#
#
#
# Elastic Compliance Matrix: (Units=1/GPa)
#
#
# Indices 1 2 3 4 5 6 
#
# 1 0.019350 -0.002838 -0.004318 0.000000 0.000000 0.000000
# 2 -0.002838 0.022766 -0.007796 0.000000 0.000000 0.000000
# 3 -0.004318 -0.007796 0.017341 0.000000 0.000000 0.000000
# 4 0.000000 0.000000 0.000000 0.039853 0.000000 0.000000
# 5 0.000000 0.000000 0.000000 0.000000 0.033518 0.000000
# 6 0.000000 0.000000 0.000000 0.000000 0.000000 0.030050
#
#
# Mechanical properties :
#
#
# Convention : Reuss Voigt Hill
#
# Bulk Modulus (GPa) = 33.83434 35.35186 34.59310
# Shear Modulus (GPa) = 24.67530 26.01514 25.34522
#
# Velocity S-wave (km/s) = 3.46673 3.55961 3.51348
# Velocity P-wave (km/s) = 5.70118 5.84061 5.77132
#
# Compressibility (1/GPa) = 0.02955577
#
# Stress axis : x y z
#
# Youngs Moduli (GPa) = 51.67900 43.92435 57.66788
#
# Poissons Ratio (x) = 0.12464 0.24899
# Poissons Ratio (y) = 0.14664 0.44955
# Poissons Ratio (z) = 0.22313 0.34242
#
# Static dielectric constant tensor:
#      x y z
#    x 1.711940 0.000000 0.000000 
#    y 0.000000 1.680950 0.000000 
#    z 0.000000 0.000000 1.865100 
# 
# From -- ./inp_files/13855.got.cif
#   From: 2010.05.17/outbox.ucp.g08.bks.cvg/sg62_7_cif.got.tgz:13855.got - 2010.06.11 16:29:25.
