data_PCOD9468131
_publ_section_title
;
Structure prediction by ZEFSAII (Michael W. Deem and Ramdas Pophale) SiO2 
 PCOD9468131
Probable space group: C M C M
;
_chemical_formula_sum "Si O2"
_cell_formula_units_Z 80
_cell_length_a 21.743539
_cell_length_b 11.542002
_cell_length_c 15.757792
_cell_angle_alpha 90.000000
_cell_angle_beta 90.000000
_cell_angle_gamma 90.000000
_cell_volume 3954.638049
_symmetry_space_group_name_H-M "C M C M"
_symmetry_group_IT_number 63
_symmetry_cell_setting 'orthorhombic'
loop_
_space_group_symop_operation_xyz
x,y,z
-x,-y,1/2+z
x,-y,-z
-x,y,1/2-z
-x,-y,-z
x,y,1/2-z
-x,y,z
x,-y,1/2+z
1/2+x,1/2+y,z
1/2-x,1/2-y,1/2+z
1/2+x,1/2-y,-z
1/2-x,1/2+y,1/2-z
1/2-x,1/2-y,-z
1/2+x,1/2+y,1/2-z
1/2-x,1/2+y,z
1/2+x,1/2-y,1/2+z
loop_
_atom_site_type_symbol
_atom_site_label
_atom_site_fract_x
_atom_site_fract_y
_atom_site_fract_z
Si Si1 0.500000 0.760858 0.653162
Si Si2 0.189819 0.824320 0.518753
Si Si3 0.361982 0.295065 0.150495
Si Si4 0.500000 0.022522 0.601764
Si Si5 0.226671 0.567878 0.345740
Si Si6 0.631524 0.905964 0.421774
O O1 0.500000 0.723844 0.750000
O O2 0.566912 0.721696 0.622628
O O3 0.500000 0.898780 0.645730
O O4 0.250000 0.750000 0.500000
O O5 0.166444 0.867255 0.427283
O O6 0.217858 0.092210 0.410191
O O7 0.142474 0.726318 0.551600
O O8 0.358541 0.333458 0.250000
O O9 0.324358 0.172507 0.148537
O O10 0.564670 0.083125 0.620599
O O11 0.500000 0.000000 0.500000
O O12 0.249782 0.566210 0.250000
O O13 0.188345 0.451837 0.365954
O O14 0.632685 0.000000 0.500000
#
# Coordination Sequence:
#
# PCOD9468131 Si02
#       6
#     8  16  16   8  16  16
#     4  10  16  26  44  70 102 131 166 207 258 323
#     4  10  19  32  48  68 104 141 180 217 254 312
#     4   9  16  27  45  69  98 134 169 207 256 307
#     4  10  18  26  44  74 102 131 165 201 261 325
#     4  10  20  33  49  69 100 141 183 220 259 307
#     4  11  18  31  50  72 105 138 172 213 262 315
#
# _framework density 20.229412
#
# number of rings (size 3 to 8) (size 9 to 14) (size 15 to 20)
#    0.000    2.000    6.000    1.200    0.000    0.800 
#    0.000    0.000    0.000    1.200    0.000    0.700 
#    0.000   33.600    0.000    8.800    0.000    0.000 
#
# Total GULP energy -222767.832908 kJ/mol
# GULP energy per Si atom -5569.195823 kJ/mol
# Density = 2.018337 g / cm^3
# Si number density = 20.229412 Si / 1000 Ang^3
#
#
#
# Elastic Constant Matrix: (Units=GPa)
#
#
# Indices 1 2 3 4 5 6 
#
# 1 138.4287 46.3418 68.7114 0.0000 0.0000 0.0000
# 2 46.3418 65.0419 36.6308 0.0000 0.0000 0.0000
# 3 68.7114 36.6308 132.9679 0.0000 0.0000 0.0000
# 4 0.0000 0.0000 0.0000 7.8913 0.0000 0.0000
# 5 0.0000 0.0000 0.0000 0.0000 23.9027 0.0000
# 6 0.0000 0.0000 0.0000 0.0000 0.0000 21.2800
#
#
#
# Elastic Compliance Matrix: (Units=1/GPa)
#
#
# Indices 1 2 3 4 5 6 
#
# 1 0.011205 -0.005590 -0.004250 0.000000 0.000000 0.000000
# 2 -0.005590 0.020987 -0.002893 0.000000 0.000000 0.000000
# 3 -0.004250 -0.002893 0.010514 0.000000 0.000000 0.000000
# 4 0.000000 0.000000 0.000000 0.126722 0.000000 0.000000
# 5 0.000000 0.000000 0.000000 0.000000 0.041836 0.000000
# 6 0.000000 0.000000 0.000000 0.000000 0.000000 0.046992
#
#
# Mechanical properties :
#
#
# Convention : Reuss Voigt Hill
#
# Bulk Modulus (GPa) = 58.00645 71.08962 64.54804
# Shear Modulus (GPa) = 17.27306 22.93178 20.10242
#
# Velocity S-wave (km/s) = 2.92526 3.37053 3.15576
# Velocity P-wave (km/s) = 6.33609 7.09685 6.72723
#
# Compressibility (1/GPa) = 0.01723946
#
# Stress axis : x y z
#
# Youngs Moduli (GPa) = 89.24667 47.64937 95.11185
#
# Poissons Ratio (x) = 0.26635 0.40425
# Poissons Ratio (y) = 0.49886 0.27516
# Poissons Ratio (z) = 0.37932 0.13785
#
# Static dielectric constant tensor:
#      x y z
#    x 1.823070 0.000000 0.000000 
#    y 0.000000 1.476700 0.000000 
#    z 0.000000 0.000000 1.771760 
# 
# From -- ./inp_files/56682.got.cif
#   From: 2010.05.17/outbox.cif.g08.bks.cpg/sg63_29_cif.got.tgz:56682.got - 2010.06.03 15:47:04.
