data_PCOD9468050
_publ_section_title
;
Structure prediction by ZEFSAII (Michael W. Deem and Ramdas Pophale) SiO2 
 PCOD9468050
Probable space group: P N M A
;
_chemical_formula_sum "Si O2"
_cell_formula_units_Z 48
_cell_length_a 12.000000
_cell_length_b 9.000000
_cell_length_c 24.000000
_cell_angle_alpha 90.000000
_cell_angle_beta 90.000000
_cell_angle_gamma 90.000000
_cell_volume 2592.000000
_symmetry_space_group_name_H-M "P N M A"
_symmetry_group_IT_number 62
_symmetry_cell_setting 'orthorhombic'
loop_
_space_group_symop_operation_xyz
x,y,z
1/2-x,-y,1/2+z
1/2+x,1/2-y,1/2-z
-x,1/2+y,-z
-x,-y,-z
1/2+x,y,1/2-z
1/2-x,1/2+y,1/2+z
x,1/2-y,z
loop_
_atom_site_type_symbol
_atom_site_label
_atom_site_fract_x
_atom_site_fract_y
_atom_site_fract_z
Si Si1 0.935985 0.076476 0.550268
Si Si2 0.001612 0.429176 0.061457
Si Si3 0.065245 0.921476 0.644401
Si Si4 0.633113 0.425807 0.222753
Si Si5 0.738736 0.928800 0.611929
Si Si6 0.671670 0.427209 0.345513
O O1 0.921284 0.250000 0.540429
O O2 0.818907 0.000783 0.565720
O O3 0.000000 0.000000 0.500000
O O4 0.013296 0.040153 0.603026
O O5 0.008420 0.250000 0.054516
O O6 0.103074 0.482758 0.101053
O O7 0.888109 0.462012 0.095829
O O8 0.000000 0.500000 0.000000
O O9 0.044109 0.750000 0.624727
O O10 0.196084 0.941628 0.648846
O O11 0.993338 0.936342 0.700589
O O12 0.660282 0.250000 0.227658
O O13 0.714911 0.480065 0.172807
O O14 0.642260 0.490841 0.284528
O O15 0.752661 0.750000 0.610540
O O16 0.645592 0.250000 0.344016
#
# Coordination Sequence:
#
# PCOD9468050 Si02
#       6
#     8   8   8   8   8   8
#     4  11  22  36  57  80 106 140 182 228 279 332
#     4  10  22  37  54  80 115 152 193 228 273 330
#     4   9  18  33  53  82 114 141 179 225 276 331
#     4   8  15  29  53  83 110 138 179 230 283 326
#     4   9  19  36  56  82 113 144 182 232 280 332
#     4   9  18  31  54  85 113 144 180 228 278 327
#
# _framework density 18.518519000000001
#
# number of rings (size 3 to 8) (size 9 to 14) (size 15 to 20)
#    0.000    2.667    0.000    2.500    4.667    0.667 
#    0.000    0.000    0.000    8.000    0.000    0.000 
#    0.000    0.000    0.000    0.000    0.000    0.000 
#
# Total GULP energy -267390.238504 kJ/mol
# GULP energy per Si atom -5570.629969 kJ/mol
# Density = 1.847637 g / cm^3
# Si number density = 18.518519 Si / 1000 Ang^3
#
#
#
# Elastic Constant Matrix: (Units=GPa)
#
#
# Indices 1 2 3 4 5 6 
#
# 1 93.1245 21.7732 46.7772 0.0000 0.0000 0.0000
# 2 21.7732 20.8242 10.1601 0.0000 0.0000 0.0000
# 3 46.7772 10.1601 82.7889 0.0000 0.0000 0.0000
# 4 0.0000 0.0000 0.0000 19.7655 0.0000 0.0000
# 5 0.0000 0.0000 0.0000 0.0000 6.7584 0.0000
# 6 0.0000 0.0000 0.0000 0.0000 0.0000 16.3962
#
#
#
# Elastic Compliance Matrix: (Units=1/GPa)
#
#
# Indices 1 2 3 4 5 6 
#
# 1 0.018669 -0.015289 -0.008672 0.000000 0.000000 0.000000
# 2 -0.015289 0.063600 0.000833 0.000000 0.000000 0.000000
# 3 -0.008672 0.000833 0.016876 0.000000 0.000000 0.000000
# 4 0.000000 0.000000 0.000000 0.050593 0.000000 0.000000
# 5 0.000000 0.000000 0.000000 0.000000 0.147965 0.000000
# 6 0.000000 0.000000 0.000000 0.000000 0.000000 0.060990
#
#
# Mechanical properties :
#
#
# Convention : Reuss Voigt Hill
#
# Bulk Modulus (GPa) = 18.90700 39.35097 29.12898
# Shear Modulus (GPa) = 11.83211 16.45247 14.14229
#
# Velocity S-wave (km/s) = 2.53046 2.98389 2.76648
# Velocity P-wave (km/s) = 4.33238 5.75909 5.09592
#
# Compressibility (1/GPa) = 0.05289047
#
# Stress axis : x y z
#
# Youngs Moduli (GPa) = 53.56486 15.72325 59.25402
#
# Poissons Ratio (x) = 0.24039 0.51385
# Poissons Ratio (y) = 0.81894 -0.04937
# Poissons Ratio (z) = 0.46451 -0.01310
#
# Static dielectric constant tensor:
#      x y z
#    x 1.651060 0.000000 0.000000 
#    y 0.000000 1.633140 0.000000 
#    z 0.000000 0.000000 1.686050 
# 
# From -- ./inp_files/29231.got.cif
#   From: 2010.05.17/outbox.ucp.g08.bks.cvg/sg62_15_cif.got.tgz:29231.got - 2010.06.11 16:29:25.
