data_PCOD9468595
_publ_section_title
;
Structure prediction by ZEFSAII (Michael W. Deem and Ramdas Pophale) SiO2 
 PCOD9468595
Probable space group: C M C M
;
_chemical_formula_sum "Si O2"
_cell_formula_units_Z 112
_cell_length_a 14.807014
_cell_length_b 17.913454
_cell_length_c 18.997985
_cell_angle_alpha 90.000000
_cell_angle_beta 90.000000
_cell_angle_gamma 90.000000
_cell_volume 5039.116051
_symmetry_space_group_name_H-M "C M C M"
_symmetry_group_IT_number 63
_symmetry_cell_setting 'orthorhombic'
loop_
_space_group_symop_operation_xyz
x,y,z
-x,-y,1/2+z
x,-y,-z
-x,y,1/2-z
-x,-y,-z
x,y,1/2-z
-x,y,z
x,-y,1/2+z
1/2+x,1/2+y,z
1/2-x,1/2-y,1/2+z
1/2+x,1/2-y,-z
1/2-x,1/2+y,1/2-z
1/2-x,1/2-y,-z
1/2+x,1/2+y,1/2-z
1/2-x,1/2+y,z
1/2+x,1/2-y,1/2+z
loop_
_atom_site_type_symbol
_atom_site_label
_atom_site_fract_x
_atom_site_fract_y
_atom_site_fract_z
Si Si1 0.000000 0.584268 0.532521
Si Si2 0.144941 0.082401 0.330109
Si Si3 0.802674 0.417277 0.469379
Si Si4 0.165718 0.811942 0.946732
Si Si5 0.847303 0.234327 0.906771
Si Si6 0.500000 0.008160 0.832858
Si Si7 0.140199 0.384253 0.669446
Si Si8 0.688096 0.415781 0.333680
O O1 0.000000 0.500000 0.500000
O O2 0.098219 0.615315 0.516335
O O3 0.000000 0.578192 0.617240
O O4 0.114183 0.096078 0.250000
O O5 0.112166 0.142543 0.387334
O O6 0.253567 0.097230 0.331850
O O7 0.134351 0.993997 0.345750
O O8 0.800975 0.500000 0.500000
O O9 0.729698 0.372451 0.514224
O O10 0.772283 0.418724 0.387926
O O11 0.237986 0.752280 0.915207
O O12 0.116016 0.779366 0.014779
O O13 0.882235 0.309444 0.871701
O O14 0.859653 0.160989 0.858515
O O15 0.500000 0.023699 0.750000
O O16 0.415203 0.956370 0.852955
O O17 0.114559 0.371139 0.750000
O O18 0.710170 0.413901 0.250000
#
# Coordination Sequence:
#
# PCOD9468595 Si02
#       8
#     8  16  16  16  16   8  16  16
#     4  10  22  28  42  68  86 120 156 194 216 247
#     4   9  16  26  43  61  85 112 144 181 221 263
#     4  10  18  30  43  61  90 117 153 189 218 254
#     4   9  17  30  42  61  82 121 148 182 226 265
#     4   9  18  27  43  59  88 113 149 184 220 270
#     4  10  20  32  46  64  90 121 158 189 224 265
#     4   9  17  29  44  63  88 121 152 183 217 264
#     4  10  18  28  44  65  85 116 150 187 227 264
#
# _framework density 22.226120000000002
#
# number of rings (size 3 to 8) (size 9 to 14) (size 15 to 20)
#    0.000    2.571    1.429    1.286    6.000    2.286 
#    0.000    0.000    0.000    0.000    0.000    0.000 
#    0.000    2.286    0.000   10.357    0.000   84.357 
#
# Total GULP energy -312429.725098 kJ/mol
# GULP energy per Si atom -5579.102234 kJ/mol
# Density = 2.217553 g / cm^3
# Si number density = 22.226120 Si / 1000 Ang^3
#
#
#
# Elastic Constant Matrix: (Units=GPa)
#
#
# Indices 1 2 3 4 5 6 
#
# 1 33.6575 -9.1968 -3.9024 0.0000 0.0000 0.0000
# 2 -9.1968 117.7041 52.3736 0.0000 0.0000 0.0000
# 3 -3.9024 52.3736 142.1433 0.0000 0.0000 0.0000
# 4 0.0000 0.0000 0.0000 44.3977 0.0000 0.0000
# 5 0.0000 0.0000 0.0000 0.0000 3.3960 0.0000
# 6 0.0000 0.0000 0.0000 0.0000 0.0000 1.6197
#
#
#
# Elastic Compliance Matrix: (Units=1/GPa)
#
#
# Indices 1 2 3 4 5 6 
#
# 1 0.030360 0.002394 -0.000048 0.000000 0.000000 0.000000
# 2 0.002394 0.010351 -0.003748 0.000000 0.000000 0.000000
# 3 -0.000048 -0.003748 0.008415 0.000000 0.000000 0.000000
# 4 0.000000 0.000000 0.000000 0.022524 0.000000 0.000000
# 5 0.000000 0.000000 0.000000 0.000000 0.294468 0.000000
# 6 0.000000 0.000000 0.000000 0.000000 0.000000 0.617396
#
#
# Mechanical properties :
#
#
# Convention : Reuss Voigt Hill
#
# Bulk Modulus (GPa) = 21.58924 41.33929 31.46426
# Shear Modulus (GPa) = 4.99123 26.83138 15.91130
#
# Velocity S-wave (km/s) = 1.50018 3.47825 2.67850
# Velocity P-wave (km/s) = 3.56865 5.89667 4.87370
#
# Compressibility (1/GPa) = 0.04631938
#
# Stress axis : x y z
#
# Youngs Moduli (GPa) = 32.93857 96.61237 118.83810
#
# Poissons Ratio (x) = -0.23126 0.00576
# Poissons Ratio (y) = -0.07885 0.44541
# Poissons Ratio (z) = 0.00160 0.36211
#
# Static dielectric constant tensor:
#      x y z
#    x 1.824000 0.000000 0.000000 
#    y 0.000000 1.854850 0.000000 
#    z 0.000000 0.000000 1.880990 
# 
# From -- ./inp_files/56931.got.cif
#   From: 2010.05.17/outbox.cif.g08.bks.cpg/sg63_29_cif.got.tgz:56931.got - 2010.06.03 15:47:04.
