data_PCOD9468924
_publ_section_title
;
Structure prediction by ZEFSAII (Michael W. Deem and Ramdas Pophale) SiO2 
 PCOD9468924
Probable space group: C M C M
;
_chemical_formula_sum "Si O2"
_cell_formula_units_Z 80
_cell_length_a 9.168446
_cell_length_b 20.776364
_cell_length_c 25.203482
_cell_angle_alpha 90.000000
_cell_angle_beta 90.000000
_cell_angle_gamma 90.000000
_cell_volume 4800.934955
_symmetry_space_group_name_H-M "C M C M"
_symmetry_group_IT_number 63
_symmetry_cell_setting 'orthorhombic'
loop_
_space_group_symop_operation_xyz
x,y,z
-x,-y,1/2+z
x,-y,-z
-x,y,1/2-z
-x,-y,-z
x,y,1/2-z
-x,y,z
x,-y,1/2+z
1/2+x,1/2+y,z
1/2-x,1/2-y,1/2+z
1/2+x,1/2-y,-z
1/2-x,1/2+y,1/2-z
1/2-x,1/2-y,-z
1/2+x,1/2+y,1/2-z
1/2-x,1/2+y,z
1/2+x,1/2-y,1/2+z
loop_
_atom_site_type_symbol
_atom_site_label
_atom_site_fract_x
_atom_site_fract_y
_atom_site_fract_z
Si Si1 0.166382 0.761891 0.250000
Si Si2 0.675301 0.936677 0.966193
Si Si3 0.169124 0.605454 0.250000
Si Si4 0.174997 0.308156 0.469463
Si Si5 0.325254 0.607166 0.140095
Si Si6 0.826339 0.260115 0.143324
O O1 0.169554 0.683661 0.250000
O O2 0.246903 0.781738 0.196487
O O3 0.000000 0.783073 0.250000
O O4 0.500000 0.936572 0.956748
O O5 0.757013 0.929131 0.910256
O O6 0.712143 0.874831 0.002300
O O7 0.711622 0.000000 0.000000
O O8 0.251976 0.586684 0.195853
O O9 0.000000 0.584591 0.250000
O O10 0.250000 0.250000 0.500000
O O11 0.216634 0.301264 0.407905
O O12 0.000000 0.300285 0.472118
O O13 0.500000 0.599641 0.142368
O O14 0.294062 0.684135 0.133166
O O15 0.000000 0.264535 0.151024
#
# Coordination Sequence:
#
# PCOD9468924 Si02
#       6
#     8  16   8  16  16  16
#     4   9  17  27  43  70  99 128 159 199 249 298
#     4  10  21  35  51  73 104 139 173 211 255 305
#     4   9  17  29  47  72 101 132 165 205 255 302
#     4  10  19  32  51  74 100 131 168 207 250 299
#     4  10  18  30  49  74 102 131 167 210 255 301
#     4   9  17  29  46  70  99 129 161 202 250 299
#
# _framework density 16.663422000000001
#
# number of rings (size 3 to 8) (size 9 to 14) (size 15 to 20)
#    0.000    2.400    2.000    1.200    0.000    4.400 
#    0.000    0.000    0.000    1.200    0.000    4.200 
#    0.000    0.000    0.000    0.000    0.000    0.000 
#
# Total GULP energy -223018.412169 kJ/mol
# GULP energy per Si atom -5575.460304 kJ/mol
# Density = 1.662550 g / cm^3
# Si number density = 16.663422 Si / 1000 Ang^3
#
#
#
# Elastic Constant Matrix: (Units=GPa)
#
#
# Indices 1 2 3 4 5 6 
#
# 1 54.5986 36.5063 78.2921 0.0000 0.0000 0.0000
# 2 36.5063 72.5810 61.4893 0.0000 0.0000 0.0000
# 3 78.2921 61.4893 200.2267 0.0000 0.0000 0.0000
# 4 0.0000 0.0000 0.0000 19.3358 0.0000 0.0000
# 5 0.0000 0.0000 0.0000 0.0000 34.2825 0.0000
# 6 0.0000 0.0000 0.0000 0.0000 0.0000 13.7082
#
#
#
# Elastic Compliance Matrix: (Units=1/GPa)
#
#
# Indices 1 2 3 4 5 6 
#
# 1 0.047410 -0.011004 -0.015159 0.000000 0.000000 0.000000
# 2 -0.011004 0.021177 -0.002201 0.000000 0.000000 0.000000
# 3 -0.015159 -0.002201 0.011598 0.000000 0.000000 0.000000
# 4 0.000000 0.000000 0.000000 0.051717 0.000000 0.000000
# 5 0.000000 0.000000 0.000000 0.000000 0.029169 0.000000
# 6 0.000000 0.000000 0.000000 0.000000 0.000000 0.072949
#
#
# Mechanical properties :
#
#
# Convention : Reuss Voigt Hill
#
# Bulk Modulus (GPa) = 42.62976 75.55354 59.09165
# Shear Modulus (GPa) = 16.74669 23.53989 20.14329
#
# Velocity S-wave (km/s) = 3.17361 3.76263 3.48060
# Velocity P-wave (km/s) = 6.25039 8.01972 7.18969
#
# Compressibility (1/GPa) = 0.02345779
#
# Stress axis : x y z
#
# Youngs Moduli (GPa) = 21.09243 47.22179 86.22452
#
# Poissons Ratio (x) = 0.51961 1.30708
# Poissons Ratio (y) = 0.23209 0.18975
# Poissons Ratio (z) = 0.31974 0.10392
#
# Static dielectric constant tensor:
#      x y z
#    x 1.555830 0.000000 0.000000 
#    y 0.000000 1.537630 0.000000 
#    z 0.000000 0.000000 1.559440 
# 
# From -- ./inp_files/59494.got.cif
#   From: 2010.05.17/outbox.cif.g08.bks.cpg/sg63_30_cif.got.tgz:59494.got - 2010.06.03 15:47:04.
