data_PCOD9468665
_publ_section_title
;
Structure prediction by ZEFSAII (Michael W. Deem and Ramdas Pophale) SiO2 
 PCOD9468665
Probable space group: C M C M
;
_chemical_formula_sum "Si O2"
_cell_formula_units_Z 64
_cell_length_a 7.469304
_cell_length_b 21.587021
_cell_length_c 17.194609
_cell_angle_alpha 90.000000
_cell_angle_beta 90.000000
_cell_angle_gamma 90.000000
_cell_volume 2772.459139
_symmetry_space_group_name_H-M "C M C M"
_symmetry_group_IT_number 63
_symmetry_cell_setting 'orthorhombic'
loop_
_space_group_symop_operation_xyz
x,y,z
-x,-y,1/2+z
x,-y,-z
-x,y,1/2-z
-x,-y,-z
x,y,1/2-z
-x,y,z
x,-y,1/2+z
1/2+x,1/2+y,z
1/2-x,1/2-y,1/2+z
1/2+x,1/2-y,-z
1/2-x,1/2+y,1/2-z
1/2-x,1/2-y,-z
1/2+x,1/2+y,1/2-z
1/2-x,1/2+y,z
1/2+x,1/2-y,1/2+z
loop_
_atom_site_type_symbol
_atom_site_label
_atom_site_fract_x
_atom_site_fract_y
_atom_site_fract_z
Si Si1 0.216484 0.488720 0.089481
Si Si2 0.796429 0.381672 0.623957
Si Si3 0.209123 0.142482 0.551879
Si Si4 0.280976 0.251877 0.164590
O O1 0.281439 0.549482 0.135607
O O2 0.273208 0.418686 0.105864
O O3 0.000000 0.490233 0.091343
O O4 0.274744 0.500000 0.000000
O O5 0.800820 0.370842 0.530481
O O6 0.715319 0.318590 0.656235
O O7 0.000000 0.384158 0.653523
O O8 0.279539 0.202512 0.596566
O O9 0.000000 0.151403 0.534455
O O10 0.233813 0.275768 0.250000
O O11 0.500000 0.250460 0.159725
#
# Coordination Sequence:
#
# PCOD9468665 Si02
#       4
#    16  16  16  16
#     4   8  15  28  46  69  94 118 148 187 228 269
#     4   9  17  31  51  70  90 120 155 191 227 265
#     4  10  18  28  48  74  95 118 149 188 231 273
#     4   9  18  32  48  67  92 123 158 190 223 269
#
# _framework density 23.084199999999999
#
# number of rings (size 3 to 8) (size 9 to 14) (size 15 to 20)
#    0.000    3.000    0.000    3.000    0.000    4.500 
#    0.000    2.500    0.000    8.250    0.000    0.000 
#    0.000    0.000    0.000    0.000    0.000    0.000 
#
# Total GULP energy -178422.401163 kJ/mol
# GULP energy per Si atom -5575.700036 kJ/mol
# Density = 2.303166 g / cm^3
# Si number density = 23.084200 Si / 1000 Ang^3
#
#
#
# Elastic Constant Matrix: (Units=GPa)
#
#
# Indices 1 2 3 4 5 6 
#
# 1 76.7649 -3.6004 -3.3997 0.0000 0.0000 0.0000
# 2 -3.6004 105.4490 18.6510 0.0000 0.0000 0.0000
# 3 -3.3997 18.6510 45.4377 0.0000 0.0000 0.0000
# 4 0.0000 0.0000 0.0000 4.0414 0.0000 0.0000
# 5 0.0000 0.0000 0.0000 0.0000 0.9867 0.0000
# 6 0.0000 0.0000 0.0000 0.0000 0.0000 12.9928
#
#
#
# Elastic Compliance Matrix: (Units=1/GPa)
#
#
# Indices 1 2 3 4 5 6 
#
# 1 0.013079 0.000295 0.000858 0.000000 0.000000 0.000000
# 2 0.000295 0.010232 -0.004178 0.000000 0.000000 0.000000
# 3 0.000858 -0.004178 0.023787 0.000000 0.000000 0.000000
# 4 0.000000 0.000000 0.000000 0.247442 0.000000 0.000000
# 5 0.000000 0.000000 0.000000 0.000000 1.013514 0.000000
# 6 0.000000 0.000000 0.000000 0.000000 0.000000 0.076965
#
#
# Mechanical properties :
#
#
# Convention : Reuss Voigt Hill
#
# Bulk Modulus (GPa) = 24.36235 27.88369 26.12302
# Shear Modulus (GPa) = 3.55934 18.00422 10.78178
#
# Velocity S-wave (km/s) = 1.24308 2.79576 2.16351
# Velocity P-wave (km/s) = 3.55485 4.74627 4.19309
#
# Compressibility (1/GPa) = 0.04104694
#
# Stress axis : x y z
#
# Youngs Moduli (GPa) = 76.46083 97.72963 42.03921
#
# Poissons Ratio (x) = -0.02882 -0.03605
# Poissons Ratio (y) = -0.02255 0.17564
# Poissons Ratio (z) = -0.06557 0.40832
#
# Static dielectric constant tensor:
#      x y z
#    x 1.870980 0.000000 0.000000 
#    y 0.000000 1.924730 0.000000 
#    z 0.000000 0.000000 1.849250 
# 
# From -- ./inp_files/39820.got.cif
#   From: 2010.05.17/outbox.cif.g08.bks.cpg/sg63_20_cif.got.tgz:39820.got - 2010.06.03 15:47:04.
