data_PCOD9468493
_publ_section_title
;
Structure prediction by ZEFSAII (Michael W. Deem and Ramdas Pophale) SiO2 
 PCOD9468493
Probable space group: C M C M
;
_chemical_formula_sum "Si O2"
_cell_formula_units_Z 96
_cell_length_a 28.286577
_cell_length_b 30.207756
_cell_length_c 9.308572
_cell_angle_alpha 90.000000
_cell_angle_beta 90.000000
_cell_angle_gamma 90.000000
_cell_volume 7953.932901
_symmetry_space_group_name_H-M "C M C M"
_symmetry_group_IT_number 63
_symmetry_cell_setting 'orthorhombic'
loop_
_space_group_symop_operation_xyz
x,y,z
-x,-y,1/2+z
x,-y,-z
-x,y,1/2-z
-x,-y,-z
x,y,1/2-z
-x,y,z
x,-y,1/2+z
1/2+x,1/2+y,z
1/2-x,1/2-y,1/2+z
1/2+x,1/2-y,-z
1/2-x,1/2+y,1/2-z
1/2-x,1/2-y,-z
1/2+x,1/2+y,1/2-z
1/2-x,1/2+y,z
1/2+x,1/2-y,1/2+z
loop_
_atom_site_type_symbol
_atom_site_label
_atom_site_fract_x
_atom_site_fract_y
_atom_site_fract_z
Si Si1 0.000000 0.312867 0.579403
Si Si2 0.000000 0.407124 0.422778
Si Si3 0.098528 0.546031 0.578232
Si Si4 0.656014 0.867212 0.422677
Si Si5 0.104118 0.286343 0.921545
Si Si6 0.746818 0.818317 0.414665
Si Si7 0.321706 0.731594 0.415144
O O1 0.951758 0.286711 0.548181
O O2 0.000000 0.322839 0.750000
O O3 0.000000 0.359140 0.495138
O O4 0.047217 0.433955 0.462507
O O5 0.000000 0.401432 0.250000
O O6 0.107097 0.500000 0.500000
O O7 0.098299 0.539299 0.750000
O O8 0.136846 0.584089 0.545256
O O9 0.650174 0.859406 0.250000
O O10 0.625156 0.831211 0.508229
O O11 0.710940 0.857553 0.456302
O O12 0.111698 0.286837 0.750000
O O13 0.133132 0.246333 0.992796
O O14 0.762371 0.824218 0.250000
O O15 0.712789 0.774839 0.417589
O O16 0.790845 0.807456 0.515358
O O17 0.333845 0.722970 0.250000
#
# Coordination Sequence:
#
# PCOD9468493 Si02
#       7
#     8   8  16  16  16  16  16
#     4  10  20  29  39  56  73  92 120 154 187 221
#     4  10  19  31  45  54  66  90 120 154 194 231
#     4  10  20  31  42  56  71  91 118 152 191 231
#     4   9  17  29  42  55  70  89 115 145 181 222
#     4  10  18  27  39  54  72  92 116 146 180 215
#     4   8  14  24  38  54  71  89 109 137 172 211
#     4   9  16  25  37  54  73  92 112 136 168 210
#
# _framework density 12.069501000000001
#
# number of rings (size 3 to 8) (size 9 to 14) (size 15 to 20)
#    0.000    2.667    1.667    2.250    0.000    6.000 
#    0.000    0.000    0.000    0.000    0.000    0.000 
#    0.000    0.000    0.000    0.000    0.000    0.000 
#
# Total GULP energy -267313.099092 kJ/mol
# GULP energy per Si atom -5569.022898 kJ/mol
# Density = 1.204203 g / cm^3
# Si number density = 12.069501 Si / 1000 Ang^3
#
#
#
# Elastic Constant Matrix: (Units=GPa)
#
#
# Indices 1 2 3 4 5 6 
#
# 1 86.0759 54.1967 51.0608 0.0000 0.0000 0.0000
# 2 54.1967 55.7374 31.7194 0.0000 0.0000 0.0000
# 3 51.0608 31.7194 50.4055 0.0000 0.0000 0.0000
# 4 0.0000 0.0000 0.0000 17.1944 0.0000 0.0000
# 5 0.0000 0.0000 0.0000 0.0000 14.4161 0.0000
# 6 0.0000 0.0000 0.0000 0.0000 0.0000 12.3139
#
#
#
# Elastic Compliance Matrix: (Units=1/GPa)
#
#
# Indices 1 2 3 4 5 6 
#
# 1 0.048209 -0.029732 -0.030126 0.000000 0.000000 0.000000
# 2 -0.029732 0.046288 0.000990 0.000000 0.000000 0.000000
# 3 -0.030126 0.000990 0.049733 0.000000 0.000000 0.000000
# 4 0.000000 0.000000 0.000000 0.058158 0.000000 0.000000
# 5 0.000000 0.000000 0.000000 0.000000 0.069367 0.000000
# 6 0.000000 0.000000 0.000000 0.000000 0.000000 0.081209
#
#
# Mechanical properties :
#
#
# Convention : Reuss Voigt Hill
#
# Bulk Modulus (GPa) = 37.74271 51.79695 44.76983
# Shear Modulus (GPa) = 10.42687 12.46769 11.44728
#
# Velocity S-wave (km/s) = 2.94241 3.21750 3.08303
# Velocity P-wave (km/s) = 6.54849 7.53736 7.06026
#
# Compressibility (1/GPa) = 0.02649518
#
# Stress axis : x y z
#
# Youngs Moduli (GPa) = 20.74307 21.60392 20.10733
#
# Poissons Ratio (x) = 0.64233 0.60575
# Poissons Ratio (y) = 0.61674 -0.01992
# Poissons Ratio (z) = 0.62490 -0.02140
#
# Static dielectric constant tensor:
#      x y z
#    x 1.399480 0.000000 0.000000 
#    y 0.000000 1.365500 0.000000 
#    z 0.000000 0.000000 1.404500 
# 
# From -- ./inp_files/14962.got.cif
#   From: 2010.05.17/outbox.cif.g08.bks.cpg/sg63_8_cif.got.tgz:14962.got - 2010.06.03 15:47:04.
