data_PCOD9468500
_publ_section_title
;
Structure prediction by ZEFSAII (Michael W. Deem and Ramdas Pophale) SiO2 
 PCOD9468500
Probable space group: C M C M
;
_chemical_formula_sum "Si O2"
_cell_formula_units_Z 96
_cell_length_a 7.362377
_cell_length_b 24.977008
_cell_length_c 26.453625
_cell_angle_alpha 90.000000
_cell_angle_beta 90.000000
_cell_angle_gamma 90.000000
_cell_volume 4864.561049
_symmetry_space_group_name_H-M "C M C M"
_symmetry_group_IT_number 63
_symmetry_cell_setting 'orthorhombic'
loop_
_space_group_symop_operation_xyz
x,y,z
-x,-y,1/2+z
x,-y,-z
-x,y,1/2-z
-x,-y,-z
x,y,1/2-z
-x,y,z
x,-y,1/2+z
1/2+x,1/2+y,z
1/2-x,1/2-y,1/2+z
1/2+x,1/2-y,-z
1/2-x,1/2+y,1/2-z
1/2-x,1/2-y,-z
1/2+x,1/2+y,1/2-z
1/2-x,1/2+y,z
1/2+x,1/2-y,1/2+z
loop_
_atom_site_type_symbol
_atom_site_label
_atom_site_fract_x
_atom_site_fract_y
_atom_site_fract_z
Si Si1 0.705676 0.640295 0.581070
Si Si2 0.710115 0.526246 0.551328
Si Si3 0.277993 0.748618 0.883560
Si Si4 0.280644 0.828909 0.529867
Si Si5 0.221600 0.341037 0.692283
Si Si6 0.281345 0.078217 0.392887
O O1 0.500000 0.630898 0.599569
O O2 0.791057 0.582095 0.571087
O O3 0.786133 0.687397 0.615636
O O4 0.701620 0.667204 0.525568
O O5 0.789819 0.500000 0.500000
O O6 0.500000 0.538958 0.538740
O O7 0.715746 0.480733 0.593947
O O8 0.500000 0.747594 0.883876
O O9 0.223699 0.787116 0.837497
O O10 0.222961 0.779750 0.934794
O O11 0.500000 0.827584 0.525732
O O12 0.230435 0.882322 0.561052
O O13 0.281988 0.342976 0.750000
O O14 0.278437 0.391700 0.658053
O O15 0.000000 0.341251 0.692208
O O16 0.500000 0.076287 0.391830
#
# Coordination Sequence:
#
# PCOD9468500 Si02
#       6
#    16  16  16  16  16  16
#     4  10  18  27  40  58  86 120 148 170 201 250
#     4  10  19  29  40  58  88 126 157 175 202 250
#     4   8  15  26  40  61  85 108 136 175 219 255
#     4   9  16  26  40  60  86 111 139 175 212 249
#     4   8  14  27  48  70  87 103 133 182 232 268
#     4   9  17  28  44  66  87 110 143 183 219 251
#
# _framework density 19.734566000000001
#
# number of rings (size 3 to 8) (size 9 to 14) (size 15 to 20)
#    0.000    3.000    1.667    2.500    0.000    1.000 
#    0.000    0.000    0.000    1.500    0.000    2.333 
#    0.000    0.000    0.000    0.000    0.000    0.000 
#
# Total GULP energy -267674.342595 kJ/mol
# GULP energy per Si atom -5576.548804 kJ/mol
# Density = 1.968965 g / cm^3
# Si number density = 19.734566 Si / 1000 Ang^3
#
#
#
# Elastic Constant Matrix: (Units=GPa)
#
#
# Indices 1 2 3 4 5 6 
#
# 1 72.1752 2.2083 -2.5201 0.0000 0.0000 0.0000
# 2 2.2083 172.2187 59.6952 0.0000 0.0000 0.0000
# 3 -2.5201 59.6952 98.3747 0.0000 0.0000 0.0000
# 4 0.0000 0.0000 0.0000 10.8563 0.0000 0.0000
# 5 0.0000 0.0000 0.0000 0.0000 9.3186 0.0000
# 6 0.0000 0.0000 0.0000 0.0000 0.0000-2229.0840
#
#
#
# Elastic Compliance Matrix: (Units=1/GPa)
#
#
# Indices 1 2 3 4 5 6 
#
# 1 0.013887 -0.000382 0.000587 0.000000 0.000000 0.000000
# 2 -0.000382 0.007364 -0.004478 0.000000 0.000000 0.000000
# 3 0.000587 -0.004478 0.012898 0.000000 0.000000 0.000000
# 4 0.000000 0.000000 0.000000 0.092112 0.000000 0.000000
# 5 0.000000 0.000000 0.000000 0.000000 0.107312 0.000000
# 6 0.000000 0.000000 0.000000 0.000000 0.000000 -0.000449
#
#
# Mechanical properties :
#
#
# Convention : Reuss Voigt Hill
#
# Bulk Modulus (GPa) = 39.05674 51.28172 45.16923
# Shear Modulus (GPa) = 19.98371 -422.88945 -201.45287
#
# Velocity S-wave (km/s) = 3.18563 -14.65448 -10.11449
# Velocity P-wave (km/s) = 5.77624 16.13370 10.65203
#
# Compressibility (1/GPa) = 0.02560377
#
# Stress axis : x y z
#
# Youngs Moduli (GPa) = 72.00794 135.80105 77.53321
#
# Poissons Ratio (x) = 0.05183 -0.04554
# Poissons Ratio (y) = 0.02748 0.34721
# Poissons Ratio (z) = -0.04229 0.60814
#
# Static dielectric constant tensor:
#      x y z
#    x 1.753750 0.000000 0.000000 
#    y 0.000000 1.735050 0.000000 
#    z 0.000000 0.000000 1.653990 
# 
# From -- ./inp_files/61865.got.cif
#   From: 2010.05.17/outbox.cif.g08.bks.cpg/sg63_31_cif.got.tgz:61865.got - 2010.06.03 15:47:04.
