data_PCOD9468987
_publ_section_title
;
Structure prediction by ZEFSAII (Michael W. Deem and Ramdas Pophale) SiO2 
 PCOD9468987
Probable space group: C M C M
;
_chemical_formula_sum "Si O2"
_cell_formula_units_Z 72
_cell_length_a 16.333283
_cell_length_b 28.344532
_cell_length_c 8.633583
_cell_angle_alpha 90.000000
_cell_angle_beta 90.000000
_cell_angle_gamma 90.000000
_cell_volume 3996.997220
_symmetry_space_group_name_H-M "C M C M"
_symmetry_group_IT_number 63
_symmetry_cell_setting 'orthorhombic'
loop_
_space_group_symop_operation_xyz
x,y,z
-x,-y,1/2+z
x,-y,-z
-x,y,1/2-z
-x,-y,-z
x,y,1/2-z
-x,y,z
x,-y,1/2+z
1/2+x,1/2+y,z
1/2-x,1/2-y,1/2+z
1/2+x,1/2-y,-z
1/2-x,1/2+y,1/2-z
1/2-x,1/2-y,-z
1/2+x,1/2+y,1/2-z
1/2-x,1/2+y,z
1/2+x,1/2-y,1/2+z
loop_
_atom_site_type_symbol
_atom_site_label
_atom_site_fract_x
_atom_site_fract_y
_atom_site_fract_z
Si Si1 0.500000 0.108425 0.065614
Si Si2 0.173542 0.391395 0.436251
Si Si3 0.000000 0.053715 0.935457
Si Si4 0.000000 0.714961 0.562227
Si Si5 0.176951 0.719349 0.935270
Si Si6 0.170740 0.053257 0.064726
O O1 0.500000 0.104295 0.250000
O O2 0.414139 0.089778 0.997346
O O3 0.500000 0.163189 0.012590
O O4 0.174395 0.394574 0.250000
O O5 0.181176 0.335892 0.480118
O O6 0.250204 0.418568 0.507406
O O7 0.000000 0.053119 0.750000
O O8 0.914609 0.074283 0.998427
O O9 0.000000 0.000000 0.000000
O O10 0.086403 0.737777 0.518495
O O11 0.000000 0.708635 0.750000
O O12 0.181398 0.720835 0.750000
O O13 0.250000 0.750000 0.000000
O O14 0.166571 0.052021 0.250000
O O15 0.177365 0.000000 0.000000
#
# Coordination Sequence:
#
# PCOD9468987 Si02
#       6
#     8  16   8   8  16  16
#     4  10  18  30  51  78 101 130 171 214 255 306
#     4  10  20  36  54  75 104 140 174 211 257 308
#     4  10  18  32  53  76 103 138 174 210 252 306
#     4   8  16  32  49  68  97 136 170 202 249 308
#     4   9  18  32  52  74 100 132 169 209 253 301
#     4  11  21  35  55  80 106 136 173 215 257 304
#
# _framework density 18.013522999999999
#
# number of rings (size 3 to 8) (size 9 to 14) (size 15 to 20)
#    0.000    2.222    0.000    7.333    0.000    4.444 
#    0.000    1.667    0.000    5.333    0.000    0.000 
#    0.000    0.000    0.000    0.000    0.000    0.000 
#
# Total GULP energy -200691.200798 kJ/mol
# GULP energy per Si atom -5574.755578 kJ/mol
# Density = 1.797252 g / cm^3
# Si number density = 18.013523 Si / 1000 Ang^3
#
#
#
# Elastic Constant Matrix: (Units=GPa)
#
#
# Indices 1 2 3 4 5 6 
#
# 1 237.1527 60.4147 77.6926 0.0000 0.0000 0.0000
# 2 60.4147 33.9098 22.8162 0.0000 0.0000 0.0000
# 3 77.6926 22.8162 102.7163 0.0000 0.0000 0.0000
# 4 0.0000 0.0000 0.0000 23.6540 0.0000 0.0000
# 5 0.0000 0.0000 0.0000 0.0000 37.9534 0.0000
# 6 0.0000 0.0000 0.0000 0.0000 0.0000 32.7085
#
#
#
# Elastic Compliance Matrix: (Units=1/GPa)
#
#
# Indices 1 2 3 4 5 6 
#
# 1 0.008787 -0.013148 -0.003726 0.000000 0.000000 0.000000
# 2 -0.013148 0.054346 -0.002127 0.000000 0.000000 0.000000
# 3 -0.003726 -0.002127 0.013026 0.000000 0.000000 0.000000
# 4 0.000000 0.000000 0.000000 0.042276 0.000000 0.000000
# 5 0.000000 0.000000 0.000000 0.000000 0.026348 0.000000
# 6 0.000000 0.000000 0.000000 0.000000 0.000000 0.030573
#
#
# Mechanical properties :
#
#
# Convention : Reuss Voigt Hill
#
# Bulk Modulus (GPa) = 26.20712 77.29176 51.74944
# Shear Modulus (GPa) = 22.11653 33.05353 27.58503
#
# Velocity S-wave (km/s) = 3.50776 4.28825 3.91749
# Velocity P-wave (km/s) = 5.56651 8.21703 7.01804
#
# Compressibility (1/GPa) = 0.03815757
#
# Stress axis : x y z
#
# Youngs Moduli (GPa) = 113.80993 18.40076 76.76998
#
# Poissons Ratio (x) = 0.24193 0.28601
# Poissons Ratio (y) = 1.49634 0.16329
# Poissons Ratio (z) = 0.42400 0.03914
#
# Static dielectric constant tensor:
#      x y z
#    x 1.669470 0.000000 0.000000 
#    y 0.000000 1.625480 0.000000 
#    z 0.000000 0.000000 1.600690 
# 
# From -- ./inp_files/4988.got.cif
#   From: 2010.05.17/outbox.cif.g08.bks.cpg/sg63_3_cif.got.tgz:4988.got - 2010.06.03 15:47:04.
