data_PCOD9468121
_publ_section_title
;
Structure prediction by ZEFSAII (Michael W. Deem and Ramdas Pophale) SiO2 
 PCOD9468121
Probable space group: C M C M
;
_chemical_formula_sum "Si O2"
_cell_formula_units_Z 48
_cell_length_a 27.065978
_cell_length_b 7.476269
_cell_length_c 9.926842
_cell_angle_alpha 90.000000
_cell_angle_beta 90.000000
_cell_angle_gamma 90.000000
_cell_volume 2008.721616
_symmetry_space_group_name_H-M "C M C M"
_symmetry_group_IT_number 63
_symmetry_cell_setting 'orthorhombic'
loop_
_space_group_symop_operation_xyz
x,y,z
-x,-y,1/2+z
x,-y,-z
-x,y,1/2-z
-x,-y,-z
x,y,1/2-z
-x,y,z
x,-y,1/2+z
1/2+x,1/2+y,z
1/2-x,1/2-y,1/2+z
1/2+x,1/2-y,-z
1/2-x,1/2+y,1/2-z
1/2-x,1/2-y,-z
1/2+x,1/2+y,1/2-z
1/2-x,1/2+y,z
1/2+x,1/2-y,1/2+z
loop_
_atom_site_type_symbol
_atom_site_label
_atom_site_fract_x
_atom_site_fract_y
_atom_site_fract_z
Si Si1 0.668042 0.525132 0.750000
Si Si2 0.766572 0.335299 0.250000
Si Si3 0.000000 0.319928 0.088476
Si Si4 0.678399 0.000000 0.500000
Si Si5 0.107704 0.204764 0.407352
O O1 0.707184 0.682231 0.750000
O O2 0.705890 0.355082 0.750000
O O3 0.631331 0.488162 0.627189
O O4 0.785355 0.441117 0.119513
O O5 0.949574 0.213856 0.057207
O O6 0.000000 0.357967 0.250000
O O7 0.000000 0.500000 0.000000
O O8 0.640797 0.167929 0.499313
O O9 0.110445 0.285823 0.250000
#
# Coordination Sequence:
#
# PCOD9468121 Si02
#       5
#     8   8   8   8  16
#     4   8  18  33  44  68  94 125 158 192 230 272
#     4  10  20  30  48  64  94 128 158 194 232 270
#     4  10  16  24  44  64  96 120 149 180 245 286
#     4  10  16  29  44  66  94 123 156 192 232 274
#     4   8  16  27  40  65  91 119 148 191 228 278
#
# _framework density 23.895797000000002
#
# number of rings (size 3 to 8) (size 9 to 14) (size 15 to 20)
#    1.000    2.000    3.333    0.000    0.000    5.333 
#    0.000    0.000    0.000    0.000    0.000    0.000 
#    0.000   45.333    0.000    0.000    0.000    0.000 
#
# Total GULP energy -133718.529934 kJ/mol
# GULP energy per Si atom -5571.605414 kJ/mol
# Density = 2.384141 g / cm^3
# Si number density = 23.895797 Si / 1000 Ang^3
#
#
#
# Elastic Constant Matrix: (Units=GPa)
#
#
# Indices 1 2 3 4 5 6 
#
# 1 207.1654 14.1775 -5.6255 0.0000 0.0000 0.0000
# 2 14.1775 83.1942 -10.0116 0.0000 0.0000 0.0000
# 3 -5.6255 -10.0116 64.7742 0.0000 0.0000 0.0000
# 4 0.0000 0.0000 0.0000 21.3927 0.0000 0.0000
# 5 0.0000 0.0000 0.0000 0.0000 26.1285 0.0000
# 6 0.0000 0.0000 0.0000 0.0000 0.0000 21.7263
#
#
#
# Elastic Compliance Matrix: (Units=1/GPa)
#
#
# Indices 1 2 3 4 5 6 
#
# 1 0.004890 -0.000797 0.000301 0.000000 0.000000 0.000000
# 2 -0.000797 0.012378 0.001844 0.000000 0.000000 0.000000
# 3 0.000301 0.001844 0.015749 0.000000 0.000000 0.000000
# 4 0.000000 0.000000 0.000000 0.046745 0.000000 0.000000
# 5 0.000000 0.000000 0.000000 0.000000 0.038272 0.000000
# 6 0.000000 0.000000 0.000000 0.000000 0.000000 0.046027
#
#
# Mechanical properties :
#
#
# Convention : Reuss Voigt Hill
#
# Bulk Modulus (GPa) = 28.00040 39.13495 33.56768
# Shear Modulus (GPa) = 28.85679 37.62237 33.23958
#
# Velocity S-wave (km/s) = 3.47884 3.97222 3.73369
# Velocity P-wave (km/s) = 5.28011 6.11972 5.71535
#
# Compressibility (1/GPa) = 0.03571377
#
# Stress axis : x y z
#
# Youngs Moduli (GPa) = 204.50765 80.78987 63.49435
#
# Poissons Ratio (x) = 0.06439 -0.01914
# Poissons Ratio (y) = 0.16300 -0.11708
# Poissons Ratio (z) = -0.06166 -0.14897
#
# Static dielectric constant tensor:
#      x y z
#    x 1.913030 0.000000 0.000000 
#    y 0.000000 1.969670 0.000000 
#    z 0.000000 0.000000 2.038370 
# 
# From -- ./inp_files/13572.got.cif
#   From: 2010.05.17/outbox.cif.g08.bks.cpg/sg63_7_cif.got.tgz:13572.got - 2010.06.03 15:47:04.
