data_PCOD9468277
_publ_section_title
;
Structure prediction by ZEFSAII (Michael W. Deem and Ramdas Pophale) SiO2 
 PCOD9468277
Probable space group: C M C M
;
_chemical_formula_sum "Si O2"
_cell_formula_units_Z 104
_cell_length_a 16.251523
_cell_length_b 28.058496
_cell_length_c 14.095939
_cell_angle_alpha 90.000000
_cell_angle_beta 90.000000
_cell_angle_gamma 90.000000
_cell_volume 6427.653644
_symmetry_space_group_name_H-M "C M C M"
_symmetry_group_IT_number 63
_symmetry_cell_setting 'orthorhombic'
loop_
_space_group_symop_operation_xyz
x,y,z
-x,-y,1/2+z
x,-y,-z
-x,y,1/2-z
-x,-y,-z
x,y,1/2-z
-x,y,z
x,-y,1/2+z
1/2+x,1/2+y,z
1/2-x,1/2-y,1/2+z
1/2+x,1/2-y,-z
1/2-x,1/2+y,1/2-z
1/2-x,1/2-y,-z
1/2+x,1/2+y,1/2-z
1/2-x,1/2+y,z
1/2+x,1/2-y,1/2+z
loop_
_atom_site_type_symbol
_atom_site_label
_atom_site_fract_x
_atom_site_fract_y
_atom_site_fract_z
Si Si1 0.676336 0.000000 0.500000
Si Si2 0.905059 0.679315 0.634714
Si Si3 0.599258 0.619771 0.455671
Si Si4 0.309910 0.465724 0.640059
Si Si5 0.401155 0.433656 0.356933
Si Si6 0.100505 0.783055 0.639430
Si Si7 0.599363 0.924895 0.141124
O O1 0.733826 0.968759 0.568922
O O2 0.626138 0.965260 0.431358
O O3 0.907312 0.679976 0.750000
O O4 0.869190 0.730700 0.607007
O O5 0.868833 0.627673 0.610210
O O6 0.000000 0.678919 0.601338
O O7 0.500000 0.618893 0.450276
O O8 0.634664 0.579383 0.386520
O O9 0.623127 0.603392 0.561656
O O10 0.626758 0.672151 0.423403
O O11 0.285400 0.463818 0.750000
O O12 0.360255 0.515000 0.625357
O O13 0.379075 0.418471 0.250000
O O14 0.500000 0.439480 0.361055
O O15 0.123117 0.790633 0.750000
O O16 0.000000 0.781166 0.637556
O O17 0.627223 0.934304 0.250000
O O18 0.500000 0.922333 0.143838
#
# Coordination Sequence:
#
# PCOD9468277 Si02
#       7
#     8  16  16  16  16  16  16
#     4  12  21  32  45  68  94 118 148 180 219 274
#     4   7  11  23  43  67  91 110 134 177 229 269
#     4  10  17  27  43  66  92 122 158 192 224 256
#     4  11  21  31  42  61  90 126 157 188 224 262
#     4   9  17  29  43  59  84 123 168 202 221 245
#     4   8  13  21  38  66  94 115 141 183 227 261
#     4   9  18  33  53  73  91 112 141 181 228 276
#
# _framework density 16.180088000000001
#
# number of rings (size 3 to 8) (size 9 to 14) (size 15 to 20)
#    0.000    2.769    1.538    3.462    0.000    2.769 
#    0.000    0.000    0.000    0.923    0.000    2.154 
#    0.000    9.846    0.000    0.000    0.000    0.000 
#
# Total GULP energy -289478.889786 kJ/mol
# GULP energy per Si atom -5566.901727 kJ/mol
# Density = 1.614326 g / cm^3
# Si number density = 16.180088 Si / 1000 Ang^3
#
#
#
# Elastic Constant Matrix: (Units=GPa)
#
#
# Indices 1 2 3 4 5 6 
#
# 1 10.6471 18.0026 18.2931 0.0000 0.0000 0.0000
# 2 18.0026 147.9903 66.3003 0.0000 0.0000 0.0000
# 3 18.2931 66.3003 89.7782 0.0000 0.0000 0.0000
# 4 0.0000 0.0000 0.0000 22.9054 0.0000 0.0000
# 5 0.0000 0.0000 0.0000 0.0000 14.5686 0.0000
# 6 0.0000 0.0000 0.0000 0.0000 0.0000 8.5266
#
#
#
# Elastic Compliance Matrix: (Units=1/GPa)
#
#
# Indices 1 2 3 4 5 6 
#
# 1 0.148902 -0.006756 -0.025351 0.000000 0.000000 0.000000
# 2 -0.006756 0.010405 -0.006307 0.000000 0.000000 0.000000
# 3 -0.025351 -0.006307 0.020962 0.000000 0.000000 0.000000
# 4 0.000000 0.000000 0.000000 0.043658 0.000000 0.000000
# 5 0.000000 0.000000 0.000000 0.000000 0.068641 0.000000
# 6 0.000000 0.000000 0.000000 0.000000 0.000000 0.117280
#
#
# Mechanical properties :
#
#
# Convention : Reuss Voigt Hill
#
# Bulk Modulus (GPa) = 9.66741 50.40083 30.03412
# Shear Modulus (GPa) = 9.59406 18.92142 14.25774
#
# Velocity S-wave (km/s) = 2.43771 3.42340 2.97171
# Velocity P-wave (km/s) = 3.72976 6.84425 5.51157
#
# Compressibility (1/GPa) = 0.10344034
#
# Stress axis : x y z
#
# Youngs Moduli (GPa) = 6.71583 96.11038 47.70610
#
# Poissons Ratio (x) = 0.64936 1.20937
# Poissons Ratio (y) = 0.04537 0.30089
# Poissons Ratio (z) = 0.17025 0.60618
#
# Static dielectric constant tensor:
#      x y z
#    x 1.537550 0.000000 0.000000 
#    y 0.000000 1.565470 0.000000 
#    z 0.000000 0.000000 1.544870 
# 
# From -- ./inp_files/34483.got.cif
#   From: 2010.05.17/outbox.cif.g08.bks.cpg/sg63_18_cif.got.tgz:34483.got - 2010.06.03 15:47:04.
