data_PCOD9468601
_publ_section_title
;
Structure prediction by ZEFSAII (Michael W. Deem and Ramdas Pophale) SiO2 
 PCOD9468601
Probable space group: C M C M
;
_chemical_formula_sum "Si O2"
_cell_formula_units_Z 112
_cell_length_a 22.590303
_cell_length_b 28.124894
_cell_length_c 7.319315
_cell_angle_alpha 90.000000
_cell_angle_beta 90.000000
_cell_angle_gamma 90.000000
_cell_volume 4650.325887
_symmetry_space_group_name_H-M "C M C M"
_symmetry_group_IT_number 63
_symmetry_cell_setting 'orthorhombic'
loop_
_space_group_symop_operation_xyz
x,y,z
-x,-y,1/2+z
x,-y,-z
-x,y,1/2-z
-x,-y,-z
x,y,1/2-z
-x,y,z
x,-y,1/2+z
1/2+x,1/2+y,z
1/2-x,1/2-y,1/2+z
1/2+x,1/2-y,-z
1/2-x,1/2+y,1/2-z
1/2-x,1/2-y,-z
1/2+x,1/2+y,1/2-z
1/2-x,1/2+y,z
1/2+x,1/2-y,1/2+z
loop_
_atom_site_type_symbol
_atom_site_label
_atom_site_fract_x
_atom_site_fract_y
_atom_site_fract_z
Si Si1 0.435792 0.603419 0.527405
Si Si2 0.251561 0.305949 0.033411
Si Si3 0.932443 0.704352 0.032900
Si Si4 0.808599 0.397227 0.026146
Si Si5 0.881110 0.801211 0.027534
Si Si6 0.185682 0.055838 0.532994
Si Si7 0.565213 0.094213 0.957597
O O1 0.435507 0.601190 0.750000
O O2 0.500000 0.585234 0.466850
O O3 0.428110 0.658902 0.477095
O O4 0.376588 0.576825 0.463481
O O5 0.250698 0.312021 0.250000
O O6 0.201679 0.342133 0.965951
O O7 0.317003 0.320145 0.969172
O O8 0.250000 0.250000 0.000000
O O9 0.923276 0.698468 0.250000
O O10 0.892219 0.747480 0.963622
O O11 0.000000 0.721272 0.006951
O O12 0.929379 0.651885 0.951071
O O13 0.811879 0.398822 0.250000
O O14 0.748284 0.422983 0.967240
O O15 0.870907 0.419002 0.960770
O O16 0.881177 0.798482 0.250000
O O17 0.185817 0.065946 0.750000
O O18 0.185860 0.000000 0.500000
O O19 0.563299 0.076061 0.750000
O O20 0.500000 0.083884 0.039709
#
# Coordination Sequence:
#
# PCOD9468601 Si02
#       7
#    16  16  16  16  16  16  16
#     4   9  16  28  49  74  96 122 159 199 237 282
#     4  10  18  28  44  67  95 128 162 196 234 277
#     4   9  16  25  39  63  95 127 158 196 237 271
#     4   9  17  32  51  69  95 128 160 194 236 287
#     4   9  15  25  41  63  92 125 162 198 230 272
#     4  10  20  36  56  76  97 124 158 199 246 294
#     4   9  17  29  46  67  91 124 164 197 227 274
#
# _framework density 24.084334999999999
#
# number of rings (size 3 to 8) (size 9 to 14) (size 15 to 20)
#    0.000    2.714    1.429    1.286    0.000    2.000 
#    0.000    1.429    0.000    1.286    0.000    0.000 
#    0.000    0.000    0.000    0.000    0.000    0.000 
#
# Total GULP energy -312489.887741 kJ/mol
# GULP energy per Si atom -5580.176567 kJ/mol
# Density = 2.402952 g / cm^3
# Si number density = 24.084335 Si / 1000 Ang^3
#
#
#
# Elastic Constant Matrix: (Units=GPa)
#
#
# Indices 1 2 3 4 5 6 
#
# 1 209.1519 25.2012 8.9397 0.0000 0.0000 0.0000
# 2 25.2012 44.6999 -13.8339 0.0000 0.0000 0.0000
# 3 8.9397 -13.8339 91.9962 0.0000 0.0000 0.0000
# 4 0.0000 0.0000 0.0000 14.1650 0.0000 0.0000
# 5 0.0000 0.0000 0.0000 0.0000 -9.4853 0.0000
# 6 0.0000 0.0000 0.0000 0.0000 0.0000 19.5917
#
#
#
# Elastic Compliance Matrix: (Units=1/GPa)
#
#
# Indices 1 2 3 4 5 6 
#
# 1 0.005215 -0.003248 -0.000995 0.000000 0.000000 0.000000
# 2 -0.003248 0.025487 0.004148 0.000000 0.000000 0.000000
# 3 -0.000995 0.004148 0.011591 0.000000 0.000000 0.000000
# 4 0.000000 0.000000 0.000000 0.070596 0.000000 0.000000
# 5 0.000000 0.000000 0.000000 0.000000 -0.105427 0.000000
# 6 0.000000 0.000000 0.000000 0.000000 0.000000 0.051042
#
#
# Mechanical properties :
#
#
# Convention : Reuss Voigt Hill
#
# Bulk Modulus (GPa) = 23.75206 42.94022 33.34614
# Shear Modulus (GPa) = 68.74899 26.55703 47.65301
#
# Velocity S-wave (km/s) = 5.34856 3.32425 4.45296
# Velocity P-wave (km/s) = 6.93009 5.70981 6.34934
#
# Compressibility (1/GPa) = 0.04210161
#
# Stress axis : x y z
#
# Youngs Moduli (GPa) = 191.74942 39.23642 86.27748
#
# Poissons Ratio (x) = 0.12745 0.08587
# Poissons Ratio (y) = 0.62285 -0.35790
# Poissons Ratio (z) = 0.19084 -0.16276
#
# Static dielectric constant tensor:
#      x y z
#    x 2.004320 0.000000 0.000000 
#    y 0.000000 1.889900 0.000000 
#    z 0.000000 0.000000 1.923400 
# 
# From -- ./inp_files/22994.got.cif
#   From: 2010.05.17/outbox.cif.g08.bks.cpg/sg63_12_cif.got.tgz:22994.got - 2010.06.03 15:47:04.
