data_PCOD9468270
_publ_section_title
;
Structure prediction by ZEFSAII (Michael W. Deem and Ramdas Pophale) SiO2 
 PCOD9468270
Probable space group: C M C M
;
_chemical_formula_sum "Si O2"
_cell_formula_units_Z 88
_cell_length_a 26.034987
_cell_length_b 15.470111
_cell_length_c 14.135313
_cell_angle_alpha 90.000000
_cell_angle_beta 90.000000
_cell_angle_gamma 90.000000
_cell_volume 5693.197167
_symmetry_space_group_name_H-M "C M C M"
_symmetry_group_IT_number 63
_symmetry_cell_setting 'orthorhombic'
loop_
_space_group_symop_operation_xyz
x,y,z
-x,-y,1/2+z
x,-y,-z
-x,y,1/2-z
-x,-y,-z
x,y,1/2-z
-x,y,z
x,-y,1/2+z
1/2+x,1/2+y,z
1/2-x,1/2-y,1/2+z
1/2+x,1/2-y,-z
1/2-x,1/2+y,1/2-z
1/2-x,1/2-y,-z
1/2+x,1/2+y,1/2-z
1/2-x,1/2+y,z
1/2+x,1/2-y,1/2+z
loop_
_atom_site_type_symbol
_atom_site_label
_atom_site_fract_x
_atom_site_fract_y
_atom_site_fract_z
Si Si1 0.701498 0.946963 0.857888
Si Si2 0.619110 0.000000 0.500000
Si Si3 0.061162 0.371841 0.360422
Si Si4 0.200452 0.900075 0.972363
Si Si5 0.139421 0.224928 0.360244
Si Si6 0.763834 0.648126 0.855870
O O1 0.689459 0.921862 0.750000
O O2 0.752213 0.900117 0.897415
O O3 0.655876 0.940646 0.933875
O O4 0.714924 0.049617 0.857998
O O5 0.585205 0.057438 0.570219
O O6 0.073817 0.392667 0.250000
O O7 0.089030 0.280945 0.380915
O O8 0.000000 0.367311 0.369694
O O9 0.151498 0.855754 0.926128
O O10 0.220975 0.848748 0.063779
O O11 0.192222 0.000000 0.000000
O O12 0.138195 0.199290 0.250000
O O13 0.188164 0.289269 0.372893
O O14 0.743971 0.664889 0.750000
#
# Coordination Sequence:
#
# PCOD9468270 Si02
#       6
#    16   8  16  16  16  16
#     4  10  17  27  42  67 101 132 158 185 230 287
#     4  12  17  30  48  74  96 134 157 192 242 292
#     4  10  21  35  51  72  96 125 165 209 246 281
#     4  10  18  29  43  70  99 130 159 193 238 284
#     4  10  18  30  48  67  91 125 162 200 239 282
#     4   9  16  27  43  64  95 128 156 187 228 283
#
# _framework density 15.457044
#
# number of rings (size 3 to 8) (size 9 to 14) (size 15 to 20)
#    0.000    2.000    4.545    1.909    0.000    0.727 
#    0.000    0.000    0.000    1.636    0.000    0.000 
#    0.000    0.000    0.000    0.000    0.000    0.000 
#
# Total GULP energy -245406.260169 kJ/mol
# GULP energy per Si atom -5577.415004 kJ/mol
# Density = 1.542186 g / cm^3
# Si number density = 15.457044 Si / 1000 Ang^3
#
#
#
# Elastic Constant Matrix: (Units=GPa)
#
#
# Indices 1 2 3 4 5 6 
#
# 1 67.9198 28.4336 47.9049 0.0000 0.0000 0.0000
# 2 28.4336 27.6106 29.9608 0.0000 0.0000 0.0000
# 3 47.9049 29.9608 102.2065 0.0000 0.0000 0.0000
# 4 0.0000 0.0000 0.0000 17.3856 0.0000 0.0000
# 5 0.0000 0.0000 0.0000 0.0000 20.5847 0.0000
# 6 0.0000 0.0000 0.0000 0.0000 0.0000 19.2089
#
#
#
# Elastic Compliance Matrix: (Units=1/GPa)
#
#
# Indices 1 2 3 4 5 6 
#
# 1 0.029013 -0.022176 -0.007098 0.000000 0.000000 0.000000
# 2 -0.022176 0.070062 -0.010144 0.000000 0.000000 0.000000
# 3 -0.007098 -0.010144 0.016085 0.000000 0.000000 0.000000
# 4 0.000000 0.000000 0.000000 0.057519 0.000000 0.000000
# 5 0.000000 0.000000 0.000000 0.000000 0.048580 0.000000
# 6 0.000000 0.000000 0.000000 0.000000 0.000000 0.052059
#
#
# Mechanical properties :
#
#
# Convention : Reuss Voigt Hill
#
# Bulk Modulus (GPa) = 27.52981 45.59283 36.56132
# Shear Modulus (GPa) = 13.72640 17.53169 15.62904
#
# Velocity S-wave (km/s) = 2.98322 3.37147 3.18327
# Velocity P-wave (km/s) = 5.45118 6.68702 6.10048
#
# Compressibility (1/GPa) = 0.03632426
#
# Stress axis : x y z
#
# Youngs Moduli (GPa) = 34.46714 14.27303 62.17091
#
# Poissons Ratio (x) = 0.31651 0.44130
# Poissons Ratio (y) = 0.76433 0.63067
# Poissons Ratio (z) = 0.24465 0.14479
#
# Static dielectric constant tensor:
#      x y z
#    x 1.491650 0.000000 0.000000 
#    y 0.000000 1.526450 0.000000 
#    z 0.000000 0.000000 1.546360 
# 
# From -- ./inp_files/36725.got.cif
#   From: 2010.05.17/outbox.cif.g08.bks.cpg/sg63_19_cif.got.tgz:36725.got - 2010.06.03 15:47:04.
