data_PCOD9468710
_publ_section_title
;
Structure prediction by ZEFSAII (Michael W. Deem and Ramdas Pophale) SiO2 
 PCOD9468710
Probable space group: C M C M
;
_chemical_formula_sum "Si O2"
_cell_formula_units_Z 128
_cell_length_a 20.626797
_cell_length_b 22.367182
_cell_length_c 18.275691
_cell_angle_alpha 90.000000
_cell_angle_beta 90.000000
_cell_angle_gamma 90.000000
_cell_volume 8431.733522
_symmetry_space_group_name_H-M "C M C M"
_symmetry_group_IT_number 63
_symmetry_cell_setting 'orthorhombic'
loop_
_space_group_symop_operation_xyz
x,y,z
-x,-y,1/2+z
x,-y,-z
-x,y,1/2-z
-x,-y,-z
x,y,1/2-z
-x,y,z
x,-y,1/2+z
1/2+x,1/2+y,z
1/2-x,1/2-y,1/2+z
1/2+x,1/2-y,-z
1/2-x,1/2+y,1/2-z
1/2-x,1/2-y,-z
1/2+x,1/2+y,1/2-z
1/2-x,1/2+y,z
1/2+x,1/2-y,1/2+z
loop_
_atom_site_type_symbol
_atom_site_label
_atom_site_fract_x
_atom_site_fract_y
_atom_site_fract_z
Si Si1 0.373089 0.708962 0.669755
Si Si2 0.837977 0.872111 0.923310
Si Si3 0.173518 0.927934 0.165714
Si Si4 0.424697 0.533414 0.162584
Si Si5 0.670472 0.815427 0.469077
Si Si6 0.734908 0.936246 0.030127
Si Si7 0.752912 0.274304 0.615541
Si Si8 0.074278 0.777005 0.010838
O O1 0.404327 0.713462 0.750000
O O2 0.347616 0.641088 0.660132
O O3 0.310477 0.752493 0.666921
O O4 0.415680 0.722609 0.598443
O O5 0.885967 0.915312 0.880051
O O6 0.794145 0.830303 0.870033
O O7 0.789760 0.910283 0.974596
O O8 0.878445 0.826749 0.975060
O O9 0.192925 0.939151 0.250000
O O10 0.229715 0.941654 0.108163
O O11 0.112643 0.971061 0.149061
O O12 0.422331 0.544367 0.250000
O O13 0.500000 0.530551 0.140585
O O14 0.679469 0.885985 0.464784
O O15 0.707862 0.782663 0.402873
O O16 0.710132 0.793613 0.540909
O O17 0.600465 0.785951 0.479169
O O18 0.713124 0.000000 0.000000
O O19 0.000000 0.788522 0.992419
#
# Coordination Sequence:
#
# PCOD9468710 Si02
#       8
#    16  16  16  16  16  16  16  16
#     4  10  18  29  45  66  92 122 153 186 228 278
#     4  10  18  30  48  70  86 114 159 191 222 266
#     4  10  19  31  44  63  93 125 153 185 227 269
#     4  10  21  34  43  57  91 131 156 182 220 261
#     4   8  15  28  44  64  87 110 142 186 233 271
#     4  11  17  29  50  71  88 115 151 192 234 266
#     4   8  14  27  45  62  87 110 139 187 235 265
#     4  10  19  31  47  66  92 125 155 188 228 269
#
# _framework density 15.180745999999999
#
# number of rings (size 3 to 8) (size 9 to 14) (size 15 to 20)
#    0.000    2.375    3.750    1.875    0.000    1.250 
#    0.000    1.875    0.000    0.375    0.000    0.000 
#    0.000    0.000    0.000    0.000    0.000    0.000 
#
# Total GULP energy -356382.542802 kJ/mol
# GULP energy per Si atom -5568.477231 kJ/mol
# Density = 1.514619 g / cm^3
# Si number density = 15.180746 Si / 1000 Ang^3
#
#
#
# Elastic Constant Matrix: (Units=GPa)
#
#
# Indices 1 2 3 4 5 6 
#
# 1 30.2964 20.8617 6.9112 0.0000 0.0000 0.0000
# 2 20.8617 84.7331 18.6409 0.0000 0.0000 0.0000
# 3 6.9112 18.6409 29.2356 0.0000 0.0000 0.0000
# 4 0.0000 0.0000 0.0000 16.9659 0.0000 0.0000
# 5 0.0000 0.0000 0.0000 0.0000 12.2818 0.0000
# 6 0.0000 0.0000 0.0000 0.0000 0.0000 14.9431
#
#
#
# Elastic Compliance Matrix: (Units=1/GPa)
#
#
# Indices 1 2 3 4 5 6 
#
# 1 0.040087 -0.009055 -0.003703 0.000000 0.000000 0.000000
# 2 -0.009055 0.015773 -0.007916 0.000000 0.000000 0.000000
# 3 -0.003703 -0.007916 0.040128 0.000000 0.000000 0.000000
# 4 0.000000 0.000000 0.000000 0.058942 0.000000 0.000000
# 5 0.000000 0.000000 0.000000 0.000000 0.081421 0.000000
# 6 0.000000 0.000000 0.000000 0.000000 0.000000 0.066921
#
#
# Mechanical properties :
#
#
# Convention : Reuss Voigt Hill
#
# Bulk Modulus (GPa) = 18.30190 26.34362 22.32276
# Shear Modulus (GPa) = 13.78047 15.36158 14.57103
#
# Velocity S-wave (km/s) = 3.01617 3.18451 3.10148
# Velocity P-wave (km/s) = 4.92056 5.55990 5.24997
#
# Compressibility (1/GPa) = 0.05463913
#
# Stress axis : x y z
#
# Youngs Moduli (GPa) = 24.94574 63.40078 24.92044
#
# Poissons Ratio (x) = 0.57409 0.09228
# Poissons Ratio (y) = 0.22588 0.19728
# Poissons Ratio (z) = 0.09237 0.50190
#
# Static dielectric constant tensor:
#      x y z
#    x 1.490160 0.000000 0.000000 
#    y 0.000000 1.513510 0.000000 
#    z 0.000000 0.000000 1.515650 
# 
# From -- ./inp_files/47536.got.cif
#   From: 2010.05.17/outbox.cif.g08.bks.cpg/sg63_24_cif.got.tgz:47536.got - 2010.06.03 15:47:04.
