data_PCOD9468090
_publ_section_title
;
Structure prediction by ZEFSAII (Michael W. Deem and Ramdas Pophale) SiO2 
 PCOD9468090
Probable space group: C M C M
;
_chemical_formula_sum "Si O2"
_cell_formula_units_Z 64
_cell_length_a 19.621090
_cell_length_b 7.810199
_cell_length_c 17.641108
_cell_angle_alpha 90.000000
_cell_angle_beta 90.000000
_cell_angle_gamma 90.000000
_cell_volume 2703.404848
_symmetry_space_group_name_H-M "C M C M"
_symmetry_group_IT_number 63
_symmetry_cell_setting 'orthorhombic'
loop_
_space_group_symop_operation_xyz
x,y,z
-x,-y,1/2+z
x,-y,-z
-x,y,1/2-z
-x,-y,-z
x,y,1/2-z
-x,y,z
x,-y,1/2+z
1/2+x,1/2+y,z
1/2-x,1/2-y,1/2+z
1/2+x,1/2-y,-z
1/2-x,1/2+y,1/2-z
1/2-x,1/2-y,-z
1/2+x,1/2+y,1/2-z
1/2-x,1/2+y,z
1/2+x,1/2-y,1/2+z
loop_
_atom_site_type_symbol
_atom_site_label
_atom_site_fract_x
_atom_site_fract_y
_atom_site_fract_z
Si Si1 0.232191 0.467490 0.338881
Si Si2 0.000000 0.414408 0.916196
Si Si3 0.643447 0.174801 0.051166
Si Si4 0.351248 0.356497 0.898279
Si Si5 0.000000 0.779060 0.659756
O O1 0.233656 0.499006 0.250000
O O2 0.196484 0.620647 0.385248
O O3 0.309541 0.478732 0.370188
O O4 0.184738 0.303655 0.354975
O O5 0.931138 0.306310 0.912582
O O6 0.000000 0.574912 0.859220
O O7 0.000000 0.500000 0.000000
O O8 0.658226 0.314588 0.987060
O O9 0.641019 0.000000 0.000000
O O10 0.430814 0.352851 0.877258
O O11 0.000000 0.805702 0.750000
#
# Coordination Sequence:
#
# PCOD9468090 Si02
#       5
#    16   8  16  16   8
#     4  11  21  34  52  81 112 141 179 229 274 321
#     4  10  14  30  52  77 107 134 181 225 263 305
#     4   9  17  31  53  77 107 141 178 220 270 320
#     4  11  22  37  56  81 111 145 182 223 274 330
#     4  12  20  32  56  83 107 142 186 228 268 321
#
# _framework density 23.673849000000001
#
# number of rings (size 3 to 8) (size 9 to 14) (size 15 to 20)
#    0.000    1.500    7.500    3.000    0.000    0.000 
#    0.000    0.000    0.000    3.000    0.000   20.125 
#    0.000    0.000    0.000    0.000    0.000    0.000 
#
# Total GULP energy -178972.452274 kJ/mol
# GULP energy per Si atom -5592.889134 kJ/mol
# Density = 2.361997 g / cm^3
# Si number density = 23.673849 Si / 1000 Ang^3
#
#
#
# Elastic Constant Matrix: (Units=GPa)
#
#
# Indices 1 2 3 4 5 6 
#
# 1 184.5251 17.5457 55.1270 0.0000 0.0000 0.0000
# 2 17.5457 92.8211 1.7091 0.0000 0.0000 0.0000
# 3 55.1270 1.7091 146.0002 0.0000 0.0000 0.0000
# 4 0.0000 0.0000 0.0000 14.6680 0.0000 0.0000
# 5 0.0000 0.0000 0.0000 0.0000 15.4171 0.0000
# 6 0.0000 0.0000 0.0000 0.0000 0.0000 15.5799
#
#
#
# Elastic Compliance Matrix: (Units=1/GPa)
#
#
# Indices 1 2 3 4 5 6 
#
# 1 0.006225 -0.001134 -0.002337 0.000000 0.000000 0.000000
# 2 -0.001134 0.010982 0.000300 0.000000 0.000000 0.000000
# 3 -0.002337 0.000300 0.007728 0.000000 0.000000 0.000000
# 4 0.000000 0.000000 0.000000 0.068175 0.000000 0.000000
# 5 0.000000 0.000000 0.000000 0.000000 0.064863 0.000000
# 6 0.000000 0.000000 0.000000 0.000000 0.000000 0.064185
#
#
# Mechanical properties :
#
#
# Convention : Reuss Voigt Hill
#
# Bulk Modulus (GPa) = 53.78411 63.56778 58.67594
# Shear Modulus (GPa) = 21.30377 32.39732 26.85055
#
# Velocity S-wave (km/s) = 3.00307 3.70332 3.37142
# Velocity P-wave (km/s) = 5.89853 6.72279 6.32410
#
# Compressibility (1/GPa) = 0.01859285
#
# Stress axis : x y z
#
# Youngs Moduli (GPa) = 160.63236 91.05641 129.39401
#
# Poissons Ratio (x) = 0.10323 0.30244
# Poissons Ratio (y) = 0.18211 -0.03876
# Poissons Ratio (z) = 0.37545 -0.02727
#
# Static dielectric constant tensor:
#      x y z
#    x 1.947840 0.000000 0.000000 
#    y 0.000000 2.109900 0.000000 
#    z 0.000000 0.000000 1.840710 
# 
# From -- ./inp_files/46725.got.cif
#   From: 2010.05.17/outbox.cif.g08.bks.cpg/sg63_24_cif.got.tgz:46725.got - 2010.06.03 15:47:04.
