data_PCOD9468711
_publ_section_title
;
Structure prediction by ZEFSAII (Michael W. Deem and Ramdas Pophale) SiO2 
 PCOD9468711
Probable space group: C M C M
;
_chemical_formula_sum "Si O2"
_cell_formula_units_Z 96
_cell_length_a 27.787053
_cell_length_b 8.209902
_cell_length_c 25.310141
_cell_angle_alpha 90.000000
_cell_angle_beta 90.000000
_cell_angle_gamma 90.000000
_cell_volume 5773.976701
_symmetry_space_group_name_H-M "C M C M"
_symmetry_group_IT_number 63
_symmetry_cell_setting 'orthorhombic'
loop_
_space_group_symop_operation_xyz
x,y,z
-x,-y,1/2+z
x,-y,-z
-x,y,1/2-z
-x,-y,-z
x,y,1/2-z
-x,y,z
x,-y,1/2+z
1/2+x,1/2+y,z
1/2-x,1/2-y,1/2+z
1/2+x,1/2-y,-z
1/2-x,1/2+y,1/2-z
1/2-x,1/2-y,-z
1/2+x,1/2+y,1/2-z
1/2-x,1/2+y,z
1/2+x,1/2-y,1/2+z
loop_
_atom_site_type_symbol
_atom_site_label
_atom_site_fract_x
_atom_site_fract_y
_atom_site_fract_z
Si Si1 0.800123 0.353453 0.931999
Si Si2 0.381065 0.894513 0.106216
Si Si3 0.135952 0.189894 0.493856
Si Si4 0.053904 0.620326 0.449182
Si Si5 0.186994 0.267407 0.187197
Si Si6 0.273461 0.541796 0.629264
O O1 0.839730 0.483434 0.914603
O O2 0.749715 0.440261 0.919638
O O3 0.801687 0.194565 0.894411
O O4 0.816178 0.289907 0.989124
O O5 0.380148 0.746452 0.064235
O O6 0.362818 0.832481 0.162356
O O7 0.428349 0.004311 0.098556
O O8 0.093696 0.246498 0.534447
O O9 0.143962 0.000000 0.500000
O O10 0.053826 0.500000 0.500000
O O11 0.000000 0.683773 0.441447
O O12 0.187567 0.268429 0.250000
O O13 0.229991 0.381997 0.164195
O O14 0.197499 0.087886 0.163790
#
# Coordination Sequence:
#
# PCOD9468711 Si02
#       6
#    16  16  16  16  16  16
#     4   9  17  31  44  61  88 118 150 187 228 268
#     4   9  18  31  46  65  90 118 148 182 224 271
#     4  10  18  29  45  66  95 120 145 184 229 277
#     4   8  15  29  48  68  90 116 143 174 217 271
#     4  10  18  30  45  63  88 117 153 191 226 257
#     4   9  18  30  45  63  85 118 158 193 223 262
#
# _framework density 16.626324
#
# number of rings (size 3 to 8) (size 9 to 14) (size 15 to 20)
#    0.000    2.833    0.000    3.000    0.000    0.333 
#    0.000   21.667    0.000    0.500    0.000    0.000 
#    0.000    0.000    0.000    0.000    0.000    0.000 
#
# Total GULP energy -267344.099663 kJ/mol
# GULP energy per Si atom -5569.668743 kJ/mol
# Density = 1.658848 g / cm^3
# Si number density = 16.626324 Si / 1000 Ang^3
#
#
#
# Elastic Constant Matrix: (Units=GPa)
#
#
# Indices 1 2 3 4 5 6 
#
# 1 42.7724 14.5845 25.4848 0.0000 0.0000 0.0000
# 2 14.5845 86.6302 14.4448 0.0000 0.0000 0.0000
# 3 25.4848 14.4448 49.3499 0.0000 0.0000 0.0000
# 4 0.0000 0.0000 0.0000 13.8967 0.0000 0.0000
# 5 0.0000 0.0000 0.0000 0.0000 14.1111 0.0000
# 6 0.0000 0.0000 0.0000 0.0000 0.0000 14.9536
#
#
#
# Elastic Compliance Matrix: (Units=1/GPa)
#
#
# Indices 1 2 3 4 5 6 
#
# 1 0.034488 -0.002982 -0.016937 0.000000 0.000000 0.000000
# 2 -0.002982 0.012393 -0.002088 0.000000 0.000000 0.000000
# 3 -0.016937 -0.002088 0.029621 0.000000 0.000000 0.000000
# 4 0.000000 0.000000 0.000000 0.071960 0.000000 0.000000
# 5 0.000000 0.000000 0.000000 0.000000 0.070866 0.000000
# 6 0.000000 0.000000 0.000000 0.000000 0.000000 0.066874
#
#
# Mechanical properties :
#
#
# Convention : Reuss Voigt Hill
#
# Bulk Modulus (GPa) = 30.77977 31.97563 31.37770
# Shear Modulus (GPa) = 14.66084 16.87483 15.76784
#
# Velocity S-wave (km/s) = 2.97271 3.18928 3.08290
# Velocity P-wave (km/s) = 5.50777 5.73024 5.62011
#
# Compressibility (1/GPa) = 0.03248887
#
# Stress axis : x y z
#
# Youngs Moduli (GPa) = 28.99576 80.68771 33.75990
#
# Poissons Ratio (x) = 0.24062 0.57179
# Poissons Ratio (y) = 0.08647 0.07048
# Poissons Ratio (z) = 0.49110 0.16845
#
# Static dielectric constant tensor:
#      x y z
#    x 1.595990 0.000000 0.000000 
#    y 0.000000 1.567320 0.000000 
#    z 0.000000 0.000000 1.555120 
# 
# From -- ./inp_files/65330.got.cif
#   From: 2010.05.17/outbox.cif.g08.bks.cpg/sg63_33_cif.got.tgz:65330.got - 2010.06.03 15:47:04.
