data_PCOD9468388
_publ_section_title
;
Structure prediction by ZEFSAII (Michael W. Deem and Ramdas Pophale) SiO2 
 PCOD9468388
Probable space group: C M C M
;
_chemical_formula_sum "Si O2"
_cell_formula_units_Z 80
_cell_length_a 16.498951
_cell_length_b 30.456184
_cell_length_c 7.698962
_cell_angle_alpha 90.000000
_cell_angle_beta 90.000000
_cell_angle_gamma 90.000000
_cell_volume 3868.690584
_symmetry_space_group_name_H-M "C M C M"
_symmetry_group_IT_number 63
_symmetry_cell_setting 'orthorhombic'
loop_
_space_group_symop_operation_xyz
x,y,z
-x,-y,1/2+z
x,-y,-z
-x,y,1/2-z
-x,-y,-z
x,y,1/2-z
-x,y,z
x,-y,1/2+z
1/2+x,1/2+y,z
1/2-x,1/2-y,1/2+z
1/2+x,1/2-y,-z
1/2-x,1/2+y,1/2-z
1/2-x,1/2-y,-z
1/2+x,1/2+y,1/2-z
1/2-x,1/2+y,z
1/2+x,1/2-y,1/2+z
loop_
_atom_site_type_symbol
_atom_site_label
_atom_site_fract_x
_atom_site_fract_y
_atom_site_fract_z
Si Si1 0.217096 0.631826 0.951404
Si Si2 0.905827 0.301383 0.463249
Si Si3 0.166430 0.789159 0.959929
Si Si4 0.000000 0.931941 0.543858
Si Si5 0.683619 0.451735 0.045105
Si Si6 0.500000 0.334522 0.540014
O O1 0.200883 0.621180 0.750000
O O2 0.133347 0.652460 0.022900
O O3 0.265462 0.589937 0.029156
O O4 0.274667 0.674618 0.960244
O O5 0.905658 0.300183 0.250000
O O6 0.845447 0.261376 0.517639
O O7 0.000000 0.295494 0.515324
O O8 0.177635 0.789673 0.750000
O O9 0.079048 0.808531 0.005873
O O10 0.087840 0.951140 0.499177
O O11 0.000000 0.883118 0.466926
O O12 0.000000 0.930456 0.750000
O O13 0.686562 0.446787 0.250000
O O14 0.716408 0.500000 0.000000
O O15 0.500000 0.337916 0.750000
#
# Coordination Sequence:
#
# PCOD9468388 Si02
#       6
#    16  16  16   8  16   8
#     4  10  21  34  50  76 104 130 165 212 256 293
#     4   9  17  31  53  77 102 133 169 206 245 295
#     4  10  17  30  52  76 103 138 173 199 233 293
#     4  11  20  34  55  77 104 136 172 205 243 294
#     4  11  23  37  52  73 102 133 169 210 256 303
#     4   9  16  26  46  75 103 136 171 195 225 282
#
# _framework density 20.678830999999999
#
# number of rings (size 3 to 8) (size 9 to 14) (size 15 to 20)
#    0.000    2.000    3.000    1.800    0.000    0.800 
#    0.000    0.500    0.000    2.400    0.000    0.000 
#    0.000    0.000    0.000    0.000    0.000    0.200 
#
# Total GULP energy -222879.455151 kJ/mol
# GULP energy per Si atom -5571.986379 kJ/mol
# Density = 2.063177 g / cm^3
# Si number density = 20.678831 Si / 1000 Ang^3
#
#
#
# Elastic Constant Matrix: (Units=GPa)
#
#
# Indices 1 2 3 4 5 6 
#
# 1 37.3790 47.5424 -7.6705 0.0000 0.0000 0.0000
# 2 47.5424 166.7615 1.1411 0.0000 0.0000 0.0000
# 3 -7.6705 1.1411 40.4562 0.0000 0.0000 0.0000
# 4 0.0000 0.0000 0.0000 11.0438 0.0000 0.0000
# 5 0.0000 0.0000 0.0000 0.0000 9.9208 0.0000
# 6 0.0000 0.0000 0.0000 0.0000 0.0000 33.8572
#
#
#
# Elastic Compliance Matrix: (Units=1/GPa)
#
#
# Indices 1 2 3 4 5 6 
#
# 1 0.044955 -0.012877 0.008887 0.000000 0.000000 0.000000
# 2 -0.012877 0.009686 -0.002715 0.000000 0.000000 0.000000
# 3 0.008887 -0.002715 0.026480 0.000000 0.000000 0.000000
# 4 0.000000 0.000000 0.000000 0.090548 0.000000 0.000000
# 5 0.000000 0.000000 0.000000 0.000000 0.100799 0.000000
# 6 0.000000 0.000000 0.000000 0.000000 0.000000 0.029536
#
#
# Mechanical properties :
#
#
# Convention : Reuss Voigt Hill
#
# Bulk Modulus (GPa) = 14.76869 36.29140 25.53005
# Shear Modulus (GPa) = 14.79357 24.53660 19.66509
#
# Velocity S-wave (km/s) = 2.67759 3.44838 3.08714
# Velocity P-wave (km/s) = 4.08862 5.78301 5.00799
#
# Compressibility (1/GPa) = 0.06771080
#
# Stress axis : x y z
#
# Youngs Moduli (GPa) = 22.24439 103.23806 37.76490
#
# Poissons Ratio (x) = 1.32942 -0.33561
# Poissons Ratio (y) = 0.28645 0.10252
# Poissons Ratio (z) = -0.19768 0.28026
#
# Static dielectric constant tensor:
#      x y z
#    x 1.830200 0.000000 0.000000 
#    y 0.000000 1.856350 0.000000 
#    z 0.000000 0.000000 1.755270 
# 
# From -- ./inp_files/6710.got.cif
#   From: 2010.05.17/outbox.cif.g08.bks.cpg/sg63_4_cif.got.tgz:6710.got - 2010.06.03 15:47:04.
