data_PCOD9468647
_publ_section_title
;
Structure prediction by ZEFSAII (Michael W. Deem and Ramdas Pophale) SiO2 
 PCOD9468647
Probable space group: C M C M
;
_chemical_formula_sum "Si O2"
_cell_formula_units_Z 80
_cell_length_a 8.649813
_cell_length_b 20.933091
_cell_length_c 25.430239
_cell_angle_alpha 90.000000
_cell_angle_beta 90.000000
_cell_angle_gamma 90.000000
_cell_volume 4604.585290
_symmetry_space_group_name_H-M "C M C M"
_symmetry_group_IT_number 63
_symmetry_cell_setting 'orthorhombic'
loop_
_space_group_symop_operation_xyz
x,y,z
-x,-y,1/2+z
x,-y,-z
-x,y,1/2-z
-x,-y,-z
x,y,1/2-z
-x,y,z
x,-y,1/2+z
1/2+x,1/2+y,z
1/2-x,1/2-y,1/2+z
1/2+x,1/2-y,-z
1/2-x,1/2+y,1/2-z
1/2-x,1/2-y,-z
1/2+x,1/2+y,1/2-z
1/2-x,1/2+y,z
1/2+x,1/2-y,1/2+z
loop_
_atom_site_type_symbol
_atom_site_label
_atom_site_fract_x
_atom_site_fract_y
_atom_site_fract_z
Si Si1 0.684627 0.361908 0.750000
Si Si2 0.816553 0.006751 0.858447
Si Si3 0.813691 0.686797 0.026964
Si Si4 0.684473 0.006798 0.750000
Si Si5 0.685596 0.939361 0.037112
Si Si6 0.686059 0.862466 0.860019
O O1 0.500000 0.362669 0.750000
O O2 0.749776 0.434389 0.750000
O O3 0.746685 0.335173 0.694631
O O4 0.748003 0.034739 0.804298
O O5 0.769482 0.049173 0.907976
O O6 0.000000 0.999991 0.853792
O O7 0.744015 0.935778 0.866094
O O8 0.766246 0.675663 0.087638
O O9 0.000000 0.688963 0.026801
O O10 0.750000 0.750000 0.000000
O O11 0.767353 0.624656 0.993203
O O12 0.500000 0.005295 0.750000
O O13 0.500000 0.937890 0.045731
O O14 0.718417 0.000000 0.000000
O O15 0.500000 0.864051 0.856755
#
# Coordination Sequence:
#
# PCOD9468647 Si02
#       6
#     8  16  16   8  16  16
#     4  10  18  28  46  77 106 133 170 225 271 303
#     4  11  20  30  49  80 110 136 173 227 273 309
#     4  10  22  37  56  78 107 144 180 222 266 317
#     4  10  18  30  48  71 104 145 176 211 265 327
#     4  10  19  36  56  76 105 142 182 215 259 322
#     4  10  18  33  52  74 104 144 179 212 261 323
#
# _framework density 17.373985999999999
#
# number of rings (size 3 to 8) (size 9 to 14) (size 15 to 20)
#    0.000    1.800    2.000    6.600    0.000    2.800 
#    0.000    0.000    0.000    1.200    0.000    5.600 
#    0.000    0.000    0.000    0.000    0.000    0.000 
#
# Total GULP energy -223198.643999 kJ/mol
# GULP energy per Si atom -5579.966100 kJ/mol
# Density = 1.733444 g / cm^3
# Si number density = 17.373986 Si / 1000 Ang^3
#
#
#
# Elastic Constant Matrix: (Units=GPa)
#
#
# Indices 1 2 3 4 5 6 
#
# 1 93.0800 25.7813 68.6965 0.0000 0.0000 0.0000
# 2 25.7813 78.4791 57.9313 0.0000 0.0000 0.0000
# 3 68.6965 57.9313 198.9322 0.0000 0.0000 0.0000
# 4 0.0000 0.0000 0.0000 18.2463 0.0000 0.0000
# 5 0.0000 0.0000 0.0000 0.0000 23.4182 0.0000
# 6 0.0000 0.0000 0.0000 0.0000 0.0000 19.5976
#
#
#
# Elastic Compliance Matrix: (Units=1/GPa)
#
#
# Indices 1 2 3 4 5 6 
#
# 1 0.014532 -0.001362 -0.004621 0.000000 0.000000 0.000000
# 2 -0.001362 0.016359 -0.004293 0.000000 0.000000 0.000000
# 3 -0.004621 -0.004293 0.007873 0.000000 0.000000 0.000000
# 4 0.000000 0.000000 0.000000 0.054806 0.000000 0.000000
# 5 0.000000 0.000000 0.000000 0.000000 0.042702 0.000000
# 6 0.000000 0.000000 0.000000 0.000000 0.000000 0.051027
#
#
# Mechanical properties :
#
#
# Convention : Reuss Voigt Hill
#
# Bulk Modulus (GPa) = 54.91729 75.03437 64.97583
# Shear Modulus (GPa) = 23.37300 26.79125 25.08212
#
# Velocity S-wave (km/s) = 3.67179 3.93113 3.80367
# Velocity P-wave (km/s) = 7.04653 7.99291 7.53459
#
# Compressibility (1/GPa) = 0.01820920
#
# Stress axis : x y z
#
# Youngs Moduli (GPa) = 68.81576 61.12779 127.01585
#
# Poissons Ratio (x) = 0.08328 0.58699
# Poissons Ratio (y) = 0.09375 0.54534
# Poissons Ratio (z) = 0.31802 0.26245
#
# Static dielectric constant tensor:
#      x y z
#    x 1.598020 0.000000 0.000000 
#    y 0.000000 1.560730 0.000000 
#    z 0.000000 0.000000 1.639020 
# 
# From -- ./inp_files/66657.got.cif
#   From: 2010.05.17/outbox.cif.g08.bks.cpg/sg63_34_cif.got.tgz:66657.got - 2010.06.03 15:47:04.
