data_PCOD9468728
_publ_section_title
;
Structure prediction by ZEFSAII (Michael W. Deem and Ramdas Pophale) SiO2 
 PCOD9468728
Probable space group: C M C M
;
_chemical_formula_sum "Si O2"
_cell_formula_units_Z 80
_cell_length_a 23.950856
_cell_length_b 25.109941
_cell_length_c 8.755065
_cell_angle_alpha 90.000000
_cell_angle_beta 90.000000
_cell_angle_gamma 90.000000
_cell_volume 5265.336198
_symmetry_space_group_name_H-M "C M C M"
_symmetry_group_IT_number 63
_symmetry_cell_setting 'orthorhombic'
loop_
_space_group_symop_operation_xyz
x,y,z
-x,-y,1/2+z
x,-y,-z
-x,y,1/2-z
-x,-y,-z
x,y,1/2-z
-x,y,z
x,-y,1/2+z
1/2+x,1/2+y,z
1/2-x,1/2-y,1/2+z
1/2+x,1/2-y,-z
1/2-x,1/2+y,1/2-z
1/2-x,1/2-y,-z
1/2+x,1/2+y,1/2-z
1/2-x,1/2+y,z
1/2+x,1/2-y,1/2+z
loop_
_atom_site_type_symbol
_atom_site_label
_atom_site_fract_x
_atom_site_fract_y
_atom_site_fract_z
Si Si1 0.935599 0.661642 0.431534
Si Si2 0.338587 0.229406 0.932024
Si Si3 0.741370 0.945055 0.567328
Si Si4 0.231004 0.829040 0.566805
Si Si5 0.616372 0.944162 0.067585
O O1 0.928930 0.654404 0.250000
O O2 0.893403 0.707060 0.487879
O O3 0.918241 0.606644 0.512737
O O4 0.000000 0.674284 0.464503
O O5 0.345113 0.225245 0.750000
O O6 0.319803 0.289603 0.971888
O O7 0.286097 0.193315 0.984209
O O8 0.736073 0.949779 0.750000
O O9 0.775093 0.891290 0.531254
O O10 0.679350 0.938226 0.497344
O O11 0.764564 0.000000 0.500000
O O12 0.240281 0.824387 0.750000
O O13 0.618183 0.946868 0.250000
O O14 0.594438 0.000000 0.000000
#
# Coordination Sequence:
#
# PCOD9468728 Si02
#       5
#    16  16  16  16  16
#     4  11  23  37  50  65  90 123 158 199 242 280
#     4  10  19  31  49  71  91 118 157 194 233 278
#     4  10  18  29  46  68  97 126 154 187 228 273
#     4   9  18  31  48  69  96 124 150 188 233 280
#     4  11  21  33  49  67  89 120 159 199 238 275
#
# _framework density 15.193711
#
# number of rings (size 3 to 8) (size 9 to 14) (size 15 to 20)
#    0.000    1.800    2.000    4.800    0.000    3.600 
#    0.000    0.000    0.000    0.000    0.000    0.000 
#    0.000    0.800    0.000    1.800    0.000    3.200 
#
# Total GULP energy -223203.230285 kJ/mol
# GULP energy per Si atom -5580.080757 kJ/mol
# Density = 1.515913 g / cm^3
# Si number density = 15.193711 Si / 1000 Ang^3
#
#
#
# Elastic Constant Matrix: (Units=GPa)
#
#
# Indices 1 2 3 4 5 6 
#
# 1 65.2818 61.1163 39.6448 0.0000 0.0000 0.0000
# 2 61.1163 139.1887 58.2507 0.0000 0.0000 0.0000
# 3 39.6448 58.2507 73.4228 0.0000 0.0000 0.0000
# 4 0.0000 0.0000 0.0000 23.7722 0.0000 0.0000
# 5 0.0000 0.0000 0.0000 0.0000 18.3691 0.0000
# 6 0.0000 0.0000 0.0000 0.0000 0.0000 19.4243
#
#
#
# Elastic Compliance Matrix: (Units=1/GPa)
#
#
# Indices 1 2 3 4 5 6 
#
# 1 0.029060 -0.009272 -0.008335 0.000000 0.000000 0.000000
# 2 -0.009272 0.013714 -0.005874 0.000000 0.000000 0.000000
# 3 -0.008335 -0.005874 0.022780 0.000000 0.000000 0.000000
# 4 0.000000 0.000000 0.000000 0.042066 0.000000 0.000000
# 5 0.000000 0.000000 0.000000 0.000000 0.054439 0.000000
# 6 0.000000 0.000000 0.000000 0.000000 0.000000 0.051482
#
#
# Mechanical properties :
#
#
# Convention : Reuss Voigt Hill
#
# Bulk Modulus (GPa) = 53.78387 66.21297 59.99842
# Shear Modulus (GPa) = 18.74764 20.23857 19.49310
#
# Velocity S-wave (km/s) = 3.51651 3.65367 3.58575
# Velocity P-wave (km/s) = 7.20857 7.84046 7.53114
#
# Compressibility (1/GPa) = 0.01859293
#
# Stress axis : x y z
#
# Youngs Moduli (GPa) = 34.41129 72.91974 43.89750
#
# Poissons Ratio (x) = 0.67609 0.36590
# Poissons Ratio (y) = 0.31905 0.25784
# Poissons Ratio (z) = 0.28683 0.42830
#
# Static dielectric constant tensor:
#      x y z
#    x 1.473010 0.000000 0.000000 
#    y 0.000000 1.534590 0.000000 
#    z 0.000000 0.000000 1.509840 
# 
# From -- ./inp_files/6370.got.cif
#   From: 2010.05.17/outbox.cif.g08.bks.cpg/sg63_4_cif.got.tgz:6370.got - 2010.06.03 15:47:04.
