data_PCOD9468856
_publ_section_title
;
Structure prediction by ZEFSAII (Michael W. Deem and Ramdas Pophale) SiO2 
 PCOD9468856
Probable space group: C M C M
;
_chemical_formula_sum "Si O2"
_cell_formula_units_Z 52
_cell_length_a 12.749459
_cell_length_b 11.150846
_cell_length_c 12.296574
_cell_angle_alpha 90.000000
_cell_angle_beta 90.000000
_cell_angle_gamma 90.000000
_cell_volume 1748.170158
_symmetry_space_group_name_H-M "C M C M"
_symmetry_group_IT_number 63
_symmetry_cell_setting 'orthorhombic'
loop_
_space_group_symop_operation_xyz
x,y,z
-x,-y,1/2+z
x,-y,-z
-x,y,1/2-z
-x,-y,-z
x,y,1/2-z
-x,y,z
x,-y,1/2+z
1/2+x,1/2+y,z
1/2-x,1/2-y,1/2+z
1/2+x,1/2-y,-z
1/2-x,1/2+y,1/2-z
1/2-x,1/2-y,-z
1/2+x,1/2+y,1/2-z
1/2-x,1/2+y,z
1/2+x,1/2-y,1/2+z
loop_
_atom_site_type_symbol
_atom_site_label
_atom_site_fract_x
_atom_site_fract_y
_atom_site_fract_z
Si Si1 0.000000 0.439400 0.750000
Si Si2 0.669764 0.837615 0.905826
Si Si3 0.622765 0.553127 0.622570
Si Si4 0.380145 0.226489 0.630477
O O1 0.091910 0.420933 0.842486
O O2 0.616882 0.170760 0.750000
O O3 0.632270 0.698921 0.889089
O O4 0.657206 0.857178 0.033918
O O5 0.652198 0.500000 0.500000
O O6 0.663355 0.535682 0.750000
O O7 0.500000 0.522960 0.630714
O O8 0.709199 0.328382 0.631373
O O9 0.500000 0.263499 0.609220
#
# Coordination Sequence:
#
# PCOD9468856 Si02
#       4
#     4  16  16  16
#     4  12  16  32  50  68  92 136 156 184 222 310
#     4  11  19  32  51  68  97 131 156 190 234 289
#     4  10  18  30  47  68  92 121 156 194 236 280
#     4  10  20  31  47  73  99 123 157 196 234 274
#
# _framework density 29.745388999999999
#
# number of rings (size 3 to 8) (size 9 to 14) (size 15 to 20)
#    0.000    1.538    6.154    0.000    0.000    1.231 
#    0.000    3.077    0.000    0.923    0.000    0.000 
#    0.000    0.000    0.000    0.000    0.000    0.000 
#
# Total GULP energy -144863.148146 kJ/mol
# GULP energy per Si atom -5571.659544 kJ/mol
# Density = 2.967769 g / cm^3
# Si number density = 29.745389 Si / 1000 Ang^3
#
#
#
# Elastic Constant Matrix: (Units=GPa)
#
#
# Indices 1 2 3 4 5 6 
#
# 1 273.5017 15.7268 57.3074 0.0000 0.0000 0.0000
# 2 15.7268 113.5299 70.8757 0.0000 0.0000 0.0000
# 3 57.3074 70.8757 303.1213 0.0000 0.0000 0.0000
# 4 0.0000 0.0000 0.0000 45.6699 0.0000 0.0000
# 5 0.0000 0.0000 0.0000 0.0000 68.2324 0.0000
# 6 0.0000 0.0000 0.0000 0.0000 0.0000 -37.6224
#
#
#
# Elastic Compliance Matrix: (Units=1/GPa)
#
#
# Indices 1 2 3 4 5 6 
#
# 1 0.003808 -0.000091 -0.000699 0.000000 0.000000 0.000000
# 2 -0.000091 0.010316 -0.002395 0.000000 0.000000 0.000000
# 3 -0.000699 -0.002395 0.003991 0.000000 0.000000 0.000000
# 4 0.000000 0.000000 0.000000 0.021896 0.000000 0.000000
# 5 0.000000 0.000000 0.000000 0.000000 0.014656 0.000000
# 6 0.000000 0.000000 0.000000 0.000000 0.000000 -0.026580
#
#
# Mechanical properties :
#
#
# Convention : Reuss Voigt Hill
#
# Bulk Modulus (GPa) = 85.13956 108.66364 96.90160
# Shear Modulus (GPa) = 130.30453 51.67218 90.98835
#
# Velocity S-wave (km/s) = 6.62584 4.17243 5.53674
# Velocity P-wave (km/s) = 9.33919 7.73452 8.57448
#
# Compressibility (1/GPa) = 0.01174542
#
# Stress axis : x y z
#
# Youngs Moduli (GPa) = 262.61140 96.93710 250.56214
#
# Poissons Ratio (x) = 0.00886 0.17503
# Poissons Ratio (y) = 0.02400 0.60005
# Poissons Ratio (z) = 0.18345 0.23214
#
# Static dielectric constant tensor:
#      x y z
#    x 2.222460 0.000000 0.000000 
#    y 0.000000 2.589160 0.000000 
#    z 0.000000 0.000000 2.311210 
# 
# From -- ./inp_files/17019.got.cif
#   From: 2010.05.17/outbox.cif.g08.bks.cpg/sg63_9_cif.got.tgz:17019.got - 2010.06.03 15:47:04.
