data_PCOD9468722
_publ_section_title
;
Structure prediction by ZEFSAII (Michael W. Deem and Ramdas Pophale) SiO2 
 PCOD9468722
Probable space group: C M C M
;
_chemical_formula_sum "Si O2"
_cell_formula_units_Z 96
_cell_length_a 26.345942
_cell_length_b 25.934175
_cell_length_c 8.572761
_cell_angle_alpha 90.000000
_cell_angle_beta 90.000000
_cell_angle_gamma 90.000000
_cell_volume 5857.426999
_symmetry_space_group_name_H-M "C M C M"
_symmetry_group_IT_number 63
_symmetry_cell_setting 'orthorhombic'
loop_
_space_group_symop_operation_xyz
x,y,z
-x,-y,1/2+z
x,-y,-z
-x,y,1/2-z
-x,-y,-z
x,y,1/2-z
-x,y,z
x,-y,1/2+z
1/2+x,1/2+y,z
1/2-x,1/2-y,1/2+z
1/2+x,1/2-y,-z
1/2-x,1/2+y,1/2-z
1/2-x,1/2-y,-z
1/2+x,1/2+y,1/2-z
1/2-x,1/2+y,z
1/2+x,1/2-y,1/2+z
loop_
_atom_site_type_symbol
_atom_site_label
_atom_site_fract_x
_atom_site_fract_y
_atom_site_fract_z
Si Si1 0.356767 0.941752 0.937523
Si Si2 0.750160 0.441317 0.436291
Si Si3 0.856463 0.941668 0.937821
Si Si4 0.442112 0.362254 0.937040
Si Si5 0.558356 0.860472 0.559433
Si Si6 0.438406 0.252870 0.070651
O O1 0.354522 0.943734 0.750000
O O2 0.403283 0.905386 0.986726
O O3 0.303271 0.919721 0.000619
O O4 0.363154 0.000000 0.000000
O O5 0.750262 0.500000 0.500000
O O6 0.749919 0.441614 0.250000
O O7 0.697226 0.419648 0.500526
O O8 0.854839 0.943391 0.750000
O O9 0.902893 0.905711 0.990913
O O10 0.862447 0.000000 0.000000
O O11 0.444050 0.365353 0.750000
O O12 0.500000 0.369522 0.996474
O O13 0.424276 0.304834 0.982043
O O14 0.557719 0.858653 0.750000
O O15 0.500000 0.869223 0.509467
O O16 0.576417 0.803467 0.507539
O O17 0.421545 0.257394 0.250000
O O18 0.500000 0.251115 0.070819
#
# Coordination Sequence:
#
# PCOD9468722 Si02
#       6
#    16  16  16  16  16  16
#     4  10  18  29  46  67  93 122 151 184 223 267
#     4  10  18  30  47  65  87 115 152 191 223 261
#     4  10  19  31  47  67  92 120 150 182 219 265
#     4   9  18  31  46  67  95 122 145 177 224 269
#     4   8  15  28  46  68  93 121 151 184 223 265
#     4   8  14  27  47  67  86 114 154 189 215 255
#
# _framework density 16.389448999999999
#
# number of rings (size 3 to 8) (size 9 to 14) (size 15 to 20)
#    0.000    2.833    0.000    5.500    0.000    2.000 
#    0.000    1.667    0.000    4.500    0.000    0.000 
#    0.000    0.000    0.000    0.000    0.000    0.000 
#
# Total GULP energy -267231.007797 kJ/mol
# GULP energy per Si atom -5567.312662 kJ/mol
# Density = 1.635215 g / cm^3
# Si number density = 16.389449 Si / 1000 Ang^3
#
#
#
# Elastic Constant Matrix: (Units=GPa)
#
#
# Indices 1 2 3 4 5 6 
#
# 1 121.6667 74.3164 27.3120 0.0000 0.0000 0.0000
# 2 74.3164 99.0675 20.6762 0.0000 0.0000 0.0000
# 3 27.3120 20.6762 47.2397 0.0000 0.0000 0.0000
# 4 0.0000 0.0000 0.0000 19.5741 0.0000 0.0000
# 5 0.0000 0.0000 0.0000 0.0000 17.2322 0.0000
# 6 0.0000 0.0000 0.0000 0.0000 0.0000 -1.1636
#
#
#
# Elastic Compliance Matrix: (Units=1/GPa)
#
#
# Indices 1 2 3 4 5 6 
#
# 1 0.015956 -0.011054 -0.004387 0.000000 0.000000 0.000000
# 2 -0.011054 0.018767 -0.001823 0.000000 0.000000 0.000000
# 3 -0.004387 -0.001823 0.024503 0.000000 0.000000 0.000000
# 4 0.000000 0.000000 0.000000 0.051088 0.000000 0.000000
# 5 0.000000 0.000000 0.000000 0.000000 0.058031 0.000000
# 6 0.000000 0.000000 0.000000 0.000000 0.000000 -0.859422
#
#
# Mechanical properties :
#
#
# Convention : Reuss Voigt Hill
#
# Bulk Modulus (GPa) = 40.48935 56.95369 48.72152
# Shear Modulus (GPa) = -7.71227 16.83983 4.56378
#
# Velocity S-wave (km/s) = -2.17160 3.20891 1.67052
# Velocity P-wave (km/s) = 4.29772 6.96815 5.78902
#
# Compressibility (1/GPa) = 0.02469785
#
# Stress axis : x y z
#
# Youngs Moduli (GPa) = 62.67289 53.28565 40.81157
#
# Poissons Ratio (x) = 0.58901 0.17904
# Poissons Ratio (y) = 0.69278 0.07440
# Poissons Ratio (z) = 0.27494 0.09714
#
# Static dielectric constant tensor:
#      x y z
#    x 1.576420 0.000000 0.000000 
#    y 0.000000 1.461690 0.000000 
#    z 0.000000 0.000000 1.560630 
# 
# From -- ./inp_files/10677.got.cif
#   From: 2010.05.17/outbox.cif.g08.bks.cpg/sg63_6_cif.got.tgz:10677.got - 2010.06.03 15:47:04.
