data_PCOD9468083
_publ_section_title
;
Structure prediction by ZEFSAII (Michael W. Deem and Ramdas Pophale) SiO2 
 PCOD9468083
Probable space group: C M C M
;
_chemical_formula_sum "Si O2"
_cell_formula_units_Z 128
_cell_length_a 18.402430
_cell_length_b 13.394722
_cell_length_c 23.104633
_cell_angle_alpha 90.000000
_cell_angle_beta 90.000000
_cell_angle_gamma 90.000000
_cell_volume 5695.186538
_symmetry_space_group_name_H-M "C M C M"
_symmetry_group_IT_number 63
_symmetry_cell_setting 'orthorhombic'
loop_
_space_group_symop_operation_xyz
x,y,z
-x,-y,1/2+z
x,-y,-z
-x,y,1/2-z
-x,-y,-z
x,y,1/2-z
-x,y,z
x,-y,1/2+z
1/2+x,1/2+y,z
1/2-x,1/2-y,1/2+z
1/2+x,1/2-y,-z
1/2-x,1/2+y,1/2-z
1/2-x,1/2-y,-z
1/2+x,1/2+y,1/2-z
1/2-x,1/2+y,z
1/2+x,1/2-y,1/2+z
loop_
_atom_site_type_symbol
_atom_site_label
_atom_site_fract_x
_atom_site_fract_y
_atom_site_fract_z
Si Si1 0.917872 0.723579 0.500223
Si Si2 0.610374 0.819712 0.315603
Si Si3 0.766576 0.811037 0.139708
Si Si4 0.419153 0.368156 0.602980
Si Si5 0.626916 0.965410 0.680804
Si Si6 0.235700 0.920655 0.892785
Si Si7 0.227997 0.635804 0.982885
Si Si8 0.418772 0.750648 0.637735
O O1 0.907987 0.824050 0.538164
O O2 0.859112 0.643698 0.521260
O O3 0.908938 0.745583 0.432156
O O4 0.000000 0.689371 0.509948
O O5 0.588284 0.798767 0.250000
O O6 0.698537 0.828018 0.318587
O O7 0.585339 0.731117 0.357115
O O8 0.586598 0.930960 0.333143
O O9 0.749986 0.697388 0.119898
O O10 0.849107 0.809158 0.161934
O O11 0.760782 0.876987 0.081058
O O12 0.500000 0.411991 0.607455
O O13 0.349964 0.435838 0.617976
O O14 0.635220 0.961017 0.750000
O O15 0.705212 0.967530 0.649514
O O16 0.588355 0.864713 0.659534
O O17 0.252941 0.928150 0.960789
O O18 0.250000 0.750000 0.000000
O O19 0.500000 0.713298 0.650661
#
# Coordination Sequence:
#
# PCOD9468083 Si02
#       8
#    16  16  16  16  16  16  16  16
#     4  10  16  26  46  74 104 126 148 186 240 290
#     4  10  21  35  49  66  93 130 166 199 238 282
#     4   9  16  29  50  71  93 122 158 201 230 275
#     4  10  19  31  50  75 100 126 155 193 239 284
#     4  10  21  35  49  66  93 130 166 199 238 282
#     4   9  16  29  50  71  93 122 158 201 230 275
#     4  10  12  26  46  71  95 123 153 194 233 279
#     4  10  19  31  50  75 100 126 155 193 239 284
#
# _framework density 22.475121000000001
#
# number of rings (size 3 to 8) (size 9 to 14) (size 15 to 20)
#    0.000    2.250    7.500    0.000    0.000    5.500 
#    0.000    3.750    0.000    3.000    0.000    1.750 
#    0.000    5.000    0.000    0.000    0.000    0.000 
#
# Total GULP energy -357191.036136 kJ/mol
# GULP energy per Si atom -5581.109940 kJ/mol
# Density = 2.242397 g / cm^3
# Si number density = 22.475121 Si / 1000 Ang^3
#
#
#
# Elastic Constant Matrix: (Units=GPa)
#
#
# Indices 1 2 3 4 5 6 
#
# 1 185.0983 -7.0261 -1.7795 0.0000 0.0000 0.0000
# 2 -7.0261 29.9082 14.1456 0.0000 0.0000 0.0000
# 3 -1.7795 14.1456 69.2279 0.0000 0.0000 0.0000
# 4 0.0000 0.0000 0.0000 13.2814 0.0000 0.0000
# 5 0.0000 0.0000 0.0000 0.0000 -8.9925 0.0000
# 6 0.0000 0.0000 0.0000 0.0000 0.0000 7.7170
#
#
#
# Elastic Compliance Matrix: (Units=1/GPa)
#
#
# Indices 1 2 3 4 5 6 
#
# 1 0.005452 0.001345 -0.000135 0.000000 0.000000 0.000000
# 2 0.001345 0.037344 -0.007596 0.000000 0.000000 0.000000
# 3 -0.000135 -0.007596 0.015994 0.000000 0.000000 0.000000
# 4 0.000000 0.000000 0.000000 0.075294 0.000000 0.000000
# 5 0.000000 0.000000 0.000000 0.000000 -0.111204 0.000000
# 6 0.000000 0.000000 0.000000 0.000000 0.000000 0.129583
#
#
# Mechanical properties :
#
#
# Convention : Reuss Voigt Hill
#
# Bulk Modulus (GPa) = 21.73070 32.76827 27.24948
# Shear Modulus (GPa) = 27.68927 20.99413 24.34170
#
# Velocity S-wave (km/s) = 3.51379 3.05963 3.29454
# Velocity P-wave (km/s) = 5.11391 5.20512 5.15971
#
# Compressibility (1/GPa) = 0.04601785
#
# Stress axis : x y z
#
# Youngs Moduli (GPa) = 183.40958 26.77786 62.52447
#
# Poissons Ratio (x) = -0.03600 0.00841
# Poissons Ratio (y) = -0.24660 0.47495
# Poissons Ratio (z) = 0.02468 0.20341
#
# Static dielectric constant tensor:
#      x y z
#    x 1.903830 0.000000 0.000000 
#    y 0.000000 1.904320 0.000000 
#    z 0.000000 0.000000 1.791180 
# 
# From -- ./inp_files/64058.got.cif
#   From: 2010.05.17/outbox.cif.g08.bks.cpg/sg63_33_cif.got.tgz:64058.got - 2010.06.03 15:47:04.
