data_PCOD9468366
_publ_section_title
;
Structure prediction by ZEFSAII (Michael W. Deem and Ramdas Pophale) SiO2 
 PCOD9468366
Probable space group: C M C M
;
_chemical_formula_sum "Si O2"
_cell_formula_units_Z 104
_cell_length_a 17.760290
_cell_length_b 16.525237
_cell_length_c 19.562394
_cell_angle_alpha 90.000000
_cell_angle_beta 90.000000
_cell_angle_gamma 90.000000
_cell_volume 5741.425730
_symmetry_space_group_name_H-M "C M C M"
_symmetry_group_IT_number 63
_symmetry_cell_setting 'orthorhombic'
loop_
_space_group_symop_operation_xyz
x,y,z
-x,-y,1/2+z
x,-y,-z
-x,y,1/2-z
-x,-y,-z
x,y,1/2-z
-x,y,z
x,-y,1/2+z
1/2+x,1/2+y,z
1/2-x,1/2-y,1/2+z
1/2+x,1/2-y,-z
1/2-x,1/2+y,1/2-z
1/2-x,1/2-y,-z
1/2+x,1/2+y,1/2-z
1/2-x,1/2+y,z
1/2+x,1/2-y,1/2+z
loop_
_atom_site_type_symbol
_atom_site_label
_atom_site_fract_x
_atom_site_fract_y
_atom_site_fract_z
Si Si1 0.357765 0.337368 0.900817
Si Si2 0.702069 0.500000 0.250000
Si Si3 0.587897 0.200192 0.000000
Si Si4 0.733730 0.902107 0.500000
Si Si5 0.081780 1.000000 0.128044
Si Si6 0.357765 0.337367 0.099183
Si Si7 0.302587 0.326624 0.250000
Si Si8 0.697412 0.673377 0.250000
O O1 0.407515 0.417448 0.913228
O O2 0.349677 0.325013 0.819919
O O3 0.391836 0.258911 0.936382
O O4 0.277865 0.361714 0.935614
O O5 0.647877 0.500000 0.184046
O O6 0.741410 0.413143 0.250000
O O7 0.741409 0.586858 0.250000
O O8 0.500000 0.178094 0.000000
O O9 0.608164 0.258911 0.063619
O O10 0.647532 0.126913 0.000000
O O11 0.777865 0.861714 0.435614
O O12 0.741395 0.000000 0.500000
O O13 0.000000 1.000000 0.161151
O O14 0.092485 0.917448 0.086772
O O15 0.349676 0.325013 0.180081
O O16 0.249999 0.250001 0.250000
#
# Coordination Sequence:
#
# PCOD9468366 Si02
#       8
#    16   8  16  16  16  16   8   8
#     4  10  20  36  55  83 111 140 182 224 275 334
#     4   8  19  28  42  74 112 140 171 208 263 330
#     4  11  23  37  55  79 109 148 189 228 271 324
#     4  11  21  38  56  78 110 144 187 234 274 316
#     4  10  17  29  50  77 111 139 164 208 268 331
#     4  10  20  36  55  83 111 140 182 224 275 334
#     4  10  18  33  55  80 109 144 180 225 277 325
#     4  10  18  33  55  80 109 144 180 225 277 325
#
# _framework density 18.113966999999999
#
# number of rings (size 3 to 8) (size 9 to 14) (size 15 to 20)
#    0.000    1.846    1.538    4.846    0.000    0.308 
#    0.000    4.615    0.000    0.000    0.000    0.000 
#    0.000    7.385    0.000    0.000    0.000    0.000 
#
# Total GULP energy -289836.907819 kJ/mol
# GULP energy per Si atom -5573.786689 kJ/mol
# Density = 1.807274 g / cm^3
# Si number density = 18.113967 Si / 1000 Ang^3
#
#
#
# Elastic Constant Matrix: (Units=GPa)
#
#
# Indices 1 2 3 4 5 6 
#
# 1 105.2013 32.4539 15.6381 0.0000 0.0000 0.0000
# 2 32.4539 76.5866 4.7830 0.0000 0.0000 0.0000
# 3 15.6381 4.7830 113.5654 0.0000 0.0000 0.0000
# 4 0.0000 0.0000 0.0000 14.3511 0.0000 0.0000
# 5 0.0000 0.0000 0.0000 0.0000 14.7544 0.0000
# 6 0.0000 0.0000 0.0000 0.0000 0.0000 13.4797
#
#
#
# Elastic Compliance Matrix: (Units=1/GPa)
#
#
# Indices 1 2 3 4 5 6 
#
# 1 0.011134 -0.004635 -0.001338 0.000000 0.000000 0.000000
# 2 -0.004635 0.015021 0.000006 0.000000 0.000000 0.000000
# 3 -0.001338 0.000006 0.008990 0.000000 0.000000 0.000000
# 4 0.000000 0.000000 0.000000 0.069681 0.000000 0.000000
# 5 0.000000 0.000000 0.000000 0.000000 0.067776 0.000000
# 6 0.000000 0.000000 0.000000 0.000000 0.000000 0.074186
#
#
# Mechanical properties :
#
#
# Convention : Reuss Voigt Hill
#
# Bulk Modulus (GPa) = 43.08424 44.56704 43.82564
# Shear Modulus (GPa) = 18.76466 24.68227 21.72347
#
# Velocity S-wave (km/s) = 3.22207 3.69536 3.46680
# Velocity P-wave (km/s) = 6.13832 6.54711 6.34601
#
# Compressibility (1/GPa) = 0.02321034
#
# Stress axis : x y z
#
# Youngs Moduli (GPa) = 89.81319 66.57483 111.24079
#
# Poissons Ratio (x) = 0.30855 0.14884
# Poissons Ratio (y) = 0.41625 -0.00062
# Poissons Ratio (z) = 0.12017 -0.00037
#
# Static dielectric constant tensor:
#      x y z
#    x 1.626440 0.000000 0.000000 
#    y 0.000000 1.658150 0.000000 
#    z 0.000000 0.000000 1.484420 
# 
# From -- ./inp_files/55660.got.cif
#   From: 2010.05.17/outbox.cif.g08.bks.cpg/sg63_28_cif.got.tgz:55660.got - 2010.06.03 15:47:04.
