data_PCOD9468283
_publ_section_title
;
Structure prediction by ZEFSAII (Michael W. Deem and Ramdas Pophale) SiO2 
 PCOD9468283
Probable space group: C M C M
;
_chemical_formula_sum "Si O2"
_cell_formula_units_Z 112
_cell_length_a 19.138916
_cell_length_b 16.192382
_cell_length_c 20.506201
_cell_angle_alpha 90.000000
_cell_angle_beta 90.000000
_cell_angle_gamma 90.000000
_cell_volume 6354.966817
_symmetry_space_group_name_H-M "C M C M"
_symmetry_group_IT_number 63
_symmetry_cell_setting 'orthorhombic'
loop_
_space_group_symop_operation_xyz
x,y,z
-x,-y,1/2+z
x,-y,-z
-x,y,1/2-z
-x,-y,-z
x,y,1/2-z
-x,y,z
x,-y,1/2+z
1/2+x,1/2+y,z
1/2-x,1/2-y,1/2+z
1/2+x,1/2-y,-z
1/2-x,1/2+y,1/2-z
1/2-x,1/2-y,-z
1/2+x,1/2+y,1/2-z
1/2-x,1/2+y,z
1/2+x,1/2-y,1/2+z
loop_
_atom_site_type_symbol
_atom_site_label
_atom_site_fract_x
_atom_site_fract_y
_atom_site_fract_z
Si Si1 0.132113 0.492212 0.676208
Si Si2 0.658199 0.754027 0.944164
Si Si3 0.171414 0.849313 0.323201
Si Si4 0.682075 0.685356 0.422903
Si Si5 0.418822 0.076213 0.456842
Si Si6 0.200836 0.038067 0.325355
Si Si7 0.160381 0.680963 0.677150
O O1 0.110164 0.471128 0.750000
O O2 0.091817 0.447881 0.618637
O O3 0.214756 0.471030 0.670655
O O4 0.127178 0.591056 0.667800
O O5 0.637039 0.707927 0.877768
O O6 0.736985 0.786700 0.931062
O O7 0.617096 0.835579 0.965341
O O8 0.655586 0.688634 0.003232
O O9 0.146404 0.831417 0.250000
O O10 0.255296 0.831908 0.323678
O O11 0.167593 0.947547 0.335388
O O12 0.678908 0.602463 0.380619
O O13 0.644425 0.755245 0.379552
O O14 0.500000 0.083568 0.473260
O O15 0.388836 0.000000 0.500000
O O16 0.185945 0.064100 0.250000
O O17 0.142414 0.710915 0.750000
#
# Coordination Sequence:
#
# PCOD9468283 Si02
#       7
#    16  16  16  16  16  16  16
#     4   9  17  31  48  67  94 129 166 201 240 286
#     4  10  20  31  44  69  93 126 162 203 247 285
#     4   8  16  29  44  65  95 125 153 189 241 295
#     4  10  17  27  44  72  98 123 158 195 238 302
#     4  11  23  37  50  66  94 134 175 212 245 281
#     4   9  16  28  47  73 102 130 151 185 245 304
#     4   8  14  25  42  63  91 124 152 185 234 289
#
# _framework density 17.624009999999998
#
# number of rings (size 3 to 8) (size 9 to 14) (size 15 to 20)
#    0.000    2.714    1.429    3.000    0.000    3.143 
#    0.000    0.000    0.000    0.000    0.000    2.000 
#    0.000    1.143    0.000    0.286    0.000    0.000 
#
# Total GULP energy -311890.186896 kJ/mol
# GULP energy per Si atom -5569.467623 kJ/mol
# Density = 1.758390 g / cm^3
# Si number density = 17.624010 Si / 1000 Ang^3
#
#
#
# Elastic Constant Matrix: (Units=GPa)
#
#
# Indices 1 2 3 4 5 6 
#
# 1 2.2090 2.4056 5.4189 0.0000 0.0000 0.0000
# 2 2.4056 77.6455 72.5862 0.0000 0.0000 0.0000
# 3 5.4189 72.5862 122.5965 0.0000 0.0000 0.0000
# 4 0.0000 0.0000 0.0000 39.1430 0.0000 0.0000
# 5 0.0000 0.0000 0.0000 0.0000 6.3021 0.0000
# 6 0.0000 0.0000 0.0000 0.0000 0.0000 5.3510
#
#
#
# Elastic Compliance Matrix: (Units=1/GPa)
#
#
# Indices 1 2 3 4 5 6 
#
# 1 0.512589 0.011869 -0.029685 0.000000 0.000000 0.000000
# 2 0.011869 0.029119 -0.017765 0.000000 0.000000 0.000000
# 3 -0.029685 -0.017765 0.019987 0.000000 0.000000 0.000000
# 4 0.000000 0.000000 0.000000 0.025547 0.000000 0.000000
# 5 0.000000 0.000000 0.000000 0.000000 0.158678 0.000000
# 6 0.000000 0.000000 0.000000 0.000000 0.000000 0.186879
#
#
# Mechanical properties :
#
#
# Convention : Reuss Voigt Hill
#
# Bulk Modulus (GPa) = 2.03860 40.36360 21.20110
# Shear Modulus (GPa) = 4.28276 18.29523 11.28900
#
# Velocity S-wave (km/s) = 1.56056 3.22543 2.53365
# Velocity P-wave (km/s) = 2.09913 6.06824 4.54037
#
# Compressibility (1/GPa) = 0.49053390
#
# Stress axis : x y z
#
# Youngs Moduli (GPa) = 1.95088 34.34193 50.03192
#
# Poissons Ratio (x) = -0.40761 1.48518
# Poissons Ratio (y) = -0.02316 0.88883
# Poissons Ratio (z) = 0.05791 0.61009
#
# Static dielectric constant tensor:
#      x y z
#    x 1.582400 0.000000 0.000000 
#    y 0.000000 1.611250 0.000000 
#    z 0.000000 0.000000 1.628540 
# 
# From -- ./inp_files/47319.got.cif
#   From: 2010.05.17/outbox.cif.g08.bks.cpg/sg63_24_cif.got.tgz:47319.got - 2010.06.03 15:47:04.
