data_PCOD9468635
_publ_section_title
;
Structure prediction by ZEFSAII (Michael W. Deem and Ramdas Pophale) SiO2 
 PCOD9468635
Probable space group: C M C M
;
_chemical_formula_sum "Si O2"
_cell_formula_units_Z 80
_cell_length_a 7.479570
_cell_length_b 31.951711
_cell_length_c 13.767861
_cell_angle_alpha 90.000000
_cell_angle_beta 90.000000
_cell_angle_gamma 90.000000
_cell_volume 3290.313074
_symmetry_space_group_name_H-M "C M C M"
_symmetry_group_IT_number 63
_symmetry_cell_setting 'orthorhombic'
loop_
_space_group_symop_operation_xyz
x,y,z
-x,-y,1/2+z
x,-y,-z
-x,y,1/2-z
-x,-y,-z
x,y,1/2-z
-x,y,z
x,-y,1/2+z
1/2+x,1/2+y,z
1/2-x,1/2-y,1/2+z
1/2+x,1/2-y,-z
1/2-x,1/2+y,1/2-z
1/2-x,1/2-y,-z
1/2+x,1/2+y,1/2-z
1/2-x,1/2+y,z
1/2+x,1/2-y,1/2+z
loop_
_atom_site_type_symbol
_atom_site_label
_atom_site_fract_x
_atom_site_fract_y
_atom_site_fract_z
Si Si1 0.215759 0.891911 0.054776
Si Si2 0.708678 0.198610 0.569390
Si Si3 0.205513 0.285430 0.644840
Si Si4 0.708520 0.520342 0.633709
Si Si5 0.218403 0.927875 0.639960
O O1 0.270575 0.894832 0.941486
O O2 0.000000 0.891984 0.060117
O O3 0.275153 0.848979 0.102994
O O4 0.283365 0.935358 0.100117
O O5 0.500000 0.209586 0.563903
O O6 0.793274 0.234899 0.633582
O O7 0.784609 0.200250 0.458715
O O8 0.285900 0.296941 0.750000
O O9 0.000000 0.299817 0.646075
O O10 0.713359 0.519722 0.750000
O O11 0.500000 0.520633 0.603101
O O12 0.779061 0.474417 0.605948
O O13 0.278073 0.919774 0.750000
O O14 0.000000 0.929295 0.642230
#
# Coordination Sequence:
#
# PCOD9468635 Si02
#       5
#    16  16  16  16  16
#     4  10  18  28  46  71  97 126 160 198 240 286
#     4  10  21  35  51  76 105 128 156 197 245 296
#     4   9  19  38  60  75  92 125 165 201 239 288
#     4   8  14  25  42  65  92 123 162 205 242 275
#     4   8  14  25  42  66  94 123 161 208 247 276
#
# _framework density 24.313796
#
# number of rings (size 3 to 8) (size 9 to 14) (size 15 to 20)
#    0.000    3.000    0.000    2.400    0.000    5.200 
#    0.000    2.000    0.000    2.400    0.000    2.800 
#    0.000    0.000    0.000    0.000    0.000    0.000 
#
# Total GULP energy -223228.085412 kJ/mol
# GULP energy per Si atom -5580.702135 kJ/mol
# Density = 2.425846 g / cm^3
# Si number density = 24.313796 Si / 1000 Ang^3
#
#
#
# Elastic Constant Matrix: (Units=GPa)
#
#
# Indices 1 2 3 4 5 6 
#
# 1 74.9429 -8.5705 0.4734 0.0000 0.0000 0.0000
# 2 -8.5705 93.4447 -10.5668 0.0000 0.0000 0.0000
# 3 0.4734 -10.5668 40.7678 0.0000 0.0000 0.0000
# 4 0.0000 0.0000 0.0000 10.2146 0.0000 0.0000
# 5 0.0000 0.0000 0.0000 0.0000 -5.4131 0.0000
# 6 0.0000 0.0000 0.0000 0.0000 0.0000 -6.7361
#
#
#
# Elastic Compliance Matrix: (Units=1/GPa)
#
#
# Indices 1 2 3 4 5 6 
#
# 1 0.013486 0.001256 0.000169 0.000000 0.000000 0.000000
# 2 0.001256 0.011142 0.002873 0.000000 0.000000 0.000000
# 3 0.000169 0.002873 0.025272 0.000000 0.000000 0.000000
# 4 0.000000 0.000000 0.000000 0.097899 0.000000 0.000000
# 5 0.000000 0.000000 0.000000 0.000000 -0.184736 0.000000
# 6 0.000000 0.000000 0.000000 0.000000 0.000000 -0.148453
#
#
# Mechanical properties :
#
#
# Convention : Reuss Voigt Hill
#
# Bulk Modulus (GPa) = 17.09516 19.09195 18.09356
# Shear Modulus (GPa) = -28.65503 14.80104 -6.92700
#
# Velocity S-wave (km/s) = -3.43673 2.46996 -1.68973
# Velocity P-wave (km/s) = 2.94988 4.00046 1.91074
#
# Compressibility (1/GPa) = 0.05849608
#
# Stress axis : x y z
#
# Youngs Moduli (GPa) = 74.15061 89.75351 39.56962
#
# Poissons Ratio (x) = -0.11273 -0.00669
# Poissons Ratio (y) = -0.09313 -0.11369
# Poissons Ratio (z) = -0.01253 -0.25789
#
# Static dielectric constant tensor:
#      x y z
#    x 1.962140 0.000000 0.000000 
#    y 0.000000 1.919300 0.000000 
#    z 0.000000 0.000000 1.953140 
# 
# From -- ./inp_files/30027.got.cif
#   From: 2010.05.17/outbox.cif.g08.bks.cpg/sg63_16_cif.got.tgz:30027.got - 2010.06.03 15:47:04.
