data_PCOD9468332
_publ_section_title
;
Structure prediction by ZEFSAII (Michael W. Deem and Ramdas Pophale) SiO2 
 PCOD9468332
Probable space group: C M C M
;
_chemical_formula_sum "Si O2"
_cell_formula_units_Z 96
_cell_length_a 7.343159
_cell_length_b 25.625824
_cell_length_c 24.703515
_cell_angle_alpha 90.000000
_cell_angle_beta 90.000000
_cell_angle_gamma 90.000000
_cell_volume 4648.571587
_symmetry_space_group_name_H-M "C M C M"
_symmetry_group_IT_number 63
_symmetry_cell_setting 'orthorhombic'
loop_
_space_group_symop_operation_xyz
x,y,z
-x,-y,1/2+z
x,-y,-z
-x,y,1/2-z
-x,-y,-z
x,y,1/2-z
-x,y,z
x,-y,1/2+z
1/2+x,1/2+y,z
1/2-x,1/2-y,1/2+z
1/2+x,1/2-y,-z
1/2-x,1/2+y,1/2-z
1/2-x,1/2-y,-z
1/2+x,1/2+y,1/2-z
1/2-x,1/2+y,z
1/2+x,1/2-y,1/2+z
loop_
_atom_site_type_symbol
_atom_site_label
_atom_site_fract_x
_atom_site_fract_y
_atom_site_fract_z
Si Si1 0.219941 0.330714 0.063582
Si Si2 0.221005 0.222291 0.750000
Si Si3 0.289003 0.768514 0.637549
Si Si4 0.713366 0.098845 0.750000
Si Si5 0.722952 0.144745 0.057412
Si Si6 0.721801 0.975127 0.557229
Si Si7 0.777483 0.568064 0.867488
O O1 0.281244 0.280233 0.096462
O O2 0.277641 0.383026 0.095155
O O3 0.000000 0.330078 0.063839
O O4 0.279224 0.333294 0.001284
O O5 0.287385 0.249928 0.804884
O O6 0.272202 0.161480 0.750000
O O7 0.000000 0.222863 0.750000
O O8 0.500000 0.780899 0.648256
O O9 0.212289 0.818119 0.605690
O O10 0.500000 0.085442 0.750000
O O11 0.787622 0.077087 0.693553
O O12 0.500000 0.145558 0.057469
O O13 0.779758 0.084650 0.062506
O O14 0.500000 0.974593 0.556734
O O15 0.778243 0.000000 0.500000
O O16 0.778691 0.014159 0.604766
O O17 0.000000 0.568824 0.867113
#
# Coordination Sequence:
#
# PCOD9468332 Si02
#       7
#    16   8  16   8  16  16  16
#     4  10  17  28  48  72  93 117 149 189 232 273
#     4  10  20  32  45  61  89 129 160 181 218 274
#     4  10  20  32  44  65  95 124 155 189 225 270
#     4  10  18  30  47  69  95 115 144 195 236 262
#     4   9  17  28  44  67  95 124 152 184 228 277
#     4   9  14  24  42  65  92 118 144 179 223 271
#     4   9  16  25  42  69  94 113 142 186 230 266
#
# _framework density 20.651506000000001
#
# number of rings (size 3 to 8) (size 9 to 14) (size 15 to 20)
#    0.000    2.500    3.333    0.500    0.000    0.000 
#    0.000    0.833    0.000    5.000    0.000    5.833 
#    0.000    1.333    0.000    0.000    0.000    0.000 
#
# Total GULP energy -268110.964379 kJ/mol
# GULP energy per Si atom -5585.645091 kJ/mol
# Density = 2.060450 g / cm^3
# Si number density = 20.651506 Si / 1000 Ang^3
#
#
#
# Elastic Constant Matrix: (Units=GPa)
#
#
# Indices 1 2 3 4 5 6 
#
# 1 75.7730 -9.5991 -0.1656 0.0000 0.0000 0.0000
# 2 -9.5991 159.0641 105.8474 0.0000 0.0000 0.0000
# 3 -0.1656 105.8474 199.4211 0.0000 0.0000 0.0000
# 4 0.0000 0.0000 0.0000 40.2076 0.0000 0.0000
# 5 0.0000 0.0000 0.0000 0.0000 -3.4875 0.0000
# 6 0.0000 0.0000 0.0000 0.0000 0.0000 9.6106
#
#
#
# Elastic Compliance Matrix: (Units=1/GPa)
#
#
# Indices 1 2 3 4 5 6 
#
# 1 0.013352 0.001234 -0.000644 0.000000 0.000000 0.000000
# 2 0.001234 0.009834 -0.005219 0.000000 0.000000 0.000000
# 3 -0.000644 -0.005219 0.007784 0.000000 0.000000 0.000000
# 4 0.000000 0.000000 0.000000 0.024871 0.000000 0.000000
# 5 0.000000 0.000000 0.000000 0.000000 -0.286737 0.000000
# 6 0.000000 0.000000 0.000000 0.000000 0.000000 0.104051
#
#
# Mechanical properties :
#
#
# Convention : Reuss Voigt Hill
#
# Bulk Modulus (GPa) = 46.05428 69.60262 57.82845
# Shear Modulus (GPa) = -45.31038 31.81119 -6.74960
#
# Velocity S-wave (km/s) = -4.68915 3.92903 -1.80981
# Velocity P-wave (km/s) = 2.63977 7.37289 4.86781
#
# Compressibility (1/GPa) = 0.02171351
#
# Stress axis : x y z
#
# Youngs Moduli (GPa) = 74.89356 101.68930 128.47136
#
# Poissons Ratio (x) = -0.12552 0.08275
# Poissons Ratio (y) = -0.09245 0.67043
# Poissons Ratio (z) = 0.04824 0.53067
#
# Static dielectric constant tensor:
#      x y z
#    x 1.833430 0.000000 0.000000 
#    y 0.000000 1.685450 0.000000 
#    z 0.000000 0.000000 1.718960 
# 
# From -- ./inp_files/60032.got.cif
#   From: 2010.05.17/outbox.cif.g08.bks.cpg/sg63_31_cif.got.tgz:60032.got - 2010.06.03 15:47:04.
