data_PCOD9468805
_publ_section_title
;
Structure prediction by ZEFSAII (Michael W. Deem and Ramdas Pophale) SiO2 
 PCOD9468805
Probable space group: C M C M
;
_chemical_formula_sum "Si O2"
_cell_formula_units_Z 64
_cell_length_a 9.865305
_cell_length_b 16.170152
_cell_length_c 20.410915
_cell_angle_alpha 90.000000
_cell_angle_beta 90.000000
_cell_angle_gamma 90.000000
_cell_volume 3256.020219
_symmetry_space_group_name_H-M "C M C M"
_symmetry_group_IT_number 63
_symmetry_cell_setting 'orthorhombic'
loop_
_space_group_symop_operation_xyz
x,y,z
-x,-y,1/2+z
x,-y,-z
-x,y,1/2-z
-x,-y,-z
x,y,1/2-z
-x,y,z
x,-y,1/2+z
1/2+x,1/2+y,z
1/2-x,1/2-y,1/2+z
1/2+x,1/2-y,-z
1/2-x,1/2+y,1/2-z
1/2-x,1/2-y,-z
1/2+x,1/2+y,1/2-z
1/2-x,1/2+y,z
1/2+x,1/2-y,1/2+z
loop_
_atom_site_type_symbol
_atom_site_label
_atom_site_fract_x
_atom_site_fract_y
_atom_site_fract_z
Si Si1 0.000000 0.856304 0.359655
Si Si2 0.780441 0.245268 0.923132
Si Si3 0.799245 0.433526 0.750000
Si Si4 0.500000 0.811740 0.099419
Si Si5 0.000000 0.509260 0.647594
Si Si6 0.500000 0.216328 0.250000
Si Si7 0.000000 0.998762 0.250000
Si Si8 0.000000 0.628690 0.053558
O O1 0.131857 0.836111 0.404130
O O2 0.000000 0.779075 0.310023
O O3 0.000000 0.938005 0.314670
O O4 0.635756 0.239911 0.889177
O O5 0.871448 0.325972 0.913233
O O6 0.750000 0.250000 0.000000
O O7 0.869165 0.478571 0.687793
O O8 0.638577 0.447922 0.750000
O O9 0.867358 0.342348 0.750000
O O10 0.500000 0.893181 0.142547
O O11 0.500000 0.846128 0.023278
O O12 0.000000 0.465163 0.576737
#
# Coordination Sequence:
#
# PCOD9468805 Si02
#       8
#     8  16   8   8   8   4   4   8
#     4  10  19  36  55  76 102 138 172 205 252 310
#     4   9  17  30  50  75 102 131 165 205 251 301
#     4  10  20  34  52  74  98 132 166 208 256 294
#     4  10  18  29  51  78  99 125 166 210 243 286
#     4  10  19  34  52  71  98 131 171 205 241 300
#     4   9  20  38  58  71  98 142 182 205 242 308
#     4  11  22  34  54  77 104 132 170 217 260 294
#     4   9  18  33  50  70 101 137 163 194 249 305
#
# _framework density 19.655897
#
# number of rings (size 3 to 8) (size 9 to 14) (size 15 to 20)
#    0.000    2.500    0.000    5.625    0.000    0.000 
#    0.000    5.000    0.000    4.500    0.000   29.750 
#    0.000    0.000    0.000    0.000    0.000    0.000 
#
# Total GULP energy -178238.998233 kJ/mol
# GULP energy per Si atom -5569.968695 kJ/mol
# Density = 1.961116 g / cm^3
# Si number density = 19.655897 Si / 1000 Ang^3
#
#
#
# Elastic Constant Matrix: (Units=GPa)
#
#
# Indices 1 2 3 4 5 6 
#
# 1 172.5844 37.7249 5.4804 0.0000 0.0000 0.0000
# 2 37.7249 70.1468 3.6761 0.0000 0.0000 0.0000
# 3 5.4804 3.6761 62.2330 0.0000 0.0000 0.0000
# 4 0.0000 0.0000 0.0000 19.9048 0.0000 0.0000
# 5 0.0000 0.0000 0.0000 0.0000 12.5075 0.0000
# 6 0.0000 0.0000 0.0000 0.0000 0.0000 1.2978
#
#
#
# Elastic Compliance Matrix: (Units=1/GPa)
#
#
# Indices 1 2 3 4 5 6 
#
# 1 0.006575 -0.003516 -0.000371 0.000000 0.000000 0.000000
# 2 -0.003516 0.016181 -0.000646 0.000000 0.000000 0.000000
# 3 -0.000371 -0.000646 0.016140 0.000000 0.000000 0.000000
# 4 0.000000 0.000000 0.000000 0.050239 0.000000 0.000000
# 5 0.000000 0.000000 0.000000 0.000000 0.079952 0.000000
# 6 0.000000 0.000000 0.000000 0.000000 0.000000 0.770517
#
#
# Mechanical properties :
#
#
# Convention : Reuss Voigt Hill
#
# Bulk Modulus (GPa) = 33.52625 44.30301 38.91463
# Shear Modulus (GPa) = 5.21587 23.94752 14.58170
#
# Velocity S-wave (km/s) = 1.63075 3.49426 2.72664
# Velocity P-wave (km/s) = 4.54306 6.23442 5.45470
#
# Compressibility (1/GPa) = 0.02982738
#
# Stress axis : x y z
#
# Youngs Moduli (GPa) = 152.09803 61.80157 61.95971
#
# Poissons Ratio (x) = 0.21732 0.02300
# Poissons Ratio (y) = 0.53484 0.04003
# Poissons Ratio (z) = 0.05647 0.03993
#
# Static dielectric constant tensor:
#      x y z
#    x 1.734430 0.000000 0.000000 
#    y 0.000000 1.654090 0.000000 
#    z 0.000000 0.000000 1.794690 
# 
# From -- ./inp_files/50438.got.cif
#   From: 2010.05.17/outbox.cif.g08.bks.cpg/sg63_26_cif.got.tgz:50438.got - 2010.06.03 15:47:04.
