data_PCOD9468244
_publ_section_title
;
Structure prediction by ZEFSAII (Michael W. Deem and Ramdas Pophale) SiO2 
 PCOD9468244
Probable space group: C M C M
;
_chemical_formula_sum "Si O2"
_cell_formula_units_Z 112
_cell_length_a 28.621447
_cell_length_b 29.400317
_cell_length_c 7.477856
_cell_angle_alpha 90.000000
_cell_angle_beta 90.000000
_cell_angle_gamma 90.000000
_cell_volume 6292.463386
_symmetry_space_group_name_H-M "C M C M"
_symmetry_group_IT_number 63
_symmetry_cell_setting 'orthorhombic'
loop_
_space_group_symop_operation_xyz
x,y,z
-x,-y,1/2+z
x,-y,-z
-x,y,1/2-z
-x,-y,-z
x,y,1/2-z
-x,y,z
x,-y,1/2+z
1/2+x,1/2+y,z
1/2-x,1/2-y,1/2+z
1/2+x,1/2-y,-z
1/2-x,1/2+y,1/2-z
1/2-x,1/2-y,-z
1/2+x,1/2+y,1/2-z
1/2-x,1/2+y,z
1/2+x,1/2-y,1/2+z
loop_
_atom_site_type_symbol
_atom_site_label
_atom_site_fract_x
_atom_site_fract_y
_atom_site_fract_z
Si Si1 0.603113 0.854112 0.966128
Si Si2 0.260617 0.949055 0.963953
Si Si3 0.214433 0.142275 0.464294
Si Si4 0.801945 0.698700 0.033466
Si Si5 0.632088 0.050931 0.035797
Si Si6 0.144493 0.785643 0.463268
Si Si7 0.052256 0.264174 0.531070
O O1 0.598550 0.854735 0.750000
O O2 0.654907 0.834907 0.005684
O O3 0.602155 0.906087 0.030325
O O4 0.567526 0.815080 0.027153
O O5 0.263722 0.944389 0.750000
O O6 0.228257 0.907923 0.030075
O O7 0.314206 0.945752 0.032469
O O8 0.243420 0.000000 0.000000
O O9 0.218562 0.141157 0.250000
O O10 0.254268 0.176934 0.534407
O O11 0.164463 0.164533 0.502057
O O12 0.798405 0.701096 0.250000
O O13 0.818258 0.748055 0.967047
O O14 0.634594 0.055472 0.250000
O O15 0.614727 0.000000 0.000000
O O16 0.143181 0.779927 0.250000
O O17 0.093346 0.770199 0.527325
O O18 0.052224 0.264112 0.750000
O O19 0.000000 0.253055 0.472467
#
# Coordination Sequence:
#
# PCOD9468244 Si02
#       7
#    16  16  16  16  16  16  16
#     4   8  12  21  38  56  74 101 136 168 199 235
#     4   9  17  27  39  55  77 108 141 168 194 226
#     4  10  17  26  40  56  80 111 136 158 190 235
#     4   8  13  23  37  54  78 107 134 160 190 228
#     4   9  15  24  38  55  75 101 134 170 203 233
#     4   9  17  26  39  60  82 103 130 164 200 232
#     4   8  14  25  42  62  80  99 130 171 205 235
#
# _framework density 17.799071000000001
#
# number of rings (size 3 to 8) (size 9 to 14) (size 15 to 20)
#    0.000    3.286    1.429    2.143    0.000    0.571 
#    0.000    0.000    0.000    4.286    0.000    0.000 
#    0.000    0.571    0.000    1.286    0.000    2.000 
#
# Total GULP energy -311938.421335 kJ/mol
# GULP energy per Si atom -5570.328952 kJ/mol
# Density = 1.775856 g / cm^3
# Si number density = 17.799071 Si / 1000 Ang^3
#
#
#
# Elastic Constant Matrix: (Units=GPa)
#
#
# Indices 1 2 3 4 5 6 
#
# 1 89.8479 51.7804 3.9384 0.0000 0.0000 0.0000
# 2 51.7804 67.0319 1.8523 0.0000 0.0000 0.0000
# 3 3.9384 1.8523 49.1028 0.0000 0.0000 0.0000
# 4 0.0000 0.0000 0.0000 10.8695 0.0000 0.0000
# 5 0.0000 0.0000 0.0000 0.0000 -26.8903 0.0000
# 6 0.0000 0.0000 0.0000 0.0000 0.0000 10.7897
#
#
#
# Elastic Compliance Matrix: (Units=1/GPa)
#
#
# Indices 1 2 3 4 5 6 
#
# 1 0.020112 -0.015508 -0.001028 0.000000 0.000000 0.000000
# 2 -0.015508 0.026891 0.000229 0.000000 0.000000 0.000000
# 3 -0.001028 0.000229 0.020439 0.000000 0.000000 0.000000
# 4 0.000000 0.000000 0.000000 0.092001 0.000000 0.000000
# 5 0.000000 0.000000 0.000000 0.000000 -0.037188 0.000000
# 6 0.000000 0.000000 0.000000 0.000000 0.000000 0.092681
#
#
# Mechanical properties :
#
#
# Convention : Reuss Voigt Hill
#
# Bulk Modulus (GPa) = 28.71108 35.68054 32.19581
# Shear Modulus (GPa) = 19.29314 8.84787 14.07050
#
# Velocity S-wave (km/s) = 3.29590 2.23199 2.81467
# Velocity P-wave (km/s) = 5.53621 5.17032 5.35639
#
# Compressibility (1/GPa) = 0.03482976
#
# Stress axis : x y z
#
# Youngs Moduli (GPa) = 49.72072 37.18673 48.92545
#
# Poissons Ratio (x) = 0.57669 0.05030
# Poissons Ratio (y) = 0.77106 -0.01123
# Poissons Ratio (z) = 0.05112 -0.00853
#
# Static dielectric constant tensor:
#      x y z
#    x 1.593950 0.000000 0.000000 
#    y 0.000000 1.646820 0.000000 
#    z 0.000000 0.000000 1.690660 
# 
# From -- ./inp_files/25166.got.cif
#   From: 2010.05.17/outbox.cif.g08.bks.cpg/sg63_13_cif.got.tgz:25166.got - 2010.06.03 15:47:04.
