data_PCOD9468297
_publ_section_title
;
Structure prediction by ZEFSAII (Michael W. Deem and Ramdas Pophale) SiO2 
 PCOD9468297
Probable space group: C M C M
;
_chemical_formula_sum "Si O2"
_cell_formula_units_Z 80
_cell_length_a 15.050420
_cell_length_b 31.468613
_cell_length_c 8.251419
_cell_angle_alpha 90.000000
_cell_angle_beta 90.000000
_cell_angle_gamma 90.000000
_cell_volume 3908.002761
_symmetry_space_group_name_H-M "C M C M"
_symmetry_group_IT_number 63
_symmetry_cell_setting 'orthorhombic'
loop_
_space_group_symop_operation_xyz
x,y,z
-x,-y,1/2+z
x,-y,-z
-x,y,1/2-z
-x,-y,-z
x,y,1/2-z
-x,y,z
x,-y,1/2+z
1/2+x,1/2+y,z
1/2-x,1/2-y,1/2+z
1/2+x,1/2-y,-z
1/2-x,1/2+y,1/2-z
1/2-x,1/2-y,-z
1/2+x,1/2+y,1/2-z
1/2-x,1/2+y,z
1/2+x,1/2-y,1/2+z
loop_
_atom_site_type_symbol
_atom_site_label
_atom_site_fract_x
_atom_site_fract_y
_atom_site_fract_z
Si Si1 0.000000 0.799982 0.445360
Si Si2 0.500000 0.203245 0.554468
Si Si3 0.352017 0.634342 0.946000
Si Si4 0.353360 0.862572 0.051592
Si Si5 0.138429 0.454850 0.439312
Si Si6 0.158417 0.956203 0.557992
O O1 0.000000 0.751720 0.501419
O O2 0.914374 0.827123 0.498870
O O3 0.000000 0.799870 0.250000
O O4 0.500000 0.202526 0.750000
O O5 0.585719 0.176329 0.498728
O O6 0.353701 0.632023 0.750000
O O7 0.249641 0.641116 0.997242
O O8 0.384205 0.588701 0.011474
O O9 0.354663 0.863365 0.250000
O O10 0.389439 0.908704 0.994564
O O11 0.103694 0.500000 0.500000
O O12 0.120734 0.454193 0.250000
O O13 0.244960 0.455279 0.470633
O O14 0.171992 0.958208 0.750000
O O15 0.113920 0.000000 0.500000
#
# Coordination Sequence:
#
# PCOD9468297 Si02
#       6
#     8   8  16  16  16  16
#     4  10  22  38  55  74  99 128 162 212 265 302
#     4  10  20  36  55  74  98 130 168 208 252 304
#     4   9  18  35  54  73 100 134 168 203 249 299
#     4   8  16  31  52  74  99 133 168 202 244 297
#     4   9  15  26  45  71 103 137 171 204 243 290
#     4  10  17  27  47  76 106 136 169 203 243 291
#
# _framework density 20.470815999999999
#
# number of rings (size 3 to 8) (size 9 to 14) (size 15 to 20)
#    0.000    2.800    0.000    4.800    0.000    1.600 
#    0.000    6.000    0.000    0.000    0.000    0.000 
#    0.000    0.000    0.000    0.000    0.000    0.000 
#
# Total GULP energy -223050.065783 kJ/mol
# GULP energy per Si atom -5576.251645 kJ/mol
# Density = 2.042422 g / cm^3
# Si number density = 20.470816 Si / 1000 Ang^3
#
#
#
# Elastic Constant Matrix: (Units=GPa)
#
#
# Indices 1 2 3 4 5 6 
#
# 1 96.2971 88.5520 13.2925 0.0000 0.0000 0.0000
# 2 88.5520 255.8117 21.8103 0.0000 0.0000 0.0000
# 3 13.2925 21.8103 12.9784 0.0000 0.0000 0.0000
# 4 0.0000 0.0000 0.0000 36.4427 0.0000 0.0000
# 5 0.0000 0.0000 0.0000 0.0000 5.1906 0.0000
# 6 0.0000 0.0000 0.0000 0.0000 0.0000 42.0780
#
#
#
# Elastic Compliance Matrix: (Units=1/GPa)
#
#
# Indices 1 2 3 4 5 6 
#
# 1 0.015955 -0.004820 -0.008240 0.000000 0.000000 0.000000
# 2 -0.004820 0.006019 -0.005178 0.000000 0.000000 0.000000
# 3 -0.008240 -0.005178 0.094193 0.000000 0.000000 0.000000
# 4 0.000000 0.000000 0.000000 0.027440 0.000000 0.000000
# 5 0.000000 0.000000 0.000000 0.000000 0.192654 0.000000
# 6 0.000000 0.000000 0.000000 0.000000 0.000000 0.023765
#
#
# Mechanical properties :
#
#
# Convention : Reuss Voigt Hill
#
# Bulk Modulus (GPa) = 12.54878 68.04409 40.29643
# Shear Modulus (GPa) = 11.81844 32.83775 22.32810
#
# Velocity S-wave (km/s) = 2.40538 4.00950 3.30620
# Velocity P-wave (km/s) = 3.72261 7.39909 5.85681
#
# Compressibility (1/GPa) = 0.07968905
#
# Stress axis : x y z
#
# Youngs Moduli (GPa) = 62.67789 166.13400 10.61651
#
# Poissons Ratio (x) = 0.80082 0.08748
# Poissons Ratio (y) = 0.30213 0.05498
# Poissons Ratio (z) = 0.51647 0.86031
#
# Static dielectric constant tensor:
#      x y z
#    x 1.766360 0.000000 0.000000 
#    y 0.000000 1.749570 0.000000 
#    z 0.000000 0.000000 1.698930 
# 
# From -- ./inp_files/6517.got.cif
#   From: 2010.05.17/outbox.cif.g08.bks.cpg/sg63_4_cif.got.tgz:6517.got - 2010.06.03 15:47:04.
