data_PCOD9468843
_publ_section_title
;
Structure prediction by ZEFSAII (Michael W. Deem and Ramdas Pophale) SiO2 
 PCOD9468843
Probable space group: C M C M
;
_chemical_formula_sum "Si O2"
_cell_formula_units_Z 88
_cell_length_a 21.274048
_cell_length_b 25.088048
_cell_length_c 8.737836
_cell_angle_alpha 90.000000
_cell_angle_beta 90.000000
_cell_angle_gamma 90.000000
_cell_volume 4663.595729
_symmetry_space_group_name_H-M "C M C M"
_symmetry_group_IT_number 63
_symmetry_cell_setting 'orthorhombic'
loop_
_space_group_symop_operation_xyz
x,y,z
-x,-y,1/2+z
x,-y,-z
-x,y,1/2-z
-x,-y,-z
x,y,1/2-z
-x,y,z
x,-y,1/2+z
1/2+x,1/2+y,z
1/2-x,1/2-y,1/2+z
1/2+x,1/2-y,-z
1/2-x,1/2+y,1/2-z
1/2-x,1/2-y,-z
1/2+x,1/2+y,1/2-z
1/2-x,1/2+y,z
1/2+x,1/2-y,1/2+z
loop_
_atom_site_type_symbol
_atom_site_label
_atom_site_fract_x
_atom_site_fract_y
_atom_site_fract_z
Si Si1 0.500000 0.939539 0.066898
Si Si2 0.628246 0.940249 0.932526
Si Si3 0.196902 0.214463 0.923264
Si Si4 0.615126 0.555626 0.067545
Si Si5 0.756872 0.092628 0.574286
Si Si6 0.929361 0.167656 0.935392
O O1 0.500000 0.941331 0.250000
O O2 0.564688 0.915472 0.003313
O O3 0.500000 0.000000 0.000000
O O4 0.623341 0.942296 0.750000
O O5 0.691322 0.912013 0.987593
O O6 0.633164 0.000000 0.000000
O O7 0.189669 0.234323 0.750000
O O8 0.222267 0.154012 0.920835
O O9 0.126607 0.206752 0.990616
O O10 0.250000 0.250000 0.000000
O O11 0.611758 0.554856 0.250000
O O12 0.590143 0.500000 0.000000
O O13 0.687369 0.561811 0.011416
O O14 0.581498 0.608573 0.002988
O O15 0.751066 0.073216 0.750000
O O16 0.922923 0.163455 0.750000
O O17 0.000000 0.185642 0.970738
#
# Coordination Sequence:
#
# PCOD9468843 Si02
#       6
#     8  16  16  16  16  16
#     4  10  18  30  46  66  94 132 172 210 252 306
#     4  11  20  31  48  72 101 135 174 215 260 312
#     4   9  19  35  58  82 104 133 171 218 270 322
#     4  11  21  33  50  76 110 146 182 220 262 310
#     4  10  20  35  52  74 102 136 176 218 267 315
#     4   9  19  37  58  80 108 143 182 222 267 319
#
# _framework density 18.86956
#
# number of rings (size 3 to 8) (size 9 to 14) (size 15 to 20)
#    0.000    2.000    0.000    7.364    0.000    4.364 
#    0.000    0.000    2.000    0.000    0.000    0.000 
#    0.000    0.000    0.000    0.000    0.000    0.000 
#
# Total GULP energy -245482.190928 kJ/mol
# GULP energy per Si atom -5579.140703 kJ/mol
# Density = 1.882661 g / cm^3
# Si number density = 18.869560 Si / 1000 Ang^3
#
#
#
# Elastic Constant Matrix: (Units=GPa)
#
#
# Indices 1 2 3 4 5 6 
#
# 1 158.6695 24.6196 43.6202 0.0000 0.0000 0.0000
# 2 24.6196 40.4583 10.7875 0.0000 0.0000 0.0000
# 3 43.6202 10.7875 112.8124 0.0000 0.0000 0.0000
# 4 0.0000 0.0000 0.0000 24.6582 0.0000 0.0000
# 5 0.0000 0.0000 0.0000 0.0000 28.7989 0.0000
# 6 0.0000 0.0000 0.0000 0.0000 0.0000 10.7133
#
#
#
# Elastic Compliance Matrix: (Units=1/GPa)
#
#
# Indices 1 2 3 4 5 6 
#
# 1 0.007622 -0.003953 -0.002569 0.000000 0.000000 0.000000
# 2 -0.003953 0.027414 -0.001093 0.000000 0.000000 0.000000
# 3 -0.002569 -0.001093 0.009962 0.000000 0.000000 0.000000
# 4 0.000000 0.000000 0.000000 0.040554 0.000000 0.000000
# 5 0.000000 0.000000 0.000000 0.000000 0.034724 0.000000
# 6 0.000000 0.000000 0.000000 0.000000 0.000000 0.093342
#
#
# Mechanical properties :
#
#
# Convention : Reuss Voigt Hill
#
# Bulk Modulus (GPa) = 33.59349 52.22163 42.90756
# Shear Modulus (GPa) = 20.94055 28.36161 24.65108
#
# Velocity S-wave (km/s) = 3.33491 3.88111 3.61833
# Velocity P-wave (km/s) = 5.71581 6.91514 6.34388
#
# Compressibility (1/GPa) = 0.02976767
#
# Stress axis : x y z
#
# Youngs Moduli (GPa) = 131.19777 36.47807 100.37971
#
# Poissons Ratio (x) = 0.14420 0.25789
# Poissons Ratio (y) = 0.51864 0.10970
# Poissons Ratio (z) = 0.33707 0.03987
#
# Static dielectric constant tensor:
#      x y z
#    x 1.719290 0.000000 0.000000 
#    y 0.000000 1.642830 0.000000 
#    z 0.000000 0.000000 1.647760 
# 
# From -- ./inp_files/8181.got.cif
#   From: 2010.05.17/outbox.cif.g08.bks.cpg/sg63_5_cif.got.tgz:8181.got - 2010.06.03 15:47:04.
