data_PCOD9468173
_publ_section_title
;
Structure prediction by ZEFSAII (Michael W. Deem and Ramdas Pophale) SiO2 
 PCOD9468173
Probable space group: C M C M
;
_chemical_formula_sum "Si O2"
_cell_formula_units_Z 72
_cell_length_a 14.155311
_cell_length_b 13.624154
_cell_length_c 15.905387
_cell_angle_alpha 90.000000
_cell_angle_beta 90.000000
_cell_angle_gamma 90.000000
_cell_volume 3067.419683
_symmetry_space_group_name_H-M "C M C M"
_symmetry_group_IT_number 63
_symmetry_cell_setting 'orthorhombic'
loop_
_space_group_symop_operation_xyz
x,y,z
-x,-y,1/2+z
x,-y,-z
-x,y,1/2-z
-x,-y,-z
x,y,1/2-z
-x,y,z
x,-y,1/2+z
1/2+x,1/2+y,z
1/2-x,1/2-y,1/2+z
1/2+x,1/2-y,-z
1/2-x,1/2+y,1/2-z
1/2-x,1/2-y,-z
1/2+x,1/2+y,1/2-z
1/2-x,1/2+y,z
1/2+x,1/2-y,1/2+z
loop_
_atom_site_type_symbol
_atom_site_label
_atom_site_fract_x
_atom_site_fract_y
_atom_site_fract_z
Si Si1 0.342766 0.272377 0.559928
Si Si2 0.391817 0.066857 0.750000
Si Si3 0.693296 0.715068 0.250000
Si Si4 0.400063 0.250757 0.250000
Si Si5 0.601630 0.398397 0.091443
Si Si6 0.820441 0.552910 0.915037
O O1 0.250000 0.250000 0.500000
O O2 0.338393 0.316138 0.655304
O O3 0.398920 0.342355 0.497907
O O4 0.369180 0.159973 0.577129
O O5 0.500000 0.098060 0.750000
O O6 0.326176 0.165988 0.750000
O O7 0.365683 0.007864 0.832795
O O8 0.803621 0.693975 0.250000
O O9 0.500000 0.196731 0.250000
O O10 0.396943 0.320029 0.332515
O O11 0.500000 0.452429 0.099987
O O12 0.705829 0.446548 0.094948
O O13 0.842117 0.500000 0.000000
#
# Coordination Sequence:
#
# PCOD9468173 Si02
#       6
#    16   8   8   8  16  16
#     4   9  17  31  51  77 107 140 174 215 255 311
#     4  10  20  36  54  73 102 142 187 219 254 316
#     4  10  16  32  53  76 104 138 185 216 260 313
#     4  10  16  28  55  83 106 134 176 221 264 321
#     4  10  19  34  57  84 110 138 175 218 269 323
#     4  10  20  36  56  80 107 140 176 222 268 312
#
# _framework density 23.472498000000002
#
# number of rings (size 3 to 8) (size 9 to 14) (size 15 to 20)
#    0.000    2.222    6.667    0.000    0.000    4.444 
#    0.000    5.556    0.000    1.333    0.000    0.000 
#    0.000    0.000    0.000    0.000    0.000    0.000 
#
# Total GULP energy -200409.537893 kJ/mol
# GULP energy per Si atom -5566.931608 kJ/mol
# Density = 2.341907 g / cm^3
# Si number density = 23.472498 Si / 1000 Ang^3
#
#
#
# Elastic Constant Matrix: (Units=GPa)
#
#
# Indices 1 2 3 4 5 6 
#
# 1 94.7611 12.7570 35.2873 0.0000 0.0000 0.0000
# 2 12.7570 24.4724 12.0053 0.0000 0.0000 0.0000
# 3 35.2873 12.0053 221.8756 0.0000 0.0000 0.0000
# 4 0.0000 0.0000 0.0000 20.4832 0.0000 0.0000
# 5 0.0000 0.0000 0.0000 0.0000 46.1048 0.0000
# 6 0.0000 0.0000 0.0000 0.0000 0.0000 7.0692
#
#
#
# Elastic Compliance Matrix: (Units=1/GPa)
#
#
# Indices 1 2 3 4 5 6 
#
# 1 0.011875 -0.005407 -0.001596 0.000000 0.000000 0.000000
# 2 -0.005407 0.044439 -0.001545 0.000000 0.000000 0.000000
# 3 -0.001596 -0.001545 0.004844 0.000000 0.000000 0.000000
# 4 0.000000 0.000000 0.000000 0.048821 0.000000 0.000000
# 5 0.000000 0.000000 0.000000 0.000000 0.021690 0.000000
# 6 0.000000 0.000000 0.000000 0.000000 0.000000 0.141459
#
#
# Mechanical properties :
#
#
# Convention : Reuss Voigt Hill
#
# Bulk Modulus (GPa) = 22.69501 51.24537 36.97019
# Shear Modulus (GPa) = 16.39823 33.46873 24.93348
#
# Velocity S-wave (km/s) = 2.64600 3.78017 3.26274
# Velocity P-wave (km/s) = 4.36175 6.39784 5.47527
#
# Compressibility (1/GPa) = 0.04406255
#
# Stress axis : x y z
#
# Youngs Moduli (GPa) = 84.20953 22.50289 206.42221
#
# Poissons Ratio (x) = 0.12168 0.32946
# Poissons Ratio (y) = 0.45535 0.31882
# Poissons Ratio (z) = 0.13440 0.03476
#
# Static dielectric constant tensor:
#      x y z
#    x 1.911990 0.000000 0.000000 
#    y 0.000000 1.953430 0.000000 
#    z 0.000000 0.000000 2.017550 
# 
# From -- ./inp_files/31501.got.cif
#   From: 2010.05.17/outbox.cif.g08.bks.cpg/sg63_16_cif.got.tgz:31501.got - 2010.06.03 15:47:04.
