data_PCOD9468133
_publ_section_title
;
Structure prediction by ZEFSAII (Michael W. Deem and Ramdas Pophale) SiO2 
 PCOD9468133
Probable space group: C M C M
;
_chemical_formula_sum "Si O2"
_cell_formula_units_Z 128
_cell_length_a 13.916928
_cell_length_b 23.284872
_cell_length_c 17.007049
_cell_angle_alpha 90.000000
_cell_angle_beta 90.000000
_cell_angle_gamma 90.000000
_cell_volume 5511.200337
_symmetry_space_group_name_H-M "C M C M"
_symmetry_group_IT_number 63
_symmetry_cell_setting 'orthorhombic'
loop_
_space_group_symop_operation_xyz
x,y,z
-x,-y,1/2+z
x,-y,-z
-x,y,1/2-z
-x,-y,-z
x,y,1/2-z
-x,y,z
x,-y,1/2+z
1/2+x,1/2+y,z
1/2-x,1/2-y,1/2+z
1/2+x,1/2-y,-z
1/2-x,1/2+y,1/2-z
1/2-x,1/2-y,-z
1/2+x,1/2+y,1/2-z
1/2-x,1/2+y,z
1/2+x,1/2-y,1/2+z
loop_
_atom_site_type_symbol
_atom_site_label
_atom_site_fract_x
_atom_site_fract_y
_atom_site_fract_z
Si Si1 0.129639 0.685330 0.340972
Si Si2 0.394414 0.895768 0.426033
Si Si3 0.139745 0.829510 0.838391
Si Si4 0.681376 0.425064 0.415224
Si Si5 0.819672 0.050734 0.102430
Si Si6 0.100622 0.438103 0.596461
Si Si7 0.851401 0.191099 0.842579
Si Si8 0.674382 0.771206 0.433126
O O1 0.102969 0.684452 0.250000
O O2 0.244707 0.677372 0.343312
O O3 0.093857 0.628625 0.380900
O O4 0.103164 0.748680 0.371021
O O5 0.500000 0.898169 0.386775
O O6 0.292926 0.915087 0.387974
O O7 0.397910 0.936672 0.502215
O O8 0.379399 0.829764 0.455104
O O9 0.108723 0.815705 0.750000
O O10 0.125912 0.896779 0.856162
O O11 0.111179 0.782075 0.902892
O O12 0.681684 0.431072 0.510091
O O13 0.641746 0.486343 0.386664
O O14 0.627225 0.367616 0.387866
O O15 0.706448 0.045197 0.126131
O O16 0.000000 0.466134 0.623944
O O17 0.868902 0.184306 0.750000
O O18 0.739534 0.205789 0.860052
O O19 0.750000 0.750000 0.500000
#
# Coordination Sequence:
#
# PCOD9468133 Si02
#       8
#    16  16  16  16  16  16  16  16
#     4   8  14  24  37  54  75  98 128 167 210 253
#     4   9  17  27  40  60  85 113 145 180 213 250
#     4   9  16  26  41  60  80 102 133 177 223 257
#     4   9  17  28  42  57  81 113 145 175 207 247
#     4   9  17  28  40  59  82 110 145 179 208 242
#     4   9  16  25  37  55  80 109 139 169 204 243
#     4   9  16  26  41  59  77 101 134 172 213 251
#     4  10  16  26  45  63  81 107 140 179 221 263
#
# _framework density 23.225429999999999
#
# number of rings (size 3 to 8) (size 9 to 14) (size 15 to 20)
#    0.000    3.000    0.000    4.875    0.000    1.250 
#    0.000    2.500    0.000    9.375    0.000    5.250 
#    0.000    1.000    0.000   17.750    0.000    7.125 
#
# Total GULP energy -356283.255844 kJ/mol
# GULP energy per Si atom -5566.925873 kJ/mol
# Density = 2.317257 g / cm^3
# Si number density = 23.225430 Si / 1000 Ang^3
#
#
#
# Elastic Constant Matrix: (Units=GPa)
#
#
# Indices 1 2 3 4 5 6 
#
# 1 58.6909 -0.6200 -1.2561 0.0000 0.0000 0.0000
# 2 -0.6200 206.4719 33.5515 0.0000 0.0000 0.0000
# 3 -1.2561 33.5515 40.1684 0.0000 0.0000 0.0000
# 4 0.0000 0.0000 0.0000 20.3927 0.0000 0.0000
# 5 0.0000 0.0000 0.0000 0.0000 -55.8972 0.0000
# 6 0.0000 0.0000 0.0000 0.0000 0.0000 -79.0658
#
#
#
# Elastic Compliance Matrix: (Units=1/GPa)
#
#
# Indices 1 2 3 4 5 6 
#
# 1 0.017050 -0.000041 0.000567 0.000000 0.000000 0.000000
# 2 -0.000041 0.005604 -0.004682 0.000000 0.000000 0.000000
# 3 0.000567 -0.004682 0.028824 0.000000 0.000000 0.000000
# 4 0.000000 0.000000 0.000000 0.049037 0.000000 0.000000
# 5 0.000000 0.000000 0.000000 0.000000 -0.017890 0.000000
# 6 0.000000 0.000000 0.000000 0.000000 0.000000 -0.012648
#
#
# Mechanical properties :
#
#
# Convention : Reuss Voigt Hill
#
# Bulk Modulus (GPa) = 23.16613 40.96466 32.06540
# Shear Modulus (GPa) = 53.95039 -4.67034 24.64003
#
# Velocity S-wave (km/s) = 4.82488 -1.41959 3.26069
# Velocity P-wave (km/s) = 6.40589 3.87158 5.29266
#
# Compressibility (1/GPa) = 0.04316647
#
# Stress axis : x y z
#
# Youngs Moduli (GPa) = 58.65059 178.44410 34.69354
#
# Poissons Ratio (x) = 0.00732 -0.01969
# Poissons Ratio (y) = 0.00240 0.16244
# Poissons Ratio (z) = -0.03328 0.83550
#
# Static dielectric constant tensor:
#      x y z
#    x 1.938010 0.000000 0.000000 
#    y 0.000000 1.933280 0.000000 
#    z 0.000000 0.000000 1.862490 
# 
# From -- ./inp_files/47582.got.cif
#   From: 2010.05.17/outbox.cif.g08.bks.cpg/sg63_24_cif.got.tgz:47582.got - 2010.06.03 15:47:04.
