data_PCOD9468899
_publ_section_title
;
Structure prediction by ZEFSAII (Michael W. Deem and Ramdas Pophale) SiO2 
 PCOD9468899
Probable space group: C M C M
;
_chemical_formula_sum "Si O2"
_cell_formula_units_Z 80
_cell_length_a 7.863610
_cell_length_b 20.006685
_cell_length_c 27.011650
_cell_angle_alpha 90.000000
_cell_angle_beta 90.000000
_cell_angle_gamma 90.000000
_cell_volume 4249.601576
_symmetry_space_group_name_H-M "C M C M"
_symmetry_group_IT_number 63
_symmetry_cell_setting 'orthorhombic'
loop_
_space_group_symop_operation_xyz
x,y,z
-x,-y,1/2+z
x,-y,-z
-x,y,1/2-z
-x,-y,-z
x,y,1/2-z
-x,y,z
x,-y,1/2+z
1/2+x,1/2+y,z
1/2-x,1/2-y,1/2+z
1/2+x,1/2-y,-z
1/2-x,1/2+y,1/2-z
1/2-x,1/2-y,-z
1/2+x,1/2+y,1/2-z
1/2-x,1/2+y,z
1/2+x,1/2-y,1/2+z
loop_
_atom_site_type_symbol
_atom_site_label
_atom_site_fract_x
_atom_site_fract_y
_atom_site_fract_z
Si Si1 0.707779 0.578702 0.554600
Si Si2 0.693665 0.665990 0.750000
Si Si3 0.307528 0.685945 0.250000
Si Si4 0.208916 0.824825 0.357754
Si Si5 0.704795 0.425453 0.556619
Si Si6 0.798495 0.328899 0.854289
O O1 0.500000 0.579717 0.555028
O O2 0.765417 0.629499 0.596814
O O3 0.760634 0.502180 0.564664
O O4 0.762001 0.595880 0.498532
O O5 0.500000 0.640914 0.750000
O O6 0.692627 0.747388 0.750000
O O7 0.768573 0.649203 0.696247
O O8 0.500000 0.710820 0.250000
O O9 0.275763 0.648373 0.301358
O O10 0.262199 0.747444 0.363385
O O11 0.000000 0.825439 0.356771
O O12 0.500000 0.426482 0.555583
O O13 0.757917 0.376544 0.600168
O O14 0.000000 0.326180 0.848380
#
# Coordination Sequence:
#
# PCOD9468899 Si02
#       6
#    16   8   8  16  16  16
#     4   8  15  29  47  66  92 126 163 200 234 272
#     4   8  14  26  45  68  93 119 147 185 235 282
#     4  10  18  30  49  70  93 121 153 187 225 276
#     4   8  14  26  45  67  90 120 156 191 231 280
#     4   9  17  30  48  68  92 125 162 199 236 273
#     4  10  19  31  48  70  96 122 150 190 236 281
#
# _framework density 18.825292999999999
#
# number of rings (size 3 to 8) (size 9 to 14) (size 15 to 20)
#    0.000    3.200    0.000    3.900    0.000    0.800 
#    0.000    3.000    0.000   14.400    0.000    0.000 
#    0.000    0.000    0.000    0.000    0.000    0.000 
#
# Total GULP energy -222787.646446 kJ/mol
# GULP energy per Si atom -5569.691161 kJ/mol
# Density = 1.878245 g / cm^3
# Si number density = 18.825293 Si / 1000 Ang^3
#
#
#
# Elastic Constant Matrix: (Units=GPa)
#
#
# Indices 1 2 3 4 5 6 
#
# 1 30.2978 9.1544 14.1140 0.0000 0.0000 0.0000
# 2 9.1544 73.3670 104.2599 0.0000 0.0000 0.0000
# 3 14.1140 104.2599 225.2621 0.0000 0.0000 0.0000
# 4 0.0000 0.0000 0.0000 -29.6062 0.0000 0.0000
# 5 0.0000 0.0000 0.0000 0.0000 18.1047 0.0000
# 6 0.0000 0.0000 0.0000 0.0000 0.0000 8.5334
#
#
#
# Elastic Compliance Matrix: (Units=1/GPa)
#
#
# Indices 1 2 3 4 5 6 
#
# 1 0.034317 -0.003583 -0.000492 0.000000 0.000000 0.000000
# 2 -0.003583 0.040196 -0.018380 0.000000 0.000000 0.000000
# 3 -0.000492 -0.018380 0.012977 0.000000 0.000000 0.000000
# 4 0.000000 0.000000 0.000000 -0.033777 0.000000 0.000000
# 5 0.000000 0.000000 0.000000 0.000000 0.055234 0.000000
# 6 0.000000 0.000000 0.000000 0.000000 0.000000 0.117187
#
#
# Mechanical properties :
#
#
# Convention : Reuss Voigt Hill
#
# Bulk Modulus (GPa) = 23.48456 64.88708 44.18582
# Shear Modulus (GPa) = 17.52918 12.83296 15.18107
#
# Velocity S-wave (km/s) = 3.05479 2.61375 2.84283
# Velocity P-wave (km/s) = 4.99443 6.60695 5.85646
#
# Compressibility (1/GPa) = 0.04258116
#
# Stress axis : x y z
#
# Youngs Moduli (GPa) = 29.13977 24.87782 77.05922
#
# Poissons Ratio (x) = 0.08914 0.03790
# Poissons Ratio (y) = 0.10441 1.41634
# Poissons Ratio (z) = 0.01433 0.45725
#
# Static dielectric constant tensor:
#      x y z
#    x 1.695020 0.000000 0.000000 
#    y 0.000000 1.622000 0.000000 
#    z 0.000000 0.000000 1.682960 
# 
# From -- ./inp_files/59497.got.cif
#   From: 2010.05.17/outbox.cif.g08.bks.cpg/sg63_30_cif.got.tgz:59497.got - 2010.06.03 15:47:04.
