data_PCOD9468174
_publ_section_title
;
Structure prediction by ZEFSAII (Michael W. Deem and Ramdas Pophale) SiO2 
 PCOD9468174
Probable space group: C M C M
;
_chemical_formula_sum "Si O2"
_cell_formula_units_Z 68
_cell_length_a 21.277486
_cell_length_b 7.783310
_cell_length_c 20.261422
_cell_angle_alpha 90.000000
_cell_angle_beta 90.000000
_cell_angle_gamma 90.000000
_cell_volume 3355.479298
_symmetry_space_group_name_H-M "C M C M"
_symmetry_group_IT_number 63
_symmetry_cell_setting 'orthorhombic'
loop_
_space_group_symop_operation_xyz
x,y,z
-x,-y,1/2+z
x,-y,-z
-x,y,1/2-z
-x,-y,-z
x,y,1/2-z
-x,y,z
x,-y,1/2+z
1/2+x,1/2+y,z
1/2-x,1/2-y,1/2+z
1/2+x,1/2-y,-z
1/2-x,1/2+y,1/2-z
1/2-x,1/2-y,-z
1/2+x,1/2+y,1/2-z
1/2-x,1/2+y,z
1/2+x,1/2-y,1/2+z
loop_
_atom_site_type_symbol
_atom_site_label
_atom_site_fract_x
_atom_site_fract_y
_atom_site_fract_z
Si Si1 0.072908 0.801388 0.134530
Si Si2 0.843145 0.704625 0.250000
Si Si3 0.105496 0.195033 0.152111
Si Si4 0.427294 0.795927 0.010213
Si Si5 0.706030 0.595222 0.250000
Si Si6 0.000000 0.323951 0.250000
O O1 0.113951 0.691046 0.185141
O O2 0.094211 0.785654 0.058812
O O3 0.000000 0.747223 0.138129
O O4 0.078299 0.999928 0.155829
O O5 0.780640 0.594282 0.250000
O O6 0.817098 0.899498 0.250000
O O7 0.172972 0.186387 0.187475
O O8 0.055602 0.307678 0.192590
O O9 0.108968 0.247248 0.076105
O O10 0.500000 0.740441 0.020748
O O11 0.426492 0.000000 0.000000
#
# Coordination Sequence:
#
# PCOD9468174 Si02
#       6
#    16   8  16  16   8   4
#     4  10  19  33  60  84 106 141 181 233 270 311
#     4  10  21  38  55  81 112 140 187 225 271 326
#     4  10  18  33  57  82 108 139 187 219 270 317
#     4  10  20  33  50  81 119 145 172 220 281 331
#     4   9  22  35  56  79 108 148 179 227 268 327
#     4  10  16  28  56  80 102 134 172 230 252 304
#
# _framework density 20.265360999999999
#
# number of rings (size 3 to 8) (size 9 to 14) (size 15 to 20)
#    0.000    2.118    2.353    1.765    0.000    3.765 
#    0.000    2.353    0.000    0.000    0.000    0.000 
#    0.000    0.000    0.000    0.000    0.000    0.000 
#
# Total GULP energy -189450.655786 kJ/mol
# GULP energy per Si atom -5572.078111 kJ/mol
# Density = 2.021924 g / cm^3
# Si number density = 20.265361 Si / 1000 Ang^3
#
#
#
# Elastic Constant Matrix: (Units=GPa)
#
#
# Indices 1 2 3 4 5 6 
#
# 1 77.6216 16.9573 62.5010 0.0000 0.0000 0.0000
# 2 16.9573 41.0360 13.7951 0.0000 0.0000 0.0000
# 3 62.5010 13.7951 173.5636 0.0000 0.0000 0.0000
# 4 0.0000 0.0000 0.0000 -4.2766 0.0000 0.0000
# 5 0.0000 0.0000 0.0000 0.0000 14.2964 0.0000
# 6 0.0000 0.0000 0.0000 0.0000 0.0000 20.3432
#
#
#
# Elastic Compliance Matrix: (Units=1/GPa)
#
#
# Indices 1 2 3 4 5 6 
#
# 1 0.019412 -0.005827 -0.006527 0.000000 0.000000 0.000000
# 2 -0.005827 0.026787 -0.000031 0.000000 0.000000 0.000000
# 3 -0.006527 -0.000031 0.008114 0.000000 0.000000 0.000000
# 4 0.000000 0.000000 0.000000 -0.233828 0.000000 0.000000
# 5 0.000000 0.000000 0.000000 0.000000 0.069948 0.000000
# 6 0.000000 0.000000 0.000000 0.000000 0.000000 0.049156
#
#
# Mechanical properties :
#
#
# Convention : Reuss Voigt Hill
#
# Bulk Modulus (GPa) = 33.84866 53.19200 43.52033
# Shear Modulus (GPa) = -193.85444 19.33710 -87.25867
#
# Velocity S-wave (km/s) = -9.79110 3.09236 -6.56898
# Velocity P-wave (km/s) = 10.53954 6.24940 6.00112
#
# Compressibility (1/GPa) = 0.02954327
#
# Stress axis : x y z
#
# Youngs Moduli (GPa) = 51.51549 37.33129 123.23717
#
# Poissons Ratio (x) = 0.21754 0.80438
# Poissons Ratio (y) = 0.30020 0.00378
# Poissons Ratio (z) = 0.33624 0.00114
#
# Static dielectric constant tensor:
#      x y z
#    x 1.687010 0.000000 0.000000 
#    y 0.000000 1.787540 0.000000 
#    z 0.000000 0.000000 1.717670 
# 
# From -- ./inp_files/46672.got.cif
#   From: 2010.05.17/outbox.cif.g08.bks.cpg/sg63_24_cif.got.tgz:46672.got - 2010.06.03 15:47:04.
