data_PCOD9468770
_publ_section_title
;
Structure prediction by ZEFSAII (Michael W. Deem and Ramdas Pophale) SiO2 
 PCOD9468770
Probable space group: C M C M
;
_chemical_formula_sum "Si O2"
_cell_formula_units_Z 104
_cell_length_a 24.352730
_cell_length_b 8.027932
_cell_length_c 24.171051
_cell_angle_alpha 90.000000
_cell_angle_beta 90.000000
_cell_angle_gamma 90.000000
_cell_volume 4725.490274
_symmetry_space_group_name_H-M "C M C M"
_symmetry_group_IT_number 63
_symmetry_cell_setting 'orthorhombic'
loop_
_space_group_symop_operation_xyz
x,y,z
-x,-y,1/2+z
x,-y,-z
-x,y,1/2-z
-x,-y,-z
x,y,1/2-z
-x,y,z
x,-y,1/2+z
1/2+x,1/2+y,z
1/2-x,1/2-y,1/2+z
1/2+x,1/2-y,-z
1/2-x,1/2+y,1/2-z
1/2-x,1/2-y,-z
1/2+x,1/2+y,1/2-z
1/2-x,1/2+y,z
1/2+x,1/2-y,1/2+z
loop_
_atom_site_type_symbol
_atom_site_label
_atom_site_fract_x
_atom_site_fract_y
_atom_site_fract_z
Si Si1 0.118789 0.898762 0.313386
Si Si2 0.657795 0.000000 0.500000
Si Si3 0.231966 0.900802 0.689252
Si Si4 0.559093 0.769165 0.516917
Si Si5 0.678613 0.215299 0.902296
Si Si6 0.085767 0.065761 0.081147
Si Si7 0.640283 0.983687 0.687098
O O1 0.101170 0.916718 0.250000
O O2 0.117860 0.701261 0.327063
O O3 0.182123 0.966115 0.315549
O O4 0.083640 0.012421 0.354922
O O5 0.613728 0.874109 0.527309
O O6 0.691370 0.908077 0.452264
O O7 0.223115 0.819438 0.750000
O O8 0.225950 0.779417 0.637273
O O9 0.293698 0.963525 0.689390
O O10 0.500000 0.843242 0.532414
O O11 0.558296 0.718257 0.451812
O O12 0.566839 0.598235 0.549646
O O13 0.649180 0.379081 0.926627
O O14 0.635017 0.123078 0.860537
O O15 0.621832 0.027448 0.750000
#
# Coordination Sequence:
#
# PCOD9468770 Si02
#       7
#    16   8  16  16  16  16  16
#     4   9  17  28  44  68  97 128 161 201 251 300
#     4  10  21  34  52  80 106 130 158 200 258 312
#     4   9  17  30  48  70  96 131 176 218 248 279
#     4  10  19  35  58  78  96 120 160 209 252 299
#     4  10  19  31  47  71 104 137 168 206 252 299
#     4   9  18  31  49  73  98 128 162 200 248 302
#     4  10  18  29  48  72  98 131 174 219 251 276
#
# _framework density 22.008298
#
# number of rings (size 3 to 8) (size 9 to 14) (size 15 to 20)
#    0.000    2.462    0.000    3.462    0.000    3.077 
#    0.000    0.769    0.000   11.077    0.000    0.000 
#    0.000   12.308    0.000    0.000    0.000    0.000 
#
# Total GULP energy -289559.041181 kJ/mol
# GULP energy per Si atom -5568.443100 kJ/mol
# Density = 2.195821 g / cm^3
# Si number density = 22.008298 Si / 1000 Ang^3
#
#
#
# Elastic Constant Matrix: (Units=GPa)
#
#
# Indices 1 2 3 4 5 6 
#
# 1 30.6426 -0.7833 19.5482 0.0000 0.0000 0.0000
# 2 -0.7833 56.6832 17.7857 0.0000 0.0000 0.0000
# 3 19.5482 17.7857 86.5511 0.0000 0.0000 0.0000
# 4 0.0000 0.0000 0.0000 36.4583 0.0000 0.0000
# 5 0.0000 0.0000 0.0000 0.0000 10.4484 0.0000
# 6 0.0000 0.0000 0.0000 0.0000 0.0000 38.1965
#
#
#
# Elastic Compliance Matrix: (Units=1/GPa)
#
#
# Indices 1 2 3 4 5 6 
#
# 1 0.038770 0.003510 -0.009478 0.000000 0.000000 0.000000
# 2 0.003510 0.019176 -0.004733 0.000000 0.000000 0.000000
# 3 -0.009478 -0.004733 0.014667 0.000000 0.000000 0.000000
# 4 0.000000 0.000000 0.000000 0.027429 0.000000 0.000000
# 5 0.000000 0.000000 0.000000 0.000000 0.095709 0.000000
# 6 0.000000 0.000000 0.000000 0.000000 0.000000 0.026180
#
#
# Mechanical properties :
#
#
# Convention : Reuss Voigt Hill
#
# Bulk Modulus (GPa) = 19.52725 27.44200 23.48463
# Shear Modulus (GPa) = 19.20098 26.17572 22.68835
#
# Velocity S-wave (km/s) = 2.95692 3.45245 3.21425
# Velocity P-wave (km/s) = 4.53318 5.32809 4.94663
#
# Compressibility (1/GPa) = 0.05121048
#
# Stress axis : x y z
#
# Youngs Moduli (GPa) = 25.79291 52.14980 68.17970
#
# Poissons Ratio (x) = -0.18303 0.64619
# Poissons Ratio (y) = -0.09052 0.32270
# Poissons Ratio (z) = 0.24446 0.24683
#
# Static dielectric constant tensor:
#      x y z
#    x 1.803250 0.000000 0.000000 
#    y 0.000000 1.909730 0.000000 
#    z 0.000000 0.000000 1.872560 
# 
# From -- ./inp_files/58526.got.cif
#   From: 2010.05.17/outbox.cif.g08.bks.cpg/sg63_30_cif.got.tgz:58526.got - 2010.06.03 15:47:04.
