data_PCOD9468943
_publ_section_title
;
Structure prediction by ZEFSAII (Michael W. Deem and Ramdas Pophale) SiO2 
 PCOD9468943
Probable space group: C M C M
;
_chemical_formula_sum "Si O2"
_cell_formula_units_Z 72
_cell_length_a 15.650328
_cell_length_b 29.182898
_cell_length_c 8.675387
_cell_angle_alpha 90.000000
_cell_angle_beta 90.000000
_cell_angle_gamma 90.000000
_cell_volume 3962.239457
_symmetry_space_group_name_H-M "C M C M"
_symmetry_group_IT_number 63
_symmetry_cell_setting 'orthorhombic'
loop_
_space_group_symop_operation_xyz
x,y,z
-x,-y,1/2+z
x,-y,-z
-x,y,1/2-z
-x,-y,-z
x,y,1/2-z
-x,y,z
x,-y,1/2+z
1/2+x,1/2+y,z
1/2-x,1/2-y,1/2+z
1/2+x,1/2-y,-z
1/2-x,1/2+y,1/2-z
1/2-x,1/2-y,-z
1/2+x,1/2+y,1/2-z
1/2-x,1/2+y,z
1/2+x,1/2-y,1/2+z
loop_
_atom_site_type_symbol
_atom_site_label
_atom_site_fract_x
_atom_site_fract_y
_atom_site_fract_z
Si Si1 0.321647 0.449112 0.565788
Si Si2 0.500000 0.448309 0.433890
Si Si3 0.098313 0.807033 0.433033
Si Si4 0.739238 0.142082 0.432709
Si Si5 0.598582 0.792801 0.069799
O O1 0.306667 0.500000 0.500000
O O2 0.331320 0.452445 0.750000
O O3 0.410687 0.429816 0.496415
O O4 0.249754 0.411689 0.529022
O O5 0.500000 0.500000 0.500000
O O6 0.500000 0.447844 0.250000
O O7 0.106738 0.814909 0.250000
O O8 0.171328 0.834155 0.522074
O O9 0.111321 0.753308 0.471171
O O10 0.000000 0.818409 0.477538
O O11 0.726095 0.146385 0.250000
O O12 0.664260 0.168347 0.519749
O O13 0.611210 0.781258 0.250000
O O14 0.500000 0.807315 0.049303
#
# Coordination Sequence:
#
# PCOD9468943 Si02
#       5
#    16   8  16  16  16
#     4  10  21  36  53  76 106 142 180 221 269 316
#     4  10  18  30  50  72 100 138 176 214 258 310
#     4  10  21  36  55  81 113 147 182 220 264 317
#     4  11  23  36  55  81 110 144 181 224 271 321
#     4  10  21  38  59  81 107 141 180 224 273 322
#
# _framework density 18.171543
#
# number of rings (size 3 to 8) (size 9 to 14) (size 15 to 20)
#    0.000    1.778    0.000    5.667    1.556    6.222 
#    0.000    0.000    0.000    0.667    0.000    0.000 
#    0.000    0.000    0.000    0.000    0.000    0.000 
#
# Total GULP energy -201070.636082 kJ/mol
# GULP energy per Si atom -5585.295447 kJ/mol
# Density = 1.813018 g / cm^3
# Si number density = 18.171543 Si / 1000 Ang^3
#
#
#
# Elastic Constant Matrix: (Units=GPa)
#
#
# Indices 1 2 3 4 5 6 
#
# 1 44.6383 34.3749 7.2638 0.0000 0.0000 0.0000
# 2 34.3749 65.4978 7.6871 0.0000 0.0000 0.0000
# 3 7.2638 7.6871 41.3779 0.0000 0.0000 0.0000
# 4 0.0000 0.0000 0.0000 24.4757 0.0000 0.0000
# 5 0.0000 0.0000 0.0000 0.0000 23.8496 0.0000
# 6 0.0000 0.0000 0.0000 0.0000 0.0000 26.0098
#
#
#
# Elastic Compliance Matrix: (Units=1/GPa)
#
#
# Indices 1 2 3 4 5 6 
#
# 1 0.037965 -0.019570 -0.003029 0.000000 0.000000 0.000000
# 2 -0.019570 0.025695 -0.001338 0.000000 0.000000 0.000000
# 3 -0.003029 -0.001338 0.024948 0.000000 0.000000 0.000000
# 4 0.000000 0.000000 0.000000 0.040857 0.000000 0.000000
# 5 0.000000 0.000000 0.000000 0.000000 0.041929 0.000000
# 6 0.000000 0.000000 0.000000 0.000000 0.000000 0.038447
#
#
# Mechanical properties :
#
#
# Convention : Reuss Voigt Hill
#
# Bulk Modulus (GPa) = 24.54917 27.79618 26.17268
# Shear Modulus (GPa) = 18.43019 21.67958 20.05488
#
# Velocity S-wave (km/s) = 3.18816 3.45780 3.32572
# Velocity P-wave (km/s) = 5.20495 5.59210 5.40200
#
# Compressibility (1/GPa) = 0.04073457
#
# Stress axis : x y z
#
# Youngs Moduli (GPa) = 26.33983 38.91744 40.08360
#
# Poissons Ratio (x) = 0.76160 0.12142
# Poissons Ratio (y) = 0.51546 0.05364
# Poissons Ratio (z) = 0.07979 0.05208
#
# Static dielectric constant tensor:
#      x y z
#    x 1.621300 0.000000 0.000000 
#    y 0.000000 1.627900 0.000000 
#    z 0.000000 0.000000 1.604220 
# 
# From -- ./inp_files/4643.got.cif
#   From: 2010.05.17/outbox.cif.g08.bks.cpg/sg63_3_cif.got.tgz:4643.got - 2010.06.03 15:47:04.
