data_PCOD9468444
_publ_section_title
;
Structure prediction by ZEFSAII (Michael W. Deem and Ramdas Pophale) SiO2 
 PCOD9468444
Probable space group: C M C M
;
_chemical_formula_sum "Si O2"
_cell_formula_units_Z 80
_cell_length_a 32.467091
_cell_length_b 5.373665
_cell_length_c 24.891193
_cell_angle_alpha 90.000000
_cell_angle_beta 90.000000
_cell_angle_gamma 90.000000
_cell_volume 4342.698504
_symmetry_space_group_name_H-M "C M C M"
_symmetry_group_IT_number 63
_symmetry_cell_setting 'orthorhombic'
loop_
_space_group_symop_operation_xyz
x,y,z
-x,-y,1/2+z
x,-y,-z
-x,y,1/2-z
-x,-y,-z
x,y,1/2-z
-x,y,z
x,-y,1/2+z
1/2+x,1/2+y,z
1/2-x,1/2-y,1/2+z
1/2+x,1/2-y,-z
1/2-x,1/2+y,1/2-z
1/2-x,1/2-y,-z
1/2+x,1/2+y,1/2-z
1/2-x,1/2+y,z
1/2+x,1/2-y,1/2+z
loop_
_atom_site_type_symbol
_atom_site_label
_atom_site_fract_x
_atom_site_fract_y
_atom_site_fract_z
Si Si1 0.576216 0.000000 0.500000
Si Si2 0.349429 0.418436 0.832998
Si Si3 0.597586 0.083122 0.188669
Si Si4 0.878026 0.121537 0.058336
Si Si5 0.223131 0.876169 0.750000
Si Si6 0.546241 0.302565 0.405297
O O1 0.607910 0.896636 0.455739
O O2 0.548047 0.823899 0.535753
O O3 0.371478 0.679038 0.817201
O O4 0.343610 0.413700 0.897377
O O5 0.307500 0.390509 0.800730
O O6 0.378201 0.177237 0.820190
O O7 0.581739 0.084222 0.250000
O O8 0.562629 0.130475 0.143537
O O9 0.919019 0.010272 0.086314
O O10 0.870934 0.000000 0.000000
O O11 0.247450 0.616390 0.750000
O O12 0.500000 0.389882 0.394457
#
# Coordination Sequence:
#
# PCOD9468444 Si02
#       6
#     8  16  16  16   8  16
#     4  10  17  34  52  80 108 150 210 244 298 332
#     4  11  21  40  62  85 123 150 187 244 282 355
#     4  11  20  37  59  82 111 165 202 235 293 344
#     4   9  20  35  56  84 111 159 211 237 291 347
#     4  12  24  40  66 100 119 144 183 232 302 358
#     4  10  21  32  49  78 119 156 202 257 297 327
#
# _framework density 18.421726
#
# number of rings (size 3 to 8) (size 9 to 14) (size 15 to 20)
#    0.000    1.600    4.000    1.500    0.000    4.800 
#    0.000    0.000    0.000    3.600    0.000    0.000 
#    0.000    0.000    0.000    0.000    0.000    0.000 
#
# Total GULP energy -222754.313667 kJ/mol
# GULP energy per Si atom -5568.857842 kJ/mol
# Density = 1.837980 g / cm^3
# Si number density = 18.421726 Si / 1000 Ang^3
#
#
#
# Elastic Constant Matrix: (Units=GPa)
#
#
# Indices 1 2 3 4 5 6 
#
# 1 68.9043 12.6239 41.0818 0.0000 0.0000 0.0000
# 2 12.6239 74.6811 9.4146 0.0000 0.0000 0.0000
# 3 41.0818 9.4146 131.4584 0.0000 0.0000 0.0000
# 4 0.0000 0.0000 0.0000 24.1542 0.0000 0.0000
# 5 0.0000 0.0000 0.0000 0.0000 24.0458 0.0000
# 6 0.0000 0.0000 0.0000 0.0000 0.0000 10.9505
#
#
#
# Elastic Compliance Matrix: (Units=1/GPa)
#
#
# Indices 1 2 3 4 5 6 
#
# 1 0.018248 -0.002387 -0.005532 0.000000 0.000000 0.000000
# 2 -0.002387 0.013825 -0.000244 0.000000 0.000000 0.000000
# 3 -0.005532 -0.000244 0.009353 0.000000 0.000000 0.000000
# 4 0.000000 0.000000 0.000000 0.041401 0.000000 0.000000
# 5 0.000000 0.000000 0.000000 0.000000 0.041587 0.000000
# 6 0.000000 0.000000 0.000000 0.000000 0.000000 0.091320
#
#
# Mechanical properties :
#
#
# Convention : Reuss Voigt Hill
#
# Bulk Modulus (GPa) = 39.84079 44.58715 42.21397
# Shear Modulus (GPa) = 20.79632 25.95832 23.37732
#
# Velocity S-wave (km/s) = 3.36356 3.75789 3.56618
# Velocity P-wave (km/s) = 6.06290 6.56392 6.31838
#
# Compressibility (1/GPa) = 0.02509991
#
# Stress axis : x y z
#
# Youngs Moduli (GPa) = 54.79930 72.33497 106.91555
#
# Poissons Ratio (x) = 0.17269 0.59144
# Poissons Ratio (y) = 0.13082 0.02609
# Poissons Ratio (z) = 0.30314 0.01765
#
# Static dielectric constant tensor:
#      x y z
#    x 1.613170 0.000000 0.000000 
#    y 0.000000 1.716880 0.000000 
#    z 0.000000 0.000000 1.706980 
# 
# From -- ./inp_files/70914.got.cif
#   From: 2010.05.17/outbox.cif.g08.bks.cpg/sg63_36_cif.got.tgz:70914.got - 2010.06.03 15:47:04.
