data_PCOD9468077
_publ_section_title
;
Structure prediction by ZEFSAII (Michael W. Deem and Ramdas Pophale) SiO2 
 PCOD9468077
Probable space group: P N M A
;
_chemical_formula_sum "Si O2"
_cell_formula_units_Z 48
_cell_length_a 9.000000
_cell_length_b 18.000000
_cell_length_c 15.000000
_cell_angle_alpha 90.000000
_cell_angle_beta 90.000000
_cell_angle_gamma 90.000000
_cell_volume 2430.000000
_symmetry_space_group_name_H-M "P N M A"
_symmetry_group_IT_number 62
_symmetry_cell_setting 'orthorhombic'
loop_
_space_group_symop_operation_xyz
x,y,z
1/2-x,-y,1/2+z
1/2+x,1/2-y,1/2-z
-x,1/2+y,-z
-x,-y,-z
1/2+x,y,1/2-z
1/2-x,1/2+y,1/2+z
x,1/2-y,z
loop_
_atom_site_type_symbol
_atom_site_label
_atom_site_fract_x
_atom_site_fract_y
_atom_site_fract_z
Si Si1 0.540293 0.161121 0.642041
Si Si2 0.405113 0.424525 0.485149
Si Si3 0.479311 0.338156 0.147190
Si Si4 0.556091 0.080072 0.968737
Si Si5 0.849618 0.085998 0.702792
Si Si6 0.226303 0.583399 0.789916
O O1 0.535391 0.250000 0.652277
O O2 0.495247 0.137081 0.541462
O O3 0.703281 0.129746 0.668479
O O4 0.421760 0.121484 0.708628
O O5 0.500000 0.500000 0.500000
O O6 0.236070 0.423299 0.525266
O O7 0.379193 0.415206 0.378521
O O8 0.450582 0.250000 0.155432
O O9 0.360616 0.387859 0.202610
O O10 0.638112 0.360970 0.189442
O O11 0.495207 0.362369 0.043414
O O12 0.478902 0.091527 0.872854
O O13 0.500000 0.000000 0.000000
O O14 0.795565 0.000173 0.716890
#
# Coordination Sequence:
#
# PCOD9468077 Si02
#       6
#     8   8   8   8   8   8
#     4  12  27  43  67 102 139 176 226 289 353 403
#     4  11  23  43  69 102 136 176 229 278 336 406
#     4  11  25  42  66 100 136 173 220 280 343 393
#     4  11  23  42  69  99 133 177 228 276 333 408
#     4  12  24  45  71  98 135 183 233 279 336 419
#     4  11  24  43  70  96 134 179 227 274 328 408
#
# _framework density 19.753086
#
# number of rings (size 3 to 8) (size 9 to 14) (size 15 to 20)
#    0.000    0.667    5.000    3.000    2.333    6.000 
#    0.000    0.000    0.000    0.000    0.000    0.000 
#    0.000    0.000    0.000    0.000    0.000    0.000 
#
# Total GULP energy -268478.041540 kJ/mol
# GULP energy per Si atom -5593.292532 kJ/mol
# Density = 1.970813 g / cm^3
# Si number density = 19.753086 Si / 1000 Ang^3
#
#
#
# Elastic Constant Matrix: (Units=GPa)
#
#
# Indices 1 2 3 4 5 6 
#
# 1 89.3424 36.6882 20.7398 0.0000 0.0000 0.0000
# 2 36.6882 148.2179 49.0835 0.0000 0.0000 0.0000
# 3 20.7398 49.0835 83.5399 0.0000 0.0000 0.0000
# 4 0.0000 0.0000 0.0000 35.5335 0.0000 0.0000
# 5 0.0000 0.0000 0.0000 0.0000 42.6085 0.0000
# 6 0.0000 0.0000 0.0000 0.0000 0.0000 31.5748
#
#
#
# Elastic Compliance Matrix: (Units=1/GPa)
#
#
# Indices 1 2 3 4 5 6 
#
# 1 0.012632 -0.002593 -0.001613 0.000000 0.000000 0.000000
# 2 -0.002593 0.008909 -0.004591 0.000000 0.000000 0.000000
# 3 -0.001613 -0.004591 0.015068 0.000000 0.000000 0.000000
# 4 0.000000 0.000000 0.000000 0.028142 0.000000 0.000000
# 5 0.000000 0.000000 0.000000 0.000000 0.023470 0.000000
# 6 0.000000 0.000000 0.000000 0.000000 0.000000 0.031671
#
#
# Mechanical properties :
#
#
# Convention : Reuss Voigt Hill
#
# Bulk Modulus (GPa) = 52.58579 59.34702 55.96640
# Shear Modulus (GPa) = 34.76505 36.24926 35.50715
#
# Velocity S-wave (km/s) = 4.19976 4.28848 4.24435
# Velocity P-wave (km/s) = 7.08496 7.39128 7.23974
#
# Compressibility (1/GPa) = 0.01901654
#
# Stress axis : x y z
#
# Youngs Moduli (GPa) = 79.16428 112.24820 66.36609
#
# Poissons Ratio (x) = 0.29103 0.10703
# Poissons Ratio (y) = 0.20525 0.30466
# Poissons Ratio (z) = 0.12767 0.51529
#
# Static dielectric constant tensor:
#      x y z
#    x 1.701190 0.000000 0.000000 
#    y 0.000000 1.671800 0.000000 
#    z 0.000000 0.000000 1.719740 
# 
# From -- ./inp_files/16977.got.cif
#   From: 2010.05.17/outbox.ucp.g08.bks.cvg/sg62_9_cif.got.tgz:16977.got - 2010.06.11 16:29:25.
