data_PCOD9468842
_publ_section_title
;
Structure prediction by ZEFSAII (Michael W. Deem and Ramdas Pophale) SiO2 
 PCOD9468842
Probable space group: C M C M
;
_chemical_formula_sum "Si O2"
_cell_formula_units_Z 56
_cell_length_a 29.891941
_cell_length_b 13.814564
_cell_length_c 8.692936
_cell_angle_alpha 90.000000
_cell_angle_beta 90.000000
_cell_angle_gamma 90.000000
_cell_volume 3589.696911
_symmetry_space_group_name_H-M "C M C M"
_symmetry_group_IT_number 63
_symmetry_cell_setting 'orthorhombic'
loop_
_space_group_symop_operation_xyz
x,y,z
-x,-y,1/2+z
x,-y,-z
-x,y,1/2-z
-x,-y,-z
x,y,1/2-z
-x,y,z
x,-y,1/2+z
1/2+x,1/2+y,z
1/2-x,1/2-y,1/2+z
1/2+x,1/2-y,-z
1/2-x,1/2+y,1/2-z
1/2-x,1/2-y,-z
1/2+x,1/2+y,1/2-z
1/2-x,1/2+y,z
1/2+x,1/2-y,1/2+z
loop_
_atom_site_type_symbol
_atom_site_label
_atom_site_fract_x
_atom_site_fract_y
_atom_site_fract_z
Si Si1 0.000000 0.109525 0.566009
Si Si2 0.681137 0.699743 0.933613
Si Si3 0.407286 0.608895 0.433395
Si Si4 0.730998 0.102654 0.066307
O O1 0.046554 0.151097 0.502829
O O2 0.000000 0.107781 0.750000
O O3 0.000000 0.000000 0.500000
O O4 0.676326 0.689100 0.750000
O O5 0.697213 0.809144 0.968016
O O6 0.635527 0.670020 0.015522
O O7 0.721524 0.631744 0.991698
O O8 0.401594 0.500000 0.500000
O O9 0.410844 0.602859 0.250000
O O10 0.736348 0.097128 0.250000
O O11 0.716150 0.000000 0.000000
#
# Coordination Sequence:
#
# PCOD9468842 Si02
#       4
#     8  16  16  16
#     4  10  18  30  46  66  93 122 153 188 228 274
#     4  10  20  33  48  68  93 123 158 191 228 273
#     4  11  20  31  47  68  95 125 156 190 229 273
#     4  10  20  33  49  68  93 123 155 193 232 272
#
# _framework density 15.600203
#
# number of rings (size 3 to 8) (size 9 to 14) (size 15 to 20)
#    0.000    1.714    0.000    8.143    0.000    3.429 
#    0.000    0.000    0.000    0.000    0.000    1.000 
#    0.000    0.000    0.000    0.000    0.000    0.000 
#
# Total GULP energy -156311.239968 kJ/mol
# GULP energy per Si atom -5582.544285 kJ/mol
# Density = 1.556470 g / cm^3
# Si number density = 15.600203 Si / 1000 Ang^3
#
#
#
# Elastic Constant Matrix: (Units=GPa)
#
#
# Indices 1 2 3 4 5 6 
#
# 1 134.6509 36.8121 68.3037 0.0000 0.0000 0.0000
# 2 36.8121 67.6885 40.0336 0.0000 0.0000 0.0000
# 3 68.3037 40.0336 127.6474 0.0000 0.0000 0.0000
# 4 0.0000 0.0000 0.0000 23.4019 0.0000 0.0000
# 5 0.0000 0.0000 0.0000 0.0000 28.8461 0.0000
# 6 0.0000 0.0000 0.0000 0.0000 0.0000 15.9306
#
#
#
# Elastic Compliance Matrix: (Units=1/GPa)
#
#
# Indices 1 2 3 4 5 6 
#
# 1 0.010660 -0.002976 -0.004771 0.000000 0.000000 0.000000
# 2 -0.002976 0.018969 -0.004357 0.000000 0.000000 0.000000
# 3 -0.004771 -0.004357 0.011753 0.000000 0.000000 0.000000
# 4 0.000000 0.000000 0.000000 0.042732 0.000000 0.000000
# 5 0.000000 0.000000 0.000000 0.000000 0.034667 0.000000
# 6 0.000000 0.000000 0.000000 0.000000 0.000000 0.062772
#
#
# Mechanical properties :
#
#
# Convention : Reuss Voigt Hill
#
# Bulk Modulus (GPa) = 58.22310 68.92064 63.57187
# Shear Modulus (GPa) = 23.64230 25.95820 24.80025
#
# Velocity S-wave (km/s) = 3.89718 4.08360 3.99148
# Velocity P-wave (km/s) = 7.59301 8.15534 7.87919
#
# Compressibility (1/GPa) = 0.01717531
#
# Stress axis : x y z
#
# Youngs Moduli (GPa) = 93.80560 52.71844 85.08158
#
# Poissons Ratio (x) = 0.15688 0.40593
# Poissons Ratio (y) = 0.27915 0.37068
# Poissons Ratio (z) = 0.44755 0.22968
#
# Static dielectric constant tensor:
#      x y z
#    x 1.531250 0.000000 0.000000 
#    y 0.000000 1.511010 0.000000 
#    z 0.000000 0.000000 1.519680 
# 
# From -- ./inp_files/9526.got.cif
#   From: 2010.05.17/outbox.cif.g08.bks.cpg/sg63_5_cif.got.tgz:9526.got - 2010.06.03 15:47:04.
