data_PCOD9468069
_publ_section_title
;
Structure prediction by ZEFSAII (Michael W. Deem and Ramdas Pophale) SiO2 
 PCOD9468069
Probable space group: P N M A
;
_chemical_formula_sum "Si O2"
_cell_formula_units_Z 40
_cell_length_a 9.000000
_cell_length_b 18.000000
_cell_length_c 12.000000
_cell_angle_alpha 90.000000
_cell_angle_beta 90.000000
_cell_angle_gamma 90.000000
_cell_volume 1944.000000
_symmetry_space_group_name_H-M "P N M A"
_symmetry_group_IT_number 62
_symmetry_cell_setting 'orthorhombic'
loop_
_space_group_symop_operation_xyz
x,y,z
1/2-x,-y,1/2+z
1/2+x,1/2-y,1/2-z
-x,1/2+y,-z
-x,-y,-z
1/2+x,y,1/2-z
1/2-x,1/2+y,1/2+z
x,1/2-y,z
loop_
_atom_site_type_symbol
_atom_site_label
_atom_site_fract_x
_atom_site_fract_y
_atom_site_fract_z
Si Si1 0.210971 0.831059 0.106789
Si Si2 0.193161 0.377128 0.372017
Si Si3 0.784723 0.451546 0.584736
Si Si4 0.038632 0.400616 0.757580
Si Si5 0.342645 0.340048 0.128953
O O1 0.266870 0.750000 0.135599
O O2 0.051300 0.842658 0.164461
O O3 0.330713 0.881184 0.170903
O O4 0.216565 0.838006 0.972906
O O5 0.187060 0.460591 0.423693
O O6 0.268710 0.366247 0.248543
O O7 0.022431 0.348780 0.364045
O O8 0.910481 0.428989 0.674770
O O9 0.624883 0.447223 0.647295
O O10 0.794428 0.396361 0.475184
O O11 0.310634 0.250000 0.111526
#
# Coordination Sequence:
#
# PCOD9468069 Si02
#       5
#     8   8   8   8   8
#     4  11  23  42  66  98 136 178 226 284 350 414
#     4  12  27  45  72  99 142 185 236 287 349 422
#     4  11  25  46  72 102 137 183 237 290 350 416
#     4  10  24  42  70  98 135 174 230 284 352 406
#     4  12  27  47  71 103 144 188 236 289 354 422
#
# _framework density 20.576132000000001
#
# number of rings (size 3 to 8) (size 9 to 14) (size 15 to 20)
#    0.000    0.800    2.000    4.200    8.400    4.800 
#    0.000    0.000    0.000    0.000    0.000    0.000 
#    0.000    0.000    0.000    0.000    0.000    0.000 
#
# Total GULP energy -222694.372286 kJ/mol
# GULP energy per Si atom -5567.359307 kJ/mol
# Density = 2.052930 g / cm^3
# Si number density = 20.576132 Si / 1000 Ang^3
#
#
#
# Elastic Constant Matrix: (Units=GPa)
#
#
# Indices 1 2 3 4 5 6 
#
# 1 46.4937 3.8590 40.5106 0.0000 0.0000 0.0000
# 2 3.8590 109.9107 38.2678 0.0000 0.0000 0.0000
# 3 40.5106 38.2678 146.3400 0.0000 0.0000 0.0000
# 4 0.0000 0.0000 0.0000 12.7494 0.0000 0.0000
# 5 0.0000 0.0000 0.0000 0.0000 38.6200 0.0000
# 6 0.0000 0.0000 0.0000 0.0000 0.0000 2.5478
#
#
#
# Elastic Compliance Matrix: (Units=1/GPa)
#
#
# Indices 1 2 3 4 5 6 
#
# 1 0.028715 0.001936 -0.008455 0.000000 0.000000 0.000000
# 2 0.001936 0.010140 -0.003187 0.000000 0.000000 0.000000
# 3 -0.008455 -0.003187 0.010008 0.000000 0.000000 0.000000
# 4 0.000000 0.000000 0.000000 0.078435 0.000000 0.000000
# 5 0.000000 0.000000 0.000000 0.000000 0.025893 0.000000
# 6 0.000000 0.000000 0.000000 0.000000 0.000000 0.392489
#
#
# Mechanical properties :
#
#
# Convention : Reuss Voigt Hill
#
# Bulk Modulus (GPa) = 33.95762 52.00212 42.97987
# Shear Modulus (GPa) = 8.69702 25.45724 17.07713
#
# Velocity S-wave (km/s) = 2.05814 3.52123 2.88401
# Velocity P-wave (km/s) = 4.71032 6.46993 5.65894
#
# Compressibility (1/GPa) = 0.02944847
#
# Stress axis : x y z
#
# Youngs Moduli (GPa) = 34.82534 98.61813 99.92482
#
# Poissons Ratio (x) = -0.19089 0.84488
# Poissons Ratio (y) = -0.06741 0.31851
# Poissons Ratio (z) = 0.29445 0.31434
#
# Static dielectric constant tensor:
#      x y z
#    x 1.750350 0.000000 0.000000 
#    y 0.000000 1.958830 0.000000 
#    z 0.000000 0.000000 1.736060 
# 
# From -- ./inp_files/11078.got.cif
#   From: 2010.05.17/outbox.ucp.g08.bks.cvg/sg62_6_cif.got.tgz:11078.got - 2010.06.11 16:29:25.
