data_PCOD9468436
_publ_section_title
;
Structure prediction by ZEFSAII (Michael W. Deem and Ramdas Pophale) SiO2 
 PCOD9468436
Probable space group: C M C M
;
_chemical_formula_sum "Si O2"
_cell_formula_units_Z 96
_cell_length_a 22.333860
_cell_length_b 12.318357
_cell_length_c 15.476368
_cell_angle_alpha 90.000000
_cell_angle_beta 90.000000
_cell_angle_gamma 90.000000
_cell_volume 4257.803588
_symmetry_space_group_name_H-M "C M C M"
_symmetry_group_IT_number 63
_symmetry_cell_setting 'orthorhombic'
loop_
_space_group_symop_operation_xyz
x,y,z
-x,-y,1/2+z
x,-y,-z
-x,y,1/2-z
-x,-y,-z
x,y,1/2-z
-x,y,z
x,-y,1/2+z
1/2+x,1/2+y,z
1/2-x,1/2-y,1/2+z
1/2+x,1/2-y,-z
1/2-x,1/2+y,1/2-z
1/2-x,1/2-y,-z
1/2+x,1/2+y,1/2-z
1/2-x,1/2+y,z
1/2+x,1/2-y,1/2+z
loop_
_atom_site_type_symbol
_atom_site_label
_atom_site_fract_x
_atom_site_fract_y
_atom_site_fract_z
Si Si1 0.131483 0.304666 0.902137
Si Si2 0.875289 0.316736 0.394900
Si Si3 0.000000 0.607433 0.893792
Si Si4 0.843916 0.053546 0.904820
Si Si5 0.000000 0.651030 0.093854
Si Si6 0.932924 0.895171 0.649640
Si Si7 0.285576 0.998188 0.106515
O O1 0.158158 0.183906 0.902195
O O2 0.062912 0.306200 0.868993
O O3 0.175755 0.396960 0.865510
O O4 0.124383 0.338781 0.002632
O O5 0.937291 0.358245 0.353895
O O6 0.882873 0.188293 0.385449
O O7 0.819958 0.388640 0.364331
O O8 0.000000 0.478691 0.897776
O O9 0.000000 0.663646 0.989111
O O10 0.782903 0.007241 0.863856
O O11 0.905106 0.013412 0.861862
O O12 0.847329 0.000000 0.000000
O O13 0.937896 0.871465 0.750000
O O14 0.000000 0.884554 0.610985
O O15 0.282330 0.000000 0.000000
#
# Coordination Sequence:
#
# PCOD9468436 Si02
#       7
#    16  16   8  16   8  16  16
#     4  10  19  31  53  89 118 142 181 237 287 328
#     4  10  17  33  56  84 115 144 185 229 279 340
#     4   9  14  26  48  81 113 146 174 219 276 327
#     4  11  23  36  58  85 116 154 193 233 283 347
#     4   9  16  26  46  82 120 141 174 224 284 324
#     4  11  25  42  58  79 113 154 192 236 288 341
#     4   9  20  32  55  88 120 147 178 231 289 334
#
# _framework density 22.546835000000002
#
# number of rings (size 3 to 8) (size 9 to 14) (size 15 to 20)
#    0.000    2.000    4.167    0.000    3.500    2.333 
#    0.000    0.833    0.000    1.000    0.000    2.333 
#    0.000    0.000    0.000    0.000    0.000    0.000 
#
# Total GULP energy -267529.904067 kJ/mol
# GULP energy per Si atom -5573.539668 kJ/mol
# Density = 2.249552 g / cm^3
# Si number density = 22.546835 Si / 1000 Ang^3
#
#
#
# Elastic Constant Matrix: (Units=GPa)
#
#
# Indices 1 2 3 4 5 6 
#
# 1 137.7468 69.5075 10.0659 0.0000 0.0000 0.0000
# 2 69.5075 107.2143 -2.8422 0.0000 0.0000 0.0000
# 3 10.0659 -2.8422 22.3059 0.0000 0.0000 0.0000
# 4 0.0000 0.0000 0.0000 -1.7811 0.0000 0.0000
# 5 0.0000 0.0000 0.0000 0.0000 -109.6054 0.0000
# 6 0.0000 0.0000 0.0000 0.0000 0.0000 19.5721
#
#
#
# Elastic Compliance Matrix: (Units=1/GPa)
#
#
# Indices 1 2 3 4 5 6 
#
# 1 0.011587 -0.007676 -0.006207 0.000000 0.000000 0.000000
# 2 -0.007676 0.014444 0.005305 0.000000 0.000000 0.000000
# 3 -0.006207 0.005305 0.048308 0.000000 0.000000 0.000000
# 4 0.000000 0.000000 0.000000 -0.561466 0.000000 0.000000
# 5 0.000000 0.000000 0.000000 0.000000 -0.009124 0.000000
# 6 0.000000 0.000000 0.000000 0.000000 0.000000 0.051093
#
#
# Mechanical properties :
#
#
# Convention : Reuss Voigt Hill
#
# Bulk Modulus (GPa) = 17.48803 46.74772 32.11787
# Shear Modulus (GPa) = -12.22676 -5.66050 -8.94363
#
# Velocity S-wave (km/s) = -2.33122 -1.58619 -1.99382
# Velocity P-wave (km/s) = 0.72596 4.17420 2.99591
#
# Compressibility (1/GPa) = 0.05718197
#
# Stress axis : x y z
#
# Youngs Moduli (GPa) = 86.30556 69.23144 20.70048
#
# Poissons Ratio (x) = 0.53144 0.12848
# Poissons Ratio (y) = 0.66251 -0.10981
# Poissons Ratio (z) = 0.53568 -0.36724
#
# Static dielectric constant tensor:
#      x y z
#    x 1.870330 0.000000 0.000000 
#    y 0.000000 1.850200 0.000000 
#    z 0.000000 0.000000 1.884190 
# 
# From -- ./inp_files/57547.got.cif
#   From: 2010.05.17/outbox.cif.g08.bks.cpg/sg63_29_cif.got.tgz:57547.got - 2010.06.03 15:47:04.
