data_PCOD9468528
_publ_section_title
;
Structure prediction by ZEFSAII (Michael W. Deem and Ramdas Pophale) SiO2 
 PCOD9468528
Probable space group: C M C M
;
_chemical_formula_sum "Si O2"
_cell_formula_units_Z 80
_cell_length_a 7.602875
_cell_length_b 20.967467
_cell_length_c 25.996795
_cell_angle_alpha 90.000000
_cell_angle_beta 90.000000
_cell_angle_gamma 90.000000
_cell_volume 4144.227879
_symmetry_space_group_name_H-M "C M C M"
_symmetry_group_IT_number 63
_symmetry_cell_setting 'orthorhombic'
loop_
_space_group_symop_operation_xyz
x,y,z
-x,-y,1/2+z
x,-y,-z
-x,y,1/2-z
-x,-y,-z
x,y,1/2-z
-x,y,z
x,-y,1/2+z
1/2+x,1/2+y,z
1/2-x,1/2-y,1/2+z
1/2+x,1/2-y,-z
1/2-x,1/2+y,1/2-z
1/2-x,1/2-y,-z
1/2+x,1/2+y,1/2-z
1/2-x,1/2+y,z
1/2+x,1/2-y,1/2+z
loop_
_atom_site_type_symbol
_atom_site_label
_atom_site_fract_x
_atom_site_fract_y
_atom_site_fract_z
Si Si1 0.783983 0.566060 0.973662
Si Si2 0.204402 0.399531 0.361439
Si Si3 0.209480 0.246658 0.250000
Si Si4 0.293295 0.251085 0.361491
Si Si5 0.715849 0.104873 0.750000
Si Si6 0.210701 0.310595 0.964403
O O1 0.720835 0.574393 0.914861
O O2 0.000000 0.568073 0.972253
O O3 0.733112 0.500000 0.000000
O O4 0.722935 0.625899 0.007853
O O5 0.211101 0.322011 0.363212
O O6 0.277306 0.420322 0.305542
O O7 0.000000 0.418327 0.360815
O O8 0.269660 0.220999 0.305012
O O9 0.268913 0.320658 0.250000
O O10 0.000000 0.245988 0.250000
O O11 0.500000 0.261586 0.369959
O O12 0.223720 0.207140 0.407485
O O13 0.500000 0.103133 0.750000
O O14 0.000000 0.317993 0.960815
O O15 0.250000 0.250000 0.000000
#
# Coordination Sequence:
#
# PCOD9468528 Si02
#       6
#    16  16   8  16   8  16
#     4   9  17  29  46  67  93 128 166 204 242 282
#     4   9  15  26  44  64  90 121 157 198 237 287
#     4   9  17  29  45  66  93 125 157 191 235 288
#     4  10  18  27  43  69  98 123 152 196 244 287
#     4   7  12  21  37  62  83 105 141 187 231 266
#     4  10  19  30  47  70  96 127 161 198 241 287
#
# _framework density 19.303958000000002
#
# number of rings (size 3 to 8) (size 9 to 14) (size 15 to 20)
#    0.000    2.800    2.000    2.100    0.000    0.800 
#    0.000    0.000    0.000    3.600    0.000    7.000 
#    0.000    0.000    0.000    0.000    0.000    0.000 
#
# Total GULP energy -222821.133962 kJ/mol
# GULP energy per Si atom -5570.528349 kJ/mol
# Density = 1.926002 g / cm^3
# Si number density = 19.303958 Si / 1000 Ang^3
#
#
#
# Elastic Constant Matrix: (Units=GPa)
#
#
# Indices 1 2 3 4 5 6 
#
# 1 37.7628 -6.5409 -1.0504 0.0000 0.0000 0.0000
# 2 -6.5409 88.6323 76.4532 0.0000 0.0000 0.0000
# 3 -1.0504 76.4532 248.9274 0.0000 0.0000 0.0000
# 4 0.0000 0.0000 0.0000 20.1384 0.0000 0.0000
# 5 0.0000 0.0000 0.0000 0.0000 10.9079 0.0000
# 6 0.0000 0.0000 0.0000 0.0000 0.0000 8.0136
#
#
#
# Elastic Compliance Matrix: (Units=1/GPa)
#
#
# Indices 1 2 3 4 5 6 
#
# 1 0.026907 0.002568 -0.000675 0.000000 0.000000 0.000000
# 2 0.002568 0.015594 -0.004779 0.000000 0.000000 0.000000
# 3 -0.000675 -0.004779 0.005482 0.000000 0.000000 0.000000
# 4 0.000000 0.000000 0.000000 0.049656 0.000000 0.000000
# 5 0.000000 0.000000 0.000000 0.000000 0.091677 0.000000
# 6 0.000000 0.000000 0.000000 0.000000 0.000000 0.124788
#
#
# Mechanical properties :
#
#
# Convention : Reuss Voigt Hill
#
# Bulk Modulus (GPa) = 23.68999 57.00514 40.34756
# Shear Modulus (GPa) = 14.97249 28.24269 21.60759
#
# Velocity S-wave (km/s) = 2.78801 3.82914 3.34928
# Velocity P-wave (km/s) = 4.76054 7.01028 5.99195
#
# Compressibility (1/GPa) = 0.04221192
#
# Stress axis : x y z
#
# Youngs Moduli (GPa) = 37.16482 64.12712 182.41421
#
# Poissons Ratio (x) = -0.16469 0.12317
# Poissons Ratio (y) = -0.09544 0.87168
# Poissons Ratio (z) = 0.02509 0.30644
#
# Static dielectric constant tensor:
#      x y z
#    x 1.747340 0.000000 0.000000 
#    y 0.000000 1.612490 0.000000 
#    z 0.000000 0.000000 1.747060 
# 
# From -- ./inp_files/59785.got.cif
#   From: 2010.05.17/outbox.cif.g08.bks.cpg/sg63_30_cif.got.tgz:59785.got - 2010.06.03 15:47:04.
