data_PCOD9468417
_publ_section_title
;
Structure prediction by ZEFSAII (Michael W. Deem and Ramdas Pophale) SiO2 
 PCOD9468417
Probable space group: C M C M
;
_chemical_formula_sum "Si O2"
_cell_formula_units_Z 80
_cell_length_a 23.511343
_cell_length_b 12.070402
_cell_length_c 15.456220
_cell_angle_alpha 90.000000
_cell_angle_beta 90.000000
_cell_angle_gamma 90.000000
_cell_volume 4386.341719
_symmetry_space_group_name_H-M "C M C M"
_symmetry_group_IT_number 63
_symmetry_cell_setting 'orthorhombic'
loop_
_space_group_symop_operation_xyz
x,y,z
-x,-y,1/2+z
x,-y,-z
-x,y,1/2-z
-x,-y,-z
x,y,1/2-z
-x,y,z
x,-y,1/2+z
1/2+x,1/2+y,z
1/2-x,1/2-y,1/2+z
1/2+x,1/2-y,-z
1/2-x,1/2+y,1/2-z
1/2-x,1/2-y,-z
1/2+x,1/2+y,1/2-z
1/2-x,1/2+y,z
1/2+x,1/2-y,1/2+z
loop_
_atom_site_type_symbol
_atom_site_label
_atom_site_fract_x
_atom_site_fract_y
_atom_site_fract_z
Si Si1 0.565173 0.528580 0.897845
Si Si2 0.810394 0.686472 0.984295
Si Si3 0.728849 0.532464 0.594602
Si Si4 0.855238 0.776068 0.349643
Si Si5 0.842790 0.850923 0.843632
O O1 0.500000 0.519005 0.869275
O O2 0.590144 0.650248 0.877066
O O3 0.607194 0.440828 0.852661
O O4 0.567274 0.500000 0.000000
O O5 0.790494 0.578171 0.931546
O O6 0.845744 0.764157 0.920567
O O7 0.750000 0.750000 0.000000
O O8 0.840978 0.684854 0.077133
O O9 0.702474 0.500000 0.500000
O O10 0.695269 0.632163 0.639897
O O11 0.715965 0.421596 0.647123
O O12 0.858595 0.740038 0.250000
O O13 0.844195 0.797039 0.750000
#
# Coordination Sequence:
#
# PCOD9468417 Si02
#       5
#    16  16  16  16  16
#     4  10  18  31  51  69  95 131 159 191 243 296
#     4  10  19  32  47  62  95 128 165 196 234 278
#     4  10  17  32  46  62  91 130 158 197 231 271
#     4  10  18  30  46  66  94 124 157 192 233 281
#     4  11  20  32  50  71  99 129 162 197 241 285
#
# _framework density 18.238432
#
# number of rings (size 3 to 8) (size 9 to 14) (size 15 to 20)
#    0.000    1.800    6.000    3.600    0.000    5.600 
#    0.000    0.000    0.000    0.000    0.000    0.000 
#    0.000    3.200    0.000    3.600    0.400    0.200 
#
# Total GULP energy -222731.455709 kJ/mol
# GULP energy per Si atom -5568.286393 kJ/mol
# Density = 1.819692 g / cm^3
# Si number density = 18.238432 Si / 1000 Ang^3
#
#
#
# Elastic Constant Matrix: (Units=GPa)
#
#
# Indices 1 2 3 4 5 6 
#
# 1 79.6779 29.4094 29.9752 0.0000 0.0000 0.0000
# 2 29.4094 32.6303 12.9699 0.0000 0.0000 0.0000
# 3 29.9752 12.9699 131.8731 0.0000 0.0000 0.0000
# 4 0.0000 0.0000 0.0000 14.4585 0.0000 0.0000
# 5 0.0000 0.0000 0.0000 0.0000 7.7138 0.0000
# 6 0.0000 0.0000 0.0000 0.0000 0.0000 19.3318
#
#
#
# Elastic Compliance Matrix: (Units=1/GPa)
#
#
# Indices 1 2 3 4 5 6 
#
# 1 0.019789 -0.016701 -0.002856 0.000000 0.000000 0.000000
# 2 -0.016701 0.045987 -0.000727 0.000000 0.000000 0.000000
# 3 -0.002856 -0.000727 0.008304 0.000000 0.000000 0.000000
# 4 0.000000 0.000000 0.000000 0.069163 0.000000 0.000000
# 5 0.000000 0.000000 0.000000 0.000000 0.129638 0.000000
# 6 0.000000 0.000000 0.000000 0.000000 0.000000 0.051728
#
#
# Mechanical properties :
#
#
# Convention : Reuss Voigt Hill
#
# Bulk Modulus (GPa) = 29.83827 43.21002 36.52414
# Shear Modulus (GPa) = 13.28559 19.75593 16.52076
#
# Velocity S-wave (km/s) = 2.70189 3.29478 3.01295
# Velocity P-wave (km/s) = 5.11168 6.18201 5.67215
#
# Compressibility (1/GPa) = 0.03351401
#
# Stress axis : x y z
#
# Youngs Moduli (GPa) = 50.53293 21.74505 120.42948
#
# Poissons Ratio (x) = 0.36316 0.34390
# Poissons Ratio (y) = 0.84393 0.08753
# Poissons Ratio (z) = 0.14430 0.01580
#
# Static dielectric constant tensor:
#      x y z
#    x 1.636400 0.000000 0.000000 
#    y 0.000000 1.688120 0.000000 
#    z 0.000000 0.000000 1.688760 
# 
# From -- ./inp_files/35099.got.cif
#   From: 2010.05.17/outbox.cif.g08.bks.cpg/sg63_18_cif.got.tgz:35099.got - 2010.06.03 15:47:04.
