data_PCOD9468930
_publ_section_title
;
Structure prediction by ZEFSAII (Michael W. Deem and Ramdas Pophale) SiO2 
 PCOD9468930
Probable space group: C M C M
;
_chemical_formula_sum "Si O2"
_cell_formula_units_Z 80
_cell_length_a 8.622912
_cell_length_b 21.055930
_cell_length_c 25.621395
_cell_angle_alpha 90.000000
_cell_angle_beta 90.000000
_cell_angle_gamma 90.000000
_cell_volume 4651.908395
_symmetry_space_group_name_H-M "C M C M"
_symmetry_group_IT_number 63
_symmetry_cell_setting 'orthorhombic'
loop_
_space_group_symop_operation_xyz
x,y,z
-x,-y,1/2+z
x,-y,-z
-x,y,1/2-z
-x,-y,-z
x,y,1/2-z
-x,y,z
x,-y,1/2+z
1/2+x,1/2+y,z
1/2-x,1/2-y,1/2+z
1/2+x,1/2-y,-z
1/2-x,1/2+y,1/2-z
1/2-x,1/2-y,-z
1/2+x,1/2+y,1/2-z
1/2-x,1/2+y,z
1/2+x,1/2-y,1/2+z
loop_
_atom_site_type_symbol
_atom_site_label
_atom_site_fract_x
_atom_site_fract_y
_atom_site_fract_z
Si Si1 0.312469 0.935761 0.470665
Si Si2 0.686886 0.387129 0.364018
Si Si3 0.184244 0.254433 0.250000
Si Si4 0.682783 0.606135 0.750000
Si Si5 0.815721 0.756861 0.634999
Si Si6 0.185228 0.690467 0.032235
O O1 0.500000 0.935159 0.466758
O O2 0.244183 0.927460 0.412988
O O3 0.263976 0.874575 0.504704
O O4 0.265701 0.000000 0.500000
O O5 0.500000 0.383928 0.363662
O O6 0.742241 0.413589 0.307339
O O7 0.751088 0.315132 0.370119
O O8 0.285570 0.318223 0.250000
O O9 0.213978 0.221442 0.194674
O O10 0.000000 0.272194 0.250000
O O11 0.500000 0.592774 0.750000
O O12 0.741344 0.800840 0.591302
O O13 0.000000 0.754115 0.626568
O O14 0.000000 0.692771 0.030714
O O15 0.250000 0.750000 0.000000
#
# Coordination Sequence:
#
# PCOD9468930 Si02
#       6
#    16  16   8   8  16  16
#     4  10  22  38  53  71 101 138 173 211 256 304
#     4  10  18  30  50  75 103 132 167 208 253 303
#     4   8  16  28  44  69 100 133 165 203 249 297
#     4   8  16  28  44  71 102 129 159 205 255 297
#     4  10  18  30  49  74 104 134 168 208 252 302
#     4  11  21  33  52  76 102 132 167 209 256 304
#
# _framework density 17.197244000000001
#
# number of rings (size 3 to 8) (size 9 to 14) (size 15 to 20)
#    0.000    2.200    2.000    1.800    0.000    2.800 
#    0.000    0.000    0.000    1.200    0.000    8.400 
#    0.000    0.000    0.000    0.000    0.000    0.000 
#
# Total GULP energy -222926.410139 kJ/mol
# GULP energy per Si atom -5573.160253 kJ/mol
# Density = 1.715810 g / cm^3
# Si number density = 17.197244 Si / 1000 Ang^3
#
#
#
# Elastic Constant Matrix: (Units=GPa)
#
#
# Indices 1 2 3 4 5 6 
#
# 1 28.9179 22.8071 33.7867 0.0000 0.0000 0.0000
# 2 22.8071 82.9866 68.2101 0.0000 0.0000 0.0000
# 3 33.7867 68.2101 189.1924 0.0000 0.0000 0.0000
# 4 0.0000 0.0000 0.0000 19.7329 0.0000 0.0000
# 5 0.0000 0.0000 0.0000 0.0000 28.9033 0.0000
# 6 0.0000 0.0000 0.0000 0.0000 0.0000 16.2042
#
#
#
# Elastic Compliance Matrix: (Units=1/GPa)
#
#
# Indices 1 2 3 4 5 6 
#
# 1 0.047731 -0.008685 -0.005393 0.000000 0.000000 0.000000
# 2 -0.008685 0.018705 -0.005193 0.000000 0.000000 0.000000
# 3 -0.005393 -0.005193 0.008121 0.000000 0.000000 0.000000
# 4 0.000000 0.000000 0.000000 0.050677 0.000000 0.000000
# 5 0.000000 0.000000 0.000000 0.000000 0.034598 0.000000
# 6 0.000000 0.000000 0.000000 0.000000 0.000000 0.061712
#
#
# Mechanical properties :
#
#
# Convention : Reuss Voigt Hill
#
# Bulk Modulus (GPa) = 27.76568 61.18940 44.47754
# Shear Modulus (GPa) = 18.37614 24.72095 21.54854
#
# Velocity S-wave (km/s) = 3.27242 3.79554 3.54365
# Velocity P-wave (km/s) = 5.51895 7.40718 6.53166
#
# Compressibility (1/GPa) = 0.03601568
#
# Stress axis : x y z
#
# Youngs Moduli (GPa) = 20.95058 53.46070 123.13997
#
# Poissons Ratio (x) = 0.46433 0.66405
# Poissons Ratio (y) = 0.18197 0.63944
# Poissons Ratio (z) = 0.11298 0.27761
#
# Static dielectric constant tensor:
#      x y z
#    x 1.587840 0.000000 0.000000 
#    y 0.000000 1.542040 0.000000 
#    z 0.000000 0.000000 1.640390 
# 
# From -- ./inp_files/59535.got.cif
#   From: 2010.05.17/outbox.cif.g08.bks.cpg/sg63_30_cif.got.tgz:59535.got - 2010.06.03 15:47:04.
