data_PCOD9468643
_publ_section_title
;
Structure prediction by ZEFSAII (Michael W. Deem and Ramdas Pophale) SiO2 
 PCOD9468643
Probable space group: C M C M
;
_chemical_formula_sum "Si O2"
_cell_formula_units_Z 112
_cell_length_a 13.599998
_cell_length_b 29.278251
_cell_length_c 15.933282
_cell_angle_alpha 90.000000
_cell_angle_beta 90.000000
_cell_angle_gamma 90.000000
_cell_volume 6344.380430
_symmetry_space_group_name_H-M "C M C M"
_symmetry_group_IT_number 63
_symmetry_cell_setting 'orthorhombic'
loop_
_space_group_symop_operation_xyz
x,y,z
-x,-y,1/2+z
x,-y,-z
-x,y,1/2-z
-x,-y,-z
x,y,1/2-z
-x,y,z
x,-y,1/2+z
1/2+x,1/2+y,z
1/2-x,1/2-y,1/2+z
1/2+x,1/2-y,-z
1/2-x,1/2+y,1/2-z
1/2-x,1/2-y,-z
1/2+x,1/2+y,1/2-z
1/2-x,1/2+y,z
1/2+x,1/2-y,1/2+z
loop_
_atom_site_type_symbol
_atom_site_label
_atom_site_fract_x
_atom_site_fract_y
_atom_site_fract_z
Si Si1 0.615266 0.634124 0.594844
Si Si2 0.880849 0.962839 0.151357
Si Si3 0.203635 0.847846 0.578194
Si Si4 0.616277 0.258562 0.845205
Si Si5 0.618693 0.272599 0.159400
Si Si6 0.883021 0.702292 0.011093
Si Si7 0.386216 0.563127 0.351120
O O1 0.500000 0.630393 0.615096
O O2 0.655944 0.583095 0.606668
O O3 0.630117 0.651282 0.500838
O O4 0.655945 0.675575 0.650437
O O5 0.856538 0.958487 0.250000
O O6 0.000000 0.964357 0.145618
O O7 0.850993 0.012987 0.119441
O O8 0.173177 0.805549 0.636649
O O9 0.311159 0.838355 0.539299
O O10 0.184083 0.895888 0.622451
O O11 0.632806 0.242427 0.750000
O O12 0.500000 0.268754 0.853389
O O13 0.638755 0.222136 0.918521
O O14 0.647938 0.252938 0.250000
O O15 0.500000 0.275024 0.159446
O O16 0.641051 0.242280 0.078483
O O17 0.000000 0.692255 0.016361
O O18 0.390428 0.561012 0.250000
O O19 0.500000 0.571090 0.380293
#
# Coordination Sequence:
#
# PCOD9468643 Si02
#       7
#    16  16  16  16  16  16  16
#     4  10  18  28  46  73 105 132 161 201 246 305
#     4   8  15  29  47  70 104 141 168 194 239 304
#     4  12  21  31  48  75 100 131 171 214 256 299
#     4  10  20  35  54  73  98 134 172 211 256 306
#     4   9  17  30  48  69  98 135 167 200 247 299
#     4  10  22  39  51  68 100 136 178 222 256 294
#     4   9  18  32  50  74 105 138 171 205 246 303
#
# _framework density 17.653417999999999
#
# number of rings (size 3 to 8) (size 9 to 14) (size 15 to 20)
#    0.000    2.286    1.429    3.429    0.000    4.571 
#    0.000    2.857    0.000    0.000    0.000    2.000 
#    0.000    1.143    0.000    0.000    0.000    0.000 
#
# Total GULP energy -312114.700414 kJ/mol
# GULP energy per Si atom -5573.476793 kJ/mol
# Density = 1.761324 g / cm^3
# Si number density = 17.653418 Si / 1000 Ang^3
#
#
#
# Elastic Constant Matrix: (Units=GPa)
#
#
# Indices 1 2 3 4 5 6 
#
# 1 65.3488 37.2299 8.9996 0.0000 0.0000 0.0000
# 2 37.2299 98.4472 36.8692 0.0000 0.0000 0.0000
# 3 8.9996 36.8692 91.2980 0.0000 0.0000 0.0000
# 4 0.0000 0.0000 0.0000 -2.4507 0.0000 0.0000
# 5 0.0000 0.0000 0.0000 0.0000 2.3925 0.0000
# 6 0.0000 0.0000 0.0000 0.0000 0.0000 14.0964
#
#
#
# Elastic Compliance Matrix: (Units=1/GPa)
#
#
# Indices 1 2 3 4 5 6 
#
# 1 0.019625 -0.007891 0.001252 0.000000 0.000000 0.000000
# 2 -0.007891 0.015140 -0.005336 0.000000 0.000000 0.000000
# 3 0.001252 -0.005336 0.012985 0.000000 0.000000 0.000000
# 4 0.000000 0.000000 0.000000 -0.408045 0.000000 0.000000
# 5 0.000000 0.000000 0.000000 0.000000 0.417970 0.000000
# 6 0.000000 0.000000 0.000000 0.000000 0.000000 0.070940
#
#
# Mechanical properties :
#
#
# Convention : Reuss Voigt Hill
#
# Bulk Modulus (GPa) = 42.01615 46.81014 44.41315
# Shear Modulus (GPa) = 31.15287 14.27400 22.71343
#
# Velocity S-wave (km/s) = 4.20538 2.84662 3.59086
# Velocity P-wave (km/s) = 6.88713 6.11376 6.51194
#
# Compressibility (1/GPa) = 0.02380037
#
# Stress axis : x y z
#
# Youngs Moduli (GPa) = 50.95427 66.04925 77.01361
#
# Poissons Ratio (x) = 0.52117 -0.09642
# Poissons Ratio (y) = 0.40206 0.41097
# Poissons Ratio (z) = -0.06379 0.35246
#
# Static dielectric constant tensor:
#      x y z
#    x 1.613800 0.000000 0.000000 
#    y 0.000000 1.624670 0.000000 
#    z 0.000000 0.000000 1.648580 
# 
# From -- ./inp_files/32525.got.cif
#   From: 2010.05.17/outbox.cif.g08.bks.cpg/sg63_17_cif.got.tgz:32525.got - 2010.06.03 15:47:04.
