data_PCOD9468013
_publ_section_title
;
Structure prediction by ZEFSAII (Michael W. Deem and Ramdas Pophale) SiO2 
 PCOD9468013
Probable space group: P N M A
;
_chemical_formula_sum "Si O2"
_cell_formula_units_Z 56
_cell_length_a 21.000000
_cell_length_b 9.000000
_cell_length_c 15.000000
_cell_angle_alpha 90.000000
_cell_angle_beta 90.000000
_cell_angle_gamma 90.000000
_cell_volume 2835.000000
_symmetry_space_group_name_H-M "P N M A"
_symmetry_group_IT_number 62
_symmetry_cell_setting 'orthorhombic'
loop_
_space_group_symop_operation_xyz
x,y,z
1/2-x,-y,1/2+z
1/2+x,1/2-y,1/2-z
-x,1/2+y,-z
-x,-y,-z
1/2+x,y,1/2-z
1/2-x,1/2+y,1/2+z
x,1/2-y,z
loop_
_atom_site_type_symbol
_atom_site_label
_atom_site_fract_x
_atom_site_fract_y
_atom_site_fract_z
Si Si1 0.052124 0.425305 0.063393
Si Si2 0.148426 0.928913 0.340202
Si Si3 0.152325 0.921074 0.954757
Si Si4 0.270677 0.425334 0.002933
Si Si5 0.383857 0.076338 0.258427
Si Si6 0.477077 0.575166 0.772390
Si Si7 0.244728 0.072356 0.695771
O O1 0.059289 0.250000 0.042074
O O2 0.114689 0.518147 0.039329
O O3 0.036255 0.438351 0.166791
O O4 0.000000 0.500000 0.000000
O O5 0.149775 0.750000 0.338110
O O6 0.171307 0.974045 0.439504
O O7 0.197956 0.979799 0.261906
O O8 0.078269 0.987608 0.321158
O O9 0.172701 0.750000 0.966185
O O10 0.109745 0.926255 0.865850
O O11 0.210521 0.032012 0.942022
O O12 0.274804 0.250000 0.019085
O O13 0.257173 0.506434 0.095905
O O14 0.372579 0.250000 0.234441
O O15 0.449865 0.026202 0.214380
O O16 0.322805 0.981105 0.234480
O O17 0.473446 0.750000 0.794659
O O18 0.248370 0.250000 0.691280
#
# Coordination Sequence:
#
# PCOD9468013 Si02
#       7
#     8   8   8   8   8   8   8
#     4  11  21  34  53  83 120 159 197 242 299 365
#     4  10  23  41  61  89 124 157 199 252 304 361
#     4  11  21  36  58  86 120 157 199 248 302 363
#     4  11  23  41  62  89 122 158 202 253 308 363
#     4  10  21  39  60  86 121 159 200 248 301 360
#     4  10  22  39  58  85 121 160 203 247 302 364
#     4  11  23  41  64  93 122 157 208 256 304 364
#
# _framework density 19.753086
#
# number of rings (size 3 to 8) (size 9 to 14) (size 15 to 20)
#    0.000    1.429    2.857    2.571    0.000    6.857 
#    0.000    0.714    0.000    0.000    0.000    0.000 
#    0.000    0.000    0.000    0.000    0.000    0.000 
#
# Total GULP energy -312471.143870 kJ/mol
# GULP energy per Si atom -5579.841855 kJ/mol
# Density = 1.970813 g / cm^3
# Si number density = 19.753086 Si / 1000 Ang^3
#
#
#
# Elastic Constant Matrix: (Units=GPa)
#
#
# Indices 1 2 3 4 5 6 
#
# 1 71.7422 3.4578 6.5888 0.0000 0.0000 0.0000
# 2 3.4578 25.3872 17.8659 0.0000 0.0000 0.0000
# 3 6.5888 17.8659 48.4717 0.0000 0.0000 0.0000
# 4 0.0000 0.0000 0.0000 29.8324 0.0000 0.0000
# 5 0.0000 0.0000 0.0000 0.0000 30.2677 0.0000
# 6 0.0000 0.0000 0.0000 0.0000 0.0000 33.3495
#
#
#
# Elastic Compliance Matrix: (Units=1/GPa)
#
#
# Indices 1 2 3 4 5 6 
#
# 1 0.014126 -0.000773 -0.001635 0.000000 0.000000 0.000000
# 2 -0.000773 0.053228 -0.019514 0.000000 0.000000 0.000000
# 3 -0.001635 -0.019514 0.028045 0.000000 0.000000 0.000000
# 4 0.000000 0.000000 0.000000 0.033521 0.000000 0.000000
# 5 0.000000 0.000000 0.000000 0.000000 0.033039 0.000000
# 6 0.000000 0.000000 0.000000 0.000000 0.000000 0.029985
#
#
# Mechanical properties :
#
#
# Convention : Reuss Voigt Hill
#
# Bulk Modulus (GPa) = 19.39682 22.38069 20.88875
# Shear Modulus (GPa) = 19.76492 26.53583 23.15037
#
# Velocity S-wave (km/s) = 3.16666 3.66919 3.42714
# Velocity P-wave (km/s) = 4.81780 5.41345 5.12429
#
# Compressibility (1/GPa) = 0.05155483
#
# Stress axis : x y z
#
# Youngs Moduli (GPa) = 70.79018 18.78718 35.65655
#
# Poissons Ratio (x) = 0.01453 0.05831
# Poissons Ratio (y) = 0.05474 0.69579
# Poissons Ratio (z) = 0.11576 0.36661
#
# Static dielectric constant tensor:
#      x y z
#    x 1.689920 0.000000 0.000000 
#    y 0.000000 1.662970 0.000000 
#    z 0.000000 0.000000 1.711960 
# 
# From -- ./inp_files/20331.got.cif
#   From: 2010.05.17/outbox.ucp.g08.bks.cvg/sg62_11_cif.got.tgz:20331.got - 2010.06.11 16:29:25.
