data_PCOD9468098
_publ_section_title
;
Structure prediction by ZEFSAII (Michael W. Deem and Ramdas Pophale) SiO2 
 PCOD9468098
Probable space group: C M C M
;
_chemical_formula_sum "Si O2"
_cell_formula_units_Z 128
_cell_length_a 24.226835
_cell_length_b 11.985375
_cell_length_c 28.647619
_cell_angle_alpha 90.000000
_cell_angle_beta 90.000000
_cell_angle_gamma 90.000000
_cell_volume 8318.343312
_symmetry_space_group_name_H-M "C M C M"
_symmetry_group_IT_number 63
_symmetry_cell_setting 'orthorhombic'
loop_
_space_group_symop_operation_xyz
x,y,z
-x,-y,1/2+z
x,-y,-z
-x,y,1/2-z
-x,-y,-z
x,y,1/2-z
-x,y,z
x,-y,1/2+z
1/2+x,1/2+y,z
1/2-x,1/2-y,1/2+z
1/2+x,1/2-y,-z
1/2-x,1/2+y,1/2-z
1/2-x,1/2-y,-z
1/2+x,1/2+y,1/2-z
1/2-x,1/2+y,z
1/2+x,1/2-y,1/2+z
loop_
_atom_site_type_symbol
_atom_site_label
_atom_site_fract_x
_atom_site_fract_y
_atom_site_fract_z
Si Si1 0.819445 0.763828 0.055749
Si Si2 0.259954 0.741735 0.802863
Si Si3 0.348992 0.122436 0.357894
Si Si4 0.812839 0.775209 0.550252
Si Si5 0.935909 0.773316 0.305092
Si Si6 0.150320 0.040840 0.801600
Si Si7 0.312459 0.108029 0.872938
Si Si8 0.306105 0.495727 0.397711
O O1 0.842506 0.667891 0.089341
O O2 0.752998 0.750494 0.052797
O O3 0.831486 0.881298 0.081489
O O4 0.836193 0.762870 0.001754
O O5 0.245902 0.774552 0.750000
O O6 0.293606 0.836639 0.830410
O O7 0.304084 0.640122 0.800218
O O8 0.210400 0.691468 0.833242
O O9 0.399844 0.185681 0.334044
O O10 0.352069 0.989604 0.355580
O O11 0.836544 0.684297 0.586034
O O12 0.816260 0.901587 0.568214
O O13 0.930905 0.745745 0.250000
O O14 0.000000 0.774648 0.317882
O O15 0.906949 0.894247 0.310097
O O16 0.149900 0.987854 0.750000
O O17 0.168413 0.974076 0.847215
O O18 0.258274 0.038281 0.891025
#
# Coordination Sequence:
#
# PCOD9468098 Si02
#       8
#    16  16  16  16  16  16  16  16
#     4  10  18  27  43  61  87 126 159 190 230 254
#     4   9  16  27  39  57  85 119 147 170 214 272
#     4  11  17  30  45  65  93 120 152 188 233 278
#     4  10  19  28  39  62  90 125 161 191 214 264
#     4   9  17  30  49  72  93 113 147 198 245 279
#     4   8  14  25  44  65  87 111 138 178 228 278
#     4  10  18  28  39  61  92 123 154 184 218 269
#     4  10  15  29  43  61  93 123 157 186 221 271
#
# _framework density 15.387679
#
# number of rings (size 3 to 8) (size 9 to 14) (size 15 to 20)
#    0.000    2.375    6.250    1.500    0.000    1.500 
#    0.000    3.125    0.000    0.000    0.000    4.375 
#    0.000    2.000    0.000    0.000    0.000    0.000 
#
# Total GULP energy -356345.684809 kJ/mol
# GULP energy per Si atom -5567.901325 kJ/mol
# Density = 1.535266 g / cm^3
# Si number density = 15.387679 Si / 1000 Ang^3
#
#
#
# Elastic Constant Matrix: (Units=GPa)
#
#
# Indices 1 2 3 4 5 6 
#
# 1 35.7803 5.3339 15.6736 0.0000 0.0000 0.0000
# 2 5.3339 48.7312 20.2746 0.0000 0.0000 0.0000
# 3 15.6736 20.2746 97.4577 0.0000 0.0000 0.0000
# 4 0.0000 0.0000 0.0000 7.3989 0.0000 0.0000
# 5 0.0000 0.0000 0.0000 0.0000 9.7598 0.0000
# 6 0.0000 0.0000 0.0000 0.0000 0.0000 7.5169
#
#
#
# Elastic Compliance Matrix: (Units=1/GPa)
#
#
# Indices 1 2 3 4 5 6 
#
# 1 0.030154 -0.001404 -0.004557 0.000000 0.000000 0.000000
# 2 -0.001404 0.022531 -0.004461 0.000000 0.000000 0.000000
# 3 -0.004557 -0.004461 0.011922 0.000000 0.000000 0.000000
# 4 0.000000 0.000000 0.000000 0.135156 0.000000 0.000000
# 5 0.000000 0.000000 0.000000 0.000000 0.102461 0.000000
# 6 0.000000 0.000000 0.000000 0.000000 0.000000 0.133034
#
#
# Mechanical properties :
#
#
# Convention : Reuss Voigt Hill
#
# Bulk Modulus (GPa) = 22.85173 29.39261 26.12217
# Shear Modulus (GPa) = 10.62269 14.31425 12.46847
#
# Velocity S-wave (km/s) = 2.63028 3.05329 2.84965
# Velocity P-wave (km/s) = 4.90993 5.61899 5.27638
#
# Compressibility (1/GPa) = 0.04376036
#
# Stress axis : x y z
#
# Youngs Moduli (GPa) = 33.16308 44.38412 83.87934
#
# Poissons Ratio (x) = 0.06234 0.38226
# Poissons Ratio (y) = 0.04658 0.37421
# Poissons Ratio (z) = 0.15113 0.19801
#
# Static dielectric constant tensor:
#      x y z
#    x 1.493180 0.000000 0.000000 
#    y 0.000000 1.525490 0.000000 
#    z 0.000000 0.000000 1.564630 
# 
# From -- ./inp_files/70824.got.cif
#   From: 2010.05.17/outbox.cif.g08.bks.cpg/sg63_36_cif.got.tgz:70824.got - 2010.06.03 15:47:04.
