data_PCOD9468180
_publ_section_title
;
Structure prediction by ZEFSAII (Michael W. Deem and Ramdas Pophale) SiO2 
 PCOD9468180
Probable space group: C M C M
;
_chemical_formula_sum "Si O2"
_cell_formula_units_Z 120
_cell_length_a 13.810402
_cell_length_b 18.849564
_cell_length_c 23.735104
_cell_angle_alpha 90.000000
_cell_angle_beta 90.000000
_cell_angle_gamma 90.000000
_cell_volume 6178.723611
_symmetry_space_group_name_H-M "C M C M"
_symmetry_group_IT_number 63
_symmetry_cell_setting 'orthorhombic'
loop_
_space_group_symop_operation_xyz
x,y,z
-x,-y,1/2+z
x,-y,-z
-x,y,1/2-z
-x,-y,-z
x,y,1/2-z
-x,y,z
x,-y,1/2+z
1/2+x,1/2+y,z
1/2-x,1/2-y,1/2+z
1/2+x,1/2-y,-z
1/2-x,1/2+y,1/2-z
1/2-x,1/2-y,-z
1/2+x,1/2+y,1/2-z
1/2-x,1/2+y,z
1/2+x,1/2-y,1/2+z
loop_
_atom_site_type_symbol
_atom_site_label
_atom_site_fract_x
_atom_site_fract_y
_atom_site_fract_z
Si Si1 0.887981 0.361888 0.453658
Si Si2 0.705919 0.096975 0.661514
Si Si3 0.886540 0.794036 0.934905
Si Si4 0.613522 0.239946 0.808927
Si Si5 0.775010 0.920947 0.902634
Si Si6 0.613994 0.055306 0.315383
Si Si7 0.186707 0.500000 0.000000
Si Si8 0.611696 0.492498 0.184819
O O1 0.819540 0.382353 0.402133
O O2 0.867874 0.279564 0.468123
O O3 0.874979 0.427493 0.495764
O O4 0.000000 0.361547 0.434208
O O5 0.674974 0.168396 0.692106
O O6 0.814793 0.071955 0.672877
O O7 0.642218 0.028132 0.678594
O O8 0.870388 0.778029 0.868162
O O9 0.813493 0.858628 0.942912
O O10 0.000000 0.812847 0.943176
O O11 0.630913 0.280500 0.750000
O O12 0.500000 0.220313 0.809958
O O13 0.682394 0.907275 0.861983
O O14 0.749250 0.985381 0.944414
O O15 0.857171 0.946589 0.858917
O O16 0.633170 0.075748 0.250000
O O17 0.500000 0.064750 0.326654
O O18 0.626311 0.514664 0.250000
O O19 0.500000 0.473734 0.177441
#
# Coordination Sequence:
#
# PCOD9468180 Si02
#       8
#    16  16  16  16  16  16   8  16
#     4  10  20  36  60  88 114 141 181 235 292 343
#     4  10  16  29  51  79 116 142 178 225 285 337
#     4   9  20  37  55  77 112 151 187 236 285 335
#     4   9  16  26  48  82 112 141 177 224 287 346
#     4  11  22  37  56  83 115 151 195 234 288 339
#     4  10  19  31  52  83 117 150 185 231 289 347
#     4  12  23  36  61  88 114 150 189 238 295 342
#     4  10  20  34  54  79 110 150 196 240 279 329
#
# _framework density 19.421486999999999
#
# number of rings (size 3 to 8) (size 9 to 14) (size 15 to 20)
#    0.000    2.000    2.667    5.000    0.000    3.200 
#    0.000    2.667    0.000    3.200    0.000    7.467 
#    0.000    0.000    0.000    0.000    0.000    0.000 
#
# Total GULP energy -334162.785742 kJ/mol
# GULP energy per Si atom -5569.379762 kJ/mol
# Density = 1.937728 g / cm^3
# Si number density = 19.421487 Si / 1000 Ang^3
#
#
#
# Elastic Constant Matrix: (Units=GPa)
#
#
# Indices 1 2 3 4 5 6 
#
# 1 90.7663 32.9576 10.7644 0.0000 0.0000 0.0000
# 2 32.9576 73.2923 -1.8013 0.0000 0.0000 0.0000
# 3 10.7644 -1.8013 31.7141 0.0000 0.0000 0.0000
# 4 0.0000 0.0000 0.0000 -0.1389 0.0000 0.0000
# 5 0.0000 0.0000 0.0000 0.0000 17.2121 0.0000
# 6 0.0000 0.0000 0.0000 0.0000 0.0000 18.2395
#
#
#
# Elastic Compliance Matrix: (Units=1/GPa)
#
#
# Indices 1 2 3 4 5 6 
#
# 1 0.013944 -0.006395 -0.005096 0.000000 0.000000 0.000000
# 2 -0.006395 0.016596 0.003113 0.000000 0.000000 0.000000
# 3 -0.005096 0.003113 0.033438 0.000000 0.000000 0.000000
# 4 0.000000 0.000000 0.000000 -7.197430 0.000000 0.000000
# 5 0.000000 0.000000 0.000000 0.000000 0.058099 0.000000
# 6 0.000000 0.000000 0.000000 0.000000 0.000000 0.054826
#
#
# Mechanical properties :
#
#
# Convention : Reuss Voigt Hill
#
# Bulk Modulus (GPa) = 21.17645 31.06823 26.12234
# Shear Modulus (GPa) = -0.71551 17.31932 8.30191
#
# Velocity S-wave (km/s) = -0.60763 2.98948 2.06975
# Velocity P-wave (km/s) = 3.23033 5.28654 4.38078
#
# Compressibility (1/GPa) = 0.04722228
#
# Stress axis : x y z
#
# Youngs Moduli (GPa) = 71.71605 60.25414 29.90582
#
# Poissons Ratio (x) = 0.38535 0.15240
# Poissons Ratio (y) = 0.45866 -0.09311
# Poissons Ratio (z) = 0.36547 -0.18759
#
# Static dielectric constant tensor:
#      x y z
#    x 1.675730 0.000000 0.000000 
#    y 0.000000 1.718900 0.000000 
#    z 0.000000 0.000000 1.558080 
# 
# From -- ./inp_files/63284.got.cif
#   From: 2010.05.17/outbox.cif.g08.bks.cpg/sg63_32_cif.got.tgz:63284.got - 2010.06.03 15:47:04.
