data_PCOD9468598
_publ_section_title
;
Structure prediction by ZEFSAII (Michael W. Deem and Ramdas Pophale) SiO2 
 PCOD9468598
Probable space group: C M C M
;
_chemical_formula_sum "Si O2"
_cell_formula_units_Z 112
_cell_length_a 7.334855
_cell_length_b 24.638235
_cell_length_c 29.363917
_cell_angle_alpha 90.000000
_cell_angle_beta 90.000000
_cell_angle_gamma 90.000000
_cell_volume 5306.584863
_symmetry_space_group_name_H-M "C M C M"
_symmetry_group_IT_number 63
_symmetry_cell_setting 'orthorhombic'
loop_
_space_group_symop_operation_xyz
x,y,z
-x,-y,1/2+z
x,-y,-z
-x,y,1/2-z
-x,-y,-z
x,y,1/2-z
-x,y,z
x,-y,1/2+z
1/2+x,1/2+y,z
1/2-x,1/2-y,1/2+z
1/2+x,1/2-y,-z
1/2-x,1/2+y,1/2-z
1/2-x,1/2-y,-z
1/2+x,1/2+y,1/2-z
1/2-x,1/2+y,z
1/2+x,1/2-y,1/2+z
loop_
_atom_site_type_symbol
_atom_site_label
_atom_site_fract_x
_atom_site_fract_y
_atom_site_fract_z
Si Si1 0.722925 0.405172 0.474366
Si Si2 0.720038 0.801667 0.618044
Si Si3 0.278090 0.529468 0.615834
Si Si4 0.213509 0.080319 0.422731
Si Si5 0.721845 0.269414 0.301788
Si Si6 0.222079 0.892041 0.197033
Si Si7 0.216444 0.215887 0.545161
O O1 0.500000 0.405110 0.475924
O O2 0.773971 0.443276 0.432365
O O3 0.786709 0.419874 0.525378
O O4 0.785765 0.344574 0.461912
O O5 0.500000 0.801834 0.616928
O O6 0.772673 0.860290 0.599319
O O7 0.779949 0.780805 0.667295
O O8 0.787193 0.753557 0.585250
O O9 0.500000 0.531299 0.618579
O O10 0.216768 0.467154 0.610338
O O11 0.215947 0.564113 0.659632
O O12 0.000000 0.068319 0.428272
O O13 0.780346 0.263188 0.250000
O O14 0.500000 0.269866 0.302587
O O15 0.775701 0.330439 0.316855
O O16 0.277400 0.901257 0.250000
O O17 0.000000 0.892890 0.197256
O O18 0.250000 0.250000 0.500000
O O19 0.000000 0.210197 0.552779
#
# Coordination Sequence:
#
# PCOD9468598 Si02
#       7
#    16  16  16  16  16  16  16
#     4   9  16  27  43  62  85 114 150 188 219 257
#     4  10  19  30  46  67  92 121 151 184 223 266
#     4   9  16  26  42  63  85 114 153 189 222 263
#     4  10  19  30  44  64  92 125 154 181 217 263
#     4   8  14  26  45  68  91 115 146 186 230 271
#     4   8  13  23  41  65  90 111 138 186 239 271
#     4  10  18  28  44  66  90 115 145 182 223 266
#
# _framework density 21.105854000000001
#
# number of rings (size 3 to 8) (size 9 to 14) (size 15 to 20)
#    0.000    2.857    1.429    2.143    0.000    5.143 
#    0.000    0.714    0.000    3.857    0.000    1.000 
#    0.000    1.143    0.000    0.000    0.000    0.000 
#
# Total GULP energy -312403.601875 kJ/mol
# GULP energy per Si atom -5578.635748 kJ/mol
# Density = 2.105782 g / cm^3
# Si number density = 21.105854 Si / 1000 Ang^3
#
#
#
# Elastic Constant Matrix: (Units=GPa)
#
#
# Indices 1 2 3 4 5 6 
#
# 1 76.4917 -2.3074 -3.7590 0.0000 0.0000 0.0000
# 2 -2.3074 103.0485 76.9041 0.0000 0.0000 0.0000
# 3 -3.7590 76.9041 128.1197 0.0000 0.0000 0.0000
# 4 0.0000 0.0000 0.0000 30.3029 0.0000 0.0000
# 5 0.0000 0.0000 0.0000 0.0000 -2.7768 0.0000
# 6 0.0000 0.0000 0.0000 0.0000 0.0000 -24.3854
#
#
#
# Elastic Compliance Matrix: (Units=1/GPa)
#
#
# Indices 1 2 3 4 5 6 
#
# 1 0.013092 0.000012 0.000377 0.000000 0.000000 0.000000
# 2 0.000012 0.017579 -0.010551 0.000000 0.000000 0.000000
# 3 0.000377 -0.010551 0.014150 0.000000 0.000000 0.000000
# 4 0.000000 0.000000 0.000000 0.033000 0.000000 0.000000
# 5 0.000000 0.000000 0.000000 0.000000 -0.360123 0.000000
# 6 0.000000 0.000000 0.000000 0.000000 0.000000 -0.041008
#
#
# Mechanical properties :
#
#
# Convention : Reuss Voigt Hill
#
# Bulk Modulus (GPa) = 40.82359 49.92616 45.37488
# Shear Modulus (GPa) = -16.95953 16.41629 -0.27162
#
# Velocity S-wave (km/s) = -2.83776 2.79195 -0.35913
# Velocity P-wave (km/s) = 2.94059 5.83950 4.62314
#
# Compressibility (1/GPa) = 0.02449564
#
# Stress axis : x y z
#
# Youngs Moduli (GPa) = 76.38140 56.88660 70.67262
#
# Poissons Ratio (x) = -0.00067 -0.02665
# Poissons Ratio (y) = -0.00090 0.74569
# Poissons Ratio (z) = -0.02880 0.60023
#
# Static dielectric constant tensor:
#      x y z
#    x 1.612130 0.000000 0.000000 
#    y 0.000000 1.741370 0.000000 
#    z 0.000000 0.000000 1.763840 
# 
# From -- ./inp_files/68747.got.cif
#   From: 2010.05.17/outbox.cif.g08.bks.cpg/sg63_35_cif.got.tgz:68747.got - 2010.06.03 15:47:04.
