data_PCOD9468450
_publ_section_title
;
Structure prediction by ZEFSAII (Michael W. Deem and Ramdas Pophale) SiO2 
 PCOD9468450
Probable space group: C M C M
;
_chemical_formula_sum "Si O2"
_cell_formula_units_Z 88
_cell_length_a 15.603282
_cell_length_b 12.637049
_cell_length_c 23.254787
_cell_angle_alpha 90.000000
_cell_angle_beta 90.000000
_cell_angle_gamma 90.000000
_cell_volume 4585.365859
_symmetry_space_group_name_H-M "C M C M"
_symmetry_group_IT_number 63
_symmetry_cell_setting 'orthorhombic'
loop_
_space_group_symop_operation_xyz
x,y,z
-x,-y,1/2+z
x,-y,-z
-x,y,1/2-z
-x,-y,-z
x,y,1/2-z
-x,y,z
x,-y,1/2+z
1/2+x,1/2+y,z
1/2-x,1/2-y,1/2+z
1/2+x,1/2-y,-z
1/2-x,1/2+y,1/2-z
1/2-x,1/2-y,-z
1/2+x,1/2+y,1/2-z
1/2-x,1/2+y,z
1/2+x,1/2-y,1/2+z
loop_
_atom_site_type_symbol
_atom_site_label
_atom_site_fract_x
_atom_site_fract_y
_atom_site_fract_z
Si Si1 0.861846 0.431708 0.556075
Si Si2 0.151183 0.273909 0.121051
Si Si3 0.500000 0.948501 0.123172
Si Si4 0.701862 0.563693 0.907481
Si Si5 0.898369 0.928884 0.683156
Si Si6 0.397314 0.702910 0.994215
O O1 0.891491 0.500000 0.500000
O O2 0.768147 0.473661 0.571647
O O3 0.868983 0.311025 0.537772
O O4 0.925471 0.463717 0.606614
O O5 0.238409 0.340431 0.115480
O O6 0.147032 0.182250 0.168064
O O7 0.075254 0.357971 0.131067
O O8 0.132140 0.218363 0.059679
O O9 0.641733 0.516716 0.858331
O O10 0.647043 0.608130 0.960402
O O11 0.886775 0.955218 0.750000
O O12 0.000000 0.916956 0.671719
O O13 0.500000 0.694725 0.992977
#
# Coordination Sequence:
#
# PCOD9468450 Si02
#       6
#    16  16   8  16  16  16
#     4  11  19  33  56  87 128 160 186 225 288 357
#     4  11  21  37  61  90 118 154 198 240 290 354
#     4  10  17  34  57  89 122 159 193 225 279 353
#     4  11  25  35  59  91 123 153 194 245 294 350
#     4  11  25  46  63  79 110 156 206 251 299 344
#     4  12  21  35  57  90 130 161 191 225 295 366
#
# _framework density 19.191489000000001
#
# number of rings (size 3 to 8) (size 9 to 14) (size 15 to 20)
#    0.000    0.909    6.364    2.455    2.545    0.727 
#    0.000    1.818    0.000    0.000    0.000    0.000 
#    0.000    0.000    0.000    0.000    0.000    0.000 
#
# Total GULP energy -245013.403423 kJ/mol
# GULP energy per Si atom -5568.486441 kJ/mol
# Density = 1.914781 g / cm^3
# Si number density = 19.191489 Si / 1000 Ang^3
#
#
#
# Elastic Constant Matrix: (Units=GPa)
#
#
# Indices 1 2 3 4 5 6 
#
# 1 79.3106 45.7690 17.2425 0.0000 0.0000 0.0000
# 2 45.7690 60.9826 27.0575 0.0000 0.0000 0.0000
# 3 17.2425 27.0575 36.3298 0.0000 0.0000 0.0000
# 4 0.0000 0.0000 0.0000 14.6122 0.0000 0.0000
# 5 0.0000 0.0000 0.0000 0.0000 17.3464 0.0000
# 6 0.0000 0.0000 0.0000 0.0000 0.0000 18.5526
#
#
#
# Elastic Compliance Matrix: (Units=1/GPa)
#
#
# Indices 1 2 3 4 5 6 
#
# 1 0.022435 -0.018092 0.002827 0.000000 0.000000 0.000000
# 2 -0.018092 0.039081 -0.020520 0.000000 0.000000 0.000000
# 3 0.002827 -0.020520 0.041467 0.000000 0.000000 0.000000
# 4 0.000000 0.000000 0.000000 0.068436 0.000000 0.000000
# 5 0.000000 0.000000 0.000000 0.000000 0.057649 0.000000
# 6 0.000000 0.000000 0.000000 0.000000 0.000000 0.053901
#
#
# Mechanical properties :
#
#
# Convention : Reuss Voigt Hill
#
# Bulk Modulus (GPa) = 31.83488 39.64012 35.73750
# Shear Modulus (GPa) = 13.69826 15.87250 14.78538
#
# Velocity S-wave (km/s) = 2.67454 2.87898 2.77864
# Velocity P-wave (km/s) = 5.11484 5.63483 5.38112
#
# Compressibility (1/GPa) = 0.03141208
#
# Stress axis : x y z
#
# Youngs Moduli (GPa) = 44.57357 25.58773 24.11571
#
# Poissons Ratio (x) = 0.46294 -0.06817
# Poissons Ratio (y) = 0.80643 0.49485
# Poissons Ratio (z) = -0.12600 0.52506
#
# Static dielectric constant tensor:
#      x y z
#    x 1.669990 0.000000 0.000000 
#    y 0.000000 1.677150 0.000000 
#    z 0.000000 0.000000 1.665320 
# 
# From -- ./inp_files/62676.got.cif
#   From: 2010.05.17/outbox.cif.g08.bks.cpg/sg63_32_cif.got.tgz:62676.got - 2010.06.03 15:47:04.
