data_PCOD9468554
_publ_section_title
;
Structure prediction by ZEFSAII (Michael W. Deem and Ramdas Pophale) SiO2 
 PCOD9468554
Probable space group: C M C M
;
_chemical_formula_sum "Si O2"
_cell_formula_units_Z 88
_cell_length_a 19.610688
_cell_length_b 28.346828
_cell_length_c 8.114554
_cell_angle_alpha 90.000000
_cell_angle_beta 90.000000
_cell_angle_gamma 90.000000
_cell_volume 4510.887058
_symmetry_space_group_name_H-M "C M C M"
_symmetry_group_IT_number 63
_symmetry_cell_setting 'orthorhombic'
loop_
_space_group_symop_operation_xyz
x,y,z
-x,-y,1/2+z
x,-y,-z
-x,y,1/2-z
-x,-y,-z
x,y,1/2-z
-x,y,z
x,-y,1/2+z
1/2+x,1/2+y,z
1/2-x,1/2-y,1/2+z
1/2+x,1/2-y,-z
1/2-x,1/2+y,1/2-z
1/2-x,1/2-y,-z
1/2+x,1/2+y,1/2-z
1/2-x,1/2+y,z
1/2+x,1/2-y,1/2+z
loop_
_atom_site_type_symbol
_atom_site_label
_atom_site_fract_x
_atom_site_fract_y
_atom_site_fract_z
Si Si1 0.665423 0.152279 0.556287
Si Si2 0.306920 0.691249 0.057140
Si Si3 0.922558 0.736155 0.952161
Si Si4 0.000000 0.946122 0.550311
Si Si5 0.355122 0.584181 0.444476
Si Si6 0.712606 0.050612 0.445444
O O1 0.657908 0.145895 0.750000
O O2 0.733491 0.184007 0.526181
O O3 0.602557 0.184123 0.496256
O O4 0.674901 0.099899 0.484640
O O5 0.294064 0.702305 0.250000
O O6 0.363595 0.727512 0.992476
O O7 0.339406 0.639352 0.047526
O O8 0.922323 0.738000 0.750000
O O9 0.000000 0.746787 0.004612
O O10 0.929243 0.925421 0.484289
O O11 0.000000 0.940040 0.750000
O O12 0.000000 0.000000 0.500000
O O13 0.357937 0.571296 0.250000
O O14 0.289566 0.557326 0.517427
O O15 0.717892 0.048952 0.250000
O O16 0.683946 0.000000 0.500000
#
# Coordination Sequence:
#
# PCOD9468554 Si02
#       6
#    16  16  16   8  16  16
#     4  10  19  32  51  76 105 136 168 208 255 304
#     4   9  17  31  51  74  99 132 172 213 252 295
#     4   9  18  31  51  78 104 133 172 214 257 304
#     4  10  18  28  40  58  86 122 160 198 241 284
#     4   8  16  27  43  67  93 122 159 201 242 286
#     4  10  19  33  52  75  99 127 166 210 257 304
#
# _framework density 19.508357
#
# number of rings (size 3 to 8) (size 9 to 14) (size 15 to 20)
#    0.000    2.727    0.000    3.273    1.273    0.000 
#    0.000    4.545    0.000    5.455    0.000    0.000 
#    0.000    0.000    0.000    0.000    0.000    0.000 
#
# Total GULP energy -245121.636051 kJ/mol
# GULP energy per Si atom -5570.946274 kJ/mol
# Density = 1.946396 g / cm^3
# Si number density = 19.508357 Si / 1000 Ang^3
#
#
#
# Elastic Constant Matrix: (Units=GPa)
#
#
# Indices 1 2 3 4 5 6 
#
# 1 27.7276 16.2179 -2.3454 0.0000 0.0000 0.0000
# 2 16.2179 76.7517 9.2407 0.0000 0.0000 0.0000
# 3 -2.3454 9.2407 18.9470 0.0000 0.0000 0.0000
# 4 0.0000 0.0000 0.0000 20.4912 0.0000 0.0000
# 5 0.0000 0.0000 0.0000 0.0000 11.0460 0.0000
# 6 0.0000 0.0000 0.0000 0.0000 0.0000 9.1384
#
#
#
# Elastic Compliance Matrix: (Units=1/GPa)
#
#
# Indices 1 2 3 4 5 6 
#
# 1 0.042983 -0.010330 0.010359 0.000000 0.000000 0.000000
# 2 -0.010330 0.016324 -0.009240 0.000000 0.000000 0.000000
# 3 0.010359 -0.009240 0.058568 0.000000 0.000000 0.000000
# 4 0.000000 0.000000 0.000000 0.048801 0.000000 0.000000
# 5 0.000000 0.000000 0.000000 0.000000 0.090531 0.000000
# 6 0.000000 0.000000 0.000000 0.000000 0.000000 0.109429
#
#
# Mechanical properties :
#
#
# Convention : Reuss Voigt Hill
#
# Bulk Modulus (GPa) = 10.05503 18.85030 14.45267
# Shear Modulus (GPa) = 11.95574 14.82265 13.38920
#
# Velocity S-wave (km/s) = 2.47827 2.75946 2.62263
# Velocity P-wave (km/s) = 3.65438 4.45381 4.07376
#
# Compressibility (1/GPa) = 0.09945269
#
# Stress axis : x y z
#
# Youngs Moduli (GPa) = 23.26486 61.25871 17.07431
#
# Poissons Ratio (x) = 0.63278 -0.17687
# Poissons Ratio (y) = 0.24032 0.15777
# Poissons Ratio (z) = -0.24099 0.56604
#
# Static dielectric constant tensor:
#      x y z
#    x 1.695660 0.000000 0.000000 
#    y 0.000000 1.697120 0.000000 
#    z 0.000000 0.000000 1.704020 
# 
# From -- ./inp_files/6840.got.cif
#   From: 2010.05.17/outbox.cif.g08.bks.cpg/sg63_4_cif.got.tgz:6840.got - 2010.06.03 15:47:04.
