data_PCOD9468253
_publ_section_title
;
Structure prediction by ZEFSAII (Michael W. Deem and Ramdas Pophale) SiO2 
 PCOD9468253
Probable space group: C M C M
;
_chemical_formula_sum "Si O2"
_cell_formula_units_Z 56
_cell_length_a 27.348947
_cell_length_b 8.656209
_cell_length_c 9.510663
_cell_angle_alpha 90.000000
_cell_angle_beta 90.000000
_cell_angle_gamma 90.000000
_cell_volume 2251.537250
_symmetry_space_group_name_H-M "C M C M"
_symmetry_group_IT_number 63
_symmetry_cell_setting 'orthorhombic'
loop_
_space_group_symop_operation_xyz
x,y,z
-x,-y,1/2+z
x,-y,-z
-x,y,1/2-z
-x,-y,-z
x,y,1/2-z
-x,y,z
x,-y,1/2+z
1/2+x,1/2+y,z
1/2-x,1/2-y,1/2+z
1/2+x,1/2-y,-z
1/2-x,1/2+y,1/2-z
1/2-x,1/2-y,-z
1/2+x,1/2+y,1/2-z
1/2-x,1/2+y,z
1/2+x,1/2-y,1/2+z
loop_
_atom_site_type_symbol
_atom_site_label
_atom_site_fract_x
_atom_site_fract_y
_atom_site_fract_z
Si Si1 0.309363 0.000000 0.500000
Si Si2 0.443240 0.908995 0.750000
Si Si3 0.118233 0.238981 0.990363
Si Si4 0.751205 0.657613 0.250000
Si Si5 0.056690 0.216714 0.250000
Si Si6 0.321904 0.427707 0.250000
O O1 0.344491 0.864508 0.443788
O O2 0.276360 0.916096 0.613647
O O3 0.500000 0.864039 0.750000
O O4 0.416475 0.837661 0.614642
O O5 0.441422 0.095146 0.750000
O O6 0.148873 0.128010 0.886992
O O7 0.085170 0.164864 0.110721
O O8 0.695240 0.604084 0.250000
O O9 0.770623 0.831684 0.250000
O O10 0.000000 0.169747 0.250000
#
# Coordination Sequence:
#
# PCOD9468253 Si02
#       6
#     8   8  16   8   8   8
#     4  10  18  32  53  70 110 142 185 222 274 316
#     4  10  17  26  42  67 103 144 183 212 258 337
#     4  10  18  30  46  70 103 150 181 215 275 329
#     4  10  21  36  54  78 102 146 194 227 274 320
#     4  11  18  26  46  75 109 146 184 215 260 343
#     4   9  22  38  55  74 108 154 186 226 274 326
#
# _framework density 24.871897000000001
#
# number of rings (size 3 to 8) (size 9 to 14) (size 15 to 20)
#    0.000    2.000    2.857    2.571    0.000    6.857 
#    0.000    1.429    0.000    0.000    0.000    0.000 
#    0.000    0.000    0.000  493.714    0.000    0.000 
#
# Total GULP energy -156964.293368 kJ/mol
# GULP energy per Si atom -5605.867620 kJ/mol
# Density = 2.481529 g / cm^3
# Si number density = 24.871897 Si / 1000 Ang^3
#
#
#
# Elastic Constant Matrix: (Units=GPa)
#
#
# Indices 1 2 3 4 5 6 
#
# 1 132.4551 61.2720 32.4220 0.0000 0.0000 0.0000
# 2 61.2720 90.1777 33.0051 0.0000 0.0000 0.0000
# 3 32.4220 33.0051 103.1339 0.0000 0.0000 0.0000
# 4 0.0000 0.0000 0.0000 133.4122 0.0000 0.0000
# 5 0.0000 0.0000 0.0000 0.0000 23.2462 0.0000
# 6 0.0000 0.0000 0.0000 0.0000 0.0000 33.2858
#
#
#
# Elastic Compliance Matrix: (Units=1/GPa)
#
#
# Indices 1 2 3 4 5 6 
#
# 1 0.011145 -0.007125 -0.001224 0.000000 0.000000 0.000000
# 2 -0.007125 0.017115 -0.003237 0.000000 0.000000 0.000000
# 3 -0.001224 -0.003237 0.011117 0.000000 0.000000 0.000000
# 4 0.000000 0.000000 0.000000 0.007496 0.000000 0.000000
# 5 0.000000 0.000000 0.000000 0.000000 0.043018 0.000000
# 6 0.000000 0.000000 0.000000 0.000000 0.000000 0.030043
#
#
# Mechanical properties :
#
#
# Convention : Reuss Voigt Hill
#
# Bulk Modulus (GPa) = 61.70751 64.35166 63.02958
# Shear Modulus (GPa) = 33.66857 51.26003 42.46430
#
# Velocity S-wave (km/s) = 3.68323 4.54471 4.13646
# Velocity P-wave (km/s) = 6.55380 7.31222 6.94337
#
# Compressibility (1/GPa) = 0.01620548
#
# Stress axis : x y z
#
# Youngs Moduli (GPa) = 89.72590 58.42795 89.95379
#
# Poissons Ratio (x) = 0.41629 0.11006
# Poissons Ratio (y) = 0.63928 0.29122
# Poissons Ratio (z) = 0.10979 0.18916
#
# Static dielectric constant tensor:
#      x y z
#    x 1.939900 0.000000 0.000000 
#    y 0.000000 1.949110 0.000000 
#    z 0.000000 0.000000 1.913630 
# 
# From -- ./inp_files/11493.got.cif
#   From: 2010.05.17/outbox.cif.g08.bks.cpg/sg63_6_cif.got.tgz:11493.got - 2010.06.03 15:47:04.
