data_PCOD9468059
_publ_section_title
;
Structure prediction by ZEFSAII (Michael W. Deem and Ramdas Pophale) SiO2 
 PCOD9468059
Probable space group: P N M A
;
_chemical_formula_sum "Si O2"
_cell_formula_units_Z 40
_cell_length_a 18.000000
_cell_length_b 9.000000
_cell_length_c 12.000000
_cell_angle_alpha 90.000000
_cell_angle_beta 90.000000
_cell_angle_gamma 90.000000
_cell_volume 1944.000000
_symmetry_space_group_name_H-M "P N M A"
_symmetry_group_IT_number 62
_symmetry_cell_setting 'orthorhombic'
loop_
_space_group_symop_operation_xyz
x,y,z
1/2-x,-y,1/2+z
1/2+x,1/2-y,1/2-z
-x,1/2+y,-z
-x,-y,-z
1/2+x,y,1/2-z
1/2-x,1/2+y,1/2+z
x,1/2-y,z
loop_
_atom_site_type_symbol
_atom_site_label
_atom_site_fract_x
_atom_site_fract_y
_atom_site_fract_z
Si Si1 0.667603 0.750000 0.623207
Si Si2 0.720490 0.250000 0.742808
Si Si3 0.714875 0.750000 0.884989
Si Si4 0.063980 0.250000 0.881935
Si Si5 0.292674 0.051576 0.579912
Si Si6 0.012480 0.250000 0.138115
Si Si7 0.940592 0.448800 0.778076
Si Si8 0.371745 0.250000 0.898920
O O1 0.694111 0.750000 0.752448
O O2 0.699210 0.614980 0.545565
O O3 0.577210 0.750000 0.621736
O O4 0.645798 0.250000 0.670657
O O5 0.732179 0.381132 0.833120
O O6 0.790620 0.250000 0.659523
O O7 0.767193 0.614600 0.918929
O O8 0.643718 0.750000 0.969363
O O9 0.015745 0.382596 0.829858
O O10 0.051429 0.250000 0.015234
O O11 0.371636 0.083222 0.638763
O O12 0.042455 0.382412 0.211960
O O13 0.916581 0.386609 0.658023
#
# Coordination Sequence:
#
# PCOD9468059 Si02
#       8
#     4   4   4   4   8   4   8   4
#     4  11  26  45  65 105 140 167 233 297 329 406
#     4   9  22  40  68  93 135 175 219 279 345 405
#     4  12  27  39  76  94 130 197 233 263 355 416
#     4  11  21  37  68 103 134 179 224 279 353 405
#     4  10  23  46  63 102 140 171 224 294 337 401
#     4  12  23  37  68 107 134 169 231 297 334 391
#     4  10  22  41  65  93 142 173 210 288 355 383
#     4   9  23  46  59  90 133 179 222 267 330 425
#
# _framework density 20.576132000000001
#
# number of rings (size 3 to 8) (size 9 to 14) (size 15 to 20)
#    0.000    1.600    2.000    2.400   11.200    0.000 
#    0.000    1.000    0.000    0.000    0.000    0.000 
#    0.000    0.000    0.000    0.000    0.000    0.000 
#
# Total GULP energy -222873.979296 kJ/mol
# GULP energy per Si atom -5571.849482 kJ/mol
# Density = 2.052930 g / cm^3
# Si number density = 20.576132 Si / 1000 Ang^3
#
#
#
# Elastic Constant Matrix: (Units=GPa)
#
#
# Indices 1 2 3 4 5 6 
#
# 1 118.1356 44.0987 45.8994 0.0000 0.0000 0.0000
# 2 44.0987 179.0945 51.9322 0.0000 0.0000 0.0000
# 3 45.8994 51.9322 166.6223 0.0000 0.0000 0.0000
# 4 0.0000 0.0000 0.0000 -168.4480 0.0000 0.0000
# 5 0.0000 0.0000 0.0000 0.0000 41.1350 0.0000
# 6 0.0000 0.0000 0.0000 0.0000 0.0000 -22.0523
#
#
#
# Elastic Compliance Matrix: (Units=1/GPa)
#
#
# Indices 1 2 3 4 5 6 
#
# 1 0.009996 -0.001828 -0.002184 0.000000 0.000000 0.000000
# 2 -0.001828 0.006473 -0.001514 0.000000 0.000000 0.000000
# 3 -0.002184 -0.001514 0.007075 0.000000 0.000000 0.000000
# 4 0.000000 0.000000 0.000000 -0.005937 0.000000 0.000000
# 5 0.000000 0.000000 0.000000 0.000000 0.024310 0.000000
# 6 0.000000 0.000000 0.000000 0.000000 0.000000 -0.045347
#
#
# Mechanical properties :
#
#
# Convention : Reuss Voigt Hill
#
# Bulk Modulus (GPa) = 80.05013 83.07922 81.56468
# Shear Modulus (GPa) = 424.24592 -8.41160 207.91716
#
# Velocity S-wave (km/s) = 14.37467 -2.02408 10.06316
# Velocity P-wave (km/s) = 17.73406 5.91622 13.21928
#
# Compressibility (1/GPa) = 0.01249217
#
# Stress axis : x y z
#
# Youngs Moduli (GPa) = 100.04311 154.49429 141.34308
#
# Poissons Ratio (x) = 0.28242 0.30866
# Poissons Ratio (y) = 0.18288 0.21397
# Poissons Ratio (z) = 0.21847 0.23388
#
# Static dielectric constant tensor:
#      x y z
#    x 1.711850 0.000000 0.000000 
#    y 0.000000 1.906480 0.000000 
#    z 0.000000 0.000000 1.684300 
# 
# From -- ./inp_files/13947.got.cif
#   From: 2010.05.17/outbox.ucp.g08.bks.cvg/sg62_7_cif.got.tgz:13947.got - 2010.06.11 16:29:25.
