data_PCOD9468200
_publ_section_title
;
Structure prediction by ZEFSAII (Michael W. Deem and Ramdas Pophale) SiO2 
 PCOD9468200
Probable space group: C M C M
;
_chemical_formula_sum "Si O2"
_cell_formula_units_Z 88
_cell_length_a 12.173996
_cell_length_b 13.894351
_cell_length_c 26.446957
_cell_angle_alpha 90.000000
_cell_angle_beta 90.000000
_cell_angle_gamma 90.000000
_cell_volume 4473.496786
_symmetry_space_group_name_H-M "C M C M"
_symmetry_group_IT_number 63
_symmetry_cell_setting 'orthorhombic'
loop_
_space_group_symop_operation_xyz
x,y,z
-x,-y,1/2+z
x,-y,-z
-x,y,1/2-z
-x,-y,-z
x,y,1/2-z
-x,y,z
x,-y,1/2+z
1/2+x,1/2+y,z
1/2-x,1/2-y,1/2+z
1/2+x,1/2-y,-z
1/2-x,1/2+y,1/2-z
1/2-x,1/2-y,-z
1/2+x,1/2+y,1/2-z
1/2-x,1/2+y,z
1/2+x,1/2-y,1/2+z
loop_
_atom_site_type_symbol
_atom_site_label
_atom_site_fract_x
_atom_site_fract_y
_atom_site_fract_z
Si Si1 0.775485 0.047786 0.660431
Si Si2 0.000000 0.003986 0.696552
Si Si3 0.376951 0.949633 0.250000
Si Si4 0.500000 0.616250 0.493177
Si Si5 0.373528 0.684024 0.582395
Si Si6 0.000000 0.827089 0.876448
Si Si7 0.871429 0.314770 0.750000
Si Si8 0.755965 0.181037 0.147222
O O1 0.887954 0.060405 0.692002
O O2 0.681476 0.080430 0.698320
O O3 0.797793 0.104803 0.609314
O O4 0.759563 0.934850 0.649151
O O5 0.000000 0.949371 0.750000
O O6 0.000000 0.930794 0.650578
O O7 0.500000 0.915411 0.250000
O O8 0.373138 0.067343 0.250000
O O9 0.500000 0.500000 0.500000
O O10 0.395554 0.659590 0.523938
O O11 0.500000 0.651385 0.436054
O O12 0.500000 0.679314 0.602683
O O13 0.317273 0.781922 0.600473
O O14 0.117707 0.784092 0.859620
O O15 0.804543 0.287212 0.699195
O O16 0.000000 0.283875 0.750000
#
# Coordination Sequence:
#
# PCOD9468200 Si02
#       8
#    16   8   8   8  16   8   8  16
#     4  10  18  34  57  84 122 156 199 255 302 355
#     4  10  16  30  58  86 110 148 203 244 293 353
#     4   9  18  30  49  81 119 171 194 227 315 382
#     4  10  20  40  64  92 119 152 208 270 313 346
#     4  10  22  38  63  89 116 153 216 255 299 354
#     4  10  22  34  58  85 126 161 194 247 315 367
#     4   9  18  34  57  85 129 159 200 255 299 356
#     4  10  21  36  58  91 121 162 199 248 309 368
#
# _framework density 19.671412
#
# number of rings (size 3 to 8) (size 9 to 14) (size 15 to 20)
#    0.545    1.636    1.818    2.727    3.818    2.182 
#    1.636    0.909    0.000    0.000    0.000    1.909 
#    0.000    0.000    0.000    0.000    0.000    0.000 
#
# Total GULP energy -245104.383035 kJ/mol
# GULP energy per Si atom -5570.554160 kJ/mol
# Density = 1.962664 g / cm^3
# Si number density = 19.671412 Si / 1000 Ang^3
#
#
#
# Elastic Constant Matrix: (Units=GPa)
#
#
# Indices 1 2 3 4 5 6 
#
# 1 143.4911 27.7317 66.0379 0.0000 0.0000 0.0000
# 2 27.7317 61.4954 18.8167 0.0000 0.0000 0.0000
# 3 66.0379 18.8167 141.6553 0.0000 0.0000 0.0000
# 4 0.0000 0.0000 0.0000 49.2506 0.0000 0.0000
# 5 0.0000 0.0000 0.0000 0.0000 32.2391 0.0000
# 6 0.0000 0.0000 0.0000 0.0000 0.0000 21.7233
#
#
#
# Elastic Compliance Matrix: (Units=1/GPa)
#
#
# Indices 1 2 3 4 5 6 
#
# 1 0.009380 -0.003014 -0.003972 0.000000 0.000000 0.000000
# 2 -0.003014 0.017919 -0.000975 0.000000 0.000000 0.000000
# 3 -0.003972 -0.000975 0.009041 0.000000 0.000000 0.000000
# 4 0.000000 0.000000 0.000000 0.020304 0.000000 0.000000
# 5 0.000000 0.000000 0.000000 0.000000 0.031018 0.000000
# 6 0.000000 0.000000 0.000000 0.000000 0.000000 0.046033
#
#
# Mechanical properties :
#
#
# Convention : Reuss Voigt Hill
#
# Bulk Modulus (GPa) = 48.98072 63.53490 56.25781
# Shear Modulus (GPa) = 31.96431 36.24631 34.10531
#
# Velocity S-wave (km/s) = 4.03539 4.29719 4.16835
# Velocity P-wave (km/s) = 6.83125 7.54913 7.19915
#
# Compressibility (1/GPa) = 0.02041620
#
# Stress axis : x y z
#
# Youngs Moduli (GPa) = 106.61204 55.80642 110.61031
#
# Poissons Ratio (x) = 0.16822 0.43938
# Poissons Ratio (y) = 0.32137 0.10784
# Poissons Ratio (z) = 0.42350 0.05441
#
# Static dielectric constant tensor:
#      x y z
#    x 1.721620 0.000000 0.000000 
#    y 0.000000 1.720560 0.000000 
#    z 0.000000 0.000000 1.701160 
# 
# From -- ./inp_files/68255.got.cif
#   From: 2010.05.17/outbox.cif.g08.bks.cpg/sg63_35_cif.got.tgz:68255.got - 2010.06.03 15:47:04.
