data_PCOD9468577
_publ_section_title
;
Structure prediction by ZEFSAII (Michael W. Deem and Ramdas Pophale) SiO2 
 PCOD9468577
Probable space group: C M C M
;
_chemical_formula_sum "Si O2"
_cell_formula_units_Z 112
_cell_length_a 14.674321
_cell_length_b 30.290537
_cell_length_c 14.638094
_cell_angle_alpha 90.000000
_cell_angle_beta 90.000000
_cell_angle_gamma 90.000000
_cell_volume 6506.531241
_symmetry_space_group_name_H-M "C M C M"
_symmetry_group_IT_number 63
_symmetry_cell_setting 'orthorhombic'
loop_
_space_group_symop_operation_xyz
x,y,z
-x,-y,1/2+z
x,-y,-z
-x,y,1/2-z
-x,-y,-z
x,y,1/2-z
-x,y,z
x,-y,1/2+z
1/2+x,1/2+y,z
1/2-x,1/2-y,1/2+z
1/2+x,1/2-y,-z
1/2-x,1/2+y,1/2-z
1/2-x,1/2-y,-z
1/2+x,1/2+y,1/2-z
1/2-x,1/2+y,z
1/2+x,1/2-y,1/2+z
loop_
_atom_site_type_symbol
_atom_site_label
_atom_site_fract_x
_atom_site_fract_y
_atom_site_fract_z
Si Si1 0.604945 0.773719 0.645512
Si Si2 0.396090 0.896243 0.048607
Si Si3 0.608528 0.721109 0.468296
Si Si4 0.726036 0.339173 0.852689
Si Si5 0.343516 0.081880 0.146729
Si Si6 0.393465 0.016866 0.856835
Si Si7 0.888808 0.307700 0.144165
O O1 0.608248 0.757890 0.750000
O O2 0.500000 0.788519 0.626475
O O3 0.626743 0.736219 0.571711
O O4 0.677965 0.812877 0.637904
O O5 0.500000 0.897509 0.083132
O O6 0.355603 0.942011 0.086308
O O7 0.356638 0.850983 0.088924
O O8 0.396683 0.898818 0.939666
O O9 0.500000 0.715587 0.458156
O O10 0.660580 0.679043 0.430095
O O11 0.639092 0.762741 0.405784
O O12 0.690992 0.329033 0.750000
O O13 0.749760 0.390799 0.857286
O O14 0.381068 0.089513 0.250000
O O15 0.341540 0.029348 0.133638
O O16 0.393055 0.029148 0.750000
O O17 0.500000 0.007883 0.882717
O O18 0.861045 0.309016 0.250000
O O19 0.000000 0.307469 0.141605
#
# Coordination Sequence:
#
# PCOD9468577 Si02
#       7
#    16  16  16  16  16  16  16
#     4   9  18  31  46  66  92 122 156 192 232 281
#     4  10  18  28  43  63  88 118 152 190 230 271
#     4  10  19  32  51  71  92 123 162 203 244 282
#     4  10  20  32  46  65  92 126 162 202 241 276
#     4  10  20  30  40  58  85 118 154 188 224 268
#     4   9  17  29  45  65  90 121 156 192 230 275
#     4   9  17  28  42  62  87 114 147 188 233 279
#
# _framework density 17.213473
#
# number of rings (size 3 to 8) (size 9 to 14) (size 15 to 20)
#    0.000    2.429    0.000    3.000    0.000    6.857 
#    0.000    4.286    0.000    0.857    0.000    0.000 
#    0.000    2.286    0.000    0.857    0.000   20.714 
#
# Total GULP energy -312163.094646 kJ/mol
# GULP energy per Si atom -5574.340976 kJ/mol
# Density = 1.717429 g / cm^3
# Si number density = 17.213473 Si / 1000 Ang^3
#
#
#
# Elastic Constant Matrix: (Units=GPa)
#
#
# Indices 1 2 3 4 5 6 
#
# 1 28.0169 16.7418 15.3816 0.0000 0.0000 0.0000
# 2 16.7418 83.2850 34.2536 0.0000 0.0000 0.0000
# 3 15.3816 34.2536 83.1957 0.0000 0.0000 0.0000
# 4 0.0000 0.0000 0.0000 16.1028 0.0000 0.0000
# 5 0.0000 0.0000 0.0000 0.0000 14.4105 0.0000
# 6 0.0000 0.0000 0.0000 0.0000 0.0000 19.1589
#
#
#
# Elastic Compliance Matrix: (Units=1/GPa)
#
#
# Indices 1 2 3 4 5 6 
#
# 1 0.042360 -0.006373 -0.005208 0.000000 0.000000 0.000000
# 2 -0.006373 0.015414 -0.005168 0.000000 0.000000 0.000000
# 3 -0.005208 -0.005168 0.015110 0.000000 0.000000 0.000000
# 4 0.000000 0.000000 0.000000 0.062101 0.000000 0.000000
# 5 0.000000 0.000000 0.000000 0.000000 0.069394 0.000000
# 6 0.000000 0.000000 0.000000 0.000000 0.000000 0.052195
#
#
# Mechanical properties :
#
#
# Convention : Reuss Voigt Hill
#
# Bulk Modulus (GPa) = 25.38939 36.36130 30.87534
# Shear Modulus (GPa) = 16.49072 18.47581 17.48327
#
# Velocity S-wave (km/s) = 3.09854 3.27973 3.19042
# Velocity P-wave (km/s) = 5.25195 5.95918 5.61671
#
# Compressibility (1/GPa) = 0.03938653
#
# Stress axis : x y z
#
# Youngs Moduli (GPa) = 23.60702 64.87801 66.17970
#
# Poissons Ratio (x) = 0.41349 0.34464
# Poissons Ratio (y) = 0.15046 0.34200
# Poissons Ratio (z) = 0.12294 0.33528
#
# Static dielectric constant tensor:
#      x y z
#    x 1.587470 0.000000 0.000000 
#    y 0.000000 1.604900 0.000000 
#    z 0.000000 0.000000 1.627530 
# 
# From -- ./inp_files/32569.got.cif
#   From: 2010.05.17/outbox.cif.g08.bks.cpg/sg63_17_cif.got.tgz:32569.got - 2010.06.03 15:47:04.
