data_PCOD9468788
_publ_section_title
;
Structure prediction by ZEFSAII (Michael W. Deem and Ramdas Pophale) SiO2 
 PCOD9468788
Probable space group: C M C M
;
_chemical_formula_sum "Si O2"
_cell_formula_units_Z 80
_cell_length_a 17.455148
_cell_length_b 28.767769
_cell_length_c 8.082331
_cell_angle_alpha 90.000000
_cell_angle_beta 90.000000
_cell_angle_gamma 90.000000
_cell_volume 4058.507479
_symmetry_space_group_name_H-M "C M C M"
_symmetry_group_IT_number 63
_symmetry_cell_setting 'orthorhombic'
loop_
_space_group_symop_operation_xyz
x,y,z
-x,-y,1/2+z
x,-y,-z
-x,y,1/2-z
-x,-y,-z
x,y,1/2-z
-x,y,z
x,-y,1/2+z
1/2+x,1/2+y,z
1/2-x,1/2-y,1/2+z
1/2+x,1/2-y,-z
1/2-x,1/2+y,1/2-z
1/2-x,1/2-y,-z
1/2+x,1/2+y,1/2-z
1/2-x,1/2+y,z
1/2+x,1/2-y,1/2+z
loop_
_atom_site_type_symbol
_atom_site_label
_atom_site_fract_x
_atom_site_fract_y
_atom_site_fract_z
Si Si1 0.740352 0.642209 0.950396
Si Si2 0.648335 0.222118 0.557457
Si Si3 0.500000 0.842422 0.065876
Si Si4 0.669581 0.950461 0.552168
Si Si5 0.413515 0.320154 0.445793
Si Si6 0.000000 0.438417 0.936752
O O1 0.741745 0.644853 0.750000
O O2 0.784360 0.689004 0.010057
O O3 0.652365 0.645037 0.009555
O O4 0.784739 0.595296 0.996793
O O5 0.664698 0.233391 0.750000
O O6 0.574192 0.189168 0.552859
O O7 0.623259 0.269104 0.468732
O O8 0.500000 0.864194 0.250000
O O9 0.500000 0.882718 0.933879
O O10 0.664833 0.948361 0.750000
O O11 0.581964 0.949925 0.483495
O O12 0.704453 0.000000 0.500000
O O13 0.420218 0.328486 0.250000
O O14 0.500000 0.322001 0.516753
O O15 0.000000 0.457634 0.750000
#
# Coordination Sequence:
#
# PCOD9468788 Si02
#       6
#    16  16   8  16  16   8
#     4  10  21  37  55  77 107 142 180 221 266 315
#     4  10  19  32  51  76 107 145 183 217 258 308
#     4  10  18  29  49  76 109 148 179 211 258 303
#     4  11  23  38  57  81 108 139 175 216 263 314
#     4  10  21  35  53  78 108 142 179 222 269 314
#     4  10  21  35  53  80 110 142 178 213 253 305
#
# _framework density 19.711680999999999
#
# number of rings (size 3 to 8) (size 9 to 14) (size 15 to 20)
#    0.000    1.800    3.000    1.500    0.000    3.200 
#    0.000    0.000    0.000    0.600    0.000    0.000 
#    0.000    0.000    0.000    0.000    0.000    0.000 
#
# Total GULP energy -223118.381486 kJ/mol
# GULP energy per Si atom -5577.959537 kJ/mol
# Density = 1.966682 g / cm^3
# Si number density = 19.711681 Si / 1000 Ang^3
#
#
#
# Elastic Constant Matrix: (Units=GPa)
#
#
# Indices 1 2 3 4 5 6 
#
# 1 166.4205 64.8315 16.2765 0.0000 0.0000 0.0000
# 2 64.8315 80.8567 2.2949 0.0000 0.0000 0.0000
# 3 16.2765 2.2949 19.0273 0.0000 0.0000 0.0000
# 4 0.0000 0.0000 0.0000 25.4291 0.0000 0.0000
# 5 0.0000 0.0000 0.0000 0.0000 15.5093 0.0000
# 6 0.0000 0.0000 0.0000 0.0000 0.0000 5.9849
#
#
#
# Elastic Compliance Matrix: (Units=1/GPa)
#
#
# Indices 1 2 3 4 5 6 
#
# 1 0.009667 -0.007542 -0.007360 0.000000 0.000000 0.000000
# 2 -0.007542 0.018294 0.004245 0.000000 0.000000 0.000000
# 3 -0.007360 0.004245 0.058340 0.000000 0.000000 0.000000
# 4 0.000000 0.000000 0.000000 0.039325 0.000000 0.000000
# 5 0.000000 0.000000 0.000000 0.000000 0.064477 0.000000
# 6 0.000000 0.000000 0.000000 0.000000 0.000000 0.167088
#
#
# Mechanical properties :
#
#
# Convention : Reuss Voigt Hill
#
# Bulk Modulus (GPa) = 15.38751 48.12337 31.75544
# Shear Modulus (GPa) = 12.49481 21.57810 17.03646
#
# Velocity S-wave (km/s) = 2.52043 3.31219 2.94306
# Velocity P-wave (km/s) = 4.03650 6.25253 5.26248
#
# Compressibility (1/GPa) = 0.06498777
#
# Stress axis : x y z
#
# Youngs Moduli (GPa) = 103.44726 54.66182 17.14103
#
# Poissons Ratio (x) = 0.41226 0.12615
# Poissons Ratio (y) = 0.78020 -0.07277
# Poissons Ratio (z) = 0.76133 -0.23205
#
# Static dielectric constant tensor:
#      x y z
#    x 1.745160 0.000000 0.000000 
#    y 0.000000 1.665550 0.000000 
#    z 0.000000 0.000000 1.734340 
# 
# From -- ./inp_files/6467.got.cif
#   From: 2010.05.17/outbox.cif.g08.bks.cpg/sg63_4_cif.got.tgz:6467.got - 2010.06.03 15:47:04.
