data_PCOD9468147
_publ_section_title
;
Structure prediction by ZEFSAII (Michael W. Deem and Ramdas Pophale) SiO2 
 PCOD9468147
Probable space group: C M C M
;
_chemical_formula_sum "Si O2"
_cell_formula_units_Z 112
_cell_length_a 21.697485
_cell_length_b 18.544412
_cell_length_c 19.088984
_cell_angle_alpha 90.000000
_cell_angle_beta 90.000000
_cell_angle_gamma 90.000000
_cell_volume 7680.779157
_symmetry_space_group_name_H-M "C M C M"
_symmetry_group_IT_number 63
_symmetry_cell_setting 'orthorhombic'
loop_
_space_group_symop_operation_xyz
x,y,z
-x,-y,1/2+z
x,-y,-z
-x,y,1/2-z
-x,-y,-z
x,y,1/2-z
-x,y,z
x,-y,1/2+z
1/2+x,1/2+y,z
1/2-x,1/2-y,1/2+z
1/2+x,1/2-y,-z
1/2-x,1/2+y,1/2-z
1/2-x,1/2-y,-z
1/2+x,1/2+y,1/2-z
1/2-x,1/2+y,z
1/2+x,1/2-y,1/2+z
loop_
_atom_site_type_symbol
_atom_site_label
_atom_site_fract_x
_atom_site_fract_y
_atom_site_fract_z
Si Si1 0.777419 0.191528 0.944976
Si Si2 0.146280 0.844489 0.670089
Si Si3 0.326992 0.571111 0.460663
Si Si4 0.291194 0.197200 0.330306
Si Si5 0.426693 0.802754 0.331339
Si Si6 0.817301 0.436660 0.581201
Si Si7 0.843231 0.401507 0.074240
O O1 0.805621 0.236921 0.881745
O O2 0.720993 0.142135 0.917760
O O3 0.750000 0.250000 0.000000
O O4 0.823086 0.139075 0.986799
O O5 0.137639 0.870496 0.750000
O O6 0.139465 0.904328 0.610152
O O7 0.216973 0.815713 0.664765
O O8 0.102059 0.776573 0.657721
O O9 0.349953 0.500000 0.500000
O O10 0.255212 0.557225 0.439511
O O11 0.306803 0.210548 0.250000
O O12 0.321365 0.124299 0.360157
O O13 0.412495 0.822378 0.250000
O O14 0.500000 0.801517 0.339627
O O15 0.394690 0.857203 0.385071
O O16 0.850535 0.410153 0.509921
O O17 0.838321 0.516502 0.601281
#
# Coordination Sequence:
#
# PCOD9468147 Si02
#       7
#    16  16  16  16  16  16  16
#     4  11  15  24  43  61  88 120 147 175 207 258
#     4   9  17  28  43  63  87 117 148 180 218 260
#     4  10  16  27  44  67  91 120 145 171 218 265
#     4  10  18  27  40  64  90 119 150 176 211 261
#     4  10  20  32  46  65  87 113 150 192 226 253
#     4   9  17  28  42  62  91 119 143 174 211 267
#     4  10  16  28  45  63  85 118 149 176 217 264
#
# _framework density 14.581854
#
# number of rings (size 3 to 8) (size 9 to 14) (size 15 to 20)
#    0.000    2.143    8.571    0.000    0.000    0.571 
#    0.000    2.143    0.000    0.429    0.000    0.000 
#    0.000    0.000    0.000    0.000    0.000    0.143 
#
# Total GULP energy -311846.441954 kJ/mol
# GULP energy per Si atom -5568.686463 kJ/mol
# Density = 1.454866 g / cm^3
# Si number density = 14.581854 Si / 1000 Ang^3
#
#
#
# Elastic Constant Matrix: (Units=GPa)
#
#
# Indices 1 2 3 4 5 6 
#
# 1 31.6262 21.0709 27.7292 0.0000 0.0000 0.0000
# 2 21.0709 113.0137 77.6555 0.0000 0.0000 0.0000
# 3 27.7292 77.6555 110.5534 0.0000 0.0000 0.0000
# 4 0.0000 0.0000 0.0000 24.4565 0.0000 0.0000
# 5 0.0000 0.0000 0.0000 0.0000 12.1032 0.0000
# 6 0.0000 0.0000 0.0000 0.0000 0.0000 6.7675
#
#
#
# Elastic Compliance Matrix: (Units=1/GPa)
#
#
# Indices 1 2 3 4 5 6 
#
# 1 0.040605 -0.001106 -0.009407 0.000000 0.000000 0.000000
# 2 -0.001106 0.017134 -0.011758 0.000000 0.000000 0.000000
# 3 -0.009407 -0.011758 0.019664 0.000000 0.000000 0.000000
# 4 0.000000 0.000000 0.000000 0.040889 0.000000 0.000000
# 5 0.000000 0.000000 0.000000 0.000000 0.082623 0.000000
# 6 0.000000 0.000000 0.000000 0.000000 0.000000 0.147766
#
#
# Mechanical properties :
#
#
# Convention : Reuss Voigt Hill
#
# Bulk Modulus (GPa) = 30.43268 56.45606 43.44437
# Shear Modulus (GPa) = 12.37083 17.24795 14.80939
#
# Velocity S-wave (km/s) = 2.91584 3.44297 3.19031
# Velocity P-wave (km/s) = 5.67906 7.38959 6.59006
#
# Compressibility (1/GPa) = 0.03285941
#
# Stress axis : x y z
#
# Youngs Moduli (GPa) = 24.62767 58.36370 50.85457
#
# Poissons Ratio (x) = 0.06458 0.47841
# Poissons Ratio (y) = 0.02725 0.59794
# Poissons Ratio (z) = 0.23168 0.68623
#
# Static dielectric constant tensor:
#      x y z
#    x 1.447850 0.000000 0.000000 
#    y 0.000000 1.490690 0.000000 
#    z 0.000000 0.000000 1.503930 
# 
# From -- ./inp_files/47310.got.cif
#   From: 2010.05.17/outbox.cif.g08.bks.cpg/sg63_24_cif.got.tgz:47310.got - 2010.06.03 15:47:04.
