data_PCOD9468639
_publ_section_title
;
Structure prediction by ZEFSAII (Michael W. Deem and Ramdas Pophale) SiO2 
 PCOD9468639
Probable space group: C M C M
;
_chemical_formula_sum "Si O2"
_cell_formula_units_Z 128
_cell_length_a 20.424052
_cell_length_b 22.138214
_cell_length_c 15.193791
_cell_angle_alpha 90.000000
_cell_angle_beta 90.000000
_cell_angle_gamma 90.000000
_cell_volume 6869.903504
_symmetry_space_group_name_H-M "C M C M"
_symmetry_group_IT_number 63
_symmetry_cell_setting 'orthorhombic'
loop_
_space_group_symop_operation_xyz
x,y,z
-x,-y,1/2+z
x,-y,-z
-x,y,1/2-z
-x,-y,-z
x,y,1/2-z
-x,y,z
x,-y,1/2+z
1/2+x,1/2+y,z
1/2-x,1/2-y,1/2+z
1/2+x,1/2-y,-z
1/2-x,1/2+y,1/2-z
1/2-x,1/2-y,-z
1/2+x,1/2+y,1/2-z
1/2-x,1/2+y,z
1/2+x,1/2-y,1/2+z
loop_
_atom_site_type_symbol
_atom_site_label
_atom_site_fract_x
_atom_site_fract_y
_atom_site_fract_z
Si Si1 0.254002 0.663854 0.584072
Si Si2 0.329302 0.169034 0.350412
Si Si3 0.119249 0.203558 0.651448
Si Si4 0.704906 0.061416 0.469398
Si Si5 0.667270 0.524537 0.357163
Si Si6 0.926488 0.864716 0.644480
Si Si7 0.689926 0.283412 0.596676
Si Si8 0.571655 0.419225 0.142308
O O1 0.309068 0.671918 0.656763
O O2 0.229965 0.598941 0.554333
O O3 0.292554 0.691886 0.499991
O O4 0.196453 0.711487 0.601559
O O5 0.347732 0.155979 0.250000
O O6 0.368615 0.228590 0.383096
O O7 0.334017 0.111039 0.412492
O O8 0.252244 0.188923 0.350668
O O9 0.092978 0.212502 0.750000
O O10 0.078543 0.149511 0.608031
O O11 0.766715 0.040188 0.409484
O O12 0.670706 0.000000 0.500000
O O13 0.677614 0.525466 0.250000
O O14 0.614820 0.576324 0.381471
O O15 0.631667 0.462125 0.383261
O O16 0.931287 0.868092 0.750000
O O17 0.879761 0.808656 0.622953
O O18 0.000000 0.862563 0.608513
O O19 0.573422 0.417158 0.250000
O O20 0.500000 0.443909 0.118132
#
# Coordination Sequence:
#
# PCOD9468639 Si02
#       8
#    16  16  16  16  16  16  16  16
#     4   9  17  29  44  62  88 119 155 200 243 289
#     4   9  16  29  48  67  84 113 158 205 244 285
#     4   9  17  29  47  65  83 115 163 208 245 283
#     4  11  20  29  45  68  94 123 154 196 245 296
#     4  10  18  30  47  65  92 134 172 198 230 282
#     4  10  18  28  46  72  98 126 165 206 241 285
#     4   9  16  28  46  64  87 120 155 195 247 290
#     4   9  17  29  44  64  93 127 159 193 234 279
#
# _framework density 18.631993999999999
#
# number of rings (size 3 to 8) (size 9 to 14) (size 15 to 20)
#    0.000    2.500    2.500    2.625    0.000    2.000 
#    0.000    1.250    0.000    1.500    0.000    0.000 
#    0.000    2.000    0.000    3.500    0.000    0.250 
#
# Total GULP energy -356515.401813 kJ/mol
# GULP energy per Si atom -5570.553153 kJ/mol
# Density = 1.858959 g / cm^3
# Si number density = 18.631994 Si / 1000 Ang^3
#
#
#
# Elastic Constant Matrix: (Units=GPa)
#
#
# Indices 1 2 3 4 5 6 
#
# 1 27.6319 12.9874 -2.0321 0.0000 0.0000 0.0000
# 2 12.9874 131.0669 11.8796 0.0000 0.0000 0.0000
# 3 -2.0321 11.8796 28.3849 0.0000 0.0000 0.0000
# 4 0.0000 0.0000 0.0000 21.6042 0.0000 0.0000
# 5 0.0000 0.0000 0.0000 0.0000 10.3623 0.0000
# 6 0.0000 0.0000 0.0000 0.0000 0.0000 14.5355
#
#
#
# Elastic Compliance Matrix: (Units=1/GPa)
#
#
# Indices 1 2 3 4 5 6 
#
# 1 0.038509 -0.004226 0.004526 0.000000 0.000000 0.000000
# 2 -0.004226 0.008394 -0.003816 0.000000 0.000000 0.000000
# 3 0.004526 -0.003816 0.037151 0.000000 0.000000 0.000000
# 4 0.000000 0.000000 0.000000 0.046287 0.000000 0.000000
# 5 0.000000 0.000000 0.000000 0.000000 0.096504 0.000000
# 6 0.000000 0.000000 0.000000 0.000000 0.000000 0.068797
#
#
# Mechanical properties :
#
#
# Convention : Reuss Voigt Hill
#
# Bulk Modulus (GPa) = 12.98330 25.86149 19.42239
# Shear Modulus (GPa) = 15.22771 20.25033 17.73902
#
# Velocity S-wave (km/s) = 2.86193 3.30033 3.08892
# Velocity P-wave (km/s) = 4.23134 5.33228 4.81339
#
# Compressibility (1/GPa) = 0.07702204
#
# Stress axis : x y z
#
# Youngs Moduli (GPa) = 25.96788 119.12855 26.91724
#
# Poissons Ratio (x) = 0.50344 -0.12182
# Poissons Ratio (y) = 0.10974 0.10271
# Poissons Ratio (z) = -0.11752 0.45456
#
# Static dielectric constant tensor:
#      x y z
#    x 1.619900 0.000000 0.000000 
#    y 0.000000 1.691700 0.000000 
#    z 0.000000 0.000000 1.753230 
# 
# From -- ./inp_files/47517.got.cif
#   From: 2010.05.17/outbox.cif.g08.bks.cpg/sg63_24_cif.got.tgz:47517.got - 2010.06.03 15:47:04.
