data_PCOD9468318
_publ_section_title
;
Structure prediction by ZEFSAII (Michael W. Deem and Ramdas Pophale) SiO2 
 PCOD9468318
Probable space group: C M C M
;
_chemical_formula_sum "Si O2"
_cell_formula_units_Z 128
_cell_length_a 17.208909
_cell_length_b 21.365911
_cell_length_c 20.456855
_cell_angle_alpha 90.000000
_cell_angle_beta 90.000000
_cell_angle_gamma 90.000000
_cell_volume 7521.658644
_symmetry_space_group_name_H-M "C M C M"
_symmetry_group_IT_number 63
_symmetry_cell_setting 'orthorhombic'
loop_
_space_group_symop_operation_xyz
x,y,z
-x,-y,1/2+z
x,-y,-z
-x,y,1/2-z
-x,-y,-z
x,y,1/2-z
-x,y,z
x,-y,1/2+z
1/2+x,1/2+y,z
1/2-x,1/2-y,1/2+z
1/2+x,1/2-y,-z
1/2-x,1/2+y,1/2-z
1/2-x,1/2-y,-z
1/2+x,1/2+y,1/2-z
1/2-x,1/2+y,z
1/2+x,1/2-y,1/2+z
loop_
_atom_site_type_symbol
_atom_site_label
_atom_site_fract_x
_atom_site_fract_y
_atom_site_fract_z
Si Si1 0.588758 0.331528 0.446330
Si Si2 0.089788 0.703505 0.527756
Si Si3 0.686648 0.725865 0.130239
Si Si4 0.147949 0.938737 0.541853
Si Si5 0.909889 0.342641 0.674835
Si Si6 0.798375 0.631735 0.439669
Si Si7 0.166068 0.793067 0.178384
Si Si8 0.091613 0.106937 0.176430
O O1 0.500000 0.341884 0.425544
O O2 0.593873 0.262240 0.477456
O O3 0.610501 0.380621 0.502471
O O4 0.644769 0.334779 0.383876
O O5 0.125059 0.730401 0.594329
O O6 0.145182 0.650522 0.498324
O O7 0.000000 0.685016 0.533403
O O8 0.741565 0.690708 0.076786
O O9 0.746988 0.766000 0.172120
O O10 0.642383 0.669960 0.167000
O O11 0.239895 0.924441 0.546461
O O12 0.115401 0.937132 0.615758
O O13 0.131330 0.000000 0.500000
O O14 0.898427 0.362864 0.750000
O O15 0.851843 0.375472 0.624487
O O16 0.888703 0.268759 0.673182
O O17 0.000000 0.350811 0.656760
O O18 0.154099 0.821452 0.250000
O O19 0.105072 0.082345 0.250000
O O20 0.000000 0.121441 0.170166
#
# Coordination Sequence:
#
# PCOD9468318 Si02
#       8
#    16  16  16  16  16  16  16  16
#     4  11  20  32  52  76 104 137 172 210 255 307
#     4  11  18  28  49  79 106 133 165 203 256 312
#     4  10  17  28  46  72 107 140 165 198 245 311
#     4  11  24  39  55  73  98 138 182 220 258 302
#     4   9  16  26  44  74 109 138 162 194 251 321
#     4  10  18  29  48  72 104 132 168 211 253 297
#     4  10  19  29  46  74 110 145 170 202 253 313
#     4  10  20  34  53  76 102 132 170 216 259 298
#
# _framework density 17.017522
#
# number of rings (size 3 to 8) (size 9 to 14) (size 15 to 20)
#    0.000    1.750    5.000    3.000    0.000    4.750 
#    0.000    0.625    0.000    1.500    0.000    0.000 
#    0.000    0.000    0.000    0.000    0.000    0.000 
#
# Total GULP energy -356908.038920 kJ/mol
# GULP energy per Si atom -5576.688108 kJ/mol
# Density = 1.697879 g / cm^3
# Si number density = 17.017522 Si / 1000 Ang^3
#
#
#
# Elastic Constant Matrix: (Units=GPa)
#
#
# Indices 1 2 3 4 5 6 
#
# 1 93.8458 16.9410 31.6410 0.0000 0.0000 0.0000
# 2 16.9410 17.4895 23.4444 0.0000 0.0000 0.0000
# 3 31.6410 23.4444 99.5194 0.0000 0.0000 0.0000
# 4 0.0000 0.0000 0.0000 9.2608 0.0000 0.0000
# 5 0.0000 0.0000 0.0000 0.0000 25.1820 0.0000
# 6 0.0000 0.0000 0.0000 0.0000 0.0000 7.2464
#
#
#
# Elastic Compliance Matrix: (Units=1/GPa)
#
#
# Indices 1 2 3 4 5 6 
#
# 1 0.013112 -0.010395 -0.001720 0.000000 0.000000 0.000000
# 2 -0.010395 0.091808 -0.018323 0.000000 0.000000 0.000000
# 3 -0.001720 -0.018323 0.014912 0.000000 0.000000 0.000000
# 4 0.000000 0.000000 0.000000 0.107982 0.000000 0.000000
# 5 0.000000 0.000000 0.000000 0.000000 0.039711 0.000000
# 6 0.000000 0.000000 0.000000 0.000000 0.000000 0.137999
#
#
# Mechanical properties :
#
#
# Convention : Reuss Voigt Hill
#
# Bulk Modulus (GPa) = 16.96195 39.43417 28.19806
# Shear Modulus (GPa) = 10.28698 17.59307 13.94003
#
# Velocity S-wave (km/s) = 2.46131 3.21880 2.86520
# Velocity P-wave (km/s) = 4.25046 6.08582 5.24898
#
# Compressibility (1/GPa) = 0.05895548
#
# Stress axis : x y z
#
# Youngs Moduli (GPa) = 76.26450 10.89233 67.06223
#
# Poissons Ratio (x) = 0.11323 0.11535
# Poissons Ratio (y) = 0.79280 1.22876
# Poissons Ratio (z) = 0.13117 0.19958
#
# Static dielectric constant tensor:
#      x y z
#    x 1.593500 0.000000 0.000000 
#    y 0.000000 1.545820 0.000000 
#    z 0.000000 0.000000 1.608010 
# 
# From -- ./inp_files/56118.got.cif
#   From: 2010.05.17/outbox.cif.g08.bks.cpg/sg63_29_cif.got.tgz:56118.got - 2010.06.03 15:47:04.
