data_PCOD9468526
_publ_section_title
;
Structure prediction by ZEFSAII (Michael W. Deem and Ramdas Pophale) SiO2 
 PCOD9468526
Probable space group: C M C M
;
_chemical_formula_sum "Si O2"
_cell_formula_units_Z 96
_cell_length_a 7.351621
_cell_length_b 19.983125
_cell_length_c 32.043026
_cell_angle_alpha 90.000000
_cell_angle_beta 90.000000
_cell_angle_gamma 90.000000
_cell_volume 4707.388444
_symmetry_space_group_name_H-M "C M C M"
_symmetry_group_IT_number 63
_symmetry_cell_setting 'orthorhombic'
loop_
_space_group_symop_operation_xyz
x,y,z
-x,-y,1/2+z
x,-y,-z
-x,y,1/2-z
-x,-y,-z
x,y,1/2-z
-x,y,z
x,-y,1/2+z
1/2+x,1/2+y,z
1/2-x,1/2-y,1/2+z
1/2+x,1/2-y,-z
1/2-x,1/2+y,1/2-z
1/2-x,1/2-y,-z
1/2+x,1/2+y,1/2-z
1/2-x,1/2+y,z
1/2+x,1/2-y,1/2+z
loop_
_atom_site_type_symbol
_atom_site_label
_atom_site_fract_x
_atom_site_fract_y
_atom_site_fract_z
Si Si1 0.722204 0.340733 0.702527
Si Si2 0.782583 0.742398 0.629912
Si Si3 0.279200 0.546953 0.140433
Si Si4 0.277968 0.574941 0.985929
Si Si5 0.215942 0.907920 0.391658
Si Si6 0.720762 0.648852 0.066700
O O1 0.783346 0.333970 0.750000
O O2 0.500000 0.340085 0.703110
O O3 0.781112 0.281650 0.671140
O O4 0.779405 0.409969 0.680311
O O5 0.743060 0.664440 0.628080
O O6 0.716784 0.782765 0.588805
O O7 0.000000 0.749548 0.629799
O O8 0.500000 0.546668 0.142081
O O9 0.214610 0.471309 0.134571
O O10 0.231153 0.589673 0.099168
O O11 0.500000 0.576008 0.985822
O O12 0.214288 0.589991 0.939205
O O13 0.226245 0.500000 0.000000
O O14 0.216964 0.628118 0.020800
O O15 0.000000 0.918222 0.395051
O O16 0.500000 0.650795 0.065083
#
# Coordination Sequence:
#
# PCOD9468526 Si02
#       6
#    16  16  16  16  16  16
#     4   8  14  27  48  68  82 105 146 185 212 251
#     4   9  18  30  44  63  90 119 143 174 219 264
#     4   8  13  23  41  64  85 104 137 185 221 243
#     4   9  14  22  40  65  87 111 150 191 216 242
#     4  10  18  27  43  68  93 115 143 180 221 260
#     4   8  13  24  41  61  83 112 150 184 209 239
#
# _framework density 20.393471999999999
#
# number of rings (size 3 to 8) (size 9 to 14) (size 15 to 20)
#    0.000    3.333    1.667    2.000    0.000    0.667 
#    0.000    0.833    0.000    6.000    0.000    0.000 
#    0.000    0.000    0.000    0.000    0.000    0.000 
#
# Total GULP energy -267699.094984 kJ/mol
# GULP energy per Si atom -5577.064479 kJ/mol
# Density = 2.034706 g / cm^3
# Si number density = 20.393472 Si / 1000 Ang^3
#
#
#
# Elastic Constant Matrix: (Units=GPa)
#
#
# Indices 1 2 3 4 5 6 
#
# 1 73.0121 -3.5747 3.6491 0.0000 0.0000 0.0000
# 2 -3.5747 166.1545 76.0378 0.0000 0.0000 0.0000
# 3 3.6491 76.0378 143.3750 0.0000 0.0000 0.0000
# 4 0.0000 0.0000 0.0000 17.8799 0.0000 0.0000
# 5 0.0000 0.0000 0.0000 0.0000 -13.5003 0.0000
# 6 0.0000 0.0000 0.0000 0.0000 0.0000 25.5739
#
#
#
# Elastic Compliance Matrix: (Units=1/GPa)
#
#
# Indices 1 2 3 4 5 6 
#
# 1 0.013759 0.000603 -0.000670 0.000000 0.000000 0.000000
# 2 0.000603 0.007974 -0.004244 0.000000 0.000000 0.000000
# 3 -0.000670 -0.004244 0.009243 0.000000 0.000000 0.000000
# 4 0.000000 0.000000 0.000000 0.055929 0.000000 0.000000
# 5 0.000000 0.000000 0.000000 0.000000 -0.074072 0.000000
# 6 0.000000 0.000000 0.000000 0.000000 0.000000 0.039102
#
#
# Mechanical properties :
#
#
# Convention : Reuss Voigt Hill
#
# Bulk Modulus (GPa) = 44.73684 59.41845 52.07765
# Shear Modulus (GPa) = 73.52043 26.41931 49.96987
#
# Velocity S-wave (km/s) = 6.01076 3.60318 4.95541
# Velocity P-wave (km/s) = 8.37596 6.81981 7.63762
#
# Compressibility (1/GPa) = 0.02235294
#
# Stress axis : x y z
#
# Youngs Moduli (GPa) = 72.67796 125.41211 108.19468
#
# Poissons Ratio (x) = -0.07556 0.07246
# Poissons Ratio (y) = -0.04379 0.45919
# Poissons Ratio (z) = 0.04868 0.53227
#
# Static dielectric constant tensor:
#      x y z
#    x 1.804260 0.000000 0.000000 
#    y 0.000000 1.722570 0.000000 
#    z 0.000000 0.000000 1.698590 
# 
# From -- ./inp_files/68319.got.cif
#   From: 2010.05.17/outbox.cif.g08.bks.cpg/sg63_35_cif.got.tgz:68319.got - 2010.06.03 15:47:04.
