data_PCOD9468559
_publ_section_title
;
Structure prediction by ZEFSAII (Michael W. Deem and Ramdas Pophale) SiO2 
 PCOD9468559
Probable space group: C M C M
;
_chemical_formula_sum "Si O2"
_cell_formula_units_Z 80
_cell_length_a 23.467312
_cell_length_b 29.048390
_cell_length_c 9.155069
_cell_angle_alpha 90.000000
_cell_angle_beta 90.000000
_cell_angle_gamma 90.000000
_cell_volume 6240.897300
_symmetry_space_group_name_H-M "C M C M"
_symmetry_group_IT_number 63
_symmetry_cell_setting 'orthorhombic'
loop_
_space_group_symop_operation_xyz
x,y,z
-x,-y,1/2+z
x,-y,-z
-x,y,1/2-z
-x,-y,-z
x,y,1/2-z
-x,y,z
x,-y,1/2+z
1/2+x,1/2+y,z
1/2-x,1/2-y,1/2+z
1/2+x,1/2-y,-z
1/2-x,1/2+y,1/2-z
1/2-x,1/2-y,-z
1/2+x,1/2+y,1/2-z
1/2-x,1/2+y,z
1/2+x,1/2-y,1/2+z
loop_
_atom_site_type_symbol
_atom_site_label
_atom_site_fract_x
_atom_site_fract_y
_atom_site_fract_z
Si Si1 0.566104 0.270228 0.924476
Si Si2 0.666715 0.777199 0.582028
Si Si3 0.267172 0.678743 0.918361
Si Si4 0.432211 0.548593 0.923378
Si Si5 0.129763 0.866509 0.575548
O O1 0.571042 0.263120 0.750000
O O2 0.500000 0.267025 0.966168
O O3 0.590185 0.321600 0.953847
O O4 0.606847 0.234499 0.006812
O O5 0.660232 0.791313 0.750000
O O6 0.700887 0.728444 0.581132
O O7 0.706347 0.812306 0.492984
O O8 0.261951 0.664233 0.750000
O O9 0.308434 0.645605 0.009747
O O10 0.421212 0.546358 0.750000
O O11 0.500000 0.556980 0.943821
O O12 0.418947 0.500000 0.000000
O O13 0.397515 0.589581 0.997964
O O14 0.132579 0.872651 0.750000
#
# Coordination Sequence:
#
# PCOD9468559 Si02
#       5
#    16  16  16  16  16
#     4   9  17  27  38  53  74 100 127 155 189 227
#     4   9  16  25  37  53  72  94 121 153 187 221
#     4   9  16  26  39  54  72  94 120 151 187 225
#     4  10  20  32  44  57  74  97 125 157 194 234
#     4  10  18  28  42  58  75  95 123 159 195 229
#
# _framework density 12.818669
#
# number of rings (size 3 to 8) (size 9 to 14) (size 15 to 20)
#    0.000    2.600    0.000    3.000    0.000    8.000 
#    0.000    0.000    0.000    0.000    0.000    0.000 
#    0.000    0.000    0.000    0.000    0.000    1.000 
#
# Total GULP energy -222917.892326 kJ/mol
# GULP energy per Si atom -5572.947308 kJ/mol
# Density = 1.278949 g / cm^3
# Si number density = 12.818669 Si / 1000 Ang^3
#
#
#
# Elastic Constant Matrix: (Units=GPa)
#
#
# Indices 1 2 3 4 5 6 
#
# 1 106.4193 50.4420 67.4396 0.0000 0.0000 0.0000
# 2 50.4420 52.2344 49.6345 0.0000 0.0000 0.0000
# 3 67.4396 49.6345 96.2222 0.0000 0.0000 0.0000
# 4 0.0000 0.0000 0.0000 19.4773 0.0000 0.0000
# 5 0.0000 0.0000 0.0000 0.0000 23.0376 0.0000
# 6 0.0000 0.0000 0.0000 0.0000 0.0000 22.1903
#
#
#
# Elastic Compliance Matrix: (Units=1/GPa)
#
#
# Indices 1 2 3 4 5 6 
#
# 1 0.020020 -0.011768 -0.007961 0.000000 0.000000 0.000000
# 2 -0.011768 0.044467 -0.014690 0.000000 0.000000 0.000000
# 3 -0.007961 -0.014690 0.023550 0.000000 0.000000 0.000000
# 4 0.000000 0.000000 0.000000 0.051342 0.000000 0.000000
# 5 0.000000 0.000000 0.000000 0.000000 0.043407 0.000000
# 6 0.000000 0.000000 0.000000 0.000000 0.000000 0.045065
#
#
# Mechanical properties :
#
#
# Convention : Reuss Voigt Hill
#
# Bulk Modulus (GPa) = 52.08554 65.54535 58.81545
# Shear Modulus (GPa) = 16.49687 18.76504 17.63096
#
# Velocity S-wave (km/s) = 3.59129 3.83022 3.71268
# Velocity P-wave (km/s) = 7.61034 8.41454 8.02252
#
# Compressibility (1/GPa) = 0.01919919
#
# Stress axis : x y z
#
# Youngs Moduli (GPa) = 49.95060 22.48843 42.46335
#
# Poissons Ratio (x) = 0.26465 0.33805
# Poissons Ratio (y) = 0.58782 0.62378
# Poissons Ratio (z) = 0.39766 0.33035
#
# Static dielectric constant tensor:
#      x y z
#    x 1.407540 0.000000 0.000000 
#    y 0.000000 1.385090 0.000000 
#    z 0.000000 0.000000 1.427730 
# 
# From -- ./inp_files/6660.got.cif
#   From: 2010.05.17/outbox.cif.g08.bks.cpg/sg63_4_cif.got.tgz:6660.got - 2010.06.03 15:47:04.
