data_PCOD9468438
_publ_section_title
;
Structure prediction by ZEFSAII (Michael W. Deem and Ramdas Pophale) SiO2 
 PCOD9468438
Probable space group: C M C M
;
_chemical_formula_sum "Si O2"
_cell_formula_units_Z 64
_cell_length_a 14.557917
_cell_length_b 7.785705
_cell_length_c 22.215381
_cell_angle_alpha 90.000000
_cell_angle_beta 90.000000
_cell_angle_gamma 90.000000
_cell_volume 2517.972306
_symmetry_space_group_name_H-M "C M C M"
_symmetry_group_IT_number 63
_symmetry_cell_setting 'orthorhombic'
loop_
_space_group_symop_operation_xyz
x,y,z
-x,-y,1/2+z
x,-y,-z
-x,y,1/2-z
-x,-y,-z
x,y,1/2-z
-x,y,z
x,-y,1/2+z
1/2+x,1/2+y,z
1/2-x,1/2-y,1/2+z
1/2+x,1/2-y,-z
1/2-x,1/2+y,1/2-z
1/2-x,1/2-y,-z
1/2+x,1/2+y,1/2-z
1/2-x,1/2+y,z
1/2+x,1/2-y,1/2+z
loop_
_atom_site_type_symbol
_atom_site_label
_atom_site_fract_x
_atom_site_fract_y
_atom_site_fract_z
Si Si1 0.358295 0.758568 0.487052
Si Si2 0.225804 0.141333 0.321244
Si Si3 0.891269 0.461976 0.127993
Si Si4 0.099177 0.064932 0.600100
O O1 0.250000 0.750000 0.500000
O O2 0.378853 0.917606 0.443094
O O3 0.388301 0.598538 0.445079
O O4 0.399896 0.720041 0.552199
O O5 0.232550 0.132600 0.250000
O O6 0.157861 0.297965 0.339251
O O7 0.328092 0.118989 0.349134
O O8 0.175410 0.975633 0.350622
O O9 0.000000 0.474554 0.141206
O O10 0.000000 0.059591 0.629631
#
# Coordination Sequence:
#
# PCOD9468438 Si02
#       4
#    16  16  16  16
#     4  10  17  33  60  88 121 157 202 260 318 373
#     4  11  23  40  65  95 127 168 218 263 310 379
#     4  11  24  44  69  95 128 171 213 264 326 379
#     4  10  20  35  58  88 121 161 204 256 318 375
#
# _framework density 25.417276000000001
#
# number of rings (size 3 to 8) (size 9 to 14) (size 15 to 20)
#    0.000    1.500    2.500    6.000    0.000    3.500 
#    0.000    2.500    0.000   12.000    0.000    0.000 
#    0.000    0.000    0.000    0.000    0.000    0.000 
#
# Total GULP energy -178951.454682 kJ/mol
# GULP energy per Si atom -5592.232959 kJ/mol
# Density = 2.535943 g / cm^3
# Si number density = 25.417276 Si / 1000 Ang^3
#
#
#
# Elastic Constant Matrix: (Units=GPa)
#
#
# Indices 1 2 3 4 5 6 
#
# 1 254.9833 14.2891 49.3161 0.0000 0.0000 0.0000
# 2 14.2891 129.7838 19.1533 0.0000 0.0000 0.0000
# 3 49.3161 19.1533 201.4027 0.0000 0.0000 0.0000
# 4 0.0000 0.0000 0.0000 26.1817 0.0000 0.0000
# 5 0.0000 0.0000 0.0000 0.0000 186.8680 0.0000
# 6 0.0000 0.0000 0.0000 0.0000 0.0000 34.5534
#
#
#
# Elastic Compliance Matrix: (Units=1/GPa)
#
#
# Indices 1 2 3 4 5 6 
#
# 1 0.004129 -0.000310 -0.000982 0.000000 0.000000 0.000000
# 2 -0.000310 0.007838 -0.000670 0.000000 0.000000 0.000000
# 3 -0.000982 -0.000670 0.005269 0.000000 0.000000 0.000000
# 4 0.000000 0.000000 0.000000 0.038195 0.000000 0.000000
# 5 0.000000 0.000000 0.000000 0.000000 0.005351 0.000000
# 6 0.000000 0.000000 0.000000 0.000000 0.000000 0.028941
#
#
# Mechanical properties :
#
#
# Convention : Reuss Voigt Hill
#
# Bulk Modulus (GPa) = 75.10605 83.52077 79.31341
# Shear Modulus (GPa) = 50.97730 83.08137 67.02934
#
# Velocity S-wave (km/s) = 4.48327 5.72345 5.14090
# Velocity P-wave (km/s) = 7.51086 8.75262 8.15541
#
# Compressibility (1/GPa) = 0.01331451
#
# Stress axis : x y z
#
# Youngs Moduli (GPa) = 242.18746 127.58300 189.78184
#
# Poissons Ratio (x) = 0.03952 0.18629
# Poissons Ratio (y) = 0.07502 0.12707
# Poissons Ratio (z) = 0.23773 0.08542
#
# Static dielectric constant tensor:
#      x y z
#    x 2.043350 0.000000 0.000000 
#    y 0.000000 2.402820 0.000000 
#    z 0.000000 0.000000 1.916240 
# 
# From -- ./inp_files/62355.got.cif
#   From: 2010.05.17/outbox.cif.g08.bks.cpg/sg63_32_cif.got.tgz:62355.got - 2010.06.03 15:47:04.
