data_PCOD9468966
_publ_section_title
;
Structure prediction by ZEFSAII (Michael W. Deem and Ramdas Pophale) SiO2 
 PCOD9468966
Probable space group: C M C M
;
_chemical_formula_sum "Si O2"
_cell_formula_units_Z 80
_cell_length_a 8.394657
_cell_length_b 20.005534
_cell_length_c 26.516500
_cell_angle_alpha 90.000000
_cell_angle_beta 90.000000
_cell_angle_gamma 90.000000
_cell_volume 4453.170298
_symmetry_space_group_name_H-M "C M C M"
_symmetry_group_IT_number 63
_symmetry_cell_setting 'orthorhombic'
loop_
_space_group_symop_operation_xyz
x,y,z
-x,-y,1/2+z
x,-y,-z
-x,y,1/2-z
-x,-y,-z
x,y,1/2-z
-x,y,z
x,-y,1/2+z
1/2+x,1/2+y,z
1/2-x,1/2-y,1/2+z
1/2+x,1/2-y,-z
1/2-x,1/2+y,1/2-z
1/2-x,1/2-y,-z
1/2+x,1/2+y,1/2-z
1/2-x,1/2+y,z
1/2+x,1/2-y,1/2+z
loop_
_atom_site_type_symbol
_atom_site_label
_atom_site_fract_x
_atom_site_fract_y
_atom_site_fract_z
Si Si1 0.809454 0.235482 0.884129
Si Si2 0.692576 0.477540 0.111281
Si Si3 0.693797 0.633203 0.968716
Si Si4 0.809249 0.374449 0.307705
Si Si5 0.807502 0.125125 0.416006
O O1 0.753959 0.196278 0.934926
O O2 0.752498 0.190491 0.837589
O O3 0.747193 0.310543 0.885160
O O4 0.000000 0.235606 0.884506
O O5 0.500000 0.476847 0.112599
O O6 0.740256 0.432963 0.062642
O O7 0.753202 0.438363 0.160129
O O8 0.746501 0.553725 0.105520
O O9 0.500000 0.634050 0.969981
O O10 0.749882 0.632862 0.026085
O O11 0.752758 0.376324 0.250000
O O12 0.000000 0.372868 0.307878
O O13 0.000000 0.124117 0.416933
#
# Coordination Sequence:
#
# PCOD9468966 Si02
#       5
#    16  16  16  16  16
#     4  10  20  33  51  76 104 134 170 209 248 294
#     4   9  18  32  52  78 104 133 169 205 245 295
#     4   8  15  29  49  73 103 140 175 202 236 287
#     4  10  21  38  58  75  93 123 165 212 260 308
#     4  10  18  30  50  76 109 142 168 201 243 289
#
# _framework density 17.964729999999999
#
# number of rings (size 3 to 8) (size 9 to 14) (size 15 to 20)
#    0.000    2.600    0.000    3.600    0.000    4.800 
#    0.000    5.000    0.000    7.200    0.000    0.000 
#    0.000    0.000    0.000    0.000    0.000    0.000 
#
# Total GULP energy -223150.709458 kJ/mol
# GULP energy per Si atom -5578.767736 kJ/mol
# Density = 1.792384 g / cm^3
# Si number density = 17.964730 Si / 1000 Ang^3
#
#
#
# Elastic Constant Matrix: (Units=GPa)
#
#
# Indices 1 2 3 4 5 6 
#
# 1 16.0286 16.3218 11.6415 0.0000 0.0000 0.0000
# 2 16.3218 154.8175 55.4925 0.0000 0.0000 0.0000
# 3 11.6415 55.4925 115.0395 0.0000 0.0000 0.0000
# 4 0.0000 0.0000 0.0000 5.0775 0.0000 0.0000
# 5 0.0000 0.0000 0.0000 0.0000 12.4393 0.0000
# 6 0.0000 0.0000 0.0000 0.0000 0.0000 26.7309
#
#
#
# Elastic Compliance Matrix: (Units=1/GPa)
#
#
# Indices 1 2 3 4 5 6 
#
# 1 0.071657 -0.005991 -0.004361 0.000000 0.000000 0.000000
# 2 -0.005991 0.008310 -0.003402 0.000000 0.000000 0.000000
# 3 -0.004361 -0.003402 0.010775 0.000000 0.000000 0.000000
# 4 0.000000 0.000000 0.000000 0.196949 0.000000 0.000000
# 5 0.000000 0.000000 0.000000 0.000000 0.080390 0.000000
# 6 0.000000 0.000000 0.000000 0.000000 0.000000 0.037410
#
#
# Mechanical properties :
#
#
# Convention : Reuss Voigt Hill
#
# Bulk Modulus (GPa) = 15.81460 50.31078 33.06269
# Shear Modulus (GPa) = 11.01129 22.34486 16.67808
#
# Velocity S-wave (km/s) = 2.47845 3.53061 3.05024
# Velocity P-wave (km/s) = 4.12462 6.68479 5.55423
#
# Compressibility (1/GPa) = 0.06323271
#
# Stress axis : x y z
#
# Youngs Moduli (GPa) = 13.95534 120.33072 92.80488
#
# Poissons Ratio (x) = 0.72093 0.40476
# Poissons Ratio (y) = 0.08361 0.31577
# Poissons Ratio (z) = 0.06086 0.40942
#
# Static dielectric constant tensor:
#      x y z
#    x 1.624840 0.000000 0.000000 
#    y 0.000000 1.608660 0.000000 
#    z 0.000000 0.000000 1.599740 
# 
# From -- ./inp_files/66566.got.cif
#   From: 2010.05.17/outbox.cif.g08.bks.cpg/sg63_34_cif.got.tgz:66566.got - 2010.06.03 15:47:04.
