data_PCOD9468897
_publ_section_title
;
Structure prediction by ZEFSAII (Michael W. Deem and Ramdas Pophale) SiO2 
 PCOD9468897
Probable space group: C M C M
;
_chemical_formula_sum "Si O2"
_cell_formula_units_Z 80
_cell_length_a 13.870614
_cell_length_b 13.032138
_cell_length_c 28.294503
_cell_angle_alpha 90.000000
_cell_angle_beta 90.000000
_cell_angle_gamma 90.000000
_cell_volume 5114.620631
_symmetry_space_group_name_H-M "C M C M"
_symmetry_group_IT_number 63
_symmetry_cell_setting 'orthorhombic'
loop_
_space_group_symop_operation_xyz
x,y,z
-x,-y,1/2+z
x,-y,-z
-x,y,1/2-z
-x,-y,-z
x,y,1/2-z
-x,y,z
x,-y,1/2+z
1/2+x,1/2+y,z
1/2-x,1/2-y,1/2+z
1/2+x,1/2-y,-z
1/2-x,1/2+y,1/2-z
1/2-x,1/2-y,-z
1/2+x,1/2+y,1/2-z
1/2-x,1/2+y,z
1/2+x,1/2-y,1/2+z
loop_
_atom_site_type_symbol
_atom_site_label
_atom_site_fract_x
_atom_site_fract_y
_atom_site_fract_z
Si Si1 0.888574 0.720387 0.197367
Si Si2 0.613480 0.494288 0.055706
Si Si3 0.227013 0.050200 0.195843
Si Si4 0.226656 0.140909 0.628249
Si Si5 0.613010 0.685032 0.123709
O O1 0.874287 0.767569 0.250000
O O2 0.821534 0.621037 0.195793
O O3 0.854283 0.793512 0.155595
O O4 0.000000 0.694417 0.192659
O O5 0.500000 0.467803 0.062870
O O6 0.681391 0.412607 0.082167
O O7 0.627912 0.605181 0.080484
O O8 0.632072 0.500000 0.000000
O O9 0.200924 0.026907 0.250000
O O10 0.145714 0.118323 0.169445
O O11 0.248939 0.950444 0.164895
O O12 0.316882 0.216713 0.619891
O O13 0.500000 0.711987 0.126152
#
# Coordination Sequence:
#
# PCOD9468897 Si02
#       5
#    16  16  16  16  16
#     4   9  17  29  45  66  91 118 151 188 222 262
#     4   9  18  33  51  70  92 118 151 192 237 283
#     4   9  18  31  45  65  94 124 152 183 221 266
#     4  10  18  30  49  69  92 121 153 189 229 274
#     4   9  19  33  48  69  94 121 155 192 229 271
#
# _framework density 15.641434
#
# number of rings (size 3 to 8) (size 9 to 14) (size 15 to 20)
#    0.000    2.800    0.000    1.200    0.000    3.600 
#    0.000    0.000    0.000    0.600    0.000    0.000 
#    0.000    0.000    0.000    0.000    0.000    0.000 
#
# Total GULP energy -222769.222371 kJ/mol
# GULP energy per Si atom -5569.230559 kJ/mol
# Density = 1.560583 g / cm^3
# Si number density = 15.641434 Si / 1000 Ang^3
#
#
#
# Elastic Constant Matrix: (Units=GPa)
#
#
# Indices 1 2 3 4 5 6 
#
# 1 93.1325 46.8592 64.1585 0.0000 0.0000 0.0000
# 2 46.8592 84.8843 61.8267 0.0000 0.0000 0.0000
# 3 64.1585 61.8267 130.2560 0.0000 0.0000 0.0000
# 4 0.0000 0.0000 0.0000 8.5692 0.0000 0.0000
# 5 0.0000 0.0000 0.0000 0.0000 19.2092 0.0000
# 6 0.0000 0.0000 0.0000 0.0000 0.0000 14.5250
#
#
#
# Elastic Compliance Matrix: (Units=1/GPa)
#
#
# Indices 1 2 3 4 5 6 
#
# 1 0.017642 -0.005211 -0.006216 0.000000 0.000000 0.000000
# 2 -0.005211 0.019545 -0.006710 0.000000 0.000000 0.000000
# 3 -0.006216 -0.006710 0.013924 0.000000 0.000000 0.000000
# 4 0.000000 0.000000 0.000000 0.116697 0.000000 0.000000
# 5 0.000000 0.000000 0.000000 0.000000 0.052058 0.000000
# 6 0.000000 0.000000 0.000000 0.000000 0.000000 0.068847
#
#
# Mechanical properties :
#
#
# Convention : Reuss Voigt Hill
#
# Bulk Modulus (GPa) = 67.40562 72.66239 70.03400
# Shear Modulus (GPa) = 15.15458 17.48925 16.32191
#
# Velocity S-wave (km/s) = 3.11605 3.34748 3.23384
# Velocity P-wave (km/s) = 7.49228 7.84199 7.66912
#
# Compressibility (1/GPa) = 0.01483556
#
# Stress axis : x y z
#
# Youngs Moduli (GPa) = 56.68446 51.16361 71.81875
#
# Poissons Ratio (x) = 0.26663 0.44642
# Poissons Ratio (y) = 0.29540 0.48193
# Poissons Ratio (z) = 0.35234 0.34332
#
# Static dielectric constant tensor:
#      x y z
#    x 1.500770 0.000000 0.000000 
#    y 0.000000 1.521580 0.000000 
#    z 0.000000 0.000000 1.535380 
# 
# From -- ./inp_files/62547.got.cif
#   From: 2010.05.17/outbox.cif.g08.bks.cpg/sg63_32_cif.got.tgz:62547.got - 2010.06.03 15:47:04.
