data_PCOD9468196
_publ_section_title
;
Structure prediction by ZEFSAII (Michael W. Deem and Ramdas Pophale) SiO2 
 PCOD9468196
Probable space group: C M C M
;
_chemical_formula_sum "Si O2"
_cell_formula_units_Z 72
_cell_length_a 14.017386
_cell_length_b 12.999690
_cell_length_c 22.731454
_cell_angle_alpha 90.000000
_cell_angle_beta 90.000000
_cell_angle_gamma 90.000000
_cell_volume 4142.163569
_symmetry_space_group_name_H-M "C M C M"
_symmetry_group_IT_number 63
_symmetry_cell_setting 'orthorhombic'
loop_
_space_group_symop_operation_xyz
x,y,z
-x,-y,1/2+z
x,-y,-z
-x,y,1/2-z
-x,-y,-z
x,y,1/2-z
-x,y,z
x,-y,1/2+z
1/2+x,1/2+y,z
1/2-x,1/2-y,1/2+z
1/2+x,1/2-y,-z
1/2-x,1/2+y,1/2-z
1/2-x,1/2-y,-z
1/2+x,1/2+y,1/2-z
1/2-x,1/2+y,z
1/2+x,1/2-y,1/2+z
loop_
_atom_site_type_symbol
_atom_site_label
_atom_site_fract_x
_atom_site_fract_y
_atom_site_fract_z
Si Si1 0.299721 0.529744 0.750000
Si Si2 0.104012 0.355198 0.250000
Si Si3 0.606366 0.243594 0.878405
Si Si4 0.735709 0.885106 0.846818
Si Si5 0.615334 0.241676 0.250000
Si Si6 0.388612 0.979325 0.066467
O O1 0.189224 0.565410 0.750000
O O2 0.304963 0.456114 0.806465
O O3 0.359708 0.635459 0.750000
O O4 0.110811 0.288751 0.190793
O O5 0.000000 0.406980 0.250000
O O6 0.500000 0.286061 0.889227
O O7 0.694750 0.317770 0.887079
O O8 0.617187 0.140022 0.915824
O O9 0.668850 0.813068 0.805357
O O10 0.670143 0.956961 0.886232
O O11 0.500000 0.227315 0.250000
O O12 0.500000 0.009262 0.070274
O O13 0.356235 0.000000 0.000000
#
# Coordination Sequence:
#
# PCOD9468196 Si02
#       6
#     8   8  16  16   8  16
#     4  11  20  33  50  79 110 132 164 206 255 304
#     4  10  16  30  53  74 101 132 163 204 247 300
#     4  10  20  35  54  78 103 133 175 212 250 310
#     4  11  20  34  56  76 103 140 172 206 259 309
#     4  11  22  33  49  79 111 134 163 208 256 308
#     4  10  21  36  54  76 102 134 176 222 260 300
#
# _framework density 17.382221999999999
#
# number of rings (size 3 to 8) (size 9 to 14) (size 15 to 20)
#    0.000    1.556    4.444    1.333    0.000    3.556 
#    0.000    0.000    0.000    0.667    0.000    0.000 
#    0.000    0.000    0.000    0.000    0.000    0.000 
#
# Total GULP energy -200789.573023 kJ/mol
# GULP energy per Si atom -5577.488140 kJ/mol
# Density = 1.734266 g / cm^3
# Si number density = 17.382222 Si / 1000 Ang^3
#
#
#
# Elastic Constant Matrix: (Units=GPa)
#
#
# Indices 1 2 3 4 5 6 
#
# 1 85.0992 35.0122 3.4666 0.0000 0.0000 0.0000
# 2 35.0122 66.5129 19.4353 0.0000 0.0000 0.0000
# 3 3.4666 19.4353 63.6585 0.0000 0.0000 0.0000
# 4 0.0000 0.0000 0.0000 -1.9483 0.0000 0.0000
# 5 0.0000 0.0000 0.0000 0.0000 14.7794 0.0000
# 6 0.0000 0.0000 0.0000 0.0000 0.0000 25.2132
#
#
#
# Elastic Compliance Matrix: (Units=1/GPa)
#
#
# Indices 1 2 3 4 5 6 
#
# 1 0.015179 -0.008508 0.001771 0.000000 0.000000 0.000000
# 2 -0.008508 0.021276 -0.006032 0.000000 0.000000 0.000000
# 3 0.001771 -0.006032 0.017454 0.000000 0.000000 0.000000
# 4 0.000000 0.000000 0.000000 -0.513279 0.000000 0.000000
# 5 0.000000 0.000000 0.000000 0.000000 0.067662 0.000000
# 6 0.000000 0.000000 0.000000 0.000000 0.000000 0.039662
#
#
# Mechanical properties :
#
#
# Convention : Reuss Voigt Hill
#
# Bulk Modulus (GPa) = 35.24767 36.78875 36.01821
# Shear Modulus (GPa) = -15.77032 18.09930 1.16449
#
# Velocity S-wave (km/s) = -3.01536 3.23035 0.81938
# Velocity P-wave (km/s) = 2.86337 5.92655 4.65419
#
# Compressibility (1/GPa) = 0.02837067
#
# Stress axis : x y z
#
# Youngs Moduli (GPa) = 65.87964 47.00172 57.29319
#
# Poissons Ratio (x) = 0.39988 -0.10146
# Poissons Ratio (y) = 0.56049 0.34561
# Poissons Ratio (z) = -0.11666 0.28353
#
# Static dielectric constant tensor:
#      x y z
#    x 1.594950 0.000000 0.000000 
#    y 0.000000 1.606810 0.000000 
#    z 0.000000 0.000000 1.611730 
# 
# From -- ./inp_files/62500.got.cif
#   From: 2010.05.17/outbox.cif.g08.bks.cpg/sg63_32_cif.got.tgz:62500.got - 2010.06.03 15:47:04.
