data_PCOD9468447
_publ_section_title
;
Structure prediction by ZEFSAII (Michael W. Deem and Ramdas Pophale) SiO2 
 PCOD9468447
Probable space group: C M C M
;
_chemical_formula_sum "Si O2"
_cell_formula_units_Z 72
_cell_length_a 20.703959
_cell_length_b 8.714800
_cell_length_c 22.897403
_cell_angle_alpha 90.000000
_cell_angle_beta 90.000000
_cell_angle_gamma 90.000000
_cell_volume 4131.398158
_symmetry_space_group_name_H-M "C M C M"
_symmetry_group_IT_number 63
_symmetry_cell_setting 'orthorhombic'
loop_
_space_group_symop_operation_xyz
x,y,z
-x,-y,1/2+z
x,-y,-z
-x,y,1/2-z
-x,-y,-z
x,y,1/2-z
-x,y,z
x,-y,1/2+z
1/2+x,1/2+y,z
1/2-x,1/2-y,1/2+z
1/2+x,1/2-y,-z
1/2-x,1/2+y,1/2-z
1/2-x,1/2-y,-z
1/2+x,1/2+y,1/2-z
1/2-x,1/2+y,z
1/2+x,1/2-y,1/2+z
loop_
_atom_site_type_symbol
_atom_site_label
_atom_site_fract_x
_atom_site_fract_y
_atom_site_fract_z
Si Si1 0.309441 0.474657 0.930647
Si Si2 0.574875 0.991897 0.680564
Si Si3 0.822266 0.676461 0.398376
Si Si4 0.892921 0.500000 0.000000
Si Si5 0.070899 0.247928 0.090785
O O1 0.249899 0.391666 0.898291
O O2 0.319773 0.641248 0.902802
O O3 0.372688 0.369801 0.923784
O O4 0.295983 0.500000 0.000000
O O5 0.581780 0.997334 0.750000
O O6 0.500000 0.944527 0.667097
O O7 0.629049 0.884173 0.651344
O O8 0.582966 0.159000 0.650710
O O9 0.850989 0.607390 0.458183
O O10 0.929428 0.616909 0.957696
O O11 0.000000 0.174688 0.092376
#
# Coordination Sequence:
#
# PCOD9468447 Si02
#       5
#    16  16  16   8  16
#     4  12  22  37  55  85 122 156 187 232 290 345
#     4   9  20  41  64  84 112 150 190 235 285 337
#     4  11  21  35  59  83 113 153 194 231 282 339
#     4  10  17  34  54  80 113 146 188 230 277 342
#     4  10  21  35  56  86 116 150 191 233 283 338
#
# _framework density 17.427513999999999
#
# number of rings (size 3 to 8) (size 9 to 14) (size 15 to 20)
#    0.000    1.556    3.333    3.667    0.000    2.222 
#    0.000    5.556    0.000    2.667    0.000    0.000 
#    0.000    0.000    0.000    0.000    0.000    0.000 
#
# Total GULP energy -200785.197094 kJ/mol
# GULP energy per Si atom -5577.366586 kJ/mol
# Density = 1.738785 g / cm^3
# Si number density = 17.427514 Si / 1000 Ang^3
#
#
#
# Elastic Constant Matrix: (Units=GPa)
#
#
# Indices 1 2 3 4 5 6 
#
# 1 149.7734 78.4592 53.3725 0.0000 0.0000 0.0000
# 2 78.4592 117.8272 38.3620 0.0000 0.0000 0.0000
# 3 53.3725 38.3620 93.6138 0.0000 0.0000 0.0000
# 4 0.0000 0.0000 0.0000 10.9864 0.0000 0.0000
# 5 0.0000 0.0000 0.0000 0.0000 22.3285 0.0000
# 6 0.0000 0.0000 0.0000 0.0000 0.0000 6.1805
#
#
#
# Elastic Compliance Matrix: (Units=1/GPa)
#
#
# Indices 1 2 3 4 5 6 
#
# 1 0.011366 -0.006299 -0.003899 0.000000 0.000000 0.000000
# 2 -0.006299 0.013285 -0.001853 0.000000 0.000000 0.000000
# 3 -0.003899 -0.001853 0.013664 0.000000 0.000000 0.000000
# 4 0.000000 0.000000 0.000000 0.091021 0.000000 0.000000
# 5 0.000000 0.000000 0.000000 0.000000 0.044786 0.000000
# 6 0.000000 0.000000 0.000000 0.000000 0.000000 0.161799
#
#
# Mechanical properties :
#
#
# Convention : Reuss Voigt Hill
#
# Bulk Modulus (GPa) = 70.35400 77.95575 74.15487
# Shear Modulus (GPa) = 13.70767 20.63380 17.17074
#
# Velocity S-wave (km/s) = 2.80760 3.44463 3.14230
# Velocity P-wave (km/s) = 7.13914 7.78776 7.47049
#
# Compressibility (1/GPa) = 0.01421383
#
# Stress axis : x y z
#
# Youngs Moduli (GPa) = 87.98293 75.27542 73.18381
#
# Poissons Ratio (x) = 0.47416 0.28533
# Poissons Ratio (y) = 0.55420 0.13558
# Poissons Ratio (z) = 0.34303 0.13946
#
# Static dielectric constant tensor:
#      x y z
#    x 1.619710 0.000000 0.000000 
#    y 0.000000 1.566730 0.000000 
#    z 0.000000 0.000000 1.581150 
# 
# From -- ./inp_files/63485.got.cif
#   From: 2010.05.17/outbox.cif.g08.bks.cpg/sg63_32_cif.got.tgz:63485.got - 2010.06.03 15:47:04.
