data_PCOD9468879
_publ_section_title
;
Structure prediction by ZEFSAII (Michael W. Deem and Ramdas Pophale) SiO2 
 PCOD9468879
Probable space group: C M C M
;
_chemical_formula_sum "Si O2"
_cell_formula_units_Z 96
_cell_length_a 25.038088
_cell_length_b 17.558634
_cell_length_c 14.650112
_cell_angle_alpha 90.000000
_cell_angle_beta 90.000000
_cell_angle_gamma 90.000000
_cell_volume 6440.696470
_symmetry_space_group_name_H-M "C M C M"
_symmetry_group_IT_number 63
_symmetry_cell_setting 'orthorhombic'
loop_
_space_group_symop_operation_xyz
x,y,z
-x,-y,1/2+z
x,-y,-z
-x,y,1/2-z
-x,-y,-z
x,y,1/2-z
-x,y,z
x,-y,1/2+z
1/2+x,1/2+y,z
1/2-x,1/2-y,1/2+z
1/2+x,1/2-y,-z
1/2-x,1/2+y,1/2-z
1/2-x,1/2-y,-z
1/2+x,1/2+y,1/2-z
1/2-x,1/2+y,z
1/2+x,1/2-y,1/2+z
loop_
_atom_site_type_symbol
_atom_site_label
_atom_site_fract_x
_atom_site_fract_y
_atom_site_fract_z
Si Si1 0.795145 0.684657 0.507369
Si Si2 0.129200 0.808668 0.572856
Si Si3 0.619585 0.427413 0.067500
Si Si4 0.763753 0.075903 0.642349
Si Si5 0.237416 0.106232 0.142897
Si Si6 0.063843 0.166840 0.250000
Si Si7 0.936649 0.014354 0.750000
O O1 0.750000 0.750000 0.500000
O O2 0.848370 0.729874 0.532716
O O3 0.778675 0.624600 0.585543
O O4 0.787069 0.641619 0.411847
O O5 0.100038 0.857914 0.494888
O O6 0.181637 0.858546 0.604773
O O7 0.091661 0.799875 0.660076
O O8 0.678308 0.404005 0.102203
O O9 0.587267 0.449507 0.157957
O O10 0.622081 0.500000 0.000000
O O11 0.760695 0.092226 0.750000
O O12 0.760645 0.984703 0.629868
O O13 0.239356 0.123163 0.250000
O O14 0.000000 0.176028 0.250000
O O15 0.076217 0.075836 0.250000
O O16 0.000000 0.022658 0.750000
#
# Coordination Sequence:
#
# PCOD9468879 Si02
#       7
#    16  16  16  16  16   8   8
#     4  10  20  30  43  71  99 129 161 191 237 289
#     4  11  21  33  49  71  97 131 163 205 241 288
#     4  12  19  32  50  66  93 129 169 201 243 285
#     4  11  19  29  48  70  95 134 165 193 232 290
#     4  10  18  30  48  68  99 132 162 195 233 284
#     4  11  22  36  53  70  94 129 168 211 258 281
#     4  11  24  36  49  70  90 121 174 225 246 271
#
# _framework density 14.905220999999999
#
# number of rings (size 3 to 8) (size 9 to 14) (size 15 to 20)
#    0.000    1.167    8.333    0.500    1.167    1.667 
#    1.500    0.000    0.000    0.000    0.000    0.000 
#    0.000    2.667    0.000    0.000    0.000    0.000 
#
# Total GULP energy -267681.598913 kJ/mol
# GULP energy per Si atom -5576.699977 kJ/mol
# Density = 1.487130 g / cm^3
# Si number density = 14.905221 Si / 1000 Ang^3
#
#
#
# Elastic Constant Matrix: (Units=GPa)
#
#
# Indices 1 2 3 4 5 6 
#
# 1 38.7366 6.9100 20.1008 0.0000 0.0000 0.0000
# 2 6.9100 26.4520 22.4825 0.0000 0.0000 0.0000
# 3 20.1008 22.4825 101.4361 0.0000 0.0000 0.0000
# 4 0.0000 0.0000 0.0000 16.7237 0.0000 0.0000
# 5 0.0000 0.0000 0.0000 0.0000 9.4025 0.0000
# 6 0.0000 0.0000 0.0000 0.0000 0.0000 16.2261
#
#
#
# Elastic Compliance Matrix: (Units=1/GPa)
#
#
# Indices 1 2 3 4 5 6 
#
# 1 0.029008 -0.003317 -0.005013 0.000000 0.000000 0.000000
# 2 -0.003317 0.046958 -0.009751 0.000000 0.000000 0.000000
# 3 -0.005013 -0.009751 0.013013 0.000000 0.000000 0.000000
# 4 0.000000 0.000000 0.000000 0.059795 0.000000 0.000000
# 5 0.000000 0.000000 0.000000 0.000000 0.106354 0.000000
# 6 0.000000 0.000000 0.000000 0.000000 0.000000 0.061629
#
#
# Mechanical properties :
#
#
# Convention : Reuss Voigt Hill
#
# Bulk Modulus (GPa) = 18.93288 29.51237 24.22263
# Shear Modulus (GPa) = 13.49432 16.27922 14.88677
#
# Velocity S-wave (km/s) = 3.01215 3.30840 3.16375
# Velocity P-wave (km/s) = 4.98269 5.86831 5.44354
#
# Compressibility (1/GPa) = 0.05281816
#
# Stress axis : x y z
#
# Youngs Moduli (GPa) = 34.47267 21.29550 76.84624
#
# Poissons Ratio (x) = 0.07064 0.38525
# Poissons Ratio (y) = 0.11434 0.74930
# Poissons Ratio (z) = 0.17282 0.20764
#
# Static dielectric constant tensor:
#      x y z
#    x 1.494800 0.000000 0.000000 
#    y 0.000000 1.505020 0.000000 
#    z 0.000000 0.000000 1.522240 
# 
# From -- ./inp_files/37896.got.cif
#   From: 2010.05.17/outbox.cif.g08.bks.cpg/sg63_19_cif.got.tgz:37896.got - 2010.06.03 15:47:04.
