data_PCOD9468541
_publ_section_title
;
Structure prediction by ZEFSAII (Michael W. Deem and Ramdas Pophale) SiO2 
 PCOD9468541
Probable space group: C M C M
;
_chemical_formula_sum "Si O2"
_cell_formula_units_Z 96
_cell_length_a 26.155792
_cell_length_b 24.515023
_cell_length_c 7.678810
_cell_angle_alpha 90.000000
_cell_angle_beta 90.000000
_cell_angle_gamma 90.000000
_cell_volume 4923.728550
_symmetry_space_group_name_H-M "C M C M"
_symmetry_group_IT_number 63
_symmetry_cell_setting 'orthorhombic'
loop_
_space_group_symop_operation_xyz
x,y,z
-x,-y,1/2+z
x,-y,-z
-x,y,1/2-z
-x,-y,-z
x,y,1/2-z
-x,y,z
x,-y,1/2+z
1/2+x,1/2+y,z
1/2-x,1/2-y,1/2+z
1/2+x,1/2-y,-z
1/2-x,1/2+y,1/2-z
1/2-x,1/2-y,-z
1/2+x,1/2+y,1/2-z
1/2-x,1/2+y,z
1/2+x,1/2-y,1/2+z
loop_
_atom_site_type_symbol
_atom_site_label
_atom_site_fract_x
_atom_site_fract_y
_atom_site_fract_z
Si Si1 0.309086 0.438122 0.543357
Si Si2 0.693627 0.062143 0.040590
Si Si3 0.901505 0.631677 0.463539
Si Si4 0.000000 0.063562 0.540343
Si Si5 0.000000 0.563644 0.041238
Si Si6 0.904689 0.866007 0.457469
Si Si7 0.059733 0.748924 0.462831
O O1 0.325773 0.500000 0.500000
O O2 0.305895 0.434862 0.750000
O O3 0.251479 0.430293 0.472058
O O4 0.350228 0.393819 0.486542
O O5 0.695545 0.066961 0.250000
O O6 0.651477 0.104799 0.976984
O O7 0.677843 0.000000 0.000000
O O8 0.901055 0.631334 0.250000
O O9 0.912479 0.693530 0.519031
O O10 0.949015 0.594157 0.521221
O O11 0.949471 0.094413 0.473994
O O12 0.000000 0.067956 0.750000
O O13 0.000000 0.000000 0.500000
O O14 0.000000 0.569256 0.250000
O O15 0.000000 0.500000 0.000000
O O16 0.911886 0.862734 0.250000
O O17 0.913409 0.804617 0.523302
O O18 0.060003 0.748383 0.250000
O O19 0.000000 0.748700 0.514387
#
# Coordination Sequence:
#
# PCOD9468541 Si02
#       7
#    16  16  16   8   8  16  16
#     4  10  20  34  51  71  98 131 165 201 242 290
#     4   9  18  32  50  72  99 131 165 201 243 289
#     4   9  16  28  48  74  99 126 163 203 242 284
#     4  10  20  31  45  69  97 120 147 190 242 290
#     4  10  18  27  45  73 101 126 157 200 247 292
#     4  10  19  32  51  74  98 124 160 203 245 289
#     4   9  15  28  50  74  98 127 164 203 238 282
#
# _framework density 19.497420000000002
#
# number of rings (size 3 to 8) (size 9 to 14) (size 15 to 20)
#    0.000    2.500    1.667    1.500    0.000    2.667 
#    0.000    0.833    0.000    2.000    0.000    0.000 
#    0.000    0.000    0.000    0.000    0.000    0.000 
#
# Total GULP energy -267880.001968 kJ/mol
# GULP energy per Si atom -5580.833374 kJ/mol
# Density = 1.945304 g / cm^3
# Si number density = 19.497420 Si / 1000 Ang^3
#
#
#
# Elastic Constant Matrix: (Units=GPa)
#
#
# Indices 1 2 3 4 5 6 
#
# 1 134.1994 120.4308 2.8586 0.0000 0.0000 0.0000
# 2 120.4308 218.0899 3.1709 0.0000 0.0000 0.0000
# 3 2.8586 3.1709 31.6362 0.0000 0.0000 0.0000
# 4 0.0000 0.0000 0.0000 15.3285 0.0000 0.0000
# 5 0.0000 0.0000 0.0000 0.0000 -46.5270 0.0000
# 6 0.0000 0.0000 0.0000 0.0000 0.0000 27.5786
#
#
#
# Elastic Compliance Matrix: (Units=1/GPa)
#
#
# Indices 1 2 3 4 5 6 
#
# 1 0.014780 -0.008154 -0.000518 0.000000 0.000000 0.000000
# 2 -0.008154 0.009091 -0.000174 0.000000 0.000000 0.000000
# 3 -0.000518 -0.000174 0.031674 0.000000 0.000000 0.000000
# 4 0.000000 0.000000 0.000000 0.065238 0.000000 0.000000
# 5 0.000000 0.000000 0.000000 0.000000 -0.021493 0.000000
# 6 0.000000 0.000000 0.000000 0.000000 0.000000 0.036260
#
#
# Mechanical properties :
#
#
# Convention : Reuss Voigt Hill
#
# Bulk Modulus (GPa) = 26.41942 70.76069 48.59005
# Shear Modulus (GPa) = 30.14587 16.44036 23.29311
#
# Velocity S-wave (km/s) = 3.93637 2.90695 3.46016
# Velocity P-wave (km/s) = 5.85147 6.90205 6.39836
#
# Compressibility (1/GPa) = 0.03785095
#
# Stress axis : x y z
#
# Youngs Moduli (GPa) = 67.65782 110.00341 31.57194
#
# Poissons Ratio (x) = 0.89699 0.01636
# Poissons Ratio (y) = 0.55170 0.00550
# Poissons Ratio (z) = 0.03506 0.01918
#
# Static dielectric constant tensor:
#      x y z
#    x 1.689890 0.000000 0.000000 
#    y 0.000000 1.647450 0.000000 
#    z 0.000000 0.000000 1.727220 
# 
# From -- ./inp_files/12799.got.cif
#   From: 2010.05.17/outbox.cif.g08.bks.cpg/sg63_7_cif.got.tgz:12799.got - 2010.06.03 15:47:04.
