data_PCOD9468130
_publ_section_title
;
Structure prediction by ZEFSAII (Michael W. Deem and Ramdas Pophale) SiO2 
 PCOD9468130
Probable space group: C M C M
;
_chemical_formula_sum "Si O2"
_cell_formula_units_Z 56
_cell_length_a 30.217321
_cell_length_b 5.179229
_cell_length_c 14.381087
_cell_angle_alpha 90.000000
_cell_angle_beta 90.000000
_cell_angle_gamma 90.000000
_cell_volume 2250.674993
_symmetry_space_group_name_H-M "C M C M"
_symmetry_group_IT_number 63
_symmetry_cell_setting 'orthorhombic'
loop_
_space_group_symop_operation_xyz
x,y,z
-x,-y,1/2+z
x,-y,-z
-x,y,1/2-z
-x,-y,-z
x,y,1/2-z
-x,y,z
x,-y,1/2+z
1/2+x,1/2+y,z
1/2-x,1/2-y,1/2+z
1/2+x,1/2-y,-z
1/2-x,1/2+y,1/2-z
1/2-x,1/2-y,-z
1/2+x,1/2+y,1/2-z
1/2-x,1/2+y,z
1/2+x,1/2-y,1/2+z
loop_
_atom_site_type_symbol
_atom_site_label
_atom_site_fract_x
_atom_site_fract_y
_atom_site_fract_z
Si Si1 0.869629 0.059925 0.605715
Si Si2 0.591917 0.936256 0.110622
Si Si3 0.000000 0.748425 0.933243
Si Si4 0.225157 0.699297 0.137311
O O1 0.901557 0.276454 0.648922
O O2 0.883636 0.000000 0.500000
O O3 0.872193 0.771215 0.645667
O O4 0.821793 0.190811 0.605446
O O5 0.545143 0.792709 0.123483
O O6 0.597140 0.000000 0.000000
O O7 0.000000 0.500000 0.000000
O O8 0.000000 0.000000 0.000000
O O9 0.223989 0.699644 0.250000
O O10 0.261603 0.911917 0.107399
#
# Coordination Sequence:
#
# PCOD9468130 Si02
#       4
#    16  16   8  16
#     4  10  19  31  48  72  99 124 157 200 243 285
#     4   9  17  28  44  70 100 128 157 193 235 282
#     4  10  16  26  44  68 101 134 159 188 233 280
#     4  10  21  36  52  70  93 124 163 202 242 294
#
# _framework density 24.881426000000001
#
# number of rings (size 3 to 8) (size 9 to 14) (size 15 to 20)
#    0.000    2.286    0.000    6.000    0.000    1.143 
#    0.000    0.000    0.000    0.000    0.000    6.000 
#    0.000    0.000    0.000    0.000    0.000    0.000 
#
# Total GULP energy -156281.844850 kJ/mol
# GULP energy per Si atom -5581.494459 kJ/mol
# Density = 2.482479 g / cm^3
# Si number density = 24.881426 Si / 1000 Ang^3
#
#
#
# Elastic Constant Matrix: (Units=GPa)
#
#
# Indices 1 2 3 4 5 6 
#
# 1 107.3609 37.1195 -19.7662 0.0000 0.0000 0.0000
# 2 37.1195 172.3738 0.6359 0.0000 0.0000 0.0000
# 3 -19.7662 0.6359 85.8609 0.0000 0.0000 0.0000
# 4 0.0000 0.0000 0.0000 -13.5385 0.0000 0.0000
# 5 0.0000 0.0000 0.0000 0.0000 59.1081 0.0000
# 6 0.0000 0.0000 0.0000 0.0000 0.0000 45.8071
#
#
#
# Elastic Compliance Matrix: (Units=1/GPa)
#
#
# Indices 1 2 3 4 5 6 
#
# 1 0.010554 -0.002282 0.002446 0.000000 0.000000 0.000000
# 2 -0.002282 0.006295 -0.000572 0.000000 0.000000 0.000000
# 3 0.002446 -0.000572 0.012214 0.000000 0.000000 0.000000
# 4 0.000000 0.000000 0.000000 -0.073863 0.000000 0.000000
# 5 0.000000 0.000000 0.000000 0.000000 0.016918 0.000000
# 6 0.000000 0.000000 0.000000 0.000000 0.000000 0.021831
#
#
# Mechanical properties :
#
#
# Convention : Reuss Voigt Hill
#
# Bulk Modulus (GPa) = 35.40013 44.61932 40.00972
# Shear Modulus (GPa) = 1196.57442 41.44910 619.01176
#
# Velocity S-wave (km/s) = 21.95347 4.08593 15.79002
# Velocity P-wave (km/s) = 25.62937 6.34283 18.66944
#
# Compressibility (1/GPa) = 0.02824849
#
# Stress axis : x y z
#
# Youngs Moduli (GPa) = 94.75366 158.86122 81.87198
#
# Poissons Ratio (x) = 0.36247 -0.20030
# Poissons Ratio (y) = 0.21620 0.04682
# Poissons Ratio (z) = -0.23181 0.09085
#
# Static dielectric constant tensor:
#      x y z
#    x 2.053110 0.000000 0.000000 
#    y 0.000000 1.998620 0.000000 
#    z 0.000000 0.000000 1.999510 
# 
# From -- ./inp_files/48580.got.cif
#   From: 2010.05.17/outbox.cif.g08.bks.cpg/sg63_25_cif.got.tgz:48580.got - 2010.06.03 15:47:04.
