data_PCOD9468300
_publ_section_title
;
Structure prediction by ZEFSAII (Michael W. Deem and Ramdas Pophale) SiO2 
 PCOD9468300
Probable space group: C M C M
;
_chemical_formula_sum "Si O2"
_cell_formula_units_Z 64
_cell_length_a 13.645806
_cell_length_b 11.979149
_cell_length_c 22.089888
_cell_angle_alpha 90.000000
_cell_angle_beta 90.000000
_cell_angle_gamma 90.000000
_cell_volume 3610.926707
_symmetry_space_group_name_H-M "C M C M"
_symmetry_group_IT_number 63
_symmetry_cell_setting 'orthorhombic'
loop_
_space_group_symop_operation_xyz
x,y,z
-x,-y,1/2+z
x,-y,-z
-x,y,1/2-z
-x,-y,-z
x,y,1/2-z
-x,y,z
x,-y,1/2+z
1/2+x,1/2+y,z
1/2-x,1/2-y,1/2+z
1/2+x,1/2-y,-z
1/2-x,1/2+y,1/2-z
1/2-x,1/2-y,-z
1/2+x,1/2+y,1/2-z
1/2-x,1/2+y,z
1/2+x,1/2-y,1/2+z
loop_
_atom_site_type_symbol
_atom_site_label
_atom_site_fract_x
_atom_site_fract_y
_atom_site_fract_z
Si Si1 0.244791 0.875101 0.420131
Si Si2 0.388086 0.271710 0.985192
Si Si3 0.385702 0.725115 0.820881
Si Si4 0.609417 0.078402 0.087142
O O1 0.320596 0.771840 0.430779
O O2 0.168474 0.864787 0.475858
O O3 0.184123 0.855505 0.359110
O O4 0.308101 0.986330 0.419455
O O5 0.500000 0.299792 0.970130
O O6 0.389427 0.165763 0.031539
O O7 0.363456 0.728877 0.750000
O O8 0.500000 0.692185 0.828688
O O9 0.377268 0.845814 0.853274
O O10 0.500000 0.026918 0.088088
#
# Coordination Sequence:
#
# PCOD9468300 Si02
#       4
#    16  16  16  16
#     4  10  17  27  51  76  94 122 158 192 232 276
#     4   9  18  31  47  72 103 127 152 188 231 283
#     4   9  19  35  51  68  92 122 160 202 237 276
#     4   9  17  30  50  74  96 121 156 196 236 277
#
# _framework density 17.723981999999999
#
# number of rings (size 3 to 8) (size 9 to 14) (size 15 to 20)
#    0.000    2.750    0.000    3.750    0.000    3.000 
#    0.000    0.000    0.000   68.250    0.000    0.000 
#    0.000    0.000    0.000    0.000    0.000    0.000 
#
# Total GULP energy -178509.296917 kJ/mol
# GULP energy per Si atom -5578.415529 kJ/mol
# Density = 1.768364 g / cm^3
# Si number density = 17.723982 Si / 1000 Ang^3
#
#
#
# Elastic Constant Matrix: (Units=GPa)
#
#
# Indices 1 2 3 4 5 6 
#
# 1 121.7633 39.4354 34.5011 0.0000 0.0000 0.0000
# 2 39.4354 55.6990 19.5954 0.0000 0.0000 0.0000
# 3 34.5011 19.5954 83.4153 0.0000 0.0000 0.0000
# 4 0.0000 0.0000 0.0000 8.9700 0.0000 0.0000
# 5 0.0000 0.0000 0.0000 0.0000 28.7995 0.0000
# 6 0.0000 0.0000 0.0000 0.0000 0.0000 39.5416
#
#
#
# Elastic Compliance Matrix: (Units=1/GPa)
#
#
# Indices 1 2 3 4 5 6 
#
# 1 0.011327 -0.006946 -0.003053 0.000000 0.000000 0.000000
# 2 -0.006946 0.023830 -0.002725 0.000000 0.000000 0.000000
# 3 -0.003053 -0.002725 0.013891 0.000000 0.000000 0.000000
# 4 0.000000 0.000000 0.000000 0.111483 0.000000 0.000000
# 5 0.000000 0.000000 0.000000 0.000000 0.034723 0.000000
# 6 0.000000 0.000000 0.000000 0.000000 0.000000 0.025290
#
#
# Mechanical properties :
#
#
# Convention : Reuss Voigt Hill
#
# Bulk Modulus (GPa) = 42.37282 49.77127 46.07205
# Shear Modulus (GPa) = 19.69597 26.61860 23.15728
#
# Velocity S-wave (km/s) = 3.33717 3.87956 3.61855
# Velocity P-wave (km/s) = 6.22960 6.94336 6.59614
#
# Compressibility (1/GPa) = 0.02360003
#
# Stress axis : x y z
#
# Youngs Moduli (GPa) = 88.28235 41.96400 71.98741
#
# Poissons Ratio (x) = 0.29147 0.21981
# Poissons Ratio (y) = 0.61317 0.19618
# Poissons Ratio (z) = 0.26956 0.11436
#
# Static dielectric constant tensor:
#      x y z
#    x 1.645500 0.000000 0.000000 
#    y 0.000000 1.618380 0.000000 
#    z 0.000000 0.000000 1.599220 
# 
# From -- ./inp_files/53770.got.cif
#   From: 2010.05.17/outbox.cif.g08.bks.cpg/sg63_27_cif.got.tgz:53770.got - 2010.06.03 15:47:04.
