data_PCOD9468420
_publ_section_title
;
Structure prediction by ZEFSAII (Michael W. Deem and Ramdas Pophale) SiO2 
 PCOD9468420
Probable space group: C M C M
;
_chemical_formula_sum "Si O2"
_cell_formula_units_Z 116
_cell_length_a 27.236782
_cell_length_b 7.131406
_cell_length_c 23.499213
_cell_angle_alpha 90.000000
_cell_angle_beta 90.000000
_cell_angle_gamma 90.000000
_cell_volume 4564.406074
_symmetry_space_group_name_H-M "C M C M"
_symmetry_group_IT_number 63
_symmetry_cell_setting 'orthorhombic'
loop_
_space_group_symop_operation_xyz
x,y,z
-x,-y,1/2+z
x,-y,-z
-x,y,1/2-z
-x,-y,-z
x,y,1/2-z
-x,y,z
x,-y,1/2+z
1/2+x,1/2+y,z
1/2-x,1/2-y,1/2+z
1/2+x,1/2-y,-z
1/2-x,1/2+y,1/2-z
1/2-x,1/2-y,-z
1/2+x,1/2+y,1/2-z
1/2-x,1/2+y,z
1/2+x,1/2-y,1/2+z
loop_
_atom_site_type_symbol
_atom_site_label
_atom_site_fract_x
_atom_site_fract_y
_atom_site_fract_z
Si Si1 0.614570 0.176846 0.029110
Si Si2 0.500000 0.242222 0.250000
Si Si3 0.553312 0.744190 0.316247
Si Si4 0.420246 0.853207 0.847653
Si Si5 0.216082 0.265632 0.929624
Si Si6 0.842210 0.132735 0.311295
Si Si7 0.322934 0.338811 0.566273
Si Si8 0.189907 0.707148 0.189455
O O1 0.587112 0.231687 0.088084
O O2 0.669527 0.113573 0.049735
O O3 0.630984 0.305421 0.975149
O O4 0.588649 0.000000 0.000000
O O5 0.542867 0.233225 0.301117
O O6 0.551554 0.811186 0.250000
O O7 0.500000 0.660499 0.328328
O O8 0.598989 0.605764 0.317939
O O9 0.562397 0.929657 0.352881
O O10 0.365562 0.860770 0.821088
O O11 0.271063 0.254561 0.953032
O O12 0.222816 0.334817 0.864663
O O13 0.190773 0.059962 0.931843
O O14 0.833861 0.227107 0.250000
O O15 0.830660 0.233269 0.369959
O O16 0.816595 0.932336 0.309588
O O17 0.209567 0.643005 0.250000
#
# Coordination Sequence:
#
# PCOD9468420 Si02
#       8
#    16   4  16  16  16  16  16  16
#     4  11  23  38  59  87 122 158 206 245 298 359
#     4  12  20  40  66  98 126 148 204 250 314 372
#     4  10  17  32  53  82 112 146 188 241 299 363
#     4  11  20  36  62  91 120 159 192 253 302 361
#     4  10  22  36  62  86 120 168 207 258 304 363
#     4   9  20  35  56  82 121 161 202 255 314 371
#     4  11  21  39  57  86 123 161 211 258 306 365
#     4   9  18  36  55  89 125 158 206 254 312 362
#
# _framework density 25.414041999999998
#
# number of rings (size 3 to 8) (size 9 to 14) (size 15 to 20)
#    0.000    1.793    2.069    2.483    0.000    1.655 
#    1.241    0.345    1.517    0.000    0.000    2.897 
#    0.000    0.000    0.000    0.000    0.000    0.000 
#
# Total GULP energy -323160.824456 kJ/mol
# GULP energy per Si atom -5571.738353 kJ/mol
# Density = 2.535620 g / cm^3
# Si number density = 25.414042 Si / 1000 Ang^3
#
#
#
# Elastic Constant Matrix: (Units=GPa)
#
#
# Indices 1 2 3 4 5 6 
#
# 1 109.0955 9.0398 33.2500 0.0000 0.0000 0.0000
# 2 9.0398 57.2843 24.3458 0.0000 0.0000 0.0000
# 3 33.2500 24.3458 186.6357 0.0000 0.0000 0.0000
# 4 0.0000 0.0000 0.0000 11.9568 0.0000 0.0000
# 5 0.0000 0.0000 0.0000 0.0000 50.5221 0.0000
# 6 0.0000 0.0000 0.0000 0.0000 0.0000 20.9197
#
#
#
# Elastic Compliance Matrix: (Units=1/GPa)
#
#
# Indices 1 2 3 4 5 6 
#
# 1 0.009731 -0.000846 -0.001623 0.000000 0.000000 0.000000
# 2 -0.000846 0.018555 -0.002270 0.000000 0.000000 0.000000
# 3 -0.001623 -0.002270 0.005943 0.000000 0.000000 0.000000
# 4 0.000000 0.000000 0.000000 0.083634 0.000000 0.000000
# 5 0.000000 0.000000 0.000000 0.000000 0.019793 0.000000
# 6 0.000000 0.000000 0.000000 0.000000 0.000000 0.047802
#
#
# Mechanical properties :
#
#
# Convention : Reuss Voigt Hill
#
# Bulk Modulus (GPa) = 40.40119 54.03187 47.21653
# Shear Modulus (GPa) = 24.60787 35.77172 30.18979
#
# Velocity S-wave (km/s) = 3.11509 3.75581 3.45036
# Velocity P-wave (km/s) = 5.37309 6.33364 5.87303
#
# Compressibility (1/GPa) = 0.02475174
#
# Stress axis : x y z
#
# Youngs Moduli (GPa) = 102.76319 53.89419 168.25636
#
# Poissons Ratio (x) = 0.04558 0.27313
# Poissons Ratio (y) = 0.08691 0.38190
# Poissons Ratio (z) = 0.16682 0.12233
#
# Static dielectric constant tensor:
#      x y z
#    x 1.950850 0.000000 0.000000 
#    y 0.000000 2.126680 0.000000 
#    z 0.000000 0.000000 2.125010 
# 
# From -- ./inp_files/65492.got.cif
#   From: 2010.05.17/outbox.cif.g08.bks.cpg/sg63_33_cif.got.tgz:65492.got - 2010.06.03 15:47:04.
