data_PCOD9468823
_publ_section_title
;
Structure prediction by ZEFSAII (Michael W. Deem and Ramdas Pophale) SiO2 
 PCOD9468823
Probable space group: C M C M
;
_chemical_formula_sum "Si O2"
_cell_formula_units_Z 104
_cell_length_a 21.062717
_cell_length_b 32.584953
_cell_length_c 8.567204
_cell_angle_alpha 90.000000
_cell_angle_beta 90.000000
_cell_angle_gamma 90.000000
_cell_volume 5879.908933
_symmetry_space_group_name_H-M "C M C M"
_symmetry_group_IT_number 63
_symmetry_cell_setting 'orthorhombic'
loop_
_space_group_symop_operation_xyz
x,y,z
-x,-y,1/2+z
x,-y,-z
-x,y,1/2-z
-x,-y,-z
x,y,1/2-z
-x,y,z
x,-y,1/2+z
1/2+x,1/2+y,z
1/2-x,1/2-y,1/2+z
1/2+x,1/2-y,-z
1/2-x,1/2+y,1/2-z
1/2-x,1/2-y,-z
1/2+x,1/2+y,1/2-z
1/2-x,1/2+y,z
1/2+x,1/2-y,1/2+z
loop_
_atom_site_type_symbol
_atom_site_label
_atom_site_fract_x
_atom_site_fract_y
_atom_site_fract_z
Si Si1 0.264133 0.456287 0.437215
Si Si2 0.194332 0.868215 0.934662
Si Si3 0.866950 0.578787 0.560717
Si Si4 0.319730 0.168635 0.936834
Si Si5 0.928115 0.175584 0.937759
Si Si6 0.428241 0.772176 0.937896
Si Si7 0.000000 0.454314 0.060633
O O1 0.288380 0.500000 0.500000
O O2 0.266354 0.457090 0.250000
O O3 0.296241 0.413737 0.492611
O O4 0.190711 0.450216 0.490777
O O5 0.201421 0.871641 0.750000
O O6 0.248558 0.836653 0.996995
O O7 0.126232 0.850371 0.980865
O O8 0.867474 0.577142 0.750000
O O9 0.850865 0.625122 0.517441
O O10 0.935728 0.566543 0.503412
O O11 0.315018 0.171217 0.750000
O O12 0.368437 0.203113 0.995206
O O13 0.921398 0.171945 0.750000
O O14 0.921989 0.223939 0.976207
O O15 0.000000 0.162920 0.979001
O O16 0.427100 0.775895 0.750000
O O17 0.500000 0.785520 0.989709
O O18 0.000000 0.453498 0.250000
O O19 0.000000 0.500000 0.000000
#
# Coordination Sequence:
#
# PCOD9468823 Si02
#       7
#    16  16  16  16  16  16   8
#     4  10  19  34  54  78 106 139 178 219 266 321
#     4  11  22  36  56  82 111 142 178 224 272 321
#     4   8  17  30  46  67  96 133 173 219 264 308
#     4  10  20  34  52  76 105 142 186 229 273 319
#     4   9  19  38  61  82 108 142 176 215 267 326
#     4   9  19  35  54  78 109 144 182 225 273 324
#     4  10  18  30  44  62  90 124 168 216 264 310
#
# _framework density 17.687349000000001
#
# number of rings (size 3 to 8) (size 9 to 14) (size 15 to 20)
#    0.000    2.462    0.000    4.615    1.077    1.846 
#    0.000    5.385    0.000    0.462    0.000    0.000 
#    0.000    0.000    0.000    0.000    0.000    0.000 
#
# Total GULP energy -289880.886980 kJ/mol
# GULP energy per Si atom -5574.632442 kJ/mol
# Density = 1.764709 g / cm^3
# Si number density = 17.687349 Si / 1000 Ang^3
#
#
#
# Elastic Constant Matrix: (Units=GPa)
#
#
# Indices 1 2 3 4 5 6 
#
# 1 129.9940 64.4532 43.2412 0.0000 0.0000 0.0000
# 2 64.4532 73.9693 35.8847 0.0000 0.0000 0.0000
# 3 43.2412 35.8847 58.9240 0.0000 0.0000 0.0000
# 4 0.0000 0.0000 0.0000 28.4410 0.0000 0.0000
# 5 0.0000 0.0000 0.0000 0.0000 22.7807 0.0000
# 6 0.0000 0.0000 0.0000 0.0000 0.0000 13.5444
#
#
#
# Elastic Compliance Matrix: (Units=1/GPa)
#
#
# Indices 1 2 3 4 5 6 
#
# 1 0.014209 -0.010393 -0.004098 0.000000 0.000000 0.000000
# 2 -0.010393 0.026790 -0.008688 0.000000 0.000000 0.000000
# 3 -0.004098 -0.008688 0.025269 0.000000 0.000000 0.000000
# 4 0.000000 0.000000 0.000000 0.035161 0.000000 0.000000
# 5 0.000000 0.000000 0.000000 0.000000 0.043897 0.000000
# 6 0.000000 0.000000 0.000000 0.000000 0.000000 0.073831
#
#
# Mechanical properties :
#
#
# Convention : Reuss Voigt Hill
#
# Bulk Modulus (GPa) = 50.22575 61.11617 55.67096
# Shear Modulus (GPa) = 18.37217 20.90710 19.63963
#
# Velocity S-wave (km/s) = 3.22641 3.44181 3.33585
# Velocity P-wave (km/s) = 6.50674 7.10094 6.81032
#
# Compressibility (1/GPa) = 0.01991011
#
# Stress axis : x y z
#
# Youngs Moduli (GPa) = 70.37965 37.32766 39.57372
#
# Poissons Ratio (x) = 0.38794 0.16216
# Poissons Ratio (y) = 0.73144 0.34383
# Poissons Ratio (z) = 0.28840 0.32431
#
# Static dielectric constant tensor:
#      x y z
#    x 1.596040 0.000000 0.000000 
#    y 0.000000 1.595520 0.000000 
#    z 0.000000 0.000000 1.600400 
# 
# From -- ./inp_files/8805.got.cif
#   From: 2010.05.17/outbox.cif.g08.bks.cpg/sg63_5_cif.got.tgz:8805.got - 2010.06.03 15:47:04.
