data_PCOD9468645
_publ_section_title
;
Structure prediction by ZEFSAII (Michael W. Deem and Ramdas Pophale) SiO2 
 PCOD9468645
Probable space group: C M C M
;
_chemical_formula_sum "Si O2"
_cell_formula_units_Z 112
_cell_length_a 18.193765
_cell_length_b 12.277691
_cell_length_c 20.277013
_cell_angle_alpha 90.000000
_cell_angle_beta 90.000000
_cell_angle_gamma 90.000000
_cell_volume 4529.426947
_symmetry_space_group_name_H-M "C M C M"
_symmetry_group_IT_number 63
_symmetry_cell_setting 'orthorhombic'
loop_
_space_group_symop_operation_xyz
x,y,z
-x,-y,1/2+z
x,-y,-z
-x,y,1/2-z
-x,-y,-z
x,y,1/2-z
-x,y,z
x,-y,1/2+z
1/2+x,1/2+y,z
1/2-x,1/2-y,1/2+z
1/2+x,1/2-y,-z
1/2-x,1/2+y,1/2-z
1/2-x,1/2-y,-z
1/2+x,1/2+y,1/2-z
1/2-x,1/2+y,z
1/2+x,1/2-y,1/2+z
loop_
_atom_site_type_symbol
_atom_site_label
_atom_site_fract_x
_atom_site_fract_y
_atom_site_fract_z
Si Si1 0.916035 0.624992 0.001959
Si Si2 0.707604 0.612864 0.573313
Si Si3 0.811254 0.802794 0.566195
Si Si4 0.821627 0.545437 0.677933
Si Si5 0.579870 0.153975 0.156678
Si Si6 0.915537 0.907217 0.323273
Si Si7 0.085229 0.235586 0.173475
O O1 0.918965 0.658454 0.077712
O O2 0.000000 0.626612 0.975612
O O3 0.890324 0.500000 0.000000
O O4 0.863765 0.709285 0.965682
O O5 0.737077 0.738432 0.585898
O O6 0.702540 0.614339 0.493713
O O7 0.768326 0.548171 0.615345
O O8 0.633751 0.580237 0.611375
O O9 0.858869 0.835511 0.629466
O O10 0.786293 0.567636 0.750000
O O11 0.859079 0.428979 0.679238
O O12 0.882727 0.640667 0.669314
O O13 0.500000 0.107755 0.175234
O O14 0.584741 0.275786 0.181736
O O15 0.892019 0.947605 0.250000
O O16 0.000000 0.943676 0.333560
O O17 0.089119 0.205112 0.250000
O O18 0.000000 0.229033 0.152983
#
# Coordination Sequence:
#
# PCOD9468645 Si02
#       7
#    16  16  16  16  16  16  16
#     4  10  18  28  46  74 108 142 176 212 256 315
#     4  10  20  33  47  68 100 141 184 222 259 311
#     4  10  19  31  47  66  98 141 182 220 258 309
#     4  10  19  31  48  71 105 145 181 219 259 309
#     4  10  19  31  49  78 111 143 180 216 260 318
#     4  10  20  34  52  74 104 141 179 221 267 316
#     4   9  17  28  44  68  96 128 166 208 258 315
#
# _framework density 24.727188999999999
#
# number of rings (size 3 to 8) (size 9 to 14) (size 15 to 20)
#    0.000    2.143    1.429    3.429    0.000    3.714 
#    0.000    0.000    0.000    0.000    0.000    0.000 
#    0.000   12.000    0.000   22.143    6.286    0.000 
#
# Total GULP energy -313080.649027 kJ/mol
# GULP energy per Si atom -5590.725875 kJ/mol
# Density = 2.467091 g / cm^3
# Si number density = 24.727189 Si / 1000 Ang^3
#
#
#
# Elastic Constant Matrix: (Units=GPa)
#
#
# Indices 1 2 3 4 5 6 
#
# 1 111.5057 5.9320 30.0748 0.0000 0.0000 0.0000
# 2 5.9320 81.2526 -10.3983 0.0000 0.0000 0.0000
# 3 30.0748 -10.3983 144.5378 0.0000 0.0000 0.0000
# 4 0.0000 0.0000 0.0000 9.1903 0.0000 0.0000
# 5 0.0000 0.0000 0.0000 0.0000 35.2000 0.0000
# 6 0.0000 0.0000 0.0000 0.0000 0.0000 18.3148
#
#
#
# Elastic Compliance Matrix: (Units=1/GPa)
#
#
# Indices 1 2 3 4 5 6 
#
# 1 0.009575 -0.000963 -0.002062 0.000000 0.000000 0.000000
# 2 -0.000963 0.012518 0.001101 0.000000 0.000000 0.000000
# 3 -0.002062 0.001101 0.007427 0.000000 0.000000 0.000000
# 4 0.000000 0.000000 0.000000 0.108811 0.000000 0.000000
# 5 0.000000 0.000000 0.000000 0.000000 0.028409 0.000000
# 6 0.000000 0.000000 0.000000 0.000000 0.000000 0.054601
#
#
# Mechanical properties :
#
#
# Convention : Reuss Voigt Hill
#
# Bulk Modulus (GPa) = 38.95075 43.16812 41.05944
# Shear Modulus (GPa) = 21.39070 33.32020 27.35545
#
# Velocity S-wave (km/s) = 2.94439 3.67483 3.32970
# Velocity P-wave (km/s) = 5.22931 5.95831 5.60567
#
# Compressibility (1/GPa) = 0.02567344
#
# Stress axis : x y z
#
# Youngs Moduli (GPa) = 104.43380 79.88183 134.64749
#
# Poissons Ratio (x) = 0.07692 0.27760
# Poissons Ratio (y) = 0.10056 -0.14824
# Poissons Ratio (z) = 0.21531 -0.08795
#
# Static dielectric constant tensor:
#      x y z
#    x 1.977440 0.000000 0.000000 
#    y 0.000000 1.957380 0.000000 
#    z 0.000000 0.000000 1.995140 
# 
# From -- ./inp_files/55813.got.cif
#   From: 2010.05.17/outbox.cif.g08.bks.cpg/sg63_28_cif.got.tgz:55813.got - 2010.06.03 15:47:04.
