data_PCOD9468160
_publ_section_title
;
Structure prediction by ZEFSAII (Michael W. Deem and Ramdas Pophale) SiO2 
 PCOD9468160
Probable space group: C M C M
;
_chemical_formula_sum "Si O2"
_cell_formula_units_Z 128
_cell_length_a 20.118836
_cell_length_b 20.978763
_cell_length_c 19.019260
_cell_angle_alpha 90.000000
_cell_angle_beta 90.000000
_cell_angle_gamma 90.000000
_cell_volume 8027.426589
_symmetry_space_group_name_H-M "C M C M"
_symmetry_group_IT_number 63
_symmetry_cell_setting 'orthorhombic'
loop_
_space_group_symop_operation_xyz
x,y,z
-x,-y,1/2+z
x,-y,-z
-x,y,1/2-z
-x,-y,-z
x,y,1/2-z
-x,y,z
x,-y,1/2+z
1/2+x,1/2+y,z
1/2-x,1/2-y,1/2+z
1/2+x,1/2-y,-z
1/2-x,1/2+y,1/2-z
1/2-x,1/2-y,-z
1/2+x,1/2+y,1/2-z
1/2-x,1/2+y,z
1/2+x,1/2-y,1/2+z
loop_
_atom_site_type_symbol
_atom_site_label
_atom_site_fract_x
_atom_site_fract_y
_atom_site_fract_z
Si Si1 0.075491 0.744543 0.018864
Si Si2 0.245700 0.067249 0.530807
Si Si3 0.279786 0.142276 0.168871
Si Si4 0.898282 0.594689 0.495569
Si Si5 0.283483 0.992537 0.327766
Si Si6 0.704402 0.695438 0.035332
Si Si7 0.929516 0.506331 0.622008
Si Si8 0.076962 0.704740 0.330842
O O1 0.085309 0.753078 0.103522
O O2 0.000000 0.761617 0.001328
O O3 0.085681 0.668505 0.009979
O O4 0.129761 0.778790 0.971012
O O5 0.319618 0.080316 0.499736
O O6 0.206734 0.129863 0.508896
O O7 0.220927 0.000000 0.500000
O O8 0.254717 0.053588 0.613097
O O9 0.262615 0.157715 0.250000
O O10 0.267576 0.066928 0.158110
O O11 0.236713 0.179965 0.111243
O O12 0.358975 0.158012 0.161761
O O13 0.926632 0.564828 0.566989
O O14 0.924611 0.554545 0.429782
O O15 0.260804 0.975897 0.250000
O O16 0.363541 0.990017 0.332548
O O17 0.750000 0.750000 0.000000
O O18 0.000000 0.505122 0.659706
O O19 0.080890 0.729050 0.250000
O O20 0.000000 0.679506 0.338170
#
# Coordination Sequence:
#
# PCOD9468160 Si02
#       8
#    16  16  16  16  16  16  16  16
#     4  11  21  32  50  76 108 138 176 220 265 318
#     4  11  18  34  54  75 102 134 173 215 259 307
#     4  10  19  33  51  77 108 139 179 223 266 315
#     4  10  16  28  46  70  99 133 174 215 252 301
#     4  10  20  32  47  70 102 137 172 216 265 311
#     4  12  21  34  57  83 104 139 181 222 263 314
#     4  10  17  25  42  67  97 138 179 209 247 298
#     4   9  17  28  43  69 108 147 173 208 267 323
#
# _framework density 15.945334000000001
#
# number of rings (size 3 to 8) (size 9 to 14) (size 15 to 20)
#    0.000    1.625    6.250    2.250    0.000    1.750 
#    0.000    2.500    0.000    0.750    0.000    0.000 
#    0.000    0.000    0.000    0.000    0.000    0.000 
#
# Total GULP energy -356652.573270 kJ/mol
# GULP energy per Si atom -5572.696457 kJ/mol
# Density = 1.590904 g / cm^3
# Si number density = 15.945334 Si / 1000 Ang^3
#
#
#
# Elastic Constant Matrix: (Units=GPa)
#
#
# Indices 1 2 3 4 5 6 
#
# 1 69.8518 33.0682 36.3190 0.0000 0.0000 0.0000
# 2 33.0682 66.0885 32.9131 0.0000 0.0000 0.0000
# 3 36.3190 32.9131 110.5844 0.0000 0.0000 0.0000
# 4 0.0000 0.0000 0.0000 17.9473 0.0000 0.0000
# 5 0.0000 0.0000 0.0000 0.0000 9.6782 0.0000
# 6 0.0000 0.0000 0.0000 0.0000 0.0000 -0.7728
#
#
#
# Elastic Compliance Matrix: (Units=1/GPa)
#
#
# Indices 1 2 3 4 5 6 
#
# 1 0.020357 -0.008049 -0.004290 0.000000 0.000000 0.000000
# 2 -0.008049 0.020947 -0.003591 0.000000 0.000000 0.000000
# 3 -0.004290 -0.003591 0.011521 0.000000 0.000000 0.000000
# 4 0.000000 0.000000 0.000000 0.055719 0.000000 0.000000
# 5 0.000000 0.000000 0.000000 0.000000 0.103325 0.000000
# 6 0.000000 0.000000 0.000000 0.000000 0.000000 -1.294027
#
#
# Mechanical properties :
#
#
# Convention : Reuss Voigt Hill
#
# Bulk Modulus (GPa) = 47.70034 50.12503 48.91268
# Shear Modulus (GPa) = -4.79245 14.98551 5.09653
#
# Velocity S-wave (km/s) = -1.73553 3.06895 1.78975
# Velocity P-wave (km/s) = 5.09547 6.63790 5.91716
#
# Compressibility (1/GPa) = 0.02096421
#
# Stress axis : x y z
#
# Youngs Moduli (GPa) = 49.12239 47.73920 86.80108
#
# Poissons Ratio (x) = 0.38428 0.37239
# Poissons Ratio (y) = 0.39541 0.31169
# Poissons Ratio (z) = 0.21074 0.17142
#
# Static dielectric constant tensor:
#      x y z
#    x 1.550810 0.000000 0.000000 
#    y 0.000000 1.526110 0.000000 
#    z 0.000000 0.000000 1.565510 
# 
# From -- ./inp_files/47513.got.cif
#   From: 2010.05.17/outbox.cif.g08.bks.cpg/sg63_24_cif.got.tgz:47513.got - 2010.06.03 15:47:04.
