data_PCOD9468558
_publ_section_title
;
Structure prediction by ZEFSAII (Michael W. Deem and Ramdas Pophale) SiO2 
 PCOD9468558
Probable space group: C M C M
;
_chemical_formula_sum "Si O2"
_cell_formula_units_Z 112
_cell_length_a 22.270644
_cell_length_b 18.553993
_cell_length_c 14.087248
_cell_angle_alpha 90.000000
_cell_angle_beta 90.000000
_cell_angle_gamma 90.000000
_cell_volume 5820.982912
_symmetry_space_group_name_H-M "C M C M"
_symmetry_group_IT_number 63
_symmetry_cell_setting 'orthorhombic'
loop_
_space_group_symop_operation_xyz
x,y,z
-x,-y,1/2+z
x,-y,-z
-x,y,1/2-z
-x,-y,-z
x,y,1/2-z
-x,y,z
x,-y,1/2+z
1/2+x,1/2+y,z
1/2-x,1/2-y,1/2+z
1/2+x,1/2-y,-z
1/2-x,1/2+y,1/2-z
1/2-x,1/2-y,-z
1/2+x,1/2+y,1/2-z
1/2-x,1/2+y,z
1/2+x,1/2-y,1/2+z
loop_
_atom_site_type_symbol
_atom_site_label
_atom_site_fract_x
_atom_site_fract_y
_atom_site_fract_z
Si Si1 0.290655 0.544919 0.361620
Si Si2 0.792179 0.119998 0.640673
Si Si3 0.346171 0.830661 0.139009
Si Si4 0.931910 0.456272 0.134872
Si Si5 0.817724 0.187193 0.042800
Si Si6 0.433098 0.878070 0.634023
Si Si7 0.802768 0.657404 0.138385
O O1 0.303719 0.544510 0.250000
O O2 0.297182 0.462955 0.393713
O O3 0.329236 0.608984 0.408078
O O4 0.221889 0.574629 0.370337
O O5 0.811419 0.126088 0.750000
O O6 0.722225 0.141262 0.635657
O O7 0.825606 0.171828 0.567852
O O8 0.360655 0.818280 0.250000
O O9 0.386901 0.895296 0.100548
O O10 0.351353 0.754997 0.085524
O O11 0.924872 0.459149 0.250000
O O12 0.925291 0.538702 0.102699
O O13 0.000000 0.434111 0.114356
O O14 0.752747 0.303405 0.925009
O O15 0.433533 0.878577 0.750000
O O16 0.500000 0.853249 0.604339
O O17 0.371628 0.837264 0.609634
O O18 0.795370 0.677720 0.250000
#
# Coordination Sequence:
#
# PCOD9468558 Si02
#       7
#    16  16  16  16  16  16  16
#     4   8  15  27  42  59  82 112 145 175 213 262
#     4  10  19  29  42  60  83 114 152 188 218 262
#     4  10  18  28  43  63  88 116 147 181 223 275
#     4   8  14  24  40  62  88 117 149 184 222 265
#     4  10  18  28  41  61  88 118 145 178 225 272
#     4   8  12  20  36  60  88 118 153 188 220 258
#     4   8  14  23  38  58  83 114 145 175 216 262
#
# _framework density 19.240735999999998
#
# number of rings (size 3 to 8) (size 9 to 14) (size 15 to 20)
#    0.857    2.286    0.000    3.429    0.000    3.429 
#    0.000    0.000    0.000    0.857    0.000    3.000 
#    0.000    2.857    0.000    6.857    0.000    9.429 
#
# Total GULP energy -312115.781535 kJ/mol
# GULP energy per Si atom -5573.496099 kJ/mol
# Density = 1.919694 g / cm^3
# Si number density = 19.240736 Si / 1000 Ang^3
#
#
#
# Elastic Constant Matrix: (Units=GPa)
#
#
# Indices 1 2 3 4 5 6 
#
# 1 41.9247 8.3432 13.8561 0.0000 0.0000 0.0000
# 2 8.3432 98.0247 32.9080 0.0000 0.0000 0.0000
# 3 13.8561 32.9080 75.7559 0.0000 0.0000 0.0000
# 4 0.0000 0.0000 0.0000 31.6642 0.0000 0.0000
# 5 0.0000 0.0000 0.0000 0.0000 3.5695 0.0000
# 6 0.0000 0.0000 0.0000 0.0000 0.0000 24.0657
#
#
#
# Elastic Compliance Matrix: (Units=1/GPa)
#
#
# Indices 1 2 3 4 5 6 
#
# 1 0.025429 -0.000706 -0.004344 0.000000 0.000000 0.000000
# 2 -0.000706 0.011963 -0.005067 0.000000 0.000000 0.000000
# 3 -0.004344 -0.005067 0.016196 0.000000 0.000000 0.000000
# 4 0.000000 0.000000 0.000000 0.031581 0.000000 0.000000
# 5 0.000000 0.000000 0.000000 0.000000 0.280149 0.000000
# 6 0.000000 0.000000 0.000000 0.000000 0.000000 0.041553
#
#
# Mechanical properties :
#
#
# Convention : Reuss Voigt Hill
#
# Bulk Modulus (GPa) = 29.98310 36.21333 33.09821
# Shear Modulus (GPa) = 11.40971 22.56643 16.98807
#
# Velocity S-wave (km/s) = 2.43780 3.42840 2.97462
# Velocity P-wave (km/s) = 4.85188 5.87656 5.38863
#
# Compressibility (1/GPa) = 0.03335213
#
# Stress axis : x y z
#
# Youngs Moduli (GPa) = 39.32587 83.59241 61.74291
#
# Poissons Ratio (x) = 0.05900 0.26823
# Poissons Ratio (y) = 0.02776 0.31288
# Poissons Ratio (z) = 0.17085 0.42360
#
# Static dielectric constant tensor:
#      x y z
#    x 1.644000 0.000000 0.000000 
#    y 0.000000 1.702550 0.000000 
#    z 0.000000 0.000000 1.772890 
# 
# From -- ./inp_files/37908.got.cif
#   From: 2010.05.17/outbox.cif.g08.bks.cpg/sg63_19_cif.got.tgz:37908.got - 2010.06.03 15:47:04.
