data_PCOD9468261
_publ_section_title
;
Structure prediction by ZEFSAII (Michael W. Deem and Ramdas Pophale) SiO2 
 PCOD9468261
Probable space group: C M C M
;
_chemical_formula_sum "Si O2"
_cell_formula_units_Z 80
_cell_length_a 15.484465
_cell_length_b 17.572511
_cell_length_c 15.916175
_cell_angle_alpha 90.000000
_cell_angle_beta 90.000000
_cell_angle_gamma 90.000000
_cell_volume 4330.806044
_symmetry_space_group_name_H-M "C M C M"
_symmetry_group_IT_number 63
_symmetry_cell_setting 'orthorhombic'
loop_
_space_group_symop_operation_xyz
x,y,z
-x,-y,1/2+z
x,-y,-z
-x,y,1/2-z
-x,-y,-z
x,y,1/2-z
-x,y,z
x,-y,1/2+z
1/2+x,1/2+y,z
1/2-x,1/2-y,1/2+z
1/2+x,1/2-y,-z
1/2-x,1/2+y,1/2-z
1/2-x,1/2-y,-z
1/2+x,1/2+y,1/2-z
1/2-x,1/2+y,z
1/2+x,1/2-y,1/2+z
loop_
_atom_site_type_symbol
_atom_site_label
_atom_site_fract_x
_atom_site_fract_y
_atom_site_fract_z
Si Si1 0.246478 0.896060 0.750000
Si Si2 0.597767 0.202448 0.750000
Si Si3 0.000000 0.635007 0.024532
Si Si4 0.596574 0.771266 0.750000
Si Si5 0.000000 0.524272 0.621085
Si Si6 0.359992 0.259717 0.428936
Si Si7 0.349416 0.042666 0.750000
Si Si8 0.670020 0.304524 0.895368
O O1 0.331075 0.838861 0.750000
O O2 0.194983 0.874682 0.835013
O O3 0.272857 0.983353 0.750000
O O4 0.500000 0.172129 0.750000
O O5 0.665224 0.132864 0.750000
O O6 0.613117 0.252275 0.833368
O O7 0.916322 0.685606 0.044976
O O8 0.000000 0.556235 0.074659
O O9 0.000000 0.602105 0.931414
O O10 0.500000 0.805726 0.750000
O O11 0.606661 0.722530 0.835174
O O12 0.911622 0.525262 0.672148
O O13 0.367797 0.314180 0.510618
O O14 0.260293 0.238846 0.413074
#
# Coordination Sequence:
#
# PCOD9468261 Si02
#       8
#     8   8   8   8   8  16   8  16
#     4   9  19  33  51  70 108 148 191 219 273 342
#     4  11  21  34  54  81 118 153 190 226 286 342
#     4  11  20  30  48  76 114 153 184 222 272 353
#     4  10  17  26  45  74  97 137 178 230 273 331
#     4  10  20  28  42  78 116 150 178 206 270 344
#     4  10  19  31  50  70 103 148 190 237 279 322
#     4  11  20  31  51  76 109 153 182 218 271 344
#     4   9  20  35  49  73 109 154 189 234 275 333
#
# _framework density 18.472311000000001
#
# number of rings (size 3 to 8) (size 9 to 14) (size 15 to 20)
#    0.000    2.000    2.000    4.200    2.800    0.000 
#    0.000    0.000    0.000    0.000    0.000    0.000 
#   12.000    1.600    0.000    0.400    0.000    0.000 
#
# Total GULP energy -222702.616713 kJ/mol
# GULP energy per Si atom -5567.565418 kJ/mol
# Density = 1.843027 g / cm^3
# Si number density = 18.472311 Si / 1000 Ang^3
#
#
#
# Elastic Constant Matrix: (Units=GPa)
#
#
# Indices 1 2 3 4 5 6 
#
# 1 40.4086 14.6619 22.9801 0.0000 0.0000 0.0000
# 2 14.6619 43.7726 34.9894 0.0000 0.0000 0.0000
# 3 22.9801 34.9894 162.2966 0.0000 0.0000 0.0000
# 4 0.0000 0.0000 0.0000 5.9546 0.0000 0.0000
# 5 0.0000 0.0000 0.0000 0.0000 27.9304 0.0000
# 6 0.0000 0.0000 0.0000 0.0000 0.0000 27.6965
#
#
#
# Elastic Compliance Matrix: (Units=1/GPa)
#
#
# Indices 1 2 3 4 5 6 
#
# 1 0.028941 -0.007755 -0.002426 0.000000 0.000000 0.000000
# 2 -0.007755 0.029680 -0.005301 0.000000 0.000000 0.000000
# 3 -0.002426 -0.005301 0.007648 0.000000 0.000000 0.000000
# 4 0.000000 0.000000 0.000000 0.167936 0.000000 0.000000
# 5 0.000000 0.000000 0.000000 0.000000 0.035803 0.000000
# 6 0.000000 0.000000 0.000000 0.000000 0.000000 0.036106
#
#
# Mechanical properties :
#
#
# Convention : Reuss Voigt Hill
#
# Bulk Modulus (GPa) = 28.32402 43.52672 35.92537
# Shear Modulus (GPa) = 14.33305 23.90608 19.11956
#
# Velocity S-wave (km/s) = 2.78856 3.60134 3.22069
# Velocity P-wave (km/s) = 5.07293 6.39588 5.77243
#
# Compressibility (1/GPa) = 0.03530572
#
# Stress axis : x y z
#
# Youngs Moduli (GPa) = 34.55364 33.69287 130.75613
#
# Poissons Ratio (x) = 0.26128 0.31721
# Poissons Ratio (y) = 0.26795 0.69309
# Poissons Ratio (z) = 0.08383 0.17859
#
# Static dielectric constant tensor:
#      x y z
#    x 1.638070 0.000000 0.000000 
#    y 0.000000 1.608210 0.000000 
#    z 0.000000 0.000000 1.743400 
# 
# From -- ./inp_files/44082.got.cif
#   From: 2010.05.17/outbox.cif.g08.bks.cpg/sg63_23_cif.got.tgz:44082.got - 2010.06.03 15:47:04.
