data_PCOD9468316
_publ_section_title
;
Structure prediction by ZEFSAII (Michael W. Deem and Ramdas Pophale) SiO2 
 PCOD9468316
Probable space group: C M C M
;
_chemical_formula_sum "Si O2"
_cell_formula_units_Z 96
_cell_length_a 10.629887
_cell_length_b 28.275866
_cell_length_c 19.878483
_cell_angle_alpha 90.000000
_cell_angle_beta 90.000000
_cell_angle_gamma 90.000000
_cell_volume 5974.860933
_symmetry_space_group_name_H-M "C M C M"
_symmetry_group_IT_number 63
_symmetry_cell_setting 'orthorhombic'
loop_
_space_group_symop_operation_xyz
x,y,z
-x,-y,1/2+z
x,-y,-z
-x,y,1/2-z
-x,-y,-z
x,y,1/2-z
-x,y,z
x,-y,1/2+z
1/2+x,1/2+y,z
1/2-x,1/2-y,1/2+z
1/2+x,1/2-y,-z
1/2-x,1/2+y,1/2-z
1/2-x,1/2-y,-z
1/2+x,1/2+y,1/2-z
1/2-x,1/2+y,z
1/2+x,1/2-y,1/2+z
loop_
_atom_site_type_symbol
_atom_site_label
_atom_site_fract_x
_atom_site_fract_y
_atom_site_fract_z
Si Si1 0.742814 0.131740 0.443280
Si Si2 0.648691 0.055796 0.670750
Si Si3 0.500000 0.299657 0.093755
Si Si4 0.500000 0.209812 0.908193
Si Si5 0.500000 0.682528 0.068095
Si Si6 0.743155 0.850466 0.395440
Si Si7 0.500000 0.192173 0.069857
Si Si8 0.349493 0.027347 0.430297
O O1 0.740961 0.137435 0.524691
O O2 0.625160 0.162164 0.416207
O O3 0.721867 0.076888 0.427189
O O4 0.873636 0.153346 0.417814
O O5 0.664609 0.049416 0.750000
O O6 0.500000 0.065073 0.656809
O O7 0.723923 0.100951 0.644139
O O8 0.681415 0.008710 0.629537
O O9 0.626446 0.324288 0.119764
O O10 0.500000 0.243373 0.104285
O O11 0.500000 0.307541 0.012597
O O12 0.500000 0.266002 0.897569
O O13 0.374899 0.184051 0.881997
O O14 0.500000 0.201857 0.989202
O O15 0.500000 0.037279 0.429280
O O16 0.323194 0.000000 0.500000
#
# Coordination Sequence:
#
# PCOD9468316 Si02
#       8
#    16  16   8   8   8  16   8  16
#     4  10  17  28  46  72 101 131 160 197 248 292
#     4  10  20  33  50  74  98 125 166 209 243 294
#     4   9  18  28  42  69 105 132 154 196 240 290
#     4   9  16  26  46  67  97 134 160 192 232 284
#     4   9  18  28  40  70 108 129 156 196 242 291
#     4  10  17  29  47  70  98 132 161 194 246 290
#     4   9  16  26  44  70  98 129 166 192 230 285
#     4  10  18  29  50  73  95 126 164 206 250 296
#
# _framework density 16.067319999999999
#
# number of rings (size 3 to 8) (size 9 to 14) (size 15 to 20)
#    0.000    2.333    3.333    1.000    0.000    4.000 
#    0.000    1.667    0.000    0.000    0.000    7.000 
#    0.000    0.000    0.000    0.000    0.000    0.000 
#
# Total GULP energy -267601.820349 kJ/mol
# GULP energy per Si atom -5575.037924 kJ/mol
# Density = 1.603075 g / cm^3
# Si number density = 16.067320 Si / 1000 Ang^3
#
#
#
# Elastic Constant Matrix: (Units=GPa)
#
#
# Indices 1 2 3 4 5 6 
#
# 1 135.9902 93.8757 24.1784 0.0000 0.0000 0.0000
# 2 93.8757 179.9787 31.3820 0.0000 0.0000 0.0000
# 3 24.1784 31.3820 25.7323 0.0000 0.0000 0.0000
# 4 0.0000 0.0000 0.0000 11.7249 0.0000 0.0000
# 5 0.0000 0.0000 0.0000 0.0000 7.9050 0.0000
# 6 0.0000 0.0000 0.0000 0.0000 0.0000 7.7593
#
#
#
# Elastic Compliance Matrix: (Units=1/GPa)
#
#
# Indices 1 2 3 4 5 6 
#
# 1 0.011903 -0.005408 -0.004588 0.000000 0.000000 0.000000
# 2 -0.005408 0.009514 -0.006521 0.000000 0.000000 0.000000
# 3 -0.004588 -0.006521 0.051126 0.000000 0.000000 0.000000
# 4 0.000000 0.000000 0.000000 0.085289 0.000000 0.000000
# 5 0.000000 0.000000 0.000000 0.000000 0.126502 0.000000
# 6 0.000000 0.000000 0.000000 0.000000 0.000000 0.128877
#
#
# Mechanical properties :
#
#
# Convention : Reuss Voigt Hill
#
# Bulk Modulus (GPa) = 25.31190 71.17481 48.24336
# Shear Modulus (GPa) = 10.88340 18.29552 14.58946
#
# Velocity S-wave (km/s) = 2.60544 3.37809 3.01661
# Velocity P-wave (km/s) = 4.98387 7.72071 6.49801
#
# Compressibility (1/GPa) = 0.03950711
#
# Stress axis : x y z
#
# Youngs Moduli (GPa) = 84.01478 105.10519 19.55951
#
# Poissons Ratio (x) = 0.56844 0.08974
# Poissons Ratio (y) = 0.45438 0.12756
# Poissons Ratio (z) = 0.38547 0.68544
#
# Static dielectric constant tensor:
#      x y z
#    x 1.535430 0.000000 0.000000 
#    y 0.000000 1.521670 0.000000 
#    z 0.000000 0.000000 1.514730 
# 
# From -- ./inp_files/53123.got.cif
#   From: 2010.05.17/outbox.cif.g08.bks.cpg/sg63_27_cif.got.tgz:53123.got - 2010.06.03 15:47:04.
