data_PCOD9468027
_publ_section_title
;
Structure prediction by ZEFSAII (Michael W. Deem and Ramdas Pophale) SiO2 
 PCOD9468027
Probable space group: P N M A
;
_chemical_formula_sum "Si O2"
_cell_formula_units_Z 48
_cell_length_a 15.000000
_cell_length_b 18.000000
_cell_length_c 9.000000
_cell_angle_alpha 90.000000
_cell_angle_beta 90.000000
_cell_angle_gamma 90.000000
_cell_volume 2430.000000
_symmetry_space_group_name_H-M "P N M A"
_symmetry_group_IT_number 62
_symmetry_cell_setting 'orthorhombic'
loop_
_space_group_symop_operation_xyz
x,y,z
1/2-x,-y,1/2+z
1/2+x,1/2-y,1/2-z
-x,1/2+y,-z
-x,-y,-z
1/2+x,y,1/2-z
1/2-x,1/2+y,1/2+z
x,1/2-y,z
loop_
_atom_site_type_symbol
_atom_site_label
_atom_site_fract_x
_atom_site_fract_y
_atom_site_fract_z
Si Si1 0.944040 0.838404 0.197448
Si Si2 0.742142 0.090127 0.596914
Si Si3 0.445601 0.661489 0.945316
Si Si4 0.149617 0.839325 0.653263
Si Si5 0.243984 0.412295 0.402558
Si Si6 0.849243 0.338693 0.847440
O O1 0.929420 0.750000 0.171806
O O2 0.859008 0.882547 0.131236
O O3 0.947001 0.849951 0.376020
O O4 0.044652 0.855843 0.138103
O O5 0.776584 0.111406 0.433701
O O6 0.815142 0.141005 0.683440
O O7 0.750754 0.001232 0.622906
O O8 0.432291 0.750000 0.917880
O O9 0.545172 0.642385 0.882694
O O10 0.358129 0.617550 0.885055
O O11 0.159777 0.750000 0.631047
O O12 0.180969 0.863657 0.816211
O O13 0.279159 0.390997 0.566128
O O14 0.837011 0.250000 0.875480
#
# Coordination Sequence:
#
# PCOD9468027 Si02
#       6
#     8   8   8   8   8   8
#     4  10  21  39  69  96 117 166 227 263 296 368
#     4  12  24  40  64  96 131 166 209 261 316 376
#     4  10  21  41  68  92 121 171 220 255 309 377
#     4  11  24  42  64  95 129 166 213 267 314 372
#     4  12  26  40  63  98 136 167 199 262 334 379
#     4  11  22  42  68  92 121 169 224 263 301 375
#
# _framework density 19.753086
#
# number of rings (size 3 to 8) (size 9 to 14) (size 15 to 20)
#    0.000    1.000    3.333    4.000    0.000    4.000 
#    0.000    1.667    0.000    0.000    0.000    0.000 
#    0.000    0.000    0.000    0.000    0.000    0.000 
#
# Total GULP energy -267620.301064 kJ/mol
# GULP energy per Si atom -5575.422939 kJ/mol
# Density = 1.970813 g / cm^3
# Si number density = 19.753086 Si / 1000 Ang^3
#
#
#
# Elastic Constant Matrix: (Units=GPa)
#
#
# Indices 1 2 3 4 5 6 
#
# 1 158.2313 60.1464 -10.9459 0.0000 0.0000 0.0000
# 2 60.1464 113.9649 -5.5261 0.0000 0.0000 0.0000
# 3 -10.9459 -5.5261 1.2886 0.0000 0.0000 0.0000
# 4 0.0000 0.0000 0.0000 30.3963 0.0000 0.0000
# 5 0.0000 0.0000 0.0000 0.0000 41.3793 0.0000
# 6 0.0000 0.0000 0.0000 0.0000 0.0000 34.0055
#
#
#
# Elastic Compliance Matrix: (Units=1/GPa)
#
#
# Indices 1 2 3 4 5 6 
#
# 1 0.015793 -0.002310 0.124244 0.000000 0.000000 0.000000
# 2 -0.002310 0.011416 0.029333 0.000000 0.000000 0.000000
# 3 0.124244 0.029333 1.957237 0.000000 0.000000 0.000000
# 4 0.000000 0.000000 0.000000 0.032899 0.000000 0.000000
# 5 0.000000 0.000000 0.000000 0.000000 0.024167 0.000000
# 6 0.000000 0.000000 0.000000 0.000000 0.000000 0.029407
#
#
# Mechanical properties :
#
#
# Convention : Reuss Voigt Hill
#
# Bulk Modulus (GPa) = 0.43726 40.09262 20.26494
# Shear Modulus (GPa) = 1.97573 36.47692 19.22633
#
# Velocity S-wave (km/s) = 1.00119 4.30192 3.12321
# Velocity P-wave (km/s) = 1.24834 6.70942 4.82570
#
# Compressibility (1/GPa) = 2.28698124
#
# Stress axis : x y z
#
# Youngs Moduli (GPa) = 63.31982 87.59401 0.51092
#
# Poissons Ratio (x) = 0.20237 -0.06348
# Poissons Ratio (y) = 0.14629 -0.01499
# Poissons Ratio (z) = -7.86713 -2.56943
#
# Static dielectric constant tensor:
#      x y z
#    x 1.654590 0.000000 0.000000 
#    y 0.000000 1.645450 0.000000 
#    z 0.000000 0.000000 1.726270 
# 
# From -- ./inp_files/6421.got.cif
#   From: 2010.05.17/outbox.ucp.g08.bks.cvg/sg62_4_cif.got.tgz:6421.got - 2010.06.11 16:29:25.
