data_PCOD9468088
_publ_section_title
;
Structure prediction by ZEFSAII (Michael W. Deem and Ramdas Pophale) SiO2 
 PCOD9468088
Probable space group: C M C M
;
_chemical_formula_sum "Si O2"
_cell_formula_units_Z 72
_cell_length_a 14.402827
_cell_length_b 18.159863
_cell_length_c 17.097948
_cell_angle_alpha 90.000000
_cell_angle_beta 90.000000
_cell_angle_gamma 90.000000
_cell_volume 4472.025836
_symmetry_space_group_name_H-M "C M C M"
_symmetry_group_IT_number 63
_symmetry_cell_setting 'orthorhombic'
loop_
_space_group_symop_operation_xyz
x,y,z
-x,-y,1/2+z
x,-y,-z
-x,y,1/2-z
-x,-y,-z
x,y,1/2-z
-x,y,z
x,-y,1/2+z
1/2+x,1/2+y,z
1/2-x,1/2-y,1/2+z
1/2+x,1/2-y,-z
1/2-x,1/2+y,1/2-z
1/2-x,1/2-y,-z
1/2+x,1/2+y,1/2-z
1/2-x,1/2+y,z
1/2+x,1/2-y,1/2+z
loop_
_atom_site_type_symbol
_atom_site_label
_atom_site_fract_x
_atom_site_fract_y
_atom_site_fract_z
Si Si1 0.294049 0.402565 0.337992
Si Si2 0.500000 0.617024 0.068518
Si Si3 0.691426 0.548119 0.420533
Si Si4 0.000000 0.271320 0.998746
Si Si5 0.202773 0.670627 0.988497
Si Si6 0.000000 0.863124 0.390925
O O1 0.266996 0.383682 0.250000
O O2 0.279096 0.488996 0.356239
O O3 0.238167 0.359385 0.405000
O O4 0.404026 0.384419 0.349720
O O5 0.406340 0.584329 0.102477
O O6 0.500000 0.403134 0.024392
O O7 0.500000 0.705749 0.063776
O O8 0.679303 0.500000 0.500000
O O9 0.760105 0.613394 0.446371
O O10 0.000000 0.222654 0.918380
O O11 0.093084 0.317806 0.006225
O O12 0.250000 0.750000 0.000000
#
# Coordination Sequence:
#
# PCOD9468088 Si02
#       6
#    16   8  16   8  16   8
#     4  11  22  34  52  82 113 143 176 223 282 323
#     4  10  14  27  56  81 106 125 172 225 266 313
#     4  10  17  30  53  76 105 138 172 214 261 315
#     4  10  18  31  57  88 102 128 193 227 258 313
#     4  11  18  35  58  79 105 143 183 222 263 319
#     4  10  16  31  57  83 110 133 169 237 275 320
#
# _framework density 16.100086000000001
#
# number of rings (size 3 to 8) (size 9 to 14) (size 15 to 20)
#    0.667    0.889    8.889    1.333    0.000    0.000 
#    0.000    6.667    0.000    1.333    0.000    0.000 
#    0.000    0.000    0.000    0.000    0.000    0.000 
#
# Total GULP energy -200485.234702 kJ/mol
# GULP energy per Si atom -5569.034297 kJ/mol
# Density = 1.606344 g / cm^3
# Si number density = 16.100086 Si / 1000 Ang^3
#
#
#
# Elastic Constant Matrix: (Units=GPa)
#
#
# Indices 1 2 3 4 5 6 
#
# 1 129.0833 65.1421 21.3514 0.0000 0.0000 0.0000
# 2 65.1421 108.4501 28.7490 0.0000 0.0000 0.0000
# 3 21.3514 28.7490 66.7014 0.0000 0.0000 0.0000
# 4 0.0000 0.0000 0.0000 12.4115 0.0000 0.0000
# 5 0.0000 0.0000 0.0000 0.0000 7.4409 0.0000
# 6 0.0000 0.0000 0.0000 0.0000 0.0000 32.8947
#
#
#
# Elastic Compliance Matrix: (Units=1/GPa)
#
#
# Indices 1 2 3 4 5 6 
#
# 1 0.011152 -0.006494 -0.000771 0.000000 0.000000 0.000000
# 2 -0.006494 0.014192 -0.004038 0.000000 0.000000 0.000000
# 3 -0.000771 -0.004038 0.016979 0.000000 0.000000 0.000000
# 4 0.000000 0.000000 0.000000 0.080570 0.000000 0.000000
# 5 0.000000 0.000000 0.000000 0.000000 0.134393 0.000000
# 6 0.000000 0.000000 0.000000 0.000000 0.000000 0.030400
#
#
# Mechanical properties :
#
#
# Convention : Reuss Voigt Hill
#
# Bulk Modulus (GPa) = 50.71694 59.41332 55.06513
# Shear Modulus (GPa) = 15.77961 23.14890 19.46426
#
# Velocity S-wave (km/s) = 3.13404 3.79596 3.48077
# Velocity P-wave (km/s) = 6.68324 7.49634 7.10144
#
# Compressibility (1/GPa) = 0.01971728
#
# Stress axis : x y z
#
# Youngs Moduli (GPa) = 89.67261 70.46178 58.89496
#
# Poissons Ratio (x) = 0.45759 0.04539
# Poissons Ratio (y) = 0.58234 0.23783
# Poissons Ratio (z) = 0.06911 0.28454
#
# Static dielectric constant tensor:
#      x y z
#    x 1.535400 0.000000 0.000000 
#    y 0.000000 1.558530 0.000000 
#    z 0.000000 0.000000 1.542420 
# 
# From -- ./inp_files/41935.got.cif
#   From: 2010.05.17/outbox.cif.g08.bks.cpg/sg63_21_cif.got.tgz:41935.got - 2010.06.03 15:47:04.
