data_PCOD9468940
_publ_section_title
;
Structure prediction by ZEFSAII (Michael W. Deem and Ramdas Pophale) SiO2 
 PCOD9468940
Probable space group: C M C M
;
_chemical_formula_sum "Si O2"
_cell_formula_units_Z 96
_cell_length_a 7.380850
_cell_length_b 21.029933
_cell_length_c 29.419622
_cell_angle_alpha 90.000000
_cell_angle_beta 90.000000
_cell_angle_gamma 90.000000
_cell_volume 4566.477864
_symmetry_space_group_name_H-M "C M C M"
_symmetry_group_IT_number 63
_symmetry_cell_setting 'orthorhombic'
loop_
_space_group_symop_operation_xyz
x,y,z
-x,-y,1/2+z
x,-y,-z
-x,y,1/2-z
-x,-y,-z
x,y,1/2-z
-x,y,z
x,-y,1/2+z
1/2+x,1/2+y,z
1/2-x,1/2-y,1/2+z
1/2+x,1/2-y,-z
1/2-x,1/2+y,1/2-z
1/2-x,1/2-y,-z
1/2+x,1/2+y,1/2-z
1/2-x,1/2+y,z
1/2+x,1/2-y,1/2+z
loop_
_atom_site_type_symbol
_atom_site_label
_atom_site_fract_x
_atom_site_fract_y
_atom_site_fract_z
Si Si1 0.719286 0.190138 0.300728
Si Si2 0.212500 0.040511 0.300190
Si Si3 0.721575 0.492049 0.898020
Si Si4 0.780885 0.135756 0.449852
Si Si5 0.789217 0.241762 0.610318
Si Si6 0.221750 0.122008 0.554027
O O1 0.776947 0.209526 0.250000
O O2 0.500000 0.190679 0.301735
O O3 0.773628 0.116634 0.307352
O O4 0.787694 0.233432 0.341867
O O5 0.290058 0.026590 0.250000
O O6 0.000000 0.024540 0.298155
O O7 0.285124 0.008162 0.345739
O O8 0.500000 0.491346 0.897410
O O9 0.778394 0.426990 0.922585
O O10 0.776654 0.554029 0.925960
O O11 0.720818 0.199296 0.424409
O O12 0.720967 0.132317 0.502070
O O13 0.000000 0.136114 0.449484
O O14 0.714016 0.179318 0.586109
O O15 0.000000 0.227489 0.619181
O O16 0.000000 0.122914 0.553468
#
# Coordination Sequence:
#
# PCOD9468940 Si02
#       6
#    16  16  16  16  16  16
#     4   9  17  29  45  65  89 118 150 181 220 272
#     4   9  16  27  46  71  92 111 145 192 232 262
#     4   9  16  28  46  69  93 118 151 188 225 267
#     4  10  18  30  50  70  88 120 160 191 221 264
#     4  10  19  31  47  68  94 121 150 189 230 268
#     4   9  18  30  45  67  95 123 152 186 226 272
#
# _framework density 21.022767000000002
#
# number of rings (size 3 to 8) (size 9 to 14) (size 15 to 20)
#    0.000    2.667    1.667    1.000    0.000    2.000 
#    0.000    0.833    0.000   10.000    0.000    0.000 
#    0.000    5.333    0.000    0.000    0.000    0.000 
#
# Total GULP energy -267990.014622 kJ/mol
# GULP energy per Si atom -5583.125305 kJ/mol
# Density = 2.097492 g / cm^3
# Si number density = 21.022767 Si / 1000 Ang^3
#
#
#
# Elastic Constant Matrix: (Units=GPa)
#
#
# Indices 1 2 3 4 5 6 
#
# 1 73.3659 -12.5448 -4.4363 0.0000 0.0000 0.0000
# 2 -12.5448 45.8425 -11.9487 0.0000 0.0000 0.0000
# 3 -4.4363 -11.9487 103.7958 0.0000 0.0000 0.0000
# 4 0.0000 0.0000 0.0000 -0.8570 0.0000 0.0000
# 5 0.0000 0.0000 0.0000 0.0000 0.5180 0.0000
# 6 0.0000 0.0000 0.0000 0.0000 0.0000 13.8628
#
#
#
# Elastic Compliance Matrix: (Units=1/GPa)
#
#
# Indices 1 2 3 4 5 6 
#
# 1 0.014421 0.004234 0.001104 0.000000 0.000000 0.000000
# 2 0.004234 0.023732 0.002913 0.000000 0.000000 0.000000
# 3 0.001104 0.002913 0.010017 0.000000 0.000000 0.000000
# 4 0.000000 0.000000 0.000000 -1.166918 0.000000 0.000000
# 5 0.000000 0.000000 0.000000 0.000000 1.930607 0.000000
# 6 0.000000 0.000000 0.000000 0.000000 0.000000 0.072136
#
#
# Mechanical properties :
#
#
# Convention : Reuss Voigt Hill
#
# Bulk Modulus (GPa) = 15.46293 18.34941 16.90617
# Shear Modulus (GPa) = 5.62398 19.50037 12.56217
#
# Velocity S-wave (km/s) = 1.63737 3.04893 2.44714
# Velocity P-wave (km/s) = 3.30847 4.59803 4.00549
#
# Compressibility (1/GPa) = 0.06467082
#
# Stress axis : x y z
#
# Youngs Moduli (GPa) = 69.34321 42.13779 99.83229
#
# Poissons Ratio (x) = -0.17841 -0.11019
# Poissons Ratio (y) = -0.29360 -0.29080
# Poissons Ratio (z) = -0.07654 -0.12274
#
# Static dielectric constant tensor:
#      x y z
#    x 1.999870 0.000000 0.000000 
#    y 0.000000 1.686910 0.000000 
#    z 0.000000 0.000000 1.763010 
# 
# From -- ./inp_files/66936.got.cif
#   From: 2010.05.17/outbox.cif.g08.bks.cpg/sg63_34_cif.got.tgz:66936.got - 2010.06.03 15:47:04.
