data_PCOD9468015
_publ_section_title
;
Structure prediction by ZEFSAII (Michael W. Deem and Ramdas Pophale) SiO2 
 PCOD9468015
Probable space group: P N M A
;
_chemical_formula_sum "Si O2"
_cell_formula_units_Z 48
_cell_length_a 9.000000
_cell_length_b 9.000000
_cell_length_c 30.000000
_cell_angle_alpha 90.000000
_cell_angle_beta 90.000000
_cell_angle_gamma 90.000000
_cell_volume 2430.000000
_symmetry_space_group_name_H-M "P N M A"
_symmetry_group_IT_number 62
_symmetry_cell_setting 'orthorhombic'
loop_
_space_group_symop_operation_xyz
x,y,z
1/2-x,-y,1/2+z
1/2+x,1/2-y,1/2-z
-x,1/2+y,-z
-x,-y,-z
1/2+x,y,1/2-z
1/2-x,1/2+y,1/2+z
x,1/2-y,z
loop_
_atom_site_type_symbol
_atom_site_label
_atom_site_fract_x
_atom_site_fract_y
_atom_site_fract_z
Si Si1 0.908590 0.921838 0.869774
Si Si2 0.557657 0.584822 0.888157
Si Si3 0.524656 0.580758 0.786533
Si Si4 0.413853 0.072556 0.459040
Si Si5 0.095925 0.922507 0.462133
Si Si6 0.662805 0.577358 0.284000
O O1 0.939527 0.750000 0.857013
O O2 0.735214 0.927986 0.883752
O O3 0.005300 0.961348 0.912467
O O4 0.928426 0.028916 0.827857
O O5 0.525159 0.750000 0.907436
O O6 0.490089 0.580269 0.838861
O O7 0.493429 0.453535 0.917087
O O8 0.505829 0.750000 0.769869
O O9 0.694359 0.528798 0.783175
O O10 0.430031 0.464183 0.759201
O O11 0.411215 0.250000 0.464199
O O12 0.500000 0.000000 0.500000
O O13 0.251018 0.005587 0.458472
O O14 0.117730 0.750000 0.471333
O O15 0.000000 0.000000 0.500000
O O16 0.703316 0.750000 0.286048
#
# Coordination Sequence:
#
# PCOD9468015 Si02
#       6
#     8   8   8   8   8   8
#     4   9  20  39  61  84 114 153 192 232 288 353
#     4   9  19  38  62  86 112 147 193 240 287 342
#     4  10  21  39  61  83 115 158 196 233 288 353
#     4  11  23  40  63  89 118 152 192 237 285 342
#     4  12  25  40  60  86 118 154 193 238 288 342
#     4  11  22  36  58  88 119 150 193 246 289 332
#
# _framework density 19.753086
#
# number of rings (size 3 to 8) (size 9 to 14) (size 15 to 20)
#    0.000    1.667    0.000    6.000    0.000    7.333 
#    0.000    1.667    0.000    0.000    0.000    0.000 
#    0.000    0.000    0.000    0.000    0.000    0.000 
#
# Total GULP energy -268057.373394 kJ/mol
# GULP energy per Si atom -5584.528612 kJ/mol
# Density = 1.970813 g / cm^3
# Si number density = 19.753086 Si / 1000 Ang^3
#
#
#
# Elastic Constant Matrix: (Units=GPa)
#
#
# Indices 1 2 3 4 5 6 
#
# 1 7.9205 -15.9768 8.3491 0.0000 0.0000 0.0000
# 2 -15.9768 24.1400 7.1441 0.0000 0.0000 0.0000
# 3 8.3491 7.1441 46.8730 0.0000 0.0000 0.0000
# 4 0.0000 0.0000 0.0000 33.9882 0.0000 0.0000
# 5 0.0000 0.0000 0.0000 0.0000 26.2240 0.0000
# 6 0.0000 0.0000 0.0000 0.0000 0.0000 27.5345
#
#
#
# Elastic Compliance Matrix: (Units=1/GPa)
#
#
# Indices 1 2 3 4 5 6 
#
# 1 -0.154454 -0.115579 0.045127 0.000000 0.000000 0.000000
# 2 -0.115579 -0.043107 0.027157 0.000000 0.000000 0.000000
# 3 0.045127 0.027157 0.009157 0.000000 0.000000 0.000000
# 4 0.000000 0.000000 0.000000 0.029422 0.000000 0.000000
# 5 0.000000 0.000000 0.000000 0.000000 0.038133 0.000000
# 6 0.000000 0.000000 0.000000 0.000000 0.000000 0.036318
#
#
# Mechanical properties :
#
#
# Convention : Reuss Voigt Hill
#
# Bulk Modulus (GPa) = -3.63647 8.66294 2.51324
# Shear Modulus (GPa) = -55.79967 22.84382 -16.47793
#
# Velocity S-wave (km/s) = -5.32071 3.40438 -2.89138
# Velocity P-wave (km/s) = 6.29218 4.45513 3.14192
#
# Compressibility (1/GPa) = -0.27499232
#
# Stress axis : x y z
#
# Youngs Moduli (GPa) = -6.47443 -23.19819 109.20740
#
# Poissons Ratio (x) = -2.68122 -4.92826
# Poissons Ratio (y) = -0.74831 -2.96577
# Poissons Ratio (z) = 0.29217 0.63000
#
# Static dielectric constant tensor:
#      x y z
#    x 1.677870 0.000000 0.000000 
#    y 0.000000 1.666860 0.000000 
#    z 0.000000 0.000000 1.719650 
# 
# From -- ./inp_files/31904.got.cif
#   From: 2010.05.17/outbox.ucp.g08.bks.cvg/sg62_16_cif.got.tgz:31904.got - 2010.06.11 16:29:25.
