data_PCOD9468391
_publ_section_title
;
Structure prediction by ZEFSAII (Michael W. Deem and Ramdas Pophale) SiO2 
 PCOD9468391
Probable space group: C M C M
;
_chemical_formula_sum "Si O2"
_cell_formula_units_Z 96
_cell_length_a 7.482845
_cell_length_b 29.935495
_cell_length_c 21.044941
_cell_angle_alpha 90.000000
_cell_angle_beta 90.000000
_cell_angle_gamma 90.000000
_cell_volume 4714.122955
_symmetry_space_group_name_H-M "C M C M"
_symmetry_group_IT_number 63
_symmetry_cell_setting 'orthorhombic'
loop_
_space_group_symop_operation_xyz
x,y,z
-x,-y,1/2+z
x,-y,-z
-x,y,1/2-z
-x,-y,-z
x,y,1/2-z
-x,y,z
x,-y,1/2+z
1/2+x,1/2+y,z
1/2-x,1/2-y,1/2+z
1/2+x,1/2-y,-z
1/2-x,1/2+y,1/2-z
1/2-x,1/2-y,-z
1/2+x,1/2+y,1/2-z
1/2-x,1/2+y,z
1/2+x,1/2-y,1/2+z
loop_
_atom_site_type_symbol
_atom_site_label
_atom_site_fract_x
_atom_site_fract_y
_atom_site_fract_z
Si Si1 0.794852 0.123132 0.362560
Si Si2 0.790441 0.627005 0.991242
Si Si3 0.284184 0.530464 0.559071
Si Si4 0.218959 0.220354 0.178075
Si Si5 0.213727 0.280178 0.438296
Si Si6 0.781238 0.026319 0.321316
O O1 0.793707 0.122440 0.439030
O O2 0.718304 0.170188 0.339096
O O3 0.717749 0.076494 0.337817
O O4 0.000000 0.123251 0.339970
O O5 0.000000 0.634525 0.003358
O O6 0.769269 0.581295 0.952892
O O7 0.718968 0.670144 0.953817
O O8 0.222815 0.500000 0.500000
O O9 0.500000 0.529376 0.558661
O O10 0.222515 0.507947 0.624375
O O11 0.269601 0.231795 0.250000
O O12 0.281575 0.254906 0.124325
O O13 0.000000 0.219801 0.175300
O O14 0.250000 0.250000 0.500000
O O15 0.000000 0.283464 0.430521
O O16 0.728769 0.014184 0.250000
O O17 0.000000 0.027003 0.323686
#
# Coordination Sequence:
#
# PCOD9468391 Si02
#       6
#    16  16  16  16  16  16
#     4  10  17  30  54  80 104 131 167 213 262 310
#     4  11  22  33  49  78 110 138 170 210 259 305
#     4  10  19  34  55  77  99 132 176 215 253 300
#     4   9  17  30  52  80 104 131 173 219 259 302
#     4  10  20  34  53  76 104 137 174 213 255 303
#     4   9  17  30  51  79 105 127 164 217 262 301
#
# _framework density 20.364339000000001
#
# number of rings (size 3 to 8) (size 9 to 14) (size 15 to 20)
#    0.000    2.167    3.333    1.000    0.000    3.000 
#    0.000    0.833    0.000    6.000    0.000    0.000 
#    0.000    0.000    0.000    0.000    0.000    0.000 
#
# Total GULP energy -268077.431193 kJ/mol
# GULP energy per Si atom -5584.946483 kJ/mol
# Density = 2.031799 g / cm^3
# Si number density = 20.364339 Si / 1000 Ang^3
#
#
#
# Elastic Constant Matrix: (Units=GPa)
#
#
# Indices 1 2 3 4 5 6 
#
# 1 56.3116 -6.9034 -6.8677 0.0000 0.0000 0.0000
# 2 -6.9034 163.0547 90.6376 0.0000 0.0000 0.0000
# 3 -6.8677 90.6376 180.2408 0.0000 0.0000 0.0000
# 4 0.0000 0.0000 0.0000 21.8391 0.0000 0.0000
# 5 0.0000 0.0000 0.0000 0.0000 4.3345 0.0000
# 6 0.0000 0.0000 0.0000 0.0000 0.0000 -2.2988
#
#
#
# Elastic Compliance Matrix: (Units=1/GPa)
#
#
# Indices 1 2 3 4 5 6 
#
# 1 0.017874 0.000525 0.000417 0.000000 0.000000 0.000000
# 2 0.000525 0.008528 -0.004268 0.000000 0.000000 0.000000
# 3 0.000417 -0.004268 0.007710 0.000000 0.000000 0.000000
# 4 0.000000 0.000000 0.000000 0.045789 0.000000 0.000000
# 5 0.000000 0.000000 0.000000 0.000000 0.230707 0.000000
# 6 0.000000 0.000000 0.000000 0.000000 0.000000 -0.435011
#
#
# Mechanical properties :
#
#
# Convention : Reuss Voigt Hill
#
# Bulk Modulus (GPa) = 36.41791 61.48224 48.95007
# Shear Modulus (GPa) = -46.04172 26.29100 -9.87536
#
# Velocity S-wave (km/s) = -4.76005 3.59699 -2.20451
# Velocity P-wave (km/s) = 3.50553 6.89259 4.19637
#
# Compressibility (1/GPa) = 0.02745901
#
# Stress axis : x y z
#
# Youngs Moduli (GPa) = 55.94856 117.26353 129.69400
#
# Poissons Ratio (x) = -0.06155 -0.05409
# Poissons Ratio (y) = -0.02937 0.55358
# Poissons Ratio (z) = -0.02334 0.50052
#
# Static dielectric constant tensor:
#      x y z
#    x 1.814290 0.000000 0.000000 
#    y 0.000000 1.700690 0.000000 
#    z 0.000000 0.000000 1.687420 
# 
# From -- ./inp_files/51379.got.cif
#   From: 2010.05.17/outbox.cif.g08.bks.cpg/sg63_26_cif.got.tgz:51379.got - 2010.06.03 15:47:04.
