data_PCOD9468920
_publ_section_title
;
Structure prediction by ZEFSAII (Michael W. Deem and Ramdas Pophale) SiO2 
 PCOD9468920
Probable space group: C M C M
;
_chemical_formula_sum "Si O2"
_cell_formula_units_Z 84
_cell_length_a 14.471993
_cell_length_b 30.169625
_cell_length_c 12.153827
_cell_angle_alpha 90.000000
_cell_angle_beta 90.000000
_cell_angle_gamma 90.000000
_cell_volume 5306.538336
_symmetry_space_group_name_H-M "C M C M"
_symmetry_group_IT_number 63
_symmetry_cell_setting 'orthorhombic'
loop_
_space_group_symop_operation_xyz
x,y,z
-x,-y,1/2+z
x,-y,-z
-x,y,1/2-z
-x,-y,-z
x,y,1/2-z
-x,y,z
x,-y,1/2+z
1/2+x,1/2+y,z
1/2-x,1/2-y,1/2+z
1/2+x,1/2-y,-z
1/2-x,1/2+y,1/2-z
1/2-x,1/2-y,-z
1/2+x,1/2+y,1/2-z
1/2-x,1/2+y,z
1/2+x,1/2-y,1/2+z
loop_
_atom_site_type_symbol
_atom_site_label
_atom_site_fract_x
_atom_site_fract_y
_atom_site_fract_z
Si Si1 0.500000 0.337910 0.750000
Si Si2 0.107165 0.597336 0.250000
Si Si3 0.701977 0.297799 0.989098
Si Si4 0.186476 0.370505 0.121473
Si Si5 0.500000 0.720111 0.027738
Si Si6 0.891981 0.448531 0.986539
Si Si7 0.500000 0.185218 0.874658
Si Si8 0.792186 0.841051 0.750000
O O1 0.500000 0.306278 0.643574
O O2 0.398141 0.361817 0.750000
O O3 0.113338 0.568101 0.360625
O O4 0.197968 0.629314 0.250000
O O5 0.000000 0.616760 0.250000
O O6 0.596145 0.292595 0.025930
O O7 0.709612 0.312096 0.861212
O O8 0.750000 0.250000 0.000000
O O9 0.745500 0.337060 0.060183
O O10 0.208378 0.376193 0.250000
O O11 0.088758 0.345148 0.111904
O O12 0.172029 0.416828 0.059663
O O13 0.500000 0.772665 0.047442
O O14 0.000000 0.443669 0.021340
O O15 0.867935 0.500000 0.000000
O O16 0.500000 0.203024 0.750000
#
# Coordination Sequence:
#
# PCOD9468920 Si02
#       8
#     4   8  16  16   8  16   8   8
#     4   8  18  30  54  74  94 136 192 228 260 286
#     4  10  20  36  56  82 115 144 173 224 279 327
#     4  11  22  34  53  76 107 141 182 223 266 317
#     4  11  22  34  53  77 106 144 185 220 260 315
#     4  10  18  32  51  75 102 140 180 223 262 302
#     4  10  21  36  54  80 114 145 176 215 272 333
#     4  10  18  30  49  73 104 137 184 225 248 300
#     4  10  20  36  54  75 106 139 185 226 276 316
#
# _framework density 15.829528
#
# number of rings (size 3 to 8) (size 9 to 14) (size 15 to 20)
#    0.000    1.714    5.238    0.000    2.667    0.000 
#    1.714    0.476    0.000    0.000    0.000    2.667 
#    0.000    0.000    0.000    0.000    0.000    0.000 
#
# Total GULP energy -233946.970210 kJ/mol
# GULP energy per Si atom -5570.165957 kJ/mol
# Density = 1.579350 g / cm^3
# Si number density = 15.829528 Si / 1000 Ang^3
#
#
#
# Elastic Constant Matrix: (Units=GPa)
#
#
# Indices 1 2 3 4 5 6 
#
# 1 123.0247 60.7700 39.1496 0.0000 0.0000 0.0000
# 2 60.7700 117.6152 52.5493 0.0000 0.0000 0.0000
# 3 39.1496 52.5493 90.0768 0.0000 0.0000 0.0000
# 4 0.0000 0.0000 0.0000 16.7391 0.0000 0.0000
# 5 0.0000 0.0000 0.0000 0.0000 20.2000 0.0000
# 6 0.0000 0.0000 0.0000 0.0000 0.0000 79.0993
#
#
#
# Elastic Compliance Matrix: (Units=1/GPa)
#
#
# Indices 1 2 3 4 5 6 
#
# 1 0.011178 -0.004876 -0.002014 0.000000 0.000000 0.000000
# 2 -0.004876 0.013626 -0.005830 0.000000 0.000000 0.000000
# 3 -0.002014 -0.005830 0.015378 0.000000 0.000000 0.000000
# 4 0.000000 0.000000 0.000000 0.059740 0.000000 0.000000
# 5 0.000000 0.000000 0.000000 0.000000 0.049505 0.000000
# 6 0.000000 0.000000 0.000000 0.000000 0.000000 0.012642
#
#
# Mechanical properties :
#
#
# Convention : Reuss Voigt Hill
#
# Bulk Modulus (GPa) = 67.82950 70.62827 69.22889
# Shear Modulus (GPa) = 25.98435 35.09086 30.53761
#
# Velocity S-wave (km/s) = 4.05595 4.71340 4.39698
# Velocity P-wave (km/s) = 8.05465 8.62186 8.34307
#
# Compressibility (1/GPa) = 0.01474285
#
# Stress axis : x y z
#
# Youngs Moduli (GPa) = 89.46416 73.38698 65.02720
#
# Poissons Ratio (x) = 0.35781 0.13095
# Poissons Ratio (y) = 0.43619 0.37913
# Poissons Ratio (z) = 0.18016 0.42787
#
# Static dielectric constant tensor:
#      x y z
#    x 1.566290 0.000000 0.000000 
#    y 0.000000 1.500870 0.000000 
#    z 0.000000 0.000000 1.531040 
# 
# From -- ./inp_files/19977.got.cif
#   From: 2010.05.17/outbox.cif.g08.bks.cpg/sg63_10_cif.got.tgz:19977.got - 2010.06.03 15:47:04.
