data_PCOD9468278
_publ_section_title
;
Structure prediction by ZEFSAII (Michael W. Deem and Ramdas Pophale) SiO2 
 PCOD9468278
Probable space group: C M C M
;
_chemical_formula_sum "Si O2"
_cell_formula_units_Z 80
_cell_length_a 20.013792
_cell_length_b 34.410984
_cell_length_c 8.147307
_cell_angle_alpha 90.000000
_cell_angle_beta 90.000000
_cell_angle_gamma 90.000000
_cell_volume 5611.003698
_symmetry_space_group_name_H-M "C M C M"
_symmetry_group_IT_number 63
_symmetry_cell_setting 'orthorhombic'
loop_
_space_group_symop_operation_xyz
x,y,z
-x,-y,1/2+z
x,-y,-z
-x,y,1/2-z
-x,-y,-z
x,y,1/2-z
-x,y,z
x,-y,1/2+z
1/2+x,1/2+y,z
1/2-x,1/2-y,1/2+z
1/2+x,1/2-y,-z
1/2-x,1/2+y,1/2-z
1/2-x,1/2-y,-z
1/2+x,1/2+y,1/2-z
1/2-x,1/2+y,z
1/2+x,1/2-y,1/2+z
loop_
_atom_site_type_symbol
_atom_site_label
_atom_site_fract_x
_atom_site_fract_y
_atom_site_fract_z
Si Si1 0.000000 0.665021 0.049970
Si Si2 0.725156 0.189579 0.447965
Si Si3 0.000000 0.244608 0.549598
Si Si4 0.423923 0.956617 0.445442
Si Si5 0.146926 0.232877 0.552222
Si Si6 0.866069 0.378512 0.947797
O O1 0.000000 0.709961 0.002834
O O2 0.933626 0.643094 0.994364
O O3 0.000000 0.664436 0.250000
O O4 0.723349 0.189839 0.250000
O O5 0.799568 0.200600 0.501372
O O6 0.677239 0.225361 0.503564
O O7 0.695235 0.148462 0.504808
O O8 0.070932 0.227403 0.493750
O O9 0.000000 0.243005 0.750000
O O10 0.427064 0.955897 0.250000
O O11 0.500000 0.948857 0.510198
O O12 0.373860 0.922998 0.501077
O O13 0.405506 0.000000 0.500000
O O14 0.145400 0.234370 0.750000
O O15 0.865855 0.377567 0.750000
#
# Coordination Sequence:
#
# PCOD9468278 Si02
#       6
#     8  16   8  16  16  16
#     4   9  14  22  38  58  75  97 136 173 199 232
#     4   9  17  27  39  57  79 103 131 165 206 245
#     4   9  14  24  41  58  74 101 142 175 200 236
#     4  10  20  31  42  58  80 104 131 165 203 240
#     4   9  16  26  40  56  76 103 135 170 202 237
#     4  10  17  27  44  59  75 103 137 171 203 239
#
# _framework density 14.257699000000001
#
# number of rings (size 3 to 8) (size 9 to 14) (size 15 to 20)
#    0.000    2.600    3.000    0.600    0.000    1.600 
#    0.000    0.500    0.000    1.200    0.000    0.000 
#    0.000    0.000    0.000    0.900    0.000   11.600 
#
# Total GULP energy -222833.642854 kJ/mol
# GULP energy per Si atom -5570.841071 kJ/mol
# Density = 1.422525 g / cm^3
# Si number density = 14.257699 Si / 1000 Ang^3
#
#
#
# Elastic Constant Matrix: (Units=GPa)
#
#
# Indices 1 2 3 4 5 6 
#
# 1 114.9157 63.0659 12.2471 0.0000 0.0000 0.0000
# 2 63.0659 105.3069 10.5004 0.0000 0.0000 0.0000
# 3 12.2471 10.5004 8.1152 0.0000 0.0000 0.0000
# 4 0.0000 0.0000 0.0000 15.1811 0.0000 0.0000
# 5 0.0000 0.0000 0.0000 0.0000 15.3611 0.0000
# 6 0.0000 0.0000 0.0000 0.0000 0.0000 14.7682
#
#
#
# Elastic Compliance Matrix: (Units=1/GPa)
#
#
# Indices 1 2 3 4 5 6 
#
# 1 0.013865 -0.007138 -0.011689 0.000000 0.000000 0.000000
# 2 -0.007138 0.014577 -0.008090 0.000000 0.000000 0.000000
# 3 -0.011689 -0.008090 0.151332 0.000000 0.000000 0.000000
# 4 0.000000 0.000000 0.000000 0.065871 0.000000 0.000000
# 5 0.000000 0.000000 0.000000 0.000000 0.065100 0.000000
# 6 0.000000 0.000000 0.000000 0.000000 0.000000 0.067713
#
#
# Mechanical properties :
#
#
# Convention : Reuss Voigt Hill
#
# Bulk Modulus (GPa) = 7.94014 44.44052 26.19033
# Shear Modulus (GPa) = 10.54248 18.56372 14.55310
#
# Velocity S-wave (km/s) = 2.72218 3.61226 3.19833
# Velocity P-wave (km/s) = 3.93211 6.97388 5.66112
#
# Compressibility (1/GPa) = 0.12594234
#
# Stress axis : x y z
#
# Youngs Moduli (GPa) = 72.12368 68.59896 6.60798
#
# Poissons Ratio (x) = 0.48966 0.07724
# Poissons Ratio (y) = 0.51482 0.05346
# Poissons Ratio (z) = 0.84302 0.55494
#
# Static dielectric constant tensor:
#      x y z
#    x 1.480060 0.000000 0.000000 
#    y 0.000000 1.464420 0.000000 
#    z 0.000000 0.000000 1.507560 
# 
# From -- ./inp_files/8898.got.cif
#   From: 2010.05.17/outbox.cif.g08.bks.cpg/sg63_5_cif.got.tgz:8898.got - 2010.06.03 15:47:04.
