data_PCOD9468247
_publ_section_title
;
Structure prediction by ZEFSAII (Michael W. Deem and Ramdas Pophale) SiO2 
 PCOD9468247
Probable space group: C M C M
;
_chemical_formula_sum "Si O2"
_cell_formula_units_Z 96
_cell_length_a 7.480226
_cell_length_b 24.825103
_cell_length_c 27.351836
_cell_angle_alpha 90.000000
_cell_angle_beta 90.000000
_cell_angle_gamma 90.000000
_cell_volume 5079.164308
_symmetry_space_group_name_H-M "C M C M"
_symmetry_group_IT_number 63
_symmetry_cell_setting 'orthorhombic'
loop_
_space_group_symop_operation_xyz
x,y,z
-x,-y,1/2+z
x,-y,-z
-x,y,1/2-z
-x,-y,-z
x,y,1/2-z
-x,y,z
x,-y,1/2+z
1/2+x,1/2+y,z
1/2-x,1/2-y,1/2+z
1/2+x,1/2-y,-z
1/2-x,1/2+y,1/2-z
1/2-x,1/2-y,-z
1/2+x,1/2+y,1/2-z
1/2-x,1/2+y,z
1/2+x,1/2-y,1/2+z
loop_
_atom_site_type_symbol
_atom_site_label
_atom_site_fract_x
_atom_site_fract_y
_atom_site_fract_z
Si Si1 0.288596 0.269915 0.444551
Si Si2 0.716858 0.924776 0.962213
Si Si3 0.281189 0.086838 0.305949
Si Si4 0.782759 0.669014 0.112194
Si Si5 0.217636 0.494114 0.121559
Si Si6 0.287083 0.104787 0.568064
O O1 0.500000 0.267671 0.440507
O O2 0.250000 0.250000 0.500000
O O3 0.215955 0.227325 0.404650
O O4 0.238280 0.331295 0.433408
O O5 0.500000 0.927841 0.964596
O O6 0.762052 0.871041 0.932330
O O7 0.770756 0.973999 0.927866
O O8 0.784779 0.918972 0.016911
O O9 0.222953 0.089238 0.250000
O O10 0.500000 0.086950 0.306207
O O11 0.223749 0.138093 0.338815
O O12 0.223102 0.032020 0.333740
O O13 0.000000 0.670895 0.115139
O O14 0.276862 0.432570 0.112981
O O15 0.000000 0.495076 0.124572
O O16 0.500000 0.096858 0.566898
#
# Coordination Sequence:
#
# PCOD9468247 Si02
#       6
#    16  16  16  16  16  16
#     4  11  20  30  43  61  88 122 154 181 213 256
#     4   8  12  21  37  58  81 108 142 175 204 243
#     4   8  13  23  41  65  88 106 133 184 236 262
#     4   8  14  24  38  59  84 110 143 180 217 254
#     4   8  14  22  37  62  86 110 143 177 214 258
#     4  10  17  26  41  62  88 119 147 172 207 255
#
# _framework density 18.900746999999999
#
# number of rings (size 3 to 8) (size 9 to 14) (size 15 to 20)
#    0.000    3.167    1.667    3.000    0.000    2.000 
#    0.000    0.000    0.000    3.000    0.000    0.000 
#    0.000    4.667    0.000    0.000    0.000    0.000 
#
# Total GULP energy -267318.171099 kJ/mol
# GULP energy per Si atom -5569.128565 kJ/mol
# Density = 1.885773 g / cm^3
# Si number density = 18.900747 Si / 1000 Ang^3
#
#
#
# Elastic Constant Matrix: (Units=GPa)
#
#
# Indices 1 2 3 4 5 6 
#
# 1 48.1330 -9.1925 4.4622 0.0000 0.0000 0.0000
# 2 -9.1925 113.6295 79.7106 0.0000 0.0000 0.0000
# 3 4.4622 79.7106 140.4784 0.0000 0.0000 0.0000
# 4 0.0000 0.0000 0.0000 10.5840 0.0000 0.0000
# 5 0.0000 0.0000 0.0000 0.0000 -1.5201 0.0000
# 6 0.0000 0.0000 0.0000 0.0000 0.0000 12.9767
#
#
#
# Elastic Compliance Matrix: (Units=1/GPa)
#
#
# Indices 1 2 3 4 5 6 
#
# 1 0.021748 0.003728 -0.002806 0.000000 0.000000 0.000000
# 2 0.003728 0.015259 -0.008777 0.000000 0.000000 0.000000
# 3 -0.002806 -0.008777 0.012188 0.000000 0.000000 0.000000
# 4 0.000000 0.000000 0.000000 0.094482 0.000000 0.000000
# 5 0.000000 0.000000 0.000000 0.000000 -0.657855 0.000000
# 6 0.000000 0.000000 0.000000 0.000000 0.000000 0.077061
#
#
# Mechanical properties :
#
#
# Convention : Reuss Voigt Hill
#
# Bulk Modulus (GPa) = 29.86439 50.24460 40.05449
# Shear Modulus (GPa) = -12.18783 19.55884 3.68551
#
# Velocity S-wave (km/s) = -2.54211 3.22035 1.39791
# Velocity P-wave (km/s) = 2.68673 6.36150 4.88299
#
# Compressibility (1/GPa) = 0.03348470
#
# Stress axis : x y z
#
# Youngs Moduli (GPa) = 45.98157 65.53561 82.04978
#
# Poissons Ratio (x) = -0.24430 0.23024
# Poissons Ratio (y) = -0.17141 0.72012
# Poissons Ratio (z) = 0.12903 0.57518
#
# Static dielectric constant tensor:
#      x y z
#    x 1.744060 0.000000 0.000000 
#    y 0.000000 1.659860 0.000000 
#    z 0.000000 0.000000 1.628670 
# 
# From -- ./inp_files/68717.got.cif
#   From: 2010.05.17/outbox.cif.g08.bks.cpg/sg63_35_cif.got.tgz:68717.got - 2010.06.03 15:47:04.
