data_PCOD9468885
_publ_section_title
;
Structure prediction by ZEFSAII (Michael W. Deem and Ramdas Pophale) SiO2 
 PCOD9468885
Probable space group: C M C M
;
_chemical_formula_sum "Si O2"
_cell_formula_units_Z 96
_cell_length_a 7.434090
_cell_length_b 24.272028
_cell_length_c 26.512110
_cell_angle_alpha 90.000000
_cell_angle_beta 90.000000
_cell_angle_gamma 90.000000
_cell_volume 4783.856811
_symmetry_space_group_name_H-M "C M C M"
_symmetry_group_IT_number 63
_symmetry_cell_setting 'orthorhombic'
loop_
_space_group_symop_operation_xyz
x,y,z
-x,-y,1/2+z
x,-y,-z
-x,y,1/2-z
-x,-y,-z
x,y,1/2-z
-x,y,z
x,-y,1/2+z
1/2+x,1/2+y,z
1/2-x,1/2-y,1/2+z
1/2+x,1/2-y,-z
1/2-x,1/2+y,1/2-z
1/2-x,1/2-y,-z
1/2+x,1/2+y,1/2-z
1/2-x,1/2+y,z
1/2+x,1/2-y,1/2+z
loop_
_atom_site_type_symbol
_atom_site_label
_atom_site_fract_x
_atom_site_fract_y
_atom_site_fract_z
Si Si1 0.280540 0.064113 0.307092
Si Si2 0.788990 0.371646 0.596536
Si Si3 0.220145 0.366831 0.098445
Si Si4 0.213157 0.750626 0.560030
Si Si5 0.280042 0.936715 0.001178
Si Si6 0.281009 0.937578 0.307253
O O1 0.220901 0.076845 0.250000
O O2 0.500000 0.065213 0.305824
O O3 0.216879 0.105501 0.350515
O O4 0.229399 0.000811 0.319208
O O5 0.775436 0.306978 0.585673
O O6 0.715388 0.403987 0.548016
O O7 0.000000 0.385346 0.597659
O O8 0.282557 0.305027 0.086256
O O9 0.279271 0.394546 0.150600
O O10 0.000000 0.366001 0.099036
O O11 0.274718 0.405442 0.051814
O O12 0.250000 0.750000 0.500000
O O13 0.000000 0.749843 0.565314
O O14 0.500000 0.935946 0.001051
O O15 0.224076 0.000000 0.000000
O O16 0.223731 0.925153 0.250000
O O17 0.500000 0.936918 0.307469
#
# Coordination Sequence:
#
# PCOD9468885 Si02
#       6
#    16  16  16  16  16  16
#     4   8  14  25  44  71  99 123 151 191 238 284
#     4  10  18  30  48  71  96 125 160 196 237 282
#     4   9  16  26  40  62  90 119 154 190 228 277
#     4  11  21  34  49  67  94 129 165 198 239 288
#     4   9  15  23  40  67  92 113 146 194 239 276
#     4   8  13  23  41  67  97 123 147 188 244 286
#
# _framework density 20.067489999999999
#
# number of rings (size 3 to 8) (size 9 to 14) (size 15 to 20)
#    0.000    2.833    1.667    2.500    0.000    4.000 
#    0.000    0.833    0.000    2.000    0.000    0.000 
#    0.000    2.667    0.000    0.000    0.000    0.000 
#
# Total GULP energy -267879.617054 kJ/mol
# GULP energy per Si atom -5580.825355 kJ/mol
# Density = 2.002182 g / cm^3
# Si number density = 20.067490 Si / 1000 Ang^3
#
#
#
# Elastic Constant Matrix: (Units=GPa)
#
#
# Indices 1 2 3 4 5 6 
#
# 1 58.0863 -8.5515 1.4692 0.0000 0.0000 0.0000
# 2 -8.5515 182.6448 132.1010 0.0000 0.0000 0.0000
# 3 1.4692 132.1010 195.3894 0.0000 0.0000 0.0000
# 4 0.0000 0.0000 0.0000 31.0062 0.0000 0.0000
# 5 0.0000 0.0000 0.0000 0.0000 -20.1168 0.0000
# 6 0.0000 0.0000 0.0000 0.0000 0.0000 13.9924
#
#
#
# Elastic Compliance Matrix: (Units=1/GPa)
#
#
# Indices 1 2 3 4 5 6 
#
# 1 0.017513 0.001791 -0.001343 0.000000 0.000000 0.000000
# 2 0.001791 0.010898 -0.007381 0.000000 0.000000 0.000000
# 3 -0.001343 -0.007381 0.010118 0.000000 0.000000 0.000000
# 4 0.000000 0.000000 0.000000 0.032252 0.000000 0.000000
# 5 0.000000 0.000000 0.000000 0.000000 -0.049710 0.000000
# 6 0.000000 0.000000 0.000000 0.000000 0.000000 0.071468
#
#
# Mechanical properties :
#
#
# Convention : Reuss Voigt Hill
#
# Bulk Modulus (GPa) = 40.54512 76.23976 58.39244
# Shear Modulus (GPa) = 43.62027 25.71648 34.66837
#
# Velocity S-wave (km/s) = 4.66733 3.58369 4.16094
# Velocity P-wave (km/s) = 7.02094 7.42953 7.22812
#
# Compressibility (1/GPa) = 0.02466388
#
# Stress axis : x y z
#
# Youngs Moduli (GPa) = 57.09914 91.76382 98.82947
#
# Poissons Ratio (x) = -0.16435 0.13269
# Poissons Ratio (y) = -0.10227 0.72948
# Poissons Ratio (z) = 0.07666 0.67733
#
# Static dielectric constant tensor:
#      x y z
#    x 1.799890 0.000000 0.000000 
#    y 0.000000 1.664470 0.000000 
#    z 0.000000 0.000000 1.685170 
# 
# From -- ./inp_files/61870.got.cif
#   From: 2010.05.17/outbox.cif.g08.bks.cpg/sg63_31_cif.got.tgz:61870.got - 2010.06.03 15:47:04.
