data_PCOD9468714
_publ_section_title
;
Structure prediction by ZEFSAII (Michael W. Deem and Ramdas Pophale) SiO2 
 PCOD9468714
Probable space group: C M C M
;
_chemical_formula_sum "Si O2"
_cell_formula_units_Z 96
_cell_length_a 27.631076
_cell_length_b 23.475586
_cell_length_c 8.527888
_cell_angle_alpha 90.000000
_cell_angle_beta 90.000000
_cell_angle_gamma 90.000000
_cell_volume 5531.663168
_symmetry_space_group_name_H-M "C M C M"
_symmetry_group_IT_number 63
_symmetry_cell_setting 'orthorhombic'
loop_
_space_group_symop_operation_xyz
x,y,z
-x,-y,1/2+z
x,-y,-z
-x,y,1/2-z
-x,-y,-z
x,y,1/2-z
-x,y,z
x,-y,1/2+z
1/2+x,1/2+y,z
1/2-x,1/2-y,1/2+z
1/2+x,1/2-y,-z
1/2-x,1/2+y,1/2-z
1/2-x,1/2-y,-z
1/2+x,1/2+y,1/2-z
1/2-x,1/2+y,z
1/2+x,1/2-y,1/2+z
loop_
_atom_site_type_symbol
_atom_site_label
_atom_site_fract_x
_atom_site_fract_y
_atom_site_fract_z
Si Si1 0.943935 0.263949 0.440017
Si Si2 0.284921 0.935443 0.060299
Si Si3 0.634556 0.849829 0.072657
Si Si4 0.301031 0.262782 0.572950
Si Si5 0.619489 0.661902 0.568544
Si Si6 0.179916 0.935938 0.936206
O O1 0.939768 0.264481 0.250000
O O2 0.912708 0.318664 0.499050
O O3 0.920766 0.204148 0.496069
O O4 0.000000 0.267886 0.483469
O O5 0.284468 0.933557 0.250000
O O6 0.331428 0.899143 0.002395
O O7 0.232084 0.914241 0.002313
O O8 0.289124 0.000000 0.000000
O O9 0.621236 0.868738 0.250000
O O10 0.670737 0.796496 0.084705
O O11 0.298839 0.287348 0.750000
O O12 0.250000 0.250000 0.500000
O O13 0.331666 0.302043 0.458441
O O14 0.609083 0.652452 0.750000
O O15 0.634513 0.602882 0.486973
O O16 0.183569 0.937347 0.750000
O O17 0.174197 0.000000 0.000000
#
# Coordination Sequence:
#
# PCOD9468714 Si02
#       6
#    16  16  16  16  16  16
#     4   9  18  35  57  77  96 123 164 214 265 311
#     4  10  18  30  47  70 102 137 172 206 245 294
#     4   8  16  29  46  68  94 125 162 204 247 295
#     4  10  18  29  45  68  97 129 165 204 249 298
#     4  11  21  33  49  72 102 133 165 202 248 303
#     4  11  21  34  51  73 102 136 174 208 244 291
#
# _framework density 17.354637
#
# number of rings (size 3 to 8) (size 9 to 14) (size 15 to 20)
#    0.000    2.167    0.000    7.000    0.000    1.667 
#    0.000    7.500    0.000    1.000    0.000    0.000 
#    0.000    0.000    0.000    0.000    0.000    0.667 
#
# Total GULP energy -267357.725855 kJ/mol
# GULP energy per Si atom -5569.952622 kJ/mol
# Density = 1.731514 g / cm^3
# Si number density = 17.354637 Si / 1000 Ang^3
#
#
#
# Elastic Constant Matrix: (Units=GPa)
#
#
# Indices 1 2 3 4 5 6 
#
# 1 94.8355 28.1784 17.6821 0.0000 0.0000 0.0000
# 2 28.1784 68.2110 12.7399 0.0000 0.0000 0.0000
# 3 17.6821 12.7399 64.0145 0.0000 0.0000 0.0000
# 4 0.0000 0.0000 0.0000 12.5087 0.0000 0.0000
# 5 0.0000 0.0000 0.0000 0.0000 15.0311 0.0000
# 6 0.0000 0.0000 0.0000 0.0000 0.0000 25.4267
#
#
#
# Elastic Compliance Matrix: (Units=1/GPa)
#
#
# Indices 1 2 3 4 5 6 
#
# 1 0.012393 -0.004653 -0.002497 0.000000 0.000000 0.000000
# 2 -0.004653 0.016973 -0.002093 0.000000 0.000000 0.000000
# 3 -0.002497 -0.002093 0.016728 0.000000 0.000000 0.000000
# 4 0.000000 0.000000 0.000000 0.079944 0.000000 0.000000
# 5 0.000000 0.000000 0.000000 0.000000 0.066529 0.000000
# 6 0.000000 0.000000 0.000000 0.000000 0.000000 0.039329
#
#
# Mechanical properties :
#
#
# Convention : Reuss Voigt Hill
#
# Bulk Modulus (GPa) = 36.22126 38.25130 37.23628
# Shear Modulus (GPa) = 19.26156 21.82400 20.54278
#
# Velocity S-wave (km/s) = 3.33510 3.55002 3.44423
# Velocity P-wave (km/s) = 5.97888 6.23637 6.10898
#
# Compressibility (1/GPa) = 0.02760809
#
# Stress axis : x y z
#
# Youngs Moduli (GPa) = 80.69243 58.91541 59.78109
#
# Poissons Ratio (x) = 0.27414 0.14928
# Poissons Ratio (y) = 0.37547 0.12510
# Poissons Ratio (z) = 0.20150 0.12329
#
# Static dielectric constant tensor:
#      x y z
#    x 1.511390 0.000000 0.000000 
#    y 0.000000 1.619620 0.000000 
#    z 0.000000 0.000000 1.603840 
# 
# From -- ./inp_files/12721.got.cif
#   From: 2010.05.17/outbox.cif.g08.bks.cpg/sg63_7_cif.got.tgz:12721.got - 2010.06.03 15:47:04.
