data_PCOD9468240
_publ_section_title
;
Structure prediction by ZEFSAII (Michael W. Deem and Ramdas Pophale) SiO2 
 PCOD9468240
Probable space group: C M C M
;
_chemical_formula_sum "Si O2"
_cell_formula_units_Z 88
_cell_length_a 20.820746
_cell_length_b 24.590494
_cell_length_c 7.586169
_cell_angle_alpha 90.000000
_cell_angle_beta 90.000000
_cell_angle_gamma 90.000000
_cell_volume 3884.061098
_symmetry_space_group_name_H-M "C M C M"
_symmetry_group_IT_number 63
_symmetry_cell_setting 'orthorhombic'
loop_
_space_group_symop_operation_xyz
x,y,z
-x,-y,1/2+z
x,-y,-z
-x,y,1/2-z
-x,-y,-z
x,y,1/2-z
-x,y,z
x,-y,1/2+z
1/2+x,1/2+y,z
1/2-x,1/2-y,1/2+z
1/2+x,1/2-y,-z
1/2-x,1/2+y,1/2-z
1/2-x,1/2-y,-z
1/2+x,1/2+y,1/2-z
1/2-x,1/2+y,z
1/2+x,1/2-y,1/2+z
loop_
_atom_site_type_symbol
_atom_site_label
_atom_site_fract_x
_atom_site_fract_y
_atom_site_fract_z
Si Si1 0.365652 0.612322 0.040980
Si Si2 0.357189 0.273892 0.949676
Si Si3 0.000000 0.935773 0.537807
Si Si4 0.000000 0.772893 0.450369
Si Si5 0.141914 0.650295 0.534473
Si Si6 0.261213 0.940112 0.458537
Si Si7 0.500000 0.851001 0.036506
O O1 0.373269 0.621475 0.250000
O O2 0.335831 0.669081 0.965493
O O3 0.434486 0.592430 0.970490
O O4 0.311662 0.566914 0.020226
O O5 0.332103 0.270544 0.750000
O O6 0.348793 0.213258 0.027002
O O7 0.434102 0.285543 0.951845
O O8 0.000000 0.930028 0.750000
O O9 0.000000 0.000000 0.500000
O O10 0.000000 0.793479 0.250000
O O11 0.000000 0.707933 0.449465
O O12 0.143538 0.653111 0.750000
O O13 0.194932 0.608528 0.468821
O O14 0.070581 0.627450 0.489588
O O15 0.260918 0.934094 0.250000
O O16 0.286268 0.000000 0.500000
O O17 0.500000 0.844370 0.250000
#
# Coordination Sequence:
#
# PCOD9468240 Si02
#       7
#    16  16   8   8  16  16   8
#     4  10  21  37  58  82 106 138 181 226 271 321
#     4   9  17  33  55  77 105 143 182 218 267 328
#     4  10  21  36  54  78 106 138 181 224 257 300
#     4  10  17  25  43  77 116 144 170 210 260 310
#     4   8  16  32  57  83 106 139 181 220 261 320
#     4  11  23  39  56  77 107 142 181 223 271 326
#     4   8  14  31  56  77 101 138 178 212 257 316
#
# _framework density 22.656696
#
# number of rings (size 3 to 8) (size 9 to 14) (size 15 to 20)
#    0.000    2.545    0.000    3.545    0.000    5.091 
#    0.000    8.636    0.000    0.000    0.000    0.000 
#    0.000    0.000    0.000    0.000    0.000    0.000 
#
# Total GULP energy -245260.007554 kJ/mol
# GULP energy per Si atom -5574.091081 kJ/mol
# Density = 2.260513 g / cm^3
# Si number density = 22.656696 Si / 1000 Ang^3
#
#
#
# Elastic Constant Matrix: (Units=GPa)
#
#
# Indices 1 2 3 4 5 6 
#
# 1 88.3450 63.0202 5.8346 0.0000 0.0000 0.0000
# 2 63.0202 157.1563 0.2346 0.0000 0.0000 0.0000
# 3 5.8346 0.2346 62.4919 0.0000 0.0000 0.0000
# 4 0.0000 0.0000 0.0000 14.5083 0.0000 0.0000
# 5 0.0000 0.0000 0.0000 0.0000 -0.5131 0.0000
# 6 0.0000 0.0000 0.0000 0.0000 0.0000 61.6724
#
#
#
# Elastic Compliance Matrix: (Units=1/GPa)
#
#
# Indices 1 2 3 4 5 6 
#
# 1 0.015988 -0.006409 -0.001469 0.000000 0.000000 0.000000
# 2 -0.006409 0.008932 0.000565 0.000000 0.000000 0.000000
# 3 -0.001469 0.000565 0.016137 0.000000 0.000000 0.000000
# 4 0.000000 0.000000 0.000000 0.068926 0.000000 0.000000
# 5 0.000000 0.000000 0.000000 0.000000 -1.949082 0.000000
# 6 0.000000 0.000000 0.000000 0.000000 0.000000 0.016215
#
#
# Mechanical properties :
#
#
# Convention : Reuss Voigt Hill
#
# Bulk Modulus (GPa) = 37.83337 49.57465 43.70401
# Shear Modulus (GPa) = -2.77863 31.06045 14.14091
#
# Velocity S-wave (km/s) = -1.10863 3.70661 2.50099
# Velocity P-wave (km/s) = 3.88536 6.34404 5.26037
#
# Compressibility (1/GPa) = 0.02643169
#
# Stress axis : x y z
#
# Youngs Moduli (GPa) = 62.54633 111.95296 61.96907
#
# Poissons Ratio (x) = 0.71752 0.09101
# Poissons Ratio (y) = 0.40087 -0.03500
# Poissons Ratio (z) = 0.09186 -0.06324
#
# Static dielectric constant tensor:
#      x y z
#    x 1.887460 0.000000 0.000000 
#    y 0.000000 1.625550 0.000000 
#    z 0.000000 0.000000 1.861740 
# 
# From -- ./inp_files/8297.got.cif
#   From: 2010.05.17/outbox.cif.g08.bks.cpg/sg63_5_cif.got.tgz:8297.got - 2010.06.03 15:47:04.
