data_PCOD9468693
_publ_section_title
;
Structure prediction by ZEFSAII (Michael W. Deem and Ramdas Pophale) SiO2 
 PCOD9468693
Probable space group: C M C M
;
_chemical_formula_sum "Si O2"
_cell_formula_units_Z 96
_cell_length_a 7.339772
_cell_length_b 24.295040
_cell_length_c 26.504032
_cell_angle_alpha 90.000000
_cell_angle_beta 90.000000
_cell_angle_gamma 90.000000
_cell_volume 4726.200426
_symmetry_space_group_name_H-M "C M C M"
_symmetry_group_IT_number 63
_symmetry_cell_setting 'orthorhombic'
loop_
_space_group_symop_operation_xyz
x,y,z
-x,-y,1/2+z
x,-y,-z
-x,y,1/2-z
-x,-y,-z
x,y,1/2-z
-x,y,z
x,-y,1/2+z
1/2+x,1/2+y,z
1/2-x,1/2-y,1/2+z
1/2+x,1/2-y,-z
1/2-x,1/2+y,1/2-z
1/2-x,1/2-y,-z
1/2+x,1/2+y,1/2-z
1/2-x,1/2+y,z
1/2+x,1/2-y,1/2+z
loop_
_atom_site_type_symbol
_atom_site_label
_atom_site_fract_x
_atom_site_fract_y
_atom_site_fract_z
Si Si1 0.783403 0.367632 0.150993
Si Si2 0.221678 0.441376 0.750000
Si Si3 0.782192 0.251426 0.807773
Si Si4 0.777443 0.369404 0.653872
Si Si5 0.277982 0.936163 0.056447
Si Si6 0.723088 0.932083 0.250000
Si Si7 0.221742 0.437489 0.557952
O O1 0.754377 0.303282 0.160463
O O2 0.714211 0.393916 0.099048
O O3 0.714643 0.400391 0.200002
O O4 0.000000 0.376458 0.150235
O O5 0.277796 0.408634 0.799898
O O6 0.279757 0.504541 0.750000
O O7 0.000000 0.441539 0.750000
O O8 0.713507 0.245773 0.750000
O O9 0.716583 0.307549 0.833717
O O10 0.000000 0.256503 0.804082
O O11 0.717378 0.395769 0.601151
O O12 0.000000 0.369056 0.653140
O O13 0.500000 0.935396 0.055791
O O14 0.225480 0.999181 0.068957
O O15 0.220023 0.923979 0.999110
O O16 0.500000 0.931240 0.250000
O O17 0.000000 0.436897 0.558181
#
# Coordination Sequence:
#
# PCOD9468693 Si02
#       7
#    16   8  16  16  16   8  16
#     4  10  18  29  44  65  90 116 146 177 213 261
#     4   9  14  21  36  61  87 107 132 179 228 258
#     4  10  19  31  44  61  86 118 151 181 214 256
#     4   9  15  24  39  59  84 112 145 180 217 256
#     4   8  14  24  40  64  92 115 138 173 222 271
#     4   9  16  23  37  63  89 107 132 175 222 258
#     4   8  13  23  40  63  90 116 138 174 227 267
#
# _framework density 20.3123
#
# number of rings (size 3 to 8) (size 9 to 14) (size 15 to 20)
#    0.000    3.000    1.667    2.000    0.000    4.000 
#    0.000    0.833    0.000    0.000    0.000    8.167 
#    0.000    0.000    0.000    0.000    0.000    0.000 
#
# Total GULP energy -267953.417303 kJ/mol
# GULP energy per Si atom -5582.362860 kJ/mol
# Density = 2.026607 g / cm^3
# Si number density = 20.312300 Si / 1000 Ang^3
#
#
#
# Elastic Constant Matrix: (Units=GPa)
#
#
# Indices 1 2 3 4 5 6 
#
# 1 76.4060 -1.3419 6.2910 0.0000 0.0000 0.0000
# 2 -1.3419 184.4100 125.6273 0.0000 0.0000 0.0000
# 3 6.2910 125.6273 185.7618 0.0000 0.0000 0.0000
# 4 0.0000 0.0000 0.0000 24.7036 0.0000 0.0000
# 5 0.0000 0.0000 0.0000 0.0000 -8.6445 0.0000
# 6 0.0000 0.0000 0.0000 0.0000 0.0000 2.7707
#
#
#
# Elastic Compliance Matrix: (Units=1/GPa)
#
#
# Indices 1 2 3 4 5 6 
#
# 1 0.013179 0.000742 -0.000948 0.000000 0.000000 0.000000
# 2 0.000742 0.010097 -0.006854 0.000000 0.000000 0.000000
# 3 -0.000948 -0.006854 0.010050 0.000000 0.000000 0.000000
# 4 0.000000 0.000000 0.000000 0.040480 0.000000 0.000000
# 5 0.000000 0.000000 0.000000 0.000000 -0.115680 0.000000
# 6 0.000000 0.000000 0.000000 0.000000 0.000000 0.360923
#
#
# Mechanical properties :
#
#
# Convention : Reuss Voigt Hill
#
# Bulk Modulus (GPa) = 52.06500 78.63671 65.35085
# Shear Modulus (GPa) = 14.72447 24.83270 19.77858
#
# Velocity S-wave (km/s) = 2.69533 3.50028 3.12384
# Velocity P-wave (km/s) = 5.94763 7.42522 6.72711
#
# Compressibility (1/GPa) = 0.01920676
#
# Stress axis : x y z
#
# Youngs Moduli (GPa) = 75.87799 99.03951 99.50005
#
# Poissons Ratio (x) = -0.07345 0.09431
# Poissons Ratio (y) = -0.05627 0.68193
# Poissons Ratio (z) = 0.07192 0.67877
#
# Static dielectric constant tensor:
#      x y z
#    x 1.824710 0.000000 0.000000 
#    y 0.000000 1.678300 0.000000 
#    z 0.000000 0.000000 1.698740 
# 
# From -- ./inp_files/67286.got.cif
#   From: 2010.05.17/outbox.cif.g08.bks.cpg/sg63_34_cif.got.tgz:67286.got - 2010.06.03 15:47:04.
