data_PCOD9468231
_publ_section_title
;
Structure prediction by ZEFSAII (Michael W. Deem and Ramdas Pophale) SiO2 
 PCOD9468231
Probable space group: C M C M
;
_chemical_formula_sum "Si O2"
_cell_formula_units_Z 128
_cell_length_a 19.554051
_cell_length_b 22.083471
_cell_length_c 14.164398
_cell_angle_alpha 90.000000
_cell_angle_beta 90.000000
_cell_angle_gamma 90.000000
_cell_volume 6116.489016
_symmetry_space_group_name_H-M "C M C M"
_symmetry_group_IT_number 63
_symmetry_cell_setting 'orthorhombic'
loop_
_space_group_symop_operation_xyz
x,y,z
-x,-y,1/2+z
x,-y,-z
-x,y,1/2-z
-x,-y,-z
x,y,1/2-z
-x,y,z
x,-y,1/2+z
1/2+x,1/2+y,z
1/2-x,1/2-y,1/2+z
1/2+x,1/2-y,-z
1/2-x,1/2+y,1/2-z
1/2-x,1/2-y,-z
1/2+x,1/2+y,1/2-z
1/2-x,1/2+y,z
1/2+x,1/2-y,1/2+z
loop_
_atom_site_type_symbol
_atom_site_label
_atom_site_fract_x
_atom_site_fract_y
_atom_site_fract_z
Si Si1 0.575737 0.067866 0.608313
Si Si2 0.574455 0.531232 0.134852
Si Si3 0.317116 0.173001 0.144425
Si Si4 0.779208 0.076730 0.365976
Si Si5 0.423190 0.269623 0.134303
Si Si6 0.073621 0.428041 0.617747
Si Si7 0.372575 0.599156 0.634657
Si Si8 0.772980 0.553657 0.861625
O O1 0.500000 0.092090 0.639341
O O2 0.573616 0.070296 0.495473
O O3 0.654166 0.086992 0.627222
O O4 0.578343 0.998365 0.644147
O O5 0.574748 0.532480 0.250000
O O6 0.500000 0.552745 0.103329
O O7 0.642444 0.566646 0.105475
O O8 0.586574 0.461260 0.107188
O O9 0.298096 0.194295 0.250000
O O10 0.252252 0.139972 0.099205
O O11 0.363400 0.224972 0.099216
O O12 0.368013 0.115608 0.151942
O O13 0.776781 0.078890 0.250000
O O14 0.735943 0.016570 0.396263
O O15 0.422615 0.266428 0.250000
O O16 0.500000 0.252439 0.104212
O O17 0.405977 0.338018 0.105258
O O18 0.000000 0.404142 0.648090
O O19 0.373257 0.600363 0.750000
O O20 0.293842 0.589569 0.604017
O O21 0.763681 0.547519 0.750000
#
# Coordination Sequence:
#
# PCOD9468231 Si02
#       8
#    16  16  16  16  16  16  16  16
#     4   9  17  27  38  54  77 104 134 164 194 234
#     4   8  12  19  33  51  73 100 122 148 190 231
#     4  10  17  25  38  56  81 107 129 157 191 232
#     4   8  14  22  32  52  78  99 123 156 191 228
#     4   9  16  24  35  55  81 108 134 154 184 237
#     4   9  17  27  37  52  78 109 134 158 191 232
#     4   8  14  23  36  54  77 101 127 159 193 230
#     4   9  15  25  40  57  77 102 130 162 201 235
#
# _framework density 20.927039000000001
#
# number of rings (size 3 to 8) (size 9 to 14) (size 15 to 20)
#    0.000    3.250    1.250    3.000    0.000    2.500 
#    0.000    1.250    0.000    0.750    0.000    0.875 
#    0.000   14.000    0.000    0.000    0.000    0.125 
#
# Total GULP energy -356446.132705 kJ/mol
# GULP energy per Si atom -5569.470824 kJ/mol
# Density = 2.087941 g / cm^3
# Si number density = 20.927039 Si / 1000 Ang^3
#
#
#
# Elastic Constant Matrix: (Units=GPa)
#
#
# Indices 1 2 3 4 5 6 
#
# 1 166.4783 45.3650 2.0936 0.0000 0.0000 0.0000
# 2 45.3650 70.3967 2.7919 0.0000 0.0000 0.0000
# 3 2.0936 2.7919 31.2333 0.0000 0.0000 0.0000
# 4 0.0000 0.0000 0.0000 0.4077 0.0000 0.0000
# 5 0.0000 0.0000 0.0000 0.0000 12.2855 0.0000
# 6 0.0000 0.0000 0.0000 0.0000 0.0000 27.3333
#
#
#
# Elastic Compliance Matrix: (Units=1/GPa)
#
#
# Indices 1 2 3 4 5 6 
#
# 1 0.007286 -0.004693 -0.000069 0.000000 0.000000 0.000000
# 2 -0.004693 0.017278 -0.001230 0.000000 0.000000 0.000000
# 3 -0.000069 -0.001230 0.032132 0.000000 0.000000 0.000000
# 4 0.000000 0.000000 0.000000 2.452932 0.000000 0.000000
# 5 0.000000 0.000000 0.000000 0.000000 0.081397 0.000000
# 6 0.000000 0.000000 0.000000 0.000000 0.000000 0.036585
#
#
# Mechanical properties :
#
#
# Convention : Reuss Voigt Hill
#
# Bulk Modulus (GPa) = 22.36488 40.95659 31.66074
# Shear Modulus (GPa) = 1.88360 22.52915 12.20637
#
# Velocity S-wave (km/s) = 0.94975 3.28465 2.41774
# Velocity P-wave (km/s) = 3.45152 5.83086 4.79123
#
# Compressibility (1/GPa) = 0.04471295
#
# Stress axis : x y z
#
# Youngs Moduli (GPa) = 137.24145 57.87666 31.12196
#
# Poissons Ratio (x) = 0.27160 0.00215
# Poissons Ratio (y) = 0.64404 0.03828
# Poissons Ratio (z) = 0.00946 0.07118
#
# Static dielectric constant tensor:
#      x y z
#    x 1.839540 0.000000 0.000000 
#    y 0.000000 1.726570 0.000000 
#    z 0.000000 0.000000 1.794400 
# 
# From -- ./inp_files/56117.got.cif
#   From: 2010.05.17/outbox.cif.g08.bks.cpg/sg63_29_cif.got.tgz:56117.got - 2010.06.03 15:47:04.
