data_PCOD9468803
_publ_section_title
;
Structure prediction by ZEFSAII (Michael W. Deem and Ramdas Pophale) SiO2 
 PCOD9468803
Probable space group: C M C M
;
_chemical_formula_sum "Si O2"
_cell_formula_units_Z 96
_cell_length_a 18.445127
_cell_length_b 9.404282
_cell_length_c 25.719842
_cell_angle_alpha 90.000000
_cell_angle_beta 90.000000
_cell_angle_gamma 90.000000
_cell_volume 4461.445475
_symmetry_space_group_name_H-M "C M C M"
_symmetry_group_IT_number 63
_symmetry_cell_setting 'orthorhombic'
loop_
_space_group_symop_operation_xyz
x,y,z
-x,-y,1/2+z
x,-y,-z
-x,y,1/2-z
-x,-y,-z
x,y,1/2-z
-x,y,z
x,-y,1/2+z
1/2+x,1/2+y,z
1/2-x,1/2-y,1/2+z
1/2+x,1/2-y,-z
1/2-x,1/2+y,1/2-z
1/2-x,1/2-y,-z
1/2+x,1/2+y,1/2-z
1/2-x,1/2+y,z
1/2+x,1/2-y,1/2+z
loop_
_atom_site_type_symbol
_atom_site_label
_atom_site_fract_x
_atom_site_fract_y
_atom_site_fract_z
Si Si1 0.293217 0.282814 0.447349
Si Si2 0.080134 0.994885 0.420041
Si Si3 0.899431 0.152125 0.689496
Si Si4 0.865485 0.421399 0.870869
Si Si5 0.781402 0.933081 0.808146
Si Si6 0.146006 0.727200 0.615770
O O1 0.250000 0.250000 0.500000
O O2 0.351302 0.411486 0.445011
O O3 0.224974 0.306171 0.408935
O O4 0.342578 0.153744 0.424968
O O5 0.074227 0.942422 0.359587
O O6 0.000000 0.968914 0.442495
O O7 0.102235 0.160044 0.419082
O O8 0.924010 0.139553 0.750000
O O9 0.906734 0.309770 0.666129
O O10 0.818121 0.088702 0.691691
O O11 0.789433 0.439701 0.841880
O O12 0.895316 0.579156 0.877320
O O13 0.762930 0.893129 0.750000
O O14 0.835404 0.815524 0.832108
#
# Coordination Sequence:
#
# PCOD9468803 Si02
#       6
#    16  16  16  16  16  16
#     4  10  21  39  61  86 116 157 204 250 305 370
#     4  10  22  41  63  89 124 162 201 245 299 366
#     4   9  18  32  52  80 117 164 208 243 292 360
#     4  10  18  29  50  82 115 150 200 255 300 344
#     4   9  16  27  46  75 114 156 197 244 298 357
#     4  10  20  34  54  86 120 155 197 247 305 361
#
# _framework density 21.517689000000001
#
# number of rings (size 3 to 8) (size 9 to 14) (size 15 to 20)
#    0.000    2.333    0.000    5.500    0.000    5.667 
#    0.000    5.000    0.000    0.000    0.000   12.833 
#    0.000    0.000    0.000    0.000    0.000    0.000 
#
# Total GULP energy -267328.570743 kJ/mol
# GULP energy per Si atom -5569.345224 kJ/mol
# Density = 2.146871 g / cm^3
# Si number density = 21.517689 Si / 1000 Ang^3
#
#
#
# Elastic Constant Matrix: (Units=GPa)
#
#
# Indices 1 2 3 4 5 6 
#
# 1 81.5920 25.9379 16.2851 0.0000 0.0000 0.0000
# 2 25.9379 136.1784 27.9907 0.0000 0.0000 0.0000
# 3 16.2851 27.9907 124.1491 0.0000 0.0000 0.0000
# 4 0.0000 0.0000 0.0000 17.1262 0.0000 0.0000
# 5 0.0000 0.0000 0.0000 0.0000 -11.6742 0.0000
# 6 0.0000 0.0000 0.0000 0.0000 0.0000 -4.8007
#
#
#
# Elastic Compliance Matrix: (Units=1/GPa)
#
#
# Indices 1 2 3 4 5 6 
#
# 1 0.013221 -0.002267 -0.001223 0.000000 0.000000 0.000000
# 2 -0.002267 0.008089 -0.001526 0.000000 0.000000 0.000000
# 3 -0.001223 -0.001526 0.008559 0.000000 0.000000 0.000000
# 4 0.000000 0.000000 0.000000 0.058390 0.000000 0.000000
# 5 0.000000 0.000000 0.000000 0.000000 -0.085659 0.000000
# 6 0.000000 0.000000 0.000000 0.000000 0.000000 -0.208304
#
#
# Mechanical properties :
#
#
# Convention : Reuss Voigt Hill
#
# Bulk Modulus (GPa) = 50.41217 53.59409 52.00313
# Shear Modulus (GPa) = -26.44676 18.24399 -4.10139
#
# Velocity S-wave (km/s) = -3.50961 2.91496 -1.38210
# Velocity P-wave (km/s) = 2.65630 6.02415 4.65544
#
# Compressibility (1/GPa) = 0.01983648
#
# Stress axis : x y z
#
# Youngs Moduli (GPa) = 75.63821 123.62789 116.83048
#
# Poissons Ratio (x) = 0.28023 0.14290
# Poissons Ratio (y) = 0.17145 0.17833
# Poissons Ratio (z) = 0.09252 0.18870
#
# Static dielectric constant tensor:
#      x y z
#    x 1.835780 0.000000 0.000000 
#    y 0.000000 1.845690 0.000000 
#    z 0.000000 0.000000 1.833410 
# 
# From -- ./inp_files/70259.got.cif
#   From: 2010.05.17/outbox.cif.g08.bks.cpg/sg63_36_cif.got.tgz:70259.got - 2010.06.03 15:47:04.
