data_PCOD9468101
_publ_section_title
;
Structure prediction by ZEFSAII (Michael W. Deem and Ramdas Pophale) SiO2 
 PCOD9468101
Probable space group: C M C M
;
_chemical_formula_sum "Si O2"
_cell_formula_units_Z 88
_cell_length_a 19.501030
_cell_length_b 14.490844
_cell_length_c 19.509786
_cell_angle_alpha 90.000000
_cell_angle_beta 90.000000
_cell_angle_gamma 90.000000
_cell_volume 5513.199870
_symmetry_space_group_name_H-M "C M C M"
_symmetry_group_IT_number 63
_symmetry_cell_setting 'orthorhombic'
loop_
_space_group_symop_operation_xyz
x,y,z
-x,-y,1/2+z
x,-y,-z
-x,y,1/2-z
-x,-y,-z
x,y,1/2-z
-x,y,z
x,-y,1/2+z
1/2+x,1/2+y,z
1/2-x,1/2-y,1/2+z
1/2+x,1/2-y,-z
1/2-x,1/2+y,1/2-z
1/2-x,1/2-y,-z
1/2+x,1/2+y,1/2-z
1/2-x,1/2+y,z
1/2+x,1/2-y,1/2+z
loop_
_atom_site_type_symbol
_atom_site_label
_atom_site_fract_x
_atom_site_fract_y
_atom_site_fract_z
Si Si1 0.423773 0.476902 0.646846
Si Si2 0.579817 0.743582 0.171082
Si Si3 0.254830 0.624665 0.450120
Si Si4 0.375369 0.500000 0.500000
Si Si5 0.198446 0.673032 0.586481
Si Si6 0.769450 0.982638 0.327530
O O1 0.500000 0.500411 0.673506
O O2 0.415515 0.366114 0.655381
O O3 0.420071 0.504970 0.567494
O O4 0.352645 0.518238 0.674670
O O5 0.602740 0.756691 0.250000
O O6 0.500000 0.768375 0.166358
O O7 0.625635 0.801331 0.119016
O O8 0.323721 0.585967 0.487557
O O9 0.199528 0.624351 0.511635
O O10 0.264695 0.728784 0.425298
O O11 0.247550 0.560287 0.383370
O O12 0.239695 0.610658 0.640256
O O13 0.745048 0.999421 0.250000
#
# Coordination Sequence:
#
# PCOD9468101 Si02
#       6
#    16  16  16   8  16  16
#     4  10  19  31  49  74 110 142 172 213 264 322
#     4  10  20  33  51  78 110 141 175 223 276 317
#     4  10  20  33  52  74 109 136 178 222 259 308
#     4  10  15  34  46  74 103 142 172 208 255 310
#     4  11  19  34  55  74 106 144 176 219 267 313
#     4  11  21  33  52  79 107 141 182 217 267 320
#
# _framework density 15.961693
#
# number of rings (size 3 to 8) (size 9 to 14) (size 15 to 20)
#    0.000    1.636    7.273    1.364    0.000    1.818 
#    0.000    0.000    0.000    2.182    0.000    0.000 
#    0.000    0.000    0.000    0.000    0.000    0.000 
#
# Total GULP energy -244943.549147 kJ/mol
# GULP energy per Si atom -5566.898844 kJ/mol
# Density = 1.592536 g / cm^3
# Si number density = 15.961693 Si / 1000 Ang^3
#
#
#
# Elastic Constant Matrix: (Units=GPa)
#
#
# Indices 1 2 3 4 5 6 
#
# 1 61.6595 31.7427 40.6780 0.0000 0.0000 0.0000
# 2 31.7427 70.4885 38.1635 0.0000 0.0000 0.0000
# 3 40.6780 38.1635 153.8192 0.0000 0.0000 0.0000
# 4 0.0000 0.0000 0.0000 -37.3783 0.0000 0.0000
# 5 0.0000 0.0000 0.0000 0.0000 10.6781 0.0000
# 6 0.0000 0.0000 0.0000 0.0000 0.0000 25.1834
#
#
#
# Elastic Compliance Matrix: (Units=1/GPa)
#
#
# Indices 1 2 3 4 5 6 
#
# 1 0.023137 -0.008209 -0.004082 0.000000 0.000000 0.000000
# 2 -0.008209 0.019301 -0.002618 0.000000 0.000000 0.000000
# 3 -0.004082 -0.002618 0.008230 0.000000 0.000000 0.000000
# 4 0.000000 0.000000 0.000000 -0.026754 0.000000 0.000000
# 5 0.000000 0.000000 0.000000 0.000000 0.093649 0.000000
# 6 0.000000 0.000000 0.000000 0.000000 0.000000 0.039709
#
#
# Mechanical properties :
#
#
# Convention : Reuss Voigt Hill
#
# Bulk Modulus (GPa) = 47.96083 56.34843 52.15463
# Shear Modulus (GPa) = 25.76782 11.38885 18.57834
#
# Velocity S-wave (km/s) = 4.02226 2.67406 3.41535
# Velocity P-wave (km/s) = 7.18917 6.70172 6.94972
#
# Compressibility (1/GPa) = 0.02085035
#
# Stress axis : x y z
#
# Youngs Moduli (GPa) = 43.22035 51.81133 121.50531
#
# Poissons Ratio (x) = 0.42533 0.49598
# Poissons Ratio (y) = 0.35481 0.31806
# Poissons Ratio (z) = 0.17642 0.13563
#
# Static dielectric constant tensor:
#      x y z
#    x 1.533930 0.000000 0.000000 
#    y 0.000000 1.529320 0.000000 
#    z 0.000000 0.000000 1.566140 
# 
# From -- ./inp_files/55563.got.cif
#   From: 2010.05.17/outbox.cif.g08.bks.cpg/sg63_28_cif.got.tgz:55563.got - 2010.06.03 15:47:04.
