data_PCOD9468016
_publ_section_title
;
Structure prediction by ZEFSAII (Michael W. Deem and Ramdas Pophale) SiO2 
 PCOD9468016
Probable space group: P N M A
;
_chemical_formula_sum "Si O2"
_cell_formula_units_Z 64
_cell_length_a 24.000000
_cell_length_b 9.000000
_cell_length_c 15.000000
_cell_angle_alpha 90.000000
_cell_angle_beta 90.000000
_cell_angle_gamma 90.000000
_cell_volume 3240.000000
_symmetry_space_group_name_H-M "P N M A"
_symmetry_group_IT_number 62
_symmetry_cell_setting 'orthorhombic'
loop_
_space_group_symop_operation_xyz
x,y,z
1/2-x,-y,1/2+z
1/2+x,1/2-y,1/2-z
-x,1/2+y,-z
-x,-y,-z
1/2+x,y,1/2-z
1/2-x,1/2+y,1/2+z
x,1/2-y,z
loop_
_atom_site_type_symbol
_atom_site_label
_atom_site_fract_x
_atom_site_fract_y
_atom_site_fract_z
Si Si1 0.760530 0.573182 0.870825
Si Si2 0.505288 0.070072 0.596892
Si Si3 0.949922 0.928879 0.738414
Si Si4 0.174569 0.071388 0.309996
Si Si5 0.141827 0.081920 0.625480
Si Si6 0.376526 0.920556 0.334117
Si Si7 0.232738 0.427819 0.926224
Si Si8 0.467089 0.426452 0.079892
O O1 0.750853 0.750000 0.862414
O O2 0.797483 0.528678 0.785614
O O3 0.702479 0.487759 0.872661
O O4 0.783270 0.547282 0.970601
O O5 0.503121 0.250000 0.594934
O O6 0.565854 0.016156 0.631526
O O7 0.500000 0.000000 0.500000
O O8 0.460717 0.008757 0.667808
O O9 0.949540 0.750000 0.751764
O O10 0.890447 0.970438 0.695213
O O11 0.000017 0.967026 0.670786
O O12 0.177469 0.250000 0.317768
O O13 0.210772 0.001498 0.389657
O O14 0.142572 0.250000 0.590371
O O15 0.123325 0.084183 0.728367
O O16 0.095746 0.984570 0.577278
O O17 0.375097 0.750000 0.367602
O O18 0.318829 0.988395 0.367986
O O19 0.239454 0.250000 0.913342
O O20 0.468302 0.250000 0.072863
O O21 0.500000 0.500000 0.000000
#
# Coordination Sequence:
#
# PCOD9468016 Si02
#       8
#     8   8   8   8   8   8   8   8
#     4  10  22  38  60  89 119 156 199 246 299 357
#     4  11  23  40  63  91 122 159 202 246 299 358
#     4  10  23  42  62  86 121 161 200 248 300 356
#     4  10  22  40  60  85 120 158 195 243 302 353
#     4  11  21  39  64  87 117 156 202 252 303 354
#     4   9  19  37  62  86 114 154 198 245 296 353
#     4  10  21  39  61  87 116 154 198 239 294 359
#     4  11  24  41  62  91 124 159 205 251 304 363
#
# _framework density 19.753086
#
# number of rings (size 3 to 8) (size 9 to 14) (size 15 to 20)
#    0.000    1.750    2.500    1.125    3.500    1.500 
#    0.000    1.250    0.000    0.000    0.000    0.000 
#    0.000    0.000    0.000    0.000    0.000    0.000 
#
# Total GULP energy -357179.436743 kJ/mol
# GULP energy per Si atom -5580.928699 kJ/mol
# Density = 1.970813 g / cm^3
# Si number density = 19.753086 Si / 1000 Ang^3
#
#
#
# Elastic Constant Matrix: (Units=GPa)
#
#
# Indices 1 2 3 4 5 6 
#
# 1 57.5925 6.0960 -24.0215 0.0000 0.0000 0.0000
# 2 6.0960 18.0400 17.2152 0.0000 0.0000 0.0000
# 3 -24.0215 17.2152 37.8901 0.0000 0.0000 0.0000
# 4 0.0000 0.0000 0.0000 22.7496 0.0000 0.0000
# 5 0.0000 0.0000 0.0000 0.0000 30.8199 0.0000
# 6 0.0000 0.0000 0.0000 0.0000 0.0000 24.7679
#
#
#
# Elastic Compliance Matrix: (Units=1/GPa)
#
#
# Indices 1 2 3 4 5 6 
#
# 1 0.071188 -0.118504 0.098974 0.000000 0.000000 0.000000
# 2 -0.118504 0.295134 -0.209222 0.000000 0.000000 0.000000
# 3 0.098974 -0.209222 0.184198 0.000000 0.000000 0.000000
# 4 0.000000 0.000000 0.000000 0.043957 0.000000 0.000000
# 5 0.000000 0.000000 0.000000 0.000000 0.032447 0.000000
# 6 0.000000 0.000000 0.000000 0.000000 0.000000 0.040375
#
#
# Mechanical properties :
#
#
# Convention : Reuss Voigt Hill
#
# Bulk Modulus (GPa) = 10.75098 12.45577 11.60338
# Shear Modulus (GPa) = 4.32597 23.28300 13.80449
#
# Velocity S-wave (km/s) = 1.48148 3.43695 2.64645
# Velocity P-wave (km/s) = 2.89497 4.69783 3.90195
#
# Compressibility (1/GPa) = 0.09301479
#
# Stress axis : x y z
#
# Youngs Moduli (GPa) = 14.04733 3.38829 5.42893
#
# Poissons Ratio (x) = 0.40153 -0.53732
# Poissons Ratio (y) = 1.66467 1.13585
# Poissons Ratio (z) = -1.39031 0.70891
#
# Static dielectric constant tensor:
#      x y z
#    x 1.735260 0.000000 0.000000 
#    y 0.000000 1.680050 0.000000 
#    z 0.000000 0.000000 1.698310 
# 
# From -- ./inp_files/20877.got.cif
#   From: 2010.05.17/outbox.ucp.g08.bks.cvg/sg62_11_cif.got.tgz:20877.got - 2010.06.11 16:29:25.
