data_PCOD9468008
_publ_section_title
;
Structure prediction by ZEFSAII (Michael W. Deem and Ramdas Pophale) SiO2 
 PCOD9468008
Probable space group: P N M A
;
_chemical_formula_sum "Si O2"
_cell_formula_units_Z 48
_cell_length_a 18.000000
_cell_length_b 9.000000
_cell_length_c 15.000000
_cell_angle_alpha 90.000000
_cell_angle_beta 90.000000
_cell_angle_gamma 90.000000
_cell_volume 2430.000000
_symmetry_space_group_name_H-M "P N M A"
_symmetry_group_IT_number 62
_symmetry_cell_setting 'orthorhombic'
loop_
_space_group_symop_operation_xyz
x,y,z
1/2-x,-y,1/2+z
1/2+x,1/2-y,1/2-z
-x,1/2+y,-z
-x,-y,-z
1/2+x,y,1/2-z
1/2-x,1/2+y,1/2+z
x,1/2-y,z
loop_
_atom_site_type_symbol
_atom_site_label
_atom_site_fract_x
_atom_site_fract_y
_atom_site_fract_z
Si Si1 0.433520 0.570954 0.946064
Si Si2 0.710763 0.072338 0.947692
Si Si3 0.306601 0.578576 0.419323
Si Si4 0.237066 0.929662 0.236143
Si Si5 0.481504 0.921434 0.407362
Si Si6 0.579458 0.072281 0.260335
O O1 0.436448 0.750000 0.952211
O O2 0.357565 0.518636 0.992721
O O3 0.436185 0.531249 0.842290
O O4 0.500000 0.500000 0.000000
O O5 0.711271 0.250000 0.951306
O O6 0.784709 0.012455 0.993983
O O7 0.708048 0.028838 0.844432
O O8 0.284550 0.750000 0.434136
O O9 0.264323 0.518723 0.332475
O O10 0.393042 0.576085 0.398583
O O11 0.232041 0.750000 0.238542
O O12 0.158165 0.000531 0.215825
O O13 0.506633 0.750000 0.408308
O O14 0.500000 0.000000 0.500000
O O15 0.518962 0.007508 0.326599
O O16 0.583344 0.250000 0.267428
#
# Coordination Sequence:
#
# PCOD9468008 Si02
#       6
#     8   8   8   8   8   8
#     4  10  23  40  60  87 120 160 202 250 302 360
#     4  10  21  39  62  87 118 154 195 247 301 353
#     4  10  22  39  60  88 118 152 198 246 295 357
#     4  10  21  38  62  88 115 154 200 245 303 362
#     4  11  24  41  63  91 124 162 203 251 302 360
#     4  11  23  41  62  90 125 160 201 248 305 365
#
# _framework density 19.753086
#
# number of rings (size 3 to 8) (size 9 to 14) (size 15 to 20)
#    0.000    1.667    1.667    2.000    2.333    6.667 
#    0.000    0.000    0.000    0.000    0.000    0.000 
#    0.000    0.000    0.000    0.000    0.000    0.000 
#
# Total GULP energy -268008.387531 kJ/mol
# GULP energy per Si atom -5583.508074 kJ/mol
# Density = 1.970813 g / cm^3
# Si number density = 19.753086 Si / 1000 Ang^3
#
#
#
# Elastic Constant Matrix: (Units=GPa)
#
#
# Indices 1 2 3 4 5 6 
#
# 1 44.4570 8.8276 28.9957 0.0000 0.0000 0.0000
# 2 8.8276 2.2099 25.8672 0.0000 0.0000 0.0000
# 3 28.9957 25.8672 107.6175 0.0000 0.0000 0.0000
# 4 0.0000 0.0000 0.0000 27.2863 0.0000 0.0000
# 5 0.0000 0.0000 0.0000 0.0000 34.6983 0.0000
# 6 0.0000 0.0000 0.0000 0.0000 0.0000 22.5947
#
#
#
# Elastic Compliance Matrix: (Units=1/GPa)
#
#
# Indices 1 2 3 4 5 6 
#
# 1 0.026662 0.012362 -0.010155 0.000000 0.000000 0.000000
# 2 0.012362 -0.243793 0.055268 0.000000 0.000000 0.000000
# 3 -0.010155 0.055268 -0.001256 0.000000 0.000000 0.000000
# 4 0.000000 0.000000 0.000000 0.036648 0.000000 0.000000
# 5 0.000000 0.000000 0.000000 0.000000 0.028820 0.000000
# 6 0.000000 0.000000 0.000000 0.000000 0.000000 0.044258
#
#
# Mechanical properties :
#
#
# Convention : Reuss Voigt Hill
#
# Bulk Modulus (GPa) = -9.66773 31.29615 10.81421
# Shear Modulus (GPa) = -19.37315 22.95545 1.79115
#
# Velocity S-wave (km/s) = -3.13512 3.41269 0.95328
# Velocity P-wave (km/s) = 4.24384 5.60416 2.58809
#
# Compressibility (1/GPa) = -0.10343685
#
# Stress axis : x y z
#
# Youngs Moduli (GPa) = 37.50609 -4.10184 -796.10802
#
# Poissons Ratio (x) = 0.05071 -8.08452
# Poissons Ratio (y) = -0.46365 43.99934
# Poissons Ratio (z) = 0.38088 0.22670
#
# Static dielectric constant tensor:
#      x y z
#    x 1.676450 0.000000 0.000000 
#    y 0.000000 1.671410 0.000000 
#    z 0.000000 0.000000 1.682620 
# 
# From -- ./inp_files/19529.got.cif
#   From: 2010.05.17/outbox.ucp.g08.bks.cvg/sg62_10_cif.got.tgz:19529.got - 2010.06.11 16:29:25.
