data_PCOD9468773
_publ_section_title
;
Structure prediction by ZEFSAII (Michael W. Deem and Ramdas Pophale) SiO2 
 PCOD9468773
Probable space group: C M C M
;
_chemical_formula_sum "Si O2"
_cell_formula_units_Z 96
_cell_length_a 8.963077
_cell_length_b 27.172153
_cell_length_c 23.707763
_cell_angle_alpha 90.000000
_cell_angle_beta 90.000000
_cell_angle_gamma 90.000000
_cell_volume 5773.933209
_symmetry_space_group_name_H-M "C M C M"
_symmetry_group_IT_number 63
_symmetry_cell_setting 'orthorhombic'
loop_
_space_group_symop_operation_xyz
x,y,z
-x,-y,1/2+z
x,-y,-z
-x,y,1/2-z
-x,-y,-z
x,y,1/2-z
-x,y,z
x,-y,1/2+z
1/2+x,1/2+y,z
1/2-x,1/2-y,1/2+z
1/2+x,1/2-y,-z
1/2-x,1/2+y,1/2-z
1/2-x,1/2-y,-z
1/2+x,1/2+y,1/2-z
1/2-x,1/2+y,z
1/2+x,1/2-y,1/2+z
loop_
_atom_site_type_symbol
_atom_site_label
_atom_site_fract_x
_atom_site_fract_y
_atom_site_fract_z
Si Si1 0.321581 0.400773 0.962458
Si Si2 0.177666 0.200649 0.976385
Si Si3 0.182329 0.617698 0.750000
Si Si4 0.826722 0.348104 0.371181
Si Si5 0.823906 0.964578 0.862588
Si Si6 0.328030 0.047349 0.935054
Si Si7 0.178377 0.497495 0.250000
O O1 0.500000 0.408258 0.971105
O O2 0.288643 0.415187 0.898018
O O3 0.285694 0.345648 0.982609
O O4 0.231875 0.436861 0.004003
O O5 0.237374 0.186035 0.914381
O O6 0.000000 0.205582 0.974767
O O7 0.250000 0.250000 0.000000
O O8 0.229316 0.645121 0.807267
O O9 0.229137 0.560108 0.750000
O O10 0.000000 0.616959 0.750000
O O11 0.823757 0.402889 0.397815
O O12 0.000000 0.332159 0.369959
O O13 0.736837 0.974989 0.805354
O O14 0.000000 0.965978 0.851391
O O15 0.776892 0.008159 0.905010
O O16 0.500000 0.030402 0.936755
O O17 0.000000 0.496623 0.250000
#
# Coordination Sequence:
#
# PCOD9468773 Si02
#       7
#    16  16   8  16  16  16   8
#     4   9  20  35  50  71 102 134 167 209 257 310
#     4  10  20  36  56  78 101 129 167 218 271 319
#     4   9  16  31  51  72 105 140 171 204 245 296
#     4   9  17  31  51  75 104 139 171 206 252 306
#     4  11  21  33  48  70 102 141 177 209 249 300
#     4  10  18  29  48  74 104 137 173 210 248 294
#     4  11  21  35  51  72 103 142 181 218 251 292
#
# _framework density 16.626448
#
# number of rings (size 3 to 8) (size 9 to 14) (size 15 to 20)
#    0.000    2.167    1.667    2.250    0.000    4.667 
#    0.000    0.417    0.000    1.000    0.000    3.500 
#    0.000    0.000    0.000    0.000    0.000    0.000 
#
# Total GULP energy -267739.138755 kJ/mol
# GULP energy per Si atom -5577.898724 kJ/mol
# Density = 1.658861 g / cm^3
# Si number density = 16.626448 Si / 1000 Ang^3
#
#
#
# Elastic Constant Matrix: (Units=GPa)
#
#
# Indices 1 2 3 4 5 6 
#
# 1 47.7257 36.6954 46.8346 0.0000 0.0000 0.0000
# 2 36.6954 66.1388 68.6100 0.0000 0.0000 0.0000
# 3 46.8346 68.6100 147.3911 0.0000 0.0000 0.0000
# 4 0.0000 0.0000 0.0000 18.0622 0.0000 0.0000
# 5 0.0000 0.0000 0.0000 0.0000 27.4403 0.0000
# 6 0.0000 0.0000 0.0000 0.0000 0.0000 23.3784
#
#
#
# Elastic Compliance Matrix: (Units=1/GPa)
#
#
# Indices 1 2 3 4 5 6 
#
# 1 0.037940 -0.016522 -0.004365 0.000000 0.000000 0.000000
# 2 -0.016522 0.036434 -0.011710 0.000000 0.000000 0.000000
# 3 -0.004365 -0.011710 0.013622 0.000000 0.000000 0.000000
# 4 0.000000 0.000000 0.000000 0.055364 0.000000 0.000000
# 5 0.000000 0.000000 0.000000 0.000000 0.036443 0.000000
# 6 0.000000 0.000000 0.000000 0.000000 0.000000 0.042775
#
#
# Mechanical properties :
#
#
# Convention : Reuss Voigt Hill
#
# Bulk Modulus (GPa) = 43.85403 62.83727 53.34565
# Shear Modulus (GPa) = 16.92779 21.05054 18.98917
#
# Velocity S-wave (km/s) = 3.19427 3.56207 3.38317
# Velocity P-wave (km/s) = 6.32754 7.40226 6.88590
#
# Compressibility (1/GPa) = 0.02280292
#
# Stress axis : x y z
#
# Youngs Moduli (GPa) = 26.35755 27.44688 73.40818
#
# Poissons Ratio (x) = 0.45348 0.32040
# Poissons Ratio (y) = 0.43548 0.85960
# Poissons Ratio (z) = 0.11504 0.32140
#
# Static dielectric constant tensor:
#      x y z
#    x 1.558840 0.000000 0.000000 
#    y 0.000000 1.550720 0.000000 
#    z 0.000000 0.000000 1.575130 
# 
# From -- ./inp_files/60310.got.cif
#   From: 2010.05.17/outbox.cif.g08.bks.cpg/sg63_31_cif.got.tgz:60310.got - 2010.06.03 15:47:04.
