data_PCOD9468202
_publ_section_title
;
Structure prediction by ZEFSAII (Michael W. Deem and Ramdas Pophale) SiO2 
 PCOD9468202
Probable space group: C M C M
;
_chemical_formula_sum "Si O2"
_cell_formula_units_Z 96
_cell_length_a 22.107432
_cell_length_b 14.366926
_cell_length_c 14.332313
_cell_angle_alpha 90.000000
_cell_angle_beta 90.000000
_cell_angle_gamma 90.000000
_cell_volume 4552.169627
_symmetry_space_group_name_H-M "C M C M"
_symmetry_group_IT_number 63
_symmetry_cell_setting 'orthorhombic'
loop_
_space_group_symop_operation_xyz
x,y,z
-x,-y,1/2+z
x,-y,-z
-x,y,1/2-z
-x,-y,-z
x,y,1/2-z
-x,y,z
x,-y,1/2+z
1/2+x,1/2+y,z
1/2-x,1/2-y,1/2+z
1/2+x,1/2-y,-z
1/2-x,1/2+y,1/2-z
1/2-x,1/2-y,-z
1/2+x,1/2+y,1/2-z
1/2-x,1/2+y,z
1/2+x,1/2-y,1/2+z
loop_
_atom_site_type_symbol
_atom_site_label
_atom_site_fract_x
_atom_site_fract_y
_atom_site_fract_z
Si Si1 0.687955 0.773930 0.638714
Si Si2 0.070400 0.098750 0.135925
Si Si3 0.823789 0.239297 0.138830
Si Si4 0.500000 0.264728 0.139167
Si Si5 0.000000 0.610308 0.987708
Si Si6 0.632190 0.108795 0.518210
Si Si7 0.614052 0.395048 0.137784
O O1 0.677625 0.782509 0.750000
O O2 0.757222 0.800569 0.618354
O O3 0.644461 0.839826 0.579597
O O4 0.672204 0.666899 0.610874
O O5 0.068803 0.099943 0.250000
O O6 0.119647 0.176011 0.106440
O O7 0.000000 0.111195 0.105560
O O8 0.097431 0.998629 0.105859
O O9 0.828286 0.247828 0.250000
O O10 0.825422 0.339891 0.091341
O O11 0.500000 0.247574 0.250000
O O12 0.500000 0.169715 0.082359
O O13 0.557744 0.328005 0.115905
O O14 0.064671 0.629591 0.943057
O O15 0.000000 0.500000 0.000000
O O16 0.640185 0.000000 0.500000
O O17 0.617350 0.403724 0.250000
#
# Coordination Sequence:
#
# PCOD9468202 Si02
#       7
#    16  16  16   8   8  16  16
#     4  10  21  39  64  91 120 159 204 254 314 375
#     4   9  17  32  56  86 120 156 196 245 305 370
#     4  10  23  41  61  88 122 164 207 248 306 379
#     4  10  16  30  59  87 115 151 198 258 320 373
#     4  10  22  38  55  83 119 161 207 260 308 349
#     4  11  24  41  61  86 122 163 209 261 305 354
#     4   9  16  29  56  90 117 146 191 249 311 370
#
# _framework density 21.088844000000002
#
# number of rings (size 3 to 8) (size 9 to 14) (size 15 to 20)
#    0.000    2.167    2.500    0.500    1.167    2.000 
#    0.000    6.667    0.000    2.000    0.000    0.000 
#    0.000    0.000    0.000    0.000    0.000    0.000 
#
# Total GULP energy -267704.709690 kJ/mol
# GULP energy per Si atom -5577.181452 kJ/mol
# Density = 2.104084 g / cm^3
# Si number density = 21.088844 Si / 1000 Ang^3
#
#
#
# Elastic Constant Matrix: (Units=GPa)
#
#
# Indices 1 2 3 4 5 6 
#
# 1 90.6604 42.8489 6.8092 0.0000 0.0000 0.0000
# 2 42.8489 125.6320 15.9058 0.0000 0.0000 0.0000
# 3 6.8092 15.9058 38.9375 0.0000 0.0000 0.0000
# 4 0.0000 0.0000 0.0000 24.4112 0.0000 0.0000
# 5 0.0000 0.0000 0.0000 0.0000 14.8733 0.0000
# 6 0.0000 0.0000 0.0000 0.0000 0.0000 21.0748
#
#
#
# Elastic Compliance Matrix: (Units=1/GPa)
#
#
# Indices 1 2 3 4 5 6 
#
# 1 0.013159 -0.004426 -0.000493 0.000000 0.000000 0.000000
# 2 -0.004426 0.009882 -0.003263 0.000000 0.000000 0.000000
# 3 -0.000493 -0.003263 0.027101 0.000000 0.000000 0.000000
# 4 0.000000 0.000000 0.000000 0.040965 0.000000 0.000000
# 5 0.000000 0.000000 0.000000 0.000000 0.067235 0.000000
# 6 0.000000 0.000000 0.000000 0.000000 0.000000 0.047450
#
#
# Mechanical properties :
#
#
# Convention : Reuss Voigt Hill
#
# Bulk Modulus (GPa) = 29.60436 42.92862 36.26649
# Shear Modulus (GPa) = 21.42105 24.71628 23.06867
#
# Velocity S-wave (km/s) = 3.19055 3.42717 3.31097
# Velocity P-wave (km/s) = 5.25749 6.00508 5.64367
#
# Compressibility (1/GPa) = 0.03377881
#
# Stress axis : x y z
#
# Youngs Moduli (GPa) = 75.99423 101.19117 36.89853
#
# Poissons Ratio (x) = 0.44783 0.01820
# Poissons Ratio (y) = 0.33632 0.12040
# Poissons Ratio (z) = 0.03749 0.33018
#
# Static dielectric constant tensor:
#      x y z
#    x 1.790750 0.000000 0.000000 
#    y 0.000000 1.726610 0.000000 
#    z 0.000000 0.000000 1.755830 
# 
# From -- ./inp_files/35450.got.cif
#   From: 2010.05.17/outbox.cif.g08.bks.cpg/sg63_18_cif.got.tgz:35450.got - 2010.06.03 15:47:04.
