data_PCOD9468602
_publ_section_title
;
Structure prediction by ZEFSAII (Michael W. Deem and Ramdas Pophale) SiO2 
 PCOD9468602
Probable space group: C M C M
;
_chemical_formula_sum "Si O2"
_cell_formula_units_Z 96
_cell_length_a 7.669743
_cell_length_b 28.402643
_cell_length_c 23.714526
_cell_angle_alpha 90.000000
_cell_angle_beta 90.000000
_cell_angle_gamma 90.000000
_cell_volume 5165.995402
_symmetry_space_group_name_H-M "C M C M"
_symmetry_group_IT_number 63
_symmetry_cell_setting 'orthorhombic'
loop_
_space_group_symop_operation_xyz
x,y,z
-x,-y,1/2+z
x,-y,-z
-x,y,1/2-z
-x,-y,-z
x,y,1/2-z
-x,y,z
x,-y,1/2+z
1/2+x,1/2+y,z
1/2-x,1/2-y,1/2+z
1/2+x,1/2-y,-z
1/2-x,1/2+y,1/2-z
1/2-x,1/2-y,-z
1/2+x,1/2+y,1/2-z
1/2-x,1/2+y,z
1/2+x,1/2-y,1/2+z
loop_
_atom_site_type_symbol
_atom_site_label
_atom_site_fract_x
_atom_site_fract_y
_atom_site_fract_z
Si Si1 0.789375 0.624916 0.750000
Si Si2 0.795892 0.349615 0.370453
Si Si3 0.288454 0.442395 0.435220
Si Si4 0.293657 0.197054 0.983519
Si Si5 0.708566 0.605544 0.450637
Si Si6 0.287388 0.467237 0.633599
Si Si7 0.710834 0.513173 0.750000
O O1 0.721571 0.649123 0.692647
O O2 0.753510 0.568754 0.750000
O O3 0.000000 0.628951 0.750000
O O4 0.779479 0.403095 0.392329
O O5 0.719084 0.319108 0.422343
O O6 0.000000 0.337057 0.365400
O O7 0.500000 0.440455 0.435033
O O8 0.227502 0.426221 0.496754
O O9 0.239667 0.493339 0.412708
O O10 0.500000 0.193260 0.978198
O O11 0.250000 0.250000 0.000000
O O12 0.243862 0.159001 0.031216
O O13 0.500000 0.600857 0.449795
O O14 0.771645 0.582716 0.392157
O O15 0.500000 0.466482 0.637238
O O16 0.225707 0.486276 0.693885
O O17 0.500000 0.511097 0.750000
#
# Coordination Sequence:
#
# PCOD9468602 Si02
#       7
#     8  16  16  16  16  16   8
#     4  10  18  30  46  67  98 131 155 182 225 277
#     4   9  18  30  46  69  97 124 152 187 231 282
#     4   9  15  25  43  66  93 125 158 189 223 266
#     4  10  20  35  53  73  93 116 151 198 248 292
#     4   9  17  29  46  68  93 123 156 191 232 277
#     4   9  16  26  42  66  96 128 162 194 223 260
#     4  10  18  28  44  67  96 133 169 198 221 257
#
# _framework density 18.58306
#
# number of rings (size 3 to 8) (size 9 to 14) (size 15 to 20)
#    0.000    2.667    1.667    1.000    0.000    2.667 
#    0.000    1.667    0.000    5.000    0.000    7.000 
#    0.000    0.000    0.000    0.000    0.000    0.000 
#
# Total GULP energy -267409.037042 kJ/mol
# GULP energy per Si atom -5571.021605 kJ/mol
# Density = 1.854076 g / cm^3
# Si number density = 18.583060 Si / 1000 Ang^3
#
#
#
# Elastic Constant Matrix: (Units=GPa)
#
#
# Indices 1 2 3 4 5 6 
#
# 1 31.0321 -4.1921 3.7759 0.0000 0.0000 0.0000
# 2 -4.1921 112.6089 72.0939 0.0000 0.0000 0.0000
# 3 3.7759 72.0939 87.0597 0.0000 0.0000 0.0000
# 4 0.0000 0.0000 0.0000 14.3875 0.0000 0.0000
# 5 0.0000 0.0000 0.0000 0.0000 9.2469 0.0000
# 6 0.0000 0.0000 0.0000 0.0000 0.0000 14.6839
#
#
#
# Elastic Compliance Matrix: (Units=1/GPa)
#
#
# Indices 1 2 3 4 5 6 
#
# 1 0.033494 0.004633 -0.005290 0.000000 0.000000 0.000000
# 2 0.004633 0.019542 -0.016383 0.000000 0.000000 0.000000
# 3 -0.005290 -0.016383 0.025283 0.000000 0.000000 0.000000
# 4 0.000000 0.000000 0.000000 0.069505 0.000000 0.000000
# 5 0.000000 0.000000 0.000000 0.000000 0.108144 0.000000
# 6 0.000000 0.000000 0.000000 0.000000 0.000000 0.068102
#
#
# Mechanical properties :
#
#
# Convention : Reuss Voigt Hill
#
# Bulk Modulus (GPa) = 22.60418 41.56176 32.08297
# Shear Modulus (GPa) = 13.40859 18.26518 15.83688
#
# Velocity S-wave (km/s) = 2.68908 3.13852 2.92245
# Velocity P-wave (km/s) = 4.67245 5.96219 5.35628
#
# Compressibility (1/GPa) = 0.04423960
#
# Stress axis : x y z
#
# Youngs Moduli (GPa) = 29.85588 51.17277 39.55259
#
# Poissons Ratio (x) = -0.23710 0.20922
# Poissons Ratio (y) = -0.13833 0.64800
# Poissons Ratio (z) = 0.15792 0.83838
#
# Static dielectric constant tensor:
#      x y z
#    x 1.712340 0.000000 0.000000 
#    y 0.000000 1.561580 0.000000 
#    z 0.000000 0.000000 1.698450 
# 
# From -- ./inp_files/60068.got.cif
#   From: 2010.05.17/outbox.cif.g08.bks.cpg/sg63_31_cif.got.tgz:60068.got - 2010.06.03 15:47:04.
