data_PCOD9468396
_publ_section_title
;
Structure prediction by ZEFSAII (Michael W. Deem and Ramdas Pophale) SiO2 
 PCOD9468396
Probable space group: C M C M
;
_chemical_formula_sum "Si O2"
_cell_formula_units_Z 80
_cell_length_a 28.048137
_cell_length_b 7.945705
_cell_length_c 16.767168
_cell_angle_alpha 90.000000
_cell_angle_beta 90.000000
_cell_angle_gamma 90.000000
_cell_volume 3736.768324
_symmetry_space_group_name_H-M "C M C M"
_symmetry_group_IT_number 63
_symmetry_cell_setting 'orthorhombic'
loop_
_space_group_symop_operation_xyz
x,y,z
-x,-y,1/2+z
x,-y,-z
-x,y,1/2-z
-x,-y,-z
x,y,1/2-z
-x,y,z
x,-y,1/2+z
1/2+x,1/2+y,z
1/2-x,1/2-y,1/2+z
1/2+x,1/2-y,-z
1/2-x,1/2+y,1/2-z
1/2-x,1/2-y,-z
1/2+x,1/2+y,1/2-z
1/2-x,1/2+y,z
1/2+x,1/2-y,1/2+z
loop_
_atom_site_type_symbol
_atom_site_label
_atom_site_fract_x
_atom_site_fract_y
_atom_site_fract_z
Si Si1 0.900857 0.006133 0.340271
Si Si2 0.906782 0.386821 0.108935
Si Si3 0.298226 0.546854 0.406566
Si Si4 0.195937 0.443338 0.092191
Si Si5 0.445902 0.214766 0.441962
O O1 0.909736 0.954166 0.250000
O O2 0.930638 0.885507 0.398460
O O3 0.911947 0.207351 0.347166
O O4 0.845045 0.979331 0.362755
O O5 0.855965 0.474920 0.128499
O O6 0.942277 0.545703 0.112332
O O7 0.911134 0.322363 0.016731
O O8 0.300031 0.500000 0.500000
O O9 0.246023 0.504186 0.372719
O O10 0.301607 0.744837 0.405142
O O11 0.194918 0.500000 0.000000
O O12 0.500000 0.228896 0.471995
#
# Coordination Sequence:
#
# PCOD9468396 Si02
#       5
#    16  16  16  16  16
#     4  11  25  42  58  87 132 173 204 248 308 377
#     4  10  21  40  68  91 128 153 204 268 318 363
#     4  10  20  32  58  87 119 157 209 254 301 360
#     4  10  17  30  57  91 117 154 198 254 315 355
#     4  11  23  41  70  98 117 155 211 268 320 367
#
# _framework density 21.408873
#
# number of rings (size 3 to 8) (size 9 to 14) (size 15 to 20)
#    0.000    1.600    2.000    6.600    2.800    3.600 
#    0.000    4.000    0.000    0.000    0.000    0.000 
#    0.000    0.000    0.000    0.000    0.000    0.000 
#
# Total GULP energy -222971.819760 kJ/mol
# GULP energy per Si atom -5574.295494 kJ/mol
# Density = 2.136014 g / cm^3
# Si number density = 21.408873 Si / 1000 Ang^3
#
#
#
# Elastic Constant Matrix: (Units=GPa)
#
#
# Indices 1 2 3 4 5 6 
#
# 1 75.6231 15.2819 -3.7916 0.0000 0.0000 0.0000
# 2 15.2819 45.8170 1.5463 0.0000 0.0000 0.0000
# 3 -3.7916 1.5463 33.1787 0.0000 0.0000 0.0000
# 4 0.0000 0.0000 0.0000 12.4721 0.0000 0.0000
# 5 0.0000 0.0000 0.0000 0.0000 9.7086 0.0000
# 6 0.0000 0.0000 0.0000 0.0000 0.0000 31.1402
#
#
#
# Elastic Compliance Matrix: (Units=1/GPa)
#
#
# Indices 1 2 3 4 5 6 
#
# 1 0.014293 -0.004830 0.001858 0.000000 0.000000 0.000000
# 2 -0.004830 0.023493 -0.001647 0.000000 0.000000 0.000000
# 3 0.001858 -0.001647 0.030429 0.000000 0.000000 0.000000
# 4 0.000000 0.000000 0.000000 0.080179 0.000000 0.000000
# 5 0.000000 0.000000 0.000000 0.000000 0.103002 0.000000
# 6 0.000000 0.000000 0.000000 0.000000 0.000000 0.032113
#
#
# Mechanical properties :
#
#
# Convention : Reuss Voigt Hill
#
# Bulk Modulus (GPa) = 16.95558 20.07687 18.51623
# Shear Modulus (GPa) = 16.00494 20.10299 18.05396
#
# Velocity S-wave (km/s) = 2.73716 3.06764 2.90710
# Velocity P-wave (km/s) = 4.23397 4.68459 4.46497
#
# Compressibility (1/GPa) = 0.05897762
#
# Stress axis : x y z
#
# Youngs Moduli (GPa) = 69.96586 42.56669 32.86341
#
# Poissons Ratio (x) = 0.20559 -0.06108
# Poissons Ratio (y) = 0.33793 0.05412
# Poissons Ratio (z) = -0.13003 0.07010
#
# Static dielectric constant tensor:
#      x y z
#    x 2.067650 0.000000 0.000000 
#    y 0.000000 1.771400 0.000000 
#    z 0.000000 0.000000 1.775360 
# 
# From -- ./inp_files/49428.got.cif
#   From: 2010.05.17/outbox.cif.g08.bks.cpg/sg63_25_cif.got.tgz:49428.got - 2010.06.03 15:47:04.
