data_PCOD9468637
_publ_section_title
;
Structure prediction by ZEFSAII (Michael W. Deem and Ramdas Pophale) SiO2 
 PCOD9468637
Probable space group: C M C M
;
_chemical_formula_sum "Si O2"
_cell_formula_units_Z 112
_cell_length_a 14.466241
_cell_length_b 29.940818
_cell_length_c 13.823671
_cell_angle_alpha 90.000000
_cell_angle_beta 90.000000
_cell_angle_gamma 90.000000
_cell_volume 5987.461673
_symmetry_space_group_name_H-M "C M C M"
_symmetry_group_IT_number 63
_symmetry_cell_setting 'orthorhombic'
loop_
_space_group_symop_operation_xyz
x,y,z
-x,-y,1/2+z
x,-y,-z
-x,y,1/2-z
-x,-y,-z
x,y,1/2-z
-x,y,z
x,-y,1/2+z
1/2+x,1/2+y,z
1/2-x,1/2-y,1/2+z
1/2+x,1/2-y,-z
1/2-x,1/2+y,1/2-z
1/2-x,1/2-y,-z
1/2+x,1/2+y,1/2-z
1/2-x,1/2+y,z
1/2+x,1/2-y,1/2+z
loop_
_atom_site_type_symbol
_atom_site_label
_atom_site_fract_x
_atom_site_fract_y
_atom_site_fract_z
Si Si1 0.209176 0.474185 0.133902
Si Si2 0.389713 0.935363 0.639608
Si Si3 0.103646 0.061941 0.632011
Si Si4 0.279802 0.750538 0.864793
Si Si5 0.111014 0.286915 0.036849
Si Si6 0.395487 0.663314 0.866794
Si Si7 0.891041 0.611429 0.949675
O O1 0.207378 0.476301 0.250000
O O2 0.158182 0.519260 0.102772
O O3 0.315033 0.470517 0.101045
O O4 0.161456 0.427680 0.105637
O O5 0.361285 0.925651 0.750000
O O6 0.500000 0.943028 0.640124
O O7 0.370184 0.896631 0.563158
O O8 0.102784 0.062206 0.750000
O O9 0.125902 0.112946 0.600651
O O10 0.000000 0.050901 0.600093
O O11 0.287566 0.758197 0.750000
O O12 0.173301 0.746740 0.898929
O O13 0.324463 0.702076 0.890563
O O14 0.341929 0.783142 0.930624
O O15 0.000000 0.278831 0.034184
O O16 0.125964 0.337262 0.076391
O O17 0.397642 0.661592 0.750000
O O18 0.500000 0.674676 0.899179
O O19 0.000000 0.603354 0.935573
#
# Coordination Sequence:
#
# PCOD9468637 Si02
#       7
#    16  16  16  16  16  16  16
#     4  10  18  28  46  71  98 131 169 207 250 300
#     4   9  18  32  49  69  93 126 170 210 242 286
#     4   8  14  24  39  63  93 121 152 193 239 283
#     4  10  20  35  54  75 102 135 168 205 252 306
#     4  10  22  36  51  77 106 132 169 212 256 310
#     4   8  13  23  42  66  90 119 155 194 239 292
#     4  10  20  33  49  71 102 134 160 197 250 301
#
# _framework density 18.705756999999998
#
# number of rings (size 3 to 8) (size 9 to 14) (size 15 to 20)
#    0.000    2.714    0.000    3.000    0.000    5.429 
#    0.000    2.857    0.000    1.714    0.000    0.000 
#    0.000    4.571    0.000    0.000    0.000    0.000 
#
# Total GULP energy -311956.665586 kJ/mol
# GULP energy per Si atom -5570.654743 kJ/mol
# Density = 1.866318 g / cm^3
# Si number density = 18.705757 Si / 1000 Ang^3
#
#
#
# Elastic Constant Matrix: (Units=GPa)
#
#
# Indices 1 2 3 4 5 6 
#
# 1 51.1976 16.6464 -3.1166 0.0000 0.0000 0.0000
# 2 16.6464 29.6165 -2.9908 0.0000 0.0000 0.0000
# 3 -3.1166 -2.9908 22.5096 0.0000 0.0000 0.0000
# 4 0.0000 0.0000 0.0000 20.2623 0.0000 0.0000
# 5 0.0000 0.0000 0.0000 0.0000 13.0702 0.0000
# 6 0.0000 0.0000 0.0000 0.0000 0.0000 20.7071
#
#
#
# Elastic Compliance Matrix: (Units=1/GPa)
#
#
# Indices 1 2 3 4 5 6 
#
# 1 0.023953 -0.013307 0.001548 0.000000 0.000000 0.000000
# 2 -0.013307 0.041617 0.003687 0.000000 0.000000 0.000000
# 3 0.001548 0.003687 0.045130 0.000000 0.000000 0.000000
# 4 0.000000 0.000000 0.000000 0.049353 0.000000 0.000000
# 5 0.000000 0.000000 0.000000 0.000000 0.076510 0.000000
# 6 0.000000 0.000000 0.000000 0.000000 0.000000 0.048293
#
#
# Mechanical properties :
#
#
# Convention : Reuss Voigt Hill
#
# Bulk Modulus (GPa) = 10.57565 13.82241 12.19903
# Shear Modulus (GPa) = 15.03686 16.99357 16.01521
#
# Velocity S-wave (km/s) = 2.83832 3.01735 2.92920
# Velocity P-wave (km/s) = 4.05060 4.42093 4.23981
#
# Compressibility (1/GPa) = 0.09455687
#
# Stress axis : x y z
#
# Youngs Moduli (GPa) = 41.74837 24.02881 22.15835
#
# Poissons Ratio (x) = 0.31975 -0.03431
# Poissons Ratio (y) = 0.55554 -0.08170
# Poissons Ratio (z) = -0.06464 -0.08860
#
# Static dielectric constant tensor:
#      x y z
#    x 1.680830 0.000000 0.000000 
#    y 0.000000 1.641920 0.000000 
#    z 0.000000 0.000000 1.674040 
# 
# From -- ./inp_files/32747.got.cif
#   From: 2010.05.17/outbox.cif.g08.bks.cpg/sg63_17_cif.got.tgz:32747.got - 2010.06.03 15:47:04.
