data_PCOD9468946
_publ_section_title
;
Structure prediction by ZEFSAII (Michael W. Deem and Ramdas Pophale) SiO2 
 PCOD9468946
Probable space group: C M C M
;
_chemical_formula_sum "Si O2"
_cell_formula_units_Z 96
_cell_length_a 9.197907
_cell_length_b 28.880109
_cell_length_c 19.900326
_cell_angle_alpha 90.000000
_cell_angle_beta 90.000000
_cell_angle_gamma 90.000000
_cell_volume 5286.254076
_symmetry_space_group_name_H-M "C M C M"
_symmetry_group_IT_number 63
_symmetry_cell_setting 'orthorhombic'
loop_
_space_group_symop_operation_xyz
x,y,z
-x,-y,1/2+z
x,-y,-z
-x,y,1/2-z
-x,-y,-z
x,y,1/2-z
-x,y,z
x,-y,1/2+z
1/2+x,1/2+y,z
1/2-x,1/2-y,1/2+z
1/2+x,1/2-y,-z
1/2-x,1/2+y,1/2-z
1/2-x,1/2-y,-z
1/2+x,1/2+y,1/2-z
1/2-x,1/2+y,z
1/2+x,1/2-y,1/2+z
loop_
_atom_site_type_symbol
_atom_site_label
_atom_site_fract_x
_atom_site_fract_y
_atom_site_fract_z
Si Si1 0.834513 0.565852 0.120090
Si Si2 0.671703 0.756971 0.669578
Si Si3 0.334035 0.106166 0.968658
Si Si4 0.333855 0.479611 0.076444
Si Si5 0.837819 0.151295 0.329576
Si Si6 0.174545 0.287135 0.049215
O O1 0.767435 0.514742 0.117474
O O2 0.731096 0.601524 0.157861
O O3 0.000000 0.566284 0.145330
O O4 0.836219 0.585728 0.043977
O O5 0.692976 0.750931 0.750000
O O6 0.500000 0.753396 0.655890
O O7 0.729848 0.807880 0.648445
O O8 0.763588 0.722345 0.623727
O O9 0.500000 0.103571 0.942819
O O10 0.230638 0.071875 0.927402
O O11 0.290420 0.159833 0.970171
O O12 0.500000 0.480305 0.100010
O O13 0.333553 0.500000 0.000000
O O14 0.850734 0.157451 0.250000
O O15 0.000000 0.155524 0.359638
O O16 0.000000 0.281375 0.046796
O O17 0.250000 0.250000 0.000000
#
# Coordination Sequence:
#
# PCOD9468946 Si02
#       6
#    16  16  16  16  16  16
#     4  10  18  30  50  73 101 133 163 200 249 305
#     4  10  21  37  55  75 103 140 180 218 261 317
#     4   9  19  33  48  71 101 132 165 204 252 302
#     4   9  17  29  47  71  97 127 162 199 243 298
#     4  10  20  33  50  73 100 130 167 210 254 302
#     4  11  22  35  54  80 110 140 175 221 268 313
#
# _framework density 18.160307
#
# number of rings (size 3 to 8) (size 9 to 14) (size 15 to 20)
#    0.000    2.167    0.000    3.500    0.000    7.333 
#    0.000    0.000    0.000    1.000    0.000    4.667 
#    0.000    0.000    0.000    0.000    0.000    0.000 
#
# Total GULP energy -267729.824992 kJ/mol
# GULP energy per Si atom -5577.704687 kJ/mol
# Density = 1.811897 g / cm^3
# Si number density = 18.160307 Si / 1000 Ang^3
#
#
#
# Elastic Constant Matrix: (Units=GPa)
#
#
# Indices 1 2 3 4 5 6 
#
# 1 105.3272 61.6519 20.0174 0.0000 0.0000 0.0000
# 2 61.6519 130.8761 16.9683 0.0000 0.0000 0.0000
# 3 20.0174 16.9683 20.6390 0.0000 0.0000 0.0000
# 4 0.0000 0.0000 0.0000 23.7485 0.0000 0.0000
# 5 0.0000 0.0000 0.0000 0.0000 23.3437 0.0000
# 6 0.0000 0.0000 0.0000 0.0000 0.0000 30.3006
#
#
#
# Elastic Compliance Matrix: (Units=1/GPa)
#
#
# Indices 1 2 3 4 5 6 
#
# 1 0.014611 -0.005647 -0.009528 0.000000 0.000000 0.000000
# 2 -0.005647 0.010735 -0.003349 0.000000 0.000000 0.000000
# 3 -0.009528 -0.003349 0.060446 0.000000 0.000000 0.000000
# 4 0.000000 0.000000 0.000000 0.042108 0.000000 0.000000
# 5 0.000000 0.000000 0.000000 0.000000 0.042838 0.000000
# 6 0.000000 0.000000 0.000000 0.000000 0.000000 0.033003
#
#
# Mechanical properties :
#
#
# Convention : Reuss Voigt Hill
#
# Bulk Modulus (GPa) = 20.51520 50.45748 35.48634
# Shear Modulus (GPa) = 19.45255 26.02553 22.73904
#
# Velocity S-wave (km/s) = 3.27640 3.78974 3.54238
# Velocity P-wave (km/s) = 5.06304 6.85524 6.02614
#
# Compressibility (1/GPa) = 0.04874435
#
# Stress axis : x y z
#
# Youngs Moduli (GPa) = 68.44386 93.15094 16.54375
#
# Poissons Ratio (x) = 0.52605 0.15762
# Poissons Ratio (y) = 0.38652 0.05540
# Poissons Ratio (z) = 0.65210 0.31194
#
# Static dielectric constant tensor:
#      x y z
#    x 1.629530 0.000000 0.000000 
#    y 0.000000 1.616510 0.000000 
#    z 0.000000 0.000000 1.640300 
# 
# From -- ./inp_files/51304.got.cif
#   From: 2010.05.17/outbox.cif.g08.bks.cpg/sg63_26_cif.got.tgz:51304.got - 2010.06.03 15:47:04.
