data_PCOD9468363
_publ_section_title
;
Structure prediction by ZEFSAII (Michael W. Deem and Ramdas Pophale) SiO2 
 PCOD9468363
Probable space group: C M C M
;
_chemical_formula_sum "Si O2"
_cell_formula_units_Z 96
_cell_length_a 8.105094
_cell_length_b 21.326759
_cell_length_c 25.537625
_cell_angle_alpha 90.000000
_cell_angle_beta 90.000000
_cell_angle_gamma 90.000000
_cell_volume 4414.316037
_symmetry_space_group_name_H-M "C M C M"
_symmetry_group_IT_number 63
_symmetry_cell_setting 'orthorhombic'
loop_
_space_group_symop_operation_xyz
x,y,z
-x,-y,1/2+z
x,-y,-z
-x,y,1/2-z
-x,-y,-z
x,y,1/2-z
-x,y,z
x,-y,1/2+z
1/2+x,1/2+y,z
1/2-x,1/2-y,1/2+z
1/2+x,1/2-y,-z
1/2-x,1/2+y,1/2-z
1/2-x,1/2-y,-z
1/2+x,1/2+y,1/2-z
1/2-x,1/2+y,z
1/2+x,1/2-y,1/2+z
loop_
_atom_site_type_symbol
_atom_site_label
_atom_site_fract_x
_atom_site_fract_y
_atom_site_fract_z
Si Si1 0.186286 0.166367 0.498946
Si Si2 0.681155 0.049107 0.453621
Si Si3 0.693122 0.979016 0.343870
Si Si4 0.800581 0.787279 0.608690
Si Si5 0.300500 0.890147 0.692915
Si Si6 0.197055 0.348748 0.116482
O O1 0.186880 0.101250 0.466233
O O2 0.257541 0.210251 0.452354
O O3 0.273865 0.149894 0.553569
O O4 0.000000 0.184941 0.511118
O O5 0.500000 0.080831 0.451881
O O6 0.681386 0.000000 0.500000
O O7 0.698479 0.009551 0.401473
O O8 0.500000 0.971598 0.327929
O O9 0.765166 0.909217 0.352269
O O10 0.762569 0.037800 0.311346
O O11 0.751024 0.845204 0.645318
O O12 0.743947 0.720632 0.632372
O O13 0.000000 0.786591 0.605738
O O14 0.251862 0.864620 0.750000
O O15 0.500000 0.893630 0.690639
O O16 0.000000 0.351282 0.123605
#
# Coordination Sequence:
#
# PCOD9468363 Si02
#       6
#    16  16  16  16  16  16
#     4  11  21  31  47  79 116 147 179 218 262 313
#     4  10  17  29  50  74 101 143 185 214 255 310
#     4   9  17  32  55  79 102 133 178 225 265 306
#     4  10  22  37  54  79 112 147 180 217 264 319
#     4  10  21  38  61  83 101 129 175 228 275 321
#     4  10  20  36  55  77 109 148 185 216 256 318
#
# _framework density 21.747423999999999
#
# number of rings (size 3 to 8) (size 9 to 14) (size 15 to 20)
#    0.000    2.000    3.333    1.000    0.000    2.000 
#    0.000    1.667    0.000    3.000    0.000    0.000 
#    0.000    0.000    0.000    0.000    0.000    0.000 
#
# Total GULP energy -267428.296645 kJ/mol
# GULP energy per Si atom -5571.422847 kJ/mol
# Density = 2.169793 g / cm^3
# Si number density = 21.747424 Si / 1000 Ang^3
#
#
#
# Elastic Constant Matrix: (Units=GPa)
#
#
# Indices 1 2 3 4 5 6 
#
# 1 20.9331 14.9426 -3.1778 0.0000 0.0000 0.0000
# 2 14.9426 142.2034 20.3809 0.0000 0.0000 0.0000
# 3 -3.1778 20.3809 85.0696 0.0000 0.0000 0.0000
# 4 0.0000 0.0000 0.0000 23.7322 0.0000 0.0000
# 5 0.0000 0.0000 0.0000 0.0000 10.9026 0.0000
# 6 0.0000 0.0000 0.0000 0.0000 0.0000 20.0713
#
#
#
# Elastic Compliance Matrix: (Units=1/GPa)
#
#
# Indices 1 2 3 4 5 6 
#
# 1 0.052580 -0.006013 0.003405 0.000000 0.000000 0.000000
# 2 -0.006013 0.007970 -0.002134 0.000000 0.000000 0.000000
# 3 0.003405 -0.002134 0.012394 0.000000 0.000000 0.000000
# 4 0.000000 0.000000 0.000000 0.042137 0.000000 0.000000
# 5 0.000000 0.000000 0.000000 0.000000 0.091722 0.000000
# 6 0.000000 0.000000 0.000000 0.000000 0.000000 0.049822
#
#
# Mechanical properties :
#
#
# Convention : Reuss Voigt Hill
#
# Bulk Modulus (GPa) = 15.75820 34.72195 25.24007
# Shear Modulus (GPa) = 17.40569 25.34522 21.37546
#
# Velocity S-wave (km/s) = 2.83213 3.41755 3.13852
# Velocity P-wave (km/s) = 4.23749 5.61903 4.97644
#
# Compressibility (1/GPa) = 0.06345903
#
# Stress axis : x y z
#
# Youngs Moduli (GPa) = 19.01853 125.47238 80.68719
#
# Poissons Ratio (x) = 0.75447 -0.27472
# Poissons Ratio (y) = 0.11436 0.17219
# Poissons Ratio (z) = -0.06475 0.26776
#
# Static dielectric constant tensor:
#      x y z
#    x 1.810780 0.000000 0.000000 
#    y 0.000000 1.893060 0.000000 
#    z 0.000000 0.000000 1.808280 
# 
# From -- ./inp_files/66931.got.cif
#   From: 2010.05.17/outbox.cif.g08.bks.cpg/sg63_34_cif.got.tgz:66931.got - 2010.06.03 15:47:04.
