data_PCOD9468720
_publ_section_title
;
Structure prediction by ZEFSAII (Michael W. Deem and Ramdas Pophale) SiO2 
 PCOD9468720
Probable space group: C M C M
;
_chemical_formula_sum "Si O2"
_cell_formula_units_Z 112
_cell_length_a 14.025263
_cell_length_b 32.715835
_cell_length_c 15.859616
_cell_angle_alpha 90.000000
_cell_angle_beta 90.000000
_cell_angle_gamma 90.000000
_cell_volume 7277.156098
_symmetry_space_group_name_H-M "C M C M"
_symmetry_group_IT_number 63
_symmetry_cell_setting 'orthorhombic'
loop_
_space_group_symop_operation_xyz
x,y,z
-x,-y,1/2+z
x,-y,-z
-x,y,1/2-z
-x,-y,-z
x,y,1/2-z
-x,y,z
x,-y,1/2+z
1/2+x,1/2+y,z
1/2-x,1/2-y,1/2+z
1/2+x,1/2-y,-z
1/2-x,1/2+y,1/2-z
1/2-x,1/2-y,-z
1/2+x,1/2+y,1/2-z
1/2-x,1/2+y,z
1/2+x,1/2-y,1/2+z
loop_
_atom_site_type_symbol
_atom_site_label
_atom_site_fract_x
_atom_site_fract_y
_atom_site_fract_z
Si Si1 0.892274 0.851433 0.147559
Si Si2 0.385805 0.048293 0.506607
Si Si3 0.891379 0.316713 0.384832
Si Si4 0.292308 0.267773 0.349087
Si Si5 0.610404 0.188272 0.085442
Si Si6 0.709608 0.900961 0.153301
Si Si7 0.115741 0.399459 0.655808
O O1 0.892006 0.850335 0.250000
O O2 0.853473 0.807021 0.120175
O O3 0.814537 0.885578 0.125215
O O4 0.000000 0.858662 0.118885
O O5 0.500000 0.054988 0.515892
O O6 0.334389 0.067785 0.587132
O O7 0.354352 0.071299 0.420844
O O8 0.369296 0.000000 0.500000
O O9 0.817017 0.281533 0.359974
O O10 0.888665 0.321045 0.486090
O O11 0.853294 0.359428 0.348229
O O12 0.000000 0.308737 0.359313
O O13 0.312069 0.262060 0.250000
O O14 0.323961 0.226944 0.395564
O O15 0.500000 0.197690 0.109342
O O16 0.641127 0.147362 0.134076
O O17 0.712765 0.915940 0.250000
O O18 0.148507 0.410737 0.750000
O O19 0.000000 0.400766 0.656328
#
# Coordination Sequence:
#
# PCOD9468720 Si02
#       7
#    16  16  16  16  16  16  16
#     4   8  15  28  45  67  96 124 152 194 240 274
#     4  10  20  33  48  69  98 126 154 193 235 279
#     4  10  19  31  45  64  95 130 159 190 227 272
#     4  10  19  28  42  67  93 122 161 196 231 273
#     4  10  18  29  46  65  89 121 158 199 235 270
#     4  10  19  31  50  73  96 126 159 189 231 288
#     4   9  17  30  47  66  89 121 159 194 232 274
#
# _framework density 15.390628
#
# number of rings (size 3 to 8) (size 9 to 14) (size 15 to 20)
#    0.000    2.429    1.429    3.000    0.000    4.000 
#    0.000    1.429    0.000    0.429    0.000    0.000 
#    0.000    0.571    0.000    0.286    0.000    0.000 
#
# Total GULP energy -312141.800533 kJ/mol
# GULP energy per Si atom -5573.960724 kJ/mol
# Density = 1.535560 g / cm^3
# Si number density = 15.390628 Si / 1000 Ang^3
#
#
#
# Elastic Constant Matrix: (Units=GPa)
#
#
# Indices 1 2 3 4 5 6 
#
# 1 87.2709 46.2983 24.7506 0.0000 0.0000 0.0000
# 2 46.2983 82.6020 43.1789 0.0000 0.0000 0.0000
# 3 24.7506 43.1789 84.5379 0.0000 0.0000 0.0000
# 4 0.0000 0.0000 0.0000 8.9414 0.0000 0.0000
# 5 0.0000 0.0000 0.0000 0.0000 10.1230 0.0000
# 6 0.0000 0.0000 0.0000 0.0000 0.0000 17.0847
#
#
#
# Elastic Compliance Matrix: (Units=1/GPa)
#
#
# Indices 1 2 3 4 5 6 
#
# 1 0.016309 -0.009066 -0.000144 0.000000 0.000000 0.000000
# 2 -0.009066 0.021555 -0.008355 0.000000 0.000000 0.000000
# 3 -0.000144 -0.008355 0.016139 0.000000 0.000000 0.000000
# 4 0.000000 0.000000 0.000000 0.111840 0.000000 0.000000
# 5 0.000000 0.000000 0.000000 0.000000 0.098785 0.000000
# 6 0.000000 0.000000 0.000000 0.000000 0.000000 0.058532
#
#
# Mechanical properties :
#
#
# Convention : Reuss Voigt Hill
#
# Bulk Modulus (GPa) = 52.98835 53.65184 53.32010
# Shear Modulus (GPa) = 13.71435 16.57534 15.14485
#
# Velocity S-wave (km/s) = 2.98834 3.28529 3.14033
# Velocity P-wave (km/s) = 6.81254 7.02329 6.91872
#
# Compressibility (1/GPa) = 0.01887207
#
# Stress axis : x y z
#
# Youngs Moduli (GPa) = 61.31588 46.39246 61.96180
#
# Poissons Ratio (x) = 0.42058 0.00895
# Poissons Ratio (y) = 0.55587 0.51772
# Poissons Ratio (z) = 0.00886 0.38763
#
# Static dielectric constant tensor:
#      x y z
#    x 1.513870 0.000000 0.000000 
#    y 0.000000 1.492070 0.000000 
#    z 0.000000 0.000000 1.527960 
# 
# From -- ./inp_files/32736.got.cif
#   From: 2010.05.17/outbox.cif.g08.bks.cpg/sg63_17_cif.got.tgz:32736.got - 2010.06.03 15:47:04.
