data_PCOD9468688
_publ_section_title
;
Structure prediction by ZEFSAII (Michael W. Deem and Ramdas Pophale) SiO2 
 PCOD9468688
Probable space group: C M C M
;
_chemical_formula_sum "Si O2"
_cell_formula_units_Z 88
_cell_length_a 21.022531
_cell_length_b 31.359632
_cell_length_c 7.403927
_cell_angle_alpha 90.000000
_cell_angle_beta 90.000000
_cell_angle_gamma 90.000000
_cell_volume 4881.104295
_symmetry_space_group_name_H-M "C M C M"
_symmetry_group_IT_number 63
_symmetry_cell_setting 'orthorhombic'
loop_
_space_group_symop_operation_xyz
x,y,z
-x,-y,1/2+z
x,-y,-z
-x,y,1/2-z
-x,-y,-z
x,y,1/2-z
-x,y,z
x,-y,1/2+z
1/2+x,1/2+y,z
1/2-x,1/2-y,1/2+z
1/2+x,1/2-y,-z
1/2-x,1/2+y,1/2-z
1/2-x,1/2-y,-z
1/2+x,1/2+y,1/2-z
1/2-x,1/2+y,z
1/2+x,1/2-y,1/2+z
loop_
_atom_site_type_symbol
_atom_site_label
_atom_site_fract_x
_atom_site_fract_y
_atom_site_fract_z
Si Si1 0.000000 0.449130 0.465512
Si Si2 0.201826 0.367902 0.029222
Si Si3 0.859134 0.450068 0.034147
Si Si4 0.208314 0.207188 0.533357
Si Si5 0.431706 0.830590 0.464331
Si Si6 0.069161 0.770460 0.466966
O O1 0.000000 0.500000 0.500000
O O2 0.929830 0.436424 0.534342
O O3 0.000000 0.440695 0.250000
O O4 0.204564 0.366653 0.250000
O O5 0.195586 0.417345 0.973575
O O6 0.255728 0.335197 0.966485
O O7 0.134135 0.348890 0.967985
O O8 0.862975 0.445812 0.250000
O O9 0.848393 0.500000 0.000000
O O10 0.204415 0.204034 0.750000
O O11 0.250000 0.250000 0.500000
O O12 0.136086 0.211375 0.464163
O O13 0.432268 0.839217 0.250000
O O14 0.500000 0.846182 0.536287
O O15 0.429632 0.779894 0.492120
O O16 0.069164 0.775325 0.250000
O O17 0.000000 0.786764 0.532556
#
# Coordination Sequence:
#
# PCOD9468688 Si02
#       6
#     8  16  16  16  16  16
#     4   8  14  24  40  56  72  98 128 162 200 234
#     4   9  17  27  41  60  79 104 136 169 204 237
#     4   9  17  29  42  56  76 100 130 165 201 238
#     4  10  18  29  43  60  84 110 137 168 202 240
#     4   9  16  25  39  58  79 105 139 171 197 234
#     4   9  17  28  41  57  81 111 137 165 202 238
#
# _framework density 18.028708000000002
#
# number of rings (size 3 to 8) (size 9 to 14) (size 15 to 20)
#    0.000    2.909    1.818    0.000    1.273    0.000 
#    0.000    1.818    0.000    0.000    0.000    0.000 
#    0.000    0.727    0.000    0.545    0.000    1.091 
#
# Total GULP energy -245135.064556 kJ/mol
# GULP energy per Si atom -5571.251467 kJ/mol
# Density = 1.798767 g / cm^3
# Si number density = 18.028708 Si / 1000 Ang^3
#
#
#
# Elastic Constant Matrix: (Units=GPa)
#
#
# Indices 1 2 3 4 5 6 
#
# 1 148.9707 77.1099 6.3223 0.0000 0.0000 0.0000
# 2 77.1099 111.6595 -0.9809 0.0000 0.0000 0.0000
# 3 6.3223 -0.9809 62.7202 0.0000 0.0000 0.0000
# 4 0.0000 0.0000 0.0000 7.9963 0.0000 0.0000
# 5 0.0000 0.0000 0.0000 0.0000 3.7652 0.0000
# 6 0.0000 0.0000 0.0000 0.0000 0.0000 35.6619
#
#
#
# Elastic Compliance Matrix: (Units=1/GPa)
#
#
# Indices 1 2 3 4 5 6 
#
# 1 0.010533 -0.007284 -0.001176 0.000000 0.000000 0.000000
# 2 -0.007284 0.013995 0.000953 0.000000 0.000000 0.000000
# 3 -0.001176 0.000953 0.016077 0.000000 0.000000 0.000000
# 4 0.000000 0.000000 0.000000 0.125057 0.000000 0.000000
# 5 0.000000 0.000000 0.000000 0.000000 0.265592 0.000000
# 6 0.000000 0.000000 0.000000 0.000000 0.000000 0.028041
#
#
# Mechanical properties :
#
#
# Convention : Reuss Voigt Hill
#
# Bulk Modulus (GPa) = 39.07587 54.25032 46.66310
# Shear Modulus (GPa) = 10.35542 25.54462 17.95002
#
# Velocity S-wave (km/s) = 2.39923 3.76824 3.15879
# Velocity P-wave (km/s) = 5.42184 7.00637 6.26441
#
# Compressibility (1/GPa) = 0.02559124
#
# Stress axis : x y z
#
# Youngs Moduli (GPa) = 94.93887 71.45637 62.19976
#
# Poissons Ratio (x) = 0.52051 0.07313
# Poissons Ratio (y) = 0.69156 -0.05928
# Poissons Ratio (z) = 0.11162 -0.06811
#
# Static dielectric constant tensor:
#      x y z
#    x 1.653300 0.000000 0.000000 
#    y 0.000000 1.639200 0.000000 
#    z 0.000000 0.000000 1.682090 
# 
# From -- ./inp_files/8948.got.cif
#   From: 2010.05.17/outbox.cif.g08.bks.cpg/sg63_5_cif.got.tgz:8948.got - 2010.06.03 15:47:04.
