data_PCOD9468707
_publ_section_title
;
Structure prediction by ZEFSAII (Michael W. Deem and Ramdas Pophale) SiO2 
 PCOD9468707
Probable space group: C M C M
;
_chemical_formula_sum "Si O2"
_cell_formula_units_Z 96
_cell_length_a 7.639062
_cell_length_b 24.359388
_cell_length_c 27.150119
_cell_angle_alpha 90.000000
_cell_angle_beta 90.000000
_cell_angle_gamma 90.000000
_cell_volume 5052.172206
_symmetry_space_group_name_H-M "C M C M"
_symmetry_group_IT_number 63
_symmetry_cell_setting 'orthorhombic'
loop_
_space_group_symop_operation_xyz
x,y,z
-x,-y,1/2+z
x,-y,-z
-x,y,1/2-z
-x,-y,-z
x,y,1/2-z
-x,y,z
x,-y,1/2+z
1/2+x,1/2+y,z
1/2-x,1/2-y,1/2+z
1/2+x,1/2-y,-z
1/2-x,1/2+y,1/2-z
1/2-x,1/2-y,-z
1/2+x,1/2+y,1/2-z
1/2-x,1/2+y,z
1/2+x,1/2-y,1/2+z
loop_
_atom_site_type_symbol
_atom_site_label
_atom_site_fract_x
_atom_site_fract_y
_atom_site_fract_z
Si Si1 0.296935 0.066156 0.459062
Si Si2 0.787207 0.833670 0.893993
Si Si3 0.793973 0.603368 0.938369
Si Si4 0.197794 0.010069 0.870995
Si Si5 0.710345 0.773221 0.054430
Si Si6 0.785646 0.911996 0.806163
O O1 0.500000 0.047703 0.458897
O O2 0.284340 0.127472 0.437302
O O3 0.224384 0.069881 0.514189
O O4 0.200933 0.028707 0.419421
O O5 0.729392 0.772001 0.905835
O O6 0.733574 0.862815 0.843010
O O7 0.000000 0.835692 0.896164
O O8 0.776181 0.567232 0.889424
O O9 0.721131 0.665062 0.937436
O O10 0.000000 0.608383 0.949198
O O11 0.000000 0.021932 0.856121
O O12 0.276870 0.969878 0.829609
O O13 0.500000 0.775631 0.058775
O O14 0.750000 0.750000 0.000000
O O15 0.730437 0.904783 0.750000
O O16 0.000000 0.913524 0.807142
#
# Coordination Sequence:
#
# PCOD9468707 Si02
#       6
#    16  16  16  16  16  16
#     4  10  18  29  45  65  94 130 157 183 229 281
#     4   9  17  29  48  72  94 120 158 199 229 267
#     4  10  20  31  43  63  96 134 159 183 228 279
#     4  10  20  31  46  69  91 118 158 200 235 274
#     4  10  19  31  46  67  97 131 163 191 224 271
#     4   8  15  30  51  72  91 112 147 199 251 286
#
# _framework density 19.001728
#
# number of rings (size 3 to 8) (size 9 to 14) (size 15 to 20)
#    0.000    2.500    1.667    2.500    0.000    4.000 
#    0.000    0.000    0.000   13.500    0.000    2.333 
#    0.000    0.000    0.000    0.000    0.000    0.000 
#
# Total GULP energy -267585.541983 kJ/mol
# GULP energy per Si atom -5574.698791 kJ/mol
# Density = 1.895848 g / cm^3
# Si number density = 19.001728 Si / 1000 Ang^3
#
#
#
# Elastic Constant Matrix: (Units=GPa)
#
#
# Indices 1 2 3 4 5 6 
#
# 1 34.8562 -5.1882 -1.4417 0.0000 0.0000 0.0000
# 2 -5.1882 92.2435 38.7508 0.0000 0.0000 0.0000
# 3 -1.4417 38.7508 111.0277 0.0000 0.0000 0.0000
# 4 0.0000 0.0000 0.0000 17.7808 0.0000 0.0000
# 5 0.0000 0.0000 0.0000 0.0000 17.8388 0.0000
# 6 0.0000 0.0000 0.0000 0.0000 0.0000 16.4630
#
#
#
# Elastic Compliance Matrix: (Units=1/GPa)
#
#
# Indices 1 2 3 4 5 6 
#
# 1 0.028936 0.001722 -0.000225 0.000000 0.000000 0.000000
# 2 0.001722 0.012806 -0.004447 0.000000 0.000000 0.000000
# 3 -0.000225 -0.004447 0.010556 0.000000 0.000000 0.000000
# 4 0.000000 0.000000 0.000000 0.056240 0.000000 0.000000
# 5 0.000000 0.000000 0.000000 0.000000 0.056058 0.000000
# 6 0.000000 0.000000 0.000000 0.000000 0.000000 0.060742
#
#
# Mechanical properties :
#
#
# Convention : Reuss Voigt Hill
#
# Bulk Modulus (GPa) = 21.55282 33.59657 27.57469
# Shear Modulus (GPa) = 20.26711 24.15028 22.20870
#
# Velocity S-wave (km/s) = 3.26942 3.56891 3.42244
# Velocity P-wave (km/s) = 5.06155 5.89084 5.49187
#
# Compressibility (1/GPa) = 0.04639764
#
# Stress axis : x y z
#
# Youngs Moduli (GPa) = 34.55863 78.08865 94.73297
#
# Poissons Ratio (x) = -0.13448 0.02135
# Poissons Ratio (y) = -0.05952 0.42129
# Poissons Ratio (z) = 0.00779 0.34727
#
# Static dielectric constant tensor:
#      x y z
#    x 1.691610 0.000000 0.000000 
#    y 0.000000 1.704620 0.000000 
#    z 0.000000 0.000000 1.644190 
# 
# From -- ./inp_files/59971.got.cif
#   From: 2010.05.17/outbox.cif.g08.bks.cpg/sg63_30_cif.got.tgz:59971.got - 2010.06.03 15:47:04.
