data_PCOD9468206
_publ_section_title
;
Structure prediction by ZEFSAII (Michael W. Deem and Ramdas Pophale) SiO2 
 PCOD9468206
Probable space group: C M C M
;
_chemical_formula_sum "Si O2"
_cell_formula_units_Z 96
_cell_length_a 23.062205
_cell_length_b 28.396676
_cell_length_c 8.487904
_cell_angle_alpha 90.000000
_cell_angle_beta 90.000000
_cell_angle_gamma 90.000000
_cell_volume 5558.643138
_symmetry_space_group_name_H-M "C M C M"
_symmetry_group_IT_number 63
_symmetry_cell_setting 'orthorhombic'
loop_
_space_group_symop_operation_xyz
x,y,z
-x,-y,1/2+z
x,-y,-z
-x,y,1/2-z
-x,-y,-z
x,y,1/2-z
-x,y,z
x,-y,1/2+z
1/2+x,1/2+y,z
1/2-x,1/2-y,1/2+z
1/2+x,1/2-y,-z
1/2-x,1/2+y,1/2-z
1/2-x,1/2-y,-z
1/2+x,1/2+y,1/2-z
1/2-x,1/2+y,z
1/2+x,1/2-y,1/2+z
loop_
_atom_site_type_symbol
_atom_site_label
_atom_site_fract_x
_atom_site_fract_y
_atom_site_fract_z
Si Si1 0.383350 0.779029 0.058840
Si Si2 0.740619 0.551162 0.061994
Si Si3 0.500000 0.731760 0.937061
Si Si4 0.624214 0.598387 0.064083
Si Si5 0.804428 0.640517 0.935190
Si Si6 0.500000 0.624252 0.441926
Si Si7 0.803981 0.806827 0.564809
O O1 0.386553 0.777965 0.250000
O O2 0.360986 0.830649 0.009805
O O3 0.334140 0.741040 0.012774
O O4 0.443460 0.760529 0.991442
O O5 0.737029 0.550387 0.250000
O O6 0.676481 0.566403 0.998290
O O7 0.756466 0.500000 0.000000
O O8 0.785702 0.592037 0.016044
O O9 0.500000 0.726616 0.750000
O O10 0.500000 0.679240 0.010578
O O11 0.619711 0.586937 0.250000
O O12 0.559039 0.599313 0.999803
O O13 0.648383 0.651647 0.053163
O O14 0.809949 0.631836 0.750000
O O15 0.750590 0.675804 0.966271
O O16 0.500000 0.623307 0.250000
O O17 0.787514 0.803648 0.750000
#
# Coordination Sequence:
#
# PCOD9468206 Si02
#       7
#    16  16   8  16  16   8  16
#     4  10  20  35  51  69 101 143 178 202 245 309
#     4  10  20  36  54  75 100 129 168 214 269 318
#     4  12  24  32  46  75 106 139 179 221 253 279
#     4   8  15  27  49  72  93 130 175 210 246 297
#     4  10  20  32  51  78 102 130 167 211 259 307
#     4  10  16  32  53  67  95 141 183 209 247 309
#     4   9  16  29  48  71 101 138 172 204 247 299
#
# _framework density 17.270402000000001
#
# number of rings (size 3 to 8) (size 9 to 14) (size 15 to 20)
#    0.000    2.333    1.667    3.250    0.000    2.000 
#    0.000    1.250    0.000    0.000    0.000    0.583 
#    0.000    0.000    0.000    0.000    0.000    0.000 
#
# Total GULP energy -267584.465586 kJ/mol
# GULP energy per Si atom -5574.676366 kJ/mol
# Density = 1.723109 g / cm^3
# Si number density = 17.270402 Si / 1000 Ang^3
#
#
#
# Elastic Constant Matrix: (Units=GPa)
#
#
# Indices 1 2 3 4 5 6 
#
# 1 24.0271 31.1690 2.9966 0.0000 0.0000 0.0000
# 2 31.1690 103.4744 20.5705 0.0000 0.0000 0.0000
# 3 2.9966 20.5705 21.7556 0.0000 0.0000 0.0000
# 4 0.0000 0.0000 0.0000 14.9975 0.0000 0.0000
# 5 0.0000 0.0000 0.0000 0.0000 16.5837 0.0000
# 6 0.0000 0.0000 0.0000 0.0000 0.0000 7.2917
#
#
#
# Elastic Compliance Matrix: (Units=1/GPa)
#
#
# Indices 1 2 3 4 5 6 
#
# 1 0.071130 -0.023987 0.012883 0.000000 0.000000 0.000000
# 2 -0.023987 0.019991 -0.015598 0.000000 0.000000 0.000000
# 3 0.012883 -0.015598 0.058939 0.000000 0.000000 0.000000
# 4 0.000000 0.000000 0.000000 0.066678 0.000000 0.000000
# 5 0.000000 0.000000 0.000000 0.000000 0.060300 0.000000
# 6 0.000000 0.000000 0.000000 0.000000 0.000000 0.137143
#
#
# Mechanical properties :
#
#
# Convention : Reuss Voigt Hill
#
# Bulk Modulus (GPa) = 10.34596 28.74769 19.54683
# Shear Modulus (GPa) = 10.00396 14.07597 12.03996
#
# Velocity S-wave (km/s) = 2.40938 2.85798 2.64321
# Velocity P-wave (km/s) = 3.70725 5.25095 4.54512
#
# Compressibility (1/GPa) = 0.09665608
#
# Stress axis : x y z
#
# Youngs Moduli (GPa) = 14.05872 50.02355 16.96683
#
# Poissons Ratio (x) = 1.19993 -0.21859
# Poissons Ratio (y) = 0.33723 0.26464
# Poissons Ratio (z) = -0.18112 0.78025
#
# Static dielectric constant tensor:
#      x y z
#    x 1.604270 0.000000 0.000000 
#    y 0.000000 1.582220 0.000000 
#    z 0.000000 0.000000 1.589090 
# 
# From -- ./inp_files/10775.got.cif
#   From: 2010.05.17/outbox.cif.g08.bks.cpg/sg63_6_cif.got.tgz:10775.got - 2010.06.03 15:47:04.
