data_PCOD9468227
_publ_section_title
;
Structure prediction by ZEFSAII (Michael W. Deem and Ramdas Pophale) SiO2 
 PCOD9468227
Probable space group: C M C M
;
_chemical_formula_sum "Si O2"
_cell_formula_units_Z 80
_cell_length_a 17.914440
_cell_length_b 13.905291
_cell_length_c 14.398496
_cell_angle_alpha 90.000000
_cell_angle_beta 90.000000
_cell_angle_gamma 90.000000
_cell_volume 3586.744564
_symmetry_space_group_name_H-M "C M C M"
_symmetry_group_IT_number 63
_symmetry_cell_setting 'orthorhombic'
loop_
_space_group_symop_operation_xyz
x,y,z
-x,-y,1/2+z
x,-y,-z
-x,y,1/2-z
-x,-y,-z
x,y,1/2-z
-x,y,z
x,-y,1/2+z
1/2+x,1/2+y,z
1/2-x,1/2-y,1/2+z
1/2+x,1/2-y,-z
1/2-x,1/2+y,1/2-z
1/2-x,1/2-y,-z
1/2+x,1/2+y,1/2-z
1/2-x,1/2+y,z
1/2+x,1/2-y,1/2+z
loop_
_atom_site_type_symbol
_atom_site_label
_atom_site_fract_x
_atom_site_fract_y
_atom_site_fract_z
Si Si1 0.262578 0.053270 0.644525
Si Si2 0.875997 0.892433 0.018267
Si Si3 0.119962 0.276257 0.638886
Si Si4 0.714653 0.668428 0.352597
Si Si5 0.081467 0.505134 0.362971
O O1 0.254611 0.092700 0.750000
O O2 0.245573 0.940113 0.653757
O O3 0.347355 0.058257 0.608297
O O4 0.201727 0.085653 0.571491
O O5 0.914066 0.814121 0.084691
O O6 0.852636 0.837599 0.924386
O O7 0.908541 0.000000 0.000000
O O8 0.109266 0.266868 0.750000
O O9 0.209864 0.276051 0.620787
O O10 0.091124 0.382267 0.611515
O O11 0.689803 0.698509 0.250000
O O12 0.084718 0.503897 0.250000
O O13 0.000000 0.470640 0.392451
#
# Coordination Sequence:
#
# PCOD9468227 Si02
#       5
#    16  16  16  16  16
#     4   8  14  24  38  59  85 109 134 167 210 253
#     4  10  17  24  38  59  87 112 130 162 213 266
#     4   9  16  26  41  60  80 105 139 175 210 247
#     4   8  15  26  38  54  78 109 142 172 202 244
#     4   8  14  26  44  63  84 114 150 181 205 238
#
# _framework density 22.304348999999998
#
# number of rings (size 3 to 8) (size 9 to 14) (size 15 to 20)
#    0.000    3.400    0.000    3.600    0.000    0.800 
#    0.000    0.000    0.000   15.600    0.000    0.000 
#    0.000    2.400    0.000    0.000    0.000  153.000 
#
# Total GULP energy -222995.370231 kJ/mol
# GULP energy per Si atom -5574.884256 kJ/mol
# Density = 2.225358 g / cm^3
# Si number density = 22.304349 Si / 1000 Ang^3
#
#
#
# Elastic Constant Matrix: (Units=GPa)
#
#
# Indices 1 2 3 4 5 6 
#
# 1 68.9023 -10.7673 7.5022 0.0000 0.0000 0.0000
# 2 -10.7673 49.2728 11.9432 0.0000 0.0000 0.0000
# 3 7.5022 11.9432 64.5659 0.0000 0.0000 0.0000
# 4 0.0000 0.0000 0.0000 28.9296 0.0000 0.0000
# 5 0.0000 0.0000 0.0000 0.0000 24.9708 0.0000
# 6 0.0000 0.0000 0.0000 0.0000 0.0000 1.9016
#
#
#
# Elastic Compliance Matrix: (Units=1/GPa)
#
#
# Indices 1 2 3 4 5 6 
#
# 1 0.015410 0.003980 -0.002527 0.000000 0.000000 0.000000
# 2 0.003980 0.022276 -0.004583 0.000000 0.000000 0.000000
# 3 -0.002527 -0.004583 0.016629 0.000000 0.000000 0.000000
# 4 0.000000 0.000000 0.000000 0.034567 0.000000 0.000000
# 5 0.000000 0.000000 0.000000 0.000000 0.040047 0.000000
# 6 0.000000 0.000000 0.000000 0.000000 0.000000 0.525884
#
#
# Mechanical properties :
#
#
# Convention : Reuss Voigt Hill
#
# Bulk Modulus (GPa) = 20.80905 22.23302 21.52104
# Shear Modulus (GPa) = 7.38453 22.76460 15.07457
#
# Velocity S-wave (km/s) = 1.82154 3.19820 2.60255
# Velocity P-wave (km/s) = 3.71131 4.86083 4.32444
#
# Compressibility (1/GPa) = 0.04805601
#
# Stress axis : x y z
#
# Youngs Moduli (GPa) = 64.89140 44.89189 60.13454
#
# Poissons Ratio (x) = -0.17867 0.15195
# Poissons Ratio (y) = -0.25827 0.27559
# Poissons Ratio (z) = 0.16397 0.20574
#
# Static dielectric constant tensor:
#      x y z
#    x 1.830360 0.000000 0.000000 
#    y 0.000000 1.869540 0.000000 
#    z 0.000000 0.000000 1.920400 
# 
# From -- ./inp_files/33863.got.cif
#   From: 2010.05.17/outbox.cif.g08.bks.cpg/sg63_17_cif.got.tgz:33863.got - 2010.06.03 15:47:04.
