data_PCOD9468512
_publ_section_title
;
Structure prediction by ZEFSAII (Michael W. Deem and Ramdas Pophale) SiO2 
 PCOD9468512
Probable space group: C M C M
;
_chemical_formula_sum "Si O2"
_cell_formula_units_Z 88
_cell_length_a 11.443566
_cell_length_b 15.213128
_cell_length_c 19.743938
_cell_angle_alpha 90.000000
_cell_angle_beta 90.000000
_cell_angle_gamma 90.000000
_cell_volume 3437.270230
_symmetry_space_group_name_H-M "C M C M"
_symmetry_group_IT_number 63
_symmetry_cell_setting 'orthorhombic'
loop_
_space_group_symop_operation_xyz
x,y,z
-x,-y,1/2+z
x,-y,-z
-x,y,1/2-z
-x,-y,-z
x,y,1/2-z
-x,y,z
x,-y,1/2+z
1/2+x,1/2+y,z
1/2-x,1/2-y,1/2+z
1/2+x,1/2-y,-z
1/2-x,1/2+y,1/2-z
1/2-x,1/2-y,-z
1/2+x,1/2+y,1/2-z
1/2-x,1/2+y,z
1/2+x,1/2-y,1/2+z
loop_
_atom_site_type_symbol
_atom_site_label
_atom_site_fract_x
_atom_site_fract_y
_atom_site_fract_z
Si Si1 0.749634 0.383136 0.450853
Si Si2 0.751622 0.241832 0.172707
Si Si3 0.260766 0.038479 0.352885
Si Si4 0.500000 0.053575 0.679844
Si Si5 0.500000 0.602114 0.518800
Si Si6 0.000000 0.001777 0.351909
Si Si7 0.000000 0.347451 0.463272
Si Si8 0.000000 0.800831 0.631605
O O1 0.740355 0.317585 0.384723
O O2 0.751647 0.483052 0.422823
O O3 0.632437 0.365059 0.491663
O O4 0.871599 0.367711 0.490932
O O5 0.708978 0.260989 0.250000
O O6 0.716049 0.143215 0.148571
O O7 0.889424 0.226305 0.173852
O O8 0.378954 0.999654 0.321115
O O9 0.132431 0.012293 0.321357
O O10 0.500000 0.105570 0.750000
O O11 0.500000 0.103544 0.609238
O O12 0.500000 0.500000 0.500000
O O13 0.500000 0.586046 0.603163
O O14 0.000000 0.097446 0.387993
O O15 0.000000 0.248293 0.439549
#
# Coordination Sequence:
#
# PCOD9468512 Si02
#       8
#    16  16  16   8   8   8   8   8
#     4   9  19  34  52  76 104 135 172 217 258 302
#     4  10  18  28  47  74 105 142 177 207 248 304
#     4   9  18  31  47  68 100 137 169 206 251 296
#     4  10  18  27  41  65  98 135 172 205 241 292
#     4  10  20  37  59  76  96 133 175 217 273 325
#     4   8  16  33  52  69  91 126 169 212 254 300
#     4   8  16  30  50  69  93 128 161 201 254 296
#     4   8  15  27  46  71 100 132 169 209 242 287
#
# _framework density 25.601711000000002
#
# number of rings (size 3 to 8) (size 9 to 14) (size 15 to 20)
#    0.000    2.909    0.000    0.818    0.000    8.000 
#    0.000    3.182    0.000   26.182    0.000    0.000 
#    0.000    0.000    0.000    0.000    0.000    0.000 
#
# Total GULP energy -244986.927810 kJ/mol
# GULP energy per Si atom -5567.884723 kJ/mol
# Density = 2.554344 g / cm^3
# Si number density = 25.601711 Si / 1000 Ang^3
#
#
#
# Elastic Constant Matrix: (Units=GPa)
#
#
# Indices 1 2 3 4 5 6 
#
# 1 236.8431 42.1592 42.8822 0.0000 0.0000 0.0000
# 2 42.1592 92.4098 17.1367 0.0000 0.0000 0.0000
# 3 42.8822 17.1367 58.8125 0.0000 0.0000 0.0000
# 4 0.0000 0.0000 0.0000 11.9069 0.0000 0.0000
# 5 0.0000 0.0000 0.0000 0.0000 484.8648 0.0000
# 6 0.0000 0.0000 0.0000 0.0000 0.0000 35.7737
#
#
#
# Elastic Compliance Matrix: (Units=1/GPa)
#
#
# Indices 1 2 3 4 5 6 
#
# 1 0.005115 -0.001736 -0.003224 0.000000 0.000000 0.000000
# 2 -0.001736 0.012028 -0.002239 0.000000 0.000000 0.000000
# 3 -0.003224 -0.002239 0.020006 0.000000 0.000000 0.000000
# 4 0.000000 0.000000 0.000000 0.083985 0.000000 0.000000
# 5 0.000000 0.000000 0.000000 0.000000 0.002062 0.000000
# 6 0.000000 0.000000 0.000000 0.000000 0.000000 0.027954
#
#
# Mechanical properties :
#
#
# Convention : Reuss Voigt Hill
#
# Bulk Modulus (GPa) = 43.95184 65.82462 54.88823
# Shear Modulus (GPa) = 28.87976 125.56822 77.22399
#
# Velocity S-wave (km/s) = 3.36227 7.01094 5.49810
# Velocity P-wave (km/s) = 5.68137 9.55534 7.86074
#
# Compressibility (1/GPa) = 0.02275218
#
# Stress axis : x y z
#
# Youngs Moduli (GPa) = 195.50996 83.13605 49.98464
#
# Poissons Ratio (x) = 0.14430 0.16113
# Poissons Ratio (y) = 0.33934 0.11193
# Poissons Ratio (z) = 0.63026 0.18617
#
# Static dielectric constant tensor:
#      x y z
#    x 2.046200 0.000000 0.000000 
#    y 0.000000 2.099720 0.000000 
#    z 0.000000 0.000000 3.097920 
# 
# From -- ./inp_files/68256.got.cif
#   From: 2010.05.17/outbox.cif.g08.bks.cpg/sg63_35_cif.got.tgz:68256.got - 2010.06.03 15:47:04.
