data_PCOD9468354
_publ_section_title
;
Structure prediction by ZEFSAII (Michael W. Deem and Ramdas Pophale) SiO2 
 PCOD9468354
Probable space group: C M C M
;
_chemical_formula_sum "Si O2"
_cell_formula_units_Z 120
_cell_length_a 26.423578
_cell_length_b 13.132099
_cell_length_c 14.178172
_cell_angle_alpha 90.000000
_cell_angle_beta 90.000000
_cell_angle_gamma 90.000000
_cell_volume 4919.783748
_symmetry_space_group_name_H-M "C M C M"
_symmetry_group_IT_number 63
_symmetry_cell_setting 'orthorhombic'
loop_
_space_group_symop_operation_xyz
x,y,z
-x,-y,1/2+z
x,-y,-z
-x,y,1/2-z
-x,-y,-z
x,y,1/2-z
-x,y,z
x,-y,1/2+z
1/2+x,1/2+y,z
1/2-x,1/2-y,1/2+z
1/2+x,1/2-y,-z
1/2-x,1/2+y,1/2-z
1/2-x,1/2-y,-z
1/2+x,1/2+y,1/2-z
1/2-x,1/2+y,z
1/2+x,1/2-y,1/2+z
loop_
_atom_site_type_symbol
_atom_site_label
_atom_site_fract_x
_atom_site_fract_y
_atom_site_fract_z
Si Si1 0.557506 0.113453 0.932954
Si Si2 0.815528 0.850068 0.649262
Si Si3 0.933106 0.843901 0.641698
Si Si4 0.577396 0.500000 0.000000
Si Si5 0.134557 0.853776 0.142913
Si Si6 0.557808 0.834335 0.644676
Si Si7 0.330735 0.104015 0.856218
Si Si8 0.263620 0.635579 0.534998
O O1 0.500000 0.079671 0.902594
O O2 0.558612 0.234304 0.906122
O O3 0.611776 0.080861 0.888561
O O4 0.560837 0.103082 0.046984
O O5 0.792303 0.878254 0.750000
O O6 0.874235 0.874825 0.646197
O O7 0.820971 0.726768 0.646322
O O8 0.788824 0.903301 0.561806
O O9 0.949208 0.838891 0.750000
O O10 0.951952 0.930985 0.573756
O O11 0.609301 0.422398 0.063697
O O12 0.129522 0.892140 0.250000
O O13 0.102812 0.748139 0.139273
O O14 0.193323 0.847967 0.114205
O O15 0.561813 0.883350 0.750000
O O16 0.500000 0.789826 0.642006
O O17 0.324184 0.064863 0.750000
O O18 0.285166 0.077305 0.925834
O O19 0.250000 0.750000 0.500000
#
# Coordination Sequence:
#
# PCOD9468354 Si02
#       8
#    16  16  16   8  16  16  16  16
#     4  10  18  32  49  64  85 115 151 192 237 283
#     4   8  14  26  42  59  82 109 138 175 221 267
#     4  10  19  31  45  62  84 114 151 193 232 264
#     4  12  20  34  47  64  92 122 161 200 230 278
#     4  11  21  33  49  68  90 123 161 196 240 289
#     4   9  17  30  46  62  83 113 151 195 237 273
#     4   9  17  27  42  64  85 108 138 181 231 277
#     4  10  17  29  47  66  91 111 145 189 238 284
#
# _framework density 24.391314999999999
#
# number of rings (size 3 to 8) (size 9 to 14) (size 15 to 20)
#    0.000    2.267    2.667    3.600    0.000    1.600 
#    0.000    2.000    0.000    1.600    0.000    0.000 
#    0.000    0.000    0.000    0.600    0.000    0.800 
#
# Total GULP energy -334791.418309 kJ/mol
# GULP energy per Si atom -5579.856972 kJ/mol
# Density = 2.433580 g / cm^3
# Si number density = 24.391315 Si / 1000 Ang^3
#
#
#
# Elastic Constant Matrix: (Units=GPa)
#
#
# Indices 1 2 3 4 5 6 
#
# 1 188.3126 23.3635 86.0679 0.0000 0.0000 0.0000
# 2 23.3635 41.9202 18.5024 0.0000 0.0000 0.0000
# 3 86.0679 18.5024 208.4857 0.0000 0.0000 0.0000
# 4 0.0000 0.0000 0.0000 22.4997 0.0000 0.0000
# 5 0.0000 0.0000 0.0000 0.0000-2200.4076 0.0000
# 6 0.0000 0.0000 0.0000 0.0000 0.0000 54.6124
#
#
#
# Elastic Compliance Matrix: (Units=1/GPa)
#
#
# Indices 1 2 3 4 5 6 
#
# 1 0.006819 -0.002662 -0.002579 0.000000 0.000000 0.000000
# 2 -0.002662 0.025867 -0.001197 0.000000 0.000000 0.000000
# 3 -0.002579 -0.001197 0.005967 0.000000 0.000000 0.000000
# 4 0.000000 0.000000 0.000000 0.044445 0.000000 0.000000
# 5 0.000000 0.000000 0.000000 0.000000 -0.000454 0.000000
# 6 0.000000 0.000000 0.000000 0.000000 0.000000 0.018311
#
#
# Mechanical properties :
#
#
# Convention : Reuss Voigt Hill
#
# Bulk Modulus (GPa) = 38.79297 77.17625 57.98461
# Shear Modulus (GPa) = 40.84202 -403.94010 -181.54904
#
# Velocity S-wave (km/s) = 4.09644 -12.88284 -8.63675
# Velocity P-wave (km/s) = 6.18978 13.76883 8.69676
#
# Compressibility (1/GPa) = 0.02577786
#
# Stress axis : x y z
#
# Youngs Moduli (GPa) = 146.64230 38.65961 167.57968
#
# Poissons Ratio (x) = 0.10293 0.43217
# Poissons Ratio (y) = 0.39042 0.20051
# Poissons Ratio (z) = 0.37818 0.04626
#
# Static dielectric constant tensor:
#      x y z
#    x 1.946970 0.000000 0.000000 
#    y 0.000000 1.787580 0.000000 
#    z 0.000000 0.000000 1.970430 
# 
# From -- ./inp_files/37258.got.cif
#   From: 2010.05.17/outbox.cif.g08.bks.cpg/sg63_19_cif.got.tgz:37258.got - 2010.06.03 15:47:04.
