data_PCOD9468892
_publ_section_title
;
Structure prediction by ZEFSAII (Michael W. Deem and Ramdas Pophale) SiO2 
 PCOD9468892
Probable space group: C M C M
;
_chemical_formula_sum "Si O2"
_cell_formula_units_Z 116
_cell_length_a 25.914037
_cell_length_b 13.409889
_cell_length_c 17.746254
_cell_angle_alpha 90.000000
_cell_angle_beta 90.000000
_cell_angle_gamma 90.000000
_cell_volume 6166.900634
_symmetry_space_group_name_H-M "C M C M"
_symmetry_group_IT_number 63
_symmetry_cell_setting 'orthorhombic'
loop_
_space_group_symop_operation_xyz
x,y,z
-x,-y,1/2+z
x,-y,-z
-x,y,1/2-z
-x,-y,-z
x,y,1/2-z
-x,y,z
x,-y,1/2+z
1/2+x,1/2+y,z
1/2-x,1/2-y,1/2+z
1/2+x,1/2-y,-z
1/2-x,1/2+y,1/2-z
1/2-x,1/2-y,-z
1/2+x,1/2+y,1/2-z
1/2-x,1/2+y,z
1/2+x,1/2-y,1/2+z
loop_
_atom_site_type_symbol
_atom_site_label
_atom_site_fract_x
_atom_site_fract_y
_atom_site_fract_z
Si Si1 0.749962 0.946475 0.578179
Si Si2 0.767726 0.865614 0.337893
Si Si3 0.438127 0.476114 0.413827
Si Si4 0.662374 0.811471 0.607824
Si Si5 0.000000 0.223475 0.250000
Si Si6 0.899039 0.165404 0.168927
Si Si7 0.560025 0.261927 0.160211
Si Si8 0.816359 0.253162 0.436314
O O1 0.699263 0.906307 0.621369
O O2 0.783956 0.849703 0.558336
O O3 0.736392 0.000000 0.500000
O O4 0.780360 0.025713 0.629076
O O5 0.755402 0.870244 0.250000
O O6 0.812426 0.784469 0.351285
O O7 0.719509 0.826604 0.387688
O O8 0.422970 0.500000 0.500000
O O9 0.500000 0.492662 0.407524
O O10 0.410017 0.554435 0.360258
O O11 0.429197 0.363437 0.386585
O O12 0.603357 0.816153 0.633761
O O13 0.669300 0.791783 0.518662
O O14 0.045766 0.214261 0.313875
O O15 0.870926 0.161939 0.250000
O O16 0.867194 0.227026 0.109412
O O17 0.565114 0.280890 0.250000
O O18 0.500000 0.233830 0.146740
#
# Coordination Sequence:
#
# PCOD9468892 Si02
#       8
#    16  16  16  16   4  16  16  16
#     4  11  21  41  63  85 119 160 192 241 309 355
#     4  11  23  39  60  92 121 151 197 244 293 364
#     4  10  18  30  48  73 108 149 195 235 284 349
#     4  11  22  40  63  87 120 158 196 248 300 359
#     4   8  20  36  50  76 116 162 196 240 288 356
#     4  10  19  33  51  76 112 156 192 233 288 344
#     4  10  22  37  55  82 117 157 202 254 301 352
#     4  11  22  36  61  88 121 154 195 245 292 355
#
# _framework density 18.810096999999999
#
# number of rings (size 3 to 8) (size 9 to 14) (size 15 to 20)
#    0.414    1.103    3.448    2.897    1.931    4.414 
#    1.241    0.000    0.000    0.414    1.793    0.000 
#    0.000    0.000    0.000    0.000    0.000    0.000 
#
# Total GULP energy -323215.601249 kJ/mol
# GULP energy per Si atom -5572.682780 kJ/mol
# Density = 1.876728 g / cm^3
# Si number density = 18.810097 Si / 1000 Ang^3
#
#
#
# Elastic Constant Matrix: (Units=GPa)
#
#
# Indices 1 2 3 4 5 6 
#
# 1 87.2580 1.9682 14.5995 0.0000 0.0000 0.0000
# 2 1.9682 28.6844 17.8271 0.0000 0.0000 0.0000
# 3 14.5995 17.8271 84.0696 0.0000 0.0000 0.0000
# 4 0.0000 0.0000 0.0000 13.7034 0.0000 0.0000
# 5 0.0000 0.0000 0.0000 0.0000 37.5527 0.0000
# 6 0.0000 0.0000 0.0000 0.0000 0.0000 6.1922
#
#
#
# Elastic Compliance Matrix: (Units=1/GPa)
#
#
# Indices 1 2 3 4 5 6 
#
# 1 0.011810 0.000535 -0.002164 0.000000 0.000000 0.000000
# 2 0.000535 0.040178 -0.008613 0.000000 0.000000 0.000000
# 3 -0.002164 -0.008613 0.014097 0.000000 0.000000 0.000000
# 4 0.000000 0.000000 0.000000 0.072975 0.000000 0.000000
# 5 0.000000 0.000000 0.000000 0.000000 0.026629 0.000000
# 6 0.000000 0.000000 0.000000 0.000000 0.000000 0.161492
#
#
# Mechanical properties :
#
#
# Convention : Reuss Voigt Hill
#
# Bulk Modulus (GPa) = 21.92937 29.86684 25.89810
# Shear Modulus (GPa) = 13.77917 22.53082 18.15500
#
# Velocity S-wave (km/s) = 2.70949 3.46469 3.11009
# Velocity P-wave (km/s) = 4.63379 5.64960 5.16672
#
# Compressibility (1/GPa) = 0.04560095
#
# Stress axis : x y z
#
# Youngs Moduli (GPa) = 84.67164 24.88915 70.93651
#
# Poissons Ratio (x) = -0.01331 0.15353
# Poissons Ratio (y) = -0.04528 0.61095
# Poissons Ratio (z) = 0.18326 0.21436
#
# Static dielectric constant tensor:
#      x y z
#    x 1.667860 0.000000 0.000000 
#    y 0.000000 1.660650 0.000000 
#    z 0.000000 0.000000 1.660670 
# 
# From -- ./inp_files/49112.got.cif
#   From: 2010.05.17/outbox.cif.g08.bks.cpg/sg63_25_cif.got.tgz:49112.got - 2010.06.03 15:47:04.
