data_PCOD9468114
_publ_section_title
;
Structure prediction by ZEFSAII (Michael W. Deem and Ramdas Pophale) SiO2 
 PCOD9468114
Probable space group: C M C M
;
_chemical_formula_sum "Si O2"
_cell_formula_units_Z 84
_cell_length_a 23.288017
_cell_length_b 6.916969
_cell_length_c 22.982005
_cell_angle_alpha 90.000000
_cell_angle_beta 90.000000
_cell_angle_gamma 90.000000
_cell_volume 3701.998629
_symmetry_space_group_name_H-M "C M C M"
_symmetry_group_IT_number 63
_symmetry_cell_setting 'orthorhombic'
loop_
_space_group_symop_operation_xyz
x,y,z
-x,-y,1/2+z
x,-y,-z
-x,y,1/2-z
-x,-y,-z
x,y,1/2-z
-x,y,z
x,-y,1/2+z
1/2+x,1/2+y,z
1/2-x,1/2-y,1/2+z
1/2+x,1/2-y,-z
1/2-x,1/2+y,1/2-z
1/2-x,1/2-y,-z
1/2+x,1/2+y,1/2-z
1/2-x,1/2+y,z
1/2+x,1/2-y,1/2+z
loop_
_atom_site_type_symbol
_atom_site_label
_atom_site_fract_x
_atom_site_fract_y
_atom_site_fract_z
Si Si1 0.086896 0.877430 0.358682
Si Si2 0.000000 0.185674 0.750000
Si Si3 0.431544 0.286235 0.012845
Si Si4 0.669711 0.063811 0.815760
Si Si5 0.294376 0.509028 0.816129
Si Si6 0.066702 0.333286 0.109373
O O1 0.049960 0.823635 0.302099
O O2 0.075566 0.762045 0.418485
O O3 0.155097 0.870910 0.345796
O O4 0.070309 0.103717 0.373163
O O5 0.500000 0.291689 0.003411
O O6 0.406836 0.500000 0.000000
O O7 0.413043 0.156866 0.957977
O O8 0.662514 0.990803 0.750000
O O9 0.680874 0.294251 0.812931
O O10 0.730456 0.994130 0.842085
O O11 0.610548 0.052140 0.850058
O O12 0.285665 0.581008 0.750000
O O13 0.000000 0.390323 0.116307
#
# Coordination Sequence:
#
# PCOD9468114 Si02
#       6
#    16   4  16  16  16  16
#     4  10  16  23  39  63  92 110 140 182 227 261
#     4  12  16  20  38  68  92 110 142 188 230 258
#     4   8  13  23  35  55  86 117 136 172 227 269
#     4   9  18  29  45  65  89 119 149 181 222 265
#     4   9  17  29  42  64  89 120 147 177 220 267
#     4   9  16  25  41  63  86 110 145 185 224 258
#
# _framework density 22.690446999999999
#
# number of rings (size 3 to 8) (size 9 to 14) (size 15 to 20)
#    0.000    2.857    2.857    1.143    1.333    0.381 
#    0.000    0.952    0.000    0.000    2.476    0.000 
#    0.000    3.048    0.000    0.000    0.000    0.000 
#
# Total GULP energy -233929.681895 kJ/mol
# GULP energy per Si atom -5569.754331 kJ/mol
# Density = 2.263880 g / cm^3
# Si number density = 22.690447 Si / 1000 Ang^3
#
#
#
# Elastic Constant Matrix: (Units=GPa)
#
#
# Indices 1 2 3 4 5 6 
#
# 1 173.6390 27.5761 76.7998 0.0000 0.0000 0.0000
# 2 27.5761 59.2136 32.0935 0.0000 0.0000 0.0000
# 3 76.7998 32.0935 166.8035 0.0000 0.0000 0.0000
# 4 0.0000 0.0000 0.0000 29.6795 0.0000 0.0000
# 5 0.0000 0.0000 0.0000 0.0000 30.9732 0.0000
# 6 0.0000 0.0000 0.0000 0.0000 0.0000 31.7312
#
#
#
# Elastic Compliance Matrix: (Units=1/GPa)
#
#
# Indices 1 2 3 4 5 6 
#
# 1 0.007397 -0.001785 -0.003062 0.000000 0.000000 0.000000
# 2 -0.001785 0.019285 -0.002889 0.000000 0.000000 0.000000
# 3 -0.003062 -0.002889 0.007961 0.000000 0.000000 0.000000
# 4 0.000000 0.000000 0.000000 0.033693 0.000000 0.000000
# 5 0.000000 0.000000 0.000000 0.000000 0.032286 0.000000
# 6 0.000000 0.000000 0.000000 0.000000 0.000000 0.031515
#
#
# Mechanical properties :
#
#
# Convention : Reuss Voigt Hill
#
# Bulk Modulus (GPa) = 52.16258 74.73277 63.44768
# Shear Modulus (GPa) = 32.46774 36.02254 34.24514
#
# Velocity S-wave (km/s) = 3.78683 3.98875 3.88910
# Velocity P-wave (km/s) = 6.49298 7.36347 6.94188
#
# Compressibility (1/GPa) = 0.01917083
#
# Stress axis : x y z
#
# Youngs Moduli (GPa) = 135.18990 51.85393 125.61572
#
# Poissons Ratio (x) = 0.09256 0.38467
# Poissons Ratio (y) = 0.24132 0.36285
# Poissons Ratio (z) = 0.41399 0.14978
#
# Static dielectric constant tensor:
#      x y z
#    x 1.833360 0.000000 0.000000 
#    y 0.000000 1.990380 0.000000 
#    z 0.000000 0.000000 1.828440 
# 
# From -- ./inp_files/56468.got.cif
#   From: 2010.05.17/outbox.cif.g08.bks.cpg/sg63_29_cif.got.tgz:56468.got - 2010.06.03 15:47:04.
