data_PCOD9468337
_publ_section_title
;
Structure prediction by ZEFSAII (Michael W. Deem and Ramdas Pophale) SiO2 
 PCOD9468337
Probable space group: C M C M
;
_chemical_formula_sum "Si O2"
_cell_formula_units_Z 80
_cell_length_a 20.996846
_cell_length_b 7.476398
_cell_length_c 19.947934
_cell_angle_alpha 90.000000
_cell_angle_beta 90.000000
_cell_angle_gamma 90.000000
_cell_volume 3131.442188
_symmetry_space_group_name_H-M "C M C M"
_symmetry_group_IT_number 63
_symmetry_cell_setting 'orthorhombic'
loop_
_space_group_symop_operation_xyz
x,y,z
-x,-y,1/2+z
x,-y,-z
-x,y,1/2-z
-x,-y,-z
x,y,1/2-z
-x,y,z
x,-y,1/2+z
1/2+x,1/2+y,z
1/2-x,1/2-y,1/2+z
1/2+x,1/2-y,-z
1/2-x,1/2+y,1/2-z
1/2-x,1/2-y,-z
1/2+x,1/2+y,1/2-z
1/2-x,1/2+y,z
1/2+x,1/2-y,1/2+z
loop_
_atom_site_type_symbol
_atom_site_label
_atom_site_fract_x
_atom_site_fract_y
_atom_site_fract_z
Si Si1 0.140917 0.647853 0.250000
Si Si2 0.333853 0.872071 0.059624
Si Si3 0.725245 0.510356 0.250000
Si Si4 0.195781 0.992277 0.598573
Si Si5 0.927617 0.159107 0.636060
Si Si6 0.071783 0.738352 0.826211
O O1 0.197983 0.503326 0.250000
O O2 0.190736 0.818018 0.250000
O O3 0.093755 0.689624 0.188327
O O4 0.319371 0.664366 0.046592
O O5 0.384976 0.851802 0.118205
O O6 0.266070 0.940664 0.085210
O O7 0.355240 0.000000 0.000000
O O8 0.702530 0.582491 0.323325
O O9 0.137954 0.133632 0.594512
O O10 0.930017 0.956386 0.667042
O O11 0.000000 0.190357 0.609701
O O12 0.088540 0.692919 0.750000
O O13 0.000000 0.678916 0.838035
#
# Coordination Sequence:
#
# PCOD9468337 Si02
#       6
#     8  16   8  16  16  16
#     4  10  17  28  48  78 117 140 172 232 293 340
#     4  11  23  37  57  85 120 155 187 234 297 357
#     4  10  20  32  52  86 106 142 188 236 286 332
#     4  10  21  35  57  82 115 147 193 242 289 340
#     4   9  16  29  51  80 109 142 189 238 275 326
#     4   9  18  34  58  86 114 145 192 245 282 327
#
# _framework density 25.547333999999999
#
# number of rings (size 3 to 8) (size 9 to 14) (size 15 to 20)
#    0.000    2.200    1.000    3.300    5.600    0.400 
#    0.000    0.000    0.000    6.600    0.000   11.200 
#    0.000    0.000    0.000    0.000    0.000    0.000 
#
# Total GULP energy -223410.775998 kJ/mol
# GULP energy per Si atom -5585.269400 kJ/mol
# Density = 2.548919 g / cm^3
# Si number density = 25.547334 Si / 1000 Ang^3
#
#
#
# Elastic Constant Matrix: (Units=GPa)
#
#
# Indices 1 2 3 4 5 6 
#
# 1 194.9928 25.5136 65.4005 0.0000 0.0000 0.0000
# 2 25.5136 62.7972 28.8896 0.0000 0.0000 0.0000
# 3 65.4005 28.8896 106.4278 0.0000 0.0000 0.0000
# 4 0.0000 0.0000 0.0000 36.1503 0.0000 0.0000
# 5 0.0000 0.0000 0.0000 0.0000 22.2089 0.0000
# 6 0.0000 0.0000 0.0000 0.0000 0.0000 34.5347
#
#
#
# Elastic Compliance Matrix: (Units=1/GPa)
#
#
# Indices 1 2 3 4 5 6 
#
# 1 0.006506 -0.000919 -0.003748 0.000000 0.000000 0.000000
# 2 -0.000919 0.018326 -0.004410 0.000000 0.000000 0.000000
# 3 -0.003748 -0.004410 0.012897 0.000000 0.000000 0.000000
# 4 0.000000 0.000000 0.000000 0.027662 0.000000 0.000000
# 5 0.000000 0.000000 0.000000 0.000000 0.045027 0.000000
# 6 0.000000 0.000000 0.000000 0.000000 0.000000 0.028956
#
#
# Mechanical properties :
#
#
# Convention : Reuss Voigt Hill
#
# Bulk Modulus (GPa) = 51.08764 67.09171 59.08968
# Shear Modulus (GPa) = 30.47780 34.87306 32.67543
#
# Velocity S-wave (km/s) = 3.45772 3.69865 3.58021
# Velocity P-wave (km/s) = 5.99848 6.67523 6.34589
#
# Compressibility (1/GPa) = 0.01957420
#
# Stress axis : x y z
#
# Youngs Moduli (GPa) = 153.70783 54.56612 77.53972
#
# Poissons Ratio (x) = 0.05013 0.29066
# Poissons Ratio (y) = 0.14122 0.34196
# Poissons Ratio (z) = 0.57617 0.24064
#
# Static dielectric constant tensor:
#      x y z
#    x 2.061830 0.000000 0.000000 
#    y 0.000000 2.168970 0.000000 
#    z 0.000000 0.000000 2.245850 
# 
# From -- ./inp_files/64294.got.cif
#   From: 2010.05.17/outbox.cif.g08.bks.cpg/sg63_33_cif.got.tgz:64294.got - 2010.06.03 15:47:04.
