data_PCOD9468627
_publ_section_title
;
Structure prediction by ZEFSAII (Michael W. Deem and Ramdas Pophale) SiO2 
 PCOD9468627
Probable space group: C M C M
;
_chemical_formula_sum "Si O2"
_cell_formula_units_Z 80
_cell_length_a 29.009919
_cell_length_b 8.311415
_cell_length_c 14.137472
_cell_angle_alpha 90.000000
_cell_angle_beta 90.000000
_cell_angle_gamma 90.000000
_cell_volume 3408.735015
_symmetry_space_group_name_H-M "C M C M"
_symmetry_group_IT_number 63
_symmetry_cell_setting 'orthorhombic'
loop_
_space_group_symop_operation_xyz
x,y,z
-x,-y,1/2+z
x,-y,-z
-x,y,1/2-z
-x,-y,-z
x,y,1/2-z
-x,y,z
x,-y,1/2+z
1/2+x,1/2+y,z
1/2-x,1/2-y,1/2+z
1/2+x,1/2-y,-z
1/2-x,1/2+y,1/2-z
1/2-x,1/2-y,-z
1/2+x,1/2+y,1/2-z
1/2-x,1/2+y,z
1/2+x,1/2-y,1/2+z
loop_
_atom_site_type_symbol
_atom_site_label
_atom_site_fract_x
_atom_site_fract_y
_atom_site_fract_z
Si Si1 0.554707 0.237990 0.864147
Si Si2 0.280726 0.634933 0.430363
Si Si3 0.693264 0.964532 0.111016
Si Si4 0.597154 0.913675 0.643763
Si Si5 0.445978 0.410129 0.134534
O O1 0.561841 0.240086 0.750000
O O2 0.500000 0.224790 0.880309
O O3 0.579141 0.078671 0.901651
O O4 0.569692 0.413864 0.899139
O O5 0.302889 0.500000 0.500000
O O6 0.250000 0.750000 0.500000
O O7 0.243759 0.536988 0.367208
O O8 0.190624 0.728737 0.624593
O O9 0.651565 0.063766 0.152976
O O10 0.686953 0.000000 0.000000
O O11 0.576416 0.910881 0.750000
O O12 0.582177 0.744468 0.600983
O O13 0.443335 0.416619 0.250000
O O14 0.500000 0.389229 0.110722
#
# Coordination Sequence:
#
# PCOD9468627 Si02
#       5
#    16  16  16  16  16
#     4   8  14  26  43  64  91 124 159 186 216 267
#     4   7  13  29  50  64  79 112 152 187 213 262
#     4   9  17  32  49  68  89 115 157 191 225 272
#     4  10  18  28  45  73  99 118 146 193 237 269
#     4   8  14  26  44  65  92 127 159 185 218 264
#
# _framework density 23.469116
#
# number of rings (size 3 to 8) (size 9 to 14) (size 15 to 20)
#    0.000    4.000    0.000    1.800    0.000    2.400 
#   10.800    1.000    0.000    2.400    0.000    2.800 
#    0.000    0.000    0.000    0.000    0.000    0.000 
#
# Total GULP energy -222842.819201 kJ/mol
# GULP energy per Si atom -5571.070480 kJ/mol
# Density = 2.341570 g / cm^3
# Si number density = 23.469116 Si / 1000 Ang^3
#
#
#
# Elastic Constant Matrix: (Units=GPa)
#
#
# Indices 1 2 3 4 5 6 
#
# 1 50.4690 78.6732 5.1992 0.0000 0.0000 0.0000
# 2 78.6732 219.1746 22.6336 0.0000 0.0000 0.0000
# 3 5.1992 22.6336 65.1609 0.0000 0.0000 0.0000
# 4 0.0000 0.0000 0.0000 15.9698 0.0000 0.0000
# 5 0.0000 0.0000 0.0000 0.0000 12.4620 0.0000
# 6 0.0000 0.0000 0.0000 0.0000 0.0000 -33.5531
#
#
#
# Elastic Compliance Matrix: (Units=1/GPa)
#
#
# Indices 1 2 3 4 5 6 
#
# 1 0.045263 -0.016465 0.002108 0.000000 0.000000 0.000000
# 2 -0.016465 0.010722 -0.002410 0.000000 0.000000 0.000000
# 3 0.002108 -0.002410 0.016016 0.000000 0.000000 0.000000
# 4 0.000000 0.000000 0.000000 0.062618 0.000000 0.000000
# 5 0.000000 0.000000 0.000000 0.000000 0.080244 0.000000
# 6 0.000000 0.000000 0.000000 0.000000 0.000000 -0.029804
#
#
# Mechanical properties :
#
#
# Convention : Reuss Voigt Hill
#
# Bulk Modulus (GPa) = 25.99768 60.86850 43.43309
# Shear Modulus (GPa) = 21.60604 14.19566 17.90085
#
# Velocity S-wave (km/s) = 3.03746 2.46207 2.76477
# Velocity P-wave (km/s) = 4.83766 5.83732 5.36084
#
# Compressibility (1/GPa) = 0.03846496
#
# Stress axis : x y z
#
# Youngs Moduli (GPa) = 22.09288 93.26923 62.43871
#
# Poissons Ratio (x) = 1.53568 -0.13159
# Poissons Ratio (y) = 0.36376 0.15050
# Poissons Ratio (z) = -0.04656 0.22482
#
# Static dielectric constant tensor:
#      x y z
#    x 1.918230 0.000000 0.000000 
#    y 0.000000 1.946120 0.000000 
#    z 0.000000 0.000000 2.007400 
# 
# From -- ./inp_files/65753.got.cif
#   From: 2010.05.17/outbox.cif.g08.bks.cpg/sg63_33_cif.got.tgz:65753.got - 2010.06.03 15:47:04.
