data_PCOD9468289
_publ_section_title
;
Structure prediction by ZEFSAII (Michael W. Deem and Ramdas Pophale) SiO2 
 PCOD9468289
Probable space group: C M C M
;
_chemical_formula_sum "Si O2"
_cell_formula_units_Z 112
_cell_length_a 12.843256
_cell_length_b 29.323795
_cell_length_c 19.939669
_cell_angle_alpha 90.000000
_cell_angle_beta 90.000000
_cell_angle_gamma 90.000000
_cell_volume 7509.538682
_symmetry_space_group_name_H-M "C M C M"
_symmetry_group_IT_number 63
_symmetry_cell_setting 'orthorhombic'
loop_
_space_group_symop_operation_xyz
x,y,z
-x,-y,1/2+z
x,-y,-z
-x,y,1/2-z
-x,-y,-z
x,y,1/2-z
-x,y,z
x,-y,1/2+z
1/2+x,1/2+y,z
1/2-x,1/2-y,1/2+z
1/2+x,1/2-y,-z
1/2-x,1/2+y,1/2-z
1/2-x,1/2-y,-z
1/2+x,1/2+y,1/2-z
1/2-x,1/2+y,z
1/2+x,1/2-y,1/2+z
loop_
_atom_site_type_symbol
_atom_site_label
_atom_site_fract_x
_atom_site_fract_y
_atom_site_fract_z
Si Si1 0.125233 0.060784 0.170790
Si Si2 0.260372 0.288983 0.097254
Si Si3 0.623554 0.623745 0.563948
Si Si4 0.623152 0.795670 0.964246
Si Si5 0.126167 0.979951 0.428309
Si Si6 0.618440 0.727947 0.325589
Si Si7 0.302668 0.354658 0.586532
O O1 0.145574 0.058316 0.250000
O O2 0.183793 0.102428 0.134998
O O3 0.000000 0.068169 0.161911
O O4 0.153233 0.014446 0.131363
O O5 0.315454 0.337388 0.104197
O O6 0.344240 0.251609 0.071863
O O7 0.200256 0.267760 0.159803
O O8 0.174369 0.292691 0.038001
O O9 0.500000 0.627199 0.575088
O O10 0.659438 0.572344 0.579848
O O11 0.646737 0.633362 0.485236
O O12 0.500000 0.801497 0.965822
O O13 0.686140 0.836337 0.927440
O O14 0.000000 0.978722 0.431293
O O15 0.161969 0.000000 0.500000
O O16 0.630940 0.709850 0.250000
O O17 0.500000 0.744125 0.332978
O O18 0.639597 0.688053 0.378919
#
# Coordination Sequence:
#
# PCOD9468289 Si02
#       7
#    16  16  16  16  16  16  16
#     4  10  18  28  44  68  97 123 148 185 233 282
#     4   9  18  28  44  66  87 119 152 184 219 264
#     4  10  17  27  46  69  93 120 151 186 227 272
#     4   9  17  29  44  65  93 117 146 188 226 263
#     4   9  16  27  43  65  94 123 149 183 227 276
#     4  10  19  30  44  63  90 119 148 188 232 273
#     4  10  18  27  45  70  91 117 150 185 231 278
#
# _framework density 14.914364000000001
#
# number of rings (size 3 to 8) (size 9 to 14) (size 15 to 20)
#    0.000    2.429    1.429    3.429    0.000    1.143 
#    0.000    0.714    0.000   15.429    0.000    9.000 
#    0.000    0.000    0.000    0.000    0.000    0.000 
#
# Total GULP energy -312028.077147 kJ/mol
# GULP energy per Si atom -5571.929949 kJ/mol
# Density = 1.488042 g / cm^3
# Si number density = 14.914364 Si / 1000 Ang^3
#
#
#
# Elastic Constant Matrix: (Units=GPa)
#
#
# Indices 1 2 3 4 5 6 
#
# 1 74.5027 31.9723 14.5152 0.0000 0.0000 0.0000
# 2 31.9723 116.1932 26.1670 0.0000 0.0000 0.0000
# 3 14.5152 26.1670 48.4011 0.0000 0.0000 0.0000
# 4 0.0000 0.0000 0.0000 18.7819 0.0000 0.0000
# 5 0.0000 0.0000 0.0000 0.0000 15.0045 0.0000
# 6 0.0000 0.0000 0.0000 0.0000 0.0000 19.5080
#
#
#
# Elastic Compliance Matrix: (Units=1/GPa)
#
#
# Indices 1 2 3 4 5 6 
#
# 1 0.015517 -0.003668 -0.002670 0.000000 0.000000 0.000000
# 2 -0.003668 0.010667 -0.004667 0.000000 0.000000 0.000000
# 3 -0.002670 -0.004667 0.023984 0.000000 0.000000 0.000000
# 4 0.000000 0.000000 0.000000 0.053243 0.000000 0.000000
# 5 0.000000 0.000000 0.000000 0.000000 0.066647 0.000000
# 6 0.000000 0.000000 0.000000 0.000000 0.000000 0.051261
#
#
# Mechanical properties :
#
#
# Convention : Reuss Voigt Hill
#
# Bulk Modulus (GPa) = 35.51441 42.71179 39.11310
# Shear Modulus (GPa) = 19.78516 21.75503 20.77010
#
# Velocity S-wave (km/s) = 3.64618 3.82339 3.73584
# Velocity P-wave (km/s) = 6.44904 6.94199 6.70005
#
# Compressibility (1/GPa) = 0.02815758
#
# Stress axis : x y z
#
# Youngs Moduli (GPa) = 64.44622 93.74981 41.69380
#
# Poissons Ratio (x) = 0.34391 0.11133
# Poissons Ratio (y) = 0.23641 0.19457
# Poissons Ratio (z) = 0.17208 0.43749
#
# Static dielectric constant tensor:
#      x y z
#    x 1.473590 0.000000 0.000000 
#    y 0.000000 1.504390 0.000000 
#    z 0.000000 0.000000 1.499790 
# 
# From -- ./inp_files/53330.got.cif
#   From: 2010.05.17/outbox.cif.g08.bks.cpg/sg63_27_cif.got.tgz:53330.got - 2010.06.03 15:47:04.
