data_PCOD9468972
_publ_section_title
;
Structure prediction by ZEFSAII (Michael W. Deem and Ramdas Pophale) SiO2 
 PCOD9468972
Probable space group: C M C M
;
_chemical_formula_sum "Si O2"
_cell_formula_units_Z 80
_cell_length_a 22.524104
_cell_length_b 9.482605
_cell_length_c 17.905237
_cell_angle_alpha 90.000000
_cell_angle_beta 90.000000
_cell_angle_gamma 90.000000
_cell_volume 3824.329100
_symmetry_space_group_name_H-M "C M C M"
_symmetry_group_IT_number 63
_symmetry_cell_setting 'orthorhombic'
loop_
_space_group_symop_operation_xyz
x,y,z
-x,-y,1/2+z
x,-y,-z
-x,y,1/2-z
-x,-y,-z
x,y,1/2-z
-x,y,z
x,-y,1/2+z
1/2+x,1/2+y,z
1/2-x,1/2-y,1/2+z
1/2+x,1/2-y,-z
1/2-x,1/2+y,1/2-z
1/2-x,1/2-y,-z
1/2+x,1/2+y,1/2-z
1/2-x,1/2+y,z
1/2+x,1/2-y,1/2+z
loop_
_atom_site_type_symbol
_atom_site_label
_atom_site_fract_x
_atom_site_fract_y
_atom_site_fract_z
Si Si1 0.568302 0.955579 0.417703
Si Si2 0.677544 0.858019 0.338271
Si Si3 0.000000 0.163197 0.026144
Si Si4 0.912807 0.235801 0.600875
Si Si5 0.209137 0.683607 0.160250
Si Si6 0.000000 0.008164 0.835236
O O1 0.500000 0.906472 0.424524
O O2 0.614805 0.853408 0.379534
O O3 0.568345 0.105793 0.373937
O O4 0.590186 0.000000 0.500000
O O5 0.667608 0.843711 0.250000
O O6 0.702973 0.016083 0.352033
O O7 0.726784 0.744590 0.360655
O O8 0.941827 0.220497 0.981828
O O9 0.000000 0.130217 0.113588
O O10 0.000000 0.000000 0.000000
O O11 0.842627 0.238484 0.613787
O O12 0.944130 0.110795 0.646367
O O13 0.200335 0.708844 0.250000
O O14 0.000000 0.967784 0.750000
#
# Coordination Sequence:
#
# PCOD9468972 Si02
#       6
#    16  16   8  16  16   8
#     4  10  19  34  55  80 108 143 183 234 282 326
#     4   9  19  35  55  82 112 147 189 233 285 336
#     4   8  16  30  46  73 105 135 171 220 271 318
#     4   9  16  32  53  78 103 143 182 221 280 329
#     4   9  17  32  54  80 113 147 185 232 283 337
#     4  10  18  30  50  79 106 133 179 230 277 326
#
# _framework density 20.918700999999999
#
# number of rings (size 3 to 8) (size 9 to 14) (size 15 to 20)
#    0.000    3.000    2.000    0.600    0.000    1.200 
#    0.000   13.000    0.000    3.600    0.000    0.000 
#    0.000    0.000    0.000    0.000    0.000    0.000 
#
# Total GULP energy -222985.064355 kJ/mol
# GULP energy per Si atom -5574.626609 kJ/mol
# Density = 2.087109 g / cm^3
# Si number density = 20.918701 Si / 1000 Ang^3
#
#
#
# Elastic Constant Matrix: (Units=GPa)
#
#
# Indices 1 2 3 4 5 6 
#
# 1 126.2015 2.8956 42.6360 0.0000 0.0000 0.0000
# 2 2.8956 30.0694 17.3785 0.0000 0.0000 0.0000
# 3 42.6360 17.3785 84.9661 0.0000 0.0000 0.0000
# 4 0.0000 0.0000 0.0000 24.0470 0.0000 0.0000
# 5 0.0000 0.0000 0.0000 0.0000 38.0950 0.0000
# 6 0.0000 0.0000 0.0000 0.0000 0.0000 37.9921
#
#
#
# Elastic Compliance Matrix: (Units=1/GPa)
#
#
# Indices 1 2 3 4 5 6 
#
# 1 0.009659 0.002122 -0.005281 0.000000 0.000000 0.000000
# 2 0.002122 0.038181 -0.008874 0.000000 0.000000 0.000000
# 3 -0.005281 -0.008874 0.016234 0.000000 0.000000 0.000000
# 4 0.000000 0.000000 0.000000 0.041585 0.000000 0.000000
# 5 0.000000 0.000000 0.000000 0.000000 0.026250 0.000000
# 6 0.000000 0.000000 0.000000 0.000000 0.000000 0.026321
#
#
# Mechanical properties :
#
#
# Convention : Reuss Voigt Hill
#
# Bulk Modulus (GPa) = 24.99485 40.78413 32.88949
# Shear Modulus (GPa) = 25.55798 31.91528 28.73663
#
# Velocity S-wave (km/s) = 3.49918 3.91023 3.71041
# Velocity P-wave (km/s) = 5.31980 6.31865 5.84062
#
# Compressibility (1/GPa) = 0.04000825
#
# Stress axis : x y z
#
# Youngs Moduli (GPa) = 103.52717 26.19119 61.59725
#
# Poissons Ratio (x) = -0.05558 0.32530
# Poissons Ratio (y) = -0.21968 0.54662
# Poissons Ratio (z) = 0.54673 0.23242
#
# Static dielectric constant tensor:
#      x y z
#    x 1.752110 0.000000 0.000000 
#    y 0.000000 1.895140 0.000000 
#    z 0.000000 0.000000 1.775310 
# 
# From -- ./inp_files/46850.got.cif
#   From: 2010.05.17/outbox.cif.g08.bks.cpg/sg63_24_cif.got.tgz:46850.got - 2010.06.03 15:47:04.
