data_PCOD9468376
_publ_section_title
;
Structure prediction by ZEFSAII (Michael W. Deem and Ramdas Pophale) SiO2 
 PCOD9468376
Probable space group: C M C M
;
_chemical_formula_sum "Si O2"
_cell_formula_units_Z 80
_cell_length_a 19.064883
_cell_length_b 11.869069
_cell_length_c 14.359053
_cell_angle_alpha 90.000000
_cell_angle_beta 90.000000
_cell_angle_gamma 90.000000
_cell_volume 3249.201144
_symmetry_space_group_name_H-M "C M C M"
_symmetry_group_IT_number 63
_symmetry_cell_setting 'orthorhombic'
loop_
_space_group_symop_operation_xyz
x,y,z
-x,-y,1/2+z
x,-y,-z
-x,y,1/2-z
-x,-y,-z
x,y,1/2-z
-x,y,z
x,-y,1/2+z
1/2+x,1/2+y,z
1/2-x,1/2-y,1/2+z
1/2+x,1/2-y,-z
1/2-x,1/2+y,1/2-z
1/2-x,1/2-y,-z
1/2+x,1/2+y,1/2-z
1/2-x,1/2+y,z
1/2+x,1/2-y,1/2+z
loop_
_atom_site_type_symbol
_atom_site_label
_atom_site_fract_x
_atom_site_fract_y
_atom_site_fract_z
Si Si1 0.419552 0.928237 0.096225
Si Si2 0.295352 0.913089 0.850101
Si Si3 0.634540 0.751021 0.974052
Si Si4 0.854800 0.026761 0.639026
Si Si5 0.000000 0.027727 0.353342
Si Si6 0.000000 0.246376 0.853938
O O1 0.500000 0.925403 0.133025
O O2 0.356791 0.993243 0.147968
O O3 0.391290 0.802146 0.071931
O O4 0.423301 0.000000 0.000000
O O5 0.300938 0.851999 0.750000
O O6 0.218935 0.966004 0.857719
O O7 0.303893 0.830094 0.936467
O O8 0.650215 0.626937 0.935780
O O9 0.568098 0.782757 0.908181
O O10 0.868348 0.061214 0.750000
O O11 0.922408 0.950945 0.608778
O O12 0.000000 0.075498 0.250000
O O13 0.000000 0.890112 0.353871
O O14 0.000000 0.289546 0.750000
#
# Coordination Sequence:
#
# PCOD9468376 Si02
#       6
#    16  16  16  16   8   8
#     4   9  18  31  44  67  98 126 154 187 229 284
#     4  10  20  30  44  70  98 127 155 186 233 282
#     4  10  17  30  48  67  95 126 150 191 235 276
#     4   9  17  29  46  72  96 117 155 197 232 274
#     4   7  12  24  42  63  89 110 140 195 237 255
#     4   9  14  22  43  71  87 110 147 183 233 275
#
# _framework density 24.621437
#
# number of rings (size 3 to 8) (size 9 to 14) (size 15 to 20)
#    0.000    2.800    1.000    3.000    1.400    1.200 
#    0.000    0.000    0.000    0.000    2.600    6.300 
#    0.000    0.000    0.000    0.000    0.000    0.000 
#
# Total GULP energy -223105.700833 kJ/mol
# GULP energy per Si atom -5577.642521 kJ/mol
# Density = 2.456540 g / cm^3
# Si number density = 24.621437 Si / 1000 Ang^3
#
#
#
# Elastic Constant Matrix: (Units=GPa)
#
#
# Indices 1 2 3 4 5 6 
#
# 1 166.4142 19.9164 17.3951 0.0000 0.0000 0.0000
# 2 19.9164 65.8178 1.2470 0.0000 0.0000 0.0000
# 3 17.3951 1.2470 58.2054 0.0000 0.0000 0.0000
# 4 0.0000 0.0000 0.0000 18.6788 0.0000 0.0000
# 5 0.0000 0.0000 0.0000 0.0000 17.5581 0.0000
# 6 0.0000 0.0000 0.0000 0.0000 0.0000 22.7936
#
#
#
# Elastic Compliance Matrix: (Units=1/GPa)
#
#
# Indices 1 2 3 4 5 6 
#
# 1 0.006435 -0.001911 -0.001882 0.000000 0.000000 0.000000
# 2 -0.001911 0.015767 0.000233 0.000000 0.000000 0.000000
# 3 -0.001882 0.000233 0.017738 0.000000 0.000000 0.000000
# 4 0.000000 0.000000 0.000000 0.053537 0.000000 0.000000
# 5 0.000000 0.000000 0.000000 0.000000 0.056954 0.000000
# 6 0.000000 0.000000 0.000000 0.000000 0.000000 0.043872
#
#
# Mechanical properties :
#
#
# Convention : Reuss Voigt Hill
#
# Bulk Modulus (GPa) = 30.46932 40.83937 35.65434
# Shear Modulus (GPa) = 23.54465 28.59803 26.07134
#
# Velocity S-wave (km/s) = 3.09571 3.41179 3.25759
# Velocity P-wave (km/s) = 5.01796 5.66951 5.35365
#
# Compressibility (1/GPa) = 0.03281990
#
# Stress axis : x y z
#
# Youngs Moduli (GPa) = 155.41000 63.42184 56.37609
#
# Poissons Ratio (x) = 0.12123 0.10610
# Poissons Ratio (y) = 0.29706 -0.01316
# Poissons Ratio (z) = 0.29249 -0.01480
#
# Static dielectric constant tensor:
#      x y z
#    x 1.906260 0.000000 0.000000 
#    y 0.000000 2.004460 0.000000 
#    z 0.000000 0.000000 2.022420 
# 
# From -- ./inp_files/45655.got.cif
#   From: 2010.05.17/outbox.cif.g08.bks.cpg/sg63_23_cif.got.tgz:45655.got - 2010.06.03 15:47:04.
