data_PCOD9468314
_publ_section_title
;
Structure prediction by ZEFSAII (Michael W. Deem and Ramdas Pophale) SiO2 
 PCOD9468314
Probable space group: C M C M
;
_chemical_formula_sum "Si O2"
_cell_formula_units_Z 100
_cell_length_a 33.892523
_cell_length_b 19.252984
_cell_length_c 7.667186
_cell_angle_alpha 90.000000
_cell_angle_beta 90.000000
_cell_angle_gamma 90.000000
_cell_volume 5003.085772
_symmetry_space_group_name_H-M "C M C M"
_symmetry_group_IT_number 63
_symmetry_cell_setting 'orthorhombic'
loop_
_space_group_symop_operation_xyz
x,y,z
-x,-y,1/2+z
x,-y,-z
-x,y,1/2-z
-x,-y,-z
x,y,1/2-z
-x,y,z
x,-y,1/2+z
1/2+x,1/2+y,z
1/2-x,1/2-y,1/2+z
1/2+x,1/2-y,-z
1/2-x,1/2+y,1/2-z
1/2-x,1/2-y,-z
1/2+x,1/2+y,1/2-z
1/2-x,1/2+y,z
1/2+x,1/2-y,1/2+z
loop_
_atom_site_type_symbol
_atom_site_label
_atom_site_fract_x
_atom_site_fract_y
_atom_site_fract_z
Si Si1 0.043583 0.259835 0.542709
Si Si2 0.643620 0.652410 0.044686
Si Si3 0.500000 0.438881 0.250000
Si Si4 0.312315 0.080750 0.539998
Si Si5 0.062024 0.102599 0.452263
Si Si6 0.275534 0.580776 0.957158
Si Si7 0.874087 0.693728 0.539996
O O1 0.043449 0.246222 0.750000
O O2 0.051432 0.185192 0.455156
O O3 0.079638 0.310567 0.502098
O O4 0.000000 0.284761 0.492456
O O5 0.635897 0.658345 0.250000
O O6 0.607894 0.602247 0.986849
O O7 0.639091 0.730266 0.971487
O O8 0.687215 0.623721 0.021302
O O9 0.534094 0.431628 0.405287
O O10 0.311230 0.086508 0.750000
O O11 0.268203 0.099382 0.474381
O O12 0.345951 0.132625 0.473842
O O13 0.319759 0.000000 0.500000
O O14 0.056540 0.078811 0.250000
O O15 0.274686 0.588708 0.750000
O O16 0.281719 0.500000 0.000000
O O17 0.870472 0.694049 0.750000
#
# Coordination Sequence:
#
# PCOD9468314 Si02
#       7
#    16  16   4  16  16  16  16
#     4  10  17  28  45  71 103 135 176 220 260 319
#     4   9  19  33  50  76 111 138 172 216 270 324
#     4  12  18  28  48  74 106 144 186 220 256 340
#     4   9  19  36  54  75 101 137 179 219 266 321
#     4  10  19  30  46  72 109 143 176 224 273 313
#     4  10  20  34  55  76 102 136 177 221 263 320
#     4   9  19  33  50  74 107 140 171 216 273 324
#
# _framework density 19.987665
#
# number of rings (size 3 to 8) (size 9 to 14) (size 15 to 20)
#    0.000    2.400    1.600    2.160    1.120    3.520 
#    0.000    0.000    0.000    0.480    0.000    0.560 
#    0.000    0.000    0.000    0.000    0.000    0.000 
#
# Total GULP energy -278474.935070 kJ/mol
# GULP energy per Si atom -5569.498701 kJ/mol
# Density = 1.994217 g / cm^3
# Si number density = 19.987665 Si / 1000 Ang^3
#
#
#
# Elastic Constant Matrix: (Units=GPa)
#
#
# Indices 1 2 3 4 5 6 
#
# 1 198.5126 85.4576 22.2105 0.0000 0.0000 0.0000
# 2 85.4576 60.3647 18.4298 0.0000 0.0000 0.0000
# 3 22.2105 18.4298 74.9631 0.0000 0.0000 0.0000
# 4 0.0000 0.0000 0.0000 15.4352 0.0000 0.0000
# 5 0.0000 0.0000 0.0000 0.0000 18.5417 0.0000
# 6 0.0000 0.0000 0.0000 0.0000 0.0000 38.2328
#
#
#
# Elastic Compliance Matrix: (Units=1/GPa)
#
#
# Indices 1 2 3 4 5 6 
#
# 1 0.012934 -0.018532 0.000724 0.000000 0.000000 0.000000
# 2 -0.018532 0.044462 -0.005440 0.000000 0.000000 0.000000
# 3 0.000724 -0.005440 0.014463 0.000000 0.000000 0.000000
# 4 0.000000 0.000000 0.000000 0.064787 0.000000 0.000000
# 5 0.000000 0.000000 0.000000 0.000000 0.053932 0.000000
# 6 0.000000 0.000000 0.000000 0.000000 0.000000 0.026156
#
#
# Mechanical properties :
#
#
# Convention : Reuss Voigt Hill
#
# Bulk Modulus (GPa) = 39.42798 65.11513 52.27156
# Shear Modulus (GPa) = 18.40362 28.29144 23.34753
#
# Velocity S-wave (km/s) = 3.03768 3.76632 3.42145
# Velocity P-wave (km/s) = 5.66324 7.18067 6.46662
#
# Compressibility (1/GPa) = 0.02536270
#
# Stress axis : x y z
#
# Youngs Moduli (GPa) = 77.31409 22.49096 69.14220
#
# Poissons Ratio (x) = 0.41680 -0.05005
# Poissons Ratio (y) = 1.43277 0.37616
# Poissons Ratio (z) = -0.05596 0.12236
#
# Static dielectric constant tensor:
#      x y z
#    x 1.750160 0.000000 0.000000 
#    y 0.000000 1.696190 0.000000 
#    z 0.000000 0.000000 1.746940 
# 
# From -- ./inp_files/14481.got.cif
#   From: 2010.05.17/outbox.cif.g08.bks.cpg/sg63_8_cif.got.tgz:14481.got - 2010.06.03 15:47:04.
