data_PCOD9468752
_publ_section_title
;
Structure prediction by ZEFSAII (Michael W. Deem and Ramdas Pophale) SiO2 
 PCOD9468752
Probable space group: C M C M
;
_chemical_formula_sum "Si O2"
_cell_formula_units_Z 128
_cell_length_a 7.398049
_cell_length_b 27.699784
_cell_length_c 26.869577
_cell_angle_alpha 90.000000
_cell_angle_beta 90.000000
_cell_angle_gamma 90.000000
_cell_volume 5506.230852
_symmetry_space_group_name_H-M "C M C M"
_symmetry_group_IT_number 63
_symmetry_cell_setting 'orthorhombic'
loop_
_space_group_symop_operation_xyz
x,y,z
-x,-y,1/2+z
x,-y,-z
-x,y,1/2-z
-x,-y,-z
x,y,1/2-z
-x,y,z
x,-y,1/2+z
1/2+x,1/2+y,z
1/2-x,1/2-y,1/2+z
1/2+x,1/2-y,-z
1/2-x,1/2+y,1/2-z
1/2-x,1/2-y,-z
1/2+x,1/2+y,1/2-z
1/2-x,1/2+y,z
1/2+x,1/2-y,1/2+z
loop_
_atom_site_type_symbol
_atom_site_label
_atom_site_fract_x
_atom_site_fract_y
_atom_site_fract_z
Si Si1 0.205889 0.553628 0.518544
Si Si2 0.782051 0.362633 0.958395
Si Si3 0.783555 0.947822 0.692929
Si Si4 0.713632 0.790765 0.040318
Si Si5 0.721824 0.237681 0.649915
Si Si6 0.717431 0.955019 0.129393
Si Si7 0.293586 0.343925 0.846032
Si Si8 0.719985 0.135797 0.694228
O O1 0.195326 0.500000 0.500000
O O2 0.275954 0.583437 0.471414
O O3 0.288750 0.551322 0.573255
O O4 0.000000 0.573187 0.525074
O O5 0.721496 0.336932 0.009722
O O6 0.705185 0.344712 0.906383
O O7 0.000000 0.356640 0.952464
O O8 0.719594 0.955882 0.750000
O O9 0.715623 0.895455 0.672457
O O10 0.000000 0.944057 0.694652
O O11 0.749349 0.994028 0.657405
O O12 0.500000 0.797660 0.047687
O O13 0.750000 0.750000 0.000000
O O14 0.783981 0.774368 0.093554
O O15 0.500000 0.239998 0.650002
O O16 0.784586 0.290922 0.666933
O O17 0.775591 0.190129 0.680221
O O18 0.500000 0.952467 0.126236
O O19 0.780989 0.908034 0.159602
O O20 0.500000 0.343247 0.827569
O O21 0.774745 0.124599 0.750000
O O22 0.500000 0.136155 0.691749
#
# Coordination Sequence:
#
# PCOD9468752 Si02
#       8
#    16  16  16  16  16  16  16  16
#     4   9  17  29  47  73 104 135 164 199 250 306
#     4  10  19  31  50  76 105 137 170 207 252 302
#     4  10  22  38  54  74 102 136 173 213 260 313
#     4  10  18  29  47  71  99 130 164 199 241 290
#     4   9  17  30  48  72 104 137 168 207 254 302
#     4  10  19  34  57  81 103 129 170 219 260 304
#     4  10  20  34  52  74 103 139 174 209 252 304
#     4   9  17  29  49  78 104 126 162 216 268 305
#
# _framework density 23.246390999999999
#
# number of rings (size 3 to 8) (size 9 to 14) (size 15 to 20)
#    0.000    2.375    1.250    1.875    0.000    5.750 
#    0.000    3.125    0.000    5.250    0.000    0.000 
#    0.000    0.000    0.000    0.000    0.000    0.000 
#
# Total GULP energy -356889.181638 kJ/mol
# GULP energy per Si atom -5576.393463 kJ/mol
# Density = 2.319348 g / cm^3
# Si number density = 23.246391 Si / 1000 Ang^3
#
#
#
# Elastic Constant Matrix: (Units=GPa)
#
#
# Indices 1 2 3 4 5 6 
#
# 1 76.9735 0.1003 -2.0546 0.0000 0.0000 0.0000
# 2 0.1003 124.8529 14.7231 0.0000 0.0000 0.0000
# 3 -2.0546 14.7231 85.2783 0.0000 0.0000 0.0000
# 4 0.0000 0.0000 0.0000 38.4871 0.0000 0.0000
# 5 0.0000 0.0000 0.0000 0.0000 7.0758 0.0000
# 6 0.0000 0.0000 0.0000 0.0000 0.0000 2.2923
#
#
#
# Elastic Compliance Matrix: (Units=1/GPa)
#
#
# Indices 1 2 3 4 5 6 
#
# 1 0.013000 -0.000048 0.000322 0.000000 0.000000 0.000000
# 2 -0.000048 0.008176 -0.001413 0.000000 0.000000 0.000000
# 3 0.000322 -0.001413 0.011978 0.000000 0.000000 0.000000
# 4 0.000000 0.000000 0.000000 0.025983 0.000000 0.000000
# 5 0.000000 0.000000 0.000000 0.000000 0.141326 0.000000
# 6 0.000000 0.000000 0.000000 0.000000 0.000000 0.436237
#
#
# Mechanical properties :
#
#
# Convention : Reuss Voigt Hill
#
# Bulk Modulus (GPa) = 32.38859 34.73804 33.56332
# Shear Modulus (GPa) = 7.70095 27.86011 17.78053
#
# Velocity S-wave (km/s) = 1.82207 3.46565 2.76863
# Velocity P-wave (km/s) = 4.28831 5.56688 4.96889
#
# Compressibility (1/GPa) = 0.03087507
#
# Stress axis : x y z
#
# Youngs Moduli (GPa) = 76.92228 122.30827 83.48658
#
# Poissons Ratio (x) = 0.00592 -0.02685
# Poissons Ratio (y) = 0.00372 0.11795
# Poissons Ratio (z) = -0.02474 0.17279
#
# Static dielectric constant tensor:
#      x y z
#    x 2.237750 0.000000 0.000000 
#    y 0.000000 2.838510 0.000000 
#    z 0.000000 0.000000 1.814210 
# 
# From -- ./inp_files/62145.got.cif
#   From: 2010.05.17/outbox.cif.g08.bks.cpg/sg63_32_cif.got.tgz:62145.got - 2010.06.03 15:47:04.
