data_PCOD9468412
_publ_section_title
;
Structure prediction by ZEFSAII (Michael W. Deem and Ramdas Pophale) SiO2 
 PCOD9468412
Probable space group: C M C M
;
_chemical_formula_sum "Si O2"
_cell_formula_units_Z 116
_cell_length_a 14.030635
_cell_length_b 17.604358
_cell_length_c 26.305377
_cell_angle_alpha 90.000000
_cell_angle_beta 90.000000
_cell_angle_gamma 90.000000
_cell_volume 6497.436576
_symmetry_space_group_name_H-M "C M C M"
_symmetry_group_IT_number 63
_symmetry_cell_setting 'orthorhombic'
loop_
_space_group_symop_operation_xyz
x,y,z
-x,-y,1/2+z
x,-y,-z
-x,y,1/2-z
-x,-y,-z
x,y,1/2-z
-x,y,z
x,-y,1/2+z
1/2+x,1/2+y,z
1/2-x,1/2-y,1/2+z
1/2+x,1/2-y,-z
1/2-x,1/2+y,1/2-z
1/2-x,1/2-y,-z
1/2+x,1/2+y,1/2-z
1/2-x,1/2+y,z
1/2+x,1/2-y,1/2+z
loop_
_atom_site_type_symbol
_atom_site_label
_atom_site_fract_x
_atom_site_fract_y
_atom_site_fract_z
Si Si1 0.105863 0.164973 0.937301
Si Si2 0.888591 0.660325 0.029031
Si Si3 0.711929 0.034120 0.404699
Si Si4 0.391251 0.719514 0.132782
Si Si5 0.810110 0.633128 0.917552
Si Si6 0.693498 0.595684 0.304891
Si Si7 0.104786 0.911663 0.547336
Si Si8 0.000000 0.941076 0.750000
O O1 0.119963 0.253954 0.950659
O O2 0.197457 0.139413 0.906176
O O3 0.000000 0.155368 0.914833
O O4 0.107912 0.119928 0.990595
O O5 0.850347 0.601113 0.070588
O O6 0.000000 0.646621 0.017637
O O7 0.829957 0.651103 0.976903
O O8 0.748410 0.052814 0.348263
O O9 0.808394 0.034075 0.438885
O O10 0.660998 0.953356 0.407774
O O11 0.500000 0.719897 0.150983
O O12 0.362443 0.802413 0.114464
O O13 0.324744 0.680953 0.174771
O O14 0.385739 0.661434 0.084741
O O15 0.742256 0.594660 0.250000
O O16 0.586599 0.563419 0.293688
O O17 0.000000 0.946018 0.556235
#
# Coordination Sequence:
#
# PCOD9468412 Si02
#       8
#    16  16  16  16  16  16  16   4
#     4  10  19  33  48  70  99 144 188 225 255 293
#     4  11  22  37  53  71 109 159 198 220 245 306
#     4  11  23  33  50  80 112 147 176 212 267 336
#     4  10  17  31  55  81 101 133 179 229 264 300
#     4  12  22  32  48  80 116 147 178 216 266 318
#     4   9  18  37  61  86 104 124 173 226 280 333
#     4   9  17  30  51  70  97 135 181 219 264 301
#     4   8  16  36  68  88 100 120 174 226 288 332
#
# _framework density 17.853196000000001
#
# number of rings (size 3 to 8) (size 9 to 14) (size 15 to 20)
#    0.414    1.379    3.448    2.897    0.966    2.207 
#    0.000    2.069    0.000    0.414    0.000    0.000 
#    0.000    0.000    0.000    0.000    0.000    0.000 
#
# Total GULP energy -323023.816742 kJ/mol
# GULP energy per Si atom -5569.376151 kJ/mol
# Density = 1.781256 g / cm^3
# Si number density = 17.853196 Si / 1000 Ang^3
#
#
#
# Elastic Constant Matrix: (Units=GPa)
#
#
# Indices 1 2 3 4 5 6 
#
# 1 44.1607 4.3638 -5.5073 0.0000 0.0000 0.0000
# 2 4.3638 67.2746 8.0687 0.0000 0.0000 0.0000
# 3 -5.5073 8.0687 32.7383 0.0000 0.0000 0.0000
# 4 0.0000 0.0000 0.0000 6.0695 0.0000 0.0000
# 5 0.0000 0.0000 0.0000 0.0000 21.5553 0.0000
# 6 0.0000 0.0000 0.0000 0.0000 0.0000 1.7496
#
#
#
# Elastic Compliance Matrix: (Units=1/GPa)
#
#
# Indices 1 2 3 4 5 6 
#
# 1 0.023401 -0.002051 0.004442 0.000000 0.000000 0.000000
# 2 -0.002051 0.015497 -0.004164 0.000000 0.000000 0.000000
# 3 0.004442 -0.004164 0.032319 0.000000 0.000000 0.000000
# 4 0.000000 0.000000 0.000000 0.164759 0.000000 0.000000
# 5 0.000000 0.000000 0.000000 0.000000 0.046392 0.000000
# 6 0.000000 0.000000 0.000000 0.000000 0.000000 0.571575
#
#
# Mechanical properties :
#
#
# Convention : Reuss Voigt Hill
#
# Bulk Modulus (GPa) = 14.77739 17.55822 16.16780
# Shear Modulus (GPa) = 5.68152 15.02475 10.35314
#
# Velocity S-wave (km/s) = 1.78585 2.90413 2.41073
# Velocity P-wave (km/s) = 3.54224 4.59363 4.10176
#
# Compressibility (1/GPa) = 0.06767095
#
# Stress axis : x y z
#
# Youngs Moduli (GPa) = 42.73290 64.52892 30.94163
#
# Poissons Ratio (x) = 0.13233 -0.13744
# Poissons Ratio (y) = 0.08763 0.12885
# Poissons Ratio (z) = -0.18982 0.26872
#
# Static dielectric constant tensor:
#      x y z
#    x 1.647460 0.000000 0.000000 
#    y 0.000000 1.626110 0.000000 
#    z 0.000000 0.000000 1.597460 
# 
# From -- ./inp_files/69528.got.cif
#   From: 2010.05.17/outbox.cif.g08.bks.cpg/sg63_35_cif.got.tgz:69528.got - 2010.06.03 15:47:04.
