data_PCOD9468138
_publ_section_title
;
Structure prediction by ZEFSAII (Michael W. Deem and Ramdas Pophale) SiO2 
 PCOD9468138
Probable space group: C M C M
;
_chemical_formula_sum "Si O2"
_cell_formula_units_Z 88
_cell_length_a 24.322105
_cell_length_b 7.232484
_cell_length_c 20.808224
_cell_angle_alpha 90.000000
_cell_angle_beta 90.000000
_cell_angle_gamma 90.000000
_cell_volume 3660.358771
_symmetry_space_group_name_H-M "C M C M"
_symmetry_group_IT_number 63
_symmetry_cell_setting 'orthorhombic'
loop_
_space_group_symop_operation_xyz
x,y,z
-x,-y,1/2+z
x,-y,-z
-x,y,1/2-z
-x,-y,-z
x,y,1/2-z
-x,y,z
x,-y,1/2+z
1/2+x,1/2+y,z
1/2-x,1/2-y,1/2+z
1/2+x,1/2-y,-z
1/2-x,1/2+y,1/2-z
1/2-x,1/2-y,-z
1/2+x,1/2+y,1/2-z
1/2-x,1/2+y,z
1/2+x,1/2-y,1/2+z
loop_
_atom_site_type_symbol
_atom_site_label
_atom_site_fract_x
_atom_site_fract_y
_atom_site_fract_z
Si Si1 0.847606 0.787105 0.977565
Si Si2 0.362865 0.237116 0.750000
Si Si3 0.669072 0.806970 0.618299
Si Si4 0.215606 0.102560 0.360834
Si Si5 0.436662 0.272075 0.872573
Si Si6 0.561818 0.309365 0.174858
O O1 0.796141 0.795941 0.928795
O O2 0.899136 0.726620 0.934111
O O3 0.836803 0.673962 0.042075
O O4 0.857534 0.000000 0.000000
O O5 0.317282 0.295741 0.805491
O O6 0.409008 0.204910 0.806989
O O7 0.719370 0.918990 0.648162
O O8 0.688305 0.597724 0.633111
O O9 0.609807 0.822104 0.650385
O O10 0.500000 0.216873 0.879718
O O11 0.435576 0.497468 0.863739
O O12 0.572269 0.355703 0.250000
O O13 0.500000 0.235788 0.169185
#
# Coordination Sequence:
#
# PCOD9468138 Si02
#       6
#    16   8  16  16  16  16
#     4   9  17  31  43  70 104 136 166 207 253 307
#     4  10  17  32  44  74 103 138 166 210 260 320
#     4  11  20  35  50  75 105 140 172 211 254 310
#     4  10  21  31  52  70 106 140 170 213 255 308
#     4  10  16  26  48  73 105 136 166 216 269 309
#     4  10  18  29  48  73 103 133 168 216 267 307
#
# _framework density 24.041357999999999
#
# number of rings (size 3 to 8) (size 9 to 14) (size 15 to 20)
#    0.000    2.000    6.364    0.818    1.273    1.091 
#    0.000    0.000    0.000    0.000    0.000    7.636 
#    0.000   13.818    0.000    0.000    0.000    0.000 
#
# Total GULP energy -245274.564589 kJ/mol
# GULP energy per Si atom -5574.421922 kJ/mol
# Density = 2.398664 g / cm^3
# Si number density = 24.041358 Si / 1000 Ang^3
#
#
#
# Elastic Constant Matrix: (Units=GPa)
#
#
# Indices 1 2 3 4 5 6 
#
# 1 149.0685 49.1828 75.9920 0.0000 0.0000 0.0000
# 2 49.1828 33.7474 -18.4048 0.0000 0.0000 0.0000
# 3 75.9920 -18.4048 45.5333 0.0000 0.0000 0.0000
# 4 0.0000 0.0000 0.0000 -4.7577 0.0000 0.0000
# 5 0.0000 0.0000 0.0000 0.0000 24.8077 0.0000
# 6 0.0000 0.0000 0.0000 0.0000 0.0000 15.7257
#
#
#
# Elastic Compliance Matrix: (Units=1/GPa)
#
#
# Indices 1 2 3 4 5 6 
#
# 1 -0.004537 0.013779 0.013141 0.000000 0.000000 0.000000
# 2 0.013779 -0.003836 -0.024546 0.000000 0.000000 0.000000
# 3 0.013141 -0.024546 -0.009892 0.000000 0.000000 0.000000
# 4 0.000000 0.000000 0.000000 -0.210184 0.000000 0.000000
# 5 0.000000 0.000000 0.000000 0.000000 0.040310 0.000000
# 6 0.000000 0.000000 0.000000 0.000000 0.000000 0.063590
#
#
# Mechanical properties :
#
#
# Convention : Reuss Voigt Hill
#
# Bulk Modulus (GPa) = -73.98040 49.09879 -12.44081
# Shear Modulus (GPa) = -37.36887 15.26043 -11.05422
#
# Velocity S-wave (km/s) = -3.94681 2.52217 -2.14662
# Velocity P-wave (km/s) = 7.18392 5.38041 3.36600
#
# Compressibility (1/GPa) = -0.01351709
#
# Stress axis : x y z
#
# Youngs Moduli (GPa) = -220.41489 -260.69625 -101.09512
#
# Poissons Ratio (x) = 3.59208 1.32852
# Poissons Ratio (y) = 3.03705 -2.48152
# Poissons Ratio (z) = 2.89653 -6.39915
#
# Static dielectric constant tensor:
#      x y z
#    x 1.908590 0.000000 0.000000 
#    y 0.000000 2.073640 0.000000 
#    z 0.000000 0.000000 1.840270 
# 
# From -- ./inp_files/57354.got.cif
#   From: 2010.05.17/outbox.cif.g08.bks.cpg/sg63_29_cif.got.tgz:57354.got - 2010.06.03 15:47:04.
