data_PCOD9468555
_publ_section_title
;
Structure prediction by ZEFSAII (Michael W. Deem and Ramdas Pophale) SiO2 
 PCOD9468555
Probable space group: C M C M
;
_chemical_formula_sum "Si O2"
_cell_formula_units_Z 96
_cell_length_a 31.250274
_cell_length_b 25.227013
_cell_length_c 8.292778
_cell_angle_alpha 90.000000
_cell_angle_beta 90.000000
_cell_angle_gamma 90.000000
_cell_volume 6537.620397
_symmetry_space_group_name_H-M "C M C M"
_symmetry_group_IT_number 63
_symmetry_cell_setting 'orthorhombic'
loop_
_space_group_symop_operation_xyz
x,y,z
-x,-y,1/2+z
x,-y,-z
-x,y,1/2-z
-x,-y,-z
x,y,1/2-z
-x,y,z
x,-y,1/2+z
1/2+x,1/2+y,z
1/2-x,1/2-y,1/2+z
1/2+x,1/2-y,-z
1/2-x,1/2+y,1/2-z
1/2-x,1/2-y,-z
1/2+x,1/2+y,1/2-z
1/2-x,1/2+y,z
1/2+x,1/2-y,1/2+z
loop_
_atom_site_type_symbol
_atom_site_label
_atom_site_fract_x
_atom_site_fract_y
_atom_site_fract_z
Si Si1 0.776484 0.172167 0.444041
Si Si2 0.618620 0.857834 0.935137
Si Si3 0.776581 0.944701 0.944055
Si Si4 0.549613 0.940806 0.944860
Si Si5 0.679605 0.056430 0.560543
Si Si6 0.186691 0.282340 0.057866
O O1 0.224079 0.173748 0.250000
O O2 0.793786 0.113806 0.488602
O O3 0.803921 0.222592 0.502420
O O4 0.727546 0.183050 0.498788
O O5 0.608829 0.846019 0.750000
O O6 0.578936 0.891990 0.005297
O O7 0.656972 0.899934 0.953108
O O8 0.640757 0.806200 0.010646
O O9 0.771635 0.946996 0.750000
O O10 0.730043 0.944059 0.027559
O O11 0.797876 0.000000 0.000000
O O12 0.552257 0.940489 0.750000
O O13 0.500000 0.933734 0.992476
O O14 0.562650 0.000000 0.000000
O O15 0.671244 0.065106 0.750000
O O16 0.663084 0.000000 0.500000
O O17 0.189010 0.282787 0.250000
#
# Coordination Sequence:
#
# PCOD9468555 Si02
#       6
#    16  16  16  16  16  16
#     4   9  18  31  43  56  79 106 133 167 204 241
#     4  11  20  30  43  60  80 101 129 167 207 248
#     4  10  18  28  41  56  76 100 129 163 201 237
#     4   9  19  34  49  63  80 104 134 169 213 260
#     4  11  20  28  38  54  75  99 127 162 203 242
#     4  10  19  29  43  60  77 103 136 167 202 243
#
# _framework density 14.684243
#
# number of rings (size 3 to 8) (size 9 to 14) (size 15 to 20)
#    0.000    2.000    1.667    4.500    0.000    4.000 
#    0.000    0.000    0.000    0.000    0.000    0.000 
#    0.000    0.000    0.000    0.000    0.000    0.833 
#
# Total GULP energy -267246.264970 kJ/mol
# GULP energy per Si atom -5567.630520 kJ/mol
# Density = 1.465082 g / cm^3
# Si number density = 14.684243 Si / 1000 Ang^3
#
#
#
# Elastic Constant Matrix: (Units=GPa)
#
#
# Indices 1 2 3 4 5 6 
#
# 1 53.1407 37.1700 3.1631 0.0000 0.0000 0.0000
# 2 37.1700 125.0769 13.3018 0.0000 0.0000 0.0000
# 3 3.1631 13.3018 18.6729 0.0000 0.0000 0.0000
# 4 0.0000 0.0000 0.0000 19.4431 0.0000 0.0000
# 5 0.0000 0.0000 0.0000 0.0000 10.3209 0.0000
# 6 0.0000 0.0000 0.0000 0.0000 0.0000 68.9443
#
#
#
# Elastic Compliance Matrix: (Units=1/GPa)
#
#
# Indices 1 2 3 4 5 6 
#
# 1 0.023776 -0.007182 0.001088 0.000000 0.000000 0.000000
# 2 -0.007182 0.010820 -0.006491 0.000000 0.000000 0.000000
# 3 0.001088 -0.006491 0.057993 0.000000 0.000000 0.000000
# 4 0.000000 0.000000 0.000000 0.051432 0.000000 0.000000
# 5 0.000000 0.000000 0.000000 0.000000 0.096890 0.000000
# 6 0.000000 0.000000 0.000000 0.000000 0.000000 0.014504
#
#
# Mechanical properties :
#
#
# Convention : Reuss Voigt Hill
#
# Bulk Modulus (GPa) = 14.83225 33.79561 24.31393
# Shear Modulus (GPa) = 16.49849 29.29203 22.89526
#
# Velocity S-wave (km/s) = 3.35558 4.47116 3.95292
# Velocity P-wave (km/s) = 5.01357 7.05123 6.11783
#
# Compressibility (1/GPa) = 0.06742065
#
# Stress axis : x y z
#
# Youngs Moduli (GPa) = 42.05842 92.42501 17.24343
#
# Poissons Ratio (x) = 0.66376 -0.01876
# Poissons Ratio (y) = 0.30205 0.11193
# Poissons Ratio (z) = -0.04577 0.59992
#
# Static dielectric constant tensor:
#      x y z
#    x 1.479310 0.000000 0.000000 
#    y 0.000000 1.585920 0.000000 
#    z 0.000000 0.000000 1.496990 
# 
# From -- ./inp_files/12983.got.cif
#   From: 2010.05.17/outbox.cif.g08.bks.cpg/sg63_7_cif.got.tgz:12983.got - 2010.06.03 15:47:04.
