data_PCOD9468455
_publ_section_title
;
Structure prediction by ZEFSAII (Michael W. Deem and Ramdas Pophale) SiO2 
 PCOD9468455
Probable space group: C M C M
;
_chemical_formula_sum "Si O2"
_cell_formula_units_Z 88
_cell_length_a 34.186141
_cell_length_b 5.464590
_cell_length_c 24.917386
_cell_angle_alpha 90.000000
_cell_angle_beta 90.000000
_cell_angle_gamma 90.000000
_cell_volume 4654.897717
_symmetry_space_group_name_H-M "C M C M"
_symmetry_group_IT_number 63
_symmetry_cell_setting 'orthorhombic'
loop_
_space_group_symop_operation_xyz
x,y,z
-x,-y,1/2+z
x,-y,-z
-x,y,1/2-z
-x,-y,-z
x,y,1/2-z
-x,y,z
x,-y,1/2+z
1/2+x,1/2+y,z
1/2-x,1/2-y,1/2+z
1/2+x,1/2-y,-z
1/2-x,1/2+y,1/2-z
1/2-x,1/2-y,-z
1/2+x,1/2+y,1/2-z
1/2-x,1/2+y,z
1/2+x,1/2-y,1/2+z
loop_
_atom_site_type_symbol
_atom_site_label
_atom_site_fract_x
_atom_site_fract_y
_atom_site_fract_z
Si Si1 0.144365 0.915375 0.833678
Si Si2 0.886228 0.880021 0.941822
Si Si3 0.544289 0.705958 0.903889
Si Si4 0.571805 0.000000 0.000000
Si Si5 0.765799 0.863425 0.688263
Si Si6 0.096096 0.413266 0.688920
O O1 0.146934 0.916200 0.898541
O O2 0.187640 0.889002 0.811149
O O3 0.119020 0.671179 0.819646
O O4 0.124399 0.172715 0.816466
O O5 0.924935 0.988590 0.913072
O O6 0.898531 0.608446 0.956190
O O7 0.879971 0.000000 0.000000
O O8 0.500000 0.634060 0.891248
O O9 0.545572 0.828336 0.963114
O O10 0.562692 0.870158 0.856124
O O11 0.750853 0.852920 0.750000
O O12 0.752838 0.606493 0.663029
O O13 0.080796 0.413972 0.750000
#
# Coordination Sequence:
#
# PCOD9468455 Si02
#       6
#    16  16  16   8  16  16
#     4  11  21  39  60  84 114 152 188 230 281 340
#     4   9  20  35  56  82 110 146 195 239 287 334
#     4  10  21  34  52  79 113 148 189 240 290 332
#     4  10  17  36  54  80 106 140 192 242 286 332
#     4  10  20  34  55  85 114 142 179 226 280 333
#     4  11  22  37  57  83 113 154 196 229 278 342
#
# _framework density 18.904819
#
# number of rings (size 3 to 8) (size 9 to 14) (size 15 to 20)
#    0.000    1.818    1.818    3.000    0.000    5.818 
#    0.000    0.000    0.000    3.273    0.000    0.000 
#    0.000    0.000    0.000    0.000    0.000    0.000 
#
# Total GULP energy -244954.699597 kJ/mol
# GULP energy per Si atom -5567.152264 kJ/mol
# Density = 1.886179 g / cm^3
# Si number density = 18.904819 Si / 1000 Ang^3
#
#
#
# Elastic Constant Matrix: (Units=GPa)
#
#
# Indices 1 2 3 4 5 6 
#
# 1 41.3948 9.3840 8.8546 0.0000 0.0000 0.0000
# 2 9.3840 85.0349 6.4618 0.0000 0.0000 0.0000
# 3 8.8546 6.4618 92.2914 0.0000 0.0000 0.0000
# 4 0.0000 0.0000 0.0000 16.1587 0.0000 0.0000
# 5 0.0000 0.0000 0.0000 0.0000 20.9518 0.0000
# 6 0.0000 0.0000 0.0000 0.0000 0.0000 8.2601
#
#
#
# Elastic Compliance Matrix: (Units=1/GPa)
#
#
# Indices 1 2 3 4 5 6 
#
# 1 0.025229 -0.002614 -0.002237 0.000000 0.000000 0.000000
# 2 -0.002614 0.012094 -0.000596 0.000000 0.000000 0.000000
# 3 -0.002237 -0.000596 0.011092 0.000000 0.000000 0.000000
# 4 0.000000 0.000000 0.000000 0.061886 0.000000 0.000000
# 5 0.000000 0.000000 0.000000 0.000000 0.047729 0.000000
# 6 0.000000 0.000000 0.000000 0.000000 0.000000 0.121063
#
#
# Mechanical properties :
#
#
# Convention : Reuss Voigt Hill
#
# Bulk Modulus (GPa) = 26.65307 29.79131 28.22219
# Shear Modulus (GPa) = 16.52927 22.00883 19.26905
#
# Velocity S-wave (km/s) = 2.96013 3.41573 3.19606
# Velocity P-wave (km/s) = 5.08059 5.59902 5.34609
#
# Compressibility (1/GPa) = 0.03751912
#
# Stress axis : x y z
#
# Youngs Moduli (GPa) = 39.63716 82.68812 90.15806
#
# Poissons Ratio (x) = 0.21615 0.20173
# Poissons Ratio (y) = 0.10362 0.05373
# Poissons Ratio (z) = 0.08869 0.04928
#
# Static dielectric constant tensor:
#      x y z
#    x 1.633220 0.000000 0.000000 
#    y 0.000000 1.768750 0.000000 
#    z 0.000000 0.000000 1.692260 
# 
# From -- ./inp_files/71039.got.cif
#   From: 2010.05.17/outbox.cif.g08.bks.cpg/sg63_36_cif.got.tgz:71039.got - 2010.06.03 15:47:04.
