data_PCOD9468619
_publ_section_title
;
Structure prediction by ZEFSAII (Michael W. Deem and Ramdas Pophale) SiO2 
 PCOD9468619
Probable space group: C M C M
;
_chemical_formula_sum "Si O2"
_cell_formula_units_Z 96
_cell_length_a 26.209097
_cell_length_b 25.843078
_cell_length_c 8.800295
_cell_angle_alpha 90.000000
_cell_angle_beta 90.000000
_cell_angle_gamma 90.000000
_cell_volume 5960.648706
_symmetry_space_group_name_H-M "C M C M"
_symmetry_group_IT_number 63
_symmetry_cell_setting 'orthorhombic'
loop_
_space_group_symop_operation_xyz
x,y,z
-x,-y,1/2+z
x,-y,-z
-x,y,1/2-z
-x,-y,-z
x,y,1/2-z
-x,y,z
x,-y,1/2+z
1/2+x,1/2+y,z
1/2-x,1/2-y,1/2+z
1/2+x,1/2-y,-z
1/2-x,1/2+y,1/2-z
1/2-x,1/2-y,-z
1/2+x,1/2+y,1/2-z
1/2-x,1/2+y,z
1/2+x,1/2-y,1/2+z
loop_
_atom_site_type_symbol
_atom_site_label
_atom_site_fract_x
_atom_site_fract_y
_atom_site_fract_z
Si Si1 0.438105 0.253530 0.924744
Si Si2 0.637979 0.442381 0.931529
Si Si3 0.248545 0.557893 0.432031
Si Si4 0.558557 0.860644 0.435297
Si Si5 0.440531 0.638402 0.930996
Si Si6 0.855873 0.442228 0.432743
O O1 0.420994 0.259744 0.750000
O O2 0.500000 0.251654 0.922734
O O3 0.423153 0.196682 0.983692
O O4 0.423740 0.304057 0.018719
O O5 0.634353 0.446418 0.750000
O O6 0.695046 0.420975 0.967775
O O7 0.633027 0.500000 0.000000
O O8 0.595028 0.404539 0.994314
O O9 0.250004 0.500000 0.500000
O O10 0.242604 0.555988 0.250000
O O11 0.197694 0.580885 0.506345
O O12 0.557610 0.858969 0.250000
O O13 0.500000 0.869338 0.485324
O O14 0.597239 0.905690 0.479518
O O15 0.438126 0.633958 0.750000
O O16 0.500000 0.631984 0.977882
O O17 0.861731 0.500000 0.500000
O O18 0.854027 0.445555 0.250000
#
# Coordination Sequence:
#
# PCOD9468619 Si02
#       6
#    16  16  16  16  16  16
#     4   8  14  28  49  67  85 116 157 193 223 262
#     4  10  20  33  50  70  92 121 154 188 226 268
#     4   9  17  30  47  66  88 116 153 192 226 264
#     4   8  15  28  46  68  93 122 156 191 227 270
#     4  10  20  32  47  70  98 123 147 181 226 273
#     4  10  18  28  45  68  94 124 155 188 228 273
#
# _framework density 16.105629
#
# number of rings (size 3 to 8) (size 9 to 14) (size 15 to 20)
#    0.000    2.833    0.000    4.000    0.000    3.667 
#    0.000    1.667    0.000    4.500    0.000    0.000 
#    0.000    0.000    0.000    0.000    0.000    0.000 
#
# Total GULP energy -267235.773582 kJ/mol
# GULP energy per Si atom -5567.411950 kJ/mol
# Density = 1.606897 g / cm^3
# Si number density = 16.105629 Si / 1000 Ang^3
#
#
#
# Elastic Constant Matrix: (Units=GPa)
#
#
# Indices 1 2 3 4 5 6 
#
# 1 114.6986 73.0767 40.9965 0.0000 0.0000 0.0000
# 2 73.0767 102.3324 34.4250 0.0000 0.0000 0.0000
# 3 40.9965 34.4250 48.1062 0.0000 0.0000 0.0000
# 4 0.0000 0.0000 0.0000 17.6309 0.0000 0.0000
# 5 0.0000 0.0000 0.0000 0.0000 20.1891 0.0000
# 6 0.0000 0.0000 0.0000 0.0000 0.0000 -3.2658
#
#
#
# Elastic Compliance Matrix: (Units=1/GPa)
#
#
# Indices 1 2 3 4 5 6 
#
# 1 0.018136 -0.010210 -0.008150 0.000000 0.000000 0.000000
# 2 -0.010210 0.018618 -0.004622 0.000000 0.000000 0.000000
# 3 -0.008150 -0.004622 0.031040 0.000000 0.000000 0.000000
# 4 0.000000 0.000000 0.000000 0.056719 0.000000 0.000000
# 5 0.000000 0.000000 0.000000 0.000000 0.049532 0.000000
# 6 0.000000 0.000000 0.000000 0.000000 0.000000 -0.306200
#
#
# Mechanical properties :
#
#
# Convention : Reuss Voigt Hill
#
# Bulk Modulus (GPa) = 45.80629 62.45928 54.13279
# Shear Modulus (GPa) = -63.35930 14.68677 -24.33627
#
# Velocity S-wave (km/s) = -6.27895 3.02305 -3.89143
# Velocity P-wave (km/s) = 4.90552 7.14495 3.67330
#
# Compressibility (1/GPa) = 0.02183106
#
# Stress axis : x y z
#
# Youngs Moduli (GPa) = 55.13824 53.71180 32.21617
#
# Poissons Ratio (x) = 0.54838 0.26255
# Poissons Ratio (y) = 0.56294 0.14891
# Poissons Ratio (z) = 0.44936 0.24827
#
# Static dielectric constant tensor:
#      x y z
#    x 1.560580 0.000000 0.000000 
#    y 0.000000 1.537230 0.000000 
#    z 0.000000 0.000000 1.542570 
# 
# From -- ./inp_files/10701.got.cif
#   From: 2010.05.17/outbox.cif.g08.bks.cpg/sg63_6_cif.got.tgz:10701.got - 2010.06.03 15:47:04.
