data_PCOD9468867
_publ_section_title
;
Structure prediction by ZEFSAII (Michael W. Deem and Ramdas Pophale) SiO2 
 PCOD9468867
Probable space group: C M C M
;
_chemical_formula_sum "Si O2"
_cell_formula_units_Z 116
_cell_length_a 7.298827
_cell_length_b 25.740029
_cell_length_c 30.211455
_cell_angle_alpha 90.000000
_cell_angle_beta 90.000000
_cell_angle_gamma 90.000000
_cell_volume 5675.887037
_symmetry_space_group_name_H-M "C M C M"
_symmetry_group_IT_number 63
_symmetry_cell_setting 'orthorhombic'
loop_
_space_group_symop_operation_xyz
x,y,z
-x,-y,1/2+z
x,-y,-z
-x,y,1/2-z
-x,-y,-z
x,y,1/2-z
-x,y,z
x,-y,1/2+z
1/2+x,1/2+y,z
1/2-x,1/2-y,1/2+z
1/2+x,1/2-y,-z
1/2-x,1/2+y,1/2-z
1/2-x,1/2-y,-z
1/2+x,1/2+y,1/2-z
1/2-x,1/2+y,z
1/2+x,1/2-y,1/2+z
loop_
_atom_site_type_symbol
_atom_site_label
_atom_site_fract_x
_atom_site_fract_y
_atom_site_fract_z
Si Si1 0.287045 0.724545 0.201360
Si Si2 0.222036 0.545482 0.386737
Si Si3 0.721395 0.101917 0.201244
Si Si4 0.777487 0.236687 0.104536
Si Si5 0.779538 0.331686 0.045261
Si Si6 0.218627 0.445177 0.436416
Si Si7 0.000000 0.000000 0.000000
Si Si8 0.787664 0.634588 0.449535
O O1 0.207963 0.737340 0.250000
O O2 0.500000 0.739785 0.202806
O O3 0.278616 0.661899 0.196936
O O4 0.212324 0.745392 0.154862
O O5 0.285742 0.567926 0.340002
O O6 0.267157 0.486337 0.398102
O O7 0.290830 0.583080 0.426311
O O8 0.000000 0.549388 0.386569
O O9 0.779478 0.083539 0.250000
O O10 0.500000 0.101846 0.200438
O O11 0.712921 0.280751 0.070439
O O12 0.721023 0.180420 0.086467
O O13 0.000000 0.236847 0.105321
O O14 0.744894 0.384679 0.072120
O O15 0.000000 0.325098 0.042011
O O16 0.710919 0.342727 0.995404
O O17 0.339541 0.463392 0.477353
O O18 0.000000 0.450146 0.445388
O O19 0.000000 0.622238 0.459101
#
# Coordination Sequence:
#
# PCOD9468867 Si02
#       8
#    16  16  16  16  16  16   4  16
#     4   9  17  29  45  69 100 129 161 209 265 312
#     4   9  17  31  52  73 101 136 169 207 272 318
#     4   9  16  28  48  73 100 128 165 211 258 319
#     4  10  19  32  48  71  97 133 172 206 252 314
#     4   9  19  35  52  66  96 140 176 204 252 306
#     4  10  21  39  56  75 108 143 173 226 269 305
#     4  12  22  36  56  86 102 128 194 220 260 316
#     4  10  18  30  47  71  97 127 165 206 250 306
#
# _framework density 20.437332999999999
#
# number of rings (size 3 to 8) (size 9 to 14) (size 15 to 20)
#    0.000    2.483    1.379    1.448    0.000    2.207 
#    7.448    0.000    0.000    0.828    0.000    5.793 
#    0.000    0.000    0.000    0.000    0.000    0.000 
#
# Total GULP energy -323172.393566 kJ/mol
# GULP energy per Si atom -5571.937820 kJ/mol
# Density = 2.039082 g / cm^3
# Si number density = 20.437333 Si / 1000 Ang^3
#
#
#
# Elastic Constant Matrix: (Units=GPa)
#
#
# Indices 1 2 3 4 5 6 
#
# 1 88.0547 -9.8507 -8.2653 0.0000 0.0000 0.0000
# 2 -9.8507 34.3474 8.6320 0.0000 0.0000 0.0000
# 3 -8.2653 8.6320 128.3833 0.0000 0.0000 0.0000
# 4 0.0000 0.0000 0.0000 21.1796 0.0000 0.0000
# 5 0.0000 0.0000 0.0000 0.0000 -24.4157 0.0000
# 6 0.0000 0.0000 0.0000 0.0000 0.0000 4.7618
#
#
#
# Elastic Compliance Matrix: (Units=1/GPa)
#
#
# Indices 1 2 3 4 5 6 
#
# 1 0.011770 0.003240 0.000540 0.000000 0.000000 0.000000
# 2 0.003240 0.030506 -0.001843 0.000000 0.000000 0.000000
# 3 0.000540 -0.001843 0.007948 0.000000 0.000000 0.000000
# 4 0.000000 0.000000 0.000000 0.047215 0.000000 0.000000
# 5 0.000000 0.000000 0.000000 0.000000 -0.040957 0.000000
# 6 0.000000 0.000000 0.000000 0.000000 0.000000 0.210005
#
#
# Mechanical properties :
#
#
# Convention : Reuss Voigt Hill
#
# Bulk Modulus (GPa) = 18.48489 25.75751 22.12120
# Shear Modulus (GPa) = 17.81611 17.65644 17.73628
#
# Velocity S-wave (km/s) = 2.95573 2.94246 2.94910
# Velocity P-wave (km/s) = 4.55113 4.91677 4.73748
#
# Compressibility (1/GPa) = 0.05409825
#
# Stress axis : x y z
#
# Youngs Moduli (GPa) = 84.96401 32.77991 125.82065
#
# Poissons Ratio (x) = -0.10620 -0.06793
# Poissons Ratio (y) = -0.27527 0.23183
# Poissons Ratio (z) = -0.04587 0.06040
#
# Static dielectric constant tensor:
#      x y z
#    x 1.793780 0.000000 0.000000 
#    y 0.000000 1.694410 0.000000 
#    z 0.000000 0.000000 1.766930 
# 
# From -- ./inp_files/72255.got.cif
#   From: 2010.05.17/outbox.cif.g08.bks.cpg/sg63_37_cif.got.tgz:72255.got - 2010.06.03 15:47:04.
