data_PCOD9468471
_publ_section_title
;
Structure prediction by ZEFSAII (Michael W. Deem and Ramdas Pophale) SiO2 
 PCOD9468471
Probable space group: C M C M
;
_chemical_formula_sum "Si O2"
_cell_formula_units_Z 112
_cell_length_a 25.020762
_cell_length_b 14.046616
_cell_length_c 18.369943
_cell_angle_alpha 90.000000
_cell_angle_beta 90.000000
_cell_angle_gamma 90.000000
_cell_volume 6456.245715
_symmetry_space_group_name_H-M "C M C M"
_symmetry_group_IT_number 63
_symmetry_cell_setting 'orthorhombic'
loop_
_space_group_symop_operation_xyz
x,y,z
-x,-y,1/2+z
x,-y,-z
-x,y,1/2-z
-x,-y,-z
x,y,1/2-z
-x,y,z
x,-y,1/2+z
1/2+x,1/2+y,z
1/2-x,1/2-y,1/2+z
1/2+x,1/2-y,-z
1/2-x,1/2+y,1/2-z
1/2-x,1/2-y,-z
1/2+x,1/2+y,1/2-z
1/2-x,1/2+y,z
1/2+x,1/2-y,1/2+z
loop_
_atom_site_type_symbol
_atom_site_label
_atom_site_fract_x
_atom_site_fract_y
_atom_site_fract_z
Si Si1 0.058387 0.378694 0.379516
Si Si2 0.670558 0.284856 0.510918
Si Si3 0.234056 0.598144 0.470087
Si Si4 0.169019 0.700813 0.832301
Si Si5 0.088797 0.586406 0.334402
Si Si6 0.710291 0.989356 0.831447
Si Si7 0.561431 0.219217 0.467462
O O1 0.106914 0.330315 0.337061
O O2 0.060951 0.489913 0.361879
O O3 0.065844 0.356550 0.465440
O O4 0.000000 0.341348 0.358810
O O5 0.711303 0.369090 0.491464
O O6 0.694318 0.187040 0.476645
O O7 0.676285 0.267632 0.597896
O O8 0.609354 0.292278 0.486143
O O9 0.209277 0.500000 0.500000
O O10 0.245708 0.566774 0.388139
O O11 0.181336 0.733761 0.750000
O O12 0.201301 0.601861 0.845936
O O13 0.074944 0.606120 0.250000
O O14 0.151725 0.559709 0.336578
O O15 0.073856 0.668584 0.390928
O O16 0.730251 0.980108 0.750000
O O17 0.500000 0.254093 0.467907
#
# Coordination Sequence:
#
# PCOD9468471 Si02
#       7
#    16  16  16  16  16  16  16
#     4   9  17  26  39  62  92 129 165 194 228 281
#     4  10  21  33  51  75  95 128 169 201 247 291
#     4  11  20  34  54  72  96 129 165 208 245 292
#     4   9  17  29  45  67  97 128 158 195 237 290
#     4  10  18  26  39  64  97 130 164 194 231 293
#     4   9  17  29  46  68  98 131 157 195 245 290
#     4  10  19  31  46  65  96 129 161 203 244 288
#
# _framework density 17.347543999999999
#
# number of rings (size 3 to 8) (size 9 to 14) (size 15 to 20)
#    0.000    2.286    2.857    2.143    0.000    3.714 
#    0.000    0.000    0.000    1.286    0.000    0.000 
#    0.000    0.000    0.000    0.143    0.000    0.000 
#
# Total GULP energy -311902.992185 kJ/mol
# GULP energy per Si atom -5569.696289 kJ/mol
# Density = 1.730806 g / cm^3
# Si number density = 17.347544 Si / 1000 Ang^3
#
#
#
# Elastic Constant Matrix: (Units=GPa)
#
#
# Indices 1 2 3 4 5 6 
#
# 1 57.6605 10.0084 -0.3716 0.0000 0.0000 0.0000
# 2 10.0084 19.2161 0.3432 0.0000 0.0000 0.0000
# 3 -0.3716 0.3432 66.5305 0.0000 0.0000 0.0000
# 4 0.0000 0.0000 0.0000 8.8489 0.0000 0.0000
# 5 0.0000 0.0000 0.0000 0.0000 11.9048 0.0000
# 6 0.0000 0.0000 0.0000 0.0000 0.0000 14.5883
#
#
#
# Elastic Compliance Matrix: (Units=1/GPa)
#
#
# Indices 1 2 3 4 5 6 
#
# 1 0.019068 -0.009934 0.000158 0.000000 0.000000 0.000000
# 2 -0.009934 0.057220 -0.000351 0.000000 0.000000 0.000000
# 3 0.000158 -0.000351 0.015033 0.000000 0.000000 0.000000
# 4 0.000000 0.000000 0.000000 0.113009 0.000000 0.000000
# 5 0.000000 0.000000 0.000000 0.000000 0.084000 0.000000
# 6 0.000000 0.000000 0.000000 0.000000 0.000000 0.068548
#
#
# Mechanical properties :
#
#
# Convention : Reuss Voigt Hill
#
# Bulk Modulus (GPa) = 14.07114 18.15193 16.11154
# Shear Modulus (GPa) = 12.47437 15.96353 14.21895
#
# Velocity S-wave (km/s) = 2.68449 3.03680 2.86606
# Velocity P-wave (km/s) = 4.21160 4.77311 4.50112
#
# Compressibility (1/GPa) = 0.07106742
#
# Stress axis : x y z
#
# Youngs Moduli (GPa) = 52.44321 17.47634 66.51861
#
# Poissons Ratio (x) = 0.17361 -0.01049
# Poissons Ratio (y) = 0.52099 0.02333
# Poissons Ratio (z) = -0.00827 0.00613
#
# Static dielectric constant tensor:
#      x y z
#    x 1.619010 0.000000 0.000000 
#    y 0.000000 1.576830 0.000000 
#    z 0.000000 0.000000 1.660830 
# 
# From -- ./inp_files/58304.got.cif
#   From: 2010.05.17/outbox.cif.g08.bks.cpg/sg63_30_cif.got.tgz:58304.got - 2010.06.03 15:47:04.
