data_PCOD9468702
_publ_section_title
;
Structure prediction by ZEFSAII (Michael W. Deem and Ramdas Pophale) SiO2 
 PCOD9468702
Probable space group: C M C M
;
_chemical_formula_sum "Si O2"
_cell_formula_units_Z 88
_cell_length_a 21.193770
_cell_length_b 27.550351
_cell_length_c 8.339199
_cell_angle_alpha 90.000000
_cell_angle_beta 90.000000
_cell_angle_gamma 90.000000
_cell_volume 4869.223292
_symmetry_space_group_name_H-M "C M C M"
_symmetry_group_IT_number 63
_symmetry_cell_setting 'orthorhombic'
loop_
_space_group_symop_operation_xyz
x,y,z
-x,-y,1/2+z
x,-y,-z
-x,y,1/2-z
-x,-y,-z
x,y,1/2-z
-x,y,z
x,-y,1/2+z
1/2+x,1/2+y,z
1/2-x,1/2-y,1/2+z
1/2+x,1/2-y,-z
1/2-x,1/2+y,1/2-z
1/2-x,1/2-y,-z
1/2+x,1/2+y,1/2-z
1/2-x,1/2+y,z
1/2+x,1/2-y,1/2+z
loop_
_atom_site_type_symbol
_atom_site_label
_atom_site_fract_x
_atom_site_fract_y
_atom_site_fract_z
Si Si1 0.500000 0.055941 0.559505
Si Si2 0.362760 0.328608 0.554894
Si Si3 0.730825 0.134975 0.057595
Si Si4 0.863951 0.284775 0.441339
Si Si5 0.000000 0.174823 0.055130
Si Si6 0.134181 0.444629 0.941952
Si Si7 0.000000 0.713980 0.060800
O O1 0.500000 0.056916 0.750000
O O2 0.433776 0.076023 0.496568
O O3 0.500000 0.000000 0.500000
O O4 0.360893 0.329087 0.750000
O O5 0.301829 0.357540 0.495527
O O6 0.358024 0.271741 0.507616
O O7 0.432468 0.347404 0.508359
O O8 0.734463 0.130134 0.250000
O O9 0.690853 0.089105 0.996655
O O10 0.689728 0.182455 0.018782
O O11 0.857981 0.286451 0.250000
O O12 0.933754 0.303477 0.488329
O O13 0.000000 0.179997 0.250000
O O14 0.000000 0.228690 0.981937
O O15 0.134277 0.444913 0.750000
O O16 0.140105 0.500000 0.000000
O O17 0.000000 0.706032 0.250000
#
# Coordination Sequence:
#
# PCOD9468702 Si02
#       7
#     8  16  16  16   8  16   8
#     4  10  18  31  52  71  90 117 152 192 232 273
#     4   8  15  29  48  70  95 122 153 188 228 272
#     4  10  20  32  47  69  95 123 154 190 233 279
#     4  10  19  31  47  67  94 126 158 193 229 270
#     4   8  14  28  49  69  91 120 154 192 229 270
#     4  10  20  34  51  69  92 120 153 192 231 271
#     4  10  18  29  45  64  91 127 163 196 228 265
#
# _framework density 18.072697000000002
#
# number of rings (size 3 to 8) (size 9 to 14) (size 15 to 20)
#    0.000    2.545    0.000    5.455    0.000    2.182 
#    0.000    4.545    0.000    0.000    0.000    0.636 
#    0.000    0.000    0.000    0.000    0.000    0.000 
#
# Total GULP energy -245300.287008 kJ/mol
# GULP energy per Si atom -5575.006523 kJ/mol
# Density = 1.803156 g / cm^3
# Si number density = 18.072697 Si / 1000 Ang^3
#
#
#
# Elastic Constant Matrix: (Units=GPa)
#
#
# Indices 1 2 3 4 5 6 
#
# 1 188.3992 62.7515 1.3283 0.0000 0.0000 0.0000
# 2 62.7515 58.4023 10.3515 0.0000 0.0000 0.0000
# 3 1.3283 10.3515 18.4812 0.0000 0.0000 0.0000
# 4 0.0000 0.0000 0.0000 11.7510 0.0000 0.0000
# 5 0.0000 0.0000 0.0000 0.0000 14.0615 0.0000
# 6 0.0000 0.0000 0.0000 0.0000 0.0000 38.5766
#
#
#
# Elastic Compliance Matrix: (Units=1/GPa)
#
#
# Indices 1 2 3 4 5 6 
#
# 1 0.008680 -0.010231 0.005107 0.000000 0.000000 0.000000
# 2 -0.010231 0.031070 -0.016667 0.000000 0.000000 0.000000
# 3 0.005107 -0.016667 0.063078 0.000000 0.000000 0.000000
# 4 0.000000 0.000000 0.000000 0.085099 0.000000 0.000000
# 5 0.000000 0.000000 0.000000 0.000000 0.071116 0.000000
# 6 0.000000 0.000000 0.000000 0.000000 0.000000 0.025922
#
#
# Mechanical properties :
#
#
# Convention : Reuss Voigt Hill
#
# Bulk Modulus (GPa) = 16.87940 46.01615 31.44777
# Shear Modulus (GPa) = 14.35560 25.60126 19.97843
#
# Velocity S-wave (km/s) = 2.82144 3.76782 3.32844
# Velocity P-wave (km/s) = 4.46923 6.66675 5.67537
#
# Compressibility (1/GPa) = 0.05924383
#
# Stress axis : x y z
#
# Youngs Moduli (GPa) = 115.21205 32.18551 15.85347
#
# Poissons Ratio (x) = 0.32930 -0.08096
# Poissons Ratio (y) = 1.17875 0.26423
# Poissons Ratio (z) = -0.58836 0.53645
#
# Static dielectric constant tensor:
#      x y z
#    x 1.677310 0.000000 0.000000 
#    y 0.000000 1.616240 0.000000 
#    z 0.000000 0.000000 1.610060 
# 
# From -- ./inp_files/9030.got.cif
#   From: 2010.05.17/outbox.cif.g08.bks.cpg/sg63_5_cif.got.tgz:9030.got - 2010.06.03 15:47:04.
