data_PCOD9468454
_publ_section_title
;
Structure prediction by ZEFSAII (Michael W. Deem and Ramdas Pophale) SiO2 
 PCOD9468454
Probable space group: C M C M
;
_chemical_formula_sum "Si O2"
_cell_formula_units_Z 92
_cell_length_a 11.920166
_cell_length_b 20.046145
_cell_length_c 18.366971
_cell_angle_alpha 90.000000
_cell_angle_beta 90.000000
_cell_angle_gamma 90.000000
_cell_volume 4388.849728
_symmetry_space_group_name_H-M "C M C M"
_symmetry_group_IT_number 63
_symmetry_cell_setting 'orthorhombic'
loop_
_space_group_symop_operation_xyz
x,y,z
-x,-y,1/2+z
x,-y,-z
-x,y,1/2-z
-x,-y,-z
x,y,1/2-z
-x,y,z
x,-y,1/2+z
1/2+x,1/2+y,z
1/2-x,1/2-y,1/2+z
1/2+x,1/2-y,-z
1/2-x,1/2+y,1/2-z
1/2-x,1/2-y,-z
1/2+x,1/2+y,1/2-z
1/2-x,1/2+y,z
1/2+x,1/2-y,1/2+z
loop_
_atom_site_type_symbol
_atom_site_label
_atom_site_fract_x
_atom_site_fract_y
_atom_site_fract_z
Si Si1 0.169625 0.739860 0.884876
Si Si2 0.246220 0.396130 0.165149
Si Si3 0.000000 0.104246 0.620844
Si Si4 0.000000 0.764381 0.750000
Si Si5 0.000000 0.813555 0.981459
Si Si6 0.629064 0.175891 0.161491
Si Si7 0.748539 0.543419 0.164224
Si Si8 0.000000 0.950249 0.609843
O O1 0.184403 0.660437 0.880854
O O2 0.096803 0.762212 0.814572
O O3 0.292388 0.769293 0.873678
O O4 0.106710 0.771538 0.953626
O O5 0.211134 0.389143 0.250000
O O6 0.382153 0.390761 0.163073
O O7 0.222107 0.470184 0.135332
O O8 0.000000 0.164387 0.564171
O O9 0.000000 0.028634 0.585967
O O10 0.000000 0.886765 0.942903
O O11 0.638196 0.179914 0.250000
O O12 0.500000 0.182322 0.142283
O O13 0.679080 0.104739 0.136601
O O14 0.769108 0.539038 0.250000
O O15 0.616255 0.556540 0.153537
#
# Coordination Sequence:
#
# PCOD9468454 Si02
#       8
#    16  16   8   4   8  16  16   8
#     4  11  21  35  59  84 117 151 190 241 287 349
#     4  10  20  38  57  86 114 153 194 237 298 345
#     4  10  23  37  60  86 120 155 192 249 293 349
#     4  10  20  36  52  90 116 144 190 234 292 336
#     4  11  23  37  57  90 115 154 199 240 299 349
#     4  10  19  32  50  81 115 149 184 231 294 348
#     4   9  18  31  52  83 116 147 187 240 294 344
#     4  10  17  35  59  82 113 151 198 241 291 341
#
# _framework density 20.962212999999998
#
# number of rings (size 3 to 8) (size 9 to 14) (size 15 to 20)
#    0.000    1.913    3.478    0.783    1.217    2.783 
#    3.130    0.000    0.000    0.000    0.000    4.870 
#    0.000    0.000    0.000    0.000    0.000    0.000 
#
# Total GULP energy -256285.544831 kJ/mol
# GULP energy per Si atom -5571.424888 kJ/mol
# Density = 2.091450 g / cm^3
# Si number density = 20.962213 Si / 1000 Ang^3
#
#
#
# Elastic Constant Matrix: (Units=GPa)
#
#
# Indices 1 2 3 4 5 6 
#
# 1 100.6049 33.7053 1.1024 0.0000 0.0000 0.0000
# 2 33.7053 108.6129 16.4380 0.0000 0.0000 0.0000
# 3 1.1024 16.4380 15.5415 0.0000 0.0000 0.0000
# 4 0.0000 0.0000 0.0000 15.6862 0.0000 0.0000
# 5 0.0000 0.0000 0.0000 0.0000 -20.6620 0.0000
# 6 0.0000 0.0000 0.0000 0.0000 0.0000 9.6338
#
#
#
# Elastic Compliance Matrix: (Units=1/GPa)
#
#
# Indices 1 2 3 4 5 6 
#
# 1 0.011246 -0.004011 0.003445 0.000000 0.000000 0.000000
# 2 -0.004011 0.012392 -0.012823 0.000000 0.000000 0.000000
# 3 0.003445 -0.012823 0.077662 0.000000 0.000000 0.000000
# 4 0.000000 0.000000 0.000000 0.063750 0.000000 0.000000
# 5 0.000000 0.000000 0.000000 0.000000 -0.048398 0.000000
# 6 0.000000 0.000000 0.000000 0.000000 0.000000 0.103802
#
#
# Mechanical properties :
#
#
# Convention : Reuss Voigt Hill
#
# Bulk Modulus (GPa) = 13.41886 36.36121 24.89003
# Shear Modulus (GPa) = 18.37744 12.49918 15.43831
#
# Velocity S-wave (km/s) = 2.96411 2.44452 2.71677
# Velocity P-wave (km/s) = 4.25793 5.03501 4.66268
#
# Compressibility (1/GPa) = 0.07452201
#
# Stress axis : x y z
#
# Youngs Moduli (GPa) = 88.92038 80.69413 12.87636
#
# Poissons Ratio (x) = 0.32369 -0.04436
# Poissons Ratio (y) = 0.35669 0.16511
# Poissons Ratio (z) = -0.30633 1.03472
#
# Static dielectric constant tensor:
#      x y z
#    x 1.726840 0.000000 0.000000 
#    y 0.000000 1.798040 0.000000 
#    z 0.000000 0.000000 1.747930 
# 
# From -- ./inp_files/42350.got.cif
#   From: 2010.05.17/outbox.cif.g08.bks.cpg/sg63_22_cif.got.tgz:42350.got - 2010.06.03 15:47:04.
