data_PCOD9468536
_publ_section_title
;
Structure prediction by ZEFSAII (Michael W. Deem and Ramdas Pophale) SiO2 
 PCOD9468536
Probable space group: C M C M
;
_chemical_formula_sum "Si O2"
_cell_formula_units_Z 80
_cell_length_a 7.496606
_cell_length_b 17.674713
_cell_length_c 28.040304
_cell_angle_alpha 90.000000
_cell_angle_beta 90.000000
_cell_angle_gamma 90.000000
_cell_volume 3715.350361
_symmetry_space_group_name_H-M "C M C M"
_symmetry_group_IT_number 63
_symmetry_cell_setting 'orthorhombic'
loop_
_space_group_symop_operation_xyz
x,y,z
-x,-y,1/2+z
x,-y,-z
-x,y,1/2-z
-x,-y,-z
x,y,1/2-z
-x,y,z
x,-y,1/2+z
1/2+x,1/2+y,z
1/2-x,1/2-y,1/2+z
1/2+x,1/2-y,-z
1/2-x,1/2+y,1/2-z
1/2-x,1/2-y,-z
1/2+x,1/2+y,1/2-z
1/2-x,1/2+y,z
1/2+x,1/2-y,1/2+z
loop_
_atom_site_type_symbol
_atom_site_label
_atom_site_fract_x
_atom_site_fract_y
_atom_site_fract_z
Si Si1 0.714348 0.161568 0.698763
Si Si2 0.282358 0.660112 0.301245
Si Si3 0.281877 0.587103 0.998218
Si Si4 0.791034 0.173786 0.595569
Si Si5 0.203889 0.152688 0.096878
O O1 0.776392 0.129113 0.750000
O O2 0.500000 0.158644 0.698881
O O3 0.766268 0.250681 0.699168
O O4 0.772447 0.132950 0.646915
O O5 0.225076 0.627545 0.250000
O O6 0.500000 0.657558 0.302232
O O7 0.217154 0.628382 0.351880
O O8 0.500000 0.590641 0.997316
O O9 0.217333 0.626535 0.046800
O O10 0.230405 0.500000 0.000000
O O11 0.222528 0.627196 0.949591
O O12 0.701784 0.256103 0.597555
O O13 0.000000 0.188720 0.588453
O O14 0.000000 0.124478 0.096796
#
# Coordination Sequence:
#
# PCOD9468536 Si02
#       5
#    16  16  16  16  16
#     4   8  14  26  44  65  90 119 148 177 214 267
#     4   7  10  18  35  60  83 101 130 173 213 247
#     4   9  18  31  45  62  87 122 159 191 227 268
#     4  10  18  27  44  69  94 117 145 188 232 267
#     4   9  16  28  47  65  85 117 153 188 223 267
#
# _framework density 21.53229
#
# number of rings (size 3 to 8) (size 9 to 14) (size 15 to 20)
#    0.000    3.400    0.000    3.600    0.000    0.400 
#    0.000    1.000    0.000    6.600    0.000    5.600 
#    0.000    0.000    0.000    0.000    0.000    0.000 
#
# Total GULP energy -222698.403116 kJ/mol
# GULP energy per Si atom -5567.460078 kJ/mol
# Density = 2.148328 g / cm^3
# Si number density = 21.532290 Si / 1000 Ang^3
#
#
#
# Elastic Constant Matrix: (Units=GPa)
#
#
# Indices 1 2 3 4 5 6 
#
# 1 60.1167 -7.2109 2.3148 0.0000 0.0000 0.0000
# 2 -7.2109 23.3636 52.5560 0.0000 0.0000 0.0000
# 3 2.3148 52.5560 291.8699 0.0000 0.0000 0.0000
# 4 0.0000 0.0000 0.0000 -8.9490 0.0000 0.0000
# 5 0.0000 0.0000 0.0000 0.0000 14.5193 0.0000
# 6 0.0000 0.0000 0.0000 0.0000 0.0000 6.7291
#
#
#
# Elastic Compliance Matrix: (Units=1/GPa)
#
#
# Indices 1 2 3 4 5 6 
#
# 1 0.017885 0.009815 -0.001909 0.000000 0.000000 0.000000
# 2 0.009815 0.077328 -0.014002 0.000000 0.000000 0.000000
# 3 -0.001909 -0.014002 0.005963 0.000000 0.000000 0.000000
# 4 0.000000 0.000000 0.000000 -0.111745 0.000000 0.000000
# 5 0.000000 0.000000 0.000000 0.000000 0.068874 0.000000
# 6 0.000000 0.000000 0.000000 0.000000 0.000000 0.148609
#
#
# Mechanical properties :
#
#
# Convention : Reuss Voigt Hill
#
# Bulk Modulus (GPa) = 11.23818 52.29666 31.76742
# Shear Modulus (GPa) = 20.09912 24.30591 22.20252
#
# Velocity S-wave (km/s) = 3.05854 3.36343 3.21460
# Velocity P-wave (km/s) = 4.20755 6.27884 5.34449
#
# Compressibility (1/GPa) = 0.08898241
#
# Stress axis : x y z
#
# Youngs Moduli (GPa) = 55.91254 12.93196 167.71179
#
# Poissons Ratio (x) = -0.12692 0.32018
# Poissons Ratio (y) = -0.54876 2.34830
# Poissons Ratio (z) = 0.10674 0.18107
#
# Static dielectric constant tensor:
#      x y z
#    x 1.870350 0.000000 0.000000 
#    y 0.000000 1.708200 0.000000 
#    z 0.000000 0.000000 1.883050 
# 
# From -- ./inp_files/72885.got.cif
#   From: 2010.05.17/outbox.cif.g08.bks.cpg/sg63_37_cif.got.tgz:72885.got - 2010.06.03 15:47:04.
