data_PCOD9468939
_publ_section_title
;
Structure prediction by ZEFSAII (Michael W. Deem and Ramdas Pophale) SiO2 
 PCOD9468939
Probable space group: C M C M
;
_chemical_formula_sum "Si O2"
_cell_formula_units_Z 104
_cell_length_a 18.042058
_cell_length_b 14.145470
_cell_length_c 20.260667
_cell_angle_alpha 90.000000
_cell_angle_beta 90.000000
_cell_angle_gamma 90.000000
_cell_volume 5170.793512
_symmetry_space_group_name_H-M "C M C M"
_symmetry_group_IT_number 63
_symmetry_cell_setting 'orthorhombic'
loop_
_space_group_symop_operation_xyz
x,y,z
-x,-y,1/2+z
x,-y,-z
-x,y,1/2-z
-x,-y,-z
x,y,1/2-z
-x,y,z
x,-y,1/2+z
1/2+x,1/2+y,z
1/2-x,1/2-y,1/2+z
1/2+x,1/2-y,-z
1/2-x,1/2+y,1/2-z
1/2-x,1/2-y,-z
1/2+x,1/2+y,1/2-z
1/2-x,1/2+y,z
1/2+x,1/2-y,1/2+z
loop_
_atom_site_type_symbol
_atom_site_label
_atom_site_fract_x
_atom_site_fract_y
_atom_site_fract_z
Si Si1 0.350944 0.173923 0.250000
Si Si2 0.182355 0.758467 0.750000
Si Si3 0.421799 0.954803 0.571401
Si Si4 0.782692 0.567039 0.607885
Si Si5 0.371867 0.233814 0.392487
Si Si6 0.705851 0.956198 0.250000
Si Si7 0.807657 0.781050 0.895792
Si Si8 0.357620 0.404602 0.020358
O O1 0.271756 0.228630 0.250000
O O2 0.390057 0.208511 0.316841
O O3 0.333751 0.059928 0.250000
O O4 0.161692 0.645839 0.750000
O O5 0.163213 0.803374 0.678546
O O6 0.500000 0.978404 0.605219
O O7 0.413443 0.843537 0.564652
O O8 0.421578 0.000000 0.500000
O O9 0.348227 0.992054 0.605600
O O10 0.750077 0.554904 0.681493
O O11 0.820184 0.668914 0.596658
O O12 0.718999 0.559533 0.554427
O O13 0.282628 0.215299 0.398610
O O14 0.388726 0.335499 0.423086
O O15 0.839925 0.842207 0.955325
O O16 0.399293 0.500000 0.000000
#
# Coordination Sequence:
#
# PCOD9468939 Si02
#       8
#     8   8  16  16  16   8  16  16
#     4  10  18  32  50  66  98 141 172 210 258 306
#     4   8  18  28  44  70  98 126 178 197 254 322
#     4  11  21  32  50  75 105 140 172 210 258 314
#     4  10  18  32  49  72 102 134 176 206 255 316
#     4  10  19  34  47  70 100 134 176 212 252 308
#     4  10  18  30  50  68  96 147 166 209 260 308
#     4   9  17  31  49  71  97 134 164 212 257 300
#     4  11  21  30  50  74  99 132 173 218 266 299
#
# _framework density 20.112966
#
# number of rings (size 3 to 8) (size 9 to 14) (size 15 to 20)
#    0.000    2.000    1.538    6.000    2.154    0.000 
#    0.000    1.538    0.000    0.462    0.000    0.000 
#    0.000    0.000    0.000    4.308    0.000    0.000 
#
# Total GULP energy -289502.322082 kJ/mol
# GULP energy per Si atom -5567.352348 kJ/mol
# Density = 2.006719 g / cm^3
# Si number density = 20.112966 Si / 1000 Ang^3
#
#
#
# Elastic Constant Matrix: (Units=GPa)
#
#
# Indices 1 2 3 4 5 6 
#
# 1 16.7239 14.9505 -5.0480 0.0000 0.0000 0.0000
# 2 14.9505 133.1744 59.1822 0.0000 0.0000 0.0000
# 3 -5.0480 59.1822 146.5976 0.0000 0.0000 0.0000
# 4 0.0000 0.0000 0.0000 24.4783 0.0000 0.0000
# 5 0.0000 0.0000 0.0000 0.0000 -6.7026 0.0000
# 6 0.0000 0.0000 0.0000 0.0000 0.0000 -24.1600
#
#
#
# Elastic Compliance Matrix: (Units=1/GPa)
#
#
# Indices 1 2 3 4 5 6 
#
# 1 0.071895 -0.011176 0.006988 0.000000 0.000000 0.000000
# 2 -0.011176 0.010888 -0.004780 0.000000 0.000000 0.000000
# 3 0.006988 -0.004780 0.008992 0.000000 0.000000 0.000000
# 4 0.000000 0.000000 0.000000 0.040853 0.000000 0.000000
# 5 0.000000 0.000000 0.000000 0.000000 -0.149195 0.000000
# 6 0.000000 0.000000 0.000000 0.000000 0.000000 -0.041391
#
#
# Mechanical properties :
#
#
# Convention : Reuss Voigt Hill
#
# Bulk Modulus (GPa) = 13.54338 48.29615 30.91977
# Shear Modulus (GPa) = -324.52198 13.88388 -155.31905
#
# Velocity S-wave (km/s) = -12.71613 2.63020 -8.79721
# Velocity P-wave (km/s) = 14.45170 5.76962 9.36918
#
# Compressibility (1/GPa) = 0.07383681
#
# Stress axis : x y z
#
# Youngs Moduli (GPa) = 13.90911 91.84393 111.21149
#
# Poissons Ratio (x) = 1.02649 -0.77711
# Poissons Ratio (y) = 0.15545 0.53164
# Poissons Ratio (z) = -0.09719 0.43905
#
# Static dielectric constant tensor:
#      x y z
#    x 1.710800 0.000000 0.000000 
#    y 0.000000 1.776480 0.000000 
#    z 0.000000 0.000000 1.762560 
# 
# From -- ./inp_files/56789.got.cif
#   From: 2010.05.17/outbox.cif.g08.bks.cpg/sg63_29_cif.got.tgz:56789.got - 2010.06.03 15:47:04.
