data_PCOD9468275
_publ_section_title
;
Structure prediction by ZEFSAII (Michael W. Deem and Ramdas Pophale) SiO2 
 PCOD9468275
Probable space group: C M C M
;
_chemical_formula_sum "Si O2"
_cell_formula_units_Z 112
_cell_length_a 19.916859
_cell_length_b 18.178763
_cell_length_c 13.660907
_cell_angle_alpha 90.000000
_cell_angle_beta 90.000000
_cell_angle_gamma 90.000000
_cell_volume 4946.120712
_symmetry_space_group_name_H-M "C M C M"
_symmetry_group_IT_number 63
_symmetry_cell_setting 'orthorhombic'
loop_
_space_group_symop_operation_xyz
x,y,z
-x,-y,1/2+z
x,-y,-z
-x,y,1/2-z
-x,-y,-z
x,y,1/2-z
-x,y,z
x,-y,1/2+z
1/2+x,1/2+y,z
1/2-x,1/2-y,1/2+z
1/2+x,1/2-y,-z
1/2-x,1/2+y,1/2-z
1/2-x,1/2-y,-z
1/2+x,1/2+y,1/2-z
1/2-x,1/2+y,z
1/2+x,1/2-y,1/2+z
loop_
_atom_site_type_symbol
_atom_site_label
_atom_site_fract_x
_atom_site_fract_y
_atom_site_fract_z
Si Si1 0.285086 0.689725 0.868029
Si Si2 0.853076 0.770624 0.631962
Si Si3 0.694499 0.422406 0.641358
Si Si4 0.711160 0.956873 0.129605
Si Si5 0.072990 0.976631 0.387571
Si Si6 0.927964 0.800407 0.134992
Si Si7 0.575527 0.123436 0.630463
O O1 0.292011 0.684929 0.750000
O O2 0.221481 0.740270 0.886838
O O3 0.262390 0.608466 0.900275
O O4 0.355397 0.722186 0.905463
O O5 0.865115 0.774421 0.750000
O O6 0.846755 0.854435 0.595745
O O7 0.904090 0.706711 0.599587
O O8 0.716200 0.396705 0.750000
O O9 0.759078 0.464245 0.597770
O O10 0.638715 0.485229 0.652459
O O11 0.711593 0.958108 0.250000
O O12 0.636331 0.931068 0.100574
O O13 0.074947 0.889393 0.371243
O O14 0.000000 0.002602 0.351131
O O15 0.074358 0.000000 0.500000
O O16 0.929997 0.780070 0.250000
O O17 0.000000 0.777604 0.091215
O O18 0.575909 0.122675 0.750000
O O19 0.500000 0.104813 0.598193
#
# Coordination Sequence:
#
# PCOD9468275 Si02
#       7
#    16  16  16  16  16  16  16
#     4   8  12  22  37  56  80 104 132 169 204 235
#     4   8  15  23  36  59  85 108 128 159 209 253
#     4  10  17  27  43  63  84 109 140 172 206 248
#     4   8  13  21  36  56  76 104 138 168 197 231
#     4  10  20  30  39  57  87 115 135 164 210 252
#     4   9  15  24  42  63  78 102 144 178 196 230
#     4   8  13  22  35  54  82 110 132 158 201 253
#
# _framework density 22.644010000000002
#
# number of rings (size 3 to 8) (size 9 to 14) (size 15 to 20)
#    0.000    3.286    1.429    2.143    0.000    1.429 
#    0.000    1.429    0.000    1.714    0.000    6.000 
#    0.000    0.571    0.000    0.000    0.000    0.000 
#
# Total GULP energy -312032.692214 kJ/mol
# GULP energy per Si atom -5572.012361 kJ/mol
# Density = 2.259247 g / cm^3
# Si number density = 22.644010 Si / 1000 Ang^3
#
#
#
# Elastic Constant Matrix: (Units=GPa)
#
#
# Indices 1 2 3 4 5 6 
#
# 1 165.5592 16.4448 3.5500 0.0000 0.0000 0.0000
# 2 16.4448 47.8273 -3.8936 0.0000 0.0000 0.0000
# 3 3.5500 -3.8936 68.8344 0.0000 0.0000 0.0000
# 4 0.0000 0.0000 0.0000 11.5906 0.0000 0.0000
# 5 0.0000 0.0000 0.0000 0.0000 10.9399 0.0000
# 6 0.0000 0.0000 0.0000 0.0000 0.0000 21.3278
#
#
#
# Elastic Compliance Matrix: (Units=1/GPa)
#
#
# Indices 1 2 3 4 5 6 
#
# 1 0.006267 -0.002191 -0.000447 0.000000 0.000000 0.000000
# 2 -0.002191 0.021771 0.001345 0.000000 0.000000 0.000000
# 3 -0.000447 0.001345 0.014627 0.000000 0.000000 0.000000
# 4 0.000000 0.000000 0.000000 0.086277 0.000000 0.000000
# 5 0.000000 0.000000 0.000000 0.000000 0.091408 0.000000
# 6 0.000000 0.000000 0.000000 0.000000 0.000000 0.046887
#
#
# Mechanical properties :
#
#
# Convention : Reuss Voigt Hill
#
# Bulk Modulus (GPa) = 24.95163 34.93591 29.94377
# Shear Modulus (GPa) = 17.65627 26.51297 22.08462
#
# Velocity S-wave (km/s) = 2.79540 3.42550 3.12636
# Velocity P-wave (km/s) = 4.63271 5.57738 5.12685
#
# Compressibility (1/GPa) = 0.04007754
#
# Stress axis : x y z
#
# Youngs Moduli (GPa) = 159.55612 45.93165 68.36796
#
# Poissons Ratio (x) = 0.10065 0.03057
# Poissons Ratio (y) = 0.34964 -0.09192
# Poissons Ratio (z) = 0.07135 -0.06176
#
# Static dielectric constant tensor:
#      x y z
#    x 1.872110 0.000000 0.000000 
#    y 0.000000 1.856970 0.000000 
#    z 0.000000 0.000000 2.009900 
# 
# From -- ./inp_files/47474.got.cif
#   From: 2010.05.17/outbox.cif.g08.bks.cpg/sg63_24_cif.got.tgz:47474.got - 2010.06.03 15:47:04.
