data_PCOD9468669
_publ_section_title
;
Structure prediction by ZEFSAII (Michael W. Deem and Ramdas Pophale) SiO2 
 PCOD9468669
Probable space group: C M C M
;
_chemical_formula_sum "Si O2"
_cell_formula_units_Z 96
_cell_length_a 12.456198
_cell_length_b 25.877140
_cell_length_c 14.707206
_cell_angle_alpha 90.000000
_cell_angle_beta 90.000000
_cell_angle_gamma 90.000000
_cell_volume 4740.585174
_symmetry_space_group_name_H-M "C M C M"
_symmetry_group_IT_number 63
_symmetry_cell_setting 'orthorhombic'
loop_
_space_group_symop_operation_xyz
x,y,z
-x,-y,1/2+z
x,-y,-z
-x,y,1/2-z
-x,-y,-z
x,y,1/2-z
-x,y,z
x,-y,1/2+z
1/2+x,1/2+y,z
1/2-x,1/2-y,1/2+z
1/2+x,1/2-y,-z
1/2-x,1/2+y,1/2-z
1/2-x,1/2-y,-z
1/2+x,1/2+y,1/2-z
1/2-x,1/2+y,z
1/2+x,1/2-y,1/2+z
loop_
_atom_site_type_symbol
_atom_site_label
_atom_site_fract_x
_atom_site_fract_y
_atom_site_fract_z
Si Si1 0.376923 0.258122 0.360859
Si Si2 0.375328 0.625001 0.640011
Si Si3 0.777843 0.020717 0.602102
Si Si4 0.620131 0.934864 0.855999
Si Si5 0.000000 0.019286 0.395723
Si Si6 0.500000 0.360505 0.639778
Si Si7 0.236250 0.838476 0.861561
O O1 0.375936 0.257528 0.250000
O O2 0.500000 0.248359 0.388583
O O3 0.347629 0.316543 0.387593
O O4 0.300354 0.212194 0.391467
O O5 0.374693 0.623014 0.750000
O O6 0.500000 0.614298 0.611743
O O7 0.292654 0.581952 0.606001
O O8 0.778854 0.000000 0.500000
O O9 0.675119 0.991196 0.640720
O O10 0.889071 0.000575 0.646376
O O11 0.608954 0.921820 0.750000
O O12 0.500000 0.933950 0.896801
O O13 0.701724 0.890753 0.891763
O O14 0.000000 0.080325 0.390344
O O15 0.000000 0.000000 0.500000
O O16 0.500000 0.359367 0.750000
O O17 0.387346 0.337203 0.608217
O O18 0.234555 0.839017 0.750000
#
# Coordination Sequence:
#
# PCOD9468669 Si02
#       7
#    16  16  16  16   8   8  16
#     4   8  14  26  45  70  98 128 163 203 246 291
#     4   9  17  29  49  75 101 132 170 209 246 291
#     4  11  21  33  50  73 102 135 167 208 255 301
#     4  10  20  33  51  75  99 127 165 208 253 300
#     4  10  20  32  46  72 102 136 168 198 250 300
#     4  10  18  28  48  78 104 130 163 204 258 307
#     4   9  16  27  46  73 101 125 155 202 254 301
#
# _framework density 20.250664
#
# number of rings (size 3 to 8) (size 9 to 14) (size 15 to 20)
#    0.000    2.500    2.500    2.000    0.000    3.000 
#    0.000    0.000    1.833    1.000    0.000    0.000 
#    0.000    0.000    0.000    0.000    0.000    0.000 
#
# Total GULP energy -267731.810924 kJ/mol
# GULP energy per Si atom -5577.746061 kJ/mol
# Density = 2.020457 g / cm^3
# Si number density = 20.250664 Si / 1000 Ang^3
#
#
#
# Elastic Constant Matrix: (Units=GPa)
#
#
# Indices 1 2 3 4 5 6 
#
# 1 161.4488 100.1624 8.9253 0.0000 0.0000 0.0000
# 2 100.1624 149.7224 -11.1234 0.0000 0.0000 0.0000
# 3 8.9253 -11.1234 29.2694 0.0000 0.0000 0.0000
# 4 0.0000 0.0000 0.0000 -11.0586 0.0000 0.0000
# 5 0.0000 0.0000 0.0000 0.0000 5.6589 0.0000
# 6 0.0000 0.0000 0.0000 0.0000 0.0000 24.3639
#
#
#
# Elastic Compliance Matrix: (Units=1/GPa)
#
#
# Indices 1 2 3 4 5 6 
#
# 1 0.011761 -0.008371 -0.006768 0.000000 0.000000 0.000000
# 2 -0.008371 0.012831 0.007429 0.000000 0.000000 0.000000
# 3 -0.006768 0.007429 0.039052 0.000000 0.000000 0.000000
# 4 0.000000 0.000000 0.000000 -0.090427 0.000000 0.000000
# 5 0.000000 0.000000 0.000000 0.000000 0.176712 0.000000
# 6 0.000000 0.000000 0.000000 0.000000 0.000000 0.041044
#
#
# Mechanical properties :
#
#
# Convention : Reuss Voigt Hill
#
# Bulk Modulus (GPa) = 20.73610 59.59656 40.16633
# Shear Modulus (GPa) = 22.47506 19.95793 21.21650
#
# Velocity S-wave (km/s) = 3.33505 3.14274 3.24032
# Velocity P-wave (km/s) = 5.00919 6.53165 5.82041
#
# Compressibility (1/GPa) = 0.04822507
#
# Stress axis : x y z
#
# Youngs Moduli (GPa) = 85.02363 77.93578 25.60660
#
# Poissons Ratio (x) = 0.65240 0.17330
# Poissons Ratio (y) = 0.71174 -0.19023
# Poissons Ratio (z) = 0.57542 -0.57898
#
# Static dielectric constant tensor:
#      x y z
#    x 1.752690 0.000000 0.000000 
#    y 0.000000 1.749260 0.000000 
#    z 0.000000 0.000000 2.176740 
# 
# From -- ./inp_files/42731.got.cif
#   From: 2010.05.17/outbox.cif.g08.bks.cpg/sg63_22_cif.got.tgz:42731.got - 2010.06.03 15:47:04.
