data_PCOD9468212
_publ_section_title
;
Structure prediction by ZEFSAII (Michael W. Deem and Ramdas Pophale) SiO2 
 PCOD9468212
Probable space group: C M C M
;
_chemical_formula_sum "Si O2"
_cell_formula_units_Z 112
_cell_length_a 18.309438
_cell_length_b 15.799769
_cell_length_c 20.106336
_cell_angle_alpha 90.000000
_cell_angle_beta 90.000000
_cell_angle_gamma 90.000000
_cell_volume 5816.459217
_symmetry_space_group_name_H-M "C M C M"
_symmetry_group_IT_number 63
_symmetry_cell_setting 'orthorhombic'
loop_
_space_group_symop_operation_xyz
x,y,z
-x,-y,1/2+z
x,-y,-z
-x,y,1/2-z
-x,-y,-z
x,y,1/2-z
-x,y,z
x,-y,1/2+z
1/2+x,1/2+y,z
1/2-x,1/2-y,1/2+z
1/2+x,1/2-y,-z
1/2-x,1/2+y,1/2-z
1/2-x,1/2-y,-z
1/2+x,1/2+y,1/2-z
1/2-x,1/2+y,z
1/2+x,1/2-y,1/2+z
loop_
_atom_site_type_symbol
_atom_site_label
_atom_site_fract_x
_atom_site_fract_y
_atom_site_fract_z
Si Si1 0.646789 0.576699 0.669464
Si Si2 0.836535 0.752933 0.517791
Si Si3 0.915121 0.746364 0.376862
Si Si4 0.650173 0.597411 0.385222
Si Si5 0.698019 0.846894 0.142727
Si Si6 0.223150 0.333553 0.676094
Si Si7 0.917067 0.370585 0.250000
Si Si8 0.080985 0.167337 0.250000
O O1 0.644773 0.559888 0.750000
O O2 0.600237 0.660037 0.652843
O O3 0.623334 0.497969 0.623207
O O4 0.729867 0.596262 0.646622
O O5 0.750000 0.750000 0.500000
O O6 0.883703 0.742615 0.451854
O O7 0.862166 0.841068 0.552550
O O8 0.838973 0.679736 0.573385
O O9 0.860920 0.684786 0.337099
O O10 0.000000 0.726225 0.373372
O O11 0.737745 0.604051 0.374907
O O12 0.618312 0.639631 0.318162
O O13 0.733993 0.757092 0.168717
O O14 0.634886 0.887326 0.187307
O O15 0.233695 0.366169 0.750000
O O16 0.922971 0.268327 0.250000
O O17 0.000000 0.404269 0.250000
O O18 0.000000 0.130237 0.250000
#
# Coordination Sequence:
#
# PCOD9468212 Si02
#       8
#    16  16  16  16  16  16   8   8
#     4  11  21  35  60  85 113 151 185 227 287 344
#     4  11  20  37  58  77 108 150 197 233 267 323
#     4  11  24  38  55  84 118 152 191 235 280 335
#     4  11  20  35  58  85 112 149 192 229 277 338
#     4  10  17  33  55  80 105 139 189 235 271 331
#     4  10  16  33  59  78 105 142 196 243 269 314
#     4  11  18  29  54  84 106 136 183 240 289 319
#     4  11  20  31  50  84 116 142 181 232 283 329
#
# _framework density 19.255700999999998
#
# number of rings (size 3 to 8) (size 9 to 14) (size 15 to 20)
#    0.000    1.286   10.000    1.286    0.000    3.429 
#    0.000    0.714    0.000    0.857    0.000    1.000 
#    0.000    0.000    0.000    0.000    0.000    0.000 
#
# Total GULP energy -311902.855607 kJ/mol
# GULP energy per Si atom -5569.693850 kJ/mol
# Density = 1.921187 g / cm^3
# Si number density = 19.255701 Si / 1000 Ang^3
#
#
#
# Elastic Constant Matrix: (Units=GPa)
#
#
# Indices 1 2 3 4 5 6 
#
# 1 105.8458 -15.4196 0.2534 0.0000 0.0000 0.0000
# 2 -15.4196 7.9757 -5.2577 0.0000 0.0000 0.0000
# 3 0.2534 -5.2577 68.0633 0.0000 0.0000 0.0000
# 4 0.0000 0.0000 0.0000 13.6002 0.0000 0.0000
# 5 0.0000 0.0000 0.0000 0.0000 21.2924 0.0000
# 6 0.0000 0.0000 0.0000 0.0000 0.0000 8.8980
#
#
#
# Elastic Compliance Matrix: (Units=1/GPa)
#
#
# Indices 1 2 3 4 5 6 
#
# 1 0.013420 0.027303 0.002059 0.000000 0.000000 0.000000
# 2 0.027303 0.187657 0.014394 0.000000 0.000000 0.000000
# 3 0.002059 0.014394 0.015796 0.000000 0.000000 0.000000
# 4 0.000000 0.000000 0.000000 0.073528 0.000000 0.000000
# 5 0.000000 0.000000 0.000000 0.000000 0.046965 0.000000
# 6 0.000000 0.000000 0.000000 0.000000 0.000000 0.112385
#
#
# Mechanical properties :
#
#
# Convention : Reuss Voigt Hill
#
# Bulk Modulus (GPa) = 3.28529 15.67078 9.47804
# Shear Modulus (GPa) = 10.78282 22.24536 16.51409
#
# Velocity S-wave (km/s) = 2.36896 3.40260 2.93169
# Velocity P-wave (km/s) = 3.03191 4.85725 4.04878
#
# Compressibility (1/GPa) = 0.30438714
#
# Stress axis : x y z
#
# Youngs Moduli (GPa) = 74.51395 5.32888 63.30529
#
# Poissons Ratio (x) = -0.14550 -0.13035
# Poissons Ratio (y) = -2.03448 -0.91124
# Poissons Ratio (z) = -0.15343 -0.07671
#
# Static dielectric constant tensor:
#      x y z
#    x 1.711740 0.000000 0.000000 
#    y 0.000000 1.721990 0.000000 
#    z 0.000000 0.000000 1.709870 
# 
# From -- ./inp_files/56010.got.cif
#   From: 2010.05.17/outbox.cif.g08.bks.cpg/sg63_29_cif.got.tgz:56010.got - 2010.06.03 15:47:04.
