data_PCOD9468336
_publ_section_title
;
Structure prediction by ZEFSAII (Michael W. Deem and Ramdas Pophale) SiO2 
 PCOD9468336
Probable space group: C M C M
;
_chemical_formula_sum "Si O2"
_cell_formula_units_Z 96
_cell_length_a 19.434086
_cell_length_b 12.106927
_cell_length_c 24.872836
_cell_angle_alpha 90.000000
_cell_angle_beta 90.000000
_cell_angle_gamma 90.000000
_cell_volume 5852.256469
_symmetry_space_group_name_H-M "C M C M"
_symmetry_group_IT_number 63
_symmetry_cell_setting 'orthorhombic'
loop_
_space_group_symop_operation_xyz
x,y,z
-x,-y,1/2+z
x,-y,-z
-x,y,1/2-z
-x,-y,-z
x,y,1/2-z
-x,y,z
x,-y,1/2+z
1/2+x,1/2+y,z
1/2-x,1/2-y,1/2+z
1/2+x,1/2-y,-z
1/2-x,1/2+y,1/2-z
1/2-x,1/2-y,-z
1/2+x,1/2+y,1/2-z
1/2-x,1/2+y,z
1/2+x,1/2-y,1/2+z
loop_
_atom_site_type_symbol
_atom_site_label
_atom_site_fract_x
_atom_site_fract_y
_atom_site_fract_z
Si Si1 0.579955 0.196485 0.313672
Si Si2 0.823102 0.361361 0.969292
Si Si3 0.314589 0.325089 0.115692
Si Si4 0.161199 0.712473 0.591944
Si Si5 0.080213 0.501342 0.895359
Si Si6 0.829592 0.049963 0.056757
O O1 0.588135 0.184288 0.250000
O O2 0.500000 0.229243 0.324486
O O3 0.634952 0.281987 0.338049
O O4 0.591210 0.081023 0.345059
O O5 0.832799 0.247948 0.936822
O O6 0.878779 0.444314 0.944492
O O7 0.748406 0.410703 0.955935
O O8 0.825084 0.332974 0.031596
O O9 0.233628 0.297911 0.123661
O O10 0.325615 0.451566 0.099653
O O11 0.108229 0.623903 0.615389
O O12 0.137904 0.838868 0.582200
O O13 0.000000 0.504981 0.908023
O O14 0.857383 0.000000 0.000000
#
# Coordination Sequence:
#
# PCOD9468336 Si02
#       6
#    16  16  16  16  16  16
#     4   9  20  40  62  77  93 126 174 229 279 313
#     4  10  17  28  48  76 107 144 183 210 249 298
#     4  10  18  30  53  78 102 136 181 216 249 310
#     4  11  19  28  48  78 113 146 174 207 255 309
#     4  10  20  33  51  77 106 137 181 226 264 307
#     4  11  16  28  47  74 107 148 176 205 244 311
#
# _framework density 16.403929000000002
#
# number of rings (size 3 to 8) (size 9 to 14) (size 15 to 20)
#    0.000    1.833    5.000    1.500    0.000    1.333 
#    0.000    1.667    0.000    2.000    0.000    2.333 
#    0.000    0.000    0.000    0.000    0.000    0.000 
#
# Total GULP energy -267470.021982 kJ/mol
# GULP energy per Si atom -5572.292125 kJ/mol
# Density = 1.636659 g / cm^3
# Si number density = 16.403929 Si / 1000 Ang^3
#
#
#
# Elastic Constant Matrix: (Units=GPa)
#
#
# Indices 1 2 3 4 5 6 
#
# 1 38.0824 21.8716 20.6835 0.0000 0.0000 0.0000
# 2 21.8716 132.1537 16.8383 0.0000 0.0000 0.0000
# 3 20.6835 16.8383 58.9175 0.0000 0.0000 0.0000
# 4 0.0000 0.0000 0.0000 11.2788 0.0000 0.0000
# 5 0.0000 0.0000 0.0000 0.0000 20.7444 0.0000
# 6 0.0000 0.0000 0.0000 0.0000 0.0000 29.2626
#
#
#
# Elastic Compliance Matrix: (Units=1/GPa)
#
#
# Indices 1 2 3 4 5 6 
#
# 1 0.034697 -0.004349 -0.010938 0.000000 0.000000 0.000000
# 2 -0.004349 0.008398 -0.000873 0.000000 0.000000 0.000000
# 3 -0.010938 -0.000873 0.021062 0.000000 0.000000 0.000000
# 4 0.000000 0.000000 0.000000 0.088662 0.000000 0.000000
# 5 0.000000 0.000000 0.000000 0.000000 0.048206 0.000000
# 6 0.000000 0.000000 0.000000 0.000000 0.000000 0.034173
#
#
# Mechanical properties :
#
#
# Convention : Reuss Voigt Hill
#
# Bulk Modulus (GPa) = 31.40970 38.66004 35.03487
# Shear Modulus (GPa) = 17.97718 23.57454 20.77586
#
# Velocity S-wave (km/s) = 3.31404 3.79506 3.56268
# Velocity P-wave (km/s) = 5.81662 6.54385 6.19092
#
# Compressibility (1/GPa) = 0.03183730
#
# Stress axis : x y z
#
# Youngs Moduli (GPa) = 28.82088 119.07651 47.47817
#
# Poissons Ratio (x) = 0.51784 0.51931
# Poissons Ratio (y) = 0.12534 0.04147
# Poissons Ratio (z) = 0.31524 0.10400
#
# Static dielectric constant tensor:
#      x y z
#    x 1.559970 0.000000 0.000000 
#    y 0.000000 1.604680 0.000000 
#    z 0.000000 0.000000 1.533640 
# 
# From -- ./inp_files/63683.got.cif
#   From: 2010.05.17/outbox.cif.g08.bks.cpg/sg63_32_cif.got.tgz:63683.got - 2010.06.03 15:47:04.
