data_PCOD9468360
_publ_section_title
;
Structure prediction by ZEFSAII (Michael W. Deem and Ramdas Pophale) SiO2 
 PCOD9468360
Probable space group: C M C M
;
_chemical_formula_sum "Si O2"
_cell_formula_units_Z 96
_cell_length_a 7.418588
_cell_length_b 24.238824
_cell_length_c 26.606493
_cell_angle_alpha 90.000000
_cell_angle_beta 90.000000
_cell_angle_gamma 90.000000
_cell_volume 4784.322337
_symmetry_space_group_name_H-M "C M C M"
_symmetry_group_IT_number 63
_symmetry_cell_setting 'orthorhombic'
loop_
_space_group_symop_operation_xyz
x,y,z
-x,-y,1/2+z
x,-y,-z
-x,y,1/2-z
-x,-y,-z
x,y,1/2-z
-x,y,z
x,-y,1/2+z
1/2+x,1/2+y,z
1/2-x,1/2-y,1/2+z
1/2+x,1/2-y,-z
1/2-x,1/2+y,1/2-z
1/2-x,1/2-y,-z
1/2+x,1/2+y,1/2-z
1/2-x,1/2+y,z
1/2+x,1/2-y,1/2+z
loop_
_atom_site_type_symbol
_atom_site_label
_atom_site_fract_x
_atom_site_fract_y
_atom_site_fract_z
Si Si1 0.297870 0.627880 0.900899
Si Si2 0.284034 0.816103 0.806876
Si Si3 0.779839 0.189738 0.807789
Si Si4 0.785678 0.255327 0.058402
Si Si5 0.779358 0.063835 0.501024
Si Si6 0.213855 0.862217 0.592353
O O1 0.500000 0.605518 0.892394
O O2 0.214967 0.642733 0.846541
O O3 0.306258 0.689714 0.922668
O O4 0.217235 0.592518 0.946839
O O5 0.221231 0.827715 0.750000
O O6 0.500000 0.812724 0.805399
O O7 0.220770 0.753080 0.819903
O O8 0.238730 0.863212 0.847577
O O9 0.730668 0.179363 0.750000
O O10 0.000000 0.189550 0.810699
O O11 0.713017 0.198561 0.080620
O O12 0.000000 0.260434 0.067740
O O13 0.750000 0.250000 0.000000
O O14 0.718909 0.095115 0.449886
O O15 0.000000 0.066626 0.501850
O O16 0.727921 0.000000 0.500000
O O17 0.000000 0.860512 0.583949
#
# Coordination Sequence:
#
# PCOD9468360 Si02
#       6
#    16  16  16  16  16  16
#     4  10  17  29  49  69  93 126 156 189 237 284
#     4   9  17  29  46  69  97 127 154 183 228 283
#     4   8  14  24  41  67  95 120 149 185 224 271
#     4  11  20  29  43  69  99 124 153 189 232 287
#     4   9  18  32  48  67  92 125 163 200 239 281
#     4  10  19  30  46  69  96 125 158 191 233 283
#
# _framework density 20.065538
#
# number of rings (size 3 to 8) (size 9 to 14) (size 15 to 20)
#    0.000    2.500    3.333    1.500    0.000    1.000 
#    0.000    0.000    0.000    3.500    0.000    4.667 
#    0.000    0.000    0.000    0.000    0.000    0.000 
#
# Total GULP energy -267331.102426 kJ/mol
# GULP energy per Si atom -5569.397967 kJ/mol
# Density = 2.001987 g / cm^3
# Si number density = 20.065538 Si / 1000 Ang^3
#
#
#
# Elastic Constant Matrix: (Units=GPa)
#
#
# Indices 1 2 3 4 5 6 
#
# 1 73.4468 5.5513 -2.1425 0.0000 0.0000 0.0000
# 2 5.5513 105.2045 77.7823 0.0000 0.0000 0.0000
# 3 -2.1425 77.7823 188.3986 0.0000 0.0000 0.0000
# 4 0.0000 0.0000 0.0000 13.8220 0.0000 0.0000
# 5 0.0000 0.0000 0.0000 0.0000 5.4216 0.0000
# 6 0.0000 0.0000 0.0000 0.0000 0.0000 2.1440
#
#
#
# Elastic Compliance Matrix: (Units=1/GPa)
#
#
# Indices 1 2 3 4 5 6 
#
# 1 0.013726 -0.001209 0.000655 0.000000 0.000000 0.000000
# 2 -0.001209 0.013788 -0.005706 0.000000 0.000000 0.000000
# 3 0.000655 -0.005706 0.007671 0.000000 0.000000 0.000000
# 4 0.000000 0.000000 0.000000 0.072348 0.000000 0.000000
# 5 0.000000 0.000000 0.000000 0.000000 0.184448 0.000000
# 6 0.000000 0.000000 0.000000 0.000000 0.000000 0.466424
#
#
# Mechanical properties :
#
#
# Convention : Reuss Voigt Hill
#
# Bulk Modulus (GPa) = 44.12009 58.82577 51.47293
# Shear Modulus (GPa) = 6.42278 23.33478 14.87878
#
# Velocity S-wave (km/s) = 1.79105 3.41387 2.72602
# Velocity P-wave (km/s) = 5.12961 6.70223 5.96794
#
# Compressibility (1/GPa) = 0.02266541
#
# Stress axis : x y z
#
# Youngs Moduli (GPa) = 72.85578 72.52716 130.35736
#
# Poissons Ratio (x) = 0.08766 -0.08539
# Poissons Ratio (y) = 0.08805 0.74385
# Poissons Ratio (z) = -0.04773 0.41386
#
# Static dielectric constant tensor:
#      x y z
#    x 1.814240 0.000000 0.000000 
#    y 0.000000 1.672140 0.000000 
#    z 0.000000 0.000000 1.783630 
# 
# From -- ./inp_files/67202.got.cif
#   From: 2010.05.17/outbox.cif.g08.bks.cpg/sg63_34_cif.got.tgz:67202.got - 2010.06.03 15:47:04.
