data_PCOD9468706
_publ_section_title
;
Structure prediction by ZEFSAII (Michael W. Deem and Ramdas Pophale) SiO2 
 PCOD9468706
Probable space group: C M C M
;
_chemical_formula_sum "Si O2"
_cell_formula_units_Z 40
_cell_length_a 17.428811
_cell_length_b 19.255121
_cell_length_c 5.474690
_cell_angle_alpha 90.000000
_cell_angle_beta 90.000000
_cell_angle_gamma 90.000000
_cell_volume 1837.272375
_symmetry_space_group_name_H-M "C M C M"
_symmetry_group_IT_number 63
_symmetry_cell_setting 'orthorhombic'
loop_
_space_group_symop_operation_xyz
x,y,z
-x,-y,1/2+z
x,-y,-z
-x,y,1/2-z
-x,-y,-z
x,y,1/2-z
-x,y,z
x,-y,1/2+z
1/2+x,1/2+y,z
1/2-x,1/2-y,1/2+z
1/2+x,1/2-y,-z
1/2-x,1/2+y,1/2-z
1/2-x,1/2-y,-z
1/2+x,1/2+y,1/2-z
1/2-x,1/2+y,z
1/2+x,1/2-y,1/2+z
loop_
_atom_site_type_symbol
_atom_site_label
_atom_site_fract_x
_atom_site_fract_y
_atom_site_fract_z
Si Si1 0.174224 0.737378 0.250000
Si Si2 0.800567 0.885654 0.750000
Si Si3 0.413790 0.954557 0.250000
Si Si4 0.590302 0.735115 0.250000
Si Si5 0.249954 0.608755 0.750000
O O1 0.234349 0.674862 0.250000
O O2 0.124397 0.735442 0.496240
O O3 0.220508 0.810673 0.250000
O O4 0.880504 0.844936 0.750000
O O5 0.784974 0.922446 0.496384
O O6 0.500000 0.922767 0.250000
O O7 0.340979 0.903982 0.250000
O O8 0.408589 0.000000 0.500000
O O9 0.500000 0.741265 0.250000
#
# Coordination Sequence:
#
# PCOD9468706 Si02
#       5
#     8   8   8   8   8
#     4  10  19  33  48  69 103 132 160 208 251 291
#     4  10  19  33  49  70 102 131 161 208 250 293
#     4  10  21  37  54  74 103 133 168 218 259 286
#     4  10  18  29  45  65  93 129 165 192 232 289
#     4  10  18  32  53  70  93 133 168 194 247 307
#
# _framework density 21.771405999999999
#
# number of rings (size 3 to 8) (size 9 to 14) (size 15 to 20)
#    0.000    2.000    0.000    7.800    0.000    0.000 
#    0.000   11.000    0.000    0.000    0.000    0.000 
#    0.000  256.000    0.000    0.000    0.000    0.000 
#
# Total GULP energy -111744.975564 kJ/mol
# GULP energy per Si atom -5587.248778 kJ/mol
# Density = 2.172185 g / cm^3
# Si number density = 21.771406 Si / 1000 Ang^3
#
#
#
# Elastic Constant Matrix: (Units=GPa)
#
#
# Indices 1 2 3 4 5 6 
#
# 1 130.5769 28.9987 60.2573 0.0000 0.0000 0.0000
# 2 28.9987 80.4357 32.2385 0.0000 0.0000 0.0000
# 3 60.2573 32.2385 248.1770 0.0000 0.0000 0.0000
# 4 0.0000 0.0000 0.0000 -13.2555 0.0000 0.0000
# 5 0.0000 0.0000 0.0000 0.0000 28.9041 0.0000
# 6 0.0000 0.0000 0.0000 0.0000 0.0000 18.8727
#
#
#
# Elastic Compliance Matrix: (Units=1/GPa)
#
#
# Indices 1 2 3 4 5 6 
#
# 1 0.009085 -0.002523 -0.001878 0.000000 0.000000 0.000000
# 2 -0.002523 0.013816 -0.001182 0.000000 0.000000 0.000000
# 3 -0.001878 -0.001182 0.004639 0.000000 0.000000 0.000000
# 4 0.000000 0.000000 0.000000 -0.075440 0.000000 0.000000
# 5 0.000000 0.000000 0.000000 0.000000 0.034597 0.000000
# 6 0.000000 0.000000 0.000000 0.000000 0.000000 0.052987
#
#
# Mechanical properties :
#
#
# Convention : Reuss Voigt Hill
#
# Bulk Modulus (GPa) = 61.07321 78.01984 69.54652
# Shear Modulus (GPa) = 88.79857 29.41726 59.10791
#
# Velocity S-wave (km/s) = 6.39338 3.67984 5.21615
# Velocity P-wave (km/s) = 9.08919 7.34634 8.26384
#
# Compressibility (1/GPa) = 0.01637379
#
# Stress axis : x y z
#
# Youngs Moduli (GPa) = 110.06794 72.38213 215.56477
#
# Poissons Ratio (x) = 0.18259 0.40488
# Poissons Ratio (y) = 0.27766 0.25483
# Poissons Ratio (z) = 0.20673 0.08557
#
# Static dielectric constant tensor:
#      x y z
#    x 1.743120 0.000000 0.000000 
#    y 0.000000 1.813020 0.000000 
#    z 0.000000 0.000000 1.925340 
# 
# From -- ./inp_files/502.got.cif
#   From: 2010.05.17/outbox.cif.g08.bks.cpg/sg63_1_cif.got.tgz:502.got - 2010.06.03 15:47:04.
