data_PCOD9468925
_publ_section_title
;
Structure prediction by ZEFSAII (Michael W. Deem and Ramdas Pophale) SiO2 
 PCOD9468925
Probable space group: C M C M
;
_chemical_formula_sum "Si O2"
_cell_formula_units_Z 80
_cell_length_a 8.219442
_cell_length_b 19.580797
_cell_length_c 27.064367
_cell_angle_alpha 90.000000
_cell_angle_beta 90.000000
_cell_angle_gamma 90.000000
_cell_volume 4355.826514
_symmetry_space_group_name_H-M "C M C M"
_symmetry_group_IT_number 63
_symmetry_cell_setting 'orthorhombic'
loop_
_space_group_symop_operation_xyz
x,y,z
-x,-y,1/2+z
x,-y,-z
-x,y,1/2-z
-x,-y,-z
x,y,1/2-z
-x,y,z
x,-y,1/2+z
1/2+x,1/2+y,z
1/2-x,1/2-y,1/2+z
1/2+x,1/2-y,-z
1/2-x,1/2+y,1/2-z
1/2-x,1/2-y,-z
1/2+x,1/2+y,1/2-z
1/2-x,1/2+y,z
1/2+x,1/2-y,1/2+z
loop_
_atom_site_type_symbol
_atom_site_label
_atom_site_fract_x
_atom_site_fract_y
_atom_site_fract_z
Si Si1 0.189272 0.416285 0.750000
Si Si2 0.303315 0.830470 0.551925
Si Si3 0.699287 0.076329 0.357360
Si Si4 0.806571 0.418244 0.147032
Si Si5 0.694330 0.673158 0.556471
Si Si6 0.811872 0.067993 0.750000
O O1 0.257469 0.396441 0.696319
O O2 0.203549 0.499042 0.750000
O O3 0.000000 0.396395 0.750000
O O4 0.500000 0.830897 0.551789
O O5 0.246914 0.878726 0.596392
O O6 0.248713 0.752103 0.559783
O O7 0.245752 0.852696 0.497707
O O8 0.500000 0.077587 0.356465
O O9 0.747517 0.996891 0.362012
O O10 0.762450 0.371794 0.100778
O O11 0.727562 0.394770 0.198766
O O12 0.000000 0.418798 0.153586
O O13 0.500000 0.672917 0.559591
O O14 0.000000 0.047360 0.750000
#
# Coordination Sequence:
#
# PCOD9468925 Si02
#       6
#     8  16  16  16  16   8
#     4   8  14  28  49  72  97 125 157 193 239 290
#     4   9  18  34  52  69  94 130 169 205 244 293
#     4   8  15  29  51  74  93 122 165 203 234 282
#     4  10  19  33  53  74  98 128 162 199 240 289
#     4  10  20  33  49  71  99 130 164 204 250 294
#     4  10  18  30  49  74 103 129 157 195 239 286
#
# _framework density 18.366202999999999
#
# number of rings (size 3 to 8) (size 9 to 14) (size 15 to 20)
#    0.000    2.800    0.000    3.300    0.000    1.600 
#    0.000   10.000    0.000    3.600    0.000    0.000 
#    0.000    0.000    0.000    0.000    0.000    0.000 
#
# Total GULP energy -222897.753274 kJ/mol
# GULP energy per Si atom -5572.443832 kJ/mol
# Density = 1.832440 g / cm^3
# Si number density = 18.366203 Si / 1000 Ang^3
#
#
#
# Elastic Constant Matrix: (Units=GPa)
#
#
# Indices 1 2 3 4 5 6 
#
# 1 25.0156 11.9494 21.7942 0.0000 0.0000 0.0000
# 2 11.9494 49.5671 76.9221 0.0000 0.0000 0.0000
# 3 21.7942 76.9221 209.4740 0.0000 0.0000 0.0000
# 4 0.0000 0.0000 0.0000 -49.7089 0.0000 0.0000
# 5 0.0000 0.0000 0.0000 0.0000 24.9614 0.0000
# 6 0.0000 0.0000 0.0000 0.0000 0.0000 15.9245
#
#
#
# Elastic Compliance Matrix: (Units=1/GPa)
#
#
# Indices 1 2 3 4 5 6 
#
# 1 0.045418 -0.008407 -0.001638 0.000000 0.000000 0.000000
# 2 -0.008407 0.048460 -0.016921 0.000000 0.000000 0.000000
# 3 -0.001638 -0.016921 0.011158 0.000000 0.000000 0.000000
# 4 0.000000 0.000000 0.000000 -0.020117 0.000000 0.000000
# 5 0.000000 0.000000 0.000000 0.000000 0.040062 0.000000
# 6 0.000000 0.000000 0.000000 0.000000 0.000000 0.062796
#
#
# Mechanical properties :
#
#
# Convention : Reuss Voigt Hill
#
# Bulk Modulus (GPa) = 19.56767 56.15423 37.86095
# Shear Modulus (GPa) = 19.32417 9.79479 14.55948
#
# Velocity S-wave (km/s) = 3.24722 2.31185 2.81860
# Velocity P-wave (km/s) = 4.97359 6.14551 5.59034
#
# Compressibility (1/GPa) = 0.05110470
#
# Stress axis : x y z
#
# Youngs Moduli (GPa) = 22.01766 20.63554 89.62308
#
# Poissons Ratio (x) = 0.17348 0.14683
# Poissons Ratio (y) = 0.18510 1.51648
# Poissons Ratio (z) = 0.03607 0.34917
#
# Static dielectric constant tensor:
#      x y z
#    x 1.647050 0.000000 0.000000 
#    y 0.000000 1.617110 0.000000 
#    z 0.000000 0.000000 1.653940 
# 
# From -- ./inp_files/50928.got.cif
#   From: 2010.05.17/outbox.cif.g08.bks.cpg/sg63_26_cif.got.tgz:50928.got - 2010.06.03 15:47:04.
