data_PCOD9468824
_publ_section_title
;
Structure prediction by ZEFSAII (Michael W. Deem and Ramdas Pophale) SiO2 
 PCOD9468824
Probable space group: C M C M
;
_chemical_formula_sum "Si O2"
_cell_formula_units_Z 104
_cell_length_a 32.729808
_cell_length_b 21.290277
_cell_length_c 8.530473
_cell_angle_alpha 90.000000
_cell_angle_beta 90.000000
_cell_angle_gamma 90.000000
_cell_volume 5944.261166
_symmetry_space_group_name_H-M "C M C M"
_symmetry_group_IT_number 63
_symmetry_cell_setting 'orthorhombic'
loop_
_space_group_symop_operation_xyz
x,y,z
-x,-y,1/2+z
x,-y,-z
-x,y,1/2-z
-x,-y,-z
x,y,1/2-z
-x,y,z
x,-y,1/2+z
1/2+x,1/2+y,z
1/2-x,1/2-y,1/2+z
1/2+x,1/2-y,-z
1/2-x,1/2+y,1/2-z
1/2-x,1/2-y,-z
1/2+x,1/2+y,1/2-z
1/2-x,1/2+y,z
1/2+x,1/2-y,1/2+z
loop_
_atom_site_type_symbol
_atom_site_label
_atom_site_fract_x
_atom_site_fract_y
_atom_site_fract_z
Si Si1 0.688827 0.568057 0.061984
Si Si2 0.500000 0.931166 0.060603
Si Si3 0.454441 0.301362 0.560509
Si Si4 0.840996 0.680670 0.561421
Si Si5 0.784572 0.568926 0.437624
Si Si6 0.364271 0.317198 0.436458
Si Si7 0.431886 0.839388 0.060020
O O1 0.685836 0.569819 0.250000
O O2 0.736695 0.575080 0.018254
O O3 0.675287 0.500000 0.000000
O O4 0.662396 0.623758 0.989980
O O5 0.500000 0.929713 0.250000
O O6 0.460345 0.894406 0.003166
O O7 0.500000 0.000000 0.000000
O O8 0.452964 0.306622 0.750000
O O9 0.500000 0.324409 0.511001
O O10 0.411213 0.326522 0.495609
O O11 0.451020 0.227656 0.517766
O O12 0.838449 0.682005 0.750000
O O13 0.808264 0.630428 0.499546
O O14 0.843462 0.753249 0.504566
O O15 0.885427 0.655575 0.509008
O O16 0.798656 0.500000 0.500000
O O17 0.787682 0.567657 0.250000
O O18 0.365052 0.311479 0.250000
O O19 0.431525 0.840285 0.250000
#
# Coordination Sequence:
#
# PCOD9468824 Si02
#       7
#    16   8  16  16  16  16  16
#     4  10  21  39  61  83 109 143 182 222 269 332
#     4  10  18  30  44  62  90 126 171 216 259 308
#     4   9  16  31  56  79 101 137 180 221 266 320
#     4  10  20  35  55  79 107 142 185 232 279 326
#     4  10  21  37  57  80 107 143 185 228 277 331
#     4  11  22  35  54  84 117 146 180 226 277 328
#     4   8  15  29  49  68  91 129 173 217 263 309
#
# _framework density 17.495865999999999
#
# number of rings (size 3 to 8) (size 9 to 14) (size 15 to 20)
#    0.000    2.308    0.769    3.692    0.000    3.385 
#    0.000    5.385    0.000    0.462    0.000    0.000 
#    0.000    0.000    0.000    0.000    0.000    0.000 
#
# Total GULP energy -289734.161488 kJ/mol
# GULP energy per Si atom -5571.810798 kJ/mol
# Density = 1.745604 g / cm^3
# Si number density = 17.495866 Si / 1000 Ang^3
#
#
#
# Elastic Constant Matrix: (Units=GPa)
#
#
# Indices 1 2 3 4 5 6 
#
# 1 113.0165 88.5931 40.0074 0.0000 0.0000 0.0000
# 2 88.5931 134.3938 39.3159 0.0000 0.0000 0.0000
# 3 40.0074 39.3159 54.6668 0.0000 0.0000 0.0000
# 4 0.0000 0.0000 0.0000 31.1157 0.0000 0.0000
# 5 0.0000 0.0000 0.0000 0.0000 21.7673 0.0000
# 6 0.0000 0.0000 0.0000 0.0000 0.0000 56.0065
#
#
#
# Elastic Compliance Matrix: (Units=1/GPa)
#
#
# Indices 1 2 3 4 5 6 
#
# 1 0.019994 -0.011271 -0.006526 0.000000 0.000000 0.000000
# 2 -0.011271 0.015777 -0.003098 0.000000 0.000000 0.000000
# 3 -0.006526 -0.003098 0.025297 0.000000 0.000000 0.000000
# 4 0.000000 0.000000 0.000000 0.032138 0.000000 0.000000
# 5 0.000000 0.000000 0.000000 0.000000 0.045940 0.000000
# 6 0.000000 0.000000 0.000000 0.000000 0.000000 0.017855
#
#
# Mechanical properties :
#
#
# Convention : Reuss Voigt Hill
#
# Bulk Modulus (GPa) = 51.87519 70.87887 61.37703
# Shear Modulus (GPa) = 24.36441 30.72194 27.54318
#
# Velocity S-wave (km/s) = 3.73578 4.19496 3.97201
# Velocity P-wave (km/s) = 6.95143 8.00395 7.49619
#
# Compressibility (1/GPa) = 0.01927704
#
# Stress axis : x y z
#
# Youngs Moduli (GPa) = 50.01616 63.38398 39.53014
#
# Poissons Ratio (x) = 0.71438 0.25799
# Poissons Ratio (y) = 0.56371 0.12248
# Poissons Ratio (z) = 0.32642 0.19638
#
# Static dielectric constant tensor:
#      x y z
#    x 1.621060 0.000000 0.000000 
#    y 0.000000 1.568110 0.000000 
#    z 0.000000 0.000000 1.598090 
# 
# From -- ./inp_files/14499.got.cif
#   From: 2010.05.17/outbox.cif.g08.bks.cpg/sg63_8_cif.got.tgz:14499.got - 2010.06.03 15:47:04.
