data_PCOD9468576
_publ_section_title
;
Structure prediction by ZEFSAII (Michael W. Deem and Ramdas Pophale) SiO2 
 PCOD9468576
Probable space group: C M C M
;
_chemical_formula_sum "Si O2"
_cell_formula_units_Z 112
_cell_length_a 7.319693
_cell_length_b 25.953318
_cell_length_c 30.310686
_cell_angle_alpha 90.000000
_cell_angle_beta 90.000000
_cell_angle_gamma 90.000000
_cell_volume 5758.130722
_symmetry_space_group_name_H-M "C M C M"
_symmetry_group_IT_number 63
_symmetry_cell_setting 'orthorhombic'
loop_
_space_group_symop_operation_xyz
x,y,z
-x,-y,1/2+z
x,-y,-z
-x,y,1/2-z
-x,-y,-z
x,y,1/2-z
-x,y,z
x,-y,1/2+z
1/2+x,1/2+y,z
1/2-x,1/2-y,1/2+z
1/2+x,1/2-y,-z
1/2-x,1/2+y,1/2-z
1/2-x,1/2-y,-z
1/2+x,1/2+y,1/2-z
1/2-x,1/2+y,z
1/2+x,1/2-y,1/2+z
loop_
_atom_site_type_symbol
_atom_site_label
_atom_site_fract_x
_atom_site_fract_y
_atom_site_fract_z
Si Si1 0.222806 0.976950 0.547449
Si Si2 0.277404 0.431305 0.108907
Si Si3 0.722226 0.730348 0.798923
Si Si4 0.718011 0.232436 0.108053
Si Si5 0.282827 0.639801 0.455757
Si Si6 0.722839 0.330756 0.052425
Si Si7 0.277973 0.610083 0.798882
O O1 0.285831 0.918152 0.551609
O O2 0.000000 0.976791 0.548218
O O3 0.275624 0.000000 0.500000
O O4 0.282406 0.016361 0.585363
O O5 0.500000 0.431554 0.109041
O O6 0.224531 0.381769 0.079604
O O7 0.216821 0.422304 0.159042
O O8 0.782955 0.746937 0.750000
O O9 0.500000 0.731857 0.798252
O O10 0.785317 0.761282 0.841832
O O11 0.772354 0.670171 0.804885
O O12 0.500000 0.238906 0.110315
O O13 0.752348 0.178630 0.084251
O O14 0.785985 0.279352 0.077312
O O15 0.500000 0.634827 0.461487
O O16 0.214637 0.663745 0.501942
O O17 0.500000 0.329397 0.052329
O O18 0.218334 0.593541 0.750000
O O19 0.500000 0.609051 0.798904
#
# Coordination Sequence:
#
# PCOD9468576 Si02
#       7
#    16  16  16  16  16  16  16
#     4   9  15  24  39  57  76 105 146 179 200 233
#     4   9  13  20  36  57  80 102 130 172 211 241
#     4   8  13  22  38  60  83 105 132 169 210 251
#     4  10  18  28  43  63  86 111 137 169 213 256
#     4  10  19  29  41  60  87 116 146 173 197 239
#     4   9  15  24  39  61  85 108 135 169 207 242
#     4   8  12  18  31  54  82 105 124 159 216 262
#
# _framework density 19.450755999999998
#
# number of rings (size 3 to 8) (size 9 to 14) (size 15 to 20)
#    0.000    3.000    2.857    1.286    0.000    0.000 
#    0.000    0.000    0.000    1.714    0.000    2.000 
#    0.000    0.000    0.000    0.000    0.000    0.000 
#
# Total GULP energy -312491.551874 kJ/mol
# GULP energy per Si atom -5580.206283 kJ/mol
# Density = 1.940649 g / cm^3
# Si number density = 19.450756 Si / 1000 Ang^3
#
#
#
# Elastic Constant Matrix: (Units=GPa)
#
#
# Indices 1 2 3 4 5 6 
#
# 1 75.4507 2.6313 3.3154 0.0000 0.0000 0.0000
# 2 2.6313 150.6413 112.2958 0.0000 0.0000 0.0000
# 3 3.3154 112.2958 216.5949 0.0000 0.0000 0.0000
# 4 0.0000 0.0000 0.0000 27.8503 0.0000 0.0000
# 5 0.0000 0.0000 0.0000 0.0000 -4.2237 0.0000
# 6 0.0000 0.0000 0.0000 0.0000 0.0000 37.1586
#
#
#
# Elastic Compliance Matrix: (Units=1/GPa)
#
#
# Indices 1 2 3 4 5 6 
#
# 1 0.013264 -0.000131 -0.000135 0.000000 0.000000 0.000000
# 2 -0.000131 0.010821 -0.005608 0.000000 0.000000 0.000000
# 3 -0.000135 -0.005608 0.007527 0.000000 0.000000 0.000000
# 4 0.000000 0.000000 0.000000 0.035906 0.000000 0.000000
# 5 0.000000 0.000000 0.000000 0.000000 -0.236761 0.000000
# 6 0.000000 0.000000 0.000000 0.000000 0.000000 0.026912
#
#
# Mechanical properties :
#
#
# Convention : Reuss Voigt Hill
#
# Bulk Modulus (GPa) = 50.34423 75.46352 62.90388
# Shear Modulus (GPa) = -40.33537 33.78667 -3.27435
#
# Velocity S-wave (km/s) = -4.55875 4.17230 -1.29887
# Velocity P-wave (km/s) = 1.33059 7.87986 5.49189
#
# Compressibility (1/GPa) = 0.01986325
#
# Stress axis : x y z
#
# Youngs Moduli (GPa) = 75.39095 92.40929 132.85940
#
# Poissons Ratio (x) = 0.01210 0.01795
# Poissons Ratio (y) = 0.00987 0.74514
# Poissons Ratio (z) = 0.01019 0.51828
#
# Static dielectric constant tensor:
#      x y z
#    x 1.828520 0.000000 0.000000 
#    y 0.000000 1.637950 0.000000 
#    z 0.000000 0.000000 1.687630 
# 
# From -- ./inp_files/68750.got.cif
#   From: 2010.05.17/outbox.cif.g08.bks.cpg/sg63_35_cif.got.tgz:68750.got - 2010.06.03 15:47:04.
