data_PCOD9468172
_publ_section_title
;
Structure prediction by ZEFSAII (Michael W. Deem and Ramdas Pophale) SiO2 
 PCOD9468172
Probable space group: C M C M
;
_chemical_formula_sum "Si O2"
_cell_formula_units_Z 64
_cell_length_a 10.921071
_cell_length_b 14.919771
_cell_length_c 17.306136
_cell_angle_alpha 90.000000
_cell_angle_beta 90.000000
_cell_angle_gamma 90.000000
_cell_volume 2819.859695
_symmetry_space_group_name_H-M "C M C M"
_symmetry_group_IT_number 63
_symmetry_cell_setting 'orthorhombic'
loop_
_space_group_symop_operation_xyz
x,y,z
-x,-y,1/2+z
x,-y,-z
-x,y,1/2-z
-x,-y,-z
x,y,1/2-z
-x,y,z
x,-y,1/2+z
1/2+x,1/2+y,z
1/2-x,1/2-y,1/2+z
1/2+x,1/2-y,-z
1/2-x,1/2+y,1/2-z
1/2-x,1/2-y,-z
1/2+x,1/2+y,1/2-z
1/2-x,1/2+y,z
1/2+x,1/2-y,1/2+z
loop_
_atom_site_type_symbol
_atom_site_label
_atom_site_fract_x
_atom_site_fract_y
_atom_site_fract_z
Si Si1 0.354910 0.831432 0.833524
Si Si2 0.264597 0.892974 0.498848
Si Si3 0.500000 0.393287 0.977503
Si Si4 0.000000 0.002851 0.337125
Si Si5 0.265065 0.372115 0.335903
O O1 0.306950 0.869611 0.750000
O O2 0.500000 0.842327 0.831893
O O3 0.314029 0.867313 0.917138
O O4 0.321296 0.726835 0.831984
O O5 0.317821 0.872660 0.413517
O O6 0.126592 0.851727 0.496166
O O7 0.257765 0.000000 0.500000
O O8 0.500000 0.407078 0.886441
O O9 0.500000 0.500000 0.000000
O O10 0.121975 0.942209 0.348905
O O11 0.000000 0.030168 0.250000
O O12 0.212034 0.391465 0.250000
#
# Coordination Sequence:
#
# PCOD9468172 Si02
#       5
#    16  16   8   8  16
#     4  10  22  38  56  78 105 141 188 225 257 312
#     4  11  21  34  56  82 113 141 173 221 272 322
#     4  10  18  32  48  82 120 128 163 214 273 329
#     4  10  16  28  54  78 103 140 176 217 267 314
#     4  10  18  33  55  79 105 140 182 223 263 312
#
# _framework density 22.696162999999999
#
# number of rings (size 3 to 8) (size 9 to 14) (size 15 to 20)
#    0.000    1.750    6.250    0.750    0.000    2.500 
#    0.000    0.000    0.000    0.750    0.000    0.000 
#    0.000    0.000    0.000    0.000    0.000    0.000 
#
# Total GULP energy -178215.155166 kJ/mol
# GULP energy per Si atom -5569.223599 kJ/mol
# Density = 2.264451 g / cm^3
# Si number density = 22.696163 Si / 1000 Ang^3
#
#
#
# Elastic Constant Matrix: (Units=GPa)
#
#
# Indices 1 2 3 4 5 6 
#
# 1 20.7468 0.3392 32.1158 0.0000 0.0000 0.0000
# 2 0.3392 33.2965 32.2029 0.0000 0.0000 0.0000
# 3 32.1158 32.2029 293.8251 0.0000 0.0000 0.0000
# 4 0.0000 0.0000 0.0000 38.2738 0.0000 0.0000
# 5 0.0000 0.0000 0.0000 0.0000 15.0911 0.0000
# 6 0.0000 0.0000 0.0000 0.0000 0.0000 2.4159
#
#
#
# Elastic Compliance Matrix: (Units=1/GPa)
#
#
# Indices 1 2 3 4 5 6 
#
# 1 0.059183 0.006324 -0.007162 0.000000 0.000000 0.000000
# 2 0.006324 0.034270 -0.004447 0.000000 0.000000 0.000000
# 3 -0.007162 -0.004447 0.004674 0.000000 0.000000 0.000000
# 4 0.000000 0.000000 0.000000 0.026128 0.000000 0.000000
# 5 0.000000 0.000000 0.000000 0.000000 0.066264 0.000000
# 6 0.000000 0.000000 0.000000 0.000000 0.000000 0.413919
#
#
# Mechanical properties :
#
#
# Convention : Reuss Voigt Hill
#
# Bulk Modulus (GPa) = 11.42120 53.02047 32.22084
# Shear Modulus (GPa) = 7.76164 30.03686 18.89925
#
# Velocity S-wave (km/s) = 1.85128 3.64185 2.88880
# Velocity P-wave (km/s) = 3.10045 6.41060 5.03530
#
# Compressibility (1/GPa) = 0.08755649
#
# Stress axis : x y z
#
# Youngs Moduli (GPa) = 16.89660 29.18015 213.96718
#
# Poissons Ratio (x) = -0.18453 1.53243
# Poissons Ratio (y) = -0.10685 0.95155
# Poissons Ratio (z) = 0.12101 0.12977
#
# Static dielectric constant tensor:
#      x y z
#    x 1.883960 0.000000 0.000000 
#    y 0.000000 1.832750 0.000000 
#    z 0.000000 0.000000 2.112780 
# 
# From -- ./inp_files/41752.got.cif
#   From: 2010.05.17/outbox.cif.g08.bks.cpg/sg63_21_cif.got.tgz:41752.got - 2010.06.03 15:47:04.
