data_PCOD9468064
_publ_section_title
;
Structure prediction by ZEFSAII (Michael W. Deem and Ramdas Pophale) SiO2 
 PCOD9468064
Probable space group: P N M A
;
_chemical_formula_sum "Si O2"
_cell_formula_units_Z 40
_cell_length_a 18.000000
_cell_length_b 9.000000
_cell_length_c 12.000000
_cell_angle_alpha 90.000000
_cell_angle_beta 90.000000
_cell_angle_gamma 90.000000
_cell_volume 1944.000000
_symmetry_space_group_name_H-M "P N M A"
_symmetry_group_IT_number 62
_symmetry_cell_setting 'orthorhombic'
loop_
_space_group_symop_operation_xyz
x,y,z
1/2-x,-y,1/2+z
1/2+x,1/2-y,1/2-z
-x,1/2+y,-z
-x,-y,-z
1/2+x,y,1/2-z
1/2-x,1/2+y,1/2+z
x,1/2-y,z
loop_
_atom_site_type_symbol
_atom_site_label
_atom_site_fract_x
_atom_site_fract_y
_atom_site_fract_z
Si Si1 0.604891 0.575489 0.700807
Si Si2 0.078682 0.425287 0.467430
Si Si3 0.139786 0.575914 0.047059
Si Si4 0.208573 0.577100 0.606311
Si Si5 0.957986 0.421803 0.741718
O O1 0.582323 0.750000 0.706244
O O2 0.614155 0.528145 0.574409
O O3 0.681789 0.561936 0.766396
O O4 0.542239 0.477084 0.758068
O O5 0.073082 0.250000 0.480043
O O6 0.147194 0.489715 0.535693
O O7 0.088555 0.474225 0.339772
O O8 0.000000 0.500000 0.500000
O O9 0.160722 0.750000 0.039634
O O10 0.210598 0.485663 0.086405
O O11 0.073894 0.562885 0.134898
O O12 0.204487 0.750000 0.575982
O O13 0.952181 0.250000 0.707045
#
# Coordination Sequence:
#
# PCOD9468064 Si02
#       5
#     8   8   8   8   8
#     4  10  22  42  65  90 126 168 211 260 314 372
#     4  12  24  41  65  92 126 164 209 260 313 372
#     4  10  24  43  63  93 131 168 210 260 315 376
#     4  11  24  41  63  94 127 165 211 259 318 376
#     4  11  23  40  66  97 128 164 211 260 312 376
#
# _framework density 20.576132000000001
#
# number of rings (size 3 to 8) (size 9 to 14) (size 15 to 20)
#    0.000    1.200    2.000    3.600    2.800    3.200 
#    0.000    0.000    0.000    0.000    0.000    0.000 
#    0.000    0.000    0.000    0.000    0.000    0.000 
#
# Total GULP energy -223529.495565 kJ/mol
# GULP energy per Si atom -5588.237389 kJ/mol
# Density = 2.052930 g / cm^3
# Si number density = 20.576132 Si / 1000 Ang^3
#
#
#
# Elastic Constant Matrix: (Units=GPa)
#
#
# Indices 1 2 3 4 5 6 
#
# 1 62.4996 29.5620 3.3872 0.0000 0.0000 0.0000
# 2 29.5620 58.0439 20.4676 0.0000 0.0000 0.0000
# 3 3.3872 20.4676 80.4298 0.0000 0.0000 0.0000
# 4 0.0000 0.0000 0.0000 25.7496 0.0000 0.0000
# 5 0.0000 0.0000 0.0000 0.0000 16.2493 0.0000
# 6 0.0000 0.0000 0.0000 0.0000 0.0000 34.3575
#
#
#
# Elastic Compliance Matrix: (Units=1/GPa)
#
#
# Indices 1 2 3 4 5 6 
#
# 1 0.021383 -0.011615 0.002055 0.000000 0.000000 0.000000
# 2 -0.011615 0.025236 -0.005933 0.000000 0.000000 0.000000
# 3 0.002055 -0.005933 0.013856 0.000000 0.000000 0.000000
# 4 0.000000 0.000000 0.000000 0.038836 0.000000 0.000000
# 5 0.000000 0.000000 0.000000 0.000000 0.061541 0.000000
# 6 0.000000 0.000000 0.000000 0.000000 0.000000 0.029106
#
#
# Mechanical properties :
#
#
# Convention : Reuss Voigt Hill
#
# Bulk Modulus (GPa) = 33.90999 34.20075 34.05537
# Shear Modulus (GPa) = 21.66638 25.10839 23.38738
#
# Velocity S-wave (km/s) = 3.24850 3.49702 3.37505
# Velocity P-wave (km/s) = 5.53049 5.74136 5.63691
#
# Compressibility (1/GPa) = 0.02948984
#
# Stress axis : x y z
#
# Youngs Moduli (GPa) = 46.76711 39.62599 72.16874
#
# Poissons Ratio (x) = 0.46025 -0.14833
# Poissons Ratio (y) = 0.54320 0.42817
# Poissons Ratio (z) = -0.09612 0.23509
#
# Static dielectric constant tensor:
#      x y z
#    x 1.669330 0.000000 0.000000 
#    y 0.000000 1.701150 0.000000 
#    z 0.000000 0.000000 1.803610 
# 
# From -- ./inp_files/13836.got.cif
#   From: 2010.05.17/outbox.ucp.g08.bks.cvg/sg62_7_cif.got.tgz:13836.got - 2010.06.11 16:29:25.
