data_PCOD9468977
_publ_section_title
;
Structure prediction by ZEFSAII (Michael W. Deem and Ramdas Pophale) SiO2 
 PCOD9468977
Probable space group: C M C M
;
_chemical_formula_sum "Si O2"
_cell_formula_units_Z 80
_cell_length_a 8.368100
_cell_length_b 28.031830
_cell_length_c 18.764370
_cell_angle_alpha 90.000000
_cell_angle_beta 90.000000
_cell_angle_gamma 90.000000
_cell_volume 4401.617503
_symmetry_space_group_name_H-M "C M C M"
_symmetry_group_IT_number 63
_symmetry_cell_setting 'orthorhombic'
loop_
_space_group_symop_operation_xyz
x,y,z
-x,-y,1/2+z
x,-y,-z
-x,y,1/2-z
-x,-y,-z
x,y,1/2-z
-x,y,z
x,-y,1/2+z
1/2+x,1/2+y,z
1/2-x,1/2-y,1/2+z
1/2+x,1/2-y,-z
1/2-x,1/2+y,1/2-z
1/2-x,1/2-y,-z
1/2+x,1/2+y,1/2-z
1/2-x,1/2+y,z
1/2+x,1/2-y,1/2+z
loop_
_atom_site_type_symbol
_atom_site_label
_atom_site_fract_x
_atom_site_fract_y
_atom_site_fract_z
Si Si1 0.310481 0.694841 0.906452
Si Si2 0.310239 0.101352 0.669084
Si Si3 0.310318 0.857186 0.541678
Si Si4 0.690030 0.450714 0.034571
Si Si5 0.695238 0.792715 0.831500
O O1 0.500000 0.698233 0.919707
O O2 0.276898 0.649787 0.855291
O O3 0.254974 0.743109 0.868394
O O4 0.225294 0.682108 0.980589
O O5 0.267514 0.088663 0.750000
O O6 0.500000 0.110183 0.665511
O O7 0.266909 0.061789 0.610640
O O8 0.500000 0.865370 0.543736
O O9 0.228271 0.905762 0.516190
O O10 0.255822 0.835883 0.616995
O O11 0.500000 0.453615 0.044384
O O12 0.747523 0.500000 0.000000
O O13 0.749731 0.796109 0.750000
O O14 0.500000 0.792261 0.830684
#
# Coordination Sequence:
#
# PCOD9468977 Si02
#       5
#    16  16  16  16  16
#     4  10  18  30  51  74 101 136 169 201 239 290
#     4  10  20  33  51  78 107 130 160 205 251 294
#     4  10  19  32  52  74  99 130 165 209 251 292
#     4  10  21  37  56  75  97 128 166 207 251 302
#     4   9  18  31  47  71 102 136 171 202 238 288
#
# _framework density 18.175136999999999
#
# number of rings (size 3 to 8) (size 9 to 14) (size 15 to 20)
#    0.000    2.200    0.000    6.000    0.000    4.000 
#    0.000    4.000    0.000   10.800    0.000    0.000 
#    0.000    0.000    0.000    0.000    0.000    0.000 
#
# Total GULP energy -223264.111478 kJ/mol
# GULP energy per Si atom -5581.602787 kJ/mol
# Density = 1.813377 g / cm^3
# Si number density = 18.175137 Si / 1000 Ang^3
#
#
#
# Elastic Constant Matrix: (Units=GPa)
#
#
# Indices 1 2 3 4 5 6 
#
# 1 12.1268 -12.0361 -16.1093 0.0000 0.0000 0.0000
# 2 -12.0361 66.0977 51.1182 0.0000 0.0000 0.0000
# 3 -16.1093 51.1182 104.2075 0.0000 0.0000 0.0000
# 4 0.0000 0.0000 0.0000 17.6823 0.0000 0.0000
# 5 0.0000 0.0000 0.0000 0.0000 13.6090 0.0000
# 6 0.0000 0.0000 0.0000 0.0000 0.0000 16.0750
#
#
#
# Elastic Compliance Matrix: (Units=1/GPa)
#
#
# Indices 1 2 3 4 5 6 
#
# 1 0.108460 0.010930 0.011405 0.000000 0.000000 0.000000
# 2 0.010930 0.025478 -0.010809 0.000000 0.000000 0.000000
# 3 0.011405 -0.010809 0.016661 0.000000 0.000000 0.000000
# 4 0.000000 0.000000 0.000000 0.056554 0.000000 0.000000
# 5 0.000000 0.000000 0.000000 0.000000 0.073481 0.000000
# 6 0.000000 0.000000 0.000000 0.000000 0.000000 0.062208
#
#
# Mechanical properties :
#
#
# Convention : Reuss Voigt Hill
#
# Bulk Modulus (GPa) = 5.75861 25.37528 15.56695
# Shear Modulus (GPa) = 13.23889 20.10388 16.67138
#
# Velocity S-wave (km/s) = 2.70183 3.32945 3.03192
# Velocity P-wave (km/s) = 3.59283 5.36397 4.56512
#
# Compressibility (1/GPa) = 0.17365291
#
# Stress axis : x y z
#
# Youngs Moduli (GPa) = 9.21995 39.24880 60.01867
#
# Poissons Ratio (x) = -0.42897 -0.68453
# Poissons Ratio (y) = -0.10077 0.64872
# Poissons Ratio (z) = -0.10516 0.42423
#
# Static dielectric constant tensor:
#      x y z
#    x 1.618650 0.000000 0.000000 
#    y 0.000000 1.606690 0.000000 
#    z 0.000000 0.000000 1.628250 
# 
# From -- ./inp_files/40712.got.cif
#   From: 2010.05.17/outbox.cif.g08.bks.cpg/sg63_21_cif.got.tgz:40712.got - 2010.06.03 15:47:04.
