data_PCOD9468390
_publ_section_title
;
Structure prediction by ZEFSAII (Michael W. Deem and Ramdas Pophale) SiO2 
 PCOD9468390
Probable space group: C M C M
;
_chemical_formula_sum "Si O2"
_cell_formula_units_Z 112
_cell_length_a 17.993915
_cell_length_b 19.651760
_cell_length_c 19.114076
_cell_angle_alpha 90.000000
_cell_angle_beta 90.000000
_cell_angle_gamma 90.000000
_cell_volume 6758.968536
_symmetry_space_group_name_H-M "C M C M"
_symmetry_group_IT_number 63
_symmetry_cell_setting 'orthorhombic'
loop_
_space_group_symop_operation_xyz
x,y,z
-x,-y,1/2+z
x,-y,-z
-x,y,1/2-z
-x,-y,-z
x,y,1/2-z
-x,y,z
x,-y,1/2+z
1/2+x,1/2+y,z
1/2-x,1/2-y,1/2+z
1/2+x,1/2-y,-z
1/2-x,1/2+y,1/2-z
1/2-x,1/2-y,-z
1/2+x,1/2+y,1/2-z
1/2-x,1/2+y,z
1/2+x,1/2-y,1/2+z
loop_
_atom_site_type_symbol
_atom_site_label
_atom_site_fract_x
_atom_site_fract_y
_atom_site_fract_z
Si Si1 0.634321 0.047911 0.938092
Si Si2 0.826840 0.686880 0.096925
Si Si3 0.582683 0.194605 0.610263
Si Si4 0.264489 0.789506 0.326750
Si Si5 0.585074 0.299997 0.483161
Si Si6 0.088928 0.438613 0.832958
Si Si7 0.231073 0.870514 0.032200
O O1 0.598567 0.122854 0.929820
O O2 0.720980 0.061666 0.956072
O O3 0.620212 0.007909 0.866558
O O4 0.603150 0.000000 0.000000
O O5 0.771972 0.716955 0.155633
O O6 0.884697 0.745500 0.073824
O O7 0.870749 0.622154 0.125548
O O8 0.776430 0.668845 0.029133
O O9 0.500000 0.191496 0.639457
O O10 0.646852 0.207775 0.665964
O O11 0.587490 0.255770 0.554322
O O12 0.241276 0.812741 0.250000
O O13 0.239221 0.834426 0.392571
O O14 0.500000 0.319968 0.469751
O O15 0.644470 0.361548 0.486019
O O16 0.102776 0.434227 0.750000
O O17 0.000000 0.435940 0.843929
#
# Coordination Sequence:
#
# PCOD9468390 Si02
#       7
#    16  16  16  16  16  16  16
#     4  11  20  33  51  72  97 141 177 208 242 304
#     4  11  17  35  53  76 100 141 174 212 245 309
#     4  10  19  30  47  73 104 135 166 208 255 302
#     4  10  19  31  49  73 102 137 171 211 260 305
#     4  10  17  30  54  79 103 127 163 216 267 301
#     4  11  24  37  50  76 110 138 172 215 255 302
#     4  10  19  34  52  75 101 130 178 217 247 306
#
# _framework density 16.570575000000002
#
# number of rings (size 3 to 8) (size 9 to 14) (size 15 to 20)
#    0.000    1.571    5.714    2.143    0.000    4.857 
#    0.000    0.000    0.000    4.286    0.000    0.000 
#    0.000    2.286    0.000    0.000    0.000    0.000 
#
# Total GULP energy -311835.995424 kJ/mol
# GULP energy per Si atom -5568.499918 kJ/mol
# Density = 1.653286 g / cm^3
# Si number density = 16.570575 Si / 1000 Ang^3
#
#
#
# Elastic Constant Matrix: (Units=GPa)
#
#
# Indices 1 2 3 4 5 6 
#
# 1 107.7388 25.1044 24.4126 0.0000 0.0000 0.0000
# 2 25.1044 36.0420 17.4856 0.0000 0.0000 0.0000
# 3 24.4126 17.4856 83.7119 0.0000 0.0000 0.0000
# 4 0.0000 0.0000 0.0000 12.0046 0.0000 0.0000
# 5 0.0000 0.0000 0.0000 0.0000 16.7381 0.0000
# 6 0.0000 0.0000 0.0000 0.0000 0.0000 19.5093
#
#
#
# Elastic Compliance Matrix: (Units=1/GPa)
#
#
# Indices 1 2 3 4 5 6 
#
# 1 0.011330 -0.006998 -0.001842 0.000000 0.000000 0.000000
# 2 -0.006998 0.035196 -0.005311 0.000000 0.000000 0.000000
# 3 -0.001842 -0.005311 0.013592 0.000000 0.000000 0.000000
# 4 0.000000 0.000000 0.000000 0.083302 0.000000 0.000000
# 5 0.000000 0.000000 0.000000 0.000000 0.059744 0.000000
# 6 0.000000 0.000000 0.000000 0.000000 0.000000 0.051258
#
#
# Mechanical properties :
#
#
# Convention : Reuss Voigt Hill
#
# Bulk Modulus (GPa) = 31.43063 40.16643 35.79853
# Shear Modulus (GPa) = 17.04570 20.34972 18.69771
#
# Velocity S-wave (km/s) = 3.21077 3.50818 3.36276
# Velocity P-wave (km/s) = 5.72314 6.37981 6.06038
#
# Compressibility (1/GPa) = 0.03181609
#
# Stress axis : x y z
#
# Youngs Moduli (GPa) = 88.26343 28.41222 73.57066
#
# Poissons Ratio (x) = 0.19882 0.13555
# Poissons Ratio (y) = 0.61764 0.39073
# Poissons Ratio (z) = 0.16262 0.15090
#
# Static dielectric constant tensor:
#      x y z
#    x 1.593260 0.000000 0.000000 
#    y 0.000000 1.584590 0.000000 
#    z 0.000000 0.000000 1.564090 
# 
# From -- ./inp_files/46113.got.cif
#   From: 2010.05.17/outbox.cif.g08.bks.cpg/sg63_24_cif.got.tgz:46113.got - 2010.06.03 15:47:04.
