data_PCOD9468380
_publ_section_title
;
Structure prediction by ZEFSAII (Michael W. Deem and Ramdas Pophale) SiO2 
 PCOD9468380
Probable space group: C M C M
;
_chemical_formula_sum "Si O2"
_cell_formula_units_Z 104
_cell_length_a 18.352439
_cell_length_b 16.434218
_cell_length_c 21.226221
_cell_angle_alpha 90.000000
_cell_angle_beta 90.000000
_cell_angle_gamma 90.000000
_cell_volume 6401.997710
_symmetry_space_group_name_H-M "C M C M"
_symmetry_group_IT_number 63
_symmetry_cell_setting 'orthorhombic'
loop_
_space_group_symop_operation_xyz
x,y,z
-x,-y,1/2+z
x,-y,-z
-x,y,1/2-z
-x,-y,-z
x,y,1/2-z
-x,y,z
x,-y,1/2+z
1/2+x,1/2+y,z
1/2-x,1/2-y,1/2+z
1/2+x,1/2-y,-z
1/2-x,1/2+y,1/2-z
1/2-x,1/2-y,-z
1/2+x,1/2+y,1/2-z
1/2-x,1/2+y,z
1/2+x,1/2-y,1/2+z
loop_
_atom_site_type_symbol
_atom_site_label
_atom_site_fract_x
_atom_site_fract_y
_atom_site_fract_z
Si Si1 0.717978 0.609245 0.324719
Si Si2 0.821981 0.000000 0.000000
Si Si3 0.582036 0.068793 0.552713
Si Si4 0.630816 0.240925 0.512158
Si Si5 0.227448 0.235093 0.896893
Si Si6 0.417428 0.388503 0.590454
Si Si7 0.233435 0.561453 0.886413
O O1 0.722376 0.611786 0.250000
O O2 0.764118 0.683381 0.355573
O O3 0.635143 0.622469 0.349512
O O4 0.743874 0.520580 0.350055
O O5 0.873933 0.047591 0.047357
O O6 0.769642 0.945231 0.043476
O O7 0.500000 0.062980 0.578510
O O8 0.592808 0.154411 0.517580
O O9 0.646601 0.062829 0.603596
O O10 0.592050 0.000000 0.500000
O O11 0.703767 0.236899 0.555172
O O12 0.656555 0.261834 0.441630
O O13 0.583430 0.308544 0.546928
O O14 0.236919 0.148378 0.861534
O O15 0.500000 0.411916 0.605552
#
# Coordination Sequence:
#
# PCOD9468380 Si02
#       7
#    16   8  16  16  16  16  16
#     4  10  22  35  50  74 100 140 188 214 245 301
#     4  10  17  30  49  78 102 130 160 202 255 324
#     4  10  18  26  43  73 105 132 157 197 256 309
#     4   9  16  28  47  74 102 127 160 200 263 317
#     4   9  17  30  51  73  98 135 169 212 255 299
#     4  10  19  31  50  75 104 130 160 209 266 316
#     4  10  18  32  52  72 103 135 167 214 255 302
#
# _framework density 16.24493
#
# number of rings (size 3 to 8) (size 9 to 14) (size 15 to 20)
#    0.000    2.308    2.308    1.615    4.308    0.923 
#    0.000    0.000    0.000    0.462    0.000    0.000 
#    0.000    0.000    0.000    0.000    0.000    0.000 
#
# Total GULP energy -289573.234404 kJ/mol
# GULP energy per Si atom -5568.716046 kJ/mol
# Density = 1.620796 g / cm^3
# Si number density = 16.244930 Si / 1000 Ang^3
#
#
#
# Elastic Constant Matrix: (Units=GPa)
#
#
# Indices 1 2 3 4 5 6 
#
# 1 85.0801 24.9145 22.8845 0.0000 0.0000 0.0000
# 2 24.9145 113.3642 37.2181 0.0000 0.0000 0.0000
# 3 22.8845 37.2181 72.7547 0.0000 0.0000 0.0000
# 4 0.0000 0.0000 0.0000 11.6650 0.0000 0.0000
# 5 0.0000 0.0000 0.0000 0.0000 19.9702 0.0000
# 6 0.0000 0.0000 0.0000 0.0000 0.0000 33.8013
#
#
#
# Elastic Compliance Matrix: (Units=1/GPa)
#
#
# Indices 1 2 3 4 5 6 
#
# 1 0.013152 -0.001842 -0.003195 0.000000 0.000000 0.000000
# 2 -0.001842 0.010860 -0.004976 0.000000 0.000000 0.000000
# 3 -0.003195 -0.004976 0.017295 0.000000 0.000000 0.000000
# 4 0.000000 0.000000 0.000000 0.085727 0.000000 0.000000
# 5 0.000000 0.000000 0.000000 0.000000 0.050075 0.000000
# 6 0.000000 0.000000 0.000000 0.000000 0.000000 0.029585
#
#
# Mechanical properties :
#
#
# Convention : Reuss Voigt Hill
#
# Bulk Modulus (GPa) = 46.98791 49.02592 48.00692
# Shear Modulus (GPa) = 21.38467 25.49940 23.44204
#
# Velocity S-wave (km/s) = 3.63215 3.96622 3.80285
# Velocity P-wave (km/s) = 6.82477 7.15676 6.99274
#
# Compressibility (1/GPa) = 0.02128207
#
# Stress axis : x y z
#
# Youngs Moduli (GPa) = 76.03250 92.08511 57.81934
#
# Poissons Ratio (x) = 0.16959 0.18472
# Poissons Ratio (y) = 0.14002 0.28771
# Poissons Ratio (z) = 0.24291 0.45821
#
# Static dielectric constant tensor:
#      x y z
#    x 1.548930 0.000000 0.000000 
#    y 0.000000 1.603520 0.000000 
#    z 0.000000 0.000000 1.518810 
# 
# From -- ./inp_files/55621.got.cif
#   From: 2010.05.17/outbox.cif.g08.bks.cpg/sg63_28_cif.got.tgz:55621.got - 2010.06.03 15:47:04.
