data_PCOD9468829
_publ_section_title
;
Structure prediction by ZEFSAII (Michael W. Deem and Ramdas Pophale) SiO2 
 PCOD9468829
Probable space group: C M C M
;
_chemical_formula_sum "Si O2"
_cell_formula_units_Z 96
_cell_length_a 7.494965
_cell_length_b 24.806332
_cell_length_c 26.800116
_cell_angle_alpha 90.000000
_cell_angle_beta 90.000000
_cell_angle_gamma 90.000000
_cell_volume 4982.746982
_symmetry_space_group_name_H-M "C M C M"
_symmetry_group_IT_number 63
_symmetry_cell_setting 'orthorhombic'
loop_
_space_group_symop_operation_xyz
x,y,z
-x,-y,1/2+z
x,-y,-z
-x,y,1/2-z
-x,-y,-z
x,y,1/2-z
-x,y,z
x,-y,1/2+z
1/2+x,1/2+y,z
1/2-x,1/2-y,1/2+z
1/2+x,1/2-y,-z
1/2-x,1/2+y,1/2-z
1/2-x,1/2-y,-z
1/2+x,1/2+y,1/2-z
1/2-x,1/2+y,z
1/2+x,1/2-y,1/2+z
loop_
_atom_site_type_symbol
_atom_site_label
_atom_site_fract_x
_atom_site_fract_y
_atom_site_fract_z
Si Si1 0.207063 0.490806 0.444550
Si Si2 0.781331 0.760434 0.110155
Si Si3 0.210786 0.325271 0.531505
Si Si4 0.798252 0.129968 0.574364
Si Si5 0.211092 0.586140 0.118717
Si Si6 0.718579 0.174644 0.192966
O O1 0.286071 0.500000 0.500000
O O2 0.210959 0.428247 0.430395
O O3 0.284689 0.529707 0.401805
O O4 0.000000 0.508004 0.448999
O O5 0.724535 0.727990 0.060283
O O6 0.720297 0.822123 0.108224
O O7 0.728126 0.724630 0.157578
O O8 0.000000 0.760813 0.108918
O O9 0.299902 0.343523 0.480709
O O10 0.229018 0.372869 0.572144
O O11 0.000000 0.319494 0.521234
O O12 0.000000 0.119644 0.590848
O O13 0.281260 0.619625 0.165950
O O14 0.000000 0.578885 0.129304
O O15 0.775535 0.179260 0.250000
O O16 0.500000 0.174313 0.192270
#
# Coordination Sequence:
#
# PCOD9468829 Si02
#       6
#    16  16  16  16  16  16
#     4  10  18  30  45  59  82 123 157 175 206 256
#     4   8  16  27  40  61  89 115 141 178 221 261
#     4   9  15  28  45  59  83 120 151 175 208 254
#     4  11  20  27  38  62  94 121 145 177 213 250
#     4   8  14  25  42  63  83 106 145 186 214 247
#     4   8  13  24  45  68  85 104 136 184 232 261
#
# _framework density 19.266482
#
# number of rings (size 3 to 8) (size 9 to 14) (size 15 to 20)
#    0.000    3.000    1.667    3.000    0.000    0.333 
#    0.000    0.833    0.000    1.000    0.000    0.000 
#    0.000   31.333    0.000    0.000    0.000    0.000 
#
# Total GULP energy -267521.057615 kJ/mol
# GULP energy per Si atom -5573.355367 kJ/mol
# Density = 1.922263 g / cm^3
# Si number density = 19.266482 Si / 1000 Ang^3
#
#
#
# Elastic Constant Matrix: (Units=GPa)
#
#
# Indices 1 2 3 4 5 6 
#
# 1 45.3838 5.3365 4.0589 0.0000 0.0000 0.0000
# 2 5.3365 137.2195 52.5173 0.0000 0.0000 0.0000
# 3 4.0589 52.5173 101.8696 0.0000 0.0000 0.0000
# 4 0.0000 0.0000 0.0000 12.8651 0.0000 0.0000
# 5 0.0000 0.0000 0.0000 0.0000 1.9975 0.0000
# 6 0.0000 0.0000 0.0000 0.0000 0.0000 -18.5675
#
#
#
# Elastic Compliance Matrix: (Units=1/GPa)
#
#
# Indices 1 2 3 4 5 6 
#
# 1 0.022160 -0.000653 -0.000546 0.000000 0.000000 0.000000
# 2 -0.000653 0.009098 -0.004664 0.000000 0.000000 0.000000
# 3 -0.000546 -0.004664 0.012243 0.000000 0.000000 0.000000
# 4 0.000000 0.000000 0.000000 0.077730 0.000000 0.000000
# 5 0.000000 0.000000 0.000000 0.000000 0.500636 0.000000
# 6 0.000000 0.000000 0.000000 0.000000 0.000000 -0.053857
#
#
# Mechanical properties :
#
#
# Convention : Reuss Voigt Hill
#
# Bulk Modulus (GPa) = 31.47238 45.36647 38.41943
# Shear Modulus (GPa) = 8.46987 14.09634 11.28311
#
# Velocity S-wave (km/s) = 2.09898 2.70784 2.42261
# Velocity P-wave (km/s) = 4.71647 5.77707 5.27350
#
# Compressibility (1/GPa) = 0.03177389
#
# Stress axis : x y z
#
# Youngs Moduli (GPa) = 45.12657 109.91234 81.67990
#
# Poissons Ratio (x) = 0.07173 0.04464
# Poissons Ratio (y) = 0.02945 0.38099
# Poissons Ratio (z) = 0.02466 0.51268
#
# Static dielectric constant tensor:
#      x y z
#    x 1.708890 0.000000 0.000000 
#    y 0.000000 1.699720 0.000000 
#    z 0.000000 0.000000 1.651040 
# 
# From -- ./inp_files/67228.got.cif
#   From: 2010.05.17/outbox.cif.g08.bks.cpg/sg63_34_cif.got.tgz:67228.got - 2010.06.03 15:47:04.
