data_PCOD9468148
_publ_section_title
;
Structure prediction by ZEFSAII (Michael W. Deem and Ramdas Pophale) SiO2 
 PCOD9468148
Probable space group: C M C M
;
_chemical_formula_sum "Si O2"
_cell_formula_units_Z 80
_cell_length_a 24.677053
_cell_length_b 26.889364
_cell_length_c 8.494300
_cell_angle_alpha 90.000000
_cell_angle_beta 90.000000
_cell_angle_gamma 90.000000
_cell_volume 5636.394978
_symmetry_space_group_name_H-M "C M C M"
_symmetry_group_IT_number 63
_symmetry_cell_setting 'orthorhombic'
loop_
_space_group_symop_operation_xyz
x,y,z
-x,-y,1/2+z
x,-y,-z
-x,y,1/2-z
-x,-y,-z
x,y,1/2-z
-x,y,z
x,-y,1/2+z
1/2+x,1/2+y,z
1/2-x,1/2-y,1/2+z
1/2+x,1/2-y,-z
1/2-x,1/2+y,1/2-z
1/2-x,1/2-y,-z
1/2+x,1/2+y,1/2-z
1/2-x,1/2+y,z
1/2+x,1/2-y,1/2+z
loop_
_atom_site_type_symbol
_atom_site_label
_atom_site_fract_x
_atom_site_fract_y
_atom_site_fract_z
Si Si1 0.184320 0.856000 0.438227
Si Si2 0.618022 0.257050 0.441547
Si Si3 0.000000 0.781870 0.059464
Si Si4 0.219304 0.299294 0.561083
Si Si5 0.613055 0.555446 0.438290
Si Si6 0.000000 0.894883 0.559441
O O1 0.183213 0.856733 0.250000
O O2 0.146674 0.809036 0.490915
O O3 0.245331 0.844305 0.494072
O O4 0.158294 0.906041 0.503373
O O5 0.617705 0.257647 0.250000
O O6 0.556078 0.257100 0.495953
O O7 0.657220 0.211479 0.488084
O O8 0.000000 0.780732 0.250000
O O9 0.000000 0.839277 0.007442
O O10 0.221670 0.300766 0.750000
O O11 0.250000 0.250000 0.500000
O O12 0.621299 0.500000 0.500000
O O13 0.613038 0.554820 0.250000
O O14 0.554348 0.576479 0.491503
O O15 0.000000 0.892175 0.750000
#
# Coordination Sequence:
#
# PCOD9468148 Si02
#       6
#    16  16   8  16  16   8
#     4  10  18  30  45  62  80 106 142 178 218 259
#     4   8  15  25  41  62  82 106 139 171 207 251
#     4  10  16  27  45  62  83 114 143 175 212 251
#     4   9  16  27  41  61  84 107 137 173 212 256
#     4  11  22  34  46  61  82 109 143 184 223 260
#     4  10  21  33  43  60  82 108 144 183 223 255
#
# _framework density 14.193469
#
# number of rings (size 3 to 8) (size 9 to 14) (size 15 to 20)
#    0.000    2.400    2.000    3.300    0.000    0.800 
#    0.000    1.000    0.000    0.000    0.000    0.000 
#    0.000    0.000    0.000    0.900    0.000    9.000 
#
# Total GULP energy -222844.087078 kJ/mol
# GULP energy per Si atom -5571.102177 kJ/mol
# Density = 1.416116 g / cm^3
# Si number density = 14.193469 Si / 1000 Ang^3
#
#
#
# Elastic Constant Matrix: (Units=GPa)
#
#
# Indices 1 2 3 4 5 6 
#
# 1 134.9276 72.4020 23.2241 0.0000 0.0000 0.0000
# 2 72.4020 73.5824 20.2319 0.0000 0.0000 0.0000
# 3 23.2241 20.2319 28.8694 0.0000 0.0000 0.0000
# 4 0.0000 0.0000 0.0000 20.0989 0.0000 0.0000
# 5 0.0000 0.0000 0.0000 0.0000 13.9085 0.0000
# 6 0.0000 0.0000 0.0000 0.0000 0.0000 11.8515
#
#
#
# Elastic Compliance Matrix: (Units=1/GPa)
#
#
# Indices 1 2 3 4 5 6 
#
# 1 0.015819 -0.014946 -0.002251 0.000000 0.000000 0.000000
# 2 -0.014946 0.030956 -0.009670 0.000000 0.000000 0.000000
# 3 -0.002251 -0.009670 0.043227 0.000000 0.000000 0.000000
# 4 0.000000 0.000000 0.000000 0.049754 0.000000 0.000000
# 5 0.000000 0.000000 0.000000 0.000000 0.071899 0.000000
# 6 0.000000 0.000000 0.000000 0.000000 0.000000 0.084378
#
#
# Mechanical properties :
#
#
# Convention : Reuss Voigt Hill
#
# Bulk Modulus (GPa) = 27.57419 52.12171 39.84795
# Shear Modulus (GPa) = 13.81765 17.27320 15.54543
#
# Velocity S-wave (km/s) = 3.12352 3.49231 3.31305
# Velocity P-wave (km/s) = 5.69895 7.28448 6.53994
#
# Compressibility (1/GPa) = 0.03626580
#
# Stress axis : x y z
#
# Youngs Moduli (GPa) = 63.21492 32.30421 23.13375
#
# Poissons Ratio (x) = 0.48283 0.05208
# Poissons Ratio (y) = 0.94483 0.22371
# Poissons Ratio (z) = 0.14231 0.31240
#
# Static dielectric constant tensor:
#      x y z
#    x 1.505030 0.000000 0.000000 
#    y 0.000000 1.433950 0.000000 
#    z 0.000000 0.000000 1.479230 
# 
# From -- ./inp_files/10119.got.cif
#   From: 2010.05.17/outbox.cif.g08.bks.cpg/sg63_6_cif.got.tgz:10119.got - 2010.06.03 15:47:04.
