data_PCOD9468557
_publ_section_title
;
Structure prediction by ZEFSAII (Michael W. Deem and Ramdas Pophale) SiO2 
 PCOD9468557
Probable space group: C M C M
;
_chemical_formula_sum "Si O2"
_cell_formula_units_Z 112
_cell_length_a 7.772167
_cell_length_b 28.525851
_cell_length_c 30.458692
_cell_angle_alpha 90.000000
_cell_angle_beta 90.000000
_cell_angle_gamma 90.000000
_cell_volume 6752.925872
_symmetry_space_group_name_H-M "C M C M"
_symmetry_group_IT_number 63
_symmetry_cell_setting 'orthorhombic'
loop_
_space_group_symop_operation_xyz
x,y,z
-x,-y,1/2+z
x,-y,-z
-x,y,1/2-z
-x,-y,-z
x,y,1/2-z
-x,y,z
x,-y,1/2+z
1/2+x,1/2+y,z
1/2-x,1/2-y,1/2+z
1/2+x,1/2-y,-z
1/2-x,1/2+y,1/2-z
1/2-x,1/2-y,-z
1/2+x,1/2+y,1/2-z
1/2-x,1/2+y,z
1/2+x,1/2-y,1/2+z
loop_
_atom_site_type_symbol
_atom_site_label
_atom_site_fract_x
_atom_site_fract_y
_atom_site_fract_z
Si Si1 0.293267 0.519589 0.567658
Si Si2 0.804851 0.316655 0.250000
Si Si3 0.206320 0.177807 0.022220
Si Si4 0.710695 0.572864 0.480698
Si Si5 0.792092 0.728922 0.932620
Si Si6 0.806187 0.079535 0.750000
Si Si7 0.711418 0.177107 0.654501
Si Si8 0.796297 0.569122 0.657063
O O1 0.500000 0.519028 0.565729
O O2 0.234612 0.467731 0.553122
O O3 0.235477 0.555294 0.529211
O O4 0.243806 0.537136 0.615516
O O5 0.809533 0.373714 0.250000
O O6 0.728181 0.305214 0.202390
O O7 0.000000 0.298421 0.250000
O O8 0.272147 0.125226 0.029099
O O9 0.271664 0.219247 0.053971
O O10 0.000000 0.176358 0.027374
O O11 0.243739 0.194875 0.972771
O O12 0.500000 0.573653 0.480591
O O13 0.731345 0.708118 0.886497
O O14 0.000000 0.730582 0.930998
O O15 0.775953 0.053344 0.795737
O O16 0.000000 0.097565 0.750000
O O17 0.500000 0.177303 0.655265
O O18 0.765727 0.122746 0.648965
O O19 0.000000 0.571357 0.661890
#
# Coordination Sequence:
#
# PCOD9468557 Si02
#       8
#    16   8  16  16  16   8  16  16
#     4   9  16  27  42  58  77 105 141 171 200 241
#     4   8  14  26  40  54  77 104 127 155 192 229
#     4   9  16  26  39  55  77 104 132 162 197 233
#     4   8  15  27  41  57  79 107 137 171 206 238
#     4   9  16  25  38  57  78 101 131 161 193 236
#     4  10  18  28  42  60  81 106 135 161 192 237
#     4   8  14  24  38  55  76 102 126 152 190 233
#     4  10  18  28  41  59  84 108 131 162 200 237
#
# _framework density 16.585401999999998
#
# number of rings (size 3 to 8) (size 9 to 14) (size 15 to 20)
#    0.000    3.143    0.000    3.643    0.000    0.000 
#    0.000    5.000    0.000    0.000    0.000    1.000 
#    0.000    5.714    0.000    0.714    0.000    4.000 
#
# Total GULP energy -311858.212831 kJ/mol
# GULP energy per Si atom -5568.896658 kJ/mol
# Density = 1.654765 g / cm^3
# Si number density = 16.585402 Si / 1000 Ang^3
#
#
#
# Elastic Constant Matrix: (Units=GPa)
#
#
# Indices 1 2 3 4 5 6 
#
# 1 27.7428 7.6289 4.7697 0.0000 0.0000 0.0000
# 2 7.6289 111.5189 75.4899 0.0000 0.0000 0.0000
# 3 4.7697 75.4899 166.0536 0.0000 0.0000 0.0000
# 4 0.0000 0.0000 0.0000 23.9609 0.0000 0.0000
# 5 0.0000 0.0000 0.0000 0.0000 16.4943 0.0000
# 6 0.0000 0.0000 0.0000 0.0000 0.0000 4.7445
#
#
#
# Elastic Compliance Matrix: (Units=1/GPa)
#
#
# Indices 1 2 3 4 5 6 
#
# 1 0.036738 -0.002599 0.000126 0.000000 0.000000 0.000000
# 2 -0.002599 0.013137 -0.005898 0.000000 0.000000 0.000000
# 3 0.000126 -0.005898 0.008700 0.000000 0.000000 0.000000
# 4 0.000000 0.000000 0.000000 0.041735 0.000000 0.000000
# 5 0.000000 0.000000 0.000000 0.000000 0.060627 0.000000
# 6 0.000000 0.000000 0.000000 0.000000 0.000000 0.210769
#
#
# Mechanical properties :
#
#
# Convention : Reuss Voigt Hill
#
# Bulk Modulus (GPa) = 23.90352 53.45469 38.67910
# Shear Modulus (GPa) = 12.42573 23.53506 17.98040
#
# Velocity S-wave (km/s) = 2.74012 3.77108 3.29615
# Velocity P-wave (km/s) = 4.94516 7.15970 6.15288
#
# Compressibility (1/GPa) = 0.04183485
#
# Stress axis : x y z
#
# Youngs Moduli (GPa) = 27.21952 76.12016 114.94684
#
# Poissons Ratio (x) = 0.19780 -0.01449
# Poissons Ratio (y) = 0.07073 0.67792
# Poissons Ratio (z) = -0.00343 0.44893
#
# Static dielectric constant tensor:
#      x y z
#    x 1.617260 0.000000 0.000000 
#    y 0.000000 1.553720 0.000000 
#    z 0.000000 0.000000 1.576140 
# 
# From -- ./inp_files/72268.got.cif
#   From: 2010.05.17/outbox.cif.g08.bks.cpg/sg63_37_cif.got.tgz:72268.got - 2010.06.03 15:47:04.
