data_PCOD9468975
_publ_section_title
;
Structure prediction by ZEFSAII (Michael W. Deem and Ramdas Pophale) SiO2 
 PCOD9468975
Probable space group: C M C M
;
_chemical_formula_sum "Si O2"
_cell_formula_units_Z 92
_cell_length_a 22.470897
_cell_length_b 29.900147
_cell_length_c 8.029730
_cell_angle_alpha 90.000000
_cell_angle_beta 90.000000
_cell_angle_gamma 90.000000
_cell_volume 5395.040073
_symmetry_space_group_name_H-M "C M C M"
_symmetry_group_IT_number 63
_symmetry_cell_setting 'orthorhombic'
loop_
_space_group_symop_operation_xyz
x,y,z
-x,-y,1/2+z
x,-y,-z
-x,y,1/2-z
-x,-y,-z
x,y,1/2-z
-x,y,z
x,-y,1/2+z
1/2+x,1/2+y,z
1/2-x,1/2-y,1/2+z
1/2+x,1/2-y,-z
1/2-x,1/2+y,1/2-z
1/2-x,1/2-y,-z
1/2+x,1/2+y,1/2-z
1/2-x,1/2+y,z
1/2+x,1/2-y,1/2+z
loop_
_atom_site_type_symbol
_atom_site_label
_atom_site_fract_x
_atom_site_fract_y
_atom_site_fract_z
Si Si1 0.784507 0.294251 0.442142
Si Si2 0.629429 0.551500 0.052950
Si Si3 0.500000 0.447958 0.446738
Si Si4 0.584323 0.792071 0.558898
Si Si5 0.000000 0.316551 0.250000
Si Si6 0.566473 0.315017 0.446720
Si Si7 0.686837 0.638097 0.446175
O O1 0.800639 0.288542 0.250000
O O2 0.750000 0.250000 0.500000
O O3 0.845206 0.299794 0.542654
O O4 0.738519 0.334767 0.464506
O O5 0.634015 0.551757 0.250000
O O6 0.675901 0.587862 0.987142
O O7 0.635987 0.500000 0.000000
O O8 0.563146 0.569016 0.009659
O O9 0.500000 0.500000 0.500000
O O10 0.500000 0.444717 0.250000
O O11 0.566666 0.804170 0.750000
O O12 0.551046 0.814234 0.401796
O O13 0.572083 0.738725 0.540114
O O14 0.569319 0.326402 0.250000
O O15 0.500000 0.327720 0.508024
O O16 0.623525 0.336717 0.532606
O O17 0.701014 0.636851 0.250000
#
# Coordination Sequence:
#
# PCOD9468975 Si02
#       7
#    16  16   8  16   4  16  16
#     4  12  23  37  55  77 107 145 187 225 272 328
#     4  10  21  37  53  72  97 129 173 222 279 328
#     4  10  18  30  51  72  94 126 167 220 278 329
#     4  11  22  37  55  80 109 141 185 231 271 330
#     4  12  22  36  58  82 104 148 186 216 292 320
#     4  10  21  34  48  70 100 135 179 228 277 318
#     4  11  24  36  52  75 101 136 181 228 276 324
#
# _framework density 17.052699
#
# number of rings (size 3 to 8) (size 9 to 14) (size 15 to 20)
#    0.000    1.217    3.478    4.696    2.435    3.130 
#    0.000    0.000    0.000    0.000    0.000    0.000 
#    0.000    0.000    0.000    0.783    4.870    1.565 
#
# Total GULP energy -256274.445986 kJ/mol
# GULP energy per Si atom -5571.183608 kJ/mol
# Density = 1.701389 g / cm^3
# Si number density = 17.052699 Si / 1000 Ang^3
#
#
#
# Elastic Constant Matrix: (Units=GPa)
#
#
# Indices 1 2 3 4 5 6 
#
# 1 115.4475 31.2681 22.0027 0.0000 0.0000 0.0000
# 2 31.2681 57.0574 10.7042 0.0000 0.0000 0.0000
# 3 22.0027 10.7042 83.3941 0.0000 0.0000 0.0000
# 4 0.0000 0.0000 0.0000 14.2098 0.0000 0.0000
# 5 0.0000 0.0000 0.0000 0.0000 28.0038 0.0000
# 6 0.0000 0.0000 0.0000 0.0000 0.0000 25.1432
#
#
#
# Elastic Compliance Matrix: (Units=1/GPa)
#
#
# Indices 1 2 3 4 5 6 
#
# 1 0.010514 -0.005371 -0.002085 0.000000 0.000000 0.000000
# 2 -0.005371 0.020702 -0.001240 0.000000 0.000000 0.000000
# 3 -0.002085 -0.001240 0.012700 0.000000 0.000000 0.000000
# 4 0.000000 0.000000 0.000000 0.070374 0.000000 0.000000
# 5 0.000000 0.000000 0.000000 0.000000 0.035709 0.000000
# 6 0.000000 0.000000 0.000000 0.000000 0.000000 0.039772
#
#
# Mechanical properties :
#
#
# Convention : Reuss Voigt Hill
#
# Bulk Modulus (GPa) = 37.69978 42.64989 40.17484
# Shear Modulus (GPa) = 23.14763 26.26628 24.70695
#
# Velocity S-wave (km/s) = 3.68831 3.92892 3.81052
# Velocity P-wave (km/s) = 6.34776 6.75625 6.55518
#
# Compressibility (1/GPa) = 0.02652535
#
# Stress axis : x y z
#
# Youngs Moduli (GPa) = 95.11274 48.30437 78.73734
#
# Poissons Ratio (x) = 0.25942 0.16414
# Poissons Ratio (y) = 0.51081 0.09765
# Poissons Ratio (z) = 0.19827 0.05991
#
# Static dielectric constant tensor:
#      x y z
#    x 1.587110 0.000000 0.000000 
#    y 0.000000 1.605650 0.000000 
#    z 0.000000 0.000000 1.601360 
# 
# From -- ./inp_files/9038.got.cif
#   From: 2010.05.17/outbox.cif.g08.bks.cpg/sg63_5_cif.got.tgz:9038.got - 2010.06.03 15:47:04.
