data_PCOD9468621
_publ_section_title
;
Structure prediction by ZEFSAII (Michael W. Deem and Ramdas Pophale) SiO2 
 PCOD9468621
Probable space group: C M C M
;
_chemical_formula_sum "Si O2"
_cell_formula_units_Z 96
_cell_length_a 23.773121
_cell_length_b 22.188742
_cell_length_c 8.027833
_cell_angle_alpha 90.000000
_cell_angle_beta 90.000000
_cell_angle_gamma 90.000000
_cell_volume 4234.646974
_symmetry_space_group_name_H-M "C M C M"
_symmetry_group_IT_number 63
_symmetry_cell_setting 'orthorhombic'
loop_
_space_group_symop_operation_xyz
x,y,z
-x,-y,1/2+z
x,-y,-z
-x,y,1/2-z
-x,-y,-z
x,y,1/2-z
-x,y,z
x,-y,1/2+z
1/2+x,1/2+y,z
1/2-x,1/2-y,1/2+z
1/2+x,1/2-y,-z
1/2-x,1/2+y,1/2-z
1/2-x,1/2-y,-z
1/2+x,1/2+y,1/2-z
1/2-x,1/2+y,z
1/2+x,1/2-y,1/2+z
loop_
_atom_site_type_symbol
_atom_site_label
_atom_site_fract_x
_atom_site_fract_y
_atom_site_fract_z
Si Si1 0.351956 0.435224 0.548263
Si Si2 0.401366 0.065198 0.554339
Si Si3 0.799491 0.710679 0.433314
Si Si4 0.726471 0.926069 0.563809
Si Si5 0.062127 0.168389 0.452916
Si Si6 0.418079 0.802545 0.060026
O O1 0.377837 0.500000 0.500000
O O2 0.348184 0.431232 0.750000
O O3 0.287284 0.437400 0.482874
O O4 0.388638 0.377422 0.491418
O O5 0.409900 0.069607 0.750000
O O6 0.333959 0.062530 0.519948
O O7 0.424746 0.129656 0.483151
O O8 0.424690 0.000000 0.500000
O O9 0.819732 0.730178 0.250000
O O10 0.750000 0.750000 0.500000
O O11 0.774091 0.645026 0.417533
O O12 0.851163 0.706676 0.557081
O O13 0.724168 0.954033 0.750000
O O14 0.067187 0.172135 0.250000
O O15 0.062970 0.238193 0.514005
O O16 0.000000 0.143506 0.491271
O O17 0.438688 0.805130 0.250000
#
# Coordination Sequence:
#
# PCOD9468621 Si02
#       6
#    16  16  16  16  16  16
#     4  10  20  33  50  73 100 130 165 206 251 297
#     4  10  19  30  48  75 106 136 165 198 238 292
#     4  10  18  28  45  70 101 135 168 204 247 296
#     4   9  18  31  46  67  99 137 172 203 237 285
#     4   9  18  35  58  77  94 124 169 218 262 302
#     4   9  18  33  52  74  97 126 169 213 250 295
#
# _framework density 22.67013
#
# number of rings (size 3 to 8) (size 9 to 14) (size 15 to 20)
#    0.000    2.500    0.000    2.500    0.000    6.333 
#    0.000    2.500    0.000    2.000    0.000    0.000 
#    0.000    0.000    0.000    0.000    0.000    0.500 
#
# Total GULP energy -267222.241858 kJ/mol
# GULP energy per Si atom -5567.130039 kJ/mol
# Density = 2.261853 g / cm^3
# Si number density = 22.670130 Si / 1000 Ang^3
#
#
#
# Elastic Constant Matrix: (Units=GPa)
#
#
# Indices 1 2 3 4 5 6 
#
# 1 83.5957 42.0196 5.4323 0.0000 0.0000 0.0000
# 2 42.0196 132.8992 12.7651 0.0000 0.0000 0.0000
# 3 5.4323 12.7651 35.6870 0.0000 0.0000 0.0000
# 4 0.0000 0.0000 0.0000 22.3534 0.0000 0.0000
# 5 0.0000 0.0000 0.0000 0.0000 -11.4246 0.0000
# 6 0.0000 0.0000 0.0000 0.0000 0.0000 0.7309
#
#
#
# Elastic Compliance Matrix: (Units=1/GPa)
#
#
# Indices 1 2 3 4 5 6 
#
# 1 0.014234 -0.004445 -0.000577 0.000000 0.000000 0.000000
# 2 -0.004445 0.009180 -0.002607 0.000000 0.000000 0.000000
# 3 -0.000577 -0.002607 0.029042 0.000000 0.000000 0.000000
# 4 0.000000 0.000000 0.000000 0.044736 0.000000 0.000000
# 5 0.000000 0.000000 0.000000 0.000000 -0.087530 0.000000
# 6 0.000000 0.000000 0.000000 0.000000 0.000000 1.368149
#
#
# Mechanical properties :
#
#
# Convention : Reuss Voigt Hill
#
# Bulk Modulus (GPa) = 26.88294 41.40179 34.14236
# Shear Modulus (GPa) = 3.55753 15.12960 9.34356
#
# Velocity S-wave (km/s) = 1.25406 2.58617 2.03236
# Velocity P-wave (km/s) = 3.73911 5.21729 4.53878
#
# Compressibility (1/GPa) = 0.03719832
#
# Stress axis : x y z
#
# Youngs Moduli (GPa) = 70.25348 108.92819 34.43312
#
# Poissons Ratio (x) = 0.48420 0.01986
# Poissons Ratio (y) = 0.31228 0.08977
# Poissons Ratio (z) = 0.04052 0.28399
#
# Static dielectric constant tensor:
#      x y z
#    x 1.834000 0.000000 0.000000 
#    y 0.000000 1.880170 0.000000 
#    z 0.000000 0.000000 1.902130 
# 
# From -- ./inp_files/10432.got.cif
#   From: 2010.05.17/outbox.cif.g08.bks.cpg/sg63_6_cif.got.tgz:10432.got - 2010.06.03 15:47:04.
