data_PCOD9468452
_publ_section_title
;
Structure prediction by ZEFSAII (Michael W. Deem and Ramdas Pophale) SiO2 
 PCOD9468452
Probable space group: C M C M
;
_chemical_formula_sum "Si O2"
_cell_formula_units_Z 72
_cell_length_a 15.778346
_cell_length_b 17.523644
_cell_length_c 14.091412
_cell_angle_alpha 90.000000
_cell_angle_beta 90.000000
_cell_angle_gamma 90.000000
_cell_volume 3896.192535
_symmetry_space_group_name_H-M "C M C M"
_symmetry_group_IT_number 63
_symmetry_cell_setting 'orthorhombic'
loop_
_space_group_symop_operation_xyz
x,y,z
-x,-y,1/2+z
x,-y,-z
-x,y,1/2-z
-x,-y,-z
x,y,1/2-z
-x,y,z
x,-y,1/2+z
1/2+x,1/2+y,z
1/2-x,1/2-y,1/2+z
1/2+x,1/2-y,-z
1/2-x,1/2+y,1/2-z
1/2-x,1/2-y,-z
1/2+x,1/2+y,1/2-z
1/2-x,1/2+y,z
1/2+x,1/2-y,1/2+z
loop_
_atom_site_type_symbol
_atom_site_label
_atom_site_fract_x
_atom_site_fract_y
_atom_site_fract_z
Si Si1 0.907129 0.812526 0.042303
Si Si2 0.762784 0.919113 0.540985
Si Si3 0.343307 0.199397 0.750000
Si Si4 0.848732 0.210675 0.750000
Si Si5 0.905512 0.354764 0.452925
Si Si6 0.257313 0.642267 0.250000
O O1 0.895918 0.812176 0.155127
O O2 0.000000 0.843252 0.015148
O O3 0.828978 0.856288 0.996163
O O4 0.902989 0.725205 0.008949
O O5 0.670566 0.903830 0.495591
O O6 0.759118 0.907424 0.654516
O O7 0.792050 0.000000 0.500000
O O8 0.244997 0.173271 0.750000
O O9 0.387062 0.168221 0.655900
O O10 0.332163 0.292370 0.750000
O O11 0.824980 0.301330 0.750000
O O12 0.000000 0.387865 0.461916
#
# Coordination Sequence:
#
# PCOD9468452 Si02
#       6
#    16  16   8   8  16   8
#     4  11  21  37  63  92 118 154 206 257 299 350
#     4  12  24  41  61  86 132 167 196 244 305 371
#     4  10  17  34  67  85 125 146 207 260 298 350
#     4  10  17  34  67  85 125 146 207 260 298 350
#     4  11  21  37  63  92 118 154 206 257 299 350
#     4  10  20  38  62  88 116 160 212 236 306 376
#
# _framework density 18.479579000000001
#
# number of rings (size 3 to 8) (size 9 to 14) (size 15 to 20)
#    0.667    0.444    6.667    1.333    0.000    2.667 
#    0.000    1.111    0.000    0.000    0.000    0.000 
#    0.000    0.000    0.000    0.000    0.000    0.000 
#
# Total GULP energy -200786.720640 kJ/mol
# GULP energy per Si atom -5577.408907 kJ/mol
# Density = 1.843752 g / cm^3
# Si number density = 18.479579 Si / 1000 Ang^3
#
#
#
# Elastic Constant Matrix: (Units=GPa)
#
#
# Indices 1 2 3 4 5 6 
#
# 1 76.3837 -7.8884 4.2091 0.0000 0.0000 0.0000
# 2 -7.8884 23.3620 1.1749 0.0000 0.0000 0.0000
# 3 4.2091 1.1749 135.0071 0.0000 0.0000 0.0000
# 4 0.0000 0.0000 0.0000 13.5916 0.0000 0.0000
# 5 0.0000 0.0000 0.0000 0.0000 3.4273 0.0000
# 6 0.0000 0.0000 0.0000 0.0000 0.0000 5.8646
#
#
#
# Elastic Compliance Matrix: (Units=1/GPa)
#
#
# Indices 1 2 3 4 5 6 
#
# 1 0.013594 0.004613 -0.000464 0.000000 0.000000 0.000000
# 2 0.004613 0.044389 -0.000530 0.000000 0.000000 0.000000
# 3 -0.000464 -0.000530 0.007426 0.000000 0.000000 0.000000
# 4 0.000000 0.000000 0.000000 0.073575 0.000000 0.000000
# 5 0.000000 0.000000 0.000000 0.000000 0.291777 0.000000
# 6 0.000000 0.000000 0.000000 0.000000 0.000000 0.170516
#
#
# Mechanical properties :
#
#
# Convention : Reuss Voigt Hill
#
# Bulk Modulus (GPa) = 13.76511 25.52711 19.64611
# Shear Modulus (GPa) = 8.08729 20.39383 14.24056
#
# Velocity S-wave (km/s) = 2.09424 3.32563 2.77900
# Velocity P-wave (km/s) = 3.64867 5.34697 4.57728
#
# Compressibility (1/GPa) = 0.07264742
#
# Stress axis : x y z
#
# Youngs Moduli (GPa) = 73.56294 22.52815 134.66022
#
# Poissons Ratio (x) = -0.10393 0.06248
# Poissons Ratio (y) = -0.33937 0.07139
# Poissons Ratio (z) = 0.03413 0.01194
#
# Static dielectric constant tensor:
#      x y z
#    x 1.656580 0.000000 0.000000 
#    y 0.000000 1.616940 0.000000 
#    z 0.000000 0.000000 1.635870 
# 
# From -- ./inp_files/31531.got.cif
#   From: 2010.05.17/outbox.cif.g08.bks.cpg/sg63_16_cif.got.tgz:31531.got - 2010.06.03 15:47:04.
