data_PCOD9468487
_publ_section_title
;
Structure prediction by ZEFSAII (Michael W. Deem and Ramdas Pophale) SiO2 
 PCOD9468487
Probable space group: C M C M
;
_chemical_formula_sum "Si O2"
_cell_formula_units_Z 80
_cell_length_a 9.120583
_cell_length_b 20.965833
_cell_length_c 25.449424
_cell_angle_alpha 90.000000
_cell_angle_beta 90.000000
_cell_angle_gamma 90.000000
_cell_volume 4866.454637
_symmetry_space_group_name_H-M "C M C M"
_symmetry_group_IT_number 63
_symmetry_cell_setting 'orthorhombic'
loop_
_space_group_symop_operation_xyz
x,y,z
-x,-y,1/2+z
x,-y,-z
-x,y,1/2-z
-x,-y,-z
x,y,1/2-z
-x,y,z
x,-y,1/2+z
1/2+x,1/2+y,z
1/2-x,1/2-y,1/2+z
1/2+x,1/2-y,-z
1/2-x,1/2+y,1/2-z
1/2-x,1/2-y,-z
1/2+x,1/2+y,1/2-z
1/2-x,1/2+y,z
1/2+x,1/2-y,1/2+z
loop_
_atom_site_type_symbol
_atom_site_label
_atom_site_fract_x
_atom_site_fract_y
_atom_site_fract_z
Si Si1 0.824812 0.239805 0.144245
Si Si2 0.823250 0.935858 0.029697
Si Si3 0.174105 0.608928 0.866094
Si Si4 0.824556 0.617554 0.750000
Si Si5 0.323804 0.692372 0.031112
Si Si6 0.825761 0.744424 0.250000
O O1 0.790405 0.314885 0.133154
O O2 0.786790 0.200043 0.092439
O O3 0.740982 0.217392 0.196150
O O4 0.000000 0.236831 0.153381
O O5 0.758136 0.926489 0.087663
O O6 0.000000 0.936847 0.033486
O O7 0.780541 0.874307 0.995049
O O8 0.775986 0.000000 0.000000
O O9 0.205481 0.585680 0.806363
O O10 0.000000 0.603453 0.875029
O O11 0.732638 0.682623 0.750000
O O12 0.000000 0.633495 0.750000
O O13 0.500000 0.698601 0.026996
O O14 0.250000 0.750000 0.000000
O O15 0.000000 0.741764 0.250000
#
# Coordination Sequence:
#
# PCOD9468487 Si02
#       6
#    16  16  16   8  16   8
#     4   9  17  30  47  68  96 129 162 198 243 293
#     4  10  21  34  48  71 104 134 160 200 251 295
#     4   9  16  29  49  71  95 126 164 201 237 287
#     4   8  16  30  46  67  98 127 157 199 245 291
#     4  10  19  32  51  72  97 129 164 201 242 289
#     4  10  18  26  42  71 100 125 155 199 249 291
#
# _framework density 16.439071999999999
#
# number of rings (size 3 to 8) (size 9 to 14) (size 15 to 20)
#    0.000    2.600    2.000    2.100    0.000    4.400 
#    0.000    0.000    0.000    1.200    0.000    5.600 
#    0.000    0.000    0.000    0.000    0.000    0.000 
#
# Total GULP energy -222835.301664 kJ/mol
# GULP energy per Si atom -5570.882542 kJ/mol
# Density = 1.640166 g / cm^3
# Si number density = 16.439072 Si / 1000 Ang^3
#
#
#
# Elastic Constant Matrix: (Units=GPa)
#
#
# Indices 1 2 3 4 5 6 
#
# 1 26.9969 24.5188 55.5326 0.0000 0.0000 0.0000
# 2 24.5188 77.9489 64.6564 0.0000 0.0000 0.0000
# 3 55.5326 64.6564 191.1716 0.0000 0.0000 0.0000
# 4 0.0000 0.0000 0.0000 18.8510 0.0000 0.0000
# 5 0.0000 0.0000 0.0000 0.0000 31.1763 0.0000
# 6 0.0000 0.0000 0.0000 0.0000 0.0000 12.5496
#
#
#
# Elastic Compliance Matrix: (Units=1/GPa)
#
#
# Indices 1 2 3 4 5 6 
#
# 1 0.097290 -0.009953 -0.024895 0.000000 0.000000 0.000000
# 2 -0.009953 0.018849 -0.003484 0.000000 0.000000 0.000000
# 3 -0.024895 -0.003484 0.013641 0.000000 0.000000 0.000000
# 4 0.000000 0.000000 0.000000 0.053048 0.000000 0.000000
# 5 0.000000 0.000000 0.000000 0.000000 0.032076 0.000000
# 6 0.000000 0.000000 0.000000 0.000000 0.000000 0.079684
#
#
# Mechanical properties :
#
#
# Convention : Reuss Voigt Hill
#
# Bulk Modulus (GPa) = 18.82656 65.05923 41.94289
# Shear Modulus (GPa) = 12.85492 22.60935 17.73213
#
# Velocity S-wave (km/s) = 2.79941 3.71258 3.28786
# Velocity P-wave (km/s) = 4.68253 7.61837 6.32320
#
# Compressibility (1/GPa) = 0.05311646
#
# Stress axis : x y z
#
# Youngs Moduli (GPa) = 10.27858 53.05221 73.30884
#
# Poissons Ratio (x) = 0.52801 1.82504
# Poissons Ratio (y) = 0.10230 0.25541
# Poissons Ratio (z) = 0.25589 0.18483
#
# Static dielectric constant tensor:
#      x y z
#    x 1.544860 0.000000 0.000000 
#    y 0.000000 1.529350 0.000000 
#    z 0.000000 0.000000 1.583410 
# 
# From -- ./inp_files/59547.got.cif
#   From: 2010.05.17/outbox.cif.g08.bks.cpg/sg63_30_cif.got.tgz:59547.got - 2010.06.03 15:47:04.
