data_PCOD9468410
_publ_section_title
;
Structure prediction by ZEFSAII (Michael W. Deem and Ramdas Pophale) SiO2 
 PCOD9468410
Probable space group: C M C M
;
_chemical_formula_sum "Si O2"
_cell_formula_units_Z 112
_cell_length_a 14.673520
_cell_length_b 13.808803
_cell_length_c 29.418282
_cell_angle_alpha 90.000000
_cell_angle_beta 90.000000
_cell_angle_gamma 90.000000
_cell_volume 5960.842529
_symmetry_space_group_name_H-M "C M C M"
_symmetry_group_IT_number 63
_symmetry_cell_setting 'orthorhombic'
loop_
_space_group_symop_operation_xyz
x,y,z
-x,-y,1/2+z
x,-y,-z
-x,y,1/2-z
-x,-y,-z
x,y,1/2-z
-x,y,z
x,-y,1/2+z
1/2+x,1/2+y,z
1/2-x,1/2-y,1/2+z
1/2+x,1/2-y,-z
1/2-x,1/2+y,1/2-z
1/2-x,1/2-y,-z
1/2+x,1/2+y,1/2-z
1/2-x,1/2+y,z
1/2+x,1/2-y,1/2+z
loop_
_atom_site_type_symbol
_atom_site_label
_atom_site_fract_x
_atom_site_fract_y
_atom_site_fract_z
Si Si1 0.240261 0.536917 0.102796
Si Si2 0.396692 0.625394 0.600328
Si Si3 0.357746 0.625951 0.799234
Si Si4 0.853266 0.305448 0.199756
Si Si5 0.254636 0.237588 0.446272
Si Si6 0.702137 0.587661 0.199976
Si Si7 0.897363 0.368029 0.100763
O O1 0.330130 0.468561 0.098539
O O2 0.244360 0.626845 0.069316
O O3 0.237627 0.575317 0.154936
O O4 0.153986 0.469264 0.093503
O O5 0.500000 0.606418 0.585286
O O6 0.398989 0.657914 0.653278
O O7 0.344095 0.707379 0.572321
O O8 0.392750 0.659499 0.750000
O O9 0.251634 0.657611 0.801403
O O10 0.359688 0.508663 0.799430
O O11 0.889198 0.331179 0.250000
O O12 0.850768 0.188779 0.196069
O O13 0.897801 0.348280 0.154976
O O14 0.250000 0.250000 0.500000
O O15 0.167927 0.288483 0.422244
O O16 0.748811 0.589575 0.250000
O O17 0.000000 0.365757 0.083359
#
# Coordination Sequence:
#
# PCOD9468410 Si02
#       7
#    16  16  16  16  16  16  16
#     4  10  20  40  60  85 118 154 188 236 294 349
#     4  10  21  37  60  90 117 147 193 240 289 349
#     4   9  16  30  52  81 117 153 189 228 280 338
#     4  10  17  31  54  83 119 161 196 232 277 339
#     4  11  24  44  64  82 112 155 198 249 307 357
#     4   9  15  27  54  81 109 153 194 220 268 337
#     4  11  23  38  59  92 121 151 195 243 295 354
#
# _framework density 18.789290000000001
#
# number of rings (size 3 to 8) (size 9 to 14) (size 15 to 20)
#    0.000    2.000    5.714    0.000    0.000    4.571 
#    0.000    1.429    0.000    2.571    0.000    2.000 
#    0.000    0.000    0.000    0.000    0.000    0.000 
#
# Total GULP energy -312151.256228 kJ/mol
# GULP energy per Si atom -5574.129576 kJ/mol
# Density = 1.874652 g / cm^3
# Si number density = 18.789290 Si / 1000 Ang^3
#
#
#
# Elastic Constant Matrix: (Units=GPa)
#
#
# Indices 1 2 3 4 5 6 
#
# 1 117.6114 37.6781 32.5964 0.0000 0.0000 0.0000
# 2 37.6781 68.4642 40.0219 0.0000 0.0000 0.0000
# 3 32.5964 40.0219 101.7697 0.0000 0.0000 0.0000
# 4 0.0000 0.0000 0.0000 -95.9190 0.0000 0.0000
# 5 0.0000 0.0000 0.0000 0.0000 0.0325 0.0000
# 6 0.0000 0.0000 0.0000 0.0000 0.0000 -12.8493
#
#
#
# Elastic Compliance Matrix: (Units=1/GPa)
#
#
# Indices 1 2 3 4 5 6 
#
# 1 0.010477 -0.004940 -0.001413 0.000000 0.000000 0.000000
# 2 -0.004940 0.021295 -0.006792 0.000000 0.000000 0.000000
# 3 -0.001413 -0.006792 0.012950 0.000000 0.000000 0.000000
# 4 0.000000 0.000000 0.000000 -0.010425 0.000000 0.000000
# 5 0.000000 0.000000 0.000000 0.000000 30.800581 0.000000
# 6 0.000000 0.000000 0.000000 0.000000 0.000000 -0.077825
#
#
# Mechanical properties :
#
#
# Convention : Reuss Voigt Hill
#
# Bulk Modulus (GPa) = 54.25471 56.49311 55.37391
# Shear Modulus (GPa) = 0.16239 -9.91057 -4.87409
#
# Velocity S-wave (km/s) = 0.29431 -2.29914 -1.61236
# Velocity P-wave (km/s) = 5.39013 4.80457 5.10575
#
# Compressibility (1/GPa) = 0.01843158
#
# Stress axis : x y z
#
# Youngs Moduli (GPa) = 95.45017 46.95887 77.22075
#
# Poissons Ratio (x) = 0.23196 0.10912
# Poissons Ratio (y) = 0.47149 0.52452
# Poissons Ratio (z) = 0.13488 0.31896
#
# Static dielectric constant tensor:
#      x y z
#    x 1.721630 0.000000 0.000000 
#    y 0.000000 1.648990 0.000000 
#    z 0.000000 0.000000 1.694030 
# 
# From -- ./inp_files/73528.got.cif
#   From: 2010.05.17/outbox.cif.g08.bks.cpg/sg63_37_cif.got.tgz:73528.got - 2010.06.03 15:47:04.
