data_PCOD9468096
_publ_section_title
;
Structure prediction by ZEFSAII (Michael W. Deem and Ramdas Pophale) SiO2 
 PCOD9468096
Probable space group: C M C M
;
_chemical_formula_sum "Si O2"
_cell_formula_units_Z 104
_cell_length_a 12.047300
_cell_length_b 25.488043
_cell_length_c 18.962673
_cell_angle_alpha 90.000000
_cell_angle_beta 90.000000
_cell_angle_gamma 90.000000
_cell_volume 5822.718201
_symmetry_space_group_name_H-M "C M C M"
_symmetry_group_IT_number 63
_symmetry_cell_setting 'orthorhombic'
loop_
_space_group_symop_operation_xyz
x,y,z
-x,-y,1/2+z
x,-y,-z
-x,y,1/2-z
-x,-y,-z
x,y,1/2-z
-x,y,z
x,-y,1/2+z
1/2+x,1/2+y,z
1/2-x,1/2-y,1/2+z
1/2+x,1/2-y,-z
1/2-x,1/2+y,1/2-z
1/2-x,1/2-y,-z
1/2+x,1/2+y,1/2-z
1/2-x,1/2+y,z
1/2+x,1/2-y,1/2+z
loop_
_atom_site_type_symbol
_atom_site_label
_atom_site_fract_x
_atom_site_fract_y
_atom_site_fract_z
Si Si1 0.000000 0.321107 0.886566
Si Si2 0.253050 0.813588 0.929591
Si Si3 0.770533 0.807086 0.408098
Si Si4 0.500000 0.936439 0.667050
Si Si5 0.779802 0.493870 0.835634
Si Si6 0.500000 0.294602 0.331221
Si Si7 0.868830 0.899419 0.665816
Si Si8 0.368911 0.104856 0.665152
O O1 0.886502 0.320153 0.930409
O O2 0.000000 0.374594 0.843178
O O3 0.000000 0.268787 0.839461
O O4 0.233606 0.753900 0.903883
O O5 0.197633 0.855682 0.877919
O O6 0.211891 0.818841 0.009376
O O7 0.679632 0.844862 0.374024
O O8 0.887512 0.813392 0.368335
O O9 0.500000 0.948217 0.750000
O O10 0.611620 0.962345 0.638391
O O11 0.781302 0.495322 0.750000
O O12 0.675754 0.457428 0.854624
O O13 0.797228 0.553883 0.857574
O O14 0.500000 0.309748 0.250000
O O15 0.847061 0.892580 0.750000
O O16 0.000000 0.894738 0.654202
O O17 0.358327 0.111113 0.750000
O O18 0.500000 0.096003 0.650843
#
# Coordination Sequence:
#
# PCOD9468096 Si02
#       8
#     8  16  16   8  16   8  16  16
#     4  10  19  32  57  86 108 146 190 240 289 338
#     4  10  22  38  58  82 116 153 191 232 293 350
#     4  10  23  39  56  81 115 157 188 235 288 344
#     4  10  15  26  53  83 108 138 178 231 290 328
#     4   9  17  32  54  82 114 145 182 231 289 341
#     4  10  21  38  58  83 109 144 204 249 277 334
#     4  10  21  36  58  87 115 147 190 239 287 345
#     4  10  20  36  59  86 115 149 191 238 285 338
#
# _framework density 17.861073999999999
#
# number of rings (size 3 to 8) (size 9 to 14) (size 15 to 20)
#    0.000    2.154    2.308    0.692    2.154    3.692 
#    1.385    2.308    0.000    2.769    0.000    0.000 
#    0.000    0.000    0.000    0.000    0.000    0.000 
#
# Total GULP energy -289914.938535 kJ/mol
# GULP energy per Si atom -5575.287280 kJ/mol
# Density = 1.782042 g / cm^3
# Si number density = 17.861074 Si / 1000 Ang^3
#
#
#
# Elastic Constant Matrix: (Units=GPa)
#
#
# Indices 1 2 3 4 5 6 
#
# 1 87.6663 56.0298 54.3882 0.0000 0.0000 0.0000
# 2 56.0298 110.2633 38.8426 0.0000 0.0000 0.0000
# 3 54.3882 38.8426 66.5180 0.0000 0.0000 0.0000
# 4 0.0000 0.0000 0.0000 9.7135 0.0000 0.0000
# 5 0.0000 0.0000 0.0000 0.0000 18.9403 0.0000
# 6 0.0000 0.0000 0.0000 0.0000 0.0000 29.8798
#
#
#
# Elastic Compliance Matrix: (Units=1/GPa)
#
#
# Indices 1 2 3 4 5 6 
#
# 1 0.027420 -0.007598 -0.017982 0.000000 0.000000 0.000000
# 2 -0.007598 0.013524 -0.001684 0.000000 0.000000 0.000000
# 3 -0.017982 -0.001684 0.030720 0.000000 0.000000 0.000000
# 4 0.000000 0.000000 0.000000 0.102949 0.000000 0.000000
# 5 0.000000 0.000000 0.000000 0.000000 0.052797 0.000000
# 6 0.000000 0.000000 0.000000 0.000000 0.000000 0.033467
#
#
# Mechanical properties :
#
#
# Convention : Reuss Voigt Hill
#
# Bulk Modulus (GPa) = 58.36579 62.55209 60.45894
# Shear Modulus (GPa) = 15.57057 19.38586 17.47821
#
# Velocity S-wave (km/s) = 2.95576 3.29807 3.13160
# Velocity P-wave (km/s) = 6.66313 7.04276 6.85557
#
# Compressibility (1/GPa) = 0.01713332
#
# Stress axis : x y z
#
# Youngs Moduli (GPa) = 36.47030 73.94489 32.55178
#
# Poissons Ratio (x) = 0.56186 0.58536
# Poissons Ratio (y) = 0.27712 0.05482
# Poissons Ratio (z) = 0.65583 0.12453
#
# Static dielectric constant tensor:
#      x y z
#    x 1.608360 0.000000 0.000000 
#    y 0.000000 1.610860 0.000000 
#    z 0.000000 0.000000 1.589550 
# 
# From -- ./inp_files/42826.got.cif
#   From: 2010.05.17/outbox.cif.g08.bks.cpg/sg63_22_cif.got.tgz:42826.got - 2010.06.03 15:47:04.
