data_PCOD9468992
_publ_section_title
;
Structure prediction by ZEFSAII (Michael W. Deem and Ramdas Pophale) SiO2 
 PCOD9468992
Probable space group: C M C M
;
_chemical_formula_sum "Si O2"
_cell_formula_units_Z 80
_cell_length_a 7.579340
_cell_length_b 29.089636
_cell_length_c 18.886721
_cell_angle_alpha 90.000000
_cell_angle_beta 90.000000
_cell_angle_gamma 90.000000
_cell_volume 4164.148811
_symmetry_space_group_name_H-M "C M C M"
_symmetry_group_IT_number 63
_symmetry_cell_setting 'orthorhombic'
loop_
_space_group_symop_operation_xyz
x,y,z
-x,-y,1/2+z
x,-y,-z
-x,y,1/2-z
-x,-y,-z
x,y,1/2-z
-x,y,z
x,-y,1/2+z
1/2+x,1/2+y,z
1/2-x,1/2-y,1/2+z
1/2+x,1/2-y,-z
1/2-x,1/2+y,1/2-z
1/2-x,1/2-y,-z
1/2+x,1/2+y,1/2-z
1/2-x,1/2+y,z
1/2+x,1/2-y,1/2+z
loop_
_atom_site_type_symbol
_atom_site_label
_atom_site_fract_x
_atom_site_fract_y
_atom_site_fract_z
Si Si1 0.788456 0.773955 0.425301
Si Si2 0.285024 0.191588 0.330522
Si Si3 0.798854 0.403214 0.595111
Si Si4 0.500000 0.572042 0.667421
Si Si5 0.000000 0.962320 0.833567
Si Si6 0.798080 0.876181 0.055231
O O1 0.750000 0.750000 0.500000
O O2 0.721448 0.738853 0.365794
O O3 0.720807 0.826168 0.427118
O O4 0.000000 0.777064 0.415414
O O5 0.225676 0.186133 0.250000
O O6 0.500000 0.193203 0.330378
O O7 0.239226 0.147107 0.376993
O O8 0.669126 0.440463 0.628039
O O9 0.793686 0.401133 0.509948
O O10 0.000000 0.410575 0.618892
O O11 0.500000 0.584427 0.750000
O O12 0.500000 0.517315 0.660188
O O13 0.666867 0.593772 0.625313
O O14 0.000000 0.950475 0.750000
O O15 0.000000 0.868366 0.028273
#
# Coordination Sequence:
#
# PCOD9468992 Si02
#       6
#    16  16  16   8   8  16
#     4  10  18  30  51  78 108 150 192 235 288 350
#     4   9  18  31  49  78 115 150 193 246 294 355
#     4  11  21  36  60  90 121 155 198 248 308 371
#     4   9  21  41  63  85 115 157 209 257 303 363
#     4  11  23  41  63  85 121 163 199 257 314 358
#     4   9  19  35  58  83 114 155 197 247 302 351
#
# _framework density 19.211608999999999
#
# number of rings (size 3 to 8) (size 9 to 14) (size 15 to 20)
#    0.600    1.600    3.000    0.600    0.000    3.600 
#    0.000    2.000    0.000    1.800    0.000    2.800 
#    0.000    0.000    0.000    0.000    0.000    0.000 
#
# Total GULP energy -223011.271314 kJ/mol
# GULP energy per Si atom -5575.281783 kJ/mol
# Density = 1.916788 g / cm^3
# Si number density = 19.211609 Si / 1000 Ang^3
#
#
#
# Elastic Constant Matrix: (Units=GPa)
#
#
# Indices 1 2 3 4 5 6 
#
# 1 62.8390 28.1756 19.1816 0.0000 0.0000 0.0000
# 2 28.1756 113.7098 71.3853 0.0000 0.0000 0.0000
# 3 19.1816 71.3853 151.5391 0.0000 0.0000 0.0000
# 4 0.0000 0.0000 0.0000 36.7179 0.0000 0.0000
# 5 0.0000 0.0000 0.0000 0.0000 16.2460 0.0000
# 6 0.0000 0.0000 0.0000 0.0000 0.0000 -7.3961
#
#
#
# Elastic Compliance Matrix: (Units=1/GPa)
#
#
# Indices 1 2 3 4 5 6 
#
# 1 0.017909 -0.004280 -0.000251 0.000000 0.000000 0.000000
# 2 -0.004280 0.013510 -0.005822 0.000000 0.000000 0.000000
# 3 -0.000251 -0.005822 0.009373 0.000000 0.000000 0.000000
# 4 0.000000 0.000000 0.000000 0.027235 0.000000 0.000000
# 5 0.000000 0.000000 0.000000 0.000000 0.061554 0.000000
# 6 0.000000 0.000000 0.000000 0.000000 0.000000 -0.135206
#
#
# Mechanical properties :
#
#
# Convention : Reuss Voigt Hill
#
# Bulk Modulus (GPa) = 49.78531 62.84143 56.31337
# Shear Modulus (GPa) = 229.60074 23.06991 126.33533
#
# Velocity S-wave (km/s) = 10.94399 3.46906 8.11804
# Velocity P-wave (km/s) = 13.62589 6.98763 10.82802
#
# Compressibility (1/GPa) = 0.02008625
#
# Stress axis : x y z
#
# Youngs Moduli (GPa) = 55.83659 74.01843 106.68448
#
# Poissons Ratio (x) = 0.31683 0.02674
# Poissons Ratio (y) = 0.23900 0.62116
# Poissons Ratio (z) = 0.01399 0.43097
#
# Static dielectric constant tensor:
#      x y z
#    x 1.723500 0.000000 0.000000 
#    y 0.000000 1.658580 0.000000 
#    z 0.000000 0.000000 1.653350 
# 
# From -- ./inp_files/50952.got.cif
#   From: 2010.05.17/outbox.cif.g08.bks.cpg/sg63_26_cif.got.tgz:50952.got - 2010.06.03 15:47:04.
