data_PCOD9468682
_publ_section_title
;
Structure prediction by ZEFSAII (Michael W. Deem and Ramdas Pophale) SiO2 
 PCOD9468682
Probable space group: C M C M
;
_chemical_formula_sum "Si O2"
_cell_formula_units_Z 92
_cell_length_a 22.815022
_cell_length_b 6.913190
_cell_length_c 22.893071
_cell_angle_alpha 90.000000
_cell_angle_beta 90.000000
_cell_angle_gamma 90.000000
_cell_volume 3610.800053
_symmetry_space_group_name_H-M "C M C M"
_symmetry_group_IT_number 63
_symmetry_cell_setting 'orthorhombic'
loop_
_space_group_symop_operation_xyz
x,y,z
-x,-y,1/2+z
x,-y,-z
-x,y,1/2-z
-x,-y,-z
x,y,1/2-z
-x,y,z
x,-y,1/2+z
1/2+x,1/2+y,z
1/2-x,1/2-y,1/2+z
1/2+x,1/2-y,-z
1/2-x,1/2+y,1/2-z
1/2-x,1/2-y,-z
1/2+x,1/2+y,1/2-z
1/2-x,1/2+y,z
1/2+x,1/2-y,1/2+z
loop_
_atom_site_type_symbol
_atom_site_label
_atom_site_fract_x
_atom_site_fract_y
_atom_site_fract_z
Si Si1 0.800055 0.588427 0.186993
Si Si2 0.066760 0.118288 0.250000
Si Si3 0.000000 0.686234 0.116169
Si Si4 0.872583 0.258077 0.048098
Si Si5 0.000000 0.225201 0.482551
Si Si6 0.500000 0.001320 0.250000
Si Si7 0.167924 0.854848 0.835039
Si Si8 0.868174 0.292313 0.916943
O O1 0.818172 0.666760 0.250000
O O2 0.827104 0.374969 0.179896
O O3 0.730194 0.567331 0.185353
O O4 0.821083 0.722532 0.134131
O O5 0.053844 0.348900 0.250000
O O6 0.108804 0.073359 0.195759
O O7 0.000000 0.033002 0.250000
O O8 0.931904 0.753161 0.111069
O O9 0.000000 0.646227 0.042287
O O10 0.000000 0.598264 0.184002
O O11 0.839523 0.132180 0.095581
O O12 0.861452 0.481352 0.063893
O O13 0.861549 0.202800 0.981089
O O14 0.942474 0.248589 0.055658
O O15 0.000000 0.000000 0.500000
#
# Coordination Sequence:
#
# PCOD9468682 Si02
#       8
#    16   8   8  16   8   4  16  16
#     4  11  21  38  59  87 124 162 207 245 311 377
#     4  10  22  34  62  97 123 154 203 256 319 369
#     4  10  19  32  56  94 122 155 202 254 324 358
#     4   9  19  36  59  85 117 154 209 259 301 370
#     4  10  21  39  60  85 127 169 205 250 332 388
#     4  10  18  28  58  94 122 144 190 270 300 372
#     4  11  22  40  62  89 121 169 208 256 313 365
#     4   9  19  34  59  90 116 154 205 262 307 354
#
# _framework density 25.479116999999999
#
# number of rings (size 3 to 8) (size 9 to 14) (size 15 to 20)
#    0.261    1.739    1.739    2.609    2.435    2.783 
#    6.261    0.000    0.000    1.043    0.000    1.217 
#    0.000    0.000    0.000    0.000    0.000    0.000 
#
# Total GULP energy -256548.469388 kJ/mol
# GULP energy per Si atom -5577.140639 kJ/mol
# Density = 2.542113 g / cm^3
# Si number density = 25.479117 Si / 1000 Ang^3
#
#
#
# Elastic Constant Matrix: (Units=GPa)
#
#
# Indices 1 2 3 4 5 6 
#
# 1 128.6797 11.0804 79.3779 0.0000 0.0000 0.0000
# 2 11.0804 68.0714 45.8036 0.0000 0.0000 0.0000
# 3 79.3779 45.8036 230.4695 0.0000 0.0000 0.0000
# 4 0.0000 0.0000 0.0000 25.2367 0.0000 0.0000
# 5 0.0000 0.0000 0.0000 0.0000 54.9226 0.0000
# 6 0.0000 0.0000 0.0000 0.0000 0.0000 5.3156
#
#
#
# Elastic Compliance Matrix: (Units=1/GPa)
#
#
# Indices 1 2 3 4 5 6 
#
# 1 0.009904 0.000789 -0.003568 0.000000 0.000000 0.000000
# 2 0.000789 0.017021 -0.003654 0.000000 0.000000 0.000000
# 3 -0.003568 -0.003654 0.006294 0.000000 0.000000 0.000000
# 4 0.000000 0.000000 0.000000 0.039625 0.000000 0.000000
# 5 0.000000 0.000000 0.000000 0.000000 0.018207 0.000000
# 6 0.000000 0.000000 0.000000 0.000000 0.000000 0.188124
#
#
# Mechanical properties :
#
#
# Convention : Reuss Voigt Hill
#
# Bulk Modulus (GPa) = 49.13526 77.74938 63.44232
# Shear Modulus (GPa) = 16.73208 36.49223 26.61216
#
# Velocity S-wave (km/s) = 2.56539 3.78860 3.23533
# Velocity P-wave (km/s) = 5.30107 7.05118 6.23781
#
# Compressibility (1/GPa) = 0.02035199
#
# Stress axis : x y z
#
# Youngs Moduli (GPa) = 100.96663 58.75079 158.87882
#
# Poissons Ratio (x) = -0.04633 0.56687
# Poissons Ratio (y) = -0.07962 0.58060
# Poissons Ratio (z) = 0.36024 0.21470
#
# Static dielectric constant tensor:
#      x y z
#    x 1.928170 0.000000 0.000000 
#    y 0.000000 2.154500 0.000000 
#    z 0.000000 0.000000 2.038800 
# 
# From -- ./inp_files/57435.got.cif
#   From: 2010.05.17/outbox.cif.g08.bks.cpg/sg63_29_cif.got.tgz:57435.got - 2010.06.03 15:47:04.
