data_PCOD9468259
_publ_section_title
;
Structure prediction by ZEFSAII (Michael W. Deem and Ramdas Pophale) SiO2 
 PCOD9468259
Probable space group: C M C M
;
_chemical_formula_sum "Si O2"
_cell_formula_units_Z 112
_cell_length_a 18.794112
_cell_length_b 20.030808
_cell_length_c 19.016217
_cell_angle_alpha 90.000000
_cell_angle_beta 90.000000
_cell_angle_gamma 90.000000
_cell_volume 7158.868803
_symmetry_space_group_name_H-M "C M C M"
_symmetry_group_IT_number 63
_symmetry_cell_setting 'orthorhombic'
loop_
_space_group_symop_operation_xyz
x,y,z
-x,-y,1/2+z
x,-y,-z
-x,y,1/2-z
-x,-y,-z
x,y,1/2-z
-x,y,z
x,-y,1/2+z
1/2+x,1/2+y,z
1/2-x,1/2-y,1/2+z
1/2+x,1/2-y,-z
1/2-x,1/2+y,1/2-z
1/2-x,1/2-y,-z
1/2+x,1/2+y,1/2-z
1/2-x,1/2+y,z
1/2+x,1/2-y,1/2+z
loop_
_atom_site_type_symbol
_atom_site_label
_atom_site_fract_x
_atom_site_fract_y
_atom_site_fract_z
Si Si1 0.080461 0.630118 0.895030
Si Si2 0.704370 0.550740 0.063973
Si Si3 0.417401 0.400289 0.832798
Si Si4 0.233243 0.696067 0.440131
Si Si5 0.354597 0.991476 0.914566
Si Si6 0.652364 0.259869 0.832128
Si Si7 0.920797 0.353909 0.935701
O O1 0.114900 0.558291 0.881330
O O2 0.123864 0.691794 0.864917
O O3 0.000000 0.632370 0.868031
O O4 0.077961 0.637202 0.979715
O O5 0.637600 0.563674 0.114738
O O6 0.735712 0.622835 0.038101
O O7 0.772755 0.521296 0.105125
O O8 0.688111 0.500000 0.000000
O O9 0.403090 0.415074 0.750000
O O10 0.500000 0.415517 0.847361
O O11 0.403147 0.320917 0.842070
O O12 0.250000 0.750000 0.500000
O O13 0.276767 0.717132 0.371610
O O14 0.149401 0.690375 0.424049
O O15 0.402502 0.926155 0.902418
O O16 0.353785 0.000000 0.000000
O O17 0.664268 0.251410 0.750000
O O18 0.000000 0.331063 0.914353
#
# Coordination Sequence:
#
# PCOD9468259 Si02
#       7
#    16  16  16  16  16  16  16
#     4  10  17  26  45  72 102 130 158 193 241 296
#     4   9  18  30  49  71  97 129 162 206 245 289
#     4   9  18  33  50  68  94 128 164 204 253 303
#     4  10  18  32  51  72  99 131 165 207 242 290
#     4   8  15  27  43  66  99 131 157 189 232 289
#     4  10  20  32  48  71  99 132 164 200 249 301
#     4   9  16  27  46  73  99 126 161 200 243 286
#
# _framework density 15.644928999999999
#
# number of rings (size 3 to 8) (size 9 to 14) (size 15 to 20)
#    0.000    2.714    1.429    1.714    0.000    2.857 
#    0.000    0.714    0.000    1.286    0.000    0.000 
#    0.000    0.000    0.000    0.000    0.000    0.000 
#
# Total GULP energy -311768.708519 kJ/mol
# GULP energy per Si atom -5567.298366 kJ/mol
# Density = 1.560932 g / cm^3
# Si number density = 15.644929 Si / 1000 Ang^3
#
#
#
# Elastic Constant Matrix: (Units=GPa)
#
#
# Indices 1 2 3 4 5 6 
#
# 1 146.9531 58.6655 36.6552 0.0000 0.0000 0.0000
# 2 58.6655 96.2900 33.3363 0.0000 0.0000 0.0000
# 3 36.6552 33.3363 38.5268 0.0000 0.0000 0.0000
# 4 0.0000 0.0000 0.0000 14.7018 0.0000 0.0000
# 5 0.0000 0.0000 0.0000 0.0000 14.7417 0.0000
# 6 0.0000 0.0000 0.0000 0.0000 0.0000 18.3421
#
#
#
# Elastic Compliance Matrix: (Units=1/GPa)
#
#
# Indices 1 2 3 4 5 6 
#
# 1 0.009871 -0.003944 -0.005978 0.000000 0.000000 0.000000
# 2 -0.003944 0.016403 -0.010441 0.000000 0.000000 0.000000
# 3 -0.005978 -0.010441 0.040678 0.000000 0.000000 0.000000
# 4 0.000000 0.000000 0.000000 0.068019 0.000000 0.000000
# 5 0.000000 0.000000 0.000000 0.000000 0.067835 0.000000
# 6 0.000000 0.000000 0.000000 0.000000 0.000000 0.054519
#
#
# Mechanical properties :
#
#
# Convention : Reuss Voigt Hill
#
# Bulk Modulus (GPa) = 38.13103 59.89819 49.01461
# Shear Modulus (GPa) = 16.29768 19.76465 18.03116
#
# Velocity S-wave (km/s) = 3.23107 3.55819 3.39857
# Velocity P-wave (km/s) = 6.19237 7.43304 6.84089
#
# Compressibility (1/GPa) = 0.02622536
#
# Stress axis : x y z
#
# Youngs Moduli (GPa) = 101.31085 60.96524 24.58332
#
# Poissons Ratio (x) = 0.24044 0.14697
# Poissons Ratio (y) = 0.39957 0.25666
# Poissons Ratio (z) = 0.60569 0.63651
#
# Static dielectric constant tensor:
#      x y z
#    x 1.539890 0.000000 0.000000 
#    y 0.000000 1.531140 0.000000 
#    z 0.000000 0.000000 1.502560 
# 
# From -- ./inp_files/46081.got.cif
#   From: 2010.05.17/outbox.cif.g08.bks.cpg/sg63_24_cif.got.tgz:46081.got - 2010.06.03 15:47:04.
