data_PCOD9468506
_publ_section_title
;
Structure prediction by ZEFSAII (Michael W. Deem and Ramdas Pophale) SiO2 
 PCOD9468506
Probable space group: C M C M
;
_chemical_formula_sum "Si O2"
_cell_formula_units_Z 56
_cell_length_a 18.335804
_cell_length_b 22.892348
_cell_length_c 8.669496
_cell_angle_alpha 90.000000
_cell_angle_beta 90.000000
_cell_angle_gamma 90.000000
_cell_volume 3639.017530
_symmetry_space_group_name_H-M "C M C M"
_symmetry_group_IT_number 63
_symmetry_cell_setting 'orthorhombic'
loop_
_space_group_symop_operation_xyz
x,y,z
-x,-y,1/2+z
x,-y,-z
-x,y,1/2-z
-x,-y,-z
x,y,1/2-z
-x,y,z
x,-y,1/2+z
1/2+x,1/2+y,z
1/2-x,1/2-y,1/2+z
1/2+x,1/2-y,-z
1/2-x,1/2+y,1/2-z
1/2-x,1/2-y,-z
1/2+x,1/2+y,1/2-z
1/2-x,1/2+y,z
1/2+x,1/2-y,1/2+z
loop_
_atom_site_type_symbol
_atom_site_label
_atom_site_fract_x
_atom_site_fract_y
_atom_site_fract_z
Si Si1 0.000000 0.564890 0.064354
Si Si2 0.083015 0.779749 0.565438
Si Si3 0.272511 0.686272 0.565942
Si Si4 0.872872 0.652834 0.435526
O O1 0.071305 0.602066 0.017891
O O2 0.000000 0.562528 0.250000
O O3 0.000000 0.500000 0.000000
O O4 0.092162 0.777206 0.750000
O O5 0.145366 0.821127 0.494627
O O6 0.096432 0.714590 0.498635
O O7 0.000000 0.797159 0.530085
O O8 0.271050 0.687433 0.750000
O O9 0.250000 0.750000 0.500000
O O10 0.208598 0.645213 0.501531
O O11 0.869919 0.656483 0.250000
#
# Coordination Sequence:
#
# PCOD9468506 Si02
#       4
#     8  16  16  16
#     4  10  22  34  48  66  86 116 152 192 229 262
#     4  10  18  27  42  64  88 117 148 179 216 260
#     4  10  18  27  41  61  84 114 146 178 217 261
#     4  10  18  31  45  60  84 114 148 184 224 261
#
# _framework density 15.388768000000001
#
# number of rings (size 3 to 8) (size 9 to 14) (size 15 to 20)
#    0.000    2.000    1.429    7.714    0.000    4.000 
#    0.000    0.000    0.000    0.000    0.000    0.000 
#    0.000    1.143    0.000    3.714    0.000    4.571 
#
# Total GULP energy -156077.438497 kJ/mol
# GULP energy per Si atom -5574.194232 kJ/mol
# Density = 1.535374 g / cm^3
# Si number density = 15.388768 Si / 1000 Ang^3
#
#
#
# Elastic Constant Matrix: (Units=GPa)
#
#
# Indices 1 2 3 4 5 6 
#
# 1 180.1141 51.5155 64.2756 0.0000 0.0000 0.0000
# 2 51.5155 51.3574 20.0374 0.0000 0.0000 0.0000
# 3 64.2756 20.0374 88.0178 0.0000 0.0000 0.0000
# 4 0.0000 0.0000 0.0000 16.6681 0.0000 0.0000
# 5 0.0000 0.0000 0.0000 0.0000 26.6438 0.0000
# 6 0.0000 0.0000 0.0000 0.0000 0.0000 13.9279
#
#
#
# Elastic Compliance Matrix: (Units=1/GPa)
#
#
# Indices 1 2 3 4 5 6 
#
# 1 0.009606 -0.007571 -0.005291 0.000000 0.000000 0.000000
# 2 -0.007571 0.027336 -0.000695 0.000000 0.000000 0.000000
# 3 -0.005291 -0.000695 0.015383 0.000000 0.000000 0.000000
# 4 0.000000 0.000000 0.000000 0.059995 0.000000 0.000000
# 5 0.000000 0.000000 0.000000 0.000000 0.037532 0.000000
# 6 0.000000 0.000000 0.000000 0.000000 0.000000 0.071799
#
#
# Mechanical properties :
#
#
# Convention : Reuss Voigt Hill
#
# Bulk Modulus (GPa) = 39.66285 65.68294 52.67289
# Shear Modulus (GPa) = 19.44255 23.69199 21.56727
#
# Velocity S-wave (km/s) = 3.55832 3.92798 3.74772
# Velocity P-wave (km/s) = 6.53545 7.95909 7.28214
#
# Compressibility (1/GPa) = 0.02521251
#
# Stress axis : x y z
#
# Youngs Moduli (GPa) = 104.10633 36.58116 65.00565
#
# Poissons Ratio (x) = 0.27695 0.34395
# Poissons Ratio (y) = 0.78817 0.04515
# Poissons Ratio (z) = 0.55083 0.02541
#
# Static dielectric constant tensor:
#      x y z
#    x 1.583010 0.000000 0.000000 
#    y 0.000000 1.467670 0.000000 
#    z 0.000000 0.000000 1.515210 
# 
# From -- ./inp_files/5667.got.cif
#   From: 2010.05.17/outbox.cif.g08.bks.cpg/sg63_3_cif.got.tgz:5667.got - 2010.06.03 15:47:04.
