data_PCOD9468579
_publ_section_title
;
Structure prediction by ZEFSAII (Michael W. Deem and Ramdas Pophale) SiO2 
 PCOD9468579
Probable space group: C M C M
;
_chemical_formula_sum "Si O2"
_cell_formula_units_Z 96
_cell_length_a 21.861260
_cell_length_b 31.670005
_cell_length_c 7.850160
_cell_angle_alpha 90.000000
_cell_angle_beta 90.000000
_cell_angle_gamma 90.000000
_cell_volume 5435.028551
_symmetry_space_group_name_H-M "C M C M"
_symmetry_group_IT_number 63
_symmetry_cell_setting 'orthorhombic'
loop_
_space_group_symop_operation_xyz
x,y,z
-x,-y,1/2+z
x,-y,-z
-x,y,1/2-z
-x,-y,-z
x,y,1/2-z
-x,y,z
x,-y,1/2+z
1/2+x,1/2+y,z
1/2-x,1/2-y,1/2+z
1/2+x,1/2-y,-z
1/2-x,1/2+y,1/2-z
1/2-x,1/2-y,-z
1/2+x,1/2+y,1/2-z
1/2-x,1/2+y,z
1/2+x,1/2-y,1/2+z
loop_
_atom_site_type_symbol
_atom_site_label
_atom_site_fract_x
_atom_site_fract_y
_atom_site_fract_z
Si Si1 0.434831 0.437708 0.450198
Si Si2 0.097433 0.845406 0.544915
Si Si3 0.235472 0.863527 0.546199
Si Si4 0.299779 0.454646 0.451824
Si Si5 0.566149 0.251314 0.453688
Si Si6 0.804181 0.282906 0.543935
O O1 0.435061 0.448795 0.250000
O O2 0.500000 0.452061 0.525975
O O3 0.432471 0.387053 0.467743
O O4 0.369501 0.452028 0.526307
O O5 0.093724 0.848444 0.750000
O O6 0.168505 0.847472 0.490230
O O7 0.070313 0.801255 0.487871
O O8 0.236262 0.861013 0.750000
O O9 0.237510 0.912985 0.502981
O O10 0.284536 0.829596 0.482500
O O11 0.273232 0.500000 0.500000
O O12 0.305774 0.452594 0.250000
O O13 0.566169 0.244815 0.250000
O O14 0.500000 0.235969 0.519920
O O15 0.629312 0.231432 0.521723
O O16 0.807330 0.283513 0.750000
O O17 0.750000 0.250000 0.500000
#
# Coordination Sequence:
#
# PCOD9468579 Si02
#       6
#    16  16  16  16  16  16
#     4   9  18  31  44  59  83 117 155 191 232 281
#     4  10  18  28  43  64  89 119 158 201 238 270
#     4   9  18  32  48  67  90 118 155 197 235 275
#     4  10  20  33  49  67  87 114 147 190 239 284
#     4  10  20  31  44  65  95 129 161 194 235 282
#     4  10  19  32  50  70  95 127 163 200 236 278
#
# _framework density 17.6632
#
# number of rings (size 3 to 8) (size 9 to 14) (size 15 to 20)
#    0.000    2.333    1.667    1.500    0.000    5.000 
#    0.000    0.000    0.000    0.000    0.000    0.000 
#    0.000    0.667    0.000    1.167    0.000    1.667 
#
# Total GULP energy -267653.316958 kJ/mol
# GULP energy per Si atom -5576.110770 kJ/mol
# Density = 1.762300 g / cm^3
# Si number density = 17.663200 Si / 1000 Ang^3
#
#
#
# Elastic Constant Matrix: (Units=GPa)
#
#
# Indices 1 2 3 4 5 6 
#
# 1 104.2854 64.9097 7.0892 0.0000 0.0000 0.0000
# 2 64.9097 125.6989 -3.6001 0.0000 0.0000 0.0000
# 3 7.0892 -3.6001 18.3188 0.0000 0.0000 0.0000
# 4 0.0000 0.0000 0.0000 16.7870 0.0000 0.0000
# 5 0.0000 0.0000 0.0000 0.0000 7.9746 0.0000
# 6 0.0000 0.0000 0.0000 0.0000 0.0000 -4.6022
#
#
#
# Elastic Compliance Matrix: (Units=1/GPa)
#
#
# Indices 1 2 3 4 5 6 
#
# 1 0.015067 -0.007992 -0.007401 0.000000 0.000000 0.000000
# 2 -0.007992 0.012240 0.005498 0.000000 0.000000 0.000000
# 3 -0.007401 0.005498 0.058534 0.000000 0.000000 0.000000
# 4 0.000000 0.000000 0.000000 0.059570 0.000000 0.000000
# 5 0.000000 0.000000 0.000000 0.000000 0.125398 0.000000
# 6 0.000000 0.000000 0.000000 0.000000 0.000000 -0.217286
#
#
# Mechanical properties :
#
#
# Convention : Reuss Voigt Hill
#
# Bulk Modulus (GPa) = 15.14006 42.78898 28.96452
# Shear Modulus (GPa) = 52.44974 16.02550 34.23762
#
# Velocity S-wave (km/s) = 5.45516 3.01538 4.40746
# Velocity P-wave (km/s) = 6.94756 6.03331 6.50651
#
# Compressibility (1/GPa) = 0.06604993
#
# Stress axis : x y z
#
# Youngs Moduli (GPa) = 66.37099 81.69827 17.08421
#
# Poissons Ratio (x) = 0.65296 0.12645
# Poissons Ratio (y) = 0.53046 -0.09394
# Poissons Ratio (z) = 0.49124 -0.44921
#
# Static dielectric constant tensor:
#      x y z
#    x 1.644830 0.000000 0.000000 
#    y 0.000000 1.636920 0.000000 
#    z 0.000000 0.000000 1.632050 
# 
# From -- ./inp_files/8531.got.cif
#   From: 2010.05.17/outbox.cif.g08.bks.cpg/sg63_5_cif.got.tgz:8531.got - 2010.06.03 15:47:04.
