data_PCOD9468998
_publ_section_title
;
Structure prediction by ZEFSAII (Michael W. Deem and Ramdas Pophale) SiO2 
 PCOD9468998
Probable space group: C M C M
;
_chemical_formula_sum "Si O2"
_cell_formula_units_Z 80
_cell_length_a 20.724114
_cell_length_b 12.729646
_cell_length_c 18.326211
_cell_angle_alpha 90.000000
_cell_angle_beta 90.000000
_cell_angle_gamma 90.000000
_cell_volume 4834.649359
_symmetry_space_group_name_H-M "C M C M"
_symmetry_group_IT_number 63
_symmetry_cell_setting 'orthorhombic'
loop_
_space_group_symop_operation_xyz
x,y,z
-x,-y,1/2+z
x,-y,-z
-x,y,1/2-z
-x,-y,-z
x,y,1/2-z
-x,y,z
x,-y,1/2+z
1/2+x,1/2+y,z
1/2-x,1/2-y,1/2+z
1/2+x,1/2-y,-z
1/2-x,1/2+y,1/2-z
1/2-x,1/2-y,-z
1/2+x,1/2+y,1/2-z
1/2-x,1/2+y,z
1/2+x,1/2-y,1/2+z
loop_
_atom_site_type_symbol
_atom_site_label
_atom_site_fract_x
_atom_site_fract_y
_atom_site_fract_z
Si Si1 0.198233 0.499578 0.836091
Si Si2 0.654293 0.432773 0.836296
Si Si3 0.667716 0.794468 0.921307
Si Si4 0.815612 0.718780 0.591106
Si Si5 0.076432 0.863521 0.163645
O O1 0.187438 0.484218 0.750000
O O2 0.275278 0.485007 0.849765
O O3 0.165579 0.407619 0.882793
O O4 0.176230 0.614407 0.861194
O O5 0.650618 0.410567 0.750000
O O6 0.650484 0.323308 0.878546
O O7 0.601249 0.519584 0.855265
O O8 0.739143 0.746401 0.907322
O O9 0.615450 0.718731 0.884961
O O10 0.662837 0.802350 0.008401
O O11 0.092004 0.847256 0.250000
O O12 0.000000 0.854139 0.154528
#
# Coordination Sequence:
#
# PCOD9468998 Si02
#       5
#    16  16  16  16  16
#     4  10  18  30  52  76 103 134 169 220 268 312
#     4   9  18  31  49  75 103 134 176 215 260 313
#     4  10  20  32  49  77 107 135 173 212 265 320
#     4  10  19  31  50  75 109 138 162 216 274 316
#     4  10  20  36  56  76 105 142 180 219 253 305
#
# _framework density 16.547218000000001
#
# number of rings (size 3 to 8) (size 9 to 14) (size 15 to 20)
#    0.000    2.200    2.000    1.800    0.000    2.400 
#    0.000    2.000    0.000    3.600    0.000    2.800 
#    0.000    0.000    0.000    0.000    0.000    0.000 
#
# Total GULP energy -223131.286826 kJ/mol
# GULP energy per Si atom -5578.282171 kJ/mol
# Density = 1.650956 g / cm^3
# Si number density = 16.547218 Si / 1000 Ang^3
#
#
#
# Elastic Constant Matrix: (Units=GPa)
#
#
# Indices 1 2 3 4 5 6 
#
# 1 47.5099 22.6602 28.3561 0.0000 0.0000 0.0000
# 2 22.6602 86.7111 37.2304 0.0000 0.0000 0.0000
# 3 28.3561 37.2304 50.1493 0.0000 0.0000 0.0000
# 4 0.0000 0.0000 0.0000 19.1297 0.0000 0.0000
# 5 0.0000 0.0000 0.0000 0.0000 17.7344 0.0000
# 6 0.0000 0.0000 0.0000 0.0000 0.0000 15.8516
#
#
#
# Elastic Compliance Matrix: (Units=1/GPa)
#
#
# Indices 1 2 3 4 5 6 
#
# 1 0.031814 -0.000867 -0.017345 0.000000 0.000000 0.000000
# 2 -0.000867 0.016952 -0.012095 0.000000 0.000000 0.000000
# 3 -0.017345 -0.012095 0.038727 0.000000 0.000000 0.000000
# 4 0.000000 0.000000 0.000000 0.052275 0.000000 0.000000
# 5 0.000000 0.000000 0.000000 0.000000 0.056388 0.000000
# 6 0.000000 0.000000 0.000000 0.000000 0.000000 0.063085
#
#
# Mechanical properties :
#
#
# Convention : Reuss Voigt Hill
#
# Bulk Modulus (GPa) = 37.20312 40.09599 38.64956
# Shear Modulus (GPa) = 15.20610 16.95138 16.07874
#
# Velocity S-wave (km/s) = 3.03471 3.20414 3.12057
# Velocity P-wave (km/s) = 5.90009 6.16218 6.03256
#
# Compressibility (1/GPa) = 0.02687946
#
# Stress axis : x y z
#
# Youngs Moduli (GPa) = 31.43264 58.98935 25.82145
#
# Poissons Ratio (x) = 0.05112 0.44788
# Poissons Ratio (y) = 0.02724 0.31232
# Poissons Ratio (z) = 0.54521 0.71349
#
# Static dielectric constant tensor:
#      x y z
#    x 1.532920 0.000000 0.000000 
#    y 0.000000 1.543000 0.000000 
#    z 0.000000 0.000000 1.553650 
# 
# From -- ./inp_files/36491.got.cif
#   From: 2010.05.17/outbox.cif.g08.bks.cpg/sg63_19_cif.got.tgz:36491.got - 2010.06.03 15:47:04.
