data_PCOD9468484
_publ_section_title
;
Structure prediction by ZEFSAII (Michael W. Deem and Ramdas Pophale) SiO2 
 PCOD9468484
Probable space group: C M C M
;
_chemical_formula_sum "Si O2"
_cell_formula_units_Z 88
_cell_length_a 8.563033
_cell_length_b 19.347681
_cell_length_c 21.326291
_cell_angle_alpha 90.000000
_cell_angle_beta 90.000000
_cell_angle_gamma 90.000000
_cell_volume 3533.229655
_symmetry_space_group_name_H-M "C M C M"
_symmetry_group_IT_number 63
_symmetry_cell_setting 'orthorhombic'
loop_
_space_group_symop_operation_xyz
x,y,z
-x,-y,1/2+z
x,-y,-z
-x,y,1/2-z
-x,-y,-z
x,y,1/2-z
-x,y,z
x,-y,1/2+z
1/2+x,1/2+y,z
1/2-x,1/2-y,1/2+z
1/2+x,1/2-y,-z
1/2-x,1/2+y,1/2-z
1/2-x,1/2-y,-z
1/2+x,1/2+y,1/2-z
1/2-x,1/2+y,z
1/2+x,1/2-y,1/2+z
loop_
_atom_site_type_symbol
_atom_site_label
_atom_site_fract_x
_atom_site_fract_y
_atom_site_fract_z
Si Si1 0.320024 0.824504 0.010217
Si Si2 0.000000 0.015319 0.574256
Si Si3 0.830284 0.660067 0.841139
Si Si4 0.318248 0.044888 0.436233
Si Si5 0.500000 0.805160 0.673185
Si Si6 0.334329 0.674236 0.177388
Si Si7 0.500000 0.644916 0.849663
O O1 0.500000 0.820357 0.992302
O O2 0.255815 0.882812 0.965003
O O3 0.250000 0.750000 0.000000
O O4 0.317178 0.843621 0.083414
O O5 0.000000 0.096916 0.589178
O O6 0.000000 0.000000 0.500000
O O7 0.832594 0.986376 0.600095
O O8 0.833199 0.741675 0.824468
O O9 0.666478 0.630721 0.817477
O O10 0.000000 0.631044 0.822918
O O11 0.500000 0.043890 0.411738
O O12 0.333144 0.000000 0.500000
O O13 0.500000 0.795455 0.750000
O O14 0.339929 0.843512 0.655517
O O15 0.500000 0.728530 0.642508
O O16 0.339264 0.652820 0.250000
O O17 0.500000 0.653529 0.147559
#
# Coordination Sequence:
#
# PCOD9468484 Si02
#       7
#    16   8  16  16   8  16   8
#     4  10  21  32  46  65  88 121 151 183 228 267
#     4  10  18  26  42  62  82 110 142 179 213 242
#     4   9  17  28  40  59  87 115 147 179 214 265
#     4   9  18  32  46  61  83 113 149 184 216 251
#     4   8  14  24  36  56  86 112 138 172 211 262
#     4   8  13  22  37  55  77 108 141 172 210 256
#     4  10  18  26  44  66  84 118 150 177 223 262
#
# _framework density 24.906392
#
# number of rings (size 3 to 8) (size 9 to 14) (size 15 to 20)
#    0.000    2.909    0.000    2.182    2.545    2.182 
#    0.000    0.000    0.000    0.000    0.000    0.000 
#    0.000    1.455    0.000    4.364    0.000   13.636 
#
# Total GULP energy -245370.859514 kJ/mol
# GULP energy per Si atom -5576.610444 kJ/mol
# Density = 2.484970 g / cm^3
# Si number density = 24.906392 Si / 1000 Ang^3
#
#
#
# Elastic Constant Matrix: (Units=GPa)
#
#
# Indices 1 2 3 4 5 6 
#
# 1 303.7455 30.8216 21.1367 0.0000 0.0000 0.0000
# 2 30.8216 43.2589 14.7055 0.0000 0.0000 0.0000
# 3 21.1367 14.7055 94.3797 0.0000 0.0000 0.0000
# 4 0.0000 0.0000 0.0000 -249.0839 0.0000 0.0000
# 5 0.0000 0.0000 0.0000 0.0000 10.5090 0.0000
# 6 0.0000 0.0000 0.0000 0.0000 0.0000 31.2853
#
#
#
# Elastic Compliance Matrix: (Units=1/GPa)
#
#
# Indices 1 2 3 4 5 6 
#
# 1 0.003565 -0.002395 -0.000425 0.000000 0.000000 0.000000
# 2 -0.002395 0.026019 -0.003518 0.000000 0.000000 0.000000
# 3 -0.000425 -0.003518 0.011239 0.000000 0.000000 0.000000
# 4 0.000000 0.000000 0.000000 -0.004015 0.000000 0.000000
# 5 0.000000 0.000000 0.000000 0.000000 0.095157 0.000000
# 6 0.000000 0.000000 0.000000 0.000000 0.000000 0.031964
#
#
# Mechanical properties :
#
#
# Convention : Reuss Voigt Hill
#
# Bulk Modulus (GPa) = 35.52850 63.85687 49.69268
# Shear Modulus (GPa) = 26.88353 -16.47658 5.20347
#
# Velocity S-wave (km/s) = 3.28896 -2.57483 1.44698
# Velocity P-wave (km/s) = 5.35899 4.10545 4.77355
#
# Compressibility (1/GPa) = 0.02814642
#
# Stress axis : x y z
#
# Youngs Moduli (GPa) = 280.51418 38.43327 88.97748
#
# Poissons Ratio (x) = 0.09206 0.03783
# Poissons Ratio (y) = 0.67195 0.31299
# Poissons Ratio (z) = 0.11926 0.13519
#
# Static dielectric constant tensor:
#      x y z
#    x 2.078690 0.000000 0.000000 
#    y 0.000000 1.984080 0.000000 
#    z 0.000000 0.000000 1.942230 
# 
# From -- ./inp_files/59678.got.cif
#   From: 2010.05.17/outbox.cif.g08.bks.cpg/sg63_30_cif.got.tgz:59678.got - 2010.06.03 15:47:04.
