data_PCOD9468048
_publ_section_title
;
Structure prediction by ZEFSAII (Michael W. Deem and Ramdas Pophale) SiO2 
 PCOD9468048
Probable space group: P N M A
;
_chemical_formula_sum "Si O2"
_cell_formula_units_Z 64
_cell_length_a 6.000000
_cell_length_b 18.000000
_cell_length_c 30.000000
_cell_angle_alpha 90.000000
_cell_angle_beta 90.000000
_cell_angle_gamma 90.000000
_cell_volume 3240.000000
_symmetry_space_group_name_H-M "P N M A"
_symmetry_group_IT_number 62
_symmetry_cell_setting 'orthorhombic'
loop_
_space_group_symop_operation_xyz
x,y,z
1/2-x,-y,1/2+z
1/2+x,1/2-y,1/2-z
-x,1/2+y,-z
-x,-y,-z
1/2+x,y,1/2-z
1/2-x,1/2+y,1/2+z
x,1/2-y,z
loop_
_atom_site_type_symbol
_atom_site_label
_atom_site_fract_x
_atom_site_fract_y
_atom_site_fract_z
Si Si1 0.330202 0.047144 0.930080
Si Si2 0.562827 0.567521 0.369598
Si Si3 0.201736 0.402691 0.268715
Si Si4 0.692268 0.159882 0.949388
Si Si5 0.209752 0.928494 0.594132
Si Si6 0.605722 0.904293 0.540932
Si Si7 0.164431 0.574908 0.235390
Si Si8 0.338739 0.838739 0.868173
O O1 0.194028 0.070475 0.885798
O O2 0.449923 0.119228 0.950356
O O3 0.523666 0.988367 0.919204
O O4 0.170882 0.992610 0.959001
O O5 0.687147 0.621863 0.405765
O O6 0.628052 0.481007 0.377363
O O7 0.623632 0.580992 0.318148
O O8 0.447089 0.376529 0.247812
O O9 0.186976 0.490695 0.255813
O O10 0.217748 0.381187 0.321533
O O11 0.685016 0.250000 0.946370
O O12 0.814393 0.134307 0.995388
O O13 0.343596 0.900239 0.551331
O O14 0.093319 0.862898 0.620977
O O15 0.711471 0.866327 0.586269
O O16 0.421315 0.604623 0.245185
O O17 0.311432 0.750000 0.863062
#
# Coordination Sequence:
#
# PCOD9468048 Si02
#       8
#     8   8   8   8   8   8   8   8
#     4   9  21  38  65  91 126 165 220 276 331 394
#     4  10  22  39  65  97 126 166 221 282 342 410
#     4  10  23  39  61  89 126 170 225 284 343 404
#     4  11  24  41  63  96 138 178 219 276 353 423
#     4   9  20  37  63  86 124 166 220 274 324 387
#     4  10  22  40  64  93 131 179 232 283 330 407
#     4  10  22  36  67  99 128 163 221 287 347 415
#     4  11  24  38  58  89 131 180 226 276 338 403
#
# _framework density 19.753086
#
# number of rings (size 3 to 8) (size 9 to 14) (size 15 to 20)
#    0.000    2.000    0.000    2.250   15.750    8.500 
#    0.000    0.000    0.000    0.750    0.000    0.000 
#    0.000    0.000    0.000    0.000    0.000    0.000 
#
# Total GULP energy -356417.706276 kJ/mol
# GULP energy per Si atom -5569.026661 kJ/mol
# Density = 1.970813 g / cm^3
# Si number density = 19.753086 Si / 1000 Ang^3
#
#
#
# Elastic Constant Matrix: (Units=GPa)
#
#
# Indices 1 2 3 4 5 6 
#
# 1 112.7953 9.2281 32.1266 0.0000 0.0000 0.0000
# 2 9.2281 90.3004 29.1409 0.0000 0.0000 0.0000
# 3 32.1266 29.1409 145.1302 0.0000 0.0000 0.0000
# 4 0.0000 0.0000 0.0000 28.1778 0.0000 0.0000
# 5 0.0000 0.0000 0.0000 0.0000 41.9071 0.0000
# 6 0.0000 0.0000 0.0000 0.0000 0.0000 18.0551
#
#
#
# Elastic Compliance Matrix: (Units=1/GPa)
#
#
# Indices 1 2 3 4 5 6 
#
# 1 0.009470 -0.000311 -0.002034 0.000000 0.000000 0.000000
# 2 -0.000311 0.011852 -0.002311 0.000000 0.000000 0.000000
# 3 -0.002034 -0.002311 0.007805 0.000000 0.000000 0.000000
# 4 0.000000 0.000000 0.000000 0.035489 0.000000 0.000000
# 5 0.000000 0.000000 0.000000 0.000000 0.023862 0.000000
# 6 0.000000 0.000000 0.000000 0.000000 0.000000 0.055386
#
#
# Mechanical properties :
#
#
# Convention : Reuss Voigt Hill
#
# Bulk Modulus (GPa) = 50.46819 54.35744 52.41281
# Shear Modulus (GPa) = 31.29287 36.14337 33.71812
#
# Velocity S-wave (km/s) = 3.98452 4.28221 4.13604
# Velocity P-wave (km/s) = 6.83912 7.21304 7.02857
#
# Compressibility (1/GPa) = 0.01981446
#
# Stress axis : x y z
#
# Youngs Moduli (GPa) = 105.59235 84.37616 128.13012
#
# Poissons Ratio (x) = 0.02628 0.26060
# Poissons Ratio (y) = 0.03289 0.29608
# Poissons Ratio (z) = 0.21476 0.19497
#
# Static dielectric constant tensor:
#      x y z
#    x 1.838670 0.000000 0.000000 
#    y 0.000000 1.675820 0.000000 
#    z 0.000000 0.000000 1.720310 
# 
# From -- ./inp_files/31705.got.cif
#   From: 2010.05.17/outbox.ucp.g08.bks.cvg/sg62_16_cif.got.tgz:31705.got - 2010.06.11 16:29:25.
