data_PCOD9468054
_publ_section_title
;
Structure prediction by ZEFSAII (Michael W. Deem and Ramdas Pophale) SiO2 
 PCOD9468054
Probable space group: P N M A
;
_chemical_formula_sum "Si O2"
_cell_formula_units_Z 56
_cell_length_a 21.000000
_cell_length_b 9.000000
_cell_length_c 15.000000
_cell_angle_alpha 90.000000
_cell_angle_beta 90.000000
_cell_angle_gamma 90.000000
_cell_volume 2835.000000
_symmetry_space_group_name_H-M "P N M A"
_symmetry_group_IT_number 62
_symmetry_cell_setting 'orthorhombic'
loop_
_space_group_symop_operation_xyz
x,y,z
1/2-x,-y,1/2+z
1/2+x,1/2-y,1/2-z
-x,1/2+y,-z
-x,-y,-z
1/2+x,y,1/2-z
1/2-x,1/2+y,1/2+z
x,1/2-y,z
loop_
_atom_site_type_symbol
_atom_site_label
_atom_site_fract_x
_atom_site_fract_y
_atom_site_fract_z
Si Si1 0.818546 0.070906 0.001473
Si Si2 0.534730 0.571594 0.775684
Si Si3 0.195223 0.428730 0.192700
Si Si4 0.829668 0.576952 0.317832
Si Si5 0.905318 0.073223 0.670184
Si Si6 0.678727 0.079661 0.032380
Si Si7 0.544913 0.573296 0.572233
O O1 0.818413 0.250000 0.983565
O O2 0.818798 0.984220 0.908010
O O3 0.752320 0.039900 0.051889
O O4 0.881416 0.031470 0.056435
O O5 0.535093 0.750000 0.789102
O O6 0.604406 0.504739 0.795127
O O7 0.476084 0.495861 0.826912
O O8 0.522715 0.538493 0.671474
O O9 0.195368 0.250000 0.197967
O O10 0.265662 0.493687 0.215046
O O11 0.140618 0.497231 0.255807
O O12 0.829920 0.750000 0.288757
O O13 0.825804 0.576884 0.425644
O O14 0.907937 0.250000 0.683381
O O15 0.870565 0.029631 0.578274
O O16 0.666871 0.250000 0.062639
O O17 0.500000 0.500000 0.500000
O O18 0.541574 0.750000 0.561167
#
# Coordination Sequence:
#
# PCOD9468054 Si02
#       7
#     8   8   8   8   8   8   8
#     4   9  19  38  61  87 120 155 197 249 305 363
#     4  11  24  41  62  91 124 164 207 251 307 370
#     4  11  22  38  62  90 123 161 203 252 304 364
#     4  10  22  42  65  92 123 159 201 252 310 368
#     4  12  25  40  60  88 122 161 207 257 309 366
#     4   9  20  39  63  88 118 155 200 254 308 364
#     4  10  22  38  59  88 122 161 201 246 300 361
#
# _framework density 19.753086
#
# number of rings (size 3 to 8) (size 9 to 14) (size 15 to 20)
#    0.000    1.714    0.000    5.143    2.000    7.429 
#    0.000    0.000    0.000    0.000    0.000    0.000 
#    0.000    0.000    0.000    0.000    0.000    0.000 
#
# Total GULP energy -312975.262750 kJ/mol
# GULP energy per Si atom -5588.843978 kJ/mol
# Density = 1.970813 g / cm^3
# Si number density = 19.753086 Si / 1000 Ang^3
#
#
#
# Elastic Constant Matrix: (Units=GPa)
#
#
# Indices 1 2 3 4 5 6 
#
# 1 87.0271 18.6393 -6.6456 0.0000 0.0000 0.0000
# 2 18.6393 89.2316 3.8974 0.0000 0.0000 0.0000
# 3 -6.6456 3.8974 23.3390 0.0000 0.0000 0.0000
# 4 0.0000 0.0000 0.0000 28.1190 0.0000 0.0000
# 5 0.0000 0.0000 0.0000 0.0000 32.7818 0.0000
# 6 0.0000 0.0000 0.0000 0.0000 0.0000 38.1243
#
#
#
# Elastic Compliance Matrix: (Units=1/GPa)
#
#
# Indices 1 2 3 4 5 6 
#
# 1 0.012387 -0.002762 0.003988 0.000000 0.000000 0.000000
# 2 -0.002762 0.011905 -0.002774 0.000000 0.000000 0.000000
# 3 0.003988 -0.002774 0.044446 0.000000 0.000000 0.000000
# 4 0.000000 0.000000 0.000000 0.035563 0.000000 0.000000
# 5 0.000000 0.000000 0.000000 0.000000 0.030505 0.000000
# 6 0.000000 0.000000 0.000000 0.000000 0.000000 0.026230
#
#
# Mechanical properties :
#
#
# Convention : Reuss Voigt Hill
#
# Bulk Modulus (GPa) = 15.23425 25.70889 20.47157
# Shear Modulus (GPa) = 26.88010 32.05210 29.46610
#
# Velocity S-wave (km/s) = 3.69291 4.03257 3.86647
# Velocity P-wave (km/s) = 5.09044 5.89284 5.50627
#
# Compressibility (1/GPa) = 0.06564159
#
# Stress axis : x y z
#
# Youngs Moduli (GPa) = 80.73178 83.99946 22.49939
#
# Poissons Ratio (x) = 0.23197 -0.08973
# Poissons Ratio (y) = 0.22295 0.06242
# Poissons Ratio (z) = -0.32197 0.23304
#
# Static dielectric constant tensor:
#      x y z
#    x 1.685370 0.000000 0.000000 
#    y 0.000000 1.671740 0.000000 
#    z 0.000000 0.000000 1.809100 
# 
# From -- ./inp_files/20235.got.cif
#   From: 2010.05.17/outbox.ucp.g08.bks.cvg/sg62_11_cif.got.tgz:20235.got - 2010.06.11 16:29:25.
