data_PCOD9468398
_publ_section_title
;
Structure prediction by ZEFSAII (Michael W. Deem and Ramdas Pophale) SiO2 
 PCOD9468398
Probable space group: C M C M
;
_chemical_formula_sum "Si O2"
_cell_formula_units_Z 116
_cell_length_a 31.591600
_cell_length_b 8.276185
_cell_length_c 26.177423
_cell_angle_alpha 90.000000
_cell_angle_beta 90.000000
_cell_angle_gamma 90.000000
_cell_volume 6844.294727
_symmetry_space_group_name_H-M "C M C M"
_symmetry_group_IT_number 63
_symmetry_cell_setting 'orthorhombic'
loop_
_space_group_symop_operation_xyz
x,y,z
-x,-y,1/2+z
x,-y,-z
-x,y,1/2-z
-x,-y,-z
x,y,1/2-z
-x,y,z
x,-y,1/2+z
1/2+x,1/2+y,z
1/2-x,1/2-y,1/2+z
1/2+x,1/2-y,-z
1/2-x,1/2+y,1/2-z
1/2-x,1/2-y,-z
1/2+x,1/2+y,1/2-z
1/2-x,1/2+y,z
1/2+x,1/2-y,1/2+z
loop_
_atom_site_type_symbol
_atom_site_label
_atom_site_fract_x
_atom_site_fract_y
_atom_site_fract_z
Si Si1 0.730477 0.072763 0.371191
Si Si2 0.300944 0.227658 0.810559
Si Si3 0.000000 0.500000 0.000000
Si Si4 0.862420 0.851553 0.887371
Si Si5 0.434194 0.752571 0.525099
Si Si6 0.660460 0.182621 0.510484
Si Si7 0.452646 0.573971 0.418473
Si Si8 0.199283 0.878205 0.428660
O O1 0.705218 0.944617 0.337690
O O2 0.758533 0.978286 0.413927
O O3 0.763562 0.161111 0.333520
O O4 0.702830 0.211763 0.396909
O O5 0.299390 0.218283 0.750000
O O6 0.343213 0.306269 0.833219
O O7 0.037346 0.408437 0.966553
O O8 0.847967 0.720447 0.930210
O O9 0.912633 0.868173 0.886440
O O10 0.839871 0.013450 0.909185
O O11 0.384762 0.790224 0.517841
O O12 0.450344 0.679163 0.470767
O O13 0.443357 0.610238 0.564853
O O14 0.691843 0.315706 0.486200
O O15 0.674350 0.000000 0.500000
O O16 0.500000 0.589774 0.397555
#
# Coordination Sequence:
#
# PCOD9468398 Si02
#       8
#    16  16   4  16  16  16  16  16
#     4   9  20  35  55  78  97 130 168 210 258 313
#     4  10  19  36  56  77 101 125 162 216 263 306
#     4  12  16  26  40  76  96 126 186 208 240 290
#     4  10  21  33  51  75 101 137 176 205 254 311
#     4  10  18  26  44  67 100 137 169 205 244 292
#     4  11  20  31  47  70 105 145 167 204 250 299
#     4  10  17  31  46  67 100 137 171 204 250 293
#     4  10  19  36  51  70 104 132 170 205 250 310
#
# _framework density 16.948423999999999
#
# number of rings (size 3 to 8) (size 9 to 14) (size 15 to 20)
#    0.000    1.931    3.448    2.069    0.000    0.000 
#    0.000   17.931    0.000    0.414    0.000    0.000 
#    0.000    0.000    0.000    0.000    0.000    0.000 
#
# Total GULP energy -323100.011680 kJ/mol
# GULP energy per Si atom -5570.689857 kJ/mol
# Density = 1.690985 g / cm^3
# Si number density = 16.948424 Si / 1000 Ang^3
#
#
#
# Elastic Constant Matrix: (Units=GPa)
#
#
# Indices 1 2 3 4 5 6 
#
# 1 58.2837 12.5959 25.6522 0.0000 0.0000 0.0000
# 2 12.5959 76.6666 12.7978 0.0000 0.0000 0.0000
# 3 25.6522 12.7978 45.4273 0.0000 0.0000 0.0000
# 4 0.0000 0.0000 0.0000 11.1274 0.0000 0.0000
# 5 0.0000 0.0000 0.0000 0.0000 13.3939 0.0000
# 6 0.0000 0.0000 0.0000 0.0000 0.0000 27.9376
#
#
#
# Elastic Compliance Matrix: (Units=1/GPa)
#
#
# Indices 1 2 3 4 5 6 
#
# 1 0.023040 -0.001693 -0.012533 0.000000 0.000000 0.000000
# 2 -0.001693 0.013812 -0.002935 0.000000 0.000000 0.000000
# 3 -0.012533 -0.002935 0.029917 0.000000 0.000000 0.000000
# 4 0.000000 0.000000 0.000000 0.089868 0.000000 0.000000
# 5 0.000000 0.000000 0.000000 0.000000 0.074661 0.000000
# 6 0.000000 0.000000 0.000000 0.000000 0.000000 0.035794
#
#
# Mechanical properties :
#
#
# Convention : Reuss Voigt Hill
#
# Bulk Modulus (GPa) = 30.82038 31.38550 31.10294
# Shear Modulus (GPa) = 16.01386 19.11390 17.56388
#
# Velocity S-wave (km/s) = 3.07719 3.36187 3.22267
# Velocity P-wave (km/s) = 5.55425 5.79896 5.67793
#
# Compressibility (1/GPa) = 0.03244606
#
# Stress axis : x y z
#
# Youngs Moduli (GPa) = 43.40370 72.40306 33.42549
#
# Poissons Ratio (x) = 0.12259 0.41893
# Poissons Ratio (y) = 0.07349 0.09810
# Poissons Ratio (z) = 0.54398 0.21250
#
# Static dielectric constant tensor:
#      x y z
#    x 1.601240 0.000000 0.000000 
#    y 0.000000 1.626890 0.000000 
#    z 0.000000 0.000000 1.537320 
# 
# From -- ./inp_files/71087.got.cif
#   From: 2010.05.17/outbox.cif.g08.bks.cpg/sg63_36_cif.got.tgz:71087.got - 2010.06.03 15:47:04.
