data_PCOD9468570
_publ_section_title
;
Structure prediction by ZEFSAII (Michael W. Deem and Ramdas Pophale) SiO2 
 PCOD9468570
Probable space group: C M C M
;
_chemical_formula_sum "Si O2"
_cell_formula_units_Z 104
_cell_length_a 22.654481
_cell_length_b 30.852464
_cell_length_c 9.024325
_cell_angle_alpha 90.000000
_cell_angle_beta 90.000000
_cell_angle_gamma 90.000000
_cell_volume 6307.520910
_symmetry_space_group_name_H-M "C M C M"
_symmetry_group_IT_number 63
_symmetry_cell_setting 'orthorhombic'
loop_
_space_group_symop_operation_xyz
x,y,z
-x,-y,1/2+z
x,-y,-z
-x,y,1/2-z
-x,-y,-z
x,y,1/2-z
-x,y,z
x,-y,1/2+z
1/2+x,1/2+y,z
1/2-x,1/2-y,1/2+z
1/2+x,1/2-y,-z
1/2-x,1/2+y,1/2-z
1/2-x,1/2-y,-z
1/2+x,1/2+y,1/2-z
1/2-x,1/2+y,z
1/2+x,1/2-y,1/2+z
loop_
_atom_site_type_symbol
_atom_site_label
_atom_site_fract_x
_atom_site_fract_y
_atom_site_fract_z
Si Si1 0.643643 0.453802 0.572580
Si Si2 0.929391 0.122876 0.574694
Si Si3 0.718813 0.045886 0.427997
Si Si4 0.571746 0.287775 0.579625
Si Si5 0.000000 0.452593 0.929286
Si Si6 0.429413 0.801347 0.926885
Si Si7 0.387291 0.105483 0.430215
O O1 0.627988 0.500000 0.500000
O O2 0.637742 0.456378 0.750000
O O3 0.603967 0.415645 0.507864
O O4 0.712733 0.445269 0.536317
O O5 0.918399 0.120889 0.750000
O O6 0.910398 0.169570 0.510644
O O7 0.000000 0.118853 0.551062
O O8 0.714374 0.041805 0.250000
O O9 0.673588 0.083080 0.476825
O O10 0.702242 0.000000 0.500000
O O11 0.590580 0.291078 0.750000
O O12 0.500000 0.287132 0.576781
O O13 0.590519 0.242443 0.507228
O O14 0.942122 0.425146 0.973188
O O15 0.000000 0.456407 0.750000
O O16 0.000000 0.500000 0.000000
O O17 0.420946 0.796426 0.750000
O O18 0.500000 0.807000 0.950200
O O19 0.397976 0.845275 0.979583
O O20 0.387994 0.106995 0.250000
#
# Coordination Sequence:
#
# PCOD9468570 Si02
#       7
#    16  16  16  16   8  16  16
#     4  10  20  34  52  73  98 129 162 197 235 278
#     4  10  20  34  53  77 101 125 154 188 231 285
#     4   9  18  32  49  68  92 126 167 204 239 282
#     4   9  17  29  46  70 100 129 154 189 236 285
#     4  10  18  28  42  64  94 128 162 202 251 294
#     4   9  15  26  45  67  92 126 165 201 239 286
#     4   9  16  28  46  67  93 126 165 205 244 287
#
# _framework density 16.488253
#
# number of rings (size 3 to 8) (size 9 to 14) (size 15 to 20)
#    0.000    2.615    0.769    1.846    0.000    3.692 
#    0.000    1.538    0.000    0.923    0.000    0.000 
#    0.000    0.000    0.000    0.000    0.000    0.000 
#
# Total GULP energy -289891.775036 kJ/mol
# GULP energy per Si atom -5574.841828 kJ/mol
# Density = 1.645073 g / cm^3
# Si number density = 16.488253 Si / 1000 Ang^3
#
#
#
# Elastic Constant Matrix: (Units=GPa)
#
#
# Indices 1 2 3 4 5 6 
#
# 1 42.2192 65.3331 37.3897 0.0000 0.0000 0.0000
# 2 65.3331 183.5246 66.8613 0.0000 0.0000 0.0000
# 3 37.3897 66.8613 52.0188 0.0000 0.0000 0.0000
# 4 0.0000 0.0000 0.0000 32.3787 0.0000 0.0000
# 5 0.0000 0.0000 0.0000 0.0000 12.2718 0.0000
# 6 0.0000 0.0000 0.0000 0.0000 0.0000 18.3680
#
#
#
# Elastic Compliance Matrix: (Units=1/GPa)
#
#
# Indices 1 2 3 4 5 6 
#
# 1 0.081391 -0.014408 -0.039983 0.000000 0.000000 0.000000
# 2 -0.014408 0.012798 -0.006093 0.000000 0.000000 0.000000
# 3 -0.039983 -0.006093 0.055794 0.000000 0.000000 0.000000
# 4 0.000000 0.000000 0.000000 0.030885 0.000000 0.000000
# 5 0.000000 0.000000 0.000000 0.000000 0.081488 0.000000
# 6 0.000000 0.000000 0.000000 0.000000 0.000000 0.054442
#
#
# Mechanical properties :
#
#
# Convention : Reuss Voigt Hill
#
# Bulk Modulus (GPa) = 34.46477 68.54786 51.50632
# Shear Modulus (GPa) = 11.17474 19.81560 15.49517
#
# Velocity S-wave (km/s) = 2.60617 3.47046 3.06889
# Velocity P-wave (km/s) = 5.47760 7.59755 6.62295
#
# Compressibility (1/GPa) = 0.02901514
#
# Stress axis : x y z
#
# Youngs Moduli (GPa) = 12.28637 78.13739 17.92297
#
# Poissons Ratio (x) = 1.12581 0.71661
# Poissons Ratio (y) = 0.17702 0.10921
# Poissons Ratio (z) = 0.49124 0.47613
#
# Static dielectric constant tensor:
#      x y z
#    x 1.545640 0.000000 0.000000 
#    y 0.000000 1.538160 0.000000 
#    z 0.000000 0.000000 1.551070 
# 
# From -- ./inp_files/10813.got.cif
#   From: 2010.05.17/outbox.cif.g08.bks.cpg/sg63_6_cif.got.tgz:10813.got - 2010.06.03 15:47:04.
