data_PCOD9468789
_publ_section_title
;
Structure prediction by ZEFSAII (Michael W. Deem and Ramdas Pophale) SiO2 
 PCOD9468789
Probable space group: C M C M
;
_chemical_formula_sum "Si O2"
_cell_formula_units_Z 80
_cell_length_a 8.692438
_cell_length_b 20.978860
_cell_length_c 25.582016
_cell_angle_alpha 90.000000
_cell_angle_beta 90.000000
_cell_angle_gamma 90.000000
_cell_volume 4665.070944
_symmetry_space_group_name_H-M "C M C M"
_symmetry_group_IT_number 63
_symmetry_cell_setting 'orthorhombic'
loop_
_space_group_symop_operation_xyz
x,y,z
-x,-y,1/2+z
x,-y,-z
-x,y,1/2-z
-x,-y,-z
x,y,1/2-z
-x,y,z
x,-y,1/2+z
1/2+x,1/2+y,z
1/2-x,1/2-y,1/2+z
1/2+x,1/2-y,-z
1/2-x,1/2+y,1/2-z
1/2-x,1/2-y,-z
1/2+x,1/2+y,1/2-z
1/2-x,1/2+y,z
1/2+x,1/2-y,1/2+z
loop_
_atom_site_type_symbol
_atom_site_label
_atom_site_fract_x
_atom_site_fract_y
_atom_site_fract_z
Si Si1 0.677420 0.985293 0.750000
Si Si2 0.684709 0.635360 0.638847
Si Si3 0.322866 0.859645 0.250000
Si Si4 0.185149 0.938184 0.965560
Si Si5 0.314526 0.688266 0.971406
Si Si6 0.814654 0.507634 0.362725
O O1 0.500000 0.963730 0.750000
O O2 0.678674 0.062721 0.750000
O O3 0.744129 0.967524 0.806215
O O4 0.500000 0.631825 0.639777
O O5 0.743551 0.658774 0.695379
O O6 0.732903 0.677867 0.589067
O O7 0.748241 0.563674 0.629762
O O8 0.500000 0.839303 0.250000
O O9 0.000000 0.937754 0.959479
O O10 0.262310 0.947849 0.909663
O O11 0.231612 0.874729 0.996194
O O12 0.225440 0.000000 0.000000
O O13 0.500000 0.691147 0.971811
O O14 0.250000 0.750000 0.000000
O O15 0.000000 0.502739 0.360678
#
# Coordination Sequence:
#
# PCOD9468789 Si02
#       6
#     8  16   8  16  16  16
#     4   7  14  27  41  66 105 132 155 203 261 299
#     4  10  18  32  51  74 104 141 175 211 263 319
#     4   9  17  29  47  76 105 132 169 221 265 301
#     4  10  19  35  53  73 105 138 170 212 262 315
#     4  10  22  37  54  75 105 142 177 219 265 315
#     4  10  18  29  49  77 105 135 173 219 262 307
#
# _framework density 17.148721999999999
#
# number of rings (size 3 to 8) (size 9 to 14) (size 15 to 20)
#    0.000    2.400    2.000    2.700    0.000    2.800 
#    0.000    1.500    0.000    1.200    0.000    4.200 
#    0.000    0.000    0.000    0.000    0.000    0.000 
#
# Total GULP energy -222914.686309 kJ/mol
# GULP energy per Si atom -5572.867158 kJ/mol
# Density = 1.710969 g / cm^3
# Si number density = 17.148722 Si / 1000 Ang^3
#
#
#
# Elastic Constant Matrix: (Units=GPa)
#
#
# Indices 1 2 3 4 5 6 
#
# 1 39.7019 24.2318 47.8350 0.0000 0.0000 0.0000
# 2 24.2318 79.8300 63.8683 0.0000 0.0000 0.0000
# 3 47.8350 63.8683 201.4096 0.0000 0.0000 0.0000
# 4 0.0000 0.0000 0.0000 20.1712 0.0000 0.0000
# 5 0.0000 0.0000 0.0000 0.0000 31.3161 0.0000
# 6 0.0000 0.0000 0.0000 0.0000 0.0000 21.6598
#
#
#
# Elastic Compliance Matrix: (Units=1/GPa)
#
#
# Indices 1 2 3 4 5 6 
#
# 1 0.037089 -0.005642 -0.007019 0.000000 0.000000 0.000000
# 2 -0.005642 0.017643 -0.004255 0.000000 0.000000 0.000000
# 3 -0.007019 -0.004255 0.007981 0.000000 0.000000 0.000000
# 4 0.000000 0.000000 0.000000 0.049576 0.000000 0.000000
# 5 0.000000 0.000000 0.000000 0.000000 0.031932 0.000000
# 6 0.000000 0.000000 0.000000 0.000000 0.000000 0.046168
#
#
# Mechanical properties :
#
#
# Convention : Reuss Voigt Hill
#
# Bulk Modulus (GPa) = 34.62515 65.86796 50.24656
# Shear Modulus (GPa) = 21.38127 26.96318 24.17223
#
# Velocity S-wave (km/s) = 3.53486 3.96954 3.75849
# Velocity P-wave (km/s) = 6.07414 7.71381 6.94255
#
# Compressibility (1/GPa) = 0.02888074
#
# Stress axis : x y z
#
# Youngs Moduli (GPa) = 26.96237 56.67877 125.29175
#
# Poissons Ratio (x) = 0.31978 0.87948
# Poissons Ratio (y) = 0.15212 0.53309
# Poissons Ratio (z) = 0.18926 0.24116
#
# Static dielectric constant tensor:
#      x y z
#    x 1.585490 0.000000 0.000000 
#    y 0.000000 1.542070 0.000000 
#    z 0.000000 0.000000 1.625090 
# 
# From -- ./inp_files/59778.got.cif
#   From: 2010.05.17/outbox.cif.g08.bks.cpg/sg63_30_cif.got.tgz:59778.got - 2010.06.03 15:47:04.
