data_PCOD9468127
_publ_section_title
;
Structure prediction by ZEFSAII (Michael W. Deem and Ramdas Pophale) SiO2 
 PCOD9468127
Probable space group: C M C M
;
_chemical_formula_sum "Si O2"
_cell_formula_units_Z 84
_cell_length_a 33.880720
_cell_length_b 6.894623
_cell_length_c 13.289042
_cell_angle_alpha 90.000000
_cell_angle_beta 90.000000
_cell_angle_gamma 90.000000
_cell_volume 3104.250993
_symmetry_space_group_name_H-M "C M C M"
_symmetry_group_IT_number 63
_symmetry_cell_setting 'orthorhombic'
loop_
_space_group_symop_operation_xyz
x,y,z
-x,-y,1/2+z
x,-y,-z
-x,y,1/2-z
-x,-y,-z
x,y,1/2-z
-x,y,z
x,-y,1/2+z
1/2+x,1/2+y,z
1/2-x,1/2-y,1/2+z
1/2+x,1/2-y,-z
1/2-x,1/2+y,1/2-z
1/2-x,1/2-y,-z
1/2+x,1/2+y,1/2-z
1/2-x,1/2+y,z
1/2+x,1/2-y,1/2+z
loop_
_atom_site_type_symbol
_atom_site_label
_atom_site_fract_x
_atom_site_fract_y
_atom_site_fract_z
Si Si1 0.453325 0.690473 0.862166
Si Si2 0.307911 0.839500 0.862745
Si Si3 0.720673 0.396537 0.862296
Si Si4 0.355310 0.725135 0.468597
Si Si5 0.000000 0.416006 0.250000
Si Si6 0.562927 0.237149 0.591866
O O1 0.435901 0.732657 0.750000
O O2 0.500000 0.730031 0.851874
O O3 0.448566 0.458547 0.878892
O O4 0.440856 0.779946 0.969697
O O5 0.315155 0.909216 0.750000
O O6 0.298370 0.608682 0.859203
O O7 0.265243 0.914179 0.900036
O O8 0.346750 0.846864 0.930699
O O9 0.725162 0.318403 0.750000
O O10 0.688000 0.273849 0.919262
O O11 0.364396 0.500000 0.500000
O O12 0.390285 0.783868 0.395060
O O13 0.965280 0.390201 0.161168
#
# Coordination Sequence:
#
# PCOD9468127 Si02
#       6
#    16  16  16  16   4  16
#     4  10  16  26  38  52  77 113 157 197 237 288
#     4   9  18  33  49  69  97 129 170 204 250 296
#     4   9  18  31  48  69  95 129 167 201 249 295
#     4  10  19  28  42  64  88 119 165 206 237 288
#     4  12  20  30  42  56  92 122 166 208 242 308
#     4  11  18  27  38  58  82 119 159 198 249 282
#
# _framework density 27.059667999999999
#
# number of rings (size 3 to 8) (size 9 to 14) (size 15 to 20)
#    0.000    2.095    4.762    1.143    1.333    0.762 
#    0.000    0.000    0.000    0.000    0.000    0.000 
#    0.000    0.000    0.000    3.429    4.571   17.238 
#
# Total GULP energy -234568.705138 kJ/mol
# GULP energy per Si atom -5584.969170 kJ/mol
# Density = 2.699808 g / cm^3
# Si number density = 27.059668 Si / 1000 Ang^3
#
#
#
# Elastic Constant Matrix: (Units=GPa)
#
#
# Indices 1 2 3 4 5 6 
#
# 1 146.4270 31.9740 51.0251 0.0000 0.0000 0.0000
# 2 31.9740 84.6566 31.9220 0.0000 0.0000 0.0000
# 3 51.0251 31.9220 195.5446 0.0000 0.0000 0.0000
# 4 0.0000 0.0000 0.0000 10.0351 0.0000 0.0000
# 5 0.0000 0.0000 0.0000 0.0000 27.1249 0.0000
# 6 0.0000 0.0000 0.0000 0.0000 0.0000 -11.8551
#
#
#
# Elastic Compliance Matrix: (Units=1/GPa)
#
#
# Indices 1 2 3 4 5 6 
#
# 1 0.007932 -0.002361 -0.001684 0.000000 0.000000 0.000000
# 2 -0.002361 0.013290 -0.001554 0.000000 0.000000 0.000000
# 3 -0.001684 -0.001554 0.005807 0.000000 0.000000 0.000000
# 4 0.000000 0.000000 0.000000 0.099651 0.000000 0.000000
# 5 0.000000 0.000000 0.000000 0.000000 0.036867 0.000000
# 6 0.000000 0.000000 0.000000 0.000000 0.000000 -0.084352
#
#
# Mechanical properties :
#
#
# Convention : Reuss Voigt Hill
#
# Bulk Modulus (GPa) = 63.16477 72.94115 68.05296
# Shear Modulus (GPa) = 52.26410 25.84145 39.05278
#
# Velocity S-wave (km/s) = 4.39958 3.09363 3.80308
# Velocity P-wave (km/s) = 7.01440 6.30673 6.66996
#
# Compressibility (1/GPa) = 0.01583161
#
# Stress axis : x y z
#
# Youngs Moduli (GPa) = 126.07568 75.24555 172.20475
#
# Poissons Ratio (x) = 0.17763 0.29005
# Poissons Ratio (y) = 0.29762 0.26753
# Poissons Ratio (z) = 0.21235 0.11690
#
# Static dielectric constant tensor:
#      x y z
#    x 2.028310 0.000000 0.000000 
#    y 0.000000 2.344100 0.000000 
#    z 0.000000 0.000000 2.281990 
# 
# From -- ./inp_files/38426.got.cif
#   From: 2010.05.17/outbox.cif.g08.bks.cpg/sg63_20_cif.got.tgz:38426.got - 2010.06.03 15:47:04.
