data_PCOD9468245
_publ_section_title
;
Structure prediction by ZEFSAII (Michael W. Deem and Ramdas Pophale) SiO2 
 PCOD9468245
Probable space group: C M C M
;
_chemical_formula_sum "Si O2"
_cell_formula_units_Z 96
_cell_length_a 7.346160
_cell_length_b 28.421413
_cell_length_c 23.750276
_cell_angle_alpha 90.000000
_cell_angle_beta 90.000000
_cell_angle_gamma 90.000000
_cell_volume 4958.778500
_symmetry_space_group_name_H-M "C M C M"
_symmetry_group_IT_number 63
_symmetry_cell_setting 'orthorhombic'
loop_
_space_group_symop_operation_xyz
x,y,z
-x,-y,1/2+z
x,-y,-z
-x,y,1/2-z
-x,-y,-z
x,y,1/2-z
-x,y,z
x,-y,1/2+z
1/2+x,1/2+y,z
1/2-x,1/2-y,1/2+z
1/2+x,1/2-y,-z
1/2-x,1/2+y,1/2-z
1/2-x,1/2-y,-z
1/2+x,1/2+y,1/2-z
1/2-x,1/2+y,z
1/2+x,1/2-y,1/2+z
loop_
_atom_site_type_symbol
_atom_site_label
_atom_site_fract_x
_atom_site_fract_y
_atom_site_fract_z
Si Si1 0.779535 0.698800 0.060051
Si Si2 0.777456 0.369611 0.750000
Si Si3 0.279992 0.105114 0.128150
Si Si4 0.282754 0.856344 0.046697
Si Si5 0.783563 0.216127 0.632762
Si Si6 0.777405 0.740795 0.250000
Si Si7 0.722503 0.948330 0.981950
O O1 0.737600 0.656513 0.102963
O O2 0.710049 0.746808 0.086687
O O3 0.000000 0.701844 0.056402
O O4 0.712020 0.681211 0.999615
O O5 0.717481 0.394989 0.807454
O O6 0.723688 0.314311 0.750000
O O7 0.000000 0.369368 0.750000
O O8 0.500000 0.101665 0.129451
O O9 0.219220 0.068049 0.080683
O O10 0.500000 0.857694 0.040881
O O11 0.245595 0.835870 0.108263
O O12 0.219770 0.907538 0.025897
O O13 0.716524 0.231842 0.693931
O O14 0.000000 0.222859 0.635016
O O15 0.000000 0.740354 0.250000
O O16 0.500000 0.948617 0.981574
O O17 0.782460 0.000000 0.000000
#
# Coordination Sequence:
#
# PCOD9468245 Si02
#       7
#    16   8  16  16  16   8  16
#     4   8  13  22  36  56  80 104 129 158 194 238
#     4   9  12  18  32  52  79 103 125 161 207 242
#     4   8  12  18  32  54  77  99 126 163 205 243
#     4   9  17  27  40  59  81 106 135 165 199 242
#     4  10  17  26  40  58  81 108 136 164 198 238
#     4   9  16  24  37  56  79 109 137 163 197 238
#     4   8  14  25  40  56  75 104 139 170 206 250
#
# _framework density 19.359608000000001
#
# number of rings (size 3 to 8) (size 9 to 14) (size 15 to 20)
#    0.000    3.333    1.667    2.500    0.000    0.000 
#    0.000    0.417    0.000    1.500    0.000    3.500 
#    0.000    0.000    0.000    0.000    0.000    0.000 
#
# Total GULP energy -267514.273132 kJ/mol
# GULP energy per Si atom -5573.214024 kJ/mol
# Density = 1.931554 g / cm^3
# Si number density = 19.359608 Si / 1000 Ang^3
#
#
#
# Elastic Constant Matrix: (Units=GPa)
#
#
# Indices 1 2 3 4 5 6 
#
# 1 72.3710 3.6978 2.8046 0.0000 0.0000 0.0000
# 2 3.6978 132.7225 105.2073 0.0000 0.0000 0.0000
# 3 2.8046 105.2073 130.7863 0.0000 0.0000 0.0000
# 4 0.0000 0.0000 0.0000 19.2825 0.0000 0.0000
# 5 0.0000 0.0000 0.0000 0.0000 -1.1494 0.0000
# 6 0.0000 0.0000 0.0000 0.0000 0.0000 -15.6707
#
#
#
# Elastic Compliance Matrix: (Units=1/GPa)
#
#
# Indices 1 2 3 4 5 6 
#
# 1 0.013837 -0.000415 0.000037 0.000000 0.000000 0.000000
# 2 -0.000415 0.020806 -0.016728 0.000000 0.000000 0.000000
# 3 0.000037 -0.016728 0.021102 0.000000 0.000000 0.000000
# 4 0.000000 0.000000 0.000000 0.051861 0.000000 0.000000
# 5 0.000000 0.000000 0.000000 0.000000 -0.870008 0.000000
# 6 0.000000 0.000000 0.000000 0.000000 0.000000 -0.063813
#
#
# Mechanical properties :
#
#
# Convention : Reuss Voigt Hill
#
# Bulk Modulus (GPa) = 46.43931 62.14436 54.29183
# Shear Modulus (GPa) = -6.37084 15.43715 4.53316
#
# Velocity S-wave (km/s) = -1.81602 2.82687 1.53187
# Velocity P-wave (km/s) = 4.43199 6.54405 5.58870
#
# Compressibility (1/GPa) = 0.02153348
#
# Stress axis : x y z
#
# Youngs Moduli (GPa) = 72.26764 48.06282 47.38976
#
# Poissons Ratio (x) = 0.01994 -0.00175
# Poissons Ratio (y) = 0.02998 0.79273
# Poissons Ratio (z) = -0.00267 0.80399
#
# Static dielectric constant tensor:
#      x y z
#    x 1.825530 0.000000 0.000000 
#    y 0.000000 1.648580 0.000000 
#    z 0.000000 0.000000 1.707750 
# 
# From -- ./inp_files/53319.got.cif
#   From: 2010.05.17/outbox.cif.g08.bks.cpg/sg63_27_cif.got.tgz:53319.got - 2010.06.03 15:47:04.
