data_PCOD9468513
_publ_section_title
;
Structure prediction by ZEFSAII (Michael W. Deem and Ramdas Pophale) SiO2 
 PCOD9468513
Probable space group: C M C M
;
_chemical_formula_sum "Si O2"
_cell_formula_units_Z 96
_cell_length_a 29.628733
_cell_length_b 27.235180
_cell_length_c 8.790952
_cell_angle_alpha 90.000000
_cell_angle_beta 90.000000
_cell_angle_gamma 90.000000
_cell_volume 7093.804884
_symmetry_space_group_name_H-M "C M C M"
_symmetry_group_IT_number 63
_symmetry_cell_setting 'orthorhombic'
loop_
_space_group_symop_operation_xyz
x,y,z
-x,-y,1/2+z
x,-y,-z
-x,y,1/2-z
-x,-y,-z
x,y,1/2-z
-x,y,z
x,-y,1/2+z
1/2+x,1/2+y,z
1/2-x,1/2-y,1/2+z
1/2+x,1/2-y,-z
1/2-x,1/2+y,1/2-z
1/2-x,1/2-y,-z
1/2+x,1/2+y,1/2-z
1/2-x,1/2+y,z
1/2+x,1/2-y,1/2+z
loop_
_atom_site_type_symbol
_atom_site_label
_atom_site_fract_x
_atom_site_fract_y
_atom_site_fract_z
Si Si1 0.950082 0.595563 0.434762
Si Si2 0.141626 0.255876 0.431360
Si Si3 0.051109 0.289378 0.566972
Si Si4 0.144242 0.552099 0.067721
Si Si5 0.804540 0.643942 0.567362
Si Si6 0.778366 0.204627 0.931998
O O1 0.950471 0.594072 0.250000
O O2 0.944120 0.652956 0.476344
O O3 0.906848 0.565123 0.486642
O O4 0.000000 0.579376 0.487232
O O5 0.143244 0.252375 0.250000
O O6 0.090814 0.258880 0.490760
O O7 0.165369 0.308083 0.474466
O O8 0.171887 0.212531 0.502130
O O9 0.055475 0.286939 0.750000
O O10 0.000000 0.274410 0.526833
O O11 0.144074 0.550012 0.250000
O O12 0.158039 0.500000 0.000000
O O13 0.175975 0.596370 0.013536
O O14 0.807967 0.638120 0.750000
O O15 0.752599 0.657627 0.529702
O O16 0.779481 0.208791 0.750000
O O17 0.750000 0.250000 0.000000
#
# Coordination Sequence:
#
# PCOD9468513 Si02
#       6
#    16  16  16  16  16  16
#     4   8  15  28  43  57  72  95 130 169 210 251
#     4  10  18  27  42  63  85 105 129 164 201 243
#     4   9  16  27  43  60  79 106 139 170 203 245
#     4  11  21  31  45  59  75 101 131 169 212 254
#     4   9  18  31  43  58  79 100 127 165 202 242
#     4   9  17  28  43  62  82 102 126 159 199 242
#
# _framework density 13.532935999999999
#
# number of rings (size 3 to 8) (size 9 to 14) (size 15 to 20)
#    0.000    2.667    1.667    3.500    0.000    4.000 
#    0.000    0.000    0.000    1.500    0.000    0.000 
#    0.000    0.000    0.000    0.000    0.000    0.833 
#
# Total GULP energy -267350.460555 kJ/mol
# GULP energy per Si atom -5569.801262 kJ/mol
# Density = 1.350213 g / cm^3
# Si number density = 13.532936 Si / 1000 Ang^3
#
#
#
# Elastic Constant Matrix: (Units=GPa)
#
#
# Indices 1 2 3 4 5 6 
#
# 1 96.5028 50.2649 36.6805 0.0000 0.0000 0.0000
# 2 50.2649 54.1730 26.1444 0.0000 0.0000 0.0000
# 3 36.6805 26.1444 31.2981 0.0000 0.0000 0.0000
# 4 0.0000 0.0000 0.0000 14.6694 0.0000 0.0000
# 5 0.0000 0.0000 0.0000 0.0000 20.7969 0.0000
# 6 0.0000 0.0000 0.0000 0.0000 0.0000 16.3729
#
#
#
# Elastic Compliance Matrix: (Units=1/GPa)
#
#
# Indices 1 2 3 4 5 6 
#
# 1 0.024036 -0.014589 -0.015984 0.000000 0.000000 0.000000
# 2 -0.014589 0.039782 -0.016134 0.000000 0.000000 0.000000
# 3 -0.015984 -0.016134 0.064160 0.000000 0.000000 0.000000
# 4 0.000000 0.000000 0.000000 0.068169 0.000000 0.000000
# 5 0.000000 0.000000 0.000000 0.000000 0.048084 0.000000
# 6 0.000000 0.000000 0.000000 0.000000 0.000000 0.061077
#
#
# Mechanical properties :
#
#
# Convention : Reuss Voigt Hill
#
# Bulk Modulus (GPa) = 28.92969 45.35038 37.14004
# Shear Modulus (GPa) = 12.18793 14.96012 13.57403
#
# Velocity S-wave (km/s) = 3.00428 3.32845 3.17051
# Velocity P-wave (km/s) = 5.78428 6.95380 6.39583
#
# Compressibility (1/GPa) = 0.03456656
#
# Stress axis : x y z
#
# Youngs Moduli (GPa) = 41.60357 25.13711 15.58601
#
# Poissons Ratio (x) = 0.36671 0.24912
# Poissons Ratio (y) = 0.60694 0.25146
# Poissons Ratio (z) = 0.66498 0.40555
#
# Static dielectric constant tensor:
#      x y z
#    x 1.477510 0.000000 0.000000 
#    y 0.000000 1.417120 0.000000 
#    z 0.000000 0.000000 1.449470 
# 
# From -- ./inp_files/12978.got.cif
#   From: 2010.05.17/outbox.cif.g08.bks.cpg/sg63_7_cif.got.tgz:12978.got - 2010.06.03 15:47:04.
