data_PCOD9468220
_publ_section_title
;
Structure prediction by ZEFSAII (Michael W. Deem and Ramdas Pophale) SiO2 
 PCOD9468220
Probable space group: C M C M
;
_chemical_formula_sum "Si O2"
_cell_formula_units_Z 72
_cell_length_a 23.975512
_cell_length_b 8.736332
_cell_length_c 14.964767
_cell_angle_alpha 90.000000
_cell_angle_beta 90.000000
_cell_angle_gamma 90.000000
_cell_volume 3134.490656
_symmetry_space_group_name_H-M "C M C M"
_symmetry_group_IT_number 63
_symmetry_cell_setting 'orthorhombic'
loop_
_space_group_symop_operation_xyz
x,y,z
-x,-y,1/2+z
x,-y,-z
-x,y,1/2-z
-x,-y,-z
x,y,1/2-z
-x,y,z
x,-y,1/2+z
1/2+x,1/2+y,z
1/2-x,1/2-y,1/2+z
1/2+x,1/2-y,-z
1/2-x,1/2+y,1/2-z
1/2-x,1/2-y,-z
1/2+x,1/2+y,1/2-z
1/2-x,1/2+y,z
1/2+x,1/2-y,1/2+z
loop_
_atom_site_type_symbol
_atom_site_label
_atom_site_fract_x
_atom_site_fract_y
_atom_site_fract_z
Si Si1 0.825089 0.055420 0.402957
Si Si2 0.101030 0.096634 0.750000
Si Si3 0.246069 0.797560 0.750000
Si Si4 0.000000 0.140114 0.250000
Si Si5 0.000000 0.605956 0.600642
Si Si6 0.664956 0.009471 0.750000
Si Si7 0.379556 0.879906 0.433518
Si Si8 0.000000 0.656071 0.250000
O O1 0.776989 0.118586 0.338230
O O2 0.858931 0.207878 0.428375
O O3 0.805093 0.000000 0.500000
O O4 0.861494 0.939725 0.339903
O O5 0.057763 0.241738 0.750000
O O6 0.055783 0.958920 0.750000
O O7 0.217369 0.630933 0.750000
O O8 0.311414 0.837144 0.750000
O O9 0.000000 0.250793 0.333463
O O10 0.944366 0.626839 0.544808
O O11 0.000000 0.454104 0.662725
O O12 0.629274 0.049116 0.835936
O O13 0.350715 0.000000 0.500000
#
# Coordination Sequence:
#
# PCOD9468220 Si02
#       8
#    16   8   8   4   8   8  16   4
#     4  10  22  41  64  91 127 162 210 255 310 369
#     4  10  20  40  58  85 121 169 206 249 314 351
#     4   9  22  42  67  91 121 163 202 259 319 371
#     4  10  16  36  64  76 114 174 202 248 296 360
#     4  11  21  40  59  91 130 163 211 251 301 364
#     4  10  22  45  65  92 122 164 205 254 320 370
#     4  11  24  41  65  92 127 168 208 254 308 367
#     4  10  24  32  60  90 120 162 222 256 296 366
#
# _framework density 22.970238999999999
#
# number of rings (size 3 to 8) (size 9 to 14) (size 15 to 20)
#    0.000    1.778    2.222    2.333    3.111    2.667 
#    4.000    7.222    0.000    0.000    0.000    0.000 
#    0.000    0.000    0.000    0.000    0.000    0.000 
#
# Total GULP energy -201000.546411 kJ/mol
# GULP energy per Si atom -5583.348511 kJ/mol
# Density = 2.291796 g / cm^3
# Si number density = 22.970239 Si / 1000 Ang^3
#
#
#
# Elastic Constant Matrix: (Units=GPa)
#
#
# Indices 1 2 3 4 5 6 
#
# 1 29.0363 9.8135 -27.0639 0.0000 0.0000 0.0000
# 2 9.8135 102.1538 24.6515 0.0000 0.0000 0.0000
# 3 -27.0639 24.6515 107.1906 0.0000 0.0000 0.0000
# 4 0.0000 0.0000 0.0000 16.1121 0.0000 0.0000
# 5 0.0000 0.0000 0.0000 0.0000 -289.2339 0.0000
# 6 0.0000 0.0000 0.0000 0.0000 0.0000 40.7537
#
#
#
# Elastic Compliance Matrix: (Units=1/GPa)
#
#
# Indices 1 2 3 4 5 6 
#
# 1 0.051184 -0.008508 0.014880 0.000000 0.000000 0.000000
# 2 -0.008508 0.011779 -0.004857 0.000000 0.000000 0.000000
# 3 0.014880 -0.004857 0.014203 0.000000 0.000000 0.000000
# 4 0.000000 0.000000 0.000000 0.062065 0.000000 0.000000
# 5 0.000000 0.000000 0.000000 0.000000 -0.003457 0.000000
# 6 0.000000 0.000000 0.000000 0.000000 0.000000 0.024538
#
#
# Mechanical properties :
#
#
# Convention : Reuss Voigt Hill
#
# Bulk Modulus (GPa) = 12.46951 28.13147 20.30049
# Shear Modulus (GPa) = 27.17201 -31.07499 -1.95149
#
# Velocity S-wave (km/s) = 3.44310 -3.68208 -0.92272
# Velocity P-wave (km/s) = 4.60943 2.40904 2.77879
#
# Compressibility (1/GPa) = 0.08019560
#
# Stress axis : x y z
#
# Youngs Moduli (GPa) = 19.53736 84.90024 70.40750
#
# Poissons Ratio (x) = 0.72231 -1.04764
# Poissons Ratio (y) = 0.16622 0.34196
# Poissons Ratio (z) = -0.29071 0.41235
#
# Static dielectric constant tensor:
#      x y z
#    x 1.874530 0.000000 0.000000 
#    y 0.000000 1.883530 0.000000 
#    z 0.000000 0.000000 1.860490 
# 
# From -- ./inp_files/37637.got.cif
#   From: 2010.05.17/outbox.cif.g08.bks.cpg/sg63_19_cif.got.tgz:37637.got - 2010.06.03 15:47:04.
