data_PCOD9468765
_publ_section_title
;
Structure prediction by ZEFSAII (Michael W. Deem and Ramdas Pophale) SiO2 
 PCOD9468765
Probable space group: C M C M
;
_chemical_formula_sum "Si O2"
_cell_formula_units_Z 112
_cell_length_a 14.609307
_cell_length_b 18.440009
_cell_length_c 25.883699
_cell_angle_alpha 90.000000
_cell_angle_beta 90.000000
_cell_angle_gamma 90.000000
_cell_volume 6972.958571
_symmetry_space_group_name_H-M "C M C M"
_symmetry_group_IT_number 63
_symmetry_cell_setting 'orthorhombic'
loop_
_space_group_symop_operation_xyz
x,y,z
-x,-y,1/2+z
x,-y,-z
-x,y,1/2-z
-x,-y,-z
x,y,1/2-z
-x,y,z
x,-y,1/2+z
1/2+x,1/2+y,z
1/2-x,1/2-y,1/2+z
1/2+x,1/2-y,-z
1/2-x,1/2+y,1/2-z
1/2-x,1/2-y,-z
1/2+x,1/2+y,1/2-z
1/2-x,1/2+y,z
1/2+x,1/2-y,1/2+z
loop_
_atom_site_type_symbol
_atom_site_label
_atom_site_fract_x
_atom_site_fract_y
_atom_site_fract_z
Si Si1 0.896598 0.654383 0.532099
Si Si2 0.106633 0.092508 0.112469
Si Si3 0.605081 0.457561 0.189010
Si Si4 0.107599 0.256305 0.129427
Si Si5 0.271864 0.932156 0.539531
Si Si6 0.104395 0.479799 0.386314
Si Si7 0.288975 0.119411 0.811200
O O1 0.878305 0.722703 0.569091
O O2 0.820670 0.633817 0.490363
O O3 0.897475 0.586488 0.572208
O O4 0.000000 0.659494 0.510343
O O5 0.121299 0.027666 0.153256
O O6 0.123015 0.171437 0.137322
O O7 0.174400 0.083913 0.064499
O O8 0.000000 0.090661 0.096726
O O9 0.613841 0.476070 0.250000
O O10 0.500000 0.433413 0.180500
O O11 0.682620 0.398108 0.177260
O O12 0.172197 0.307829 0.162920
O O13 0.000000 0.273301 0.140419
O O14 0.264974 0.000000 0.500000
O O15 0.338176 0.957758 0.585977
O O16 0.154138 0.446549 0.336662
O O17 0.000000 0.500735 0.375922
O O18 0.301433 0.122194 0.750000
#
# Coordination Sequence:
#
# PCOD9468765 Si02
#       7
#    16  16  16  16  16  16  16
#     4   8  15  28  46  66  93 128 164 197 233 287
#     4  10  20  34  50  71 102 132 160 203 250 291
#     4   9  18  33  53  74  96 128 168 201 233 287
#     4   9  19  33  49  72 102 130 159 200 250 294
#     4  10  18  29  48  70  94 131 169 202 242 284
#     4   9  16  27  44  71 100 124 157 198 241 286
#     4  10  18  30  51  77  98 122 159 201 247 290
#
# _framework density 16.062048999999998
#
# number of rings (size 3 to 8) (size 9 to 14) (size 15 to 20)
#    0.000    2.714    1.429    1.714    0.000    4.286 
#    0.000    1.429    0.000    1.714    0.000    0.000 
#    0.000    0.000    0.000    0.000    0.000    0.000 
#
# Total GULP energy -311864.237631 kJ/mol
# GULP energy per Si atom -5569.004243 kJ/mol
# Density = 1.602549 g / cm^3
# Si number density = 16.062049 Si / 1000 Ang^3
#
#
#
# Elastic Constant Matrix: (Units=GPa)
#
#
# Indices 1 2 3 4 5 6 
#
# 1 121.2063 45.0766 59.0431 0.0000 0.0000 0.0000
# 2 45.0766 48.7970 24.5281 0.0000 0.0000 0.0000
# 3 59.0431 24.5281 58.1713 0.0000 0.0000 0.0000
# 4 0.0000 0.0000 0.0000 10.1878 0.0000 0.0000
# 5 0.0000 0.0000 0.0000 0.0000 31.3615 0.0000
# 6 0.0000 0.0000 0.0000 0.0000 0.0000 15.9003
#
#
#
# Elastic Compliance Matrix: (Units=1/GPa)
#
#
# Indices 1 2 3 4 5 6 
#
# 1 0.019729 -0.010354 -0.015659 0.000000 0.000000 0.000000
# 2 -0.010354 0.031438 -0.002747 0.000000 0.000000 0.000000
# 3 -0.015659 -0.002747 0.034242 0.000000 0.000000 0.000000
# 4 0.000000 0.000000 0.000000 0.098156 0.000000 0.000000
# 5 0.000000 0.000000 0.000000 0.000000 0.031886 0.000000
# 6 0.000000 0.000000 0.000000 0.000000 0.000000 0.062892
#
#
# Mechanical properties :
#
#
# Convention : Reuss Voigt Hill
#
# Bulk Modulus (GPa) = 35.85500 53.94114 44.89807
# Shear Modulus (GPa) = 14.48604 18.12504 16.30554
#
# Velocity S-wave (km/s) = 3.00639 3.36287 3.18961
# Velocity P-wave (km/s) = 5.86706 6.98100 6.44813
#
# Compressibility (1/GPa) = 0.02789011
#
# Stress axis : x y z
#
# Youngs Moduli (GPa) = 50.68755 31.80838 29.20358
#
# Poissons Ratio (x) = 0.32933 0.45729
# Poissons Ratio (y) = 0.52480 0.08023
# Poissons Ratio (z) = 0.79370 0.08739
#
# Static dielectric constant tensor:
#      x y z
#    x 1.550010 0.000000 0.000000 
#    y 0.000000 1.532290 0.000000 
#    z 0.000000 0.000000 1.529650 
# 
# From -- ./inp_files/68617.got.cif
#   From: 2010.05.17/outbox.cif.g08.bks.cpg/sg63_35_cif.got.tgz:68617.got - 2010.06.03 15:47:04.
