data_PCOD9468386
_publ_section_title
;
Structure prediction by ZEFSAII (Michael W. Deem and Ramdas Pophale) SiO2 
 PCOD9468386
Probable space group: C M C M
;
_chemical_formula_sum "Si O2"
_cell_formula_units_Z 128
_cell_length_a 20.543192
_cell_length_b 21.095192
_cell_length_c 17.856890
_cell_angle_alpha 90.000000
_cell_angle_beta 90.000000
_cell_angle_gamma 90.000000
_cell_volume 7738.507913
_symmetry_space_group_name_H-M "C M C M"
_symmetry_group_IT_number 63
_symmetry_cell_setting 'orthorhombic'
loop_
_space_group_symop_operation_xyz
x,y,z
-x,-y,1/2+z
x,-y,-z
-x,y,1/2-z
-x,-y,-z
x,y,1/2-z
-x,y,z
x,-y,1/2+z
1/2+x,1/2+y,z
1/2-x,1/2-y,1/2+z
1/2+x,1/2-y,-z
1/2-x,1/2+y,1/2-z
1/2-x,1/2-y,-z
1/2+x,1/2+y,1/2-z
1/2-x,1/2+y,z
1/2+x,1/2-y,1/2+z
loop_
_atom_site_type_symbol
_atom_site_label
_atom_site_fract_x
_atom_site_fract_y
_atom_site_fract_z
Si Si1 0.753772 0.818038 0.929519
Si Si2 0.205471 0.935836 0.658667
Si Si3 0.570335 0.621740 0.337747
Si Si4 0.708049 0.807534 0.161767
Si Si5 0.300585 0.578496 0.659721
Si Si6 0.362225 0.737815 0.529191
Si Si7 0.077124 0.840586 0.160878
Si Si8 0.427378 0.766915 0.119094
O O1 0.753013 0.882540 0.883379
O O2 0.769059 0.757845 0.875891
O O3 0.684232 0.799053 0.963030
O O4 0.812517 0.813026 0.990120
O O5 0.211191 0.930224 0.750000
O O6 0.131841 0.917069 0.635327
O O7 0.216900 0.007960 0.634478
O O8 0.566128 0.607114 0.250000
O O9 0.500000 0.608221 0.373328
O O10 0.582032 0.697089 0.344650
O O11 0.718426 0.802138 0.250000
O O12 0.750584 0.866957 0.134336
O O13 0.631185 0.811298 0.145620
O O14 0.295702 0.576400 0.750000
O O15 0.374992 0.599937 0.644532
O O16 0.393363 0.712940 0.605897
O O17 0.417246 0.753502 0.468768
O O18 0.084674 0.825684 0.250000
O O19 0.000000 0.850803 0.147243
O O20 0.500000 0.788793 0.136627
#
# Coordination Sequence:
#
# PCOD9468386 Si02
#       8
#    16  16  16  16  16  16  16  16
#     4  10  19  30  51  73  97 132 168 204 252 297
#     4  10  18  31  49  74 102 133 167 204 244 291
#     4   9  16  26  43  69 100 132 163 192 230 288
#     4  10  17  30  51  75 102 132 165 206 247 294
#     4   9  19  32  49  72 102 133 168 209 245 284
#     4  10  19  32  50  71 100 126 168 214 252 290
#     4  10  20  34  52  71  95 135 179 212 246 291
#     4  10  19  30  49  75 103 130 158 201 255 302
#
# _framework density 16.540655999999998
#
# number of rings (size 3 to 8) (size 9 to 14) (size 15 to 20)
#    0.000    2.250    3.750    1.125    0.000    1.750 
#    0.000    3.125    0.000    0.750    0.000    2.625 
#    0.000    2.000    0.000    0.000    0.000    0.000 
#
# Total GULP energy -356358.013984 kJ/mol
# GULP energy per Si atom -5568.093969 kJ/mol
# Density = 1.650301 g / cm^3
# Si number density = 16.540656 Si / 1000 Ang^3
#
#
#
# Elastic Constant Matrix: (Units=GPa)
#
#
# Indices 1 2 3 4 5 6 
#
# 1 66.5098 39.4524 6.9729 0.0000 0.0000 0.0000
# 2 39.4524 83.6514 25.0293 0.0000 0.0000 0.0000
# 3 6.9729 25.0293 44.4820 0.0000 0.0000 0.0000
# 4 0.0000 0.0000 0.0000 7.6115 0.0000 0.0000
# 5 0.0000 0.0000 0.0000 0.0000 22.1896 0.0000
# 6 0.0000 0.0000 0.0000 0.0000 0.0000 15.7640
#
#
#
# Elastic Compliance Matrix: (Units=1/GPa)
#
#
# Indices 1 2 3 4 5 6 
#
# 1 0.021154 -0.010804 0.002763 0.000000 0.000000 0.000000
# 2 -0.010804 0.019892 -0.009499 0.000000 0.000000 0.000000
# 3 0.002763 -0.009499 0.027393 0.000000 0.000000 0.000000
# 4 0.000000 0.000000 0.000000 0.131380 0.000000 0.000000
# 5 0.000000 0.000000 0.000000 0.000000 0.045066 0.000000
# 6 0.000000 0.000000 0.000000 0.000000 0.000000 0.063436
#
#
# Mechanical properties :
#
#
# Convention : Reuss Voigt Hill
#
# Bulk Modulus (GPa) = 29.97678 37.50582 33.74130
# Shear Modulus (GPa) = 14.10352 17.32559 15.71456
#
# Velocity S-wave (km/s) = 2.92320 3.23995 3.08564
# Velocity P-wave (km/s) = 5.43653 6.05975 5.75658
#
# Compressibility (1/GPa) = 0.03335915
#
# Stress axis : x y z
#
# Youngs Moduli (GPa) = 47.27185 50.27154 36.50564
#
# Poissons Ratio (x) = 0.54312 -0.10086
# Poissons Ratio (y) = 0.51071 0.34678
# Poissons Ratio (z) = -0.13061 0.47755
#
# Static dielectric constant tensor:
#      x y z
#    x 1.600770 0.000000 0.000000 
#    y 0.000000 1.545120 0.000000 
#    z 0.000000 0.000000 1.603700 
# 
# From -- ./inp_files/47550.got.cif
#   From: 2010.05.17/outbox.cif.g08.bks.cpg/sg63_24_cif.got.tgz:47550.got - 2010.06.03 15:47:04.
