data_PCOD9468492
_publ_section_title
;
Structure prediction by ZEFSAII (Michael W. Deem and Ramdas Pophale) SiO2 
 PCOD9468492
Probable space group: C M C M
;
_chemical_formula_sum "Si O2"
_cell_formula_units_Z 80
_cell_length_a 14.622213
_cell_length_b 16.923458
_cell_length_c 17.144442
_cell_angle_alpha 90.000000
_cell_angle_beta 90.000000
_cell_angle_gamma 90.000000
_cell_volume 4242.536316
_symmetry_space_group_name_H-M "C M C M"
_symmetry_group_IT_number 63
_symmetry_cell_setting 'orthorhombic'
loop_
_space_group_symop_operation_xyz
x,y,z
-x,-y,1/2+z
x,-y,-z
-x,y,1/2-z
-x,-y,-z
x,y,1/2-z
-x,y,z
x,-y,1/2+z
1/2+x,1/2+y,z
1/2-x,1/2-y,1/2+z
1/2+x,1/2-y,-z
1/2-x,1/2+y,1/2-z
1/2-x,1/2-y,-z
1/2+x,1/2+y,1/2-z
1/2-x,1/2+y,z
1/2+x,1/2-y,1/2+z
loop_
_atom_site_type_symbol
_atom_site_label
_atom_site_fract_x
_atom_site_fract_y
_atom_site_fract_z
Si Si1 0.189099 0.849743 0.913932
Si Si2 0.000000 0.096643 0.003882
Si Si3 0.821511 0.580963 0.538563
Si Si4 0.805786 0.992541 0.333660
Si Si5 0.895330 0.300458 0.158505
Si Si6 0.000000 0.086903 0.666760
O O1 0.203686 0.914817 0.847136
O O2 0.173784 0.765011 0.875441
O O3 0.093265 0.874774 0.955314
O O4 0.273147 0.862782 0.974124
O O5 0.000000 0.130536 0.915551
O O6 0.000000 0.000000 0.000000
O O7 0.859578 0.500000 0.500000
O O8 0.739973 0.549973 0.593760
O O9 0.886379 0.626989 0.598207
O O10 0.765928 0.968902 0.250000
O O11 0.910965 0.967682 0.333627
O O12 0.876877 0.318168 0.250000
O O13 0.000000 0.270234 0.155142
O O14 0.000000 0.131703 0.750000
#
# Coordination Sequence:
#
# PCOD9468492 Si02
#       6
#    16   8  16  16  16   8
#     4  11  19  33  54  80 111 142 178 219 272 325
#     4  12  16  30  48  78 115 144 174 213 260 324
#     4  10  21  37  58  77 103 142 187 229 264 315
#     4  10  18  29  49  78 110 142 176 217 264 321
#     4  11  24  39  55  80 112 143 176 225 279 325
#     4  10  18  26  44  76 110 144 174 207 257 312
#
# _framework density 18.856646000000001
#
# number of rings (size 3 to 8) (size 9 to 14) (size 15 to 20)
#    0.000    1.400    5.000    2.400    0.000    0.400 
#    0.000    0.000    0.000    0.000    0.000    0.000 
#    0.000    0.000    0.000    0.000    0.000    0.000 
#
# Total GULP energy -222935.021458 kJ/mol
# GULP energy per Si atom -5573.375536 kJ/mol
# Density = 1.881373 g / cm^3
# Si number density = 18.856646 Si / 1000 Ang^3
#
#
#
# Elastic Constant Matrix: (Units=GPa)
#
#
# Indices 1 2 3 4 5 6 
#
# 1 21.1625 9.9272 10.6861 0.0000 0.0000 0.0000
# 2 9.9272 56.4509 29.9097 0.0000 0.0000 0.0000
# 3 10.6861 29.9097 117.6617 0.0000 0.0000 0.0000
# 4 0.0000 0.0000 0.0000 17.5098 0.0000 0.0000
# 5 0.0000 0.0000 0.0000 0.0000 26.9490 0.0000
# 6 0.0000 0.0000 0.0000 0.0000 0.0000 18.4286
#
#
#
# Elastic Compliance Matrix: (Units=1/GPa)
#
#
# Indices 1 2 3 4 5 6 
#
# 1 0.052281 -0.007717 -0.002786 0.000000 0.000000 0.000000
# 2 -0.007717 0.021611 -0.004793 0.000000 0.000000 0.000000
# 3 -0.002786 -0.004793 0.009970 0.000000 0.000000 0.000000
# 4 0.000000 0.000000 0.000000 0.057111 0.000000 0.000000
# 5 0.000000 0.000000 0.000000 0.000000 0.037107 0.000000
# 6 0.000000 0.000000 0.000000 0.000000 0.000000 0.054263
#
#
# Mechanical properties :
#
#
# Convention : Reuss Voigt Hill
#
# Bulk Modulus (GPa) = 18.77266 32.92455 25.84861
# Shear Modulus (GPa) = 17.81308 22.22762 20.02035
#
# Velocity S-wave (km/s) = 3.07686 3.43704 3.26193
# Velocity P-wave (km/s) = 4.75393 5.76623 5.28438
#
# Compressibility (1/GPa) = 0.05326895
#
# Stress axis : x y z
#
# Youngs Moduli (GPa) = 19.12753 46.27283 100.29799
#
# Poissons Ratio (x) = 0.35711 0.27947
# Poissons Ratio (y) = 0.14762 0.48069
# Poissons Ratio (z) = 0.05330 0.22177
#
# Static dielectric constant tensor:
#      x y z
#    x 1.635370 0.000000 0.000000 
#    y 0.000000 1.677470 0.000000 
#    z 0.000000 0.000000 1.708160 
# 
# From -- ./inp_files/44001.got.cif
#   From: 2010.05.17/outbox.cif.g08.bks.cpg/sg63_23_cif.got.tgz:44001.got - 2010.06.03 15:47:04.
