data_PCOD9468255
_publ_section_title
;
Structure prediction by ZEFSAII (Michael W. Deem and Ramdas Pophale) SiO2 
 PCOD9468255
Probable space group: C M C M
;
_chemical_formula_sum "Si O2"
_cell_formula_units_Z 92
_cell_length_a 8.535342
_cell_length_b 21.561022
_cell_length_c 18.860252
_cell_angle_alpha 90.000000
_cell_angle_beta 90.000000
_cell_angle_gamma 90.000000
_cell_volume 3470.865314
_symmetry_space_group_name_H-M "C M C M"
_symmetry_group_IT_number 63
_symmetry_cell_setting 'orthorhombic'
loop_
_space_group_symop_operation_xyz
x,y,z
-x,-y,1/2+z
x,-y,-z
-x,y,1/2-z
-x,-y,-z
x,y,1/2-z
-x,y,z
x,-y,1/2+z
1/2+x,1/2+y,z
1/2-x,1/2-y,1/2+z
1/2+x,1/2-y,-z
1/2-x,1/2+y,1/2-z
1/2-x,1/2-y,-z
1/2+x,1/2+y,1/2-z
1/2-x,1/2+y,z
1/2+x,1/2-y,1/2+z
loop_
_atom_site_type_symbol
_atom_site_label
_atom_site_fract_x
_atom_site_fract_y
_atom_site_fract_z
Si Si1 0.828905 0.070203 0.472400
Si Si2 0.674507 0.253845 0.605852
Si Si3 0.000000 0.304878 0.593592
Si Si4 0.000000 0.576382 0.012603
Si Si5 0.000000 0.672540 0.250000
Si Si6 0.683872 0.369055 0.164641
Si Si7 0.664697 0.335079 0.750000
Si Si8 0.187807 0.007753 0.329551
O O1 0.674981 0.095203 0.510652
O O2 0.000000 0.100668 0.478597
O O3 0.846902 0.000000 0.500000
O O4 0.786680 0.059021 0.389579
O O5 0.500000 0.257064 0.573099
O O6 0.715500 0.184642 0.629933
O O7 0.662505 0.294076 0.678761
O O8 0.831251 0.279658 0.567232
O O9 0.000000 0.379197 0.583455
O O10 0.000000 0.288071 0.677617
O O11 0.000000 0.500000 0.000000
O O12 0.837429 0.636903 0.250000
O O13 0.686720 0.361407 0.250000
O O14 0.500000 0.364580 0.142366
O O15 0.743927 0.438900 0.150632
O O16 0.500000 0.372237 0.750000
O O17 0.241786 0.018895 0.250000
O O18 0.000000 0.000773 0.328027
#
# Coordination Sequence:
#
# PCOD9468255 Si02
#       8
#    16  16   8   8   4  16   8  16
#     4   9  18  36  61  82 106 140 196 246 291 342
#     4  10  17  26  44  70 106 148 181 217 254 322
#     4  10  20  34  50  74 110 146 179 222 275 325
#     4  10  22  40  60  82 102 136 194 247 287 333
#     4   8  16  28  44  64  98 138 170 200 254 316
#     4   9  15  24  44  71 110 158 190 212 263 333
#     4   8  14  22  36  58  89 137 179 201 234 290
#     4   8  15  29  50  81 119 154 185 233 293 343
#
# _framework density 26.506360000000001
#
# number of rings (size 3 to 8) (size 9 to 14) (size 15 to 20)
#    0.000    2.957    1.739    1.043    0.000    0.696 
#    3.130    0.000    0.000    0.000    0.000    4.870 
#    0.000    0.000    0.000    0.000    0.000    0.000 
#
# Total GULP energy -256537.652174 kJ/mol
# GULP energy per Si atom -5576.905482 kJ/mol
# Density = 2.644603 g / cm^3
# Si number density = 26.506360 Si / 1000 Ang^3
#
#
#
# Elastic Constant Matrix: (Units=GPa)
#
#
# Indices 1 2 3 4 5 6 
#
# 1 273.3341 52.5604 34.1719 0.0000 0.0000 0.0000
# 2 52.5604 111.1552 32.8535 0.0000 0.0000 0.0000
# 3 34.1719 32.8535 127.5312 0.0000 0.0000 0.0000
# 4 0.0000 0.0000 0.0000 24.7191 0.0000 0.0000
# 5 0.0000 0.0000 0.0000 0.0000 16.2889 0.0000
# 6 0.0000 0.0000 0.0000 0.0000 0.0000 -14.0492
#
#
#
# Elastic Compliance Matrix: (Units=1/GPa)
#
#
# Indices 1 2 3 4 5 6 
#
# 1 0.004073 -0.001735 -0.000644 0.000000 0.000000 0.000000
# 2 -0.001735 0.010477 -0.002234 0.000000 0.000000 0.000000
# 3 -0.000644 -0.002234 0.008589 0.000000 0.000000 0.000000
# 4 0.000000 0.000000 0.000000 0.040455 0.000000 0.000000
# 5 0.000000 0.000000 0.000000 0.000000 0.061392 0.000000
# 6 0.000000 0.000000 0.000000 0.000000 0.000000 -0.071178
#
#
# Mechanical properties :
#
#
# Convention : Reuss Voigt Hill
#
# Bulk Modulus (GPa) = 71.88030 83.46580 77.67305
# Shear Modulus (GPa) = 73.88577 31.55407 52.71992
#
# Velocity S-wave (km/s) = 5.28538 3.45401 4.46461
# Velocity P-wave (km/s) = 8.02646 6.88943 7.47958
#
# Compressibility (1/GPa) = 0.01391202
#
# Stress axis : x y z
#
# Youngs Moduli (GPa) = 245.53256 95.44402 116.42308
#
# Poissons Ratio (x) = 0.16564 0.07500
# Poissons Ratio (y) = 0.42610 0.26010
# Poissons Ratio (z) = 0.15818 0.21323
#
# Static dielectric constant tensor:
#      x y z
#    x 2.099270 0.000000 0.000000 
#    y 0.000000 2.055640 0.000000 
#    z 0.000000 0.000000 2.200020 
# 
# From -- ./inp_files/60124.got.cif
#   From: 2010.05.17/outbox.cif.g08.bks.cpg/sg63_31_cif.got.tgz:60124.got - 2010.06.03 15:47:04.
