data_PCOD9468399
_publ_section_title
;
Structure prediction by ZEFSAII (Michael W. Deem and Ramdas Pophale) SiO2 
 PCOD9468399
Probable space group: C M C M
;
_chemical_formula_sum "Si O2"
_cell_formula_units_Z 112
_cell_length_a 20.680604
_cell_length_b 17.581564
_cell_length_c 16.940737
_cell_angle_alpha 90.000000
_cell_angle_beta 90.000000
_cell_angle_gamma 90.000000
_cell_volume 6159.607297
_symmetry_space_group_name_H-M "C M C M"
_symmetry_group_IT_number 63
_symmetry_cell_setting 'orthorhombic'
loop_
_space_group_symop_operation_xyz
x,y,z
-x,-y,1/2+z
x,-y,-z
-x,y,1/2-z
-x,-y,-z
x,y,1/2-z
-x,y,z
x,-y,1/2+z
1/2+x,1/2+y,z
1/2-x,1/2-y,1/2+z
1/2+x,1/2-y,-z
1/2-x,1/2+y,1/2-z
1/2-x,1/2-y,-z
1/2+x,1/2+y,1/2-z
1/2-x,1/2+y,z
1/2+x,1/2-y,1/2+z
loop_
_atom_site_type_symbol
_atom_site_label
_atom_site_fract_x
_atom_site_fract_y
_atom_site_fract_z
Si Si1 0.922175 0.495069 0.833981
Si Si2 0.293406 0.339354 0.838684
Si Si3 0.928383 0.241148 0.158361
Si Si4 0.925692 0.669808 0.376347
Si Si5 0.315486 0.291815 0.161286
Si Si6 0.111580 0.379179 0.048313
Si Si7 0.757111 0.158091 0.510285
O O1 0.900720 0.529866 0.750000
O O2 0.901352 0.407398 0.835383
O O3 0.901691 0.540673 0.910836
O O4 0.000000 0.494354 0.835006
O O5 0.286153 0.374928 0.750000
O O6 0.368177 0.315569 0.849427
O O7 0.247028 0.264574 0.835403
O O8 0.275368 0.375158 0.924016
O O9 0.930613 0.262043 0.250000
O O10 0.911836 0.315724 0.109549
O O11 0.000000 0.212058 0.135746
O O12 0.877087 0.738239 0.358080
O O13 0.923133 0.644163 0.467540
O O14 0.000000 0.686376 0.353935
O O15 0.322323 0.324524 0.250000
O O16 0.303693 0.347647 0.086803
O O17 0.187386 0.372476 0.033039
O O18 0.750000 0.250000 0.500000
#
# Coordination Sequence:
#
# PCOD9468399 Si02
#       7
#    16  16  16  16  16  16  16
#     4  10  22  36  46  62  91 125 163 205 243 277
#     4   9  16  29  45  61  85 116 147 183 232 281
#     4  10  18  26  41  66  91 116 149 187 231 283
#     4  11  21  33  48  65  90 127 171 209 236 270
#     4  10  18  30  48  65  87 122 159 194 240 284
#     4  12  19  30  47  65  88 121 159 200 240 281
#     4  10  17  31  46  67  89 113 156 198 232 286
#
# _framework density 18.182977999999999
#
# number of rings (size 3 to 8) (size 9 to 14) (size 15 to 20)
#    0.000    1.714    5.714    2.571    0.000    3.714 
#    0.000    0.000    0.000    0.000    0.000    0.000 
#    0.000    0.000    0.000    3.857    0.000   15.571 
#
# Total GULP energy -311846.689590 kJ/mol
# GULP energy per Si atom -5568.690886 kJ/mol
# Density = 1.814159 g / cm^3
# Si number density = 18.182978 Si / 1000 Ang^3
#
#
#
# Elastic Constant Matrix: (Units=GPa)
#
#
# Indices 1 2 3 4 5 6 
#
# 1 92.8479 9.9698 29.3586 0.0000 0.0000 0.0000
# 2 9.9698 4.8226 10.1955 0.0000 0.0000 0.0000
# 3 29.3586 10.1955 104.0493 0.0000 0.0000 0.0000
# 4 0.0000 0.0000 0.0000 7.1852 0.0000 0.0000
# 5 0.0000 0.0000 0.0000 0.0000 22.2170 0.0000
# 6 0.0000 0.0000 0.0000 0.0000 0.0000 12.1774
#
#
#
# Elastic Compliance Matrix: (Units=1/GPa)
#
#
# Indices 1 2 3 4 5 6 
#
# 1 0.014004 -0.025979 -0.001406 0.000000 0.000000 0.000000
# 2 -0.025979 0.309728 -0.023019 0.000000 0.000000 0.000000
# 3 -0.001406 -0.023019 0.012263 0.000000 0.000000 0.000000
# 4 0.000000 0.000000 0.000000 0.139175 0.000000 0.000000
# 5 0.000000 0.000000 0.000000 0.000000 0.045011 0.000000
# 6 0.000000 0.000000 0.000000 0.000000 0.000000 0.082119
#
#
# Mechanical properties :
#
#
# Convention : Reuss Voigt Hill
#
# Bulk Modulus (GPa) = 4.25193 33.41864 18.83528
# Shear Modulus (GPa) = 6.39791 18.46230 12.43011
#
# Velocity S-wave (km/s) = 1.87783 3.18993 2.61743
# Velocity P-wave (km/s) = 2.65427 5.65566 4.41767
#
# Compressibility (1/GPa) = 0.23518743
#
# Stress axis : x y z
#
# Youngs Moduli (GPa) = 71.40601 3.22864 81.54546
#
# Poissons Ratio (x) = 0.08388 0.11464
# Poissons Ratio (y) = 1.85507 1.87711
# Poissons Ratio (z) = 0.10039 0.07432
#
# Static dielectric constant tensor:
#      x y z
#    x 1.636560 0.000000 0.000000 
#    y 0.000000 1.602330 0.000000 
#    z 0.000000 0.000000 1.774570 
# 
# From -- ./inp_files/47312.got.cif
#   From: 2010.05.17/outbox.cif.g08.bks.cpg/sg63_24_cif.got.tgz:47312.got - 2010.06.03 15:47:04.
