data_PCOD9468908
_publ_section_title
;
Structure prediction by ZEFSAII (Michael W. Deem and Ramdas Pophale) SiO2 
 PCOD9468908
Probable space group: C M C M
;
_chemical_formula_sum "Si O2"
_cell_formula_units_Z 112
_cell_length_a 27.114214
_cell_length_b 14.425975
_cell_length_c 17.822631
_cell_angle_alpha 90.000000
_cell_angle_beta 90.000000
_cell_angle_gamma 90.000000
_cell_volume 6971.303817
_symmetry_space_group_name_H-M "C M C M"
_symmetry_group_IT_number 63
_symmetry_cell_setting 'orthorhombic'
loop_
_space_group_symop_operation_xyz
x,y,z
-x,-y,1/2+z
x,-y,-z
-x,y,1/2-z
-x,-y,-z
x,y,1/2-z
-x,y,z
x,-y,1/2+z
1/2+x,1/2+y,z
1/2-x,1/2-y,1/2+z
1/2+x,1/2-y,-z
1/2-x,1/2+y,1/2-z
1/2-x,1/2-y,-z
1/2+x,1/2+y,1/2-z
1/2-x,1/2+y,z
1/2+x,1/2-y,1/2+z
loop_
_atom_site_type_symbol
_atom_site_label
_atom_site_fract_x
_atom_site_fract_y
_atom_site_fract_z
Si Si1 0.609621 0.640627 0.666594
Si Si2 0.057191 0.890754 0.015919
Si Si3 0.326363 0.454369 0.831624
Si Si4 0.698617 0.159522 0.840706
Si Si5 0.788899 0.453128 0.664340
Si Si6 0.850814 0.797775 0.555116
Si Si7 0.301357 0.751847 0.898647
O O1 0.589734 0.653415 0.750000
O O2 0.568839 0.631931 0.602596
O O3 0.640282 0.544666 0.663476
O O4 0.651316 0.716819 0.648367
O O5 0.094337 0.822872 0.971947
O O6 0.000000 0.876759 0.997407
O O7 0.068727 0.000000 0.000000
O O8 0.336796 0.408618 0.750000
O O9 0.268986 0.477545 0.831613
O O10 0.334046 0.389761 0.902137
O O11 0.698678 0.168784 0.750000
O O12 0.657256 0.218516 0.883434
O O13 0.751355 0.200622 0.870525
O O14 0.689316 0.051622 0.859688
O O15 0.804632 0.430370 0.750000
O O16 0.795550 0.361965 0.614204
O O17 0.816167 0.774791 0.483711
#
# Coordination Sequence:
#
# PCOD9468908 Si02
#       7
#    16  16  16  16  16  16  16
#     4  10  19  33  54  76 102 140 178 210 254 313
#     4  10  21  37  54  75 105 132 164 218 271 311
#     4  10  18  30  49  72 104 142 178 212 248 300
#     4  11  21  34  50  72 105 142 179 211 250 305
#     4  10  20  32  48  71 105 145 175 211 250 287
#     4  11  22  34  50  76  99 143 176 208 260 313
#     4  11  21  32  48  75 108 137 177 212 253 303
#
# _framework density 16.065861000000002
#
# number of rings (size 3 to 8) (size 9 to 14) (size 15 to 20)
#    0.000    1.571    4.286    2.143    0.000    0.857 
#    0.000    0.000    0.000    1.714    0.000    8.000 
#    0.000    4.571    0.000    0.000    0.000    0.000 
#
# Total GULP energy -312085.445788 kJ/mol
# GULP energy per Si atom -5572.954389 kJ/mol
# Density = 1.602929 g / cm^3
# Si number density = 16.065861 Si / 1000 Ang^3
#
#
#
# Elastic Constant Matrix: (Units=GPa)
#
#
# Indices 1 2 3 4 5 6 
#
# 1 59.7966 31.2238 34.1545 0.0000 0.0000 0.0000
# 2 31.2238 89.8308 38.2179 0.0000 0.0000 0.0000
# 3 34.1545 38.2179 80.9329 0.0000 0.0000 0.0000
# 4 0.0000 0.0000 0.0000 5.6082 0.0000 0.0000
# 5 0.0000 0.0000 0.0000 0.0000 11.8113 0.0000
# 6 0.0000 0.0000 0.0000 0.0000 0.0000 14.8018
#
#
#
# Elastic Compliance Matrix: (Units=1/GPa)
#
#
# Indices 1 2 3 4 5 6 
#
# 1 0.023692 -0.004982 -0.007646 0.000000 0.000000 0.000000
# 2 -0.004982 0.014978 -0.004971 0.000000 0.000000 0.000000
# 3 -0.007646 -0.004971 0.017930 0.000000 0.000000 0.000000
# 4 0.000000 0.000000 0.000000 0.178309 0.000000 0.000000
# 5 0.000000 0.000000 0.000000 0.000000 0.084665 0.000000
# 6 0.000000 0.000000 0.000000 0.000000 0.000000 0.067559
#
#
# Mechanical properties :
#
#
# Convention : Reuss Voigt Hill
#
# Bulk Modulus (GPa) = 46.72164 48.63921 47.68042
# Shear Modulus (GPa) = 11.64243 14.90855 13.27549
#
# Velocity S-wave (km/s) = 2.69489 3.04956 2.87769
# Velocity P-wave (km/s) = 6.23119 6.53761 6.38624
#
# Compressibility (1/GPa) = 0.02140336
#
# Stress axis : x y z
#
# Youngs Moduli (GPa) = 42.20854 66.76258 55.77375
#
# Poissons Ratio (x) = 0.33262 0.42642
# Poissons Ratio (y) = 0.21029 0.27723
# Poissons Ratio (z) = 0.32271 0.33185
#
# Static dielectric constant tensor:
#      x y z
#    x 1.515500 0.000000 0.000000 
#    y 0.000000 1.554630 0.000000 
#    z 0.000000 0.000000 1.584630 
# 
# From -- ./inp_files/37932.got.cif
#   From: 2010.05.17/outbox.cif.g08.bks.cpg/sg63_19_cif.got.tgz:37932.got - 2010.06.03 15:47:04.
