data_PCOD9468705
_publ_section_title
;
Structure prediction by ZEFSAII (Michael W. Deem and Ramdas Pophale) SiO2 
 PCOD9468705
Probable space group: C M C M
;
_chemical_formula_sum "Si O2"
_cell_formula_units_Z 128
_cell_length_a 14.891153
_cell_length_b 20.350178
_cell_length_c 20.762722
_cell_angle_alpha 90.000000
_cell_angle_beta 90.000000
_cell_angle_gamma 90.000000
_cell_volume 6291.885739
_symmetry_space_group_name_H-M "C M C M"
_symmetry_group_IT_number 63
_symmetry_cell_setting 'orthorhombic'
loop_
_space_group_symop_operation_xyz
x,y,z
-x,-y,1/2+z
x,-y,-z
-x,y,1/2-z
-x,-y,-z
x,y,1/2-z
-x,y,z
x,-y,1/2+z
1/2+x,1/2+y,z
1/2-x,1/2-y,1/2+z
1/2+x,1/2-y,-z
1/2-x,1/2+y,1/2-z
1/2-x,1/2-y,-z
1/2+x,1/2+y,1/2-z
1/2-x,1/2+y,z
1/2+x,1/2-y,1/2+z
loop_
_atom_site_type_symbol
_atom_site_label
_atom_site_fract_x
_atom_site_fract_y
_atom_site_fract_z
Si Si1 0.608354 0.683891 0.553589
Si Si2 0.133335 0.576302 0.681056
Si Si3 0.896330 0.441811 0.458765
Si Si4 0.889404 0.707295 0.958410
Si Si5 0.601869 0.769138 0.320155
Si Si6 0.609578 0.564982 0.039575
Si Si7 0.603268 0.535303 0.178391
Si Si8 0.657819 0.610813 0.678396
O O1 0.500000 0.683663 0.558270
O O2 0.636485 0.751869 0.521043
O O3 0.634240 0.627404 0.502779
O O4 0.644367 0.663473 0.622943
O O5 0.108929 0.546516 0.750000
O O6 0.104138 0.540599 0.616682
O O7 0.096861 0.651087 0.680000
O O8 0.239973 0.586105 0.678247
O O9 0.853684 0.500000 0.500000
O O10 0.857573 0.368089 0.462266
O O11 0.000000 0.435167 0.480446
O O12 0.858635 0.742082 0.891402
O O13 0.000000 0.706953 0.954237
O O14 0.643059 0.750889 0.250000
O O15 0.500000 0.742588 0.320041
O O16 0.500000 0.563716 0.043746
O O17 0.644160 0.564885 0.113156
O O18 0.635741 0.500000 0.000000
O O19 0.643572 0.546814 0.250000
O O20 0.500000 0.557705 0.181790
O O21 0.602945 0.456355 0.167393
O O22 0.636636 0.636047 0.750000
#
# Coordination Sequence:
#
# PCOD9468705 Si02
#       8
#    16  16  16  16  16  16  16  16
#     4  10  18  29  45  65  92 125 159 196 235 273
#     4   9  17  29  45  70  96 115 149 197 233 272
#     4   9  17  32  53  74  98 124 150 187 240 298
#     4   8  15  27  45  70  95 118 149 190 232 275
#     4   8  13  25  46  66  85 112 141 175 225 282
#     4   9  15  25  40  59  82 111 149 190 227 262
#     4   9  16  27  42  59  83 117 156 193 228 268
#     4  10  19  29  42  64  90 120 158 200 234 263
#
# _framework density 20.343661999999998
#
# number of rings (size 3 to 8) (size 9 to 14) (size 15 to 20)
#    0.000    3.000    1.250    1.500    0.000    1.500 
#    2.250    3.125    0.000    4.500    0.000    3.500 
#    0.000    0.000    0.000    0.000    0.000    0.000 
#
# Total GULP energy -356533.828399 kJ/mol
# GULP energy per Si atom -5570.841069 kJ/mol
# Density = 2.029736 g / cm^3
# Si number density = 20.343662 Si / 1000 Ang^3
#
#
#
# Elastic Constant Matrix: (Units=GPa)
#
#
# Indices 1 2 3 4 5 6 
#
# 1 42.2703 1.3859 0.9697 0.0000 0.0000 0.0000
# 2 1.3859 56.2737 55.3931 0.0000 0.0000 0.0000
# 3 0.9697 55.3931 185.4794 0.0000 0.0000 0.0000
# 4 0.0000 0.0000 0.0000 27.5146 0.0000 0.0000
# 5 0.0000 0.0000 0.0000 0.0000 40.9132 0.0000
# 6 0.0000 0.0000 0.0000 0.0000 0.0000 17.2953
#
#
#
# Elastic Compliance Matrix: (Units=1/GPa)
#
#
# Indices 1 2 3 4 5 6 
#
# 1 0.023677 -0.000653 0.000071 0.000000 0.000000 0.000000
# 2 -0.000653 0.025188 -0.007519 0.000000 0.000000 0.000000
# 3 0.000071 -0.007519 0.007637 0.000000 0.000000 0.000000
# 4 0.000000 0.000000 0.000000 0.036344 0.000000 0.000000
# 5 0.000000 0.000000 0.000000 0.000000 0.024442 0.000000
# 6 0.000000 0.000000 0.000000 0.000000 0.000000 0.057819
#
#
# Mechanical properties :
#
#
# Convention : Reuss Voigt Hill
#
# Bulk Modulus (GPa) = 24.81420 44.39120 34.60270
# Shear Modulus (GPa) = 24.42104 32.22958 28.32531
#
# Velocity S-wave (km/s) = 3.46847 3.98459 3.73546
# Velocity P-wave (km/s) = 5.31643 6.56028 5.97083
#
# Compressibility (1/GPa) = 0.04029950
#
# Stress axis : x y z
#
# Youngs Moduli (GPa) = 42.23498 39.70217 130.94936
#
# Poissons Ratio (x) = 0.02594 -0.00934
# Poissons Ratio (y) = 0.02759 0.98458
# Poissons Ratio (z) = -0.00301 0.29851
#
# Static dielectric constant tensor:
#      x y z
#    x 1.776250 0.000000 0.000000 
#    y 0.000000 1.719850 0.000000 
#    z 0.000000 0.000000 1.783070 
# 
# From -- ./inp_files/56044.got.cif
#   From: 2010.05.17/outbox.cif.g08.bks.cpg/sg63_29_cif.got.tgz:56044.got - 2010.06.03 15:47:04.
