data_PCOD9468840
_publ_section_title
;
Structure prediction by ZEFSAII (Michael W. Deem and Ramdas Pophale) SiO2 
 PCOD9468840
Probable space group: C M C M
;
_chemical_formula_sum "Si O2"
_cell_formula_units_Z 128
_cell_length_a 26.207920
_cell_length_b 17.726597
_cell_length_c 17.655402
_cell_angle_alpha 90.000000
_cell_angle_beta 90.000000
_cell_angle_gamma 90.000000
_cell_volume 8202.297862
_symmetry_space_group_name_H-M "C M C M"
_symmetry_group_IT_number 63
_symmetry_cell_setting 'orthorhombic'
loop_
_space_group_symop_operation_xyz
x,y,z
-x,-y,1/2+z
x,-y,-z
-x,y,1/2-z
-x,-y,-z
x,y,1/2-z
-x,y,z
x,-y,1/2+z
1/2+x,1/2+y,z
1/2-x,1/2-y,1/2+z
1/2+x,1/2-y,-z
1/2-x,1/2+y,1/2-z
1/2-x,1/2-y,-z
1/2+x,1/2+y,1/2-z
1/2-x,1/2+y,z
1/2+x,1/2-y,1/2+z
loop_
_atom_site_type_symbol
_atom_site_label
_atom_site_fract_x
_atom_site_fract_y
_atom_site_fract_z
Si Si1 0.296491 0.087344 0.479779
Si Si2 0.355029 0.789132 0.061695
Si Si3 0.197214 0.827737 0.449312
Si Si4 0.844754 0.044907 0.841889
Si Si5 0.942624 0.948997 0.658484
Si Si6 0.439166 0.726420 0.338413
Si Si7 0.231200 0.249309 0.334981
Si Si8 0.258312 0.578140 0.165355
O O1 0.342525 0.137620 0.511607
O O2 0.243669 0.124936 0.512179
O O3 0.288902 0.086132 0.390111
O O4 0.300136 0.000000 0.500000
O O5 0.409389 0.775200 0.099610
O O6 0.316920 0.793979 0.133485
O O7 0.335612 0.717664 0.011252
O O8 0.166287 0.883093 0.393984
O O9 0.224588 0.766484 0.395093
O O10 0.844806 0.059223 0.750000
O O11 0.897968 0.005516 0.864460
O O12 0.799452 0.984613 0.857333
O O13 0.944607 0.953104 0.750000
O O14 0.929449 0.861850 0.642361
O O15 0.000000 0.965571 0.630071
O O16 0.423171 0.738584 0.250000
O O17 0.500000 0.737617 0.341160
O O18 0.245922 0.271496 0.250000
O O19 0.216884 0.161215 0.334058
O O20 0.241699 0.559992 0.250000
#
# Coordination Sequence:
#
# PCOD9468840 Si02
#       8
#    16  16  16  16  16  16  16  16
#     4  11  20  34  47  67 100 131 156 195 243 291
#     4  11  20  32  48  72  96 125 162 197 247 291
#     4  11  20  30  44  66 101 130 162 198 234 283
#     4  10  19  29  45  68  92 129 171 203 238 279
#     4   8  15  29  48  69  93 121 160 204 238 273
#     4   9  18  34  55  76  96 121 156 202 251 292
#     4  10  18  30  46  65  92 126 163 198 232 277
#     4  10  18  30  46  65  92 127 165 194 229 288
#
# _framework density 15.605383
#
# number of rings (size 3 to 8) (size 9 to 14) (size 15 to 20)
#    0.000    2.000    3.750    3.000    0.000    2.000 
#    0.000    1.250    0.000    1.875    0.000    0.000 
#    0.000    1.500    0.000    0.250    0.000    0.000 
#
# Total GULP energy -356483.386931 kJ/mol
# GULP energy per Si atom -5570.052921 kJ/mol
# Density = 1.556986 g / cm^3
# Si number density = 15.605383 Si / 1000 Ang^3
#
#
#
# Elastic Constant Matrix: (Units=GPa)
#
#
# Indices 1 2 3 4 5 6 
#
# 1 53.2359 31.1479 32.0143 0.0000 0.0000 0.0000
# 2 31.1479 81.9780 29.9918 0.0000 0.0000 0.0000
# 3 32.0143 29.9918 66.2883 0.0000 0.0000 0.0000
# 4 0.0000 0.0000 0.0000 21.3364 0.0000 0.0000
# 5 0.0000 0.0000 0.0000 0.0000 22.0766 0.0000
# 6 0.0000 0.0000 0.0000 0.0000 0.0000 19.8746
#
#
#
# Elastic Compliance Matrix: (Units=1/GPa)
#
#
# Indices 1 2 3 4 5 6 
#
# 1 0.029660 -0.007225 -0.011056 0.000000 0.000000 0.000000
# 2 -0.007225 0.016378 -0.003921 0.000000 0.000000 0.000000
# 3 -0.011056 -0.003921 0.022199 0.000000 0.000000 0.000000
# 4 0.000000 0.000000 0.000000 0.046868 0.000000 0.000000
# 5 0.000000 0.000000 0.000000 0.000000 0.045297 0.000000
# 6 0.000000 0.000000 0.000000 0.000000 0.000000 0.050316
#
#
# Mechanical properties :
#
#
# Convention : Reuss Voigt Hill
#
# Bulk Modulus (GPa) = 41.95624 43.09003 42.52313
# Shear Modulus (GPa) = 19.00671 19.88071 19.44371
#
# Velocity S-wave (km/s) = 3.49371 3.57314 3.53365
# Velocity P-wave (km/s) = 6.57410 6.68545 6.63001
#
# Compressibility (1/GPa) = 0.02383436
#
# Stress axis : x y z
#
# Youngs Moduli (GPa) = 33.71551 61.05783 45.04711
#
# Poissons Ratio (x) = 0.44112 0.49802
# Poissons Ratio (y) = 0.24358 0.17663
# Poissons Ratio (z) = 0.37275 0.23940
#
# Static dielectric constant tensor:
#      x y z
#    x 1.518440 0.000000 0.000000 
#    y 0.000000 1.545370 0.000000 
#    z 0.000000 0.000000 1.554130 
# 
# From -- ./inp_files/48437.got.cif
#   From: 2010.05.17/outbox.cif.g08.bks.cpg/sg63_25_cif.got.tgz:48437.got - 2010.06.03 15:47:04.
