data_PCOD9468670
_publ_section_title
;
Structure prediction by ZEFSAII (Michael W. Deem and Ramdas Pophale) SiO2 
 PCOD9468670
Probable space group: C M C M
;
_chemical_formula_sum "Si O2"
_cell_formula_units_Z 104
_cell_length_a 31.323606
_cell_length_b 21.979328
_cell_length_c 8.761072
_cell_angle_alpha 90.000000
_cell_angle_beta 90.000000
_cell_angle_gamma 90.000000
_cell_volume 6031.751101
_symmetry_space_group_name_H-M "C M C M"
_symmetry_group_IT_number 63
_symmetry_cell_setting 'orthorhombic'
loop_
_space_group_symop_operation_xyz
x,y,z
-x,-y,1/2+z
x,-y,-z
-x,y,1/2-z
-x,-y,-z
x,y,1/2-z
-x,y,z
x,-y,1/2+z
1/2+x,1/2+y,z
1/2-x,1/2-y,1/2+z
1/2+x,1/2-y,-z
1/2-x,1/2+y,1/2-z
1/2-x,1/2-y,-z
1/2+x,1/2+y,1/2-z
1/2-x,1/2+y,z
1/2+x,1/2-y,1/2+z
loop_
_atom_site_type_symbol
_atom_site_label
_atom_site_fract_x
_atom_site_fract_y
_atom_site_fract_z
Si Si1 0.154094 0.195820 0.566783
Si Si2 0.066747 0.157578 0.431164
Si Si3 0.000000 0.736762 0.930590
Si Si4 0.159700 0.667708 0.565391
Si Si5 0.000000 0.933479 0.430622
Si Si6 0.747037 0.682181 0.566673
Si Si7 0.000000 0.605185 0.069354
Si Si8 0.409302 0.065088 0.566213
O O1 0.150851 0.196512 0.750000
O O2 0.114011 0.162987 0.493486
O O3 0.153217 0.265703 0.507353
O O4 0.199045 0.163717 0.522174
O O5 0.065828 0.148300 0.250000
O O6 0.040956 0.220567 0.460105
O O7 0.040570 0.104454 0.511151
O O8 0.000000 0.719993 0.750000
O O9 0.000000 0.676897 0.031035
O O10 0.157309 0.674176 0.750000
O O11 0.208696 0.649139 0.523698
O O12 0.123843 0.618700 0.520855
O O13 0.000000 0.936356 0.250000
O O14 0.000000 0.000000 0.500000
O O15 0.747235 0.685628 0.750000
O O16 0.750000 0.750000 0.500000
O O17 0.000000 0.593960 0.250000
O O18 0.043282 0.578753 0.996341
O O19 0.410604 0.062914 0.750000
O O20 0.395417 0.000000 0.500000
#
# Coordination Sequence:
#
# PCOD9468670 Si02
#       8
#    16  16   8  16   8  16   8  16
#     4  10  18  28  48  79 109 134 164 207 253 299
#     4  10  20  34  52  76 107 140 172 205 245 295
#     4   9  19  34  50  71 101 135 167 202 247 295
#     4   9  18  33  52  72  98 134 168 204 255 310
#     4  11  22  38  58  78 102 133 171 210 249 296
#     4   8  15  28  46  71 101 130 160 194 241 297
#     4  12  24  36  52  73  99 128 161 204 252 301
#     4  11  23  38  54  70  92 125 167 210 251 297
#
# _framework density 17.242090999999999
#
# number of rings (size 3 to 8) (size 9 to 14) (size 15 to 20)
#    0.000    2.154    0.000    4.385    0.000    7.385 
#    0.000    0.000    0.000    0.923    0.000    2.154 
#    0.000    0.000    0.000    0.000    0.000    0.000 
#
# Total GULP energy -289984.068039 kJ/mol
# GULP energy per Si atom -5576.616693 kJ/mol
# Density = 1.720285 g / cm^3
# Si number density = 17.242091 Si / 1000 Ang^3
#
#
#
# Elastic Constant Matrix: (Units=GPa)
#
#
# Indices 1 2 3 4 5 6 
#
# 1 160.6872 45.2320 42.7160 0.0000 0.0000 0.0000
# 2 45.2320 72.6402 34.9763 0.0000 0.0000 0.0000
# 3 42.7160 34.9763 56.4078 0.0000 0.0000 0.0000
# 4 0.0000 0.0000 0.0000 25.0142 0.0000 0.0000
# 5 0.0000 0.0000 0.0000 0.0000 22.6168 0.0000
# 6 0.0000 0.0000 0.0000 0.0000 0.0000 -1.1591
#
#
#
# Elastic Compliance Matrix: (Units=1/GPa)
#
#
# Indices 1 2 3 4 5 6 
#
# 1 0.008234 -0.003029 -0.004357 0.000000 0.000000 0.000000
# 2 -0.003029 0.020741 -0.010566 0.000000 0.000000 0.000000
# 3 -0.004357 -0.010566 0.027579 0.000000 0.000000 0.000000
# 4 0.000000 0.000000 0.000000 0.039977 0.000000 0.000000
# 5 0.000000 0.000000 0.000000 0.000000 0.044215 0.000000
# 6 0.000000 0.000000 0.000000 0.000000 0.000000 -0.862735
#
#
# Mechanical properties :
#
#
# Convention : Reuss Voigt Hill
#
# Bulk Modulus (GPa) = 48.42991 59.50931 53.96961
# Shear Modulus (GPa) = -7.36160 20.41510 6.52675
#
# Velocity S-wave (km/s) = -2.06853 3.44470 1.94771
# Velocity P-wave (km/s) = 4.73752 7.10001 6.03549
#
# Compressibility (1/GPa) = 0.02064840
#
# Stress axis : x y z
#
# Youngs Moduli (GPa) = 121.44312 48.21474 36.25894
#
# Poissons Ratio (x) = 0.14606 0.15799
# Poissons Ratio (y) = 0.36790 0.38312
# Poissons Ratio (z) = 0.52915 0.50945
#
# Static dielectric constant tensor:
#      x y z
#    x 1.629940 0.000000 0.000000 
#    y 0.000000 1.542810 0.000000 
#    z 0.000000 0.000000 1.572110 
# 
# From -- ./inp_files/14535.got.cif
#   From: 2010.05.17/outbox.cif.g08.bks.cpg/sg63_8_cif.got.tgz:14535.got - 2010.06.03 15:47:04.
