data_PCOD9468070
_publ_section_title
;
Structure prediction by ZEFSAII (Michael W. Deem and Ramdas Pophale) SiO2 
 PCOD9468070
Probable space group: P N M A
;
_chemical_formula_sum "Si O2"
_cell_formula_units_Z 48
_cell_length_a 24.000000
_cell_length_b 9.000000
_cell_length_c 12.000000
_cell_angle_alpha 90.000000
_cell_angle_beta 90.000000
_cell_angle_gamma 90.000000
_cell_volume 2592.000000
_symmetry_space_group_name_H-M "P N M A"
_symmetry_group_IT_number 62
_symmetry_cell_setting 'orthorhombic'
loop_
_space_group_symop_operation_xyz
x,y,z
1/2-x,-y,1/2+z
1/2+x,1/2-y,1/2-z
-x,1/2+y,-z
-x,-y,-z
1/2+x,y,1/2-z
1/2-x,1/2+y,1/2+z
x,1/2-y,z
loop_
_atom_site_type_symbol
_atom_site_label
_atom_site_fract_x
_atom_site_fract_y
_atom_site_fract_z
Si Si1 0.373701 0.930633 0.507415
Si Si2 0.074465 0.071952 0.236754
Si Si3 0.349743 0.427590 0.915453
Si Si4 0.042852 0.425542 0.815634
Si Si5 0.852330 0.574543 0.347212
Si Si6 0.273756 0.569431 0.353648
O O1 0.372885 0.750000 0.503887
O O2 0.386510 0.975812 0.632723
O O3 0.425236 0.975470 0.427963
O O4 0.315795 0.981288 0.451975
O O5 0.074618 0.250000 0.243753
O O6 0.100658 0.001604 0.346594
O O7 0.012476 0.014935 0.211718
O O8 0.352996 0.250000 0.905969
O O9 0.289497 0.479437 0.868605
O O10 0.352323 0.478124 0.042776
O O11 0.029438 0.250000 0.826227
O O12 0.089803 0.440130 0.720128
O O13 0.845337 0.750000 0.373477
O O14 0.803244 0.528486 0.262196
O O15 0.273755 0.750000 0.357158
#
# Coordination Sequence:
#
# PCOD9468070 Si02
#       6
#     8   8   8   8   8   8
#     4   8  16  33  57  83 108 142 179 221 275 324
#     4  11  22  34  54  83 115 145 180 224 271 324
#     4  11  23  36  54  81 112 147 183 223 267 320
#     4   9  18  36  60  81 107 142 182 226 273 323
#     4   9  19  38  60  79 104 142 183 223 270 324
#     4   8  17  35  57  79 107 141 178 220 273 325
#
# _framework density 18.518519000000001
#
# number of rings (size 3 to 8) (size 9 to 14) (size 15 to 20)
#    0.000    2.667    0.000    3.500    2.333    1.333 
#    0.000    1.667    0.000    4.000    0.000    0.000 
#    0.000    0.000    0.000    0.000    0.000    0.000 
#
# Total GULP energy -267780.711360 kJ/mol
# GULP energy per Si atom -5578.764820 kJ/mol
# Density = 1.847637 g / cm^3
# Si number density = 18.518519 Si / 1000 Ang^3
#
#
#
# Elastic Constant Matrix: (Units=GPa)
#
#
# Indices 1 2 3 4 5 6 
#
# 1 12.2204 7.4706 -9.0715 0.0000 0.0000 0.0000
# 2 7.4706 33.3205 16.2038 0.0000 0.0000 0.0000
# 3 -9.0715 16.2038 59.3432 0.0000 0.0000 0.0000
# 4 0.0000 0.0000 0.0000 20.0992 0.0000 0.0000
# 5 0.0000 0.0000 0.0000 0.0000 5.6263 0.0000
# 6 0.0000 0.0000 0.0000 0.0000 0.0000 19.5394
#
#
#
# Elastic Compliance Matrix: (Units=1/GPa)
#
#
# Indices 1 2 3 4 5 6 
#
# 1 0.134969 -0.046464 0.033319 0.000000 0.000000 0.000000
# 2 -0.046464 0.050602 -0.020920 0.000000 0.000000 0.000000
# 3 0.033319 -0.020920 0.027657 0.000000 0.000000 0.000000
# 4 0.000000 0.000000 0.000000 0.049753 0.000000 0.000000
# 5 0.000000 0.000000 0.000000 0.000000 0.177737 0.000000
# 6 0.000000 0.000000 0.000000 0.000000 0.000000 0.051179
#
#
# Mechanical properties :
#
#
# Convention : Reuss Voigt Hill
#
# Bulk Modulus (GPa) = 6.89185 14.89886 10.89536
# Shear Modulus (GPa) = 8.21839 15.07172 11.64505
#
# Velocity S-wave (km/s) = 2.10892 2.85594 2.51037
# Velocity P-wave (km/s) = 3.10802 4.35179 3.78139
#
# Compressibility (1/GPa) = 0.14509888
#
# Stress axis : x y z
#
# Youngs Moduli (GPa) = 7.40912 19.76195 36.15765
#
# Poissons Ratio (x) = 0.91822 -1.20474
# Poissons Ratio (y) = 0.34426 0.75641
# Poissons Ratio (z) = -0.24687 0.41342
#
# Static dielectric constant tensor:
#      x y z
#    x 1.621760 0.000000 0.000000 
#    y 0.000000 1.606480 0.000000 
#    z 0.000000 0.000000 1.636520 
# 
# From -- ./inp_files/14734.got.cif
#   From: 2010.05.17/outbox.ucp.g08.bks.cvg/sg62_8_cif.got.tgz:14734.got - 2010.06.11 16:29:25.
