data_PCOD9468872
_publ_section_title
;
Structure prediction by ZEFSAII (Michael W. Deem and Ramdas Pophale) SiO2 
 PCOD9468872
Probable space group: C M C M
;
_chemical_formula_sum "Si O2"
_cell_formula_units_Z 72
_cell_length_a 16.081569
_cell_length_b 29.630270
_cell_length_c 8.291717
_cell_angle_alpha 90.000000
_cell_angle_beta 90.000000
_cell_angle_gamma 90.000000
_cell_volume 3951.013362
_symmetry_space_group_name_H-M "C M C M"
_symmetry_group_IT_number 63
_symmetry_cell_setting 'orthorhombic'
loop_
_space_group_symop_operation_xyz
x,y,z
-x,-y,1/2+z
x,-y,-z
-x,y,1/2-z
-x,-y,-z
x,y,1/2-z
-x,y,z
x,-y,1/2+z
1/2+x,1/2+y,z
1/2-x,1/2-y,1/2+z
1/2+x,1/2-y,-z
1/2-x,1/2+y,1/2-z
1/2-x,1/2-y,-z
1/2+x,1/2+y,1/2-z
1/2-x,1/2+y,z
1/2+x,1/2-y,1/2+z
loop_
_atom_site_type_symbol
_atom_site_label
_atom_site_fract_x
_atom_site_fract_y
_atom_site_fract_z
Si Si1 0.905965 0.194556 0.444995
Si Si2 0.678801 0.551352 0.942265
Si Si3 0.754523 0.640197 0.943971
Si Si4 0.093093 0.299657 0.053393
Si Si5 0.000000 0.051909 0.441682
O O1 0.903402 0.191690 0.250000
O O2 0.830370 0.166107 0.514128
O O3 0.894337 0.247221 0.491181
O O4 0.000000 0.180847 0.494499
O O5 0.679564 0.549830 0.750000
O O6 0.744520 0.588538 0.001322
O O7 0.690353 0.500000 0.000000
O O8 0.587733 0.569377 0.994982
O O9 0.761634 0.638724 0.750000
O O10 0.833573 0.668113 0.006424
O O11 0.094145 0.300508 0.250000
O O12 0.000000 0.313188 0.002449
O O13 0.000000 0.054305 0.250000
O O14 0.000000 0.000000 0.500000
#
# Coordination Sequence:
#
# PCOD9468872 Si02
#       5
#    16  16  16  16   8
#     4   9  18  31  48  72 101 131 159 188 231 289
#     4  10  20  33  47  67  95 125 160 197 238 282
#     4  10  20  31  49  74  96 124 162 202 239 278
#     4   8  15  31  52  72  96 125 159 198 238 284
#     4  10  18  30  48  66  88 122 158 190 232 280
#
# _framework density 18.223172000000002
#
# number of rings (size 3 to 8) (size 9 to 14) (size 15 to 20)
#    0.000    2.667    0.000    5.000    1.556    2.222 
#    0.000    0.000    0.000    2.667    0.000    0.000 
#    0.000    0.000    0.000    0.000    0.000    0.889 
#
# Total GULP energy -200711.057353 kJ/mol
# GULP energy per Si atom -5575.307149 kJ/mol
# Density = 1.818170 g / cm^3
# Si number density = 18.223172 Si / 1000 Ang^3
#
#
#
# Elastic Constant Matrix: (Units=GPa)
#
#
# Indices 1 2 3 4 5 6 
#
# 1 108.1725 80.4558 2.1346 0.0000 0.0000 0.0000
# 2 80.4558 106.2137 10.0380 0.0000 0.0000 0.0000
# 3 2.1346 10.0380 15.1378 0.0000 0.0000 0.0000
# 4 0.0000 0.0000 0.0000 14.2809 0.0000 0.0000
# 5 0.0000 0.0000 0.0000 0.0000 15.0299 0.0000
# 6 0.0000 0.0000 0.0000 0.0000 0.0000 31.7510
#
#
#
# Elastic Compliance Matrix: (Units=1/GPa)
#
#
# Indices 1 2 3 4 5 6 
#
# 1 0.022163 -0.017596 0.008543 0.000000 0.000000 0.000000
# 2 -0.017596 0.024014 -0.013443 0.000000 0.000000 0.000000
# 3 0.008543 -0.013443 0.073769 0.000000 0.000000 0.000000
# 4 0.000000 0.000000 0.000000 0.070023 0.000000 0.000000
# 5 0.000000 0.000000 0.000000 0.000000 0.066534 0.000000
# 6 0.000000 0.000000 0.000000 0.000000 0.000000 0.031495
#
#
# Mechanical properties :
#
#
# Convention : Reuss Voigt Hill
#
# Bulk Modulus (GPa) = 13.34139 46.08677 29.71408
# Shear Modulus (GPa) = 13.96744 21.33873 17.65308
#
# Velocity S-wave (km/s) = 2.77152 3.42565 3.11580
# Velocity P-wave (km/s) = 4.19270 6.40249 5.41159
#
# Compressibility (1/GPa) = 0.07495471
#
# Stress axis : x y z
#
# Youngs Moduli (GPa) = 45.11993 41.64236 13.55580
#
# Poissons Ratio (x) = 0.73273 -0.11580
# Poissons Ratio (y) = 0.79392 0.18223
# Poissons Ratio (z) = -0.38544 0.55978
#
# Static dielectric constant tensor:
#      x y z
#    x 1.634130 0.000000 0.000000 
#    y 0.000000 1.654950 0.000000 
#    z 0.000000 0.000000 1.631360 
# 
# From -- ./inp_files/4925.got.cif
#   From: 2010.05.17/outbox.cif.g08.bks.cpg/sg63_3_cif.got.tgz:4925.got - 2010.06.03 15:47:04.
