data_PCOD9468677
_publ_section_title
;
Structure prediction by ZEFSAII (Michael W. Deem and Ramdas Pophale) SiO2 
 PCOD9468677
Probable space group: C M C M
;
_chemical_formula_sum "Si O2"
_cell_formula_units_Z 112
_cell_length_a 23.289877
_cell_length_b 11.993995
_cell_length_c 21.881893
_cell_angle_alpha 90.000000
_cell_angle_beta 90.000000
_cell_angle_gamma 90.000000
_cell_volume 6112.458850
_symmetry_space_group_name_H-M "C M C M"
_symmetry_group_IT_number 63
_symmetry_cell_setting 'orthorhombic'
loop_
_space_group_symop_operation_xyz
x,y,z
-x,-y,1/2+z
x,-y,-z
-x,y,1/2-z
-x,-y,-z
x,y,1/2-z
-x,y,z
x,-y,1/2+z
1/2+x,1/2+y,z
1/2-x,1/2-y,1/2+z
1/2+x,1/2-y,-z
1/2-x,1/2+y,1/2-z
1/2-x,1/2-y,-z
1/2+x,1/2+y,1/2-z
1/2-x,1/2+y,z
1/2+x,1/2-y,1/2+z
loop_
_atom_site_type_symbol
_atom_site_label
_atom_site_fract_x
_atom_site_fract_y
_atom_site_fract_z
Si Si1 0.124443 0.167918 0.121144
Si Si2 0.642198 0.685459 0.626961
Si Si3 0.568229 0.634157 0.505889
Si Si4 0.938362 0.036964 0.818579
Si Si5 0.433386 0.885702 0.323578
Si Si6 0.284027 0.486680 0.676390
Si Si7 0.654240 0.077162 0.322055
O O1 0.102274 0.278801 0.153879
O O2 0.086983 0.062365 0.142738
O O3 0.186639 0.122552 0.144320
O O4 0.106783 0.179711 0.050445
O O5 0.604697 0.665600 0.566156
O O6 0.598427 0.647390 0.679634
O O7 0.692250 0.594491 0.639480
O O8 0.658455 0.811777 0.637872
O O9 0.567818 0.500000 0.500000
O O10 0.500000 0.669123 0.505108
O O11 0.941589 0.994818 0.750000
O O12 0.000000 0.064731 0.843898
O O13 0.434361 0.882462 0.250000
O O14 0.500000 0.883329 0.344766
O O15 0.397958 0.996603 0.340981
O O16 0.299618 0.489433 0.750000
O O17 0.215637 0.483413 0.673000
O O18 0.647046 0.105472 0.250000
#
# Coordination Sequence:
#
# PCOD9468677 Si02
#       7
#    16  16  16  16  16  16  16
#     4  11  20  35  58  85 117 155 199 247 290 346
#     4  11  21  37  58  82 116 150 197 241 290 354
#     4  11  21  36  59  87 119 159 200 244 296 348
#     4  10  18  28  50  84 115 142 180 238 300 348
#     4  10  21  37  59  87 120 157 198 247 305 365
#     4  10  21  36  60  88 116 150 194 249 306 364
#     4  10  23  40  60  87 119 157 194 240 306 372
#
# _framework density 18.323232000000001
#
# number of rings (size 3 to 8) (size 9 to 14) (size 15 to 20)
#    0.000    1.571    2.857    5.143    2.000    2.286 
#    0.000    2.857    3.143    1.714    0.000    0.000 
#    0.000    0.000    0.000    0.000    0.000    0.000 
#
# Total GULP energy -311779.747633 kJ/mol
# GULP energy per Si atom -5567.495493 kJ/mol
# Density = 1.828153 g / cm^3
# Si number density = 18.323232 Si / 1000 Ang^3
#
#
#
# Elastic Constant Matrix: (Units=GPa)
#
#
# Indices 1 2 3 4 5 6 
#
# 1 61.6881 28.1303 10.3754 0.0000 0.0000 0.0000
# 2 28.1303 79.9355 12.9255 0.0000 0.0000 0.0000
# 3 10.3754 12.9255 82.1169 0.0000 0.0000 0.0000
# 4 0.0000 0.0000 0.0000 17.6512 0.0000 0.0000
# 5 0.0000 0.0000 0.0000 0.0000 52.5248 0.0000
# 6 0.0000 0.0000 0.0000 0.0000 0.0000 13.5931
#
#
#
# Elastic Compliance Matrix: (Units=1/GPa)
#
#
# Indices 1 2 3 4 5 6 
#
# 1 0.019469 -0.006622 -0.001418 0.000000 0.000000 0.000000
# 2 -0.006622 0.015089 -0.001538 0.000000 0.000000 0.000000
# 3 -0.001418 -0.001538 0.012599 0.000000 0.000000 0.000000
# 4 0.000000 0.000000 0.000000 0.056653 0.000000 0.000000
# 5 0.000000 0.000000 0.000000 0.000000 0.019039 0.000000
# 6 0.000000 0.000000 0.000000 0.000000 0.000000 0.073567
#
#
# Mechanical properties :
#
#
# Convention : Reuss Voigt Hill
#
# Bulk Modulus (GPa) = 35.71305 36.28921 36.00113
# Shear Modulus (GPa) = 22.23158 28.24111 25.23634
#
# Velocity S-wave (km/s) = 3.48702 3.93016 3.71521
# Velocity P-wave (km/s) = 5.97874 6.35948 6.17205
#
# Compressibility (1/GPa) = 0.02800097
#
# Stress axis : x y z
#
# Youngs Moduli (GPa) = 51.36446 66.27245 79.37126
#
# Poissons Ratio (x) = 0.43886 0.11251
# Poissons Ratio (y) = 0.34014 0.12211
# Poissons Ratio (z) = 0.07281 0.10195
#
# Static dielectric constant tensor:
#      x y z
#    x 1.675040 0.000000 0.000000 
#    y 0.000000 1.609480 0.000000 
#    z 0.000000 0.000000 1.663360 
# 
# From -- ./inp_files/58321.got.cif
#   From: 2010.05.17/outbox.cif.g08.bks.cpg/sg63_30_cif.got.tgz:58321.got - 2010.06.03 15:47:04.
