data_PCOD9468232
_publ_section_title
;
Structure prediction by ZEFSAII (Michael W. Deem and Ramdas Pophale) SiO2 
 PCOD9468232
Probable space group: C M C M
;
_chemical_formula_sum "Si O2"
_cell_formula_units_Z 96
_cell_length_a 7.439443
_cell_length_b 24.155430
_cell_length_c 26.617797
_cell_angle_alpha 90.000000
_cell_angle_beta 90.000000
_cell_angle_gamma 90.000000
_cell_volume 4783.296500
_symmetry_space_group_name_H-M "C M C M"
_symmetry_group_IT_number 63
_symmetry_cell_setting 'orthorhombic'
loop_
_space_group_symop_operation_xyz
x,y,z
-x,-y,1/2+z
x,-y,-z
-x,y,1/2-z
-x,-y,-z
x,y,1/2-z
-x,y,z
x,-y,1/2+z
1/2+x,1/2+y,z
1/2-x,1/2-y,1/2+z
1/2+x,1/2-y,-z
1/2-x,1/2+y,1/2-z
1/2-x,1/2-y,-z
1/2+x,1/2+y,1/2-z
1/2-x,1/2+y,z
1/2+x,1/2-y,1/2+z
loop_
_atom_site_type_symbol
_atom_site_label
_atom_site_fract_x
_atom_site_fract_y
_atom_site_fract_z
Si Si1 0.720099 0.566053 0.250000
Si Si2 0.206851 0.737653 0.191039
Si Si3 0.219252 0.859463 0.340157
Si Si4 0.714705 0.312817 0.057722
Si Si5 0.699749 0.375385 0.649129
Si Si6 0.716697 0.316689 0.555647
Si Si7 0.219199 0.062443 0.750000
O O1 0.500000 0.572248 0.250000
O O2 0.782663 0.593735 0.302551
O O3 0.768127 0.501688 0.250000
O O4 0.206244 0.727866 0.250000
O O5 0.270112 0.799608 0.181867
O O6 0.313549 0.688131 0.166934
O O7 0.000000 0.734122 0.172795
O O8 0.279319 0.853629 0.398084
O O9 0.279334 0.905983 0.300788
O O10 0.000000 0.862355 0.340428
O O11 0.500000 0.319163 0.055713
O O12 0.746602 0.247696 0.070039
O O13 0.784308 0.322999 0.001483
O O14 0.500000 0.399872 0.641893
O O15 0.784940 0.363487 0.594500
O O16 0.500000 0.322006 0.555467
O O17 0.000000 0.064836 0.750000
#
# Coordination Sequence:
#
# PCOD9468232 Si02
#       7
#     8  16  16  16  16  16   8
#     4   9  18  29  41  57  81 113 144 173 206 246
#     4  10  17  25  40  65  88 106 131 169 213 253
#     4   9  15  24  40  61  85 106 133 173 209 243
#     4   9  16  26  40  60  86 112 136 165 204 248
#     4  10  18  28  41  60  87 114 139 166 201 251
#     4   9  17  26  38  59  88 116 136 160 200 251
#     4   9  16  27  42  61  81 107 144 179 210 242
#
# _framework density 20.069841
#
# number of rings (size 3 to 8) (size 9 to 14) (size 15 to 20)
#    0.000    2.667    3.333    0.000    0.000    0.000 
#    0.000    0.000    0.000    1.000    0.000   11.667 
#    0.000    0.000    0.000    9.833    0.000   10.333 
#
# Total GULP energy -267324.198248 kJ/mol
# GULP energy per Si atom -5569.254130 kJ/mol
# Density = 2.002416 g / cm^3
# Si number density = 20.069841 Si / 1000 Ang^3
#
#
#
# Elastic Constant Matrix: (Units=GPa)
#
#
# Indices 1 2 3 4 5 6 
#
# 1 61.3139 -0.0409 5.0855 0.0000 0.0000 0.0000
# 2 -0.0409 90.0351 71.6199 0.0000 0.0000 0.0000
# 3 5.0855 71.6199 185.6445 0.0000 0.0000 0.0000
# 4 0.0000 0.0000 0.0000 15.2233 0.0000 0.0000
# 5 0.0000 0.0000 0.0000 0.0000 -0.7058 0.0000
# 6 0.0000 0.0000 0.0000 0.0000 0.0000 14.4991
#
#
#
# Elastic Compliance Matrix: (Units=1/GPa)
#
#
# Indices 1 2 3 4 5 6 
#
# 1 0.016364 0.000525 -0.000651 0.000000 0.000000 0.000000
# 2 0.000525 0.016041 -0.006203 0.000000 0.000000 0.000000
# 3 -0.000651 -0.006203 0.007798 0.000000 0.000000 0.000000
# 4 0.000000 0.000000 0.000000 0.065689 0.000000 0.000000
# 5 0.000000 0.000000 0.000000 0.000000 -1.416734 0.000000
# 6 0.000000 0.000000 0.000000 0.000000 0.000000 0.068970
#
#
# Mechanical properties :
#
#
# Convention : Reuss Voigt Hill
#
# Bulk Modulus (GPa) = 36.30381 54.48029 45.39205
# Shear Modulus (GPa) = -4.09825 23.15858 9.53017
#
# Velocity S-wave (km/s) = -1.43053 3.40059 2.18147
# Velocity P-wave (km/s) = 3.92421 6.52863 5.38621
#
# Compressibility (1/GPa) = 0.02754531
#
# Stress axis : x y z
#
# Youngs Moduli (GPa) = 61.11036 62.33924 128.24608
#
# Poissons Ratio (x) = -0.03274 0.08347
# Poissons Ratio (y) = -0.03209 0.79550
# Poissons Ratio (z) = 0.03978 0.38669
#
# Static dielectric constant tensor:
#      x y z
#    x 1.862420 0.000000 0.000000 
#    y 0.000000 1.647330 0.000000 
#    z 0.000000 0.000000 1.811120 
# 
# From -- ./inp_files/68562.got.cif
#   From: 2010.05.17/outbox.cif.g08.bks.cpg/sg63_35_cif.got.tgz:68562.got - 2010.06.03 15:47:04.
