data_PCOD9468448
_publ_section_title
;
Structure prediction by ZEFSAII (Michael W. Deem and Ramdas Pophale) SiO2 
 PCOD9468448
Probable space group: C M C M
;
_chemical_formula_sum "Si O2"
_cell_formula_units_Z 60
_cell_length_a 16.120004
_cell_length_b 10.089144
_cell_length_c 19.022298
_cell_angle_alpha 90.000000
_cell_angle_beta 90.000000
_cell_angle_gamma 90.000000
_cell_volume 3093.730272
_symmetry_space_group_name_H-M "C M C M"
_symmetry_group_IT_number 63
_symmetry_cell_setting 'orthorhombic'
loop_
_space_group_symop_operation_xyz
x,y,z
-x,-y,1/2+z
x,-y,-z
-x,y,1/2-z
-x,-y,-z
x,y,1/2-z
-x,y,z
x,-y,1/2+z
1/2+x,1/2+y,z
1/2-x,1/2-y,1/2+z
1/2+x,1/2-y,-z
1/2-x,1/2+y,1/2-z
1/2-x,1/2-y,-z
1/2+x,1/2+y,1/2-z
1/2-x,1/2+y,z
1/2+x,1/2-y,1/2+z
loop_
_atom_site_type_symbol
_atom_site_label
_atom_site_fract_x
_atom_site_fract_y
_atom_site_fract_z
Si Si1 0.226553 0.405652 0.879653
Si Si2 0.843998 0.671609 0.852505
Si Si3 0.000000 0.291754 0.250000
Si Si4 0.648757 0.500000 0.000000
Si Si5 0.905487 0.292540 0.510998
O O1 0.190721 0.526258 0.834542
O O2 0.274791 0.285355 0.842683
O O3 0.152730 0.346698 0.927373
O O4 0.292967 0.470139 0.933359
O O5 0.926670 0.704998 0.810635
O O6 0.866026 0.667974 0.935971
O O7 0.597819 0.632949 0.986726
O O8 0.000000 0.338816 0.516885
#
# Coordination Sequence:
#
# PCOD9468448 Si02
#       5
#    16  16   4   8  16
#     4  11  20  39  65  92 124 157 196 258 315 364
#     4  11  23  41  62  88 125 165 204 246 304 368
#     4  12  28  44  62  88 118 170 216 250 288 362
#     4  10  17  34  55  96 128 162 176 243 326 379
#     4  11  20  33  61 100 130 150 198 255 323 352
#
# _framework density 19.394062999999999
#
# number of rings (size 3 to 8) (size 9 to 14) (size 15 to 20)
#    0.000    1.067    6.667    2.000    1.867    2.133 
#    0.000    0.000    0.000    1.600    0.000    0.000 
#    0.000    0.000    0.000    0.000    0.000    0.000 
#
# Total GULP energy -167104.884153 kJ/mol
# GULP energy per Si atom -5570.162805 kJ/mol
# Density = 1.934992 g / cm^3
# Si number density = 19.394063 Si / 1000 Ang^3
#
#
#
# Elastic Constant Matrix: (Units=GPa)
#
#
# Indices 1 2 3 4 5 6 
#
# 1 137.5103 63.6996 26.0864 0.0000 0.0000 0.0000
# 2 63.6996 136.8419 33.1938 0.0000 0.0000 0.0000
# 3 26.0864 33.1938 54.5761 0.0000 0.0000 0.0000
# 4 0.0000 0.0000 0.0000 -11.1529 0.0000 0.0000
# 5 0.0000 0.0000 0.0000 0.0000 100.2848 0.0000
# 6 0.0000 0.0000 0.0000 0.0000 0.0000 7.6291
#
#
#
# Elastic Compliance Matrix: (Units=1/GPa)
#
#
# Indices 1 2 3 4 5 6 
#
# 1 0.009485 -0.003889 -0.002168 0.000000 0.000000 0.000000
# 2 -0.003889 0.010167 -0.004325 0.000000 0.000000 0.000000
# 3 -0.002168 -0.004325 0.021990 0.000000 0.000000 0.000000
# 4 0.000000 0.000000 0.000000 -0.089663 0.000000 0.000000
# 5 0.000000 0.000000 0.000000 0.000000 0.009972 0.000000
# 6 0.000000 0.000000 0.000000 0.000000 0.000000 0.131078
#
#
# Mechanical properties :
#
#
# Convention : Reuss Voigt Hill
#
# Bulk Modulus (GPa) = 47.89843 63.87642 55.88742
# Shear Modulus (GPa) = 41.40696 33.08210 37.24453
#
# Velocity S-wave (km/s) = 4.62565 4.13460 4.38700
# Velocity P-wave (km/s) = 7.29931 7.46999 7.38515
#
# Compressibility (1/GPa) = 0.02087751
#
# Stress axis : x y z
#
# Youngs Moduli (GPa) = 105.42740 98.35475 45.47569
#
# Poissons Ratio (x) = 0.38254 0.09860
# Poissons Ratio (y) = 0.41005 0.19667
# Poissons Ratio (z) = 0.22859 0.42536
#
# Static dielectric constant tensor:
#      x y z
#    x 1.649730 0.000000 0.000000 
#    y 0.000000 1.715420 0.000000 
#    z 0.000000 0.000000 1.646090 
# 
# From -- ./inp_files/45157.got.cif
#   From: 2010.05.17/outbox.cif.g08.bks.cpg/sg63_23_cif.got.tgz:45157.got - 2010.06.03 15:47:04.
