data_PCOD9468568
_publ_section_title
;
Structure prediction by ZEFSAII (Michael W. Deem and Ramdas Pophale) SiO2 
 PCOD9468568
Probable space group: C M C M
;
_chemical_formula_sum "Si O2"
_cell_formula_units_Z 88
_cell_length_a 23.679807
_cell_length_b 25.289523
_cell_length_c 7.537518
_cell_angle_alpha 90.000000
_cell_angle_beta 90.000000
_cell_angle_gamma 90.000000
_cell_volume 4513.850371
_symmetry_space_group_name_H-M "C M C M"
_symmetry_group_IT_number 63
_symmetry_cell_setting 'orthorhombic'
loop_
_space_group_symop_operation_xyz
x,y,z
-x,-y,1/2+z
x,-y,-z
-x,y,1/2-z
-x,-y,-z
x,y,1/2-z
-x,y,z
x,-y,1/2+z
1/2+x,1/2+y,z
1/2-x,1/2-y,1/2+z
1/2+x,1/2-y,-z
1/2-x,1/2+y,1/2-z
1/2-x,1/2-y,-z
1/2+x,1/2+y,1/2-z
1/2-x,1/2+y,z
1/2+x,1/2-y,1/2+z
loop_
_atom_site_type_symbol
_atom_site_label
_atom_site_fract_x
_atom_site_fract_y
_atom_site_fract_z
Si Si1 0.218098 0.939014 0.962641
Si Si2 0.064814 0.763830 0.963429
Si Si3 0.889064 0.125719 0.032380
Si Si4 0.000000 0.937808 0.962218
Si Si5 0.564114 0.855196 0.961078
Si Si6 0.654458 0.060909 0.036901
O O1 0.220200 0.933060 0.750000
O O2 0.169035 0.900643 0.029165
O O3 0.281704 0.929803 0.031225
O O4 0.203116 0.000000 0.000000
O O5 0.063183 0.766117 0.750000
O O6 0.101112 0.813805 0.023911
O O7 0.000000 0.769945 0.027077
O O8 0.084028 0.705087 0.012444
O O9 0.888599 0.124827 0.250000
O O10 0.943152 0.091143 0.974034
O O11 0.000000 0.931335 0.750000
O O12 0.000000 0.000000 0.000000
O O13 0.560289 0.863773 0.750000
O O14 0.500000 0.859457 0.033197
O O15 0.608184 0.897989 0.032440
O O16 0.656670 0.066841 0.250000
O O17 0.639419 0.000000 0.000000
#
# Coordination Sequence:
#
# PCOD9468568 Si02
#       6
#    16  16  16   8  16  16
#     4   9  17  30  47  65  88 120 152 182 220 266
#     4   9  16  29  48  67  87 117 155 187 216 260
#     4   9  16  28  46  65  88 119 152 185 222 259
#     4  10  18  28  42  64  92 118 147 188 227 258
#     4   9  18  32  48  67  92 118 143 180 229 271
#     4   9  18  32  49  68  91 118 147 179 220 270
#
# _framework density 19.495550999999999
#
# number of rings (size 3 to 8) (size 9 to 14) (size 15 to 20)
#    0.000    2.909    0.909    0.545    0.000    1.091 
#    0.000    2.727    0.000    0.000    0.000    0.000 
#    0.000    0.000    0.000    0.000    0.000    0.000 
#
# Total GULP energy -245409.455583 kJ/mol
# GULP energy per Si atom -5577.487627 kJ/mol
# Density = 1.945118 g / cm^3
# Si number density = 19.495551 Si / 1000 Ang^3
#
#
#
# Elastic Constant Matrix: (Units=GPa)
#
#
# Indices 1 2 3 4 5 6 
#
# 1 134.9537 136.5956 6.7315 0.0000 0.0000 0.0000
# 2 136.5956 190.0951 -2.0827 0.0000 0.0000 0.0000
# 3 6.7315 -2.0827 47.3716 0.0000 0.0000 0.0000
# 4 0.0000 0.0000 0.0000 22.3715 0.0000 0.0000
# 5 0.0000 0.0000 0.0000 0.0000 -2.0148 0.0000
# 6 0.0000 0.0000 0.0000 0.0000 0.0000 16.6495
#
#
#
# Elastic Compliance Matrix: (Units=1/GPa)
#
#
# Indices 1 2 3 4 5 6 
#
# 1 0.028272 -0.020369 -0.004913 0.000000 0.000000 0.000000
# 2 -0.020369 0.019938 0.003771 0.000000 0.000000 0.000000
# 3 -0.004913 0.003771 0.021974 0.000000 0.000000 0.000000
# 4 0.000000 0.000000 0.000000 0.044700 0.000000 0.000000
# 5 0.000000 0.000000 0.000000 0.000000 -0.496317 0.000000
# 6 0.000000 0.000000 0.000000 0.000000 0.000000 0.060062
#
#
# Mechanical properties :
#
#
# Convention : Reuss Voigt Hill
#
# Bulk Modulus (GPa) = 36.81628 72.76768 54.79198
# Shear Modulus (GPa) = -18.56689 22.81295 2.12303
#
# Velocity S-wave (km/s) = -3.08939 3.42447 1.04468
# Velocity P-wave (km/s) = 2.48991 7.28302 5.44252
#
# Compressibility (1/GPa) = 0.02716189
#
# Stress axis : x y z
#
# Youngs Moduli (GPa) = 35.37110 50.15507 45.50920
#
# Poissons Ratio (x) = 1.02160 0.22358
# Poissons Ratio (y) = 0.72047 -0.17161
# Poissons Ratio (z) = 0.17377 -0.18913
#
# Static dielectric constant tensor:
#      x y z
#    x 1.687030 0.000000 0.000000 
#    y 0.000000 1.653210 0.000000 
#    z 0.000000 0.000000 1.726850 
# 
# From -- ./inp_files/8189.got.cif
#   From: 2010.05.17/outbox.cif.g08.bks.cpg/sg63_5_cif.got.tgz:8189.got - 2010.06.03 15:47:04.
