data_PCOD9468949
_publ_section_title
;
Structure prediction by ZEFSAII (Michael W. Deem and Ramdas Pophale) SiO2 
 PCOD9468949
Probable space group: C M C M
;
_chemical_formula_sum "Si O2"
_cell_formula_units_Z 80
_cell_length_a 15.578311
_cell_length_b 10.002037
_cell_length_c 21.602766
_cell_angle_alpha 90.000000
_cell_angle_beta 90.000000
_cell_angle_gamma 90.000000
_cell_volume 3366.031593
_symmetry_space_group_name_H-M "C M C M"
_symmetry_group_IT_number 63
_symmetry_cell_setting 'orthorhombic'
loop_
_space_group_symop_operation_xyz
x,y,z
-x,-y,1/2+z
x,-y,-z
-x,y,1/2-z
-x,-y,-z
x,y,1/2-z
-x,y,z
x,-y,1/2+z
1/2+x,1/2+y,z
1/2-x,1/2-y,1/2+z
1/2+x,1/2-y,-z
1/2-x,1/2+y,1/2-z
1/2-x,1/2-y,-z
1/2+x,1/2+y,1/2-z
1/2-x,1/2+y,z
1/2+x,1/2-y,1/2+z
loop_
_atom_site_type_symbol
_atom_site_label
_atom_site_fract_x
_atom_site_fract_y
_atom_site_fract_z
Si Si1 0.900070 0.949589 0.406744
Si Si2 0.348081 0.283183 0.515292
Si Si3 0.905078 0.686261 0.862401
Si Si4 0.093728 0.385493 0.677937
Si Si5 0.279801 0.586458 0.321443
O O1 0.891677 0.819978 0.450304
O O2 0.000000 0.963898 0.389446
O O3 0.868749 0.080237 0.446213
O O4 0.830411 0.961633 0.352097
O O5 0.250000 0.250000 0.500000
O O6 0.380925 0.173474 0.564558
O O7 0.907935 0.545962 0.828422
O O8 0.841419 0.786990 0.829349
O O9 0.000000 0.744878 0.860301
O O10 0.095473 0.343210 0.750000
O O11 0.188781 0.365670 0.650210
O O12 0.000000 0.338468 0.653425
O O13 0.265417 0.554369 0.250000
#
# Coordination Sequence:
#
# PCOD9468949 Si02
#       5
#    16  16  16  16  16
#     4  10  20  34  51  75 104 132 167 207 249 298
#     4  10  18  30  50  73  98 130 163 200 245 291
#     4  10  19  32  52  76  99 127 168 210 246 291
#     4   9  18  32  50  72  98 129 166 208 252 297
#     4  10  19  31  51  77 102 130 166 207 249 294
#
# _framework density 23.766859
#
# number of rings (size 3 to 8) (size 9 to 14) (size 15 to 20)
#    0.000    2.200    0.000    6.000    0.000    2.400 
#    0.000    0.000    0.000   21.600    0.000   40.600 
#    0.000    0.000    0.000    0.000    0.000    0.000 
#
# Total GULP energy -222959.099079 kJ/mol
# GULP energy per Si atom -5573.977477 kJ/mol
# Density = 2.371276 g / cm^3
# Si number density = 23.766859 Si / 1000 Ang^3
#
#
#
# Elastic Constant Matrix: (Units=GPa)
#
#
# Indices 1 2 3 4 5 6 
#
# 1 213.6505 5.9274 23.1779 0.0000 0.0000 0.0000
# 2 5.9274 35.4642 9.0863 0.0000 0.0000 0.0000
# 3 23.1779 9.0863 72.3893 0.0000 0.0000 0.0000
# 4 0.0000 0.0000 0.0000 18.7981 0.0000 0.0000
# 5 0.0000 0.0000 0.0000 0.0000 18.0416 0.0000
# 6 0.0000 0.0000 0.0000 0.0000 0.0000 25.3782
#
#
#
# Elastic Compliance Matrix: (Units=1/GPa)
#
#
# Indices 1 2 3 4 5 6 
#
# 1 0.004855 -0.000427 -0.001501 0.000000 0.000000 0.000000
# 2 -0.000427 0.029172 -0.003525 0.000000 0.000000 0.000000
# 3 -0.001501 -0.003525 0.014737 0.000000 0.000000 0.000000
# 4 0.000000 0.000000 0.000000 0.053197 0.000000 0.000000
# 5 0.000000 0.000000 0.000000 0.000000 0.055427 0.000000
# 6 0.000000 0.000000 0.000000 0.000000 0.000000 0.039404
#
#
# Mechanical properties :
#
#
# Convention : Reuss Voigt Hill
#
# Bulk Modulus (GPa) = 26.41406 44.20970 35.31188
# Shear Modulus (GPa) = 22.69447 31.33106 27.01277
#
# Velocity S-wave (km/s) = 3.09346 3.63473 3.37497
# Velocity P-wave (km/s) = 4.88849 6.02137 5.48426
#
# Compressibility (1/GPa) = 0.03785863
#
# Stress axis : x y z
#
# Youngs Moduli (GPa) = 205.96388 34.27954 67.85530
#
# Poissons Ratio (x) = 0.01463 0.10185
# Poissons Ratio (y) = 0.08793 0.23919
# Poissons Ratio (z) = 0.30915 0.12083
#
# Static dielectric constant tensor:
#      x y z
#    x 1.950190 0.000000 0.000000 
#    y 0.000000 1.957110 0.000000 
#    z 0.000000 0.000000 2.111600 
# 
# From -- ./inp_files/62546.got.cif
#   From: 2010.05.17/outbox.cif.g08.bks.cpg/sg63_32_cif.got.tgz:62546.got - 2010.06.03 15:47:04.
