data_PCOD9468378
_publ_section_title
;
Structure prediction by ZEFSAII (Michael W. Deem and Ramdas Pophale) SiO2 
 PCOD9468378
Probable space group: C M C M
;
_chemical_formula_sum "Si O2"
_cell_formula_units_Z 96
_cell_length_a 8.097852
_cell_length_b 24.177188
_cell_length_c 26.825728
_cell_angle_alpha 90.000000
_cell_angle_beta 90.000000
_cell_angle_gamma 90.000000
_cell_volume 5252.029290
_symmetry_space_group_name_H-M "C M C M"
_symmetry_group_IT_number 63
_symmetry_cell_setting 'orthorhombic'
loop_
_space_group_symop_operation_xyz
x,y,z
-x,-y,1/2+z
x,-y,-z
-x,y,1/2-z
-x,-y,-z
x,y,1/2-z
-x,y,z
x,-y,1/2+z
1/2+x,1/2+y,z
1/2-x,1/2-y,1/2+z
1/2+x,1/2-y,-z
1/2-x,1/2+y,1/2-z
1/2-x,1/2-y,-z
1/2+x,1/2+y,1/2-z
1/2-x,1/2+y,z
1/2+x,1/2-y,1/2+z
loop_
_atom_site_type_symbol
_atom_site_label
_atom_site_fract_x
_atom_site_fract_y
_atom_site_fract_z
Si Si1 0.300456 0.022442 0.554402
Si Si2 0.808861 0.746039 0.630084
Si Si3 0.702352 0.148638 0.932545
Si Si4 0.191212 0.682575 0.459763
Si Si5 0.190571 0.915149 0.898361
Si Si6 0.305464 0.845454 0.693312
O O1 0.500000 0.022705 0.554237
O O2 0.244577 0.085014 0.565078
O O3 0.245683 0.000000 0.500000
O O4 0.239025 0.978608 0.595035
O O5 0.744804 0.685530 0.614555
O O6 0.794090 0.780587 0.578438
O O7 0.719379 0.784127 0.670424
O O8 0.000000 0.742178 0.644639
O O9 0.500000 0.149339 0.933075
O O10 0.754026 0.178329 0.984045
O O11 0.200882 0.620845 0.436800
O O12 0.000000 0.700569 0.458925
O O13 0.219877 0.888263 0.844337
O O14 0.000000 0.907543 0.912035
O O15 0.245164 0.848370 0.750000
O O16 0.500000 0.857604 0.692418
#
# Coordination Sequence:
#
# PCOD9468378 Si02
#       6
#    16  16  16  16  16  16
#     4  10  18  33  53  70 100 147 185 212 242 291
#     4  10  19  31  48  75 105 129 162 210 259 301
#     4   9  18  30  47  71 101 140 178 205 240 294
#     4  10  17  30  48  68  99 140 178 204 239 294
#     4  11  21  32  49  78 108 132 167 216 263 302
#     4  10  21  38  59  78  96 126 169 212 258 315
#
# _framework density 18.278649000000001
#
# number of rings (size 3 to 8) (size 9 to 14) (size 15 to 20)
#    0.000    2.000    1.667    5.500    0.000    1.667 
#    0.000    4.167    0.000    1.000    0.000    2.333 
#    0.000    0.000    0.000    0.000    0.000    0.000 
#
# Total GULP energy -267828.703570 kJ/mol
# GULP energy per Si atom -5579.764658 kJ/mol
# Density = 1.823705 g / cm^3
# Si number density = 18.278649 Si / 1000 Ang^3
#
#
#
# Elastic Constant Matrix: (Units=GPa)
#
#
# Indices 1 2 3 4 5 6 
#
# 1 34.2501 -2.5064 0.6358 0.0000 0.0000 0.0000
# 2 -2.5064 81.4960 23.4787 0.0000 0.0000 0.0000
# 3 0.6358 23.4787 79.2389 0.0000 0.0000 0.0000
# 4 0.0000 0.0000 0.0000 12.9577 0.0000 0.0000
# 5 0.0000 0.0000 0.0000 0.0000 8.6945 0.0000
# 6 0.0000 0.0000 0.0000 0.0000 0.0000 18.5653
#
#
#
# Elastic Compliance Matrix: (Units=1/GPa)
#
#
# Indices 1 2 3 4 5 6 
#
# 1 0.029285 0.001059 -0.000549 0.000000 0.000000 0.000000
# 2 0.001059 0.013454 -0.003995 0.000000 0.000000 0.000000
# 3 -0.000549 -0.003995 0.013808 0.000000 0.000000 0.000000
# 4 0.000000 0.000000 0.000000 0.077174 0.000000 0.000000
# 5 0.000000 0.000000 0.000000 0.000000 0.115015 0.000000
# 6 0.000000 0.000000 0.000000 0.000000 0.000000 0.053864
#
#
# Mechanical properties :
#
#
# Convention : Reuss Voigt Hill
#
# Bulk Modulus (GPa) = 20.17063 26.46680 23.31872
# Shear Modulus (GPa) = 15.33293 19.60196 17.46745
#
# Velocity S-wave (km/s) = 2.89942 3.27830 3.09466
# Velocity P-wave (km/s) = 4.71889 5.37036 5.05513
#
# Compressibility (1/GPa) = 0.04957702
#
# Stress axis : x y z
#
# Youngs Moduli (GPa) = 34.14760 74.32716 72.42080
#
# Poissons Ratio (x) = -0.07869 0.03973
# Poissons Ratio (y) = -0.03615 0.28932
# Poissons Ratio (z) = 0.01874 0.29693
#
# Static dielectric constant tensor:
#      x y z
#    x 1.632560 0.000000 0.000000 
#    y 0.000000 1.670960 0.000000 
#    z 0.000000 0.000000 1.615980 
# 
# From -- ./inp_files/67209.got.cif
#   From: 2010.05.17/outbox.cif.g08.bks.cpg/sg63_34_cif.got.tgz:67209.got - 2010.06.03 15:47:04.
