data_PCOD9468544
_publ_section_title
;
Structure prediction by ZEFSAII (Michael W. Deem and Ramdas Pophale) SiO2 
 PCOD9468544
Probable space group: C M C M
;
_chemical_formula_sum "Si O2"
_cell_formula_units_Z 96
_cell_length_a 17.630351
_cell_length_b 12.555571
_cell_length_c 23.144776
_cell_angle_alpha 90.000000
_cell_angle_beta 90.000000
_cell_angle_gamma 90.000000
_cell_volume 5123.307334
_symmetry_space_group_name_H-M "C M C M"
_symmetry_group_IT_number 63
_symmetry_cell_setting 'orthorhombic'
loop_
_space_group_symop_operation_xyz
x,y,z
-x,-y,1/2+z
x,-y,-z
-x,y,1/2-z
-x,-y,-z
x,y,1/2-z
-x,y,z
x,-y,1/2+z
1/2+x,1/2+y,z
1/2-x,1/2-y,1/2+z
1/2+x,1/2-y,-z
1/2-x,1/2+y,1/2-z
1/2-x,1/2-y,-z
1/2+x,1/2+y,1/2-z
1/2-x,1/2+y,z
1/2+x,1/2-y,1/2+z
loop_
_atom_site_type_symbol
_atom_site_label
_atom_site_fract_x
_atom_site_fract_y
_atom_site_fract_z
Si Si1 0.418845 0.612061 0.031619
Si Si2 0.412499 0.166053 0.018180
Si Si3 0.411883 0.650981 0.681866
Si Si4 0.306488 0.512192 0.388135
Si Si5 0.725520 0.827343 0.053155
Si Si6 0.313885 0.170233 0.370370
O O1 0.500000 0.630734 0.061140
O O2 0.353672 0.602804 0.078370
O O3 0.420874 0.500000 0.000000
O O4 0.412264 0.704615 0.984405
O O5 0.500000 0.130750 0.016941
O O6 0.365691 0.134711 0.074825
O O7 0.361224 0.142155 0.961742
O O8 0.411032 0.628840 0.750000
O O9 0.500000 0.654126 0.662056
O O10 0.364185 0.560110 0.648493
O O11 0.370688 0.764611 0.670555
O O12 0.270047 0.437066 0.437572
O O13 0.238144 0.569584 0.353606
O O14 0.753742 0.760207 0.108166
O O15 0.750000 0.750000 0.000000
#
# Coordination Sequence:
#
# PCOD9468544 Si02
#       6
#    16  16  16  16  16  16
#     4  10  18  27  46  75 106 141 176 213 255 310
#     4  10  19  31  46  71 111 148 179 207 249 313
#     4  10  22  41  61  81 106 135 178 240 297 339
#     4  11  21  32  56  81 107 139 185 226 267 331
#     4   9  18  31  46  73 110 148 179 214 258 311
#     4  10  20  34  53  79 109 144 179 224 272 326
#
# _framework density 18.737895000000002
#
# number of rings (size 3 to 8) (size 9 to 14) (size 15 to 20)
#    0.000    2.000    1.667    4.000    2.333    2.000 
#    0.000    2.500    0.000    0.000    0.000    0.000 
#    0.000   12.000    0.000    0.000    0.000    0.000 
#
# Total GULP energy -267321.040983 kJ/mol
# GULP energy per Si atom -5569.188354 kJ/mol
# Density = 1.869525 g / cm^3
# Si number density = 18.737895 Si / 1000 Ang^3
#
#
#
# Elastic Constant Matrix: (Units=GPa)
#
#
# Indices 1 2 3 4 5 6 
#
# 1 160.8160 36.8802 29.5892 0.0000 0.0000 0.0000
# 2 36.8802 62.0816 13.2320 0.0000 0.0000 0.0000
# 3 29.5892 13.2320 38.7456 0.0000 0.0000 0.0000
# 4 0.0000 0.0000 0.0000 13.6314 0.0000 0.0000
# 5 0.0000 0.0000 0.0000 0.0000 23.9339 0.0000
# 6 0.0000 0.0000 0.0000 0.0000 0.0000 29.9676
#
#
#
# Elastic Compliance Matrix: (Units=1/GPa)
#
#
# Indices 1 2 3 4 5 6 
#
# 1 0.007951 -0.003699 -0.004809 0.000000 0.000000 0.000000
# 2 -0.003699 0.019093 -0.003696 0.000000 0.000000 0.000000
# 3 -0.004809 -0.003696 0.030744 0.000000 0.000000 0.000000
# 4 0.000000 0.000000 0.000000 0.073360 0.000000 0.000000
# 5 0.000000 0.000000 0.000000 0.000000 0.041782 0.000000
# 6 0.000000 0.000000 0.000000 0.000000 0.000000 0.033369
#
#
# Mechanical properties :
#
#
# Convention : Reuss Voigt Hill
#
# Bulk Modulus (GPa) = 29.95709 46.78289 38.36999
# Shear Modulus (GPa) = 20.67539 25.63605 23.15572
#
# Velocity S-wave (km/s) = 3.32535 3.70285 3.51917
# Velocity P-wave (km/s) = 5.54672 6.58048 6.08559
#
# Compressibility (1/GPa) = 0.03338108
#
# Stress axis : x y z
#
# Youngs Moduli (GPa) = 125.76503 52.37600 32.52648
#
# Poissons Ratio (x) = 0.19371 0.15643
# Poissons Ratio (y) = 0.46515 0.12021
# Poissons Ratio (z) = 0.60482 0.19357
#
# Static dielectric constant tensor:
#      x y z
#    x 1.762240 0.000000 0.000000 
#    y 0.000000 1.710370 0.000000 
#    z 0.000000 0.000000 1.641030 
# 
# From -- ./inp_files/69875.got.cif
#   From: 2010.05.17/outbox.cif.g08.bks.cpg/sg63_35_cif.got.tgz:69875.got - 2010.06.03 15:47:04.
