data_PCOD9468443
_publ_section_title
;
Structure prediction by ZEFSAII (Michael W. Deem and Ramdas Pophale) SiO2 
 PCOD9468443
Probable space group: C M C M
;
_chemical_formula_sum "Si O2"
_cell_formula_units_Z 56
_cell_length_a 19.891367
_cell_length_b 13.603140
_cell_length_c 13.481438
_cell_angle_alpha 90.000000
_cell_angle_beta 90.000000
_cell_angle_gamma 90.000000
_cell_volume 3647.875577
_symmetry_space_group_name_H-M "C M C M"
_symmetry_group_IT_number 63
_symmetry_cell_setting 'orthorhombic'
loop_
_space_group_symop_operation_xyz
x,y,z
-x,-y,1/2+z
x,-y,-z
-x,y,1/2-z
-x,-y,-z
x,y,1/2-z
-x,y,z
x,-y,1/2+z
1/2+x,1/2+y,z
1/2-x,1/2-y,1/2+z
1/2+x,1/2-y,-z
1/2-x,1/2+y,1/2-z
1/2-x,1/2-y,-z
1/2+x,1/2+y,1/2-z
1/2-x,1/2+y,z
1/2+x,1/2-y,1/2+z
loop_
_atom_site_type_symbol
_atom_site_label
_atom_site_fract_x
_atom_site_fract_y
_atom_site_fract_z
Si Si1 0.275428 0.571040 0.250000
Si Si2 0.784791 0.632155 0.750000
Si Si3 0.695029 0.723997 0.418152
Si Si4 0.131495 0.105599 0.750000
Si Si5 0.421855 0.613528 0.530905
O O1 0.218971 0.485941 0.250000
O O2 0.276058 0.638981 0.153760
O O3 0.344846 0.508508 0.250000
O O4 0.815869 0.682114 0.846950
O O5 0.704445 0.659192 0.750000
O O6 0.750000 0.750000 0.500000
O O7 0.628422 0.682794 0.470141
O O8 0.093130 0.125310 0.851849
O O9 0.408002 0.500000 0.500000
O O10 0.500000 0.633323 0.510258
#
# Coordination Sequence:
#
# PCOD9468443 Si02
#       5
#     8   8  16   8  16
#     4   9  19  33  49  79 110 131 182 225 264 307
#     4   9  19  31  52  73 105 135 180 229 256 303
#     4  11  19  32  53  77 106 139 181 216 264 320
#     4  10  17  34  48  72 111 134 174 212 255 322
#     4  11  21  33  50  76 112 144 165 210 274 327
#
# _framework density 15.351400999999999
#
# number of rings (size 3 to 8) (size 9 to 14) (size 15 to 20)
#    0.857    0.857    5.714    0.429    0.000    0.000 
#    0.000    2.857    0.000    0.000    0.000    6.000 
#    0.000    0.000    0.000    0.000    0.000    0.000 
#
# Total GULP energy -155915.040363 kJ/mol
# GULP energy per Si atom -5568.394299 kJ/mol
# Density = 1.531646 g / cm^3
# Si number density = 15.351401 Si / 1000 Ang^3
#
#
#
# Elastic Constant Matrix: (Units=GPa)
#
#
# Indices 1 2 3 4 5 6 
#
# 1 89.2075 37.0493 46.3932 0.0000 0.0000 0.0000
# 2 37.0493 81.7147 51.6451 0.0000 0.0000 0.0000
# 3 46.3932 51.6451 133.6607 0.0000 0.0000 0.0000
# 4 0.0000 0.0000 0.0000 28.3685 0.0000 0.0000
# 5 0.0000 0.0000 0.0000 0.0000 17.9508 0.0000
# 6 0.0000 0.0000 0.0000 0.0000 0.0000 27.4360
#
#
#
# Elastic Compliance Matrix: (Units=1/GPa)
#
#
# Indices 1 2 3 4 5 6 
#
# 1 0.014885 -0.004609 -0.003386 0.000000 0.000000 0.000000
# 2 -0.004609 0.017619 -0.005208 0.000000 0.000000 0.000000
# 3 -0.003386 -0.005208 0.010669 0.000000 0.000000 0.000000
# 4 0.000000 0.000000 0.000000 0.035250 0.000000 0.000000
# 5 0.000000 0.000000 0.000000 0.000000 0.055708 0.000000
# 6 0.000000 0.000000 0.000000 0.000000 0.000000 0.036448
#
#
# Mechanical properties :
#
#
# Convention : Reuss Voigt Hill
#
# Bulk Modulus (GPa) = 59.63880 63.86203 61.75042
# Shear Modulus (GPa) = 24.68239 26.05076 25.36658
#
# Velocity S-wave (km/s) = 4.01412 4.12389 4.06938
# Velocity P-wave (km/s) = 7.77288 8.02283 7.89884
#
# Compressibility (1/GPa) = 0.01676761
#
# Stress axis : x y z
#
# Youngs Moduli (GPa) = 67.18311 56.75704 93.72883
#
# Poissons Ratio (x) = 0.26159 0.31733
# Poissons Ratio (y) = 0.30964 0.48814
# Poissons Ratio (z) = 0.22745 0.29559
#
# Static dielectric constant tensor:
#      x y z
#    x 1.487040 0.000000 0.000000 
#    y 0.000000 1.518190 0.000000 
#    z 0.000000 0.000000 1.515810 
# 
# From -- ./inp_files/20488.got.cif
#   From: 2010.05.17/outbox.cif.g08.bks.cpg/sg63_11_cif.got.tgz:20488.got - 2010.06.03 15:47:04.
