data_PCOD9468797
_publ_section_title
;
Structure prediction by ZEFSAII (Michael W. Deem and Ramdas Pophale) SiO2 
 PCOD9468797
Probable space group: C M C M
;
_chemical_formula_sum "Si O2"
_cell_formula_units_Z 128
_cell_length_a 20.896621
_cell_length_b 19.451559
_cell_length_c 20.008359
_cell_angle_alpha 90.000000
_cell_angle_beta 90.000000
_cell_angle_gamma 90.000000
_cell_volume 8132.834824
_symmetry_space_group_name_H-M "C M C M"
_symmetry_group_IT_number 63
_symmetry_cell_setting 'orthorhombic'
loop_
_space_group_symop_operation_xyz
x,y,z
-x,-y,1/2+z
x,-y,-z
-x,y,1/2-z
-x,-y,-z
x,y,1/2-z
-x,y,z
x,-y,1/2+z
1/2+x,1/2+y,z
1/2-x,1/2-y,1/2+z
1/2+x,1/2-y,-z
1/2-x,1/2+y,1/2-z
1/2-x,1/2-y,-z
1/2+x,1/2+y,1/2-z
1/2-x,1/2+y,z
1/2+x,1/2-y,1/2+z
loop_
_atom_site_type_symbol
_atom_site_label
_atom_site_fract_x
_atom_site_fract_y
_atom_site_fract_z
Si Si1 0.885013 0.093810 0.327763
Si Si2 0.810653 0.317340 0.066468
Si Si3 0.427345 0.317053 0.433466
Si Si4 0.114595 0.970856 0.426695
Si Si5 0.769361 0.406675 0.827737
Si Si6 0.927331 0.222653 0.088190
Si Si7 0.269064 0.029477 0.573252
Si Si8 0.810654 0.722358 0.410658
O O1 0.901072 0.085682 0.250000
O O2 0.807827 0.101316 0.333936
O O3 0.915239 0.161860 0.359478
O O4 0.903387 0.027425 0.371587
O O5 0.874771 0.282169 0.094013
O O6 0.800925 0.396711 0.083599
O O7 0.750146 0.273189 0.091743
O O8 0.811212 0.309106 0.985743
O O9 0.500000 0.297095 0.417480
O O10 0.415540 0.396361 0.415748
O O11 0.418552 0.309620 0.513877
O O12 0.374495 0.267213 0.401832
O O13 0.191791 0.961702 0.425530
O O14 0.097324 0.000000 0.500000
O O15 0.784687 0.415025 0.750000
O O16 0.786638 0.473393 0.871260
O O17 0.801362 0.339333 0.859191
O O18 0.000000 0.247885 0.093199
O O19 0.285226 0.000000 0.500000
#
# Coordination Sequence:
#
# PCOD9468797 Si02
#       8
#    16  16  16  16  16  16  16  16
#     4  10  20  33  49  74 107 142 176 209 256 318
#     4  10  18  30  55  79 100 129 178 217 258 305
#     4  10  20  32  50  78 106 134 174 218 256 299
#     4  10  18  29  50  74 104 141 177 210 251 305
#     4  10  20  34  52  78 109 136 170 219 268 310
#     4  10  20  33  50  75 107 137 168 214 264 311
#     4  10  18  30  52  81 103 134 174 217 259 310
#     4  10  18  31  53  78 100 135 172 217 259 305
#
# _framework density 15.738669
#
# number of rings (size 3 to 8) (size 9 to 14) (size 15 to 20)
#    0.000    2.000    5.000    0.000    0.000    1.000 
#    0.000    1.875    0.000    2.250    0.000    0.000 
#    0.000    0.000    0.000    0.000    0.000    0.000 
#
# Total GULP energy -357066.143662 kJ/mol
# GULP energy per Si atom -5579.158495 kJ/mol
# Density = 1.570285 g / cm^3
# Si number density = 15.738669 Si / 1000 Ang^3
#
#
#
# Elastic Constant Matrix: (Units=GPa)
#
#
# Indices 1 2 3 4 5 6 
#
# 1 75.9019 56.0236 43.7113 0.0000 0.0000 0.0000
# 2 56.0236 123.6768 56.0717 0.0000 0.0000 0.0000
# 3 43.7113 56.0717 83.4893 0.0000 0.0000 0.0000
# 4 0.0000 0.0000 0.0000 23.3707 0.0000 0.0000
# 5 0.0000 0.0000 0.0000 0.0000 12.3150 0.0000
# 6 0.0000 0.0000 0.0000 0.0000 0.0000 20.2878
#
#
#
# Elastic Compliance Matrix: (Units=1/GPa)
#
#
# Indices 1 2 3 4 5 6 
#
# 1 0.022347 -0.006928 -0.007047 0.000000 0.000000 0.000000
# 2 -0.006928 0.013773 -0.005623 0.000000 0.000000 0.000000
# 3 -0.007047 -0.005623 0.019443 0.000000 0.000000 0.000000
# 4 0.000000 0.000000 0.000000 0.042789 0.000000 0.000000
# 5 0.000000 0.000000 0.000000 0.000000 0.081202 0.000000
# 6 0.000000 0.000000 0.000000 0.000000 0.000000 0.049291
#
#
# Mechanical properties :
#
#
# Convention : Reuss Voigt Hill
#
# Bulk Modulus (GPa) = 61.09584 66.07568 63.58576
# Shear Modulus (GPa) = 18.28185 19.67880 18.98032
#
# Velocity S-wave (km/s) = 3.41190 3.53986 3.47647
# Velocity P-wave (km/s) = 7.37731 7.66692 7.52351
#
# Compressibility (1/GPa) = 0.01636773
#
# Stress axis : x y z
#
# Youngs Moduli (GPa) = 44.74951 72.60561 51.43113
#
# Poissons Ratio (x) = 0.50299 0.36244
# Poissons Ratio (y) = 0.31001 0.28920
# Poissons Ratio (z) = 0.31535 0.40826
#
# Static dielectric constant tensor:
#      x y z
#    x 1.529080 0.000000 0.000000 
#    y 0.000000 1.496790 0.000000 
#    z 0.000000 0.000000 1.516490 
# 
# From -- ./inp_files/56953.got.cif
#   From: 2010.05.17/outbox.cif.g08.bks.cpg/sg63_29_cif.got.tgz:56953.got - 2010.06.03 15:47:04.
