data_PCOD9468341
_publ_section_title
;
Structure prediction by ZEFSAII (Michael W. Deem and Ramdas Pophale) SiO2 
 PCOD9468341
Probable space group: C M C M
;
_chemical_formula_sum "Si O2"
_cell_formula_units_Z 80
_cell_length_a 28.378691
_cell_length_b 9.342761
_cell_length_c 17.351690
_cell_angle_alpha 90.000000
_cell_angle_beta 90.000000
_cell_angle_gamma 90.000000
_cell_volume 4600.546011
_symmetry_space_group_name_H-M "C M C M"
_symmetry_group_IT_number 63
_symmetry_cell_setting 'orthorhombic'
loop_
_space_group_symop_operation_xyz
x,y,z
-x,-y,1/2+z
x,-y,-z
-x,y,1/2-z
-x,-y,-z
x,y,1/2-z
-x,y,z
x,-y,1/2+z
1/2+x,1/2+y,z
1/2-x,1/2-y,1/2+z
1/2+x,1/2-y,-z
1/2-x,1/2+y,1/2-z
1/2-x,1/2-y,-z
1/2+x,1/2+y,1/2-z
1/2-x,1/2+y,z
1/2+x,1/2-y,1/2+z
loop_
_atom_site_type_symbol
_atom_site_label
_atom_site_fract_x
_atom_site_fract_y
_atom_site_fract_z
Si Si1 0.552952 0.147798 0.451145
Si Si2 0.359539 0.235791 0.541819
Si Si3 0.291902 0.464724 0.911508
Si Si4 0.700916 0.786261 0.611718
Si Si5 0.379129 0.984515 0.836059
O O1 0.500000 0.204853 0.445506
O O2 0.591281 0.245291 0.495425
O O3 0.575849 0.098754 0.370672
O O4 0.551182 0.000000 0.500000
O O5 0.340816 0.378432 0.582693
O O6 0.320249 0.200684 0.476081
O O7 0.365240 0.109675 0.603856
O O8 0.295832 0.617822 0.871157
O O9 0.251362 0.360981 0.881003
O O10 0.278452 0.500000 0.000000
O O11 0.663487 0.872030 0.661738
O O12 0.387047 0.038586 0.750000
#
# Coordination Sequence:
#
# PCOD9468341 Si02
#       5
#    16  16  16  16  16
#     4   8  15  29  50  74  96 118 151 197 241 279
#     4   9  17  30  49  71  94 121 155 198 241 281
#     4  10  17  28  50  72  91 121 163 201 237 281
#     4  10  18  30  48  68  93 125 161 200 236 279
#     4  10  19  31  46  67  97 129 161 194 233 281
#
# _framework density 17.389240999999998
#
# number of rings (size 3 to 8) (size 9 to 14) (size 15 to 20)
#    0.000    2.600    0.000    6.600    0.000    0.400 
#    0.000    5.000    0.000   15.000    0.000    0.000 
#    0.000   22.400    0.000    0.000    0.000    0.000 
#
# Total GULP energy -222838.190406 kJ/mol
# GULP energy per Si atom -5570.954760 kJ/mol
# Density = 1.734966 g / cm^3
# Si number density = 17.389241 Si / 1000 Ang^3
#
#
#
# Elastic Constant Matrix: (Units=GPa)
#
#
# Indices 1 2 3 4 5 6 
#
# 1 119.8447 54.3116 18.6124 0.0000 0.0000 0.0000
# 2 54.3116 95.5842 20.6414 0.0000 0.0000 0.0000
# 3 18.6124 20.6414 62.8107 0.0000 0.0000 0.0000
# 4 0.0000 0.0000 0.0000 6.5259 0.0000 0.0000
# 5 0.0000 0.0000 0.0000 0.0000 0.2610 0.0000
# 6 0.0000 0.0000 0.0000 0.0000 0.0000 20.1316
#
#
#
# Elastic Compliance Matrix: (Units=1/GPa)
#
#
# Indices 1 2 3 4 5 6 
#
# 1 0.011341 -0.006155 -0.001338 0.000000 0.000000 0.000000
# 2 -0.006155 0.014602 -0.002975 0.000000 0.000000 0.000000
# 3 -0.001338 -0.002975 0.017295 0.000000 0.000000 0.000000
# 4 0.000000 0.000000 0.000000 0.153237 0.000000 0.000000
# 5 0.000000 0.000000 0.000000 0.000000 3.831329 0.000000
# 6 0.000000 0.000000 0.000000 0.000000 0.000000 0.049673
#
#
# Mechanical properties :
#
#
# Convention : Reuss Voigt Hill
#
# Bulk Modulus (GPa) = 44.83826 51.70782 48.27304
# Shear Modulus (GPa) = 1.21778 17.69531 9.45654
#
# Velocity S-wave (km/s) = 0.83775 3.19345 2.33452
# Velocity P-wave (km/s) = 5.17463 6.58768 5.92344
#
# Compressibility (1/GPa) = 0.02230238
#
# Stress axis : x y z
#
# Youngs Moduli (GPa) = 88.17238 68.48444 57.82065
#
# Poissons Ratio (x) = 0.42155 0.07736
# Poissons Ratio (y) = 0.54273 0.17199
# Poissons Ratio (z) = 0.11797 0.20371
#
# Static dielectric constant tensor:
#      x y z
#    x 1.606050 0.000000 0.000000 
#    y 0.000000 1.612430 0.000000 
#    z 0.000000 0.000000 1.610680 
# 
# From -- ./inp_files/49409.got.cif
#   From: 2010.05.17/outbox.cif.g08.bks.cpg/sg63_25_cif.got.tgz:49409.got - 2010.06.03 15:47:04.
