data_PCOD9468985
_publ_section_title
;
Structure prediction by ZEFSAII (Michael W. Deem and Ramdas Pophale) SiO2 
 PCOD9468985
Probable space group: C M C M
;
_chemical_formula_sum "Si O2"
_cell_formula_units_Z 76
_cell_length_a 12.386812
_cell_length_b 31.533050
_cell_length_c 11.928601
_cell_angle_alpha 90.000000
_cell_angle_beta 90.000000
_cell_angle_gamma 90.000000
_cell_volume 4659.239527
_symmetry_space_group_name_H-M "C M C M"
_symmetry_group_IT_number 63
_symmetry_cell_setting 'orthorhombic'
loop_
_space_group_symop_operation_xyz
x,y,z
-x,-y,1/2+z
x,-y,-z
-x,y,1/2-z
-x,-y,-z
x,y,1/2-z
-x,y,z
x,-y,1/2+z
1/2+x,1/2+y,z
1/2-x,1/2-y,1/2+z
1/2+x,1/2-y,-z
1/2-x,1/2+y,1/2-z
1/2-x,1/2-y,-z
1/2+x,1/2+y,1/2-z
1/2-x,1/2+y,z
1/2+x,1/2-y,1/2+z
loop_
_atom_site_type_symbol
_atom_site_label
_atom_site_fract_x
_atom_site_fract_y
_atom_site_fract_z
Si Si1 0.279597 0.799795 0.993430
Si Si2 0.629534 0.632513 0.616389
Si Si3 0.000000 0.701489 0.877524
Si Si4 0.767220 0.172662 0.250000
Si Si5 0.626655 0.547055 0.007234
Si Si6 0.877281 0.913304 0.750000
Si Si7 0.000000 0.216009 0.250000
O O1 0.288069 0.811992 0.863246
O O2 0.250000 0.750000 0.000000
O O3 0.189229 0.829578 0.051277
O O4 0.391276 0.808760 0.057312
O O5 0.648643 0.634795 0.750000
O O6 0.500000 0.635676 0.597102
O O7 0.667162 0.586938 0.566186
O O8 0.000000 0.683770 0.750000
O O9 0.000000 0.752314 0.856013
O O10 0.787442 0.122711 0.250000
O O11 0.888708 0.191411 0.250000
O O12 0.500000 0.543204 0.973693
O O13 0.675612 0.500000 0.000000
O O14 0.631658 0.560337 0.136702
O O15 0.000000 0.895126 0.750000
#
# Coordination Sequence:
#
# PCOD9468985 Si02
#       7
#    16  16   8   8  16   8   4
#     4  12  24  37  57  80 110 149 194 236 279 329
#     4  10  22  36  53  80 114 148 185 230 278 334
#     4  10  22  41  57  76 105 149 192 236 278 327
#     4  12  22  35  58  82 113 148 194 234 277 330
#     4   9  18  31  50  77 110 146 181 222 273 337
#     4  10  18  30  51  77 109 152 187 218 273 339
#     4  10  20  36  56  78 106 150 196 228 268 332
#
# _framework density 16.311675000000001
#
# number of rings (size 3 to 8) (size 9 to 14) (size 15 to 20)
#    0.316    1.263    4.737    0.632    5.895    0.421 
#    0.000    0.000    0.000    0.000    0.000    0.737 
#    0.000    0.000    0.000    0.000    0.000    0.000 
#
# Total GULP energy -211776.902652 kJ/mol
# GULP energy per Si atom -5573.076386 kJ/mol
# Density = 1.627455 g / cm^3
# Si number density = 16.311675 Si / 1000 Ang^3
#
#
#
# Elastic Constant Matrix: (Units=GPa)
#
#
# Indices 1 2 3 4 5 6 
#
# 1 58.0646 23.9178 48.4422 0.0000 0.0000 0.0000
# 2 23.9178 124.6798 52.0899 0.0000 0.0000 0.0000
# 3 48.4422 52.0899 137.4126 0.0000 0.0000 0.0000
# 4 0.0000 0.0000 0.0000 -0.6955 0.0000 0.0000
# 5 0.0000 0.0000 0.0000 0.0000 22.4098 0.0000
# 6 0.0000 0.0000 0.0000 0.0000 0.0000 17.6454
#
#
#
# Elastic Compliance Matrix: (Units=1/GPa)
#
#
# Indices 1 2 3 4 5 6 
#
# 1 0.024574 -0.001301 -0.008170 0.000000 0.000000 0.000000
# 2 -0.001301 0.009599 -0.003180 0.000000 0.000000 0.000000
# 3 -0.008170 -0.003180 0.011363 0.000000 0.000000 0.000000
# 4 0.000000 0.000000 0.000000 -1.437866 0.000000 0.000000
# 5 0.000000 0.000000 0.000000 0.000000 0.044623 0.000000
# 6 0.000000 0.000000 0.000000 0.000000 0.000000 0.056672
#
#
# Mechanical properties :
#
#
# Convention : Reuss Voigt Hill
#
# Bulk Modulus (GPa) = 49.42167 63.22853 56.32510
# Shear Modulus (GPa) = -3.97144 20.91910 8.47383
#
# Velocity S-wave (km/s) = -1.56205 3.58503 2.28172
# Velocity P-wave (km/s) = 5.20680 7.48221 6.44571
#
# Compressibility (1/GPa) = 0.02023404
#
# Stress axis : x y z
#
# Youngs Moduli (GPa) = 40.69323 104.18104 88.00469
#
# Poissons Ratio (x) = 0.13552 0.71900
# Poissons Ratio (y) = 0.05293 0.27986
# Poissons Ratio (z) = 0.33247 0.33130
#
# Static dielectric constant tensor:
#      x y z
#    x 1.527660 0.000000 0.000000 
#    y 0.000000 1.568820 0.000000 
#    z 0.000000 0.000000 1.654400 
# 
# From -- ./inp_files/17935.got.cif
#   From: 2010.05.17/outbox.cif.g08.bks.cpg/sg63_9_cif.got.tgz:17935.got - 2010.06.03 15:47:04.
