data_PCOD9468737
_publ_section_title
;
Structure prediction by ZEFSAII (Michael W. Deem and Ramdas Pophale) SiO2 
 PCOD9468737
Probable space group: C M C M
;
_chemical_formula_sum "Si O2"
_cell_formula_units_Z 72
_cell_length_a 17.075589
_cell_length_b 21.320646
_cell_length_c 11.260231
_cell_angle_alpha 90.000000
_cell_angle_beta 90.000000
_cell_angle_gamma 90.000000
_cell_volume 4099.428843
_symmetry_space_group_name_H-M "C M C M"
_symmetry_group_IT_number 63
_symmetry_cell_setting 'orthorhombic'
loop_
_space_group_symop_operation_xyz
x,y,z
-x,-y,1/2+z
x,-y,-z
-x,y,1/2-z
-x,-y,-z
x,y,1/2-z
-x,y,z
x,-y,1/2+z
1/2+x,1/2+y,z
1/2-x,1/2-y,1/2+z
1/2+x,1/2-y,-z
1/2-x,1/2+y,1/2-z
1/2-x,1/2-y,-z
1/2+x,1/2+y,1/2-z
1/2-x,1/2+y,z
1/2+x,1/2-y,1/2+z
loop_
_atom_site_type_symbol
_atom_site_label
_atom_site_fract_x
_atom_site_fract_y
_atom_site_fract_z
Si Si1 0.594025 0.712820 0.250000
Si Si2 0.633537 0.868865 0.985720
Si Si3 0.795110 0.815710 0.529211
Si Si4 0.088819 0.237034 0.616276
Si Si5 0.091949 0.636360 0.750000
Si Si6 0.500000 0.954225 0.886226
O O1 0.500000 0.697904 0.250000
O O2 0.644287 0.689161 0.137482
O O3 0.600703 0.788237 0.250000
O O4 0.725110 0.864422 0.953138
O O5 0.599623 0.798218 0.966366
O O6 0.577756 0.912228 0.907081
O O7 0.626339 0.886474 0.124741
O O8 0.750000 0.750000 0.500000
O O9 0.851839 0.818322 0.416021
O O10 0.103902 0.259258 0.750000
O O11 0.000000 0.215721 0.605401
O O12 0.000000 0.622660 0.750000
O O13 0.500000 0.978164 0.750000
O O14 0.500000 0.000000 0.000000
#
# Coordination Sequence:
#
# PCOD9468737 Si02
#       6
#     8  16  16  16   8   8
#     4  11  20  32  46  73 113 151 189 226 269 337
#     4  11  22  34  54  73 105 142 185 233 271 335
#     4  10  21  28  47  73 104 142 187 225 265 319
#     4  10  18  29  46  72 108 147 180 216 264 317
#     4  11  18  30  50  72 104 150 188 216 273 313
#     4  12  28  46  62  80 104 144 192 242 291 340
#
# _framework density 17.563421999999999
#
# number of rings (size 3 to 8) (size 9 to 14) (size 15 to 20)
#    0.000    1.333    6.667    1.333   10.889    0.000 
#    0.000    0.000    0.000    0.000    0.000    0.000 
#    0.000    3.556    1.333    0.000    0.000    0.000 
#
# Total GULP energy -200444.264480 kJ/mol
# GULP energy per Si atom -5567.896236 kJ/mol
# Density = 1.752345 g / cm^3
# Si number density = 17.563422 Si / 1000 Ang^3
#
#
#
# Elastic Constant Matrix: (Units=GPa)
#
#
# Indices 1 2 3 4 5 6 
#
# 1 104.7373 20.9919 45.6959 0.0000 0.0000 0.0000
# 2 20.9919 27.7700 9.7387 0.0000 0.0000 0.0000
# 3 45.6959 9.7387 107.2423 0.0000 0.0000 0.0000
# 4 0.0000 0.0000 0.0000 8.4228 0.0000 0.0000
# 5 0.0000 0.0000 0.0000 0.0000 25.9899 0.0000
# 6 0.0000 0.0000 0.0000 0.0000 0.0000 9.5668
#
#
#
# Elastic Compliance Matrix: (Units=1/GPa)
#
#
# Indices 1 2 3 4 5 6 
#
# 1 0.013384 -0.008384 -0.004942 0.000000 0.000000 0.000000
# 2 -0.008384 0.042447 -0.000282 0.000000 0.000000 0.000000
# 3 -0.004942 -0.000282 0.011456 0.000000 0.000000 0.000000
# 4 0.000000 0.000000 0.000000 0.118726 0.000000 0.000000
# 5 0.000000 0.000000 0.000000 0.000000 0.038477 0.000000
# 6 0.000000 0.000000 0.000000 0.000000 0.000000 0.104528
#
#
# Mechanical properties :
#
#
# Convention : Reuss Voigt Hill
#
# Bulk Modulus (GPa) = 24.95576 43.62253 34.28915
# Shear Modulus (GPa) = 13.52848 19.68409 16.60629
#
# Velocity S-wave (km/s) = 2.77837 3.35138 3.07824
# Velocity P-wave (km/s) = 4.95301 6.31401 5.67446
#
# Compressibility (1/GPa) = 0.04007091
#
# Stress axis : x y z
#
# Youngs Moduli (GPa) = 74.71565 23.55887 87.29140
#
# Poissons Ratio (x) = 0.19753 0.43136
# Poissons Ratio (y) = 0.62644 0.02462
# Poissons Ratio (z) = 0.36921 0.00665
#
# Static dielectric constant tensor:
#      x y z
#    x 1.600050 0.000000 0.000000 
#    y 0.000000 1.595420 0.000000 
#    z 0.000000 0.000000 1.703420 
# 
# From -- ./inp_files/20970.got.cif
#   From: 2010.05.17/outbox.cif.g08.bks.cpg/sg63_11_cif.got.tgz:20970.got - 2010.06.03 15:47:04.
