data_PCOD9468955
_publ_section_title
;
Structure prediction by ZEFSAII (Michael W. Deem and Ramdas Pophale) SiO2 
 PCOD9468955
Probable space group: C M C M
;
_chemical_formula_sum "Si O2"
_cell_formula_units_Z 96
_cell_length_a 12.361382
_cell_length_b 26.304295
_cell_length_c 14.643742
_cell_angle_alpha 90.000000
_cell_angle_beta 90.000000
_cell_angle_gamma 90.000000
_cell_volume 4761.521642
_symmetry_space_group_name_H-M "C M C M"
_symmetry_group_IT_number 63
_symmetry_cell_setting 'orthorhombic'
loop_
_space_group_symop_operation_xyz
x,y,z
-x,-y,1/2+z
x,-y,-z
-x,y,1/2-z
-x,-y,-z
x,y,1/2-z
-x,y,z
x,-y,1/2+z
1/2+x,1/2+y,z
1/2-x,1/2-y,1/2+z
1/2+x,1/2-y,-z
1/2-x,1/2+y,1/2-z
1/2-x,1/2-y,-z
1/2+x,1/2+y,1/2-z
1/2-x,1/2+y,z
1/2+x,1/2-y,1/2+z
loop_
_atom_site_type_symbol
_atom_site_label
_atom_site_fract_x
_atom_site_fract_y
_atom_site_fract_z
Si Si1 0.762955 0.396197 0.141996
Si Si2 0.876858 0.890647 0.643096
Si Si3 0.500000 0.880692 0.361137
Si Si4 0.276390 0.709337 0.361292
Si Si5 0.500000 0.762199 0.139599
Si Si6 0.376046 0.298850 0.137959
Si Si7 0.122409 0.995423 0.108272
O O1 0.775032 0.386241 0.250000
O O2 0.695575 0.347277 0.107942
O O3 0.695867 0.447742 0.131661
O O4 0.884869 0.401580 0.104669
O O5 0.889432 0.878472 0.750000
O O6 0.791763 0.848993 0.608143
O O7 0.000000 0.887596 0.602890
O O8 0.839636 0.948802 0.638377
O O9 0.500000 0.886136 0.250000
O O10 0.500000 0.821072 0.384346
O O11 0.268356 0.710217 0.250000
O O12 0.390155 0.734934 0.388607
O O13 0.180314 0.746244 0.392401
O O14 0.500000 0.760041 0.250000
O O15 0.377072 0.299256 0.250000
O O16 0.500000 0.303096 0.107684
O O17 0.000000 0.987671 0.143684
O O18 0.116810 0.000000 0.000000
#
# Coordination Sequence:
#
# PCOD9468955 Si02
#       7
#    16  16   8  16   8  16  16
#     4  10  18  30  50  74  98 122 156 199 238 279
#     4   9  16  27  47  72  93 119 158 198 232 270
#     4   9  16  26  45  75 101 120 148 195 245 280
#     4   9  14  22  40  67  97 120 145 186 231 275
#     4   9  12  20  38  67  98 118 138 181 240 278
#     4   9  16  24  39  68 101 128 149 177 228 285
#     4  10  21  35  49  67  94 128 163 200 243 286
#
# _framework density 20.161622000000001
#
# number of rings (size 3 to 8) (size 9 to 14) (size 15 to 20)
#    0.000    2.667    2.500    1.000    0.000    1.667 
#    0.000    0.417    1.833    1.000    0.000    0.000 
#    0.000    0.000    0.000    0.000    0.000    0.000 
#
# Total GULP energy -267627.815304 kJ/mol
# GULP energy per Si atom -5575.579485 kJ/mol
# Density = 2.011573 g / cm^3
# Si number density = 20.161622 Si / 1000 Ang^3
#
#
#
# Elastic Constant Matrix: (Units=GPa)
#
#
# Indices 1 2 3 4 5 6 
#
# 1 163.4456 96.7596 6.6990 0.0000 0.0000 0.0000
# 2 96.7596 164.3734 -7.6626 0.0000 0.0000 0.0000
# 3 6.6990 -7.6626 41.5940 0.0000 0.0000 0.0000
# 4 0.0000 0.0000 0.0000 -90.7271 0.0000 0.0000
# 5 0.0000 0.0000 0.0000 0.0000 6.0120 0.0000
# 6 0.0000 0.0000 0.0000 0.0000 0.0000 60.8832
#
#
#
# Elastic Compliance Matrix: (Units=1/GPa)
#
#
# Indices 1 2 3 4 5 6 
#
# 1 0.009667 -0.005813 -0.002628 0.000000 0.000000 0.000000
# 2 -0.005813 0.009632 0.002711 0.000000 0.000000 0.000000
# 3 -0.002628 0.002711 0.024965 0.000000 0.000000 0.000000
# 4 0.000000 0.000000 0.000000 -0.011022 0.000000 0.000000
# 5 0.000000 0.000000 0.000000 0.000000 0.166333 0.000000
# 6 0.000000 0.000000 0.000000 0.000000 0.000000 0.016425
#
#
# Mechanical properties :
#
#
# Convention : Reuss Voigt Hill
#
# Bulk Modulus (GPa) = 30.48492 62.33388 46.40940
# Shear Modulus (GPa) = 20.97359 13.47476 17.22418
#
# Velocity S-wave (km/s) = 3.22883 2.58803 2.92602
# Velocity P-wave (km/s) = 5.39013 6.31781 5.87232
#
# Compressibility (1/GPa) = 0.03280310
#
# Stress axis : x y z
#
# Youngs Moduli (GPa) = 103.44010 103.81921 40.05673
#
# Poissons Ratio (x) = 0.60353 0.10527
# Poissons Ratio (y) = 0.60133 -0.10858
# Poissons Ratio (z) = 0.27184 -0.28143
#
# Static dielectric constant tensor:
#      x y z
#    x 1.723750 0.000000 0.000000 
#    y 0.000000 1.733910 0.000000 
#    z 0.000000 0.000000 1.761540 
# 
# From -- ./inp_files/42566.got.cif
#   From: 2010.05.17/outbox.cif.g08.bks.cpg/sg63_22_cif.got.tgz:42566.got - 2010.06.03 15:47:04.
