data_PCOD9468087
_publ_section_title
;
Structure prediction by ZEFSAII (Michael W. Deem and Ramdas Pophale) SiO2 
 PCOD9468087
Probable space group: C M C M
;
_chemical_formula_sum "Si O2"
_cell_formula_units_Z 128
_cell_length_a 23.183831
_cell_length_b 19.318272
_cell_length_c 19.499445
_cell_angle_alpha 90.000000
_cell_angle_beta 90.000000
_cell_angle_gamma 90.000000
_cell_volume 8733.246720
_symmetry_space_group_name_H-M "C M C M"
_symmetry_group_IT_number 63
_symmetry_cell_setting 'orthorhombic'
loop_
_space_group_symop_operation_xyz
x,y,z
-x,-y,1/2+z
x,-y,-z
-x,y,1/2-z
-x,-y,-z
x,y,1/2-z
-x,y,z
x,-y,1/2+z
1/2+x,1/2+y,z
1/2-x,1/2-y,1/2+z
1/2+x,1/2-y,-z
1/2-x,1/2+y,1/2-z
1/2-x,1/2-y,-z
1/2+x,1/2+y,1/2-z
1/2-x,1/2+y,z
1/2+x,1/2-y,1/2+z
loop_
_atom_site_type_symbol
_atom_site_label
_atom_site_fract_x
_atom_site_fract_y
_atom_site_fract_z
Si Si1 0.248996 0.558648 0.088756
Si Si2 0.721355 0.793769 0.605470
Si Si3 0.772754 0.409880 0.428985
Si Si4 0.684370 0.339079 0.174420
Si Si5 0.433804 0.387263 0.121180
Si Si6 0.120767 0.971996 0.921906
Si Si7 0.566308 0.330787 0.535123
Si Si8 0.833971 0.275552 0.041980
O O1 0.224714 0.626170 0.125758
O O2 0.213956 0.487354 0.095768
O O3 0.315000 0.540408 0.106422
O O4 0.247577 0.581007 0.008000
O O5 0.700357 0.740844 0.662606
O O6 0.784572 0.770740 0.578313
O O7 0.681176 0.781523 0.538722
O O8 0.720057 0.379326 0.384493
O O9 0.823376 0.352855 0.428772
O O10 0.702349 0.362283 0.250000
O O11 0.616609 0.351811 0.164486
O O12 0.500000 0.380720 0.144598
O O13 0.415463 0.467955 0.114882
O O14 0.430035 0.353420 0.045043
O O15 0.088855 0.898629 0.925091
O O16 0.127728 0.000000 0.000000
O O17 0.500000 0.316988 0.551347
O O18 0.606634 0.265010 0.549231
#
# Coordination Sequence:
#
# PCOD9468087 Si02
#       8
#    16  16  16  16  16  16  16  16
#     4  10  14  26  49  67  87 109 142 181 221 284
#     4   9  17  26  43  61  81 111 145 181 222 254
#     4   9  17  27  44  70  85 110 142 180 230 263
#     4  11  20  31  42  59  89 120 154 186 213 253
#     4  10  19  29  40  58  88 124 158 181 206 251
#     4  10  15  23  39  65  93 113 144 177 218 259
#     4  10  17  25  40  66  93 118 143 178 223 265
#     4   9  15  25  43  63  86 108 140 181 217 268
#
# _framework density 14.656634
#
# number of rings (size 3 to 8) (size 9 to 14) (size 15 to 20)
#    0.000    2.250    5.000    1.875    0.000    1.750 
#    0.000    0.625    0.000    0.000    0.000    7.875 
#    0.000    8.000    0.000    0.000    0.000    0.000 
#
# Total GULP energy -356358.021374 kJ/mol
# GULP energy per Si atom -5568.094084 kJ/mol
# Density = 1.462327 g / cm^3
# Si number density = 14.656634 Si / 1000 Ang^3
#
#
#
# Elastic Constant Matrix: (Units=GPa)
#
#
# Indices 1 2 3 4 5 6 
#
# 1 86.4153 56.4447 7.2791 0.0000 0.0000 0.0000
# 2 56.4447 126.0591 10.5126 0.0000 0.0000 0.0000
# 3 7.2791 10.5126 15.2233 0.0000 0.0000 0.0000
# 4 0.0000 0.0000 0.0000 2.4257 0.0000 0.0000
# 5 0.0000 0.0000 0.0000 0.0000 4.4347 0.0000
# 6 0.0000 0.0000 0.0000 0.0000 0.0000 23.1639
#
#
#
# Elastic Compliance Matrix: (Units=1/GPa)
#
#
# Indices 1 2 3 4 5 6 
#
# 1 0.016480 -0.007133 -0.002954 0.000000 0.000000 0.000000
# 2 -0.007133 0.011505 -0.004534 0.000000 0.000000 0.000000
# 3 -0.002954 -0.004534 0.070233 0.000000 0.000000 0.000000
# 4 0.000000 0.000000 0.000000 0.412248 0.000000 0.000000
# 5 0.000000 0.000000 0.000000 0.000000 0.225495 0.000000
# 6 0.000000 0.000000 0.000000 0.000000 0.000000 0.043171
#
#
# Mechanical properties :
#
#
# Convention : Reuss Voigt Hill
#
# Bulk Modulus (GPa) = 14.49805 41.79671 28.14738
# Shear Modulus (GPa) = 6.01420 16.23561 11.12490
#
# Velocity S-wave (km/s) = 2.02788 3.33187 2.75805
# Velocity P-wave (km/s) = 3.92382 6.58642 5.42113
#
# Compressibility (1/GPa) = 0.06897481
#
# Stress axis : x y z
#
# Youngs Moduli (GPa) = 60.68031 86.92123 14.23837
#
# Poissons Ratio (x) = 0.61998 0.04207
# Poissons Ratio (y) = 0.43281 0.06456
# Poissons Ratio (z) = 0.17927 0.39411
#
# Static dielectric constant tensor:
#      x y z
#    x 1.466530 0.000000 0.000000 
#    y 0.000000 1.519490 0.000000 
#    z 0.000000 0.000000 1.495050 
# 
# From -- ./inp_files/57803.got.cif
#   From: 2010.05.17/outbox.cif.g08.bks.cpg/sg63_29_cif.got.tgz:57803.got - 2010.06.03 15:47:04.
