data_PCOD9468005
_publ_section_title
;
Structure prediction by ZEFSAII (Michael W. Deem and Ramdas Pophale) SiO2 
 PCOD9468005
Probable space group: P N M A
;
_chemical_formula_sum "Si O2"
_cell_formula_units_Z 48
_cell_length_a 15.000000
_cell_length_b 9.000000
_cell_length_c 18.000000
_cell_angle_alpha 90.000000
_cell_angle_beta 90.000000
_cell_angle_gamma 90.000000
_cell_volume 2430.000000
_symmetry_space_group_name_H-M "P N M A"
_symmetry_group_IT_number 62
_symmetry_cell_setting 'orthorhombic'
loop_
_space_group_symop_operation_xyz
x,y,z
1/2-x,-y,1/2+z
1/2+x,1/2-y,1/2-z
-x,1/2+y,-z
-x,-y,-z
1/2+x,y,1/2-z
1/2-x,1/2+y,1/2+z
x,1/2-y,z
loop_
_atom_site_type_symbol
_atom_site_label
_atom_site_fract_x
_atom_site_fract_y
_atom_site_fract_z
Si Si1 0.680516 0.078146 0.331966
Si Si2 0.537151 0.915545 0.429514
Si Si3 0.886849 0.420675 0.329363
Si Si4 0.970579 0.424999 0.575993
Si Si5 0.693391 0.071456 0.158025
Si Si6 0.868849 0.918928 0.177750
O O1 0.653122 0.250000 0.335062
O O2 0.784227 0.068621 0.353930
O O3 0.674420 0.032905 0.245080
O O4 0.619200 0.988124 0.386969
O O5 0.562024 0.750000 0.452190
O O6 0.455453 0.911910 0.372200
O O7 0.500000 0.000000 0.500000
O O8 0.917447 0.250000 0.340552
O O9 0.886242 0.464902 0.243426
O O10 0.948719 0.539032 0.368743
O O11 0.954114 0.250000 0.568565
O O12 0.885805 0.510234 0.608556
O O13 0.000000 0.500000 0.500000
O O14 0.703059 0.250000 0.153535
O O15 0.783197 0.985295 0.136376
O O16 0.849503 0.750000 0.204640
#
# Coordination Sequence:
#
# PCOD9468005 Si02
#       6
#     8   8   8   8   8   8
#     4   9  20  38  61  86 114 147 187 234 283 336
#     4  11  24  38  56  82 115 153 191 233 284 337
#     4  10  21  39  62  88 117 152 192 238 289 343
#     4  12  25  40  59  85 118 156 194 239 292 351
#     4  10  21  39  63  89 115 150 192 238 291 346
#     4  10  21  38  60  88 117 150 194 242 288 339
#
# _framework density 19.753086
#
# number of rings (size 3 to 8) (size 9 to 14) (size 15 to 20)
#    0.000    1.667    0.000    5.500    0.000   10.667 
#    0.000    1.667    0.000    0.000    0.000    0.000 
#    0.000    0.000    0.000    0.000    0.000    0.000 
#
# Total GULP energy -268002.613528 kJ/mol
# GULP energy per Si atom -5583.387782 kJ/mol
# Density = 1.970813 g / cm^3
# Si number density = 19.753086 Si / 1000 Ang^3
#
#
#
# Elastic Constant Matrix: (Units=GPa)
#
#
# Indices 1 2 3 4 5 6 
#
# 1 21.5465 2.5525 6.0948 0.0000 0.0000 0.0000
# 2 2.5525 57.4254 -17.5162 0.0000 0.0000 0.0000
# 3 6.0948 -17.5162 -13.5985 0.0000 0.0000 0.0000
# 4 0.0000 0.0000 0.0000 28.6292 0.0000 0.0000
# 5 0.0000 0.0000 0.0000 0.0000 67.6651 0.0000
# 6 0.0000 0.0000 0.0000 0.0000 0.0000 34.8089
#
#
#
# Elastic Compliance Matrix: (Units=1/GPa)
#
#
# Indices 1 2 3 4 5 6 
#
# 1 0.041793 0.002768 0.015166 0.000000 0.000000 0.000000
# 2 0.002768 0.012685 -0.015099 0.000000 0.000000 0.000000
# 3 0.015166 -0.015099 -0.047291 0.000000 0.000000 0.000000
# 4 0.000000 0.000000 0.000000 0.034929 0.000000 0.000000
# 5 0.000000 0.000000 0.000000 0.000000 0.014779 0.000000
# 6 0.000000 0.000000 0.000000 0.000000 0.000000 0.028728
#
#
# Mechanical properties :
#
#
# Convention : Reuss Voigt Hill
#
# Bulk Modulus (GPa) = 77.77667 5.29283 41.53475
# Shear Modulus (GPa) = 59.35447 31.17012 45.26229
#
# Velocity S-wave (km/s) = 5.48757 3.97670 4.79205
# Velocity P-wave (km/s) = 8.92251 4.87553 7.18964
#
# Compressibility (1/GPa) = 0.01285733
#
# Stress axis : x y z
#
# Youngs Moduli (GPa) = 23.92719 78.83166 -21.14554
#
# Poissons Ratio (x) = -0.21823 0.32069
# Poissons Ratio (y) = -0.06624 -0.31928
# Poissons Ratio (z) = -0.36287 1.19029
#
# Static dielectric constant tensor:
#      x y z
#    x 1.812770 0.000000 0.000000 
#    y 0.000000 1.686330 0.000000 
#    z 0.000000 0.000000 2.137690 
# 
# From -- ./inp_files/23676.got.cif
#   From: 2010.05.17/outbox.ucp.g08.bks.cvg/sg62_12_cif.got.tgz:23676.got - 2010.06.11 16:29:25.
