data_PCOD9468176
_publ_section_title
;
Structure prediction by ZEFSAII (Michael W. Deem and Ramdas Pophale) SiO2 
 PCOD9468176
Probable space group: C M C M
;
_chemical_formula_sum "Si O2"
_cell_formula_units_Z 88
_cell_length_a 20.206438
_cell_length_b 27.955188
_cell_length_c 9.299602
_cell_angle_alpha 90.000000
_cell_angle_beta 90.000000
_cell_angle_gamma 90.000000
_cell_volume 5253.110570
_symmetry_space_group_name_H-M "C M C M"
_symmetry_group_IT_number 63
_symmetry_cell_setting 'orthorhombic'
loop_
_space_group_symop_operation_xyz
x,y,z
-x,-y,1/2+z
x,-y,-z
-x,y,1/2-z
-x,-y,-z
x,y,1/2-z
-x,y,z
x,-y,1/2+z
1/2+x,1/2+y,z
1/2-x,1/2-y,1/2+z
1/2+x,1/2-y,-z
1/2-x,1/2+y,1/2-z
1/2-x,1/2-y,-z
1/2+x,1/2+y,1/2-z
1/2-x,1/2+y,z
1/2+x,1/2-y,1/2+z
loop_
_atom_site_type_symbol
_atom_site_label
_atom_site_fract_x
_atom_site_fract_y
_atom_site_fract_z
Si Si1 0.850582 0.275383 0.088709
Si Si2 0.500000 0.103180 0.419752
Si Si3 0.500000 0.681882 0.912453
Si Si4 0.364969 0.948612 0.575471
Si Si5 0.644753 0.679189 0.922896
Si Si6 0.223732 0.626763 0.922643
Si Si7 0.500000 0.787242 0.010870
O O1 0.826777 0.265072 0.250000
O O2 0.817592 0.325015 0.042200
O O3 0.835472 0.230422 0.988230
O O4 0.930002 0.282462 0.090726
O O5 0.500000 0.095570 0.250000
O O6 0.432956 0.078108 0.472611
O O7 0.500000 0.159875 0.445351
O O8 0.500000 0.663265 0.750000
O O9 0.570588 0.667826 0.978681
O O10 0.500000 0.740052 0.910548
O O11 0.363188 0.952038 0.750000
O O12 0.305648 0.916193 0.514651
O O13 0.363314 0.000000 0.500000
O O14 0.641202 0.684374 0.750000
O O15 0.700261 0.640041 0.954182
O O16 0.216558 0.618191 0.750000
#
# Coordination Sequence:
#
# PCOD9468176 Si02
#       7
#    16   8   8  16  16  16   8
#     4  10  19  29  44  69 101 133 171 210 250 291
#     4  10  20  34  53  75  98 130 176 215 251 293
#     4   8  15  27  46  71 100 133 166 206 242 286
#     4  11  23  39  56  76  99 130 169 215 260 303
#     4   9  18  31  49  71 100 135 171 205 247 298
#     4  10  20  34  50  72  99 132 169 210 254 304
#     4  10  16  29  45  68  99 136 176 206 247 288
#
# _framework density 16.751978999999999
#
# number of rings (size 3 to 8) (size 9 to 14) (size 15 to 20)
#    0.000    2.182    1.818    1.909    0.000    2.182 
#    0.000    1.364    0.000    0.000    0.000    0.636 
#    0.000    0.000    0.000    0.000    0.000    0.000 
#
# Total GULP energy -245149.450216 kJ/mol
# GULP energy per Si atom -5571.578414 kJ/mol
# Density = 1.671385 g / cm^3
# Si number density = 16.751979 Si / 1000 Ang^3
#
#
#
# Elastic Constant Matrix: (Units=GPa)
#
#
# Indices 1 2 3 4 5 6 
#
# 1 106.0374 58.0332 30.0468 0.0000 0.0000 0.0000
# 2 58.0332 72.8834 23.6052 0.0000 0.0000 0.0000
# 3 30.0468 23.6052 29.7009 0.0000 0.0000 0.0000
# 4 0.0000 0.0000 0.0000 24.3626 0.0000 0.0000
# 5 0.0000 0.0000 0.0000 0.0000 18.0468 0.0000
# 6 0.0000 0.0000 0.0000 0.0000 0.0000 20.8686
#
#
#
# Elastic Compliance Matrix: (Units=1/GPa)
#
#
# Indices 1 2 3 4 5 6 
#
# 1 0.018488 -0.011666 -0.009431 0.000000 0.000000 0.000000
# 2 -0.011666 0.025838 -0.008733 0.000000 0.000000 0.000000
# 3 -0.009431 -0.008733 0.050151 0.000000 0.000000 0.000000
# 4 0.000000 0.000000 0.000000 0.041046 0.000000 0.000000
# 5 0.000000 0.000000 0.000000 0.000000 0.055411 0.000000
# 6 0.000000 0.000000 0.000000 0.000000 0.000000 0.047919
#
#
# Mechanical properties :
#
#
# Convention : Reuss Voigt Hill
#
# Bulk Modulus (GPa) = 28.72268 47.99911 38.36090
# Shear Modulus (GPa) = 16.12275 19.11804 17.62040
#
# Velocity S-wave (km/s) = 3.10568 3.38189 3.24673
# Velocity P-wave (km/s) = 5.48119 6.63058 6.08309
#
# Compressibility (1/GPa) = 0.03481569
#
# Stress axis : x y z
#
# Youngs Moduli (GPa) = 54.08906 38.70209 19.93985
#
# Poissons Ratio (x) = 0.45152 0.18806
# Poissons Ratio (y) = 0.63103 0.17414
# Poissons Ratio (z) = 0.51013 0.33799
#
# Static dielectric constant tensor:
#      x y z
#    x 1.623790 0.000000 0.000000 
#    y 0.000000 1.527630 0.000000 
#    z 0.000000 0.000000 1.579380 
# 
# From -- ./inp_files/8309.got.cif
#   From: 2010.05.17/outbox.cif.g08.bks.cpg/sg63_5_cif.got.tgz:8309.got - 2010.06.03 15:47:04.
