data_PCOD9468820
_publ_section_title
;
Structure prediction by ZEFSAII (Michael W. Deem and Ramdas Pophale) SiO2 
 PCOD9468820
Probable space group: C M C M
;
_chemical_formula_sum "Si O2"
_cell_formula_units_Z 72
_cell_length_a 32.563526
_cell_length_b 19.007878
_cell_length_c 8.634766
_cell_angle_alpha 90.000000
_cell_angle_beta 90.000000
_cell_angle_gamma 90.000000
_cell_volume 5344.605239
_symmetry_space_group_name_H-M "C M C M"
_symmetry_group_IT_number 63
_symmetry_cell_setting 'orthorhombic'
loop_
_space_group_symop_operation_xyz
x,y,z
-x,-y,1/2+z
x,-y,-z
-x,y,1/2-z
-x,-y,-z
x,y,1/2-z
-x,y,z
x,-y,1/2+z
1/2+x,1/2+y,z
1/2-x,1/2-y,1/2+z
1/2+x,1/2-y,-z
1/2-x,1/2+y,1/2-z
1/2-x,1/2-y,-z
1/2+x,1/2+y,1/2-z
1/2-x,1/2+y,z
1/2+x,1/2-y,1/2+z
loop_
_atom_site_type_symbol
_atom_site_label
_atom_site_fract_x
_atom_site_fract_y
_atom_site_fract_z
Si Si1 0.585761 0.920488 0.065034
Si Si2 0.708543 0.286006 0.563745
Si Si3 0.000000 0.420195 0.564785
Si Si4 0.251756 0.077842 0.435986
Si Si5 0.835575 0.658965 0.064003
O O1 0.583654 0.924058 0.250000
O O2 0.542824 0.890382 0.998693
O O3 0.624183 0.874841 0.009597
O O4 0.590805 0.000000 0.000000
O O5 0.707404 0.280895 0.750000
O O6 0.750000 0.250000 0.500000
O O7 0.715440 0.367625 0.520181
O O8 0.672745 0.238623 0.492154
O O9 0.000000 0.500000 0.500000
O O10 0.000000 0.420954 0.750000
O O11 0.252536 0.074835 0.250000
O O12 0.295499 0.112554 0.483763
O O13 0.247196 0.000000 0.500000
O O14 0.838074 0.657203 0.250000
#
# Coordination Sequence:
#
# PCOD9468820 Si02
#       5
#    16  16   8  16  16
#     4  11  20  30  43  60  81 106 135 169 204 240
#     4   9  17  29  41  56  77 103 132 166 204 243
#     4  10  18  30  44  58  78 104 133 166 201 240
#     4   9  18  28  40  57  78 102 133 167 201 238
#     4  10  19  30  42  59  79 104 137 171 204 241
#
# _framework density 13.471529
#
# number of rings (size 3 to 8) (size 9 to 14) (size 15 to 20)
#    0.000    2.222    0.000    7.667    0.000    7.111 
#    0.000    0.000    0.000    0.000    0.000    0.000 
#    0.000    0.000    0.000    1.000    0.000   13.556 
#
# Total GULP energy -200575.678560 kJ/mol
# GULP energy per Si atom -5571.546627 kJ/mol
# Density = 1.344087 g / cm^3
# Si number density = 13.471529 Si / 1000 Ang^3
#
#
#
# Elastic Constant Matrix: (Units=GPa)
#
#
# Indices 1 2 3 4 5 6 
#
# 1 94.3208 52.8020 40.8387 0.0000 0.0000 0.0000
# 2 52.8020 95.3042 33.1933 0.0000 0.0000 0.0000
# 3 40.8387 33.1933 85.1473 0.0000 0.0000 0.0000
# 4 0.0000 0.0000 0.0000 22.6635 0.0000 0.0000
# 5 0.0000 0.0000 0.0000 0.0000 21.9068 0.0000
# 6 0.0000 0.0000 0.0000 0.0000 0.0000 18.9346
#
#
#
# Elastic Compliance Matrix: (Units=1/GPa)
#
#
# Indices 1 2 3 4 5 6 
#
# 1 0.017177 -0.007691 -0.005240 0.000000 0.000000 0.000000
# 2 -0.007691 0.015585 -0.002387 0.000000 0.000000 0.000000
# 3 -0.005240 -0.002387 0.015188 0.000000 0.000000 0.000000
# 4 0.000000 0.000000 0.000000 0.044124 0.000000 0.000000
# 5 0.000000 0.000000 0.000000 0.000000 0.045648 0.000000
# 6 0.000000 0.000000 0.000000 0.000000 0.000000 0.052813
#
#
# Mechanical properties :
#
#
# Convention : Reuss Voigt Hill
#
# Bulk Modulus (GPa) = 57.75752 58.71559 58.23655
# Shear Modulus (GPa) = 22.03202 22.56355 22.29779
#
# Velocity S-wave (km/s) = 4.04846 4.09700 4.07280
# Velocity P-wave (km/s) = 8.05110 8.12774 8.08951
#
# Compressibility (1/GPa) = 0.01731376
#
# Stress axis : x y z
#
# Youngs Moduli (GPa) = 58.21843 64.16289 65.84158
#
# Poissons Ratio (x) = 0.49351 0.34501
# Poissons Ratio (y) = 0.44779 0.15714
# Poissons Ratio (z) = 0.30506 0.15314
#
# Static dielectric constant tensor:
#      x y z
#    x 1.227120 0.000000 0.000000 
#    y 0.000000 1.450970 0.000000 
#    z 0.000000 0.000000 1.452330 
# 
# From -- ./inp_files/11892.got.cif
#   From: 2010.05.17/outbox.cif.g08.bks.cpg/sg63_6_cif.got.tgz:11892.got - 2010.06.03 15:47:04.
