data_PCOD9468293
_publ_section_title
;
Structure prediction by ZEFSAII (Michael W. Deem and Ramdas Pophale) SiO2 
 PCOD9468293
Probable space group: C M C M
;
_chemical_formula_sum "Si O2"
_cell_formula_units_Z 88
_cell_length_a 12.289439
_cell_length_b 26.920927
_cell_length_c 15.871182
_cell_angle_alpha 90.000000
_cell_angle_beta 90.000000
_cell_angle_gamma 90.000000
_cell_volume 5250.870898
_symmetry_space_group_name_H-M "C M C M"
_symmetry_group_IT_number 63
_symmetry_cell_setting 'orthorhombic'
loop_
_space_group_symop_operation_xyz
x,y,z
-x,-y,1/2+z
x,-y,-z
-x,y,1/2-z
-x,-y,-z
x,y,1/2-z
-x,y,z
x,-y,1/2+z
1/2+x,1/2+y,z
1/2-x,1/2-y,1/2+z
1/2+x,1/2-y,-z
1/2-x,1/2+y,1/2-z
1/2-x,1/2-y,-z
1/2+x,1/2+y,1/2-z
1/2-x,1/2+y,z
1/2+x,1/2-y,1/2+z
loop_
_atom_site_type_symbol
_atom_site_label
_atom_site_fract_x
_atom_site_fract_y
_atom_site_fract_z
Si Si1 0.729471 0.342081 0.250000
Si Si2 0.370332 0.371127 0.074899
Si Si3 0.870596 0.057965 0.154039
Si Si4 0.371901 0.058348 0.750000
Si Si5 0.368849 0.333089 0.601848
Si Si6 0.264960 0.973401 0.421737
Si Si7 0.367215 0.741626 0.250000
O O1 0.657980 0.347891 0.334591
O O2 0.810435 0.389019 0.250000
O O3 0.801771 0.292707 0.250000
O O4 0.500000 0.383457 0.070257
O O5 0.295845 0.420598 0.063730
O O6 0.344464 0.333500 0.997755
O O7 0.843091 0.045788 0.250000
O O8 0.828766 0.112982 0.133200
O O9 0.000000 0.060024 0.146361
O O10 0.826541 0.014430 0.097128
O O11 0.500000 0.064968 0.750000
O O12 0.334973 0.032067 0.663293
O O13 0.500000 0.333415 0.608913
O O14 0.335520 0.290235 0.666619
O O15 0.325797 0.000000 0.500000
O O16 0.500000 0.748490 0.250000
#
# Coordination Sequence:
#
# PCOD9468293 Si02
#       7
#     8  16  16   8  16  16   8
#     4  10  22  36  52  70  92 136 178 210 250 296
#     4  10  20  33  49  77 113 136 156 194 248 312
#     4  10  17  27  46  78 115 140 158 192 245 306
#     4  10  23  40  50  67  99 132 176 227 251 275
#     4   9  17  29  49  76 104 129 157 203 255 298
#     4  11  20  31  53  80 104 139 171 192 244 309
#     4  10  19  34  54  73  91 124 176 223 259 287
#
# _framework density 16.759125000000001
#
# number of rings (size 3 to 8) (size 9 to 14) (size 15 to 20)
#    0.000    2.000    3.636    1.091    0.000    1.818 
#    0.000    0.000    0.000    0.000    0.000    6.364 
#    0.000    0.000    0.000    0.000    0.000    0.000 
#
# Total GULP energy -244960.137886 kJ/mol
# GULP energy per Si atom -5567.275861 kJ/mol
# Density = 1.672098 g / cm^3
# Si number density = 16.759125 Si / 1000 Ang^3
#
#
#
# Elastic Constant Matrix: (Units=GPa)
#
#
# Indices 1 2 3 4 5 6 
#
# 1 35.0202 -1.6354 25.0940 0.0000 0.0000 0.0000
# 2 -1.6354 58.6870 33.5565 0.0000 0.0000 0.0000
# 3 25.0940 33.5565 117.5386 0.0000 0.0000 0.0000
# 4 0.0000 0.0000 0.0000 19.7344 0.0000 0.0000
# 5 0.0000 0.0000 0.0000 0.0000 9.0261 0.0000
# 6 0.0000 0.0000 0.0000 0.0000 0.0000 20.3569
#
#
#
# Elastic Compliance Matrix: (Units=1/GPa)
#
#
# Indices 1 2 3 4 5 6 
#
# 1 0.035605 0.006380 -0.009423 0.000000 0.000000 0.000000
# 2 0.006380 0.021507 -0.007502 0.000000 0.000000 0.000000
# 3 -0.009423 -0.007502 0.012661 0.000000 0.000000 0.000000
# 4 0.000000 0.000000 0.000000 0.050673 0.000000 0.000000
# 5 0.000000 0.000000 0.000000 0.000000 0.110790 0.000000
# 6 0.000000 0.000000 0.000000 0.000000 0.000000 0.049123
#
#
# Mechanical properties :
#
#
# Convention : Reuss Voigt Hill
#
# Bulk Modulus (GPa) = 20.54090 36.14175 28.34133
# Shear Modulus (GPa) = 15.73923 20.10554 17.92239
#
# Velocity S-wave (km/s) = 3.06787 3.46739 3.27373
# Velocity P-wave (km/s) = 4.98320 6.13536 5.58905
#
# Compressibility (1/GPa) = 0.04868335
#
# Stress axis : x y z
#
# Youngs Moduli (GPa) = 28.08591 46.49640 78.97992
#
# Poissons Ratio (x) = -0.29665 0.74423
# Poissons Ratio (y) = -0.17919 0.59253
# Poissons Ratio (z) = 0.26465 0.34883
#
# Static dielectric constant tensor:
#      x y z
#    x 1.529670 0.000000 0.000000 
#    y 0.000000 1.556880 0.000000 
#    z 0.000000 0.000000 1.647270 
# 
# From -- ./inp_files/30187.got.cif
#   From: 2010.05.17/outbox.cif.g08.bks.cpg/sg63_16_cif.got.tgz:30187.got - 2010.06.03 15:47:04.
