data_PCOD9468249
_publ_section_title
;
Structure prediction by ZEFSAII (Michael W. Deem and Ramdas Pophale) SiO2 
 PCOD9468249
Probable space group: C M C M
;
_chemical_formula_sum "Si O2"
_cell_formula_units_Z 80
_cell_length_a 26.488602
_cell_length_b 9.526130
_cell_length_c 16.041520
_cell_angle_alpha 90.000000
_cell_angle_beta 90.000000
_cell_angle_gamma 90.000000
_cell_volume 4047.818761
_symmetry_space_group_name_H-M "C M C M"
_symmetry_group_IT_number 63
_symmetry_cell_setting 'orthorhombic'
loop_
_space_group_symop_operation_xyz
x,y,z
-x,-y,1/2+z
x,-y,-z
-x,y,1/2-z
-x,-y,-z
x,y,1/2-z
-x,y,z
x,-y,1/2+z
1/2+x,1/2+y,z
1/2-x,1/2-y,1/2+z
1/2+x,1/2-y,-z
1/2-x,1/2+y,1/2-z
1/2-x,1/2-y,-z
1/2+x,1/2+y,1/2-z
1/2-x,1/2+y,z
1/2+x,1/2-y,1/2+z
loop_
_atom_site_type_symbol
_atom_site_label
_atom_site_fract_x
_atom_site_fract_y
_atom_site_fract_z
Si Si1 0.610863 0.748313 0.346774
Si Si2 0.397083 0.438456 0.407248
Si Si3 0.795004 0.080475 0.845149
Si Si4 0.217534 0.225317 0.083474
Si Si5 0.500000 0.587623 0.849930
Si Si6 0.500000 0.741494 0.351182
O O1 0.619987 0.789561 0.250000
O O2 0.605086 0.578117 0.349415
O O3 0.659288 0.775705 0.405574
O O4 0.555168 0.801261 0.375326
O O5 0.397228 0.500000 0.500000
O O6 0.345749 0.358078 0.386881
O O7 0.447915 0.355685 0.386825
O O8 0.804864 0.042302 0.750000
O O9 0.782863 0.939503 0.896093
O O10 0.749713 0.188759 0.849706
O O11 0.250000 0.250000 0.000000
O O12 0.500000 0.596273 0.750000
O O13 0.500000 0.422742 0.877149
O O14 0.500000 0.742300 0.250000
#
# Coordination Sequence:
#
# PCOD9468249 Si02
#       6
#    16  16  16  16   8   8
#     4   9  16  29  46  67  93 124 160 205 253 299
#     4  10  17  26  41  65  94 124 159 203 250 295
#     4  11  21  35  52  73 100 135 172 208 249 304
#     4  11  21  34  51  75 105 135 167 208 253 300
#     4   9  15  25  39  59  88 125 160 197 244 297
#     4   7  12  23  43  65  87 113 151 203 254 287
#
# _framework density 19.763731
#
# number of rings (size 3 to 8) (size 9 to 14) (size 15 to 20)
#    0.000    2.200    0.000    9.300    0.000    0.000 
#    0.000    0.000    0.000    0.000    0.000    4.200 
#    0.000    1.600    0.000    0.000    0.000    0.000 
#
# Total GULP energy -222760.497806 kJ/mol
# GULP energy per Si atom -5569.012445 kJ/mol
# Density = 1.971875 g / cm^3
# Si number density = 19.763731 Si / 1000 Ang^3
#
#
#
# Elastic Constant Matrix: (Units=GPa)
#
#
# Indices 1 2 3 4 5 6 
#
# 1 213.6745 21.7719 36.1944 0.0000 0.0000 0.0000
# 2 21.7719 11.7209 2.3694 0.0000 0.0000 0.0000
# 3 36.1944 2.3694 97.1481 0.0000 0.0000 0.0000
# 4 0.0000 0.0000 0.0000 15.9592 0.0000 0.0000
# 5 0.0000 0.0000 0.0000 0.0000 34.7562 0.0000
# 6 0.0000 0.0000 0.0000 0.0000 0.0000 13.0160
#
#
#
# Elastic Compliance Matrix: (Units=1/GPa)
#
#
# Indices 1 2 3 4 5 6 
#
# 1 0.006143 -0.011003 -0.002020 0.000000 0.000000 0.000000
# 2 -0.011003 0.105447 0.001528 0.000000 0.000000 0.000000
# 3 -0.002020 0.001528 0.011009 0.000000 0.000000 0.000000
# 4 0.000000 0.000000 0.000000 0.062660 0.000000 0.000000
# 5 0.000000 0.000000 0.000000 0.000000 0.028772 0.000000
# 6 0.000000 0.000000 0.000000 0.000000 0.000000 0.076828
#
#
# Mechanical properties :
#
#
# Convention : Reuss Voigt Hill
#
# Bulk Modulus (GPa) = 10.03941 49.24613 29.64277
# Shear Modulus (GPa) = 14.40699 30.22681 22.31690
#
# Velocity S-wave (km/s) = 2.70286 3.91501 3.36398
# Velocity P-wave (km/s) = 3.85115 6.73854 5.48813
#
# Compressibility (1/GPa) = 0.09960749
#
# Stress axis : x y z
#
# Youngs Moduli (GPa) = 162.77645 9.48344 90.83419
#
# Poissons Ratio (x) = 0.10435 0.18353
# Poissons Ratio (y) = 1.79104 -0.13875
# Poissons Ratio (z) = 0.32889 -0.01449
#
# Static dielectric constant tensor:
#      x y z
#    x 1.830410 0.000000 0.000000 
#    y 0.000000 1.664710 0.000000 
#    z 0.000000 0.000000 1.744800 
# 
# From -- ./inp_files/37740.got.cif
#   From: 2010.05.17/outbox.cif.g08.bks.cpg/sg63_19_cif.got.tgz:37740.got - 2010.06.03 15:47:04.
