data_PCOD9468346
_publ_section_title
;
Structure prediction by ZEFSAII (Michael W. Deem and Ramdas Pophale) SiO2 
 PCOD9468346
Probable space group: C M C M
;
_chemical_formula_sum "Si O2"
_cell_formula_units_Z 80
_cell_length_a 9.914495
_cell_length_b 24.951938
_cell_length_c 20.892816
_cell_angle_alpha 90.000000
_cell_angle_beta 90.000000
_cell_angle_gamma 90.000000
_cell_volume 5168.587349
_symmetry_space_group_name_H-M "C M C M"
_symmetry_group_IT_number 63
_symmetry_cell_setting 'orthorhombic'
loop_
_space_group_symop_operation_xyz
x,y,z
-x,-y,1/2+z
x,-y,-z
-x,y,1/2-z
-x,-y,-z
x,y,1/2-z
-x,y,z
x,-y,1/2+z
1/2+x,1/2+y,z
1/2-x,1/2-y,1/2+z
1/2+x,1/2-y,-z
1/2-x,1/2+y,1/2-z
1/2-x,1/2-y,-z
1/2+x,1/2+y,1/2-z
1/2-x,1/2+y,z
1/2+x,1/2-y,1/2+z
loop_
_atom_site_type_symbol
_atom_site_label
_atom_site_fract_x
_atom_site_fract_y
_atom_site_fract_z
Si Si1 0.000000 0.914582 0.820623
Si Si2 0.000000 0.327716 0.454560
Si Si3 0.216483 0.853980 0.996291
Si Si4 0.500000 0.213964 0.181790
Si Si5 0.785573 0.823984 0.650995
Si Si6 0.500000 0.274947 0.049470
Si Si7 0.500000 0.443416 0.965222
Si Si8 0.000000 0.268115 0.322480
O O1 0.871718 0.874604 0.825354
O O2 0.000000 0.947263 0.887373
O O3 0.000000 0.940723 0.750000
O O4 0.135604 0.358872 0.474165
O O5 0.000000 0.273156 0.497631
O O6 0.000000 0.310088 0.380488
O O7 0.129507 0.812116 0.037495
O O8 0.224575 0.828394 0.925552
O O9 0.129343 0.907838 0.986675
O O10 0.500000 0.243141 0.250000
O O11 0.364328 0.179422 0.177400
O O12 0.500000 0.251619 0.120207
O O13 0.871093 0.771251 0.668934
O O14 0.500000 0.500000 0.000000
O O15 0.000000 0.289648 0.250000
#
# Coordination Sequence:
#
# PCOD9468346 Si02
#       8
#     8   8  16   8  16   8   8   8
#     4   9  17  30  50  70  93 118 150 189 240 300
#     4  12  18  30  49  69 100 126 168 189 223 287
#     4  10  19  31  51  73  88 131 163 197 237 276
#     4  12  21  25  38  65 104 136 155 187 228 268
#     4  10  17  29  42  66  97 126 159 190 230 281
#     4  11  18  30  46  65 101 132 167 180 220 275
#     4   9  20  37  55  71  95 115 157 207 250 284
#     4  11  20  28  42  62  95 137 169 194 221 258
#
# _framework density 15.478118
#
# number of rings (size 3 to 8) (size 9 to 14) (size 15 to 20)
#    0.000    1.600    4.000    5.400    0.000    0.000 
#    0.000    0.500    0.000    3.600    0.000    0.000 
#    0.000    0.000    0.000    0.000    0.000    0.000 
#
# Total GULP energy -223099.875171 kJ/mol
# GULP energy per Si atom -5577.496879 kJ/mol
# Density = 1.544289 g / cm^3
# Si number density = 15.478118 Si / 1000 Ang^3
#
#
#
# Elastic Constant Matrix: (Units=GPa)
#
#
# Indices 1 2 3 4 5 6 
#
# 1 138.0803 28.9554 38.7113 0.0000 0.0000 0.0000
# 2 28.9554 49.7860 44.9434 0.0000 0.0000 0.0000
# 3 38.7113 44.9434 155.2769 0.0000 0.0000 0.0000
# 4 0.0000 0.0000 0.0000 14.7631 0.0000 0.0000
# 5 0.0000 0.0000 0.0000 0.0000 -19.3012 0.0000
# 6 0.0000 0.0000 0.0000 0.0000 0.0000 0.9302
#
#
#
# Elastic Compliance Matrix: (Units=1/GPa)
#
#
# Indices 1 2 3 4 5 6 
#
# 1 0.008343 -0.004027 -0.000914 0.000000 0.000000 0.000000
# 2 -0.004027 0.029134 -0.007429 0.000000 0.000000 0.000000
# 3 -0.000914 -0.007429 0.008818 0.000000 0.000000 0.000000
# 4 0.000000 0.000000 0.000000 0.067736 0.000000 0.000000
# 5 0.000000 0.000000 0.000000 0.000000 -0.051810 0.000000
# 6 0.000000 0.000000 0.000000 0.000000 0.000000 1.075080
#
#
# Mechanical properties :
#
#
# Convention : Reuss Voigt Hill
#
# Bulk Modulus (GPa) = 46.39191 63.15151 54.77171
# Shear Modulus (GPa) = 4.27633 14.64729 9.46181
#
# Velocity S-wave (km/s) = 1.66398 3.07957 2.47514
# Velocity P-wave (km/s) = 5.80770 7.31670 6.60543
#
# Compressibility (1/GPa) = 0.02155548
#
# Stress axis : x y z
#
# Youngs Moduli (GPa) = 119.86192 34.32415 113.40130
#
# Poissons Ratio (x) = 0.13821 0.10370
# Poissons Ratio (y) = 0.48265 0.84242
# Poissons Ratio (z) = 0.10961 0.25498
#
# Static dielectric constant tensor:
#      x y z
#    x 1.541990 0.000000 0.000000 
#    y 0.000000 1.467750 0.000000 
#    z 0.000000 0.000000 1.547690 
# 
# From -- ./inp_files/51244.got.cif
#   From: 2010.05.17/outbox.cif.g08.bks.cpg/sg63_26_cif.got.tgz:51244.got - 2010.06.03 15:47:04.
