data_PCOD9468716
_publ_section_title
;
Structure prediction by ZEFSAII (Michael W. Deem and Ramdas Pophale) SiO2 
 PCOD9468716
Probable space group: C M C M
;
_chemical_formula_sum "Si O2"
_cell_formula_units_Z 104
_cell_length_a 25.678610
_cell_length_b 9.482255
_cell_length_c 26.853564
_cell_angle_alpha 90.000000
_cell_angle_beta 90.000000
_cell_angle_gamma 90.000000
_cell_volume 6538.604591
_symmetry_space_group_name_H-M "C M C M"
_symmetry_group_IT_number 63
_symmetry_cell_setting 'orthorhombic'
loop_
_space_group_symop_operation_xyz
x,y,z
-x,-y,1/2+z
x,-y,-z
-x,y,1/2-z
-x,-y,-z
x,y,1/2-z
-x,y,z
x,-y,1/2+z
1/2+x,1/2+y,z
1/2-x,1/2-y,1/2+z
1/2+x,1/2-y,-z
1/2-x,1/2+y,1/2-z
1/2-x,1/2-y,-z
1/2+x,1/2+y,1/2-z
1/2-x,1/2+y,z
1/2+x,1/2-y,1/2+z
loop_
_atom_site_type_symbol
_atom_site_label
_atom_site_fract_x
_atom_site_fract_y
_atom_site_fract_z
Si Si1 0.000000 0.294289 0.053961
Si Si2 0.605665 0.804945 0.894433
Si Si3 0.000000 0.796608 0.445121
Si Si4 0.197484 0.814430 0.556432
Si Si5 0.797250 0.136811 0.562575
Si Si6 0.612953 0.077967 0.947784
Si Si7 0.500000 0.552875 0.370684
Si Si8 0.559743 0.642246 0.806827
O O1 0.052258 0.384500 0.050178
O O2 0.000000 0.205094 0.104995
O O3 0.000000 0.197828 0.004383
O O4 0.552326 0.779493 0.925683
O O5 0.651593 0.711687 0.916994
O O6 0.593739 0.748062 0.839371
O O7 0.621131 0.966053 0.903674
O O8 0.000000 0.945706 0.417236
O O9 0.202733 0.843793 0.497231
O O10 0.244644 0.719073 0.577073
O O11 0.145594 0.720291 0.560690
O O12 0.200147 0.972671 0.577617
O O13 0.628549 0.000000 0.000000
O O14 0.450433 0.504504 0.337027
O O15 0.576255 0.621881 0.750000
O O16 0.500000 0.699931 0.806475
#
# Coordination Sequence:
#
# PCOD9468716 Si02
#       8
#     8  16   8  16  16  16   8  16
#     4  12  21  29  45  71 117 150 169 201 258 319
#     4  11  19  33  52  76 104 142 185 213 263 320
#     4  10  18  29  45  69 110 142 173 203 249 307
#     4  10  21  33  49  70 106 144 180 222 252 305
#     4  10  20  33  51  72 101 140 187 220 260 304
#     4  12  22  32  46  72 115 153 179 208 254 311
#     4   8  18  29  47  71 101 132 178 213 252 308
#     4   8  17  34  56  74  99 133 178 229 272 316
#
# _framework density 15.905535
#
# number of rings (size 3 to 8) (size 9 to 14) (size 15 to 20)
#    0.462    1.385    3.846    1.846    6.462    0.000 
#    0.000    0.000    0.000    1.846    0.000    4.308 
#    0.000    0.000    0.000    0.000    0.000    0.000 
#
# Total GULP energy -289474.057702 kJ/mol
# GULP energy per Si atom -5566.808802 kJ/mol
# Density = 1.586933 g / cm^3
# Si number density = 15.905535 Si / 1000 Ang^3
#
#
#
# Elastic Constant Matrix: (Units=GPa)
#
#
# Indices 1 2 3 4 5 6 
#
# 1 91.8719 46.2302 5.3134 0.0000 0.0000 0.0000
# 2 46.2302 106.3969 24.4170 0.0000 0.0000 0.0000
# 3 5.3134 24.4170 79.3601 0.0000 0.0000 0.0000
# 4 0.0000 0.0000 0.0000 9.9485 0.0000 0.0000
# 5 0.0000 0.0000 0.0000 0.0000 4.2504 0.0000
# 6 0.0000 0.0000 0.0000 0.0000 0.0000 10.0366
#
#
#
# Elastic Compliance Matrix: (Units=1/GPa)
#
#
# Indices 1 2 3 4 5 6 
#
# 1 0.014005 -0.006316 0.001006 0.000000 0.000000 0.000000
# 2 -0.006316 0.012961 -0.003565 0.000000 0.000000 0.000000
# 3 0.001006 -0.003565 0.013630 0.000000 0.000000 0.000000
# 4 0.000000 0.000000 0.000000 0.100517 0.000000 0.000000
# 5 0.000000 0.000000 0.000000 0.000000 0.235273 0.000000
# 6 0.000000 0.000000 0.000000 0.000000 0.000000 0.099635
#
#
# Mechanical properties :
#
#
# Convention : Reuss Voigt Hill
#
# Bulk Modulus (GPa) = 43.77197 47.72779 45.74988
# Shear Modulus (GPa) = 9.97232 18.29165 14.13199
#
# Velocity S-wave (km/s) = 2.50666 3.39487 2.98400
# Velocity P-wave (km/s) = 5.99646 6.74085 6.37952
#
# Compressibility (1/GPa) = 0.02284567
#
# Stress axis : x y z
#
# Youngs Moduli (GPa) = 71.40427 77.15334 73.36593
#
# Poissons Ratio (x) = 0.48730 -0.07378
# Poissons Ratio (y) = 0.45098 0.26155
# Poissons Ratio (z) = -0.07180 0.27505
#
# Static dielectric constant tensor:
#      x y z
#    x 1.542960 0.000000 0.000000 
#    y 0.000000 1.565770 0.000000 
#    z 0.000000 0.000000 1.521410 
# 
# From -- ./inp_files/74426.got.cif
#   From: 2010.05.17/outbox.cif.g08.bks.cpg/sg63_38_cif.got.tgz:74426.got - 2010.06.03 15:47:04.
