data_PCOD9468653
_publ_section_title
;
Structure prediction by ZEFSAII (Michael W. Deem and Ramdas Pophale) SiO2 
 PCOD9468653
Probable space group: C M C M
;
_chemical_formula_sum "Si O2"
_cell_formula_units_Z 80
_cell_length_a 17.952658
_cell_length_b 26.745490
_cell_length_c 9.010906
_cell_angle_alpha 90.000000
_cell_angle_beta 90.000000
_cell_angle_gamma 90.000000
_cell_volume 4326.610260
_symmetry_space_group_name_H-M "C M C M"
_symmetry_group_IT_number 63
_symmetry_cell_setting 'orthorhombic'
loop_
_space_group_symop_operation_xyz
x,y,z
-x,-y,1/2+z
x,-y,-z
-x,y,1/2-z
-x,-y,-z
x,y,1/2-z
-x,y,z
x,-y,1/2+z
1/2+x,1/2+y,z
1/2-x,1/2-y,1/2+z
1/2+x,1/2-y,-z
1/2-x,1/2+y,1/2-z
1/2-x,1/2-y,-z
1/2+x,1/2+y,1/2-z
1/2-x,1/2+y,z
1/2+x,1/2-y,1/2+z
loop_
_atom_site_type_symbol
_atom_site_label
_atom_site_fract_x
_atom_site_fract_y
_atom_site_fract_z
Si Si1 0.620574 0.551233 0.077852
Si Si2 0.580700 0.763063 0.930021
Si Si3 0.802341 0.450215 0.920370
Si Si4 0.131555 0.153946 0.571786
Si Si5 0.794707 0.659144 0.068860
O O1 0.598891 0.551989 0.250000
O O2 0.711575 0.550587 0.071761
O O3 0.595119 0.500000 0.000000
O O4 0.599580 0.602764 0.996854
O O5 0.581833 0.765439 0.750000
O O6 0.500000 0.781797 0.980864
O O7 0.589066 0.704805 0.968276
O O8 0.649941 0.796863 0.978380
O O9 0.823552 0.454284 0.750000
O O10 0.826559 0.395529 0.973999
O O11 0.828628 0.500000 0.000000
O O12 0.133910 0.148973 0.750000
O O13 0.214507 0.162421 0.507358
O O14 0.785699 0.659622 0.250000
#
# Coordination Sequence:
#
# PCOD9468653 Si02
#       5
#    16  16  16  16  16
#     4   9  16  27  44  68  98 126 153 188 231 278
#     4   9  18  32  49  68  91 122 161 202 242 285
#     4   8  14  23  38  62  89 116 144 178 222 268
#     4  10  18  28  47  73  97 122 154 194 239 285
#     4   9  17  30  48  69  93 122 158 198 237 280
#
# _framework density 18.490224999999999
#
# number of rings (size 3 to 8) (size 9 to 14) (size 15 to 20)
#    0.000    3.000    0.000    3.000    0.000    4.800 
#    0.000    1.000    0.000    6.600    0.000    0.000 
#    0.000    0.000    0.000    0.000    0.000    2.200 
#
# Total GULP energy -222840.506752 kJ/mol
# GULP energy per Si atom -5571.012669 kJ/mol
# Density = 1.844814 g / cm^3
# Si number density = 18.490225 Si / 1000 Ang^3
#
#
#
# Elastic Constant Matrix: (Units=GPa)
#
#
# Indices 1 2 3 4 5 6 
#
# 1 45.5171 32.1748 12.7769 0.0000 0.0000 0.0000
# 2 32.1748 126.4088 38.5120 0.0000 0.0000 0.0000
# 3 12.7769 38.5120 45.4157 0.0000 0.0000 0.0000
# 4 0.0000 0.0000 0.0000 30.5449 0.0000 0.0000
# 5 0.0000 0.0000 0.0000 0.0000 1.7929 0.0000
# 6 0.0000 0.0000 0.0000 0.0000 0.0000 -9.5187
#
#
#
# Elastic Compliance Matrix: (Units=1/GPa)
#
#
# Indices 1 2 3 4 5 6 
#
# 1 0.026980 -0.006141 -0.002383 0.000000 0.000000 0.000000
# 2 -0.006141 0.012064 -0.008503 0.000000 0.000000 0.000000
# 3 -0.002383 -0.008503 0.029899 0.000000 0.000000 0.000000
# 4 0.000000 0.000000 0.000000 0.032739 0.000000 0.000000
# 5 0.000000 0.000000 0.000000 0.000000 0.557758 0.000000
# 6 0.000000 0.000000 0.000000 0.000000 0.000000 -0.105056
#
#
# Mechanical properties :
#
#
# Convention : Reuss Voigt Hill
#
# Bulk Modulus (GPa) = 28.66123 42.69655 35.67889
# Shear Modulus (GPa) = 8.33239 13.48901 10.91070
#
# Velocity S-wave (km/s) = 2.12513 2.70390 2.43179
# Velocity P-wave (km/s) = 4.64284 5.73495 5.21755
#
# Compressibility (1/GPa) = 0.03489034
#
# Stress axis : x y z
#
# Youngs Moduli (GPa) = 37.06501 82.88810 33.44545
#
# Poissons Ratio (x) = 0.50904 0.07968
# Poissons Ratio (y) = 0.22763 0.28438
# Poissons Ratio (z) = 0.08831 0.70478
#
# Static dielectric constant tensor:
#      x y z
#    x 1.621700 0.000000 0.000000 
#    y 0.000000 1.666860 0.000000 
#    z 0.000000 0.000000 1.624590 
# 
# From -- ./inp_files/6350.got.cif
#   From: 2010.05.17/outbox.cif.g08.bks.cpg/sg63_4_cif.got.tgz:6350.got - 2010.06.03 15:47:04.
