data_PCOD9468157
_publ_section_title
;
Structure prediction by ZEFSAII (Michael W. Deem and Ramdas Pophale) SiO2 
 PCOD9468157
Probable space group: C M C M
;
_chemical_formula_sum "Si O2"
_cell_formula_units_Z 84
_cell_length_a 20.186696
_cell_length_b 7.380547
_cell_length_c 25.460965
_cell_angle_alpha 90.000000
_cell_angle_beta 90.000000
_cell_angle_gamma 90.000000
_cell_volume 3793.400114
_symmetry_space_group_name_H-M "C M C M"
_symmetry_group_IT_number 63
_symmetry_cell_setting 'orthorhombic'
loop_
_space_group_symop_operation_xyz
x,y,z
-x,-y,1/2+z
x,-y,-z
-x,y,1/2-z
-x,-y,-z
x,y,1/2-z
-x,y,z
x,-y,1/2+z
1/2+x,1/2+y,z
1/2-x,1/2-y,1/2+z
1/2+x,1/2-y,-z
1/2-x,1/2+y,1/2-z
1/2-x,1/2-y,-z
1/2+x,1/2+y,1/2-z
1/2-x,1/2+y,z
1/2+x,1/2-y,1/2+z
loop_
_atom_site_type_symbol
_atom_site_label
_atom_site_fract_x
_atom_site_fract_y
_atom_site_fract_z
Si Si1 0.674872 0.189167 0.936767
Si Si2 0.671224 0.243518 0.446519
Si Si3 0.212258 0.489282 0.250000
Si Si4 0.645194 0.616849 0.750000
Si Si5 0.887397 0.365028 0.167419
Si Si6 0.076656 0.787075 0.354712
Si Si7 0.500000 0.241251 0.750000
O O1 0.753640 0.213722 0.929600
O O2 0.630852 0.236082 0.886421
O O3 0.664143 0.973860 0.943165
O O4 0.660298 0.286695 0.992073
O O5 0.621063 0.328305 0.405240
O O6 0.290772 0.508461 0.250000
O O7 0.179537 0.686106 0.250000
O O8 0.181670 0.392545 0.301140
O O9 0.601828 0.612856 0.697664
O O10 0.913955 0.570367 0.156448
O O11 0.941705 0.275826 0.204475
O O12 0.000000 0.824556 0.363420
#
# Coordination Sequence:
#
# PCOD9468157 Si02
#       7
#    16  16   8   8  16  16   4
#     4   9  17  32  48  75  98 126 162 201 248 287
#     4   9  18  31  50  73 100 127 159 204 248 284
#     4   9  18  29  46  73  94 118 161 201 238 279
#     4  10  19  30  49  73  94 124 159 203 243 282
#     4   9  17  28  46  68  99 123 158 195 242 287
#     4  10  18  29  46  72  98 128 159 198 238 295
#     4  10  16  28  44  68  96 136 150 196 246 288
#
# _framework density 22.143722
#
# number of rings (size 3 to 8) (size 9 to 14) (size 15 to 20)
#    0.000    2.667    0.952    2.000    0.000    0.000 
#    1.714    1.905    0.000    0.000   22.286    2.667 
#    0.000    0.000    0.000    0.000    0.000    0.000 
#
# Total GULP energy -234231.664899 kJ/mol
# GULP energy per Si atom -5576.944402 kJ/mol
# Density = 2.209332 g / cm^3
# Si number density = 22.143722 Si / 1000 Ang^3
#
#
#
# Elastic Constant Matrix: (Units=GPa)
#
#
# Indices 1 2 3 4 5 6 
#
# 1 140.9595 7.3027 114.2547 0.0000 0.0000 0.0000
# 2 7.3027 62.3121 16.2020 0.0000 0.0000 0.0000
# 3 114.2547 16.2020 189.2913 0.0000 0.0000 0.0000
# 4 0.0000 0.0000 0.0000 -9.2563 0.0000 0.0000
# 5 0.0000 0.0000 0.0000 0.0000 20.4828 0.0000
# 6 0.0000 0.0000 0.0000 0.0000 0.0000 8.1832
#
#
#
# Elastic Compliance Matrix: (Units=1/GPa)
#
#
# Indices 1 2 3 4 5 6 
#
# 1 0.013909 0.000565 -0.008444 0.000000 0.000000 0.000000
# 2 0.000565 0.016437 -0.001748 0.000000 0.000000 0.000000
# 3 -0.008444 -0.001748 0.010529 0.000000 0.000000 0.000000
# 4 0.000000 0.000000 0.000000 -0.108034 0.000000 0.000000
# 5 0.000000 0.000000 0.000000 0.000000 0.048821 0.000000
# 6 0.000000 0.000000 0.000000 0.000000 0.000000 0.122202
#
#
# Mechanical properties :
#
#
# Convention : Reuss Voigt Hill
#
# Bulk Modulus (GPa) = 46.24989 74.23129 60.24059
# Shear Modulus (GPa) = 38.36597 20.86884 29.61740
#
# Velocity S-wave (km/s) = 4.16695 3.07323 3.66116
# Velocity P-wave (km/s) = 6.63950 6.79619 6.71830
#
# Compressibility (1/GPa) = 0.02162167
#
# Stress axis : x y z
#
# Youngs Moduli (GPa) = 71.89559 60.84012 94.97496
#
# Poissons Ratio (x) = -0.03440 0.80195
# Poissons Ratio (y) = -0.04065 0.16603
# Poissons Ratio (z) = 0.60707 0.10636
#
# Static dielectric constant tensor:
#      x y z
#    x 1.743810 0.000000 0.000000 
#    y 0.000000 1.901750 0.000000 
#    z 0.000000 0.000000 1.823430 
# 
# From -- ./inp_files/63649.got.cif
#   From: 2010.05.17/outbox.cif.g08.bks.cpg/sg63_32_cif.got.tgz:63649.got - 2010.06.03 15:47:04.
