data_PCOD9468905
_publ_section_title
;
Structure prediction by ZEFSAII (Michael W. Deem and Ramdas Pophale) SiO2 
 PCOD9468905
Probable space group: C M C M
;
_chemical_formula_sum "Si O2"
_cell_formula_units_Z 80
_cell_length_a 9.355939
_cell_length_b 25.919215
_cell_length_c 20.008849
_cell_angle_alpha 90.000000
_cell_angle_beta 90.000000
_cell_angle_gamma 90.000000
_cell_volume 4852.117759
_symmetry_space_group_name_H-M "C M C M"
_symmetry_group_IT_number 63
_symmetry_cell_setting 'orthorhombic'
loop_
_space_group_symop_operation_xyz
x,y,z
-x,-y,1/2+z
x,-y,-z
-x,y,1/2-z
-x,-y,-z
x,y,1/2-z
-x,y,z
x,-y,1/2+z
1/2+x,1/2+y,z
1/2-x,1/2-y,1/2+z
1/2+x,1/2-y,-z
1/2-x,1/2+y,1/2-z
1/2-x,1/2-y,-z
1/2+x,1/2+y,1/2-z
1/2-x,1/2+y,z
1/2+x,1/2-y,1/2+z
loop_
_atom_site_type_symbol
_atom_site_label
_atom_site_fract_x
_atom_site_fract_y
_atom_site_fract_z
Si Si1 0.828610 0.728318 0.434792
Si Si2 0.330133 0.684347 0.672089
Si Si3 0.831970 0.610869 0.057099
Si Si4 0.168145 0.591403 0.897938
Si Si5 0.335608 0.489744 0.580271
O O1 0.750000 0.750000 0.500000
O O2 0.796567 0.765787 0.372963
O O3 0.788914 0.668694 0.422991
O O4 0.000000 0.729078 0.446449
O O5 0.301818 0.693458 0.750000
O O6 0.500000 0.673812 0.664063
O O7 0.241990 0.635898 0.644896
O O8 0.739595 0.565382 0.089267
O O9 0.000000 0.603027 0.072121
O O10 0.816630 0.606447 0.976490
O O11 0.246572 0.536733 0.888640
O O12 0.000000 0.587252 0.883706
O O13 0.334431 0.500000 0.500000
O O14 0.500000 0.489874 0.602281
#
# Coordination Sequence:
#
# PCOD9468905 Si02
#       5
#    16  16  16  16  16
#     4  10  19  32  51  74 102 134 172 214 258 307
#     4  10  21  35  51  73 103 138 172 209 256 310
#     4   9  17  29  46  72 101 130 165 209 257 299
#     4  10  18  30  49  72 100 131 166 210 256 302
#     4   9  17  28  45  71 100 130 163 200 248 304
#
# _framework density 16.487646000000002
#
# number of rings (size 3 to 8) (size 9 to 14) (size 15 to 20)
#    0.000    2.400    2.000    1.200    0.000    4.400 
#    0.000    0.000    0.000    1.200    0.000    2.800 
#    0.000    0.000    0.000    0.000    0.000    0.000 
#
# Total GULP energy -223060.651570 kJ/mol
# GULP energy per Si atom -5576.516289 kJ/mol
# Density = 1.645012 g / cm^3
# Si number density = 16.487646 Si / 1000 Ang^3
#
#
#
# Elastic Constant Matrix: (Units=GPa)
#
#
# Indices 1 2 3 4 5 6 
#
# 1 89.6633 97.6439 54.0059 0.0000 0.0000 0.0000
# 2 97.6439 199.6067 62.9111 0.0000 0.0000 0.0000
# 3 54.0059 62.9111 58.6957 0.0000 0.0000 0.0000
# 4 0.0000 0.0000 0.0000 15.4146 0.0000 0.0000
# 5 0.0000 0.0000 0.0000 0.0000 15.0560 0.0000
# 6 0.0000 0.0000 0.0000 0.0000 0.0000 32.6036
#
#
#
# Elastic Compliance Matrix: (Units=1/GPa)
#
#
# Indices 1 2 3 4 5 6 
#
# 1 0.035698 -0.010738 -0.021337 0.000000 0.000000 0.000000
# 2 -0.010738 0.010796 -0.001691 0.000000 0.000000 0.000000
# 3 -0.021337 -0.001691 0.038481 0.000000 0.000000 0.000000
# 4 0.000000 0.000000 0.000000 0.064874 0.000000 0.000000
# 5 0.000000 0.000000 0.000000 0.000000 0.066419 0.000000
# 6 0.000000 0.000000 0.000000 0.000000 0.000000 0.030671
#
#
# Mechanical properties :
#
#
# Convention : Reuss Voigt Hill
#
# Bulk Modulus (GPa) = 57.32687 86.34307 71.83497
# Shear Modulus (GPa) = 15.61112 21.50848 18.55980
#
# Velocity S-wave (km/s) = 3.08041 3.61573 3.35875
# Velocity P-wave (km/s) = 6.89181 8.36142 7.66193
#
# Compressibility (1/GPa) = 0.01744383
#
# Stress axis : x y z
#
# Youngs Moduli (GPa) = 28.01266 92.63004 25.98683
#
# Poissons Ratio (x) = 0.99467 0.55447
# Poissons Ratio (y) = 0.30080 0.04394
# Poissons Ratio (z) = 0.59769 0.15662
#
# Static dielectric constant tensor:
#      x y z
#    x 1.552840 0.000000 0.000000 
#    y 0.000000 1.546120 0.000000 
#    z 0.000000 0.000000 1.526640 
# 
# From -- ./inp_files/40472.got.cif
#   From: 2010.05.17/outbox.cif.g08.bks.cpg/sg63_21_cif.got.tgz:40472.got - 2010.06.03 15:47:04.
