data_PCOD9468556
_publ_section_title
;
Structure prediction by ZEFSAII (Michael W. Deem and Ramdas Pophale) SiO2 
 PCOD9468556
Probable space group: C M C M
;
_chemical_formula_sum "Si O2"
_cell_formula_units_Z 96
_cell_length_a 30.954734
_cell_length_b 25.072949
_cell_length_c 8.581629
_cell_angle_alpha 90.000000
_cell_angle_beta 90.000000
_cell_angle_gamma 90.000000
_cell_volume 6660.429396
_symmetry_space_group_name_H-M "C M C M"
_symmetry_group_IT_number 63
_symmetry_cell_setting 'orthorhombic'
loop_
_space_group_symop_operation_xyz
x,y,z
-x,-y,1/2+z
x,-y,-z
-x,y,1/2-z
-x,-y,-z
x,y,1/2-z
-x,y,z
x,-y,1/2+z
1/2+x,1/2+y,z
1/2-x,1/2-y,1/2+z
1/2+x,1/2-y,-z
1/2-x,1/2+y,1/2-z
1/2-x,1/2-y,-z
1/2+x,1/2+y,1/2-z
1/2-x,1/2+y,z
1/2+x,1/2-y,1/2+z
loop_
_atom_site_type_symbol
_atom_site_label
_atom_site_fract_x
_atom_site_fract_y
_atom_site_fract_z
Si Si1 0.774770 0.172767 0.436903
Si Si2 0.618900 0.859890 0.931618
Si Si3 0.778838 0.945676 0.937253
Si Si4 0.550279 0.941502 0.063894
Si Si5 0.682271 0.055641 0.565058
Si Si6 0.184756 0.283547 0.063849
O O1 0.768738 0.175467 0.250000
O O2 0.794940 0.114514 0.470332
O O3 0.804427 0.222768 0.484113
O O4 0.727323 0.183133 0.509786
O O5 0.610962 0.853787 0.750000
O O6 0.578778 0.891685 0.006359
O O7 0.658361 0.899686 0.967984
O O8 0.639410 0.805674 0.999693
O O9 0.773199 0.950739 0.750000
O O10 0.732653 0.944356 0.023967
O O11 0.800975 0.000000 0.000000
O O12 0.553503 0.943858 0.250000
O O13 0.500000 0.934188 0.018974
O O14 0.563602 0.000000 0.000000
O O15 0.675342 0.061590 0.750000
O O16 0.664912 0.000000 0.500000
O O17 0.183201 0.287104 0.250000
#
# Coordination Sequence:
#
# PCOD9468556 Si02
#       6
#    16  16  16  16  16  16
#     4   9  18  31  44  59  83 110 139 177 218 259
#     4  12  22  32  45  63  85 108 138 176 215 260
#     4  10  18  28  41  58  80 105 135 171 212 253
#     4  10  21  37  54  70  88 111 140 177 223 273
#     4  11  20  29  40  56  77 103 133 171 214 253
#     4  10  19  30  45  62  80 108 143 177 216 258
#
# _framework density 14.413486000000001
#
# number of rings (size 3 to 8) (size 9 to 14) (size 15 to 20)
#    0.000    1.667    1.667    6.000    0.000    2.333 
#    0.000    0.000    0.000    0.000    0.000    0.000 
#    0.000    0.000    0.000    0.000    0.000    0.833 
#
# Total GULP energy -267393.341827 kJ/mol
# GULP energy per Si atom -5570.694621 kJ/mol
# Density = 1.438068 g / cm^3
# Si number density = 14.413486 Si / 1000 Ang^3
#
#
#
# Elastic Constant Matrix: (Units=GPa)
#
#
# Indices 1 2 3 4 5 6 
#
# 1 54.4262 34.9633 17.6325 0.0000 0.0000 0.0000
# 2 34.9633 117.5031 24.4001 0.0000 0.0000 0.0000
# 3 17.6325 24.4001 35.9177 0.0000 0.0000 0.0000
# 4 0.0000 0.0000 0.0000 20.6754 0.0000 0.0000
# 5 0.0000 0.0000 0.0000 0.0000 9.0119 0.0000
# 6 0.0000 0.0000 0.0000 0.0000 0.0000 24.8693
#
#
#
# Elastic Compliance Matrix: (Units=1/GPa)
#
#
# Indices 1 2 3 4 5 6 
#
# 1 0.024670 -0.005618 -0.008294 0.000000 0.000000 0.000000
# 2 -0.005618 0.011188 -0.004842 0.000000 0.000000 0.000000
# 3 -0.008294 -0.004842 0.035202 0.000000 0.000000 0.000000
# 4 0.000000 0.000000 0.000000 0.048367 0.000000 0.000000
# 5 0.000000 0.000000 0.000000 0.000000 0.110964 0.000000
# 6 0.000000 0.000000 0.000000 0.000000 0.000000 0.040210
#
#
# Mechanical properties :
#
#
# Convention : Reuss Voigt Hill
#
# Bulk Modulus (GPa) = 29.80525 40.20430 35.00478
# Shear Modulus (GPa) = 15.65961 19.63473 17.64717
#
# Velocity S-wave (km/s) = 3.29972 3.69487 3.50287
# Velocity P-wave (km/s) = 5.93643 6.79388 6.37958
#
# Compressibility (1/GPa) = 0.03355113
#
# Stress axis : x y z
#
# Youngs Moduli (GPa) = 40.53567 89.38469 28.40711
#
# Poissons Ratio (x) = 0.50218 0.23561
# Poissons Ratio (y) = 0.22774 0.13755
# Poissons Ratio (z) = 0.33620 0.43281
#
# Static dielectric constant tensor:
#      x y z
#    x 1.464180 0.000000 0.000000 
#    y 0.000000 1.527230 0.000000 
#    z 0.000000 0.000000 1.482980 
# 
# From -- ./inp_files/12980.got.cif
#   From: 2010.05.17/outbox.cif.g08.bks.cpg/sg63_7_cif.got.tgz:12980.got - 2010.06.03 15:47:04.
