data_PCOD9468921
_publ_section_title
;
Structure prediction by ZEFSAII (Michael W. Deem and Ramdas Pophale) SiO2 
 PCOD9468921
Probable space group: C M C M
;
_chemical_formula_sum "Si O2"
_cell_formula_units_Z 80
_cell_length_a 21.271909
_cell_length_b 21.436175
_cell_length_c 11.620770
_cell_angle_alpha 90.000000
_cell_angle_beta 90.000000
_cell_angle_gamma 90.000000
_cell_volume 5298.935900
_symmetry_space_group_name_H-M "C M C M"
_symmetry_group_IT_number 63
_symmetry_cell_setting 'orthorhombic'
loop_
_space_group_symop_operation_xyz
x,y,z
-x,-y,1/2+z
x,-y,-z
-x,y,1/2-z
-x,-y,-z
x,y,1/2-z
-x,y,z
x,-y,1/2+z
1/2+x,1/2+y,z
1/2-x,1/2-y,1/2+z
1/2+x,1/2-y,-z
1/2-x,1/2+y,1/2-z
1/2-x,1/2-y,-z
1/2+x,1/2+y,1/2-z
1/2-x,1/2+y,z
1/2+x,1/2-y,1/2+z
loop_
_atom_site_type_symbol
_atom_site_label
_atom_site_fract_x
_atom_site_fract_y
_atom_site_fract_z
Si Si1 0.426899 0.332549 0.613660
Si Si2 0.249836 0.164843 0.887216
Si Si3 0.350801 0.768027 0.968847
Si Si4 0.074035 0.731469 0.250000
Si Si5 0.649543 0.427586 0.027051
Si Si6 0.426091 0.616876 0.750000
O O1 0.424037 0.323151 0.750000
O O2 0.500000 0.340396 0.579402
O O3 0.395969 0.274826 0.546734
O O4 0.385618 0.391855 0.576371
O O5 0.257030 0.157763 0.750000
O O6 0.201600 0.222080 0.912499
O O7 0.215716 0.105305 0.943594
O O8 0.313691 0.183143 0.952288
O O9 0.391837 0.793397 0.863762
O O10 0.082102 0.807682 0.250000
O O11 0.000000 0.719359 0.250000
O O12 0.606767 0.411991 0.138314
O O13 0.654897 0.500000 0.000000
O O14 0.500000 0.604161 0.750000
#
# Coordination Sequence:
#
# PCOD9468921 Si02
#       6
#    16  16  16   8  16   8
#     4  10  20  32  45  68  99 128 164 209 253 292
#     4  10  18  33  50  67  95 127 169 209 250 297
#     4  10  18  30  49  73  93 128 165 201 253 300
#     4  11  18  32  53  74 104 134 163 203 248 303
#     4  11  22  35  48  68  94 136 177 214 245 286
#     4  11  20  34  51  66  96 138 181 211 244 289
#
# _framework density 15.097371000000001
#
# number of rings (size 3 to 8) (size 9 to 14) (size 15 to 20)
#    0.000    1.600    6.000    1.800    1.400    1.600 
#    1.800    0.000    0.000    0.000    0.000    0.000 
#    0.000    3.200    1.200    0.000    0.000    0.000 
#
# Total GULP energy -223160.967549 kJ/mol
# GULP energy per Si atom -5579.024189 kJ/mol
# Density = 1.506301 g / cm^3
# Si number density = 15.097371 Si / 1000 Ang^3
#
#
#
# Elastic Constant Matrix: (Units=GPa)
#
#
# Indices 1 2 3 4 5 6 
#
# 1 100.4402 48.0778 59.6614 0.0000 0.0000 0.0000
# 2 48.0778 54.0744 28.6278 0.0000 0.0000 0.0000
# 3 59.6614 28.6278 93.4817 0.0000 0.0000 0.0000
# 4 0.0000 0.0000 0.0000 9.5554 0.0000 0.0000
# 5 0.0000 0.0000 0.0000 0.0000 27.3841 0.0000
# 6 0.0000 0.0000 0.0000 0.0000 0.0000 12.6756
#
#
#
# Elastic Compliance Matrix: (Units=1/GPa)
#
#
# Indices 1 2 3 4 5 6 
#
# 1 0.023390 -0.015388 -0.010215 0.000000 0.000000 0.000000
# 2 -0.015388 0.032195 -0.000039 0.000000 0.000000 0.000000
# 3 -0.010215 -0.000039 0.017229 0.000000 0.000000 0.000000
# 4 0.000000 0.000000 0.000000 0.104652 0.000000 0.000000
# 5 0.000000 0.000000 0.000000 0.000000 0.036517 0.000000
# 6 0.000000 0.000000 0.000000 0.000000 0.000000 0.078892
#
#
# Mechanical properties :
#
#
# Convention : Reuss Voigt Hill
#
# Bulk Modulus (GPa) = 46.44730 57.85895 52.15313
# Shear Modulus (GPa) = 14.23143 17.36499 15.79821
#
# Velocity S-wave (km/s) = 3.07358 3.39514 3.23835
# Velocity P-wave (km/s) = 6.58998 7.33324 6.97152
#
# Compressibility (1/GPa) = 0.02152978
#
# Stress axis : x y z
#
# Youngs Moduli (GPa) = 42.75368 31.06086 58.04271
#
# Poissons Ratio (x) = 0.47796 0.59293
# Poissons Ratio (y) = 0.65789 0.00224
# Poissons Ratio (z) = 0.43674 0.00120
#
# Static dielectric constant tensor:
#      x y z
#    x 1.505750 0.000000 0.000000 
#    y 0.000000 1.470650 0.000000 
#    z 0.000000 0.000000 1.518290 
# 
# From -- ./inp_files/21041.got.cif
#   From: 2010.05.17/outbox.cif.g08.bks.cpg/sg63_11_cif.got.tgz:21041.got - 2010.06.03 15:47:04.
