data_PCOD9468981
_publ_section_title
;
Structure prediction by ZEFSAII (Michael W. Deem and Ramdas Pophale) SiO2 
 PCOD9468981
Probable space group: C M C M
;
_chemical_formula_sum "Si O2"
_cell_formula_units_Z 72
_cell_length_a 16.528799
_cell_length_b 23.571018
_cell_length_c 9.017707
_cell_angle_alpha 90.000000
_cell_angle_beta 90.000000
_cell_angle_gamma 90.000000
_cell_volume 3513.304227
_symmetry_space_group_name_H-M "C M C M"
_symmetry_group_IT_number 63
_symmetry_cell_setting 'orthorhombic'
loop_
_space_group_symop_operation_xyz
x,y,z
-x,-y,1/2+z
x,-y,-z
-x,y,1/2-z
-x,-y,-z
x,y,1/2-z
-x,y,z
x,-y,1/2+z
1/2+x,1/2+y,z
1/2-x,1/2-y,1/2+z
1/2+x,1/2-y,-z
1/2-x,1/2+y,1/2-z
1/2-x,1/2-y,-z
1/2+x,1/2+y,1/2-z
1/2-x,1/2+y,z
1/2+x,1/2-y,1/2+z
loop_
_atom_site_type_symbol
_atom_site_label
_atom_site_fract_x
_atom_site_fract_y
_atom_site_fract_z
Si Si1 0.000000 0.886478 0.430447
Si Si2 0.327539 0.394365 0.084526
Si Si3 0.000000 0.761885 0.926890
Si Si4 0.335078 0.741273 0.917868
Si Si5 0.173924 0.561906 0.073758
Si Si6 0.500000 0.937200 0.571375
O O1 0.084569 0.917730 0.461797
O O2 0.000000 0.874375 0.250000
O O3 0.000000 0.828543 0.525607
O O4 0.307586 0.415493 0.250000
O O5 0.341283 0.326937 0.092769
O O6 0.252544 0.405555 0.980063
O O7 0.000000 0.755901 0.750000
O O8 0.083843 0.738679 0.997301
O O9 0.333186 0.764641 0.750000
O O10 0.250000 0.750000 0.000000
O O11 0.175475 0.556402 0.250000
O O12 0.086818 0.588876 0.029572
O O13 0.177346 0.500000 0.000000
O O14 0.500000 0.942510 0.750000
O O15 0.500000 0.000000 0.500000
#
# Coordination Sequence:
#
# PCOD9468981 Si02
#       6
#     8  16   8  16  16   8
#     4   8  16  32  51  70  97 132 166 202 244 294
#     4   9  18  33  52  74 100 129 162 202 248 294
#     4  10  18  30  51  76 101 132 170 208 250 306
#     4  10  20  35  54  76 103 135 171 212 254 299
#     4  10  19  32  51  73  98 128 164 204 246 294
#     4   8  16  30  47  68  93 124 160 196 236 286
#
# _framework density 20.493528999999999
#
# number of rings (size 3 to 8) (size 9 to 14) (size 15 to 20)
#    0.000    2.667    0.000    3.667    0.000    5.333 
#    0.000    1.667    0.000    5.333    0.000    0.000 
#    0.000    0.000    0.000    0.000    0.000    0.000 
#
# Total GULP energy -200548.291702 kJ/mol
# GULP energy per Si atom -5570.785881 kJ/mol
# Density = 2.044688 g / cm^3
# Si number density = 20.493529 Si / 1000 Ang^3
#
#
#
# Elastic Constant Matrix: (Units=GPa)
#
#
# Indices 1 2 3 4 5 6 
#
# 1 235.4796 10.7805 93.7779 0.0000 0.0000 0.0000
# 2 10.7805 11.9930 0.8614 0.0000 0.0000 0.0000
# 3 93.7779 0.8614 111.3773 0.0000 0.0000 0.0000
# 4 0.0000 0.0000 0.0000 19.8927 0.0000 0.0000
# 5 0.0000 0.0000 0.0000 0.0000 39.3628 0.0000
# 6 0.0000 0.0000 0.0000 0.0000 0.0000 17.1645
#
#
#
# Elastic Compliance Matrix: (Units=1/GPa)
#
#
# Indices 1 2 3 4 5 6 
#
# 1 0.006753 -0.005665 -0.005642 0.000000 0.000000 0.000000
# 2 -0.005665 0.088181 0.004088 0.000000 0.000000 0.000000
# 3 -0.005642 0.004088 0.013697 0.000000 0.000000 0.000000
# 4 0.000000 0.000000 0.000000 0.050270 0.000000 0.000000
# 5 0.000000 0.000000 0.000000 0.000000 0.025405 0.000000
# 6 0.000000 0.000000 0.000000 0.000000 0.000000 0.058260
#
#
# Mechanical properties :
#
#
# Convention : Reuss Voigt Hill
#
# Bulk Modulus (GPa) = 10.61653 63.29882 36.95768
# Shear Modulus (GPa) = 17.33696 32.17933 24.75815
#
# Velocity S-wave (km/s) = 2.91172 3.96690 3.47954
# Velocity P-wave (km/s) = 4.06150 7.20666 5.84944
#
# Compressibility (1/GPa) = 0.09419273
#
# Stress axis : x y z
#
# Youngs Moduli (GPa) = 148.08502 11.34034 73.00686
#
# Poissons Ratio (x) = 0.06424 0.41190
# Poissons Ratio (y) = 0.83889 -0.29843
# Poissons Ratio (z) = 0.83550 -0.04636
#
# Static dielectric constant tensor:
#      x y z
#    x 1.822650 0.000000 0.000000 
#    y 0.000000 1.756030 0.000000 
#    z 0.000000 0.000000 1.711990 
# 
# From -- ./inp_files/4985.got.cif
#   From: 2010.05.17/outbox.cif.g08.bks.cpg/sg63_3_cif.got.tgz:4985.got - 2010.06.03 15:47:04.
