data_PCOD9468713
_publ_section_title
;
Structure prediction by ZEFSAII (Michael W. Deem and Ramdas Pophale) SiO2 
 PCOD9468713
Probable space group: C M C M
;
_chemical_formula_sum "Si O2"
_cell_formula_units_Z 96
_cell_length_a 15.567365
_cell_length_b 20.820864
_cell_length_c 17.848213
_cell_angle_alpha 90.000000
_cell_angle_beta 90.000000
_cell_angle_gamma 90.000000
_cell_volume 5785.069699
_symmetry_space_group_name_H-M "C M C M"
_symmetry_group_IT_number 63
_symmetry_cell_setting 'orthorhombic'
loop_
_space_group_symop_operation_xyz
x,y,z
-x,-y,1/2+z
x,-y,-z
-x,y,1/2-z
-x,-y,-z
x,y,1/2-z
-x,y,z
x,-y,1/2+z
1/2+x,1/2+y,z
1/2-x,1/2-y,1/2+z
1/2+x,1/2-y,-z
1/2-x,1/2+y,1/2-z
1/2-x,1/2-y,-z
1/2+x,1/2+y,1/2-z
1/2-x,1/2+y,z
1/2+x,1/2-y,1/2+z
loop_
_atom_site_type_symbol
_atom_site_label
_atom_site_fract_x
_atom_site_fract_y
_atom_site_fract_z
Si Si1 0.733026 0.795771 0.570853
Si Si2 0.100405 0.212241 0.661887
Si Si3 0.857603 0.971344 0.835461
Si Si4 0.239038 0.561891 0.041706
Si Si5 0.405532 0.585686 0.939243
Si Si6 0.904933 0.175423 0.162884
O O1 0.750000 0.750000 0.500000
O O2 0.664559 0.763831 0.626511
O O3 0.700511 0.866860 0.546179
O O4 0.824663 0.803120 0.613064
O O5 0.118239 0.200737 0.750000
O O6 0.110356 0.147897 0.612100
O O7 0.000000 0.231372 0.655763
O O8 0.850913 0.992449 0.750000
O O9 0.765595 0.960187 0.875137
O O10 0.902105 0.902083 0.837294
O O11 0.903831 0.024751 0.884519
O O12 0.198439 0.500000 0.000000
O O13 0.329395 0.575023 0.997887
O O14 0.500000 0.591361 0.974814
O O15 0.893388 0.195202 0.250000
O O16 0.000000 0.196742 0.137535
#
# Coordination Sequence:
#
# PCOD9468713 Si02
#       6
#    16  16  16  16  16  16
#     4  11  20  33  51  73 101 133 168 204 250 298
#     4  10  21  35  51  73 101 134 173 213 252 296
#     4   9  17  28  44  69 101 135 166 196 237 296
#     4   9  19  32  48  70  99 130 165 207 249 300
#     4  10  18  29  45  68 100 136 166 197 240 297
#     4   9  18  31  48  72 100 130 164 201 242 292
#
# _framework density 16.594442000000001
#
# number of rings (size 3 to 8) (size 9 to 14) (size 15 to 20)
#    0.000    2.333    1.667    1.500    0.000    8.667 
#    0.000    0.000    0.000    0.500    0.000    0.000 
#    0.000    2.667    0.000    0.000    0.000    0.000 
#
# Total GULP energy -267499.461661 kJ/mol
# GULP energy per Si atom -5572.905451 kJ/mol
# Density = 1.655667 g / cm^3
# Si number density = 16.594442 Si / 1000 Ang^3
#
#
#
# Elastic Constant Matrix: (Units=GPa)
#
#
# Indices 1 2 3 4 5 6 
#
# 1 50.7212 32.3069 28.1431 0.0000 0.0000 0.0000
# 2 32.3069 86.7573 17.7911 0.0000 0.0000 0.0000
# 3 28.1431 17.7911 74.6498 0.0000 0.0000 0.0000
# 4 0.0000 0.0000 0.0000 28.1030 0.0000 0.0000
# 5 0.0000 0.0000 0.0000 0.0000 18.8464 0.0000
# 6 0.0000 0.0000 0.0000 0.0000 0.0000 18.4432
#
#
#
# Elastic Compliance Matrix: (Units=1/GPa)
#
#
# Indices 1 2 3 4 5 6 
#
# 1 0.031085 -0.009644 -0.009421 0.000000 0.000000 0.000000
# 2 -0.009644 0.015110 0.000034 0.000000 0.000000 0.000000
# 3 -0.009421 0.000034 0.016939 0.000000 0.000000 0.000000
# 4 0.000000 0.000000 0.000000 0.035583 0.000000 0.000000
# 5 0.000000 0.000000 0.000000 0.000000 0.053061 0.000000
# 6 0.000000 0.000000 0.000000 0.000000 0.000000 0.054220
#
#
# Mechanical properties :
#
#
# Convention : Reuss Voigt Hill
#
# Bulk Modulus (GPa) = 39.88042 40.95670 40.41856
# Shear Modulus (GPa) = 19.80839 22.00435 20.90637
#
# Velocity S-wave (km/s) = 3.45871 3.64539 3.55328
# Velocity P-wave (km/s) = 6.32731 6.51560 6.42214
#
# Compressibility (1/GPa) = 0.02507496
#
# Stress axis : x y z
#
# Youngs Moduli (GPa) = 32.16938 66.17916 59.03413
#
# Poissons Ratio (x) = 0.63822 0.55615
# Poissons Ratio (y) = 0.31023 -0.00203
# Poissons Ratio (z) = 0.30306 -0.00228
#
# Static dielectric constant tensor:
#      x y z
#    x 1.554420 0.000000 0.000000 
#    y 0.000000 1.574800 0.000000 
#    z 0.000000 0.000000 1.582280 
# 
# From -- ./inp_files/42519.got.cif
#   From: 2010.05.17/outbox.cif.g08.bks.cpg/sg63_22_cif.got.tgz:42519.got - 2010.06.03 15:47:04.
