data_PCOD9468251
_publ_section_title
;
Structure prediction by ZEFSAII (Michael W. Deem and Ramdas Pophale) SiO2 
 PCOD9468251
Probable space group: C M C M
;
_chemical_formula_sum "Si O2"
_cell_formula_units_Z 72
_cell_length_a 19.934781
_cell_length_b 21.848120
_cell_length_c 10.374261
_cell_angle_alpha 90.000000
_cell_angle_beta 90.000000
_cell_angle_gamma 90.000000
_cell_volume 4518.379570
_symmetry_space_group_name_H-M "C M C M"
_symmetry_group_IT_number 63
_symmetry_cell_setting 'orthorhombic'
loop_
_space_group_symop_operation_xyz
x,y,z
-x,-y,1/2+z
x,-y,-z
-x,y,1/2-z
-x,-y,-z
x,y,1/2-z
-x,y,z
x,-y,1/2+z
1/2+x,1/2+y,z
1/2-x,1/2-y,1/2+z
1/2+x,1/2-y,-z
1/2-x,1/2+y,1/2-z
1/2-x,1/2-y,-z
1/2+x,1/2+y,1/2-z
1/2-x,1/2+y,z
1/2+x,1/2-y,1/2+z
loop_
_atom_site_type_symbol
_atom_site_label
_atom_site_fract_x
_atom_site_fract_y
_atom_site_fract_z
Si Si1 0.824388 0.347051 0.750000
Si Si2 0.175791 0.809229 0.750000
Si Si3 0.279036 0.166638 0.750000
Si Si4 0.368987 0.703783 0.750000
Si Si5 0.622522 0.859221 0.472609
Si Si6 0.500000 0.054266 0.602220
Si Si7 0.922805 0.783258 0.972826
O O1 0.743519 0.348677 0.750000
O O2 0.845376 0.275100 0.750000
O O3 0.854957 0.373280 0.618400
O O4 0.201220 0.738671 0.750000
O O5 0.129092 0.815140 0.624538
O O6 0.199071 0.164401 0.750000
O O7 0.314097 0.139469 0.876732
O O8 0.409735 0.695277 0.618718
O O9 0.565068 0.903879 0.422926
O O10 0.593841 0.789611 0.468595
O O11 0.500000 0.032649 0.750000
O O12 0.500000 0.000000 0.500000
O O13 0.000000 0.792129 0.935257
#
# Coordination Sequence:
#
# PCOD9468251 Si02
#       7
#     8   8   8   8  16   8  16
#     4   9  18  29  44  67  86 113 150 198 235 267
#     4   9  17  26  41  64  90 114 155 195 222 262
#     4   9  16  29  46  61  82 117 154 198 231 271
#     4   9  17  26  39  64  92 114 153 199 226 260
#     4  10  19  32  50  62  85 118 159 195 241 281
#     4  12  26  40  52  70  90 116 160 208 252 286
#     4  10  17  26  42  64  92 126 158 188 226 270
#
# _framework density 15.934915999999999
#
# number of rings (size 3 to 8) (size 9 to 14) (size 15 to 20)
#    0.000    2.222    2.222    2.000    1.556    5.333 
#    0.000    0.000    0.000    0.000    0.000    0.000 
#    0.000    0.000    0.000    0.000    0.000   77.778 
#
# Total GULP energy -200715.272108 kJ/mol
# GULP energy per Si atom -5575.424225 kJ/mol
# Density = 1.589865 g / cm^3
# Si number density = 15.934916 Si / 1000 Ang^3
#
#
#
# Elastic Constant Matrix: (Units=GPa)
#
#
# Indices 1 2 3 4 5 6 
#
# 1 75.3997 5.7793 18.4114 0.0000 0.0000 0.0000
# 2 5.7793 18.0602 10.6198 0.0000 0.0000 0.0000
# 3 18.4114 10.6198 114.9049 0.0000 0.0000 0.0000
# 4 0.0000 0.0000 0.0000 13.6055 0.0000 0.0000
# 5 0.0000 0.0000 0.0000 0.0000 26.5906 0.0000
# 6 0.0000 0.0000 0.0000 0.0000 0.0000 4.3848
#
#
#
# Elastic Compliance Matrix: (Units=1/GPa)
#
#
# Indices 1 2 3 4 5 6 
#
# 1 0.013991 -0.003340 -0.001933 0.000000 0.000000 0.000000
# 2 -0.003340 0.059350 -0.004950 0.000000 0.000000 0.000000
# 3 -0.001933 -0.004950 0.009470 0.000000 0.000000 0.000000
# 4 0.000000 0.000000 0.000000 0.073500 0.000000 0.000000
# 5 0.000000 0.000000 0.000000 0.000000 0.037607 0.000000
# 6 0.000000 0.000000 0.000000 0.000000 0.000000 0.228061
#
#
# Mechanical properties :
#
#
# Convention : Reuss Voigt Hill
#
# Bulk Modulus (GPa) = 16.03491 30.88732 23.46111
# Shear Modulus (GPa) = 10.79416 20.48647 15.64032
#
# Velocity S-wave (km/s) = 2.60550 3.58946 3.13631
# Velocity P-wave (km/s) = 4.37448 6.05017 5.27923
#
# Compressibility (1/GPa) = 0.06236394
#
# Stress axis : x y z
#
# Youngs Moduli (GPa) = 71.47599 16.84916 105.59580
#
# Poissons Ratio (x) = 0.05628 0.20412
# Poissons Ratio (y) = 0.23876 0.52270
# Poissons Ratio (z) = 0.13816 0.08340
#
# Static dielectric constant tensor:
#      x y z
#    x 1.526360 0.000000 0.000000 
#    y 0.000000 1.494360 0.000000 
#    z 0.000000 0.000000 1.552260 
# 
# From -- ./inp_files/7930.got.cif
#   From: 2010.05.17/outbox.cif.g08.bks.cpg/sg63_4_cif.got.tgz:7930.got - 2010.06.03 15:47:04.
