data_PCOD9468107
_publ_section_title
;
Structure prediction by ZEFSAII (Michael W. Deem and Ramdas Pophale) SiO2 
 PCOD9468107
Probable space group: C M C M
;
_chemical_formula_sum "Si O2"
_cell_formula_units_Z 80
_cell_length_a 9.221294
_cell_length_b 14.303219
_cell_length_c 27.219603
_cell_angle_alpha 90.000000
_cell_angle_beta 90.000000
_cell_angle_gamma 90.000000
_cell_volume 3590.107423
_symmetry_space_group_name_H-M "C M C M"
_symmetry_group_IT_number 63
_symmetry_cell_setting 'orthorhombic'
loop_
_space_group_symop_operation_xyz
x,y,z
-x,-y,1/2+z
x,-y,-z
-x,y,1/2-z
-x,-y,-z
x,y,1/2-z
-x,y,z
x,-y,1/2+z
1/2+x,1/2+y,z
1/2-x,1/2-y,1/2+z
1/2+x,1/2-y,-z
1/2-x,1/2+y,1/2-z
1/2-x,1/2-y,-z
1/2+x,1/2+y,1/2-z
1/2-x,1/2+y,z
1/2+x,1/2-y,1/2+z
loop_
_atom_site_type_symbol
_atom_site_label
_atom_site_fract_x
_atom_site_fract_y
_atom_site_fract_z
Si Si1 0.326147 0.766950 0.750000
Si Si2 0.324738 0.533634 0.250000
Si Si3 0.339234 0.014844 0.447790
Si Si4 0.163036 0.989028 0.855312
Si Si5 0.668085 0.739972 0.149256
Si Si6 0.836112 0.262287 0.550949
O O1 0.500000 0.754320 0.750000
O O2 0.279553 0.876782 0.750000
O O3 0.253660 0.733256 0.801082
O O4 0.500000 0.559683 0.250000
O O5 0.298174 0.480178 0.300473
O O6 0.500000 0.972266 0.451523
O O7 0.263325 0.979934 0.399227
O O8 0.349948 0.126046 0.442521
O O9 0.262005 0.000000 0.500000
O O10 0.165555 0.874826 0.852340
O O11 0.000000 0.018124 0.866210
O O12 0.500000 0.769975 0.150742
O O13 0.748653 0.769842 0.099204
O O14 0.750000 0.250000 0.500000
O O15 0.000000 0.223366 0.548127
#
# Coordination Sequence:
#
# PCOD9468107 Si02
#       6
#     8   8  16  16  16  16
#     4  10  16  22  36  60  87 114 145 180 221 267
#     4   8  14  24  36  54  83 114 141 174 219 265
#     4   9  18  31  45  63  89 119 149 182 219 261
#     4   8  14  24  39  59  83 111 142 177 217 261
#     4   9  16  27  41  59  86 117 147 181 223 267
#     4  10  19  31  47  67  91 119 151 187 227 269
#
# _framework density 22.283455
#
# number of rings (size 3 to 8) (size 9 to 14) (size 15 to 20)
#    0.000    3.000    0.000    3.300    0.000    6.000 
#    0.000    0.000    0.000    0.000    0.000    1.400 
#    0.000    4.800    0.000    0.000    0.000    0.000 
#
# Total GULP energy -223170.005707 kJ/mol
# GULP energy per Si atom -5579.250143 kJ/mol
# Density = 2.223274 g / cm^3
# Si number density = 22.283455 Si / 1000 Ang^3
#
#
#
# Elastic Constant Matrix: (Units=GPa)
#
#
# Indices 1 2 3 4 5 6 
#
# 1 165.3560 10.4999 143.4649 0.0000 0.0000 0.0000
# 2 10.4999 62.3727 -0.9661 0.0000 0.0000 0.0000
# 3 143.4649 -0.9661 275.2211 0.0000 0.0000 0.0000
# 4 0.0000 0.0000 0.0000 11.4935 0.0000 0.0000
# 5 0.0000 0.0000 0.0000 0.0000 48.1255 0.0000
# 6 0.0000 0.0000 0.0000 0.0000 0.0000 -0.7566
#
#
#
# Elastic Compliance Matrix: (Units=1/GPa)
#
#
# Indices 1 2 3 4 5 6 
#
# 1 0.011283 -0.001991 -0.005888 0.000000 0.000000 0.000000
# 2 -0.001991 0.016385 0.001095 0.000000 0.000000 0.000000
# 3 -0.005888 0.001095 0.006707 0.000000 0.000000 0.000000
# 4 0.000000 0.000000 0.000000 0.087005 0.000000 0.000000
# 5 0.000000 0.000000 0.000000 0.000000 0.020779 0.000000
# 6 0.000000 0.000000 0.000000 0.000000 0.000000 -1.321770
#
#
# Mechanical properties :
#
#
# Convention : Reuss Voigt Hill
#
# Bulk Modulus (GPa) = 48.06161 89.88301 68.97231
# Shear Modulus (GPa) = -4.31366 35.10256 15.39445
#
# Velocity S-wave (km/s) = -1.39284 3.97328 2.63125
# Velocity P-wave (km/s) = 4.36216 7.84047 6.34435
#
# Compressibility (1/GPa) = 0.02080663
#
# Stress axis : x y z
#
# Youngs Moduli (GPa) = 88.63056 61.03246 149.10387
#
# Poissons Ratio (x) = 0.12149 0.87798
# Poissons Ratio (y) = 0.17643 -0.16329
# Poissons Ratio (z) = 0.52189 -0.06684
#
# Static dielectric constant tensor:
#      x y z
#    x 1.797610 0.000000 0.000000 
#    y 0.000000 1.953800 0.000000 
#    z 0.000000 0.000000 1.825610 
# 
# From -- ./inp_files/59768.got.cif
#   From: 2010.05.17/outbox.cif.g08.bks.cpg/sg63_30_cif.got.tgz:59768.got - 2010.06.03 15:47:04.
