data_PCOD9468609
_publ_section_title
;
Structure prediction by ZEFSAII (Michael W. Deem and Ramdas Pophale) SiO2 
 PCOD9468609
Probable space group: C M C M
;
_chemical_formula_sum "Si O2"
_cell_formula_units_Z 64
_cell_length_a 15.266951
_cell_length_b 15.195010
_cell_length_c 11.240183
_cell_angle_alpha 90.000000
_cell_angle_beta 90.000000
_cell_angle_gamma 90.000000
_cell_volume 2607.514210
_symmetry_space_group_name_H-M "C M C M"
_symmetry_group_IT_number 63
_symmetry_cell_setting 'orthorhombic'
loop_
_space_group_symop_operation_xyz
x,y,z
-x,-y,1/2+z
x,-y,-z
-x,y,1/2-z
-x,-y,-z
x,y,1/2-z
-x,y,z
x,-y,1/2+z
1/2+x,1/2+y,z
1/2-x,1/2-y,1/2+z
1/2+x,1/2-y,-z
1/2-x,1/2+y,1/2-z
1/2-x,1/2-y,-z
1/2+x,1/2+y,1/2-z
1/2-x,1/2+y,z
1/2+x,1/2-y,1/2+z
loop_
_atom_site_type_symbol
_atom_site_label
_atom_site_fract_x
_atom_site_fract_y
_atom_site_fract_z
Si Si1 0.898435 0.873860 0.750000
Si Si2 0.353818 0.631380 0.504776
Si Si3 0.000000 0.443613 0.119581
Si Si4 0.810617 0.667918 0.250000
Si Si5 0.091960 0.841096 0.250000
Si Si6 0.846147 0.655785 0.510474
O O1 0.890566 0.911502 0.615239
O O2 0.795376 0.837203 0.750000
O O3 0.000000 0.835695 0.750000
O O4 0.402392 0.609222 0.626383
O O5 0.145286 0.632129 0.370027
O O6 0.358329 0.738294 0.483881
O O7 0.085974 0.384518 0.101043
O O8 0.000000 0.484348 0.250000
O O9 0.000000 0.500000 0.000000
O O10 0.830274 0.771495 0.250000
O O11 0.751227 0.880148 0.032033
O O12 0.000000 0.790006 0.250000
#
# Coordination Sequence:
#
# PCOD9468609 Si02
#       6
#     8  16   8   8   8  16
#     4  10  18  28  46  76 122 151 189 235 289 372
#     4   9  19  32  52  85 112 149 195 245 313 373
#     4  12  30  44  62  86 118 176 227 262 299 360
#     4   8  18  32  50  78 104 162 193 233 293 365
#     4  10  18  28  44  74 118 157 188 226 304 379
#     4   9  20  36  57  77 115 150 201 254 304 363
#
# _framework density 24.544449
#
# number of rings (size 3 to 8) (size 9 to 14) (size 15 to 20)
#    0.000    2.500    0.000    2.250   14.000    0.000 
#    0.000    0.000    0.000    0.000    0.000    0.000 
#    0.000   33.000    0.000    0.000    0.000    0.000 
#
# Total GULP energy -178159.410115 kJ/mol
# GULP energy per Si atom -5567.481566 kJ/mol
# Density = 2.448858 g / cm^3
# Si number density = 24.544449 Si / 1000 Ang^3
#
#
#
# Elastic Constant Matrix: (Units=GPa)
#
#
# Indices 1 2 3 4 5 6 
#
# 1 128.8926 29.6723 56.5711 0.0000 0.0000 0.0000
# 2 29.6723 38.1483 6.1371 0.0000 0.0000 0.0000
# 3 56.5711 6.1371 225.9444 0.0000 0.0000 0.0000
# 4 0.0000 0.0000 0.0000 -5.8248 0.0000 0.0000
# 5 0.0000 0.0000 0.0000 0.0000 12.0461 0.0000
# 6 0.0000 0.0000 0.0000 0.0000 0.0000 -142.7877
#
#
#
# Elastic Compliance Matrix: (Units=1/GPa)
#
#
# Indices 1 2 3 4 5 6 
#
# 1 0.010651 -0.007890 -0.002452 0.000000 0.000000 0.000000
# 2 -0.007890 0.032173 0.001102 0.000000 0.000000 0.000000
# 3 -0.002452 0.001102 0.005010 0.000000 0.000000 0.000000
# 4 0.000000 0.000000 0.000000 -0.171679 0.000000 0.000000
# 5 0.000000 0.000000 0.000000 0.000000 0.083015 0.000000
# 6 0.000000 0.000000 0.000000 0.000000 0.000000 -0.007003
#
#
# Mechanical properties :
#
#
# Convention : Reuss Voigt Hill
#
# Bulk Modulus (GPa) = 34.06862 64.19403 49.13133
# Shear Modulus (GPa) = -255.53657 -7.27297 -131.40477
#
# Velocity S-wave (km/s) = -10.21459 -1.72326 -7.32487
# Velocity P-wave (km/s) = 11.18957 4.71715 7.17478
#
# Compressibility (1/GPa) = 0.02935252
#
# Stress axis : x y z
#
# Youngs Moduli (GPa) = 93.88637 31.08164 199.60112
#
# Poissons Ratio (x) = 0.24524 0.48952
# Poissons Ratio (y) = 0.74077 -0.21988
# Poissons Ratio (z) = 0.23026 -0.03424
#
# Static dielectric constant tensor:
#      x y z
#    x 1.956380 0.000000 0.000000 
#    y 0.000000 1.980670 0.000000 
#    z 0.000000 0.000000 2.008090 
# 
# From -- ./inp_files/19016.got.cif
#   From: 2010.05.17/outbox.cif.g08.bks.cpg/sg63_10_cif.got.tgz:19016.got - 2010.06.03 15:47:04.
