data_PCOD9468516
_publ_section_title
;
Structure prediction by ZEFSAII (Michael W. Deem and Ramdas Pophale) SiO2 
 PCOD9468516
Probable space group: C M C M
;
_chemical_formula_sum "Si O2"
_cell_formula_units_Z 96
_cell_length_a 7.506800
_cell_length_b 24.297539
_cell_length_c 27.392985
_cell_angle_alpha 90.000000
_cell_angle_beta 90.000000
_cell_angle_gamma 90.000000
_cell_volume 4996.391869
_symmetry_space_group_name_H-M "C M C M"
_symmetry_group_IT_number 63
_symmetry_cell_setting 'orthorhombic'
loop_
_space_group_symop_operation_xyz
x,y,z
-x,-y,1/2+z
x,-y,-z
-x,y,1/2-z
-x,-y,-z
x,y,1/2-z
-x,y,z
x,-y,1/2+z
1/2+x,1/2+y,z
1/2-x,1/2-y,1/2+z
1/2+x,1/2-y,-z
1/2-x,1/2+y,1/2-z
1/2-x,1/2-y,-z
1/2+x,1/2+y,1/2-z
1/2-x,1/2+y,z
1/2+x,1/2-y,1/2+z
loop_
_atom_site_type_symbol
_atom_site_label
_atom_site_fract_x
_atom_site_fract_y
_atom_site_fract_z
Si Si1 0.284765 0.080030 0.390799
Si Si2 0.713260 0.651175 0.936438
Si Si3 0.281569 0.159720 0.305894
Si Si4 0.209017 0.818872 0.541931
Si Si5 0.201828 0.241499 0.870625
Si Si6 0.214355 0.522787 0.552471
O O1 0.500000 0.079734 0.389246
O O2 0.224285 0.109598 0.341042
O O3 0.229992 0.120725 0.434546
O O4 0.223747 0.019211 0.405363
O O5 0.500000 0.659498 0.936809
O O6 0.783621 0.684370 0.889452
O O7 0.742199 0.586134 0.938071
O O8 0.781077 0.677687 0.987126
O O9 0.226820 0.154319 0.250000
O O10 0.500000 0.160659 0.307179
O O11 0.218685 0.216887 0.330797
O O12 0.301389 0.778101 0.579816
O O13 0.000000 0.804889 0.541170
O O14 0.000000 0.230268 0.854017
O O15 0.279454 0.500000 0.500000
O O16 0.000000 0.519503 0.550857
#
# Coordination Sequence:
#
# PCOD9468516 Si02
#       6
#    16  16  16  16  16  16
#     4   9  17  30  46  66  91 117 149 187 223 261
#     4  10  20  30  42  63  92 125 153 181 217 260
#     4   8  14  27  50  72  85 105 144 192 232 264
#     4  10  18  27  42  65  91 119 151 181 217 261
#     4   9  18  31  45  64  91 118 148 184 225 267
#     4  10  19  30  45  64  89 124 157 182 216 261
#
# _framework density 19.213864000000001
#
# number of rings (size 3 to 8) (size 9 to 14) (size 15 to 20)
#    0.000    2.667    1.667    2.000    0.000    2.333 
#    0.000    0.000    0.000    9.000    0.000    0.000 
#    0.000    0.000    0.000    0.000    0.000    0.000 
#
# Total GULP energy -267618.911631 kJ/mol
# GULP energy per Si atom -5575.393992 kJ/mol
# Density = 1.917013 g / cm^3
# Si number density = 19.213864 Si / 1000 Ang^3
#
#
#
# Elastic Constant Matrix: (Units=GPa)
#
#
# Indices 1 2 3 4 5 6 
#
# 1 54.2751 0.7931 7.6878 0.0000 0.0000 0.0000
# 2 0.7931 96.4569 43.9432 0.0000 0.0000 0.0000
# 3 7.6878 43.9432 121.4163 0.0000 0.0000 0.0000
# 4 0.0000 0.0000 0.0000 15.7426 0.0000 0.0000
# 5 0.0000 0.0000 0.0000 0.0000 6.5195 0.0000
# 6 0.0000 0.0000 0.0000 0.0000 0.0000 14.3860
#
#
#
# Elastic Compliance Matrix: (Units=1/GPa)
#
#
# Indices 1 2 3 4 5 6 
#
# 1 0.018608 0.000460 -0.001345 0.000000 0.000000 0.000000
# 2 0.000460 0.012426 -0.004526 0.000000 0.000000 0.000000
# 3 -0.001345 -0.004526 0.009959 0.000000 0.000000 0.000000
# 4 0.000000 0.000000 0.000000 0.063522 0.000000 0.000000
# 5 0.000000 0.000000 0.000000 0.000000 0.153387 0.000000
# 6 0.000000 0.000000 0.000000 0.000000 0.000000 0.069512
#
#
# Mechanical properties :
#
#
# Convention : Reuss Voigt Hill
#
# Bulk Modulus (GPa) = 33.14447 41.88850 37.51648
# Shear Modulus (GPa) = 14.35571 21.97789 18.16680
#
# Velocity S-wave (km/s) = 2.73638 3.38576 3.07824
# Velocity P-wave (km/s) = 5.22220 6.09369 5.67470
#
# Compressibility (1/GPa) = 0.03017095
#
# Stress axis : x y z
#
# Youngs Moduli (GPa) = 53.73918 80.47933 100.40785
#
# Poissons Ratio (x) = -0.03698 0.13500
# Poissons Ratio (y) = -0.02470 0.45446
# Poissons Ratio (z) = 0.07226 0.36426
#
# Static dielectric constant tensor:
#      x y z
#    x 1.727660 0.000000 0.000000 
#    y 0.000000 1.702100 0.000000 
#    z 0.000000 0.000000 1.658550 
# 
# From -- ./inp_files/67178.got.cif
#   From: 2010.05.17/outbox.cif.g08.bks.cpg/sg63_34_cif.got.tgz:67178.got - 2010.06.03 15:47:04.
