data_PCOD9468080
_publ_section_title
;
Structure prediction by ZEFSAII (Michael W. Deem and Ramdas Pophale) SiO2 
 PCOD9468080
Probable space group: P N M A
;
_chemical_formula_sum "Si O2"
_cell_formula_units_Z 48
_cell_length_a 30.000000
_cell_length_b 9.000000
_cell_length_c 9.000000
_cell_angle_alpha 90.000000
_cell_angle_beta 90.000000
_cell_angle_gamma 90.000000
_cell_volume 2430.000000
_symmetry_space_group_name_H-M "P N M A"
_symmetry_group_IT_number 62
_symmetry_cell_setting 'orthorhombic'
loop_
_space_group_symop_operation_xyz
x,y,z
1/2-x,-y,1/2+z
1/2+x,1/2-y,1/2-z
-x,1/2+y,-z
-x,-y,-z
1/2+x,y,1/2-z
1/2-x,1/2+y,1/2+z
x,1/2-y,z
loop_
_atom_site_type_symbol
_atom_site_label
_atom_site_fract_x
_atom_site_fract_y
_atom_site_fract_z
Si Si1 0.898964 0.581986 0.165760
Si Si2 0.541584 0.927061 0.090099
Si Si3 0.225664 0.429438 0.598200
Si Si4 0.632527 0.082132 0.002914
Si Si5 0.805433 0.929275 0.070120
Si Si6 0.991576 0.426711 0.155641
O O1 0.913726 0.750000 0.121243
O O2 0.876446 0.596620 0.326808
O O3 0.858019 0.529172 0.062417
O O4 0.940846 0.475629 0.190345
O O5 0.538624 0.750000 0.075582
O O6 0.591341 0.982849 0.055768
O O7 0.528584 0.990246 0.248476
O O8 0.500000 0.000000 0.000000
O O9 0.227624 0.250000 0.591496
O O10 0.183565 0.474046 0.492277
O O11 0.271990 0.499085 0.546857
O O12 0.213638 0.472126 0.767165
O O13 0.629556 0.250000 0.067034
O O14 0.804364 0.750000 0.059724
O O15 0.995928 0.250000 0.165154
O O16 0.000000 0.500000 0.000000
#
# Coordination Sequence:
#
# PCOD9468080 Si02
#       6
#     8   8   8   8   8   8
#     4   9  18  36  60  82 111 151 194 236 283 338
#     4  12  23  37  60  89 117 149 191 237 283 336
#     4   9  19  36  57  83 114 149 188 234 283 336
#     4   9  18  35  59  84 112 148 193 240 284 332
#     4   9  19  36  58  84 113 149 188 233 284 336
#     4  12  25  41  60  85 117 153 192 237 289 345
#
# _framework density 19.753086
#
# number of rings (size 3 to 8) (size 9 to 14) (size 15 to 20)
#    0.000    2.000    1.667    5.000    0.000    2.000 
#    3.000    3.333    0.000    0.000    0.000    0.000 
#    0.000    0.000    0.000    0.000    0.000    0.000 
#
# Total GULP energy -267385.089249 kJ/mol
# GULP energy per Si atom -5570.522693 kJ/mol
# Density = 1.970813 g / cm^3
# Si number density = 19.753086 Si / 1000 Ang^3
#
#
#
# Elastic Constant Matrix: (Units=GPa)
#
#
# Indices 1 2 3 4 5 6 
#
# 1 37.3864 1.3970 -30.6495 0.0000 0.0000 0.0000
# 2 1.3970 66.3644 -14.9841 0.0000 0.0000 0.0000
# 3 -30.6495 -14.9841 17.7413 0.0000 0.0000 0.0000
# 4 0.0000 0.0000 0.0000 19.8101 0.0000 0.0000
# 5 0.0000 0.0000 0.0000 0.0000 30.3814 0.0000
# 6 0.0000 0.0000 0.0000 0.0000 0.0000 33.4874
#
#
#
# Elastic Compliance Matrix: (Units=1/GPa)
#
#
# Indices 1 2 3 4 5 6 
#
# 1 -0.037412 -0.017059 -0.079040 0.000000 0.000000 0.000000
# 2 -0.017059 0.010841 -0.020314 0.000000 0.000000 0.000000
# 3 -0.079040 -0.020314 -0.097340 0.000000 0.000000 0.000000
# 4 0.000000 0.000000 0.000000 0.050479 0.000000 0.000000
# 5 0.000000 0.000000 0.000000 0.000000 0.032915 0.000000
# 6 0.000000 0.000000 0.000000 0.000000 0.000000 0.029862
#
#
# Mechanical properties :
#
#
# Convention : Reuss Voigt Hill
#
# Bulk Modulus (GPa) = -2.80318 3.66878 0.43280
# Shear Modulus (GPa) = 48.42219 27.78434 38.10326
#
# Velocity S-wave (km/s) = 4.95651 3.75451 4.39678
# Velocity P-wave (km/s) = 5.59765 4.54494 5.09854
#
# Compressibility (1/GPa) = -0.35673737
#
# Stress axis : x y z
#
# Youngs Moduli (GPa) = -26.72905 92.24401 -10.27330
#
# Poissons Ratio (x) = 1.57355 -0.81201
# Poissons Ratio (y) = -0.45596 -0.20869
# Poissons Ratio (z) = -2.11267 1.87384
#
# Static dielectric constant tensor:
#      x y z
#    x 1.713110 0.000000 0.000000 
#    y 0.000000 1.662170 0.000000 
#    z 0.000000 0.000000 1.708420 
# 
# From -- ./inp_files/10167.got.cif
#   From: 2010.05.17/outbox.ucp.g08.bks.cvg/sg62_6_cif.got.tgz:10167.got - 2010.06.11 16:29:25.
