data_PCOD9468262
_publ_section_title
;
Structure prediction by ZEFSAII (Michael W. Deem and Ramdas Pophale) SiO2 
 PCOD9468262
Probable space group: C M C M
;
_chemical_formula_sum "Si O2"
_cell_formula_units_Z 48
_cell_length_a 21.194406
_cell_length_b 7.604625
_cell_length_c 13.001523
_cell_angle_alpha 90.000000
_cell_angle_beta 90.000000
_cell_angle_gamma 90.000000
_cell_volume 2095.527097
_symmetry_space_group_name_H-M "C M C M"
_symmetry_group_IT_number 63
_symmetry_cell_setting 'orthorhombic'
loop_
_space_group_symop_operation_xyz
x,y,z
-x,-y,1/2+z
x,-y,-z
-x,y,1/2-z
-x,-y,-z
x,y,1/2-z
-x,y,z
x,-y,1/2+z
1/2+x,1/2+y,z
1/2-x,1/2-y,1/2+z
1/2+x,1/2-y,-z
1/2-x,1/2+y,1/2-z
1/2-x,1/2-y,-z
1/2+x,1/2+y,1/2-z
1/2-x,1/2+y,z
1/2+x,1/2-y,1/2+z
loop_
_atom_site_type_symbol
_atom_site_label
_atom_site_fract_x
_atom_site_fract_y
_atom_site_fract_z
Si Si1 0.775791 0.044383 0.750000
Si Si2 0.647443 0.907611 0.750000
Si Si3 0.426586 0.758018 0.568044
Si Si4 0.119631 0.878728 0.637234
O O1 0.807649 0.234287 0.750000
O O2 0.701111 0.054637 0.750000
O O3 0.807959 0.942830 0.846603
O O4 0.605102 0.888234 0.850736
O O5 0.500000 0.795039 0.554126
O O6 0.392168 0.746031 0.458348
O O7 0.418005 0.560524 0.614726
O O8 0.098806 0.812802 0.750000
#
# Coordination Sequence:
#
# PCOD9468262 Si02
#       4
#     8   8  16  16
#     4   8  18  32  46  70  96 126 164 192 230 280
#     4  10  19  32  48  72  99 126 160 190 238 284
#     4  10  17  26  46  72  97 120 151 201 245 278
#     4   8  16  28  42  68  96 122 150 193 241 278
#
# _framework density 22.905930999999999
#
# number of rings (size 3 to 8) (size 9 to 14) (size 15 to 20)
#    1.000    2.000    1.667    2.500    0.000    3.333 
#    0.000    0.000    0.000    0.000    0.000   25.667 
#    0.000    0.000    0.000    0.000    0.000    0.000 
#
# Total GULP energy -133968.848744 kJ/mol
# GULP energy per Si atom -5582.035364 kJ/mol
# Density = 2.285380 g / cm^3
# Si number density = 22.905931 Si / 1000 Ang^3
#
#
#
# Elastic Constant Matrix: (Units=GPa)
#
#
# Indices 1 2 3 4 5 6 
#
# 1 84.0265 16.1237 24.8088 0.0000 0.0000 0.0000
# 2 16.1237 67.6618 26.4467 0.0000 0.0000 0.0000
# 3 24.8088 26.4467 160.7246 0.0000 0.0000 0.0000
# 4 0.0000 0.0000 0.0000 10.9450 0.0000 0.0000
# 5 0.0000 0.0000 0.0000 0.0000 16.4215 0.0000
# 6 0.0000 0.0000 0.0000 0.0000 0.0000 20.4575
#
#
#
# Elastic Compliance Matrix: (Units=1/GPa)
#
#
# Indices 1 2 3 4 5 6 
#
# 1 0.012836 -0.002441 -0.001580 0.000000 0.000000 0.000000
# 2 -0.002441 0.016260 -0.002299 0.000000 0.000000 0.000000
# 3 -0.001580 -0.002299 0.006844 0.000000 0.000000 0.000000
# 4 0.000000 0.000000 0.000000 0.091366 0.000000 0.000000
# 5 0.000000 0.000000 0.000000 0.000000 0.060896 0.000000
# 6 0.000000 0.000000 0.000000 0.000000 0.000000 0.048882
#
#
# Mechanical properties :
#
#
# Convention : Reuss Voigt Hill
#
# Bulk Modulus (GPa) = 42.91804 49.68568 46.30186
# Shear Modulus (GPa) = 19.41831 25.90037 22.65934
#
# Velocity S-wave (km/s) = 2.91476 3.36628 3.14862
# Velocity P-wave (km/s) = 5.48681 6.07020 5.78586
#
# Compressibility (1/GPa) = 0.02330023
#
# Stress axis : x y z
#
# Youngs Moduli (GPa) = 77.90682 61.50205 146.11611
#
# Poissons Ratio (x) = 0.15015 0.23080
# Poissons Ratio (y) = 0.19020 0.33587
# Poissons Ratio (z) = 0.12306 0.14137
#
# Static dielectric constant tensor:
#      x y z
#    x 1.792400 0.000000 0.000000 
#    y 0.000000 1.965470 0.000000 
#    z 0.000000 0.000000 1.846930 
# 
# From -- ./inp_files/33092.got.cif
#   From: 2010.05.17/outbox.cif.g08.bks.cpg/sg63_17_cif.got.tgz:33092.got - 2010.06.03 15:47:04.
