data_PCOD9468208
_publ_section_title
;
Structure prediction by ZEFSAII (Michael W. Deem and Ramdas Pophale) SiO2 
 PCOD9468208
Probable space group: C M C M
;
_chemical_formula_sum "Si O2"
_cell_formula_units_Z 80
_cell_length_a 24.794569
_cell_length_b 9.223398
_cell_length_c 18.265605
_cell_angle_alpha 90.000000
_cell_angle_beta 90.000000
_cell_angle_gamma 90.000000
_cell_volume 4177.164461
_symmetry_space_group_name_H-M "C M C M"
_symmetry_group_IT_number 63
_symmetry_cell_setting 'orthorhombic'
loop_
_space_group_symop_operation_xyz
x,y,z
-x,-y,1/2+z
x,-y,-z
-x,y,1/2-z
-x,-y,-z
x,y,1/2-z
-x,y,z
x,-y,1/2+z
1/2+x,1/2+y,z
1/2-x,1/2-y,1/2+z
1/2+x,1/2-y,-z
1/2-x,1/2+y,1/2-z
1/2-x,1/2-y,-z
1/2+x,1/2+y,1/2-z
1/2-x,1/2+y,z
1/2+x,1/2-y,1/2+z
loop_
_atom_site_type_symbol
_atom_site_label
_atom_site_fract_x
_atom_site_fract_y
_atom_site_fract_z
Si Si1 0.792016 0.756801 0.166636
Si Si2 0.787812 0.949455 0.922985
Si Si3 0.617924 0.931892 0.889553
Si Si4 0.000000 0.167661 0.480238
Si Si5 0.000000 0.581347 0.080895
Si Si6 0.618026 0.229526 0.547452
O O1 0.774069 0.777679 0.250000
O O2 0.750427 0.660510 0.120054
O O3 0.846924 0.663165 0.164319
O O4 0.798758 0.910211 0.126372
O O5 0.842063 0.863449 0.944087
O O6 0.761980 0.000000 0.000000
O O7 0.554344 0.949079 0.876408
O O8 0.636650 0.097485 0.900368
O O9 0.621035 0.844027 0.966957
O O10 0.944066 0.218376 0.442079
O O11 0.000000 0.252052 0.557324
O O12 0.000000 0.000000 0.500000
O O13 0.000000 0.500000 0.000000
#
# Coordination Sequence:
#
# PCOD9468208 Si02
#       6
#    16  16  16   8   8  16
#     4  12  27  43  60  87 126 165 202 255 323 378
#     4  12  24  40  64  91 118 158 213 261 305 366
#     4  10  19  36  61  89 128 154 201 245 305 361
#     4  10  18  28  52  91 138 148 186 248 316 342
#     4  10  16  32  57  93 125 158 194 250 301 345
#     4  10  19  34  59  96 121 155 195 256 298 347
#
# _framework density 19.151747
#
# number of rings (size 3 to 8) (size 9 to 14) (size 15 to 20)
#    0.000    1.200    6.000    3.000    5.600    0.000 
#    0.000    1.500    0.000    0.000    0.000    4.900 
#    0.000    0.000    0.000    0.000    0.000    0.000 
#
# Total GULP energy -223253.610846 kJ/mol
# GULP energy per Si atom -5581.340271 kJ/mol
# Density = 1.910816 g / cm^3
# Si number density = 19.151747 Si / 1000 Ang^3
#
#
#
# Elastic Constant Matrix: (Units=GPa)
#
#
# Indices 1 2 3 4 5 6 
#
# 1 94.8577 37.8140 25.0375 0.0000 0.0000 0.0000
# 2 37.8140 158.3138 40.1042 0.0000 0.0000 0.0000
# 3 25.0375 40.1042 80.5897 0.0000 0.0000 0.0000
# 4 0.0000 0.0000 0.0000 12.0486 0.0000 0.0000
# 5 0.0000 0.0000 0.0000 0.0000 -1.3450 0.0000
# 6 0.0000 0.0000 0.0000 0.0000 0.0000 32.8927
#
#
#
# Elastic Compliance Matrix: (Units=1/GPa)
#
#
# Indices 1 2 3 4 5 6 
#
# 1 0.012131 -0.002223 -0.002663 0.000000 0.000000 0.000000
# 2 -0.002223 0.007635 -0.003109 0.000000 0.000000 0.000000
# 3 -0.002663 -0.003109 0.014783 0.000000 0.000000 0.000000
# 4 0.000000 0.000000 0.000000 0.082997 0.000000 0.000000
# 5 0.000000 0.000000 0.000000 0.000000 -0.743490 0.000000
# 6 0.000000 0.000000 0.000000 0.000000 0.000000 0.030402
#
#
# Mechanical properties :
#
#
# Convention : Reuss Voigt Hill
#
# Bulk Modulus (GPa) = 53.87931 59.96364 56.92147
# Shear Modulus (GPa) = -8.72042 24.10629 7.69294
#
# Velocity S-wave (km/s) = -2.13617 3.55166 2.00638
# Velocity P-wave (km/s) = 4.70209 6.94239 5.92902
#
# Compressibility (1/GPa) = 0.01856000
#
# Stress axis : x y z
#
# Youngs Moduli (GPa) = 82.43273 130.97423 67.64618
#
# Poissons Ratio (x) = 0.29117 0.18011
# Poissons Ratio (y) = 0.18325 0.21030
# Poissons Ratio (z) = 0.21949 0.40718
#
# Static dielectric constant tensor:
#      x y z
#    x 1.729090 0.000000 0.000000 
#    y 0.000000 1.678560 0.000000 
#    z 0.000000 0.000000 1.659210 
# 
# From -- ./inp_files/48883.got.cif
#   From: 2010.05.17/outbox.cif.g08.bks.cpg/sg63_25_cif.got.tgz:48883.got - 2010.06.03 15:47:04.
