data_PCOD9468258
_publ_section_title
;
Structure prediction by ZEFSAII (Michael W. Deem and Ramdas Pophale) SiO2 
 PCOD9468258
Probable space group: C M C M
;
_chemical_formula_sum "Si O2"
_cell_formula_units_Z 112
_cell_length_a 19.515253
_cell_length_b 20.589052
_cell_length_c 16.934344
_cell_angle_alpha 90.000000
_cell_angle_beta 90.000000
_cell_angle_gamma 90.000000
_cell_volume 6804.228882
_symmetry_space_group_name_H-M "C M C M"
_symmetry_group_IT_number 63
_symmetry_cell_setting 'orthorhombic'
loop_
_space_group_symop_operation_xyz
x,y,z
-x,-y,1/2+z
x,-y,-z
-x,y,1/2-z
-x,-y,-z
x,y,1/2-z
-x,y,z
x,-y,1/2+z
1/2+x,1/2+y,z
1/2-x,1/2-y,1/2+z
1/2+x,1/2-y,-z
1/2-x,1/2+y,1/2-z
1/2-x,1/2-y,-z
1/2+x,1/2+y,1/2-z
1/2-x,1/2+y,z
1/2+x,1/2-y,1/2+z
loop_
_atom_site_type_symbol
_atom_site_label
_atom_site_fract_x
_atom_site_fract_y
_atom_site_fract_z
Si Si1 0.218790 0.127444 0.845356
Si Si2 0.276762 0.009517 0.344807
Si Si3 0.384462 0.817153 0.575047
Si Si4 0.761048 0.151302 0.344723
Si Si5 0.925705 0.813063 0.155126
Si Si6 0.193395 0.266354 0.066247
Si Si7 0.575104 0.034656 0.085028
O O1 0.220356 0.128169 0.750000
O O2 0.142170 0.148064 0.870679
O O3 0.272578 0.179854 0.877746
O O4 0.241255 0.056240 0.873884
O O5 0.274581 0.009053 0.250000
O O6 0.238250 0.075767 0.369829
O O7 0.356269 0.013072 0.369805
O O8 0.313462 0.824901 0.624636
O O9 0.422409 0.758017 0.616863
O O10 0.367860 0.795819 0.485232
O O11 0.419098 0.887383 0.576669
O O12 0.764437 0.155959 0.250000
O O13 0.815224 0.199752 0.385165
O O14 0.921503 0.806555 0.250000
O O15 0.000000 0.843107 0.136260
O O16 0.250000 0.250000 0.000000
O O17 0.500000 0.019343 0.120644
O O18 0.577799 0.000000 0.000000
#
# Coordination Sequence:
#
# PCOD9468258 Si02
#       7
#    16  16  16  16  16  16  16
#     4  10  18  31  48  69  98 130 163 209 250 292
#     4   9  19  32  48  69  96 127 165 204 245 290
#     4  10  18  29  46  69  98 125 162 195 239 295
#     4   9  16  28  44  67  95 121 153 202 244 285
#     4  10  19  30  47  71  98 127 158 197 250 302
#     4  10  17  26  45  67  94 125 160 197 243 287
#     4  10  20  33  47  66  98 133 164 198 239 292
#
# _framework density 16.460350999999999
#
# number of rings (size 3 to 8) (size 9 to 14) (size 15 to 20)
#    0.000    2.286    2.857    2.143    0.000    0.857 
#    0.000    0.000    0.000    0.000    0.000    3.000 
#    0.000    7.429    0.000    0.571    0.000    0.000 
#
# Total GULP energy -311820.030233 kJ/mol
# GULP energy per Si atom -5568.214826 kJ/mol
# Density = 1.642289 g / cm^3
# Si number density = 16.460351 Si / 1000 Ang^3
#
#
#
# Elastic Constant Matrix: (Units=GPa)
#
#
# Indices 1 2 3 4 5 6 
#
# 1 62.4524 40.2347 4.8083 0.0000 0.0000 0.0000
# 2 40.2347 113.9371 19.6823 0.0000 0.0000 0.0000
# 3 4.8083 19.6823 22.1769 0.0000 0.0000 0.0000
# 4 0.0000 0.0000 0.0000 21.5346 0.0000 0.0000
# 5 0.0000 0.0000 0.0000 0.0000 15.6354 0.0000
# 6 0.0000 0.0000 0.0000 0.0000 0.0000 5.2603
#
#
#
# Elastic Compliance Matrix: (Units=1/GPa)
#
#
# Indices 1 2 3 4 5 6 
#
# 1 0.020833 -0.007767 0.002377 0.000000 0.000000 0.000000
# 2 -0.007767 0.013262 -0.010086 0.000000 0.000000 0.000000
# 3 0.002377 -0.010086 0.053528 0.000000 0.000000 0.000000
# 4 0.000000 0.000000 0.000000 0.046437 0.000000 0.000000
# 5 0.000000 0.000000 0.000000 0.000000 0.063957 0.000000
# 6 0.000000 0.000000 0.000000 0.000000 0.000000 0.190104
#
#
# Mechanical properties :
#
#
# Convention : Reuss Voigt Hill
#
# Bulk Modulus (GPa) = 17.64605 36.44635 27.04620
# Shear Modulus (GPa) = 11.41642 17.40881 14.41261
#
# Velocity S-wave (km/s) = 2.63643 3.25564 2.96226
# Velocity P-wave (km/s) = 4.47340 6.02679 5.30723
#
# Compressibility (1/GPa) = 0.05666992
#
# Stress axis : x y z
#
# Youngs Moduli (GPa) = 47.99997 75.40306 18.68169
#
# Poissons Ratio (x) = 0.58569 -0.04440
# Poissons Ratio (y) = 0.37284 0.18843
# Poissons Ratio (z) = -0.11408 0.76053
#
# Static dielectric constant tensor:
#      x y z
#    x 1.569410 0.000000 0.000000 
#    y 0.000000 1.579170 0.000000 
#    z 0.000000 0.000000 1.559670 
# 
# From -- ./inp_files/46129.got.cif
#   From: 2010.05.17/outbox.cif.g08.bks.cpg/sg63_24_cif.got.tgz:46129.got - 2010.06.03 15:47:04.
