data_PCOD9468971
_publ_section_title
;
Structure prediction by ZEFSAII (Michael W. Deem and Ramdas Pophale) SiO2 
 PCOD9468971
Probable space group: C M C M
;
_chemical_formula_sum "Si O2"
_cell_formula_units_Z 72
_cell_length_a 13.626438
_cell_length_b 25.425720
_cell_length_c 11.360172
_cell_angle_alpha 90.000000
_cell_angle_beta 90.000000
_cell_angle_gamma 90.000000
_cell_volume 3935.867879
_symmetry_space_group_name_H-M "C M C M"
_symmetry_group_IT_number 63
_symmetry_cell_setting 'orthorhombic'
loop_
_space_group_symop_operation_xyz
x,y,z
-x,-y,1/2+z
x,-y,-z
-x,y,1/2-z
-x,-y,-z
x,y,1/2-z
-x,y,z
x,-y,1/2+z
1/2+x,1/2+y,z
1/2-x,1/2-y,1/2+z
1/2+x,1/2-y,-z
1/2-x,1/2+y,1/2-z
1/2-x,1/2-y,-z
1/2+x,1/2+y,1/2-z
1/2-x,1/2+y,z
1/2+x,1/2-y,1/2+z
loop_
_atom_site_type_symbol
_atom_site_label
_atom_site_fract_x
_atom_site_fract_y
_atom_site_fract_z
Si Si1 0.805255 0.620611 0.750000
Si Si2 0.881589 0.237803 0.506706
Si Si3 0.880744 0.657071 0.380582
Si Si4 0.618943 0.242341 0.750000
Si Si5 0.618756 0.940501 0.021925
Si Si6 0.882335 0.176157 0.750000
O O1 0.844638 0.681288 0.750000
O O2 0.842735 0.588258 0.637939
O O3 0.687626 0.625836 0.750000
O O4 0.849455 0.297984 0.529662
O O5 0.851735 0.227955 0.371189
O O6 0.857097 0.206342 0.626833
O O7 0.000000 0.235757 0.505542
O O8 0.849183 0.670941 0.250000
O O9 0.851580 0.598825 0.417261
O O10 0.000000 0.658150 0.381447
O O11 0.500000 0.238841 0.750000
O O12 0.500000 0.941471 0.028910
O O13 0.652066 0.000000 0.000000
O O14 0.000000 0.167903 0.750000
#
# Coordination Sequence:
#
# PCOD9468971 Si02
#       6
#     8  16  16   8  16   8
#     4  12  22  34  55  78 108 141 189 226 269 326
#     4   9  16  30  50  73 105 145 183 218 265 321
#     4   9  15  26  46  70 101 144 181 209 252 319
#     4  10  18  30  50  78 113 142 172 217 269 329
#     4  10  21  34  51  78 112 143 173 214 275 340
#     4  10  22  38  55  74 105 149 193 237 274 313
#
# _framework density 18.293296999999999
#
# number of rings (size 3 to 8) (size 9 to 14) (size 15 to 20)
#    0.000    2.222    3.333    1.000    1.556    0.889 
#    0.000    0.000    0.000    0.667    0.000    0.000 
#    0.000    0.000    0.000    0.000    0.000    0.000 
#
# Total GULP energy -200581.927066 kJ/mol
# GULP energy per Si atom -5571.720196 kJ/mol
# Density = 1.825166 g / cm^3
# Si number density = 18.293297 Si / 1000 Ang^3
#
#
#
# Elastic Constant Matrix: (Units=GPa)
#
#
# Indices 1 2 3 4 5 6 
#
# 1 55.5126 0.0028 7.6177 0.0000 0.0000 0.0000
# 2 0.0028 36.2554 25.9934 0.0000 0.0000 0.0000
# 3 7.6177 25.9934 147.5861 0.0000 0.0000 0.0000
# 4 0.0000 0.0000 0.0000 19.9424 0.0000 0.0000
# 5 0.0000 0.0000 0.0000 0.0000 12.0924 0.0000
# 6 0.0000 0.0000 0.0000 0.0000 0.0000 17.1699
#
#
#
# Elastic Compliance Matrix: (Units=1/GPa)
#
#
# Indices 1 2 3 4 5 6 
#
# 1 0.018161 0.000768 -0.001073 0.000000 0.000000 0.000000
# 2 0.000768 0.031601 -0.005605 0.000000 0.000000 0.000000
# 3 -0.001073 -0.005605 0.007818 0.000000 0.000000 0.000000
# 4 0.000000 0.000000 0.000000 0.050144 0.000000 0.000000
# 5 0.000000 0.000000 0.000000 0.000000 0.082697 0.000000
# 6 0.000000 0.000000 0.000000 0.000000 0.000000 0.058242
#
#
# Mechanical properties :
#
#
# Convention : Reuss Voigt Hill
#
# Bulk Modulus (GPa) = 21.85335 34.06466 27.95901
# Shear Modulus (GPa) = 18.13324 23.55694 20.84509
#
# Velocity S-wave (km/s) = 3.15183 3.59240 3.37930
# Velocity P-wave (km/s) = 5.02169 5.98907 5.52659
#
# Compressibility (1/GPa) = 0.04575957
#
# Stress axis : x y z
#
# Youngs Moduli (GPa) = 55.06284 31.64484 127.90538
#
# Poissons Ratio (x) = -0.02429 0.13719
# Poissons Ratio (y) = -0.04226 0.71694
# Poissons Ratio (z) = 0.05906 0.17738
#
# Static dielectric constant tensor:
#      x y z
#    x 1.658330 0.000000 0.000000 
#    y 0.000000 1.593590 0.000000 
#    z 0.000000 0.000000 1.687020 
# 
# From -- ./inp_files/19323.got.cif
#   From: 2010.05.17/outbox.cif.g08.bks.cpg/sg63_10_cif.got.tgz:19323.got - 2010.06.03 15:47:04.
