data_PCOD9468786
_publ_section_title
;
Structure prediction by ZEFSAII (Michael W. Deem and Ramdas Pophale) SiO2 
 PCOD9468786
Probable space group: C M C M
;
_chemical_formula_sum "Si O2"
_cell_formula_units_Z 128
_cell_length_a 22.068896
_cell_length_b 18.402134
_cell_length_c 16.922311
_cell_angle_alpha 90.000000
_cell_angle_beta 90.000000
_cell_angle_gamma 90.000000
_cell_volume 6872.400633
_symmetry_space_group_name_H-M "C M C M"
_symmetry_group_IT_number 63
_symmetry_cell_setting 'orthorhombic'
loop_
_space_group_symop_operation_xyz
x,y,z
-x,-y,1/2+z
x,-y,-z
-x,y,1/2-z
-x,-y,-z
x,y,1/2-z
-x,y,z
x,-y,1/2+z
1/2+x,1/2+y,z
1/2-x,1/2-y,1/2+z
1/2+x,1/2-y,-z
1/2-x,1/2+y,1/2-z
1/2-x,1/2-y,-z
1/2+x,1/2+y,1/2-z
1/2-x,1/2+y,z
1/2+x,1/2-y,1/2+z
loop_
_atom_site_type_symbol
_atom_site_label
_atom_site_fract_x
_atom_site_fract_y
_atom_site_fract_z
Si Si1 0.751211 0.126372 0.041462
Si Si2 0.137932 0.437569 0.056754
Si Si3 0.261032 0.002763 0.160905
Si Si4 0.628304 0.194471 0.842702
Si Si5 0.236426 0.754785 0.337933
Si Si6 0.070539 0.152651 0.345917
Si Si7 0.927598 0.990339 0.155864
Si Si8 0.331230 0.618111 0.890823
O O1 0.739142 0.198286 0.091052
O O2 0.764857 0.064246 0.104457
O O3 0.690845 0.099628 0.996095
O O4 0.804417 0.131003 0.977905
O O5 0.174169 0.478942 0.126399
O O6 0.105278 0.370360 0.100727
O O7 0.108999 0.500000 0.000000
O O8 0.265734 0.027473 0.250000
O O9 0.215351 0.936020 0.152993
O O10 0.611048 0.183895 0.750000
O O11 0.701759 0.197747 0.844908
O O12 0.606625 0.274898 0.868941
O O13 0.238136 0.721568 0.250000
O O14 0.177749 0.805442 0.347451
O O15 0.073344 0.150236 0.250000
O O16 0.000000 0.161462 0.367888
O O17 0.090757 0.071892 0.371549
O O18 0.913832 0.984573 0.250000
O O19 0.893824 0.924786 0.112518
O O20 0.000000 0.986030 0.147270
#
# Coordination Sequence:
#
# PCOD9468786 Si02
#       8
#    16  16  16  16  16  16  16  16
#     4  10  21  33  45  69 101 139 169 208 264 323
#     4   9  18  31  46  68  99 133 165 200 259 318
#     4  10  18  31  48  68  97 132 171 207 250 313
#     4  10  18  29  49  75 101 132 172 216 264 317
#     4  11  21  32  48  75 102 133 176 217 266 325
#     4   8  16  31  50  75 105 136 176 221 263 305
#     4   9  18  33  53  78 106 141 185 226 261 303
#     4  11  20  32  51  73 106 140 174 220 270 319
#
# _framework density 18.625225
#
# number of rings (size 3 to 8) (size 9 to 14) (size 15 to 20)
#    0.000    2.250    2.500    4.125    1.750    0.000 
#    0.000    0.000    0.000    2.625    0.000    0.000 
#    0.000    1.000    0.000   17.250    0.000    3.875 
#
# Total GULP energy -356826.281300 kJ/mol
# GULP energy per Si atom -5575.410645 kJ/mol
# Density = 1.858283 g / cm^3
# Si number density = 18.625225 Si / 1000 Ang^3
#
#
#
# Elastic Constant Matrix: (Units=GPa)
#
#
# Indices 1 2 3 4 5 6 
#
# 1 37.4492 37.5523 10.4624 0.0000 0.0000 0.0000
# 2 37.5523 106.3679 44.7983 0.0000 0.0000 0.0000
# 3 10.4624 44.7983 99.4559 0.0000 0.0000 0.0000
# 4 0.0000 0.0000 0.0000 65.9056 0.0000 0.0000
# 5 0.0000 0.0000 0.0000 0.0000 7.2729 0.0000
# 6 0.0000 0.0000 0.0000 0.0000 0.0000 26.1452
#
#
#
# Elastic Compliance Matrix: (Units=1/GPa)
#
#
# Indices 1 2 3 4 5 6 
#
# 1 0.041953 -0.015985 0.002787 0.000000 0.000000 0.000000
# 2 -0.015985 0.017693 -0.006288 0.000000 0.000000 0.000000
# 3 0.002787 -0.006288 0.012594 0.000000 0.000000 0.000000
# 4 0.000000 0.000000 0.000000 0.015173 0.000000 0.000000
# 5 0.000000 0.000000 0.000000 0.000000 0.137498 0.000000
# 6 0.000000 0.000000 0.000000 0.000000 0.000000 0.038248
#
#
# Mechanical properties :
#
#
# Convention : Reuss Voigt Hill
#
# Bulk Modulus (GPa) = 30.05898 47.65543 38.85720
# Shear Modulus (GPa) = 15.96321 29.89539 22.92930
#
# Velocity S-wave (km/s) = 2.93076 4.01072 3.51249
# Velocity P-wave (km/s) = 5.25608 6.86221 6.11213
#
# Compressibility (1/GPa) = 0.03326793
#
# Stress axis : x y z
#
# Youngs Moduli (GPa) = 23.83607 56.51975 79.40383
#
# Poissons Ratio (x) = 0.90346 -0.22129
# Poissons Ratio (y) = 0.38102 0.49929
# Poissons Ratio (z) = -0.06643 0.35539
#
# Static dielectric constant tensor:
#      x y z
#    x 1.643990 0.000000 0.000000 
#    y 0.000000 1.705200 0.000000 
#    z 0.000000 0.000000 1.670450 
# 
# From -- ./inp_files/48419.got.cif
#   From: 2010.05.17/outbox.cif.g08.bks.cpg/sg63_25_cif.got.tgz:48419.got - 2010.06.03 15:47:04.
