data_PCOD9468703
_publ_section_title
;
Structure prediction by ZEFSAII (Michael W. Deem and Ramdas Pophale) SiO2 
 PCOD9468703
Probable space group: C M C M
;
_chemical_formula_sum "Si O2"
_cell_formula_units_Z 96
_cell_length_a 29.427033
_cell_length_b 27.166233
_cell_length_c 8.629955
_cell_angle_alpha 90.000000
_cell_angle_beta 90.000000
_cell_angle_gamma 90.000000
_cell_volume 6898.972736
_symmetry_space_group_name_H-M "C M C M"
_symmetry_group_IT_number 63
_symmetry_cell_setting 'orthorhombic'
loop_
_space_group_symop_operation_xyz
x,y,z
-x,-y,1/2+z
x,-y,-z
-x,y,1/2-z
-x,-y,-z
x,y,1/2-z
-x,y,z
x,-y,1/2+z
1/2+x,1/2+y,z
1/2-x,1/2-y,1/2+z
1/2+x,1/2-y,-z
1/2-x,1/2+y,1/2-z
1/2-x,1/2-y,-z
1/2+x,1/2+y,1/2-z
1/2-x,1/2+y,z
1/2+x,1/2-y,1/2+z
loop_
_atom_site_type_symbol
_atom_site_label
_atom_site_fract_x
_atom_site_fract_y
_atom_site_fract_z
Si Si1 0.643454 0.742848 0.434228
Si Si2 0.276909 0.202313 0.435153
Si Si3 0.355071 0.553361 0.436066
Si Si4 0.050672 0.100472 0.436552
Si Si5 0.948313 0.210973 0.565045
Si Si6 0.696705 0.647410 0.935225
O O1 0.648529 0.742516 0.250000
O O2 0.672295 0.787872 0.505214
O O3 0.591089 0.741744 0.483452
O O4 0.665551 0.692182 0.500081
O O5 0.275510 0.202209 0.250000
O O6 0.250000 0.250000 0.500000
O O7 0.247584 0.157432 0.502152
O O8 0.342794 0.500000 0.500000
O O9 0.352104 0.554123 0.250000
O O10 0.407257 0.566318 0.481416
O O11 0.324022 0.596595 0.504640
O O12 0.052248 0.106639 0.250000
O O13 0.056594 0.154178 0.511717
O O14 0.000000 0.082183 0.477918
O O15 0.942635 0.213395 0.750000
O O16 0.000000 0.225884 0.525834
O O17 0.696215 0.649721 0.750000
#
# Coordination Sequence:
#
# PCOD9468703 Si02
#       6
#    16  16  16  16  16  16
#     4  11  19  29  45  65  87 111 138 170 209 254
#     4  10  18  29  45  65  86 107 133 166 207 253
#     4  11  22  34  47  63  82 108 141 179 222 267
#     4   9  18  32  47  60  77 104 138 177 221 265
#     4  10  19  29  43  63  85 111 143 176 213 255
#     4  11  20  32  47  63  84 107 135 174 215 258
#
# _framework density 13.915115
#
# number of rings (size 3 to 8) (size 9 to 14) (size 15 to 20)
#    0.000    1.667    1.667    7.500    0.000    2.000 
#    0.000    0.000    0.000    0.000    0.000    0.000 
#    0.000    0.000    0.000    0.000    0.000    0.833 
#
# Total GULP energy -267819.855925 kJ/mol
# GULP energy per Si atom -5579.580332 kJ/mol
# Density = 1.388344 g / cm^3
# Si number density = 13.915115 Si / 1000 Ang^3
#
#
#
# Elastic Constant Matrix: (Units=GPa)
#
#
# Indices 1 2 3 4 5 6 
#
# 1 92.0705 53.5893 44.5639 0.0000 0.0000 0.0000
# 2 53.5893 58.2317 33.4116 0.0000 0.0000 0.0000
# 3 44.5639 33.4116 96.5495 0.0000 0.0000 0.0000
# 4 0.0000 0.0000 0.0000 17.5907 0.0000 0.0000
# 5 0.0000 0.0000 0.0000 0.0000 21.6889 0.0000
# 6 0.0000 0.0000 0.0000 0.0000 0.0000 18.8055
#
#
#
# Elastic Compliance Matrix: (Units=1/GPa)
#
#
# Indices 1 2 3 4 5 6 
#
# 1 0.024822 -0.020300 -0.004432 0.000000 0.000000 0.000000
# 2 -0.020300 0.038029 -0.003790 0.000000 0.000000 0.000000
# 3 -0.004432 -0.003790 0.013715 0.000000 0.000000 0.000000
# 4 0.000000 0.000000 0.000000 0.056848 0.000000 0.000000
# 5 0.000000 0.000000 0.000000 0.000000 0.046107 0.000000
# 6 0.000000 0.000000 0.000000 0.000000 0.000000 0.053176
#
#
# Mechanical properties :
#
#
# Convention : Reuss Voigt Hill
#
# Bulk Modulus (GPa) = 51.22710 56.66460 53.94585
# Shear Modulus (GPa) = 16.87768 19.30282 18.09025
#
# Velocity S-wave (km/s) = 3.48645 3.72853 3.60952
# Velocity P-wave (km/s) = 7.28705 7.70363 7.49823
#
# Compressibility (1/GPa) = 0.01952092
#
# Stress axis : x y z
#
# Youngs Moduli (GPa) = 40.28674 26.29539 72.91426
#
# Poissons Ratio (x) = 0.53380 0.32315
# Poissons Ratio (y) = 0.81783 0.27638
# Poissons Ratio (z) = 0.17855 0.09967
#
# Static dielectric constant tensor:
#      x y z
#    x 1.500890 0.000000 0.000000 
#    y 0.000000 1.429190 0.000000 
#    z 0.000000 0.000000 1.461930 
# 
# From -- ./inp_files/12979.got.cif
#   From: 2010.05.17/outbox.cif.g08.bks.cpg/sg63_7_cif.got.tgz:12979.got - 2010.06.03 15:47:04.
