data_PCOD9468392
_publ_section_title
;
Structure prediction by ZEFSAII (Michael W. Deem and Ramdas Pophale) SiO2 
 PCOD9468392
Probable space group: C M C M
;
_chemical_formula_sum "Si O2"
_cell_formula_units_Z 112
_cell_length_a 13.432937
_cell_length_b 13.931501
_cell_length_c 31.715111
_cell_angle_alpha 90.000000
_cell_angle_beta 90.000000
_cell_angle_gamma 90.000000
_cell_volume 5935.196803
_symmetry_space_group_name_H-M "C M C M"
_symmetry_group_IT_number 63
_symmetry_cell_setting 'orthorhombic'
loop_
_space_group_symop_operation_xyz
x,y,z
-x,-y,1/2+z
x,-y,-z
-x,y,1/2-z
-x,-y,-z
x,y,1/2-z
-x,y,z
x,-y,1/2+z
1/2+x,1/2+y,z
1/2-x,1/2-y,1/2+z
1/2+x,1/2-y,-z
1/2-x,1/2+y,1/2-z
1/2-x,1/2-y,-z
1/2+x,1/2+y,1/2-z
1/2-x,1/2+y,z
1/2+x,1/2-y,1/2+z
loop_
_atom_site_type_symbol
_atom_site_label
_atom_site_fract_x
_atom_site_fract_y
_atom_site_fract_z
Si Si1 0.617025 0.763469 0.200754
Si Si2 0.117456 0.179976 0.611715
Si Si3 0.704886 0.349331 0.481028
Si Si4 0.257058 0.140357 0.140303
Si Si5 0.296403 0.932460 0.152385
Si Si6 0.611082 0.358109 0.933673
Si Si7 0.609583 0.123900 0.565015
O O1 0.629233 0.741359 0.250000
O O2 0.500000 0.759262 0.190234
O O3 0.679595 0.693376 0.170876
O O4 0.660496 0.867925 0.189634
O O5 0.143786 0.168409 0.561992
O O6 0.158923 0.284140 0.626111
O O7 0.187278 0.106304 0.637971
O O8 0.000000 0.168976 0.618510
O O9 0.750000 0.250000 0.500000
O O10 0.639351 0.388735 0.519103
O O11 0.802421 0.406407 0.466123
O O12 0.195047 0.109849 0.098758
O O13 0.296358 0.044376 0.161372
O O14 0.364818 0.912999 0.111392
O O15 0.500000 0.390762 0.922450
O O16 0.611603 0.240872 0.931959
O O17 0.500000 0.094773 0.551246
#
# Coordination Sequence:
#
# PCOD9468392 Si02
#       7
#    16  16  16  16  16  16  16
#     4  10  21  40  66  90 111 140 180 225 276 339
#     4  10  20  35  52  78 112 152 193 232 272 326
#     4   9  15  30  49  77 107 147 194 239 279 319
#     4  11  21  36  57  85 114 146 183 232 276 336
#     4  10  21  36  57  81 118 145 181 226 283 334
#     4  10  17  30  55  78 104 149 196 237 279 322
#     4   9  16  30  53  75 104 148 191 232 275 320
#
# _framework density 18.870477999999999
#
# number of rings (size 3 to 8) (size 9 to 14) (size 15 to 20)
#    0.000    2.143    5.714    1.286    0.000    3.429 
#    0.000    2.857    0.000   12.000    0.000    0.000 
#    0.000    0.000    0.000    0.000    0.000    0.000 
#
# Total GULP energy -312487.836568 kJ/mol
# GULP energy per Si atom -5580.139939 kJ/mol
# Density = 1.882753 g / cm^3
# Si number density = 18.870478 Si / 1000 Ang^3
#
#
#
# Elastic Constant Matrix: (Units=GPa)
#
#
# Indices 1 2 3 4 5 6 
#
# 1 98.5592 24.4036 26.7274 0.0000 0.0000 0.0000
# 2 24.4036 54.0059 13.5130 0.0000 0.0000 0.0000
# 3 26.7274 13.5130 65.4677 0.0000 0.0000 0.0000
# 4 0.0000 0.0000 0.0000 3.4760 0.0000 0.0000
# 5 0.0000 0.0000 0.0000 0.0000 21.3319 0.0000
# 6 0.0000 0.0000 0.0000 0.0000 0.0000 2.2514
#
#
#
# Elastic Compliance Matrix: (Units=1/GPa)
#
#
# Indices 1 2 3 4 5 6 
#
# 1 0.012394 -0.004571 -0.004117 0.000000 0.000000 0.000000
# 2 -0.004571 0.021210 -0.002512 0.000000 0.000000 0.000000
# 3 -0.004117 -0.002512 0.017474 0.000000 0.000000 0.000000
# 4 0.000000 0.000000 0.000000 0.287685 0.000000 0.000000
# 5 0.000000 0.000000 0.000000 0.000000 0.046878 0.000000
# 6 0.000000 0.000000 0.000000 0.000000 0.000000 0.444166
#
#
# Mechanical properties :
#
#
# Convention : Reuss Voigt Hill
#
# Bulk Modulus (GPa) = 34.86747 38.59122 36.72934
# Shear Modulus (GPa) = 5.80204 15.63780 10.71992
#
# Velocity S-wave (km/s) = 1.75537 2.88182 2.38603
# Velocity P-wave (km/s) = 4.75666 5.61856 5.20548
#
# Compressibility (1/GPa) = 0.02868003
#
# Stress axis : x y z
#
# Youngs Moduli (GPa) = 80.68287 47.14688 57.22851
#
# Poissons Ratio (x) = 0.21549 0.23559
# Poissons Ratio (y) = 0.36876 0.14376
# Poissons Ratio (z) = 0.33214 0.11843
#
# Static dielectric constant tensor:
#      x y z
#    x 1.661230 0.000000 0.000000 
#    y 0.000000 1.695150 0.000000 
#    z 0.000000 0.000000 1.643280 
# 
# From -- ./inp_files/73548.got.cif
#   From: 2010.05.17/outbox.cif.g08.bks.cpg/sg63_37_cif.got.tgz:73548.got - 2010.06.03 15:47:04.
