data_PCOD9468753
_publ_section_title
;
Structure prediction by ZEFSAII (Michael W. Deem and Ramdas Pophale) SiO2 
 PCOD9468753
Probable space group: C M C M
;
_chemical_formula_sum "Si O2"
_cell_formula_units_Z 96
_cell_length_a 27.039772
_cell_length_b 10.099590
_cell_length_c 21.124734
_cell_angle_alpha 90.000000
_cell_angle_beta 90.000000
_cell_angle_gamma 90.000000
_cell_volume 5768.966513
_symmetry_space_group_name_H-M "C M C M"
_symmetry_group_IT_number 63
_symmetry_cell_setting 'orthorhombic'
loop_
_space_group_symop_operation_xyz
x,y,z
-x,-y,1/2+z
x,-y,-z
-x,y,1/2-z
-x,-y,-z
x,y,1/2-z
-x,y,z
x,-y,1/2+z
1/2+x,1/2+y,z
1/2-x,1/2-y,1/2+z
1/2+x,1/2-y,-z
1/2-x,1/2+y,1/2-z
1/2-x,1/2-y,-z
1/2+x,1/2+y,1/2-z
1/2-x,1/2+y,z
1/2+x,1/2-y,1/2+z
loop_
_atom_site_type_symbol
_atom_site_label
_atom_site_fract_x
_atom_site_fract_y
_atom_site_fract_z
Si Si1 0.334320 0.215619 0.675229
Si Si2 0.944470 0.772505 0.326292
Si Si3 0.643280 0.080948 0.326103
Si Si4 0.127145 0.003048 0.323876
Si Si5 0.301845 0.444002 0.438624
Si Si6 0.237728 0.317500 0.898983
O O1 0.321724 0.207568 0.750000
O O2 0.372216 0.338458 0.668133
O O3 0.284691 0.253210 0.637237
O O4 0.356166 0.074018 0.655779
O O5 0.946889 0.757195 0.250000
O O6 0.903959 0.665540 0.349093
O O7 0.000000 0.756321 0.351271
O O8 0.922029 0.919022 0.337034
O O9 0.643294 0.087978 0.250000
O O10 0.693888 0.143574 0.351488
O O11 0.140931 0.976556 0.250000
O O12 0.167550 0.952290 0.373679
O O13 0.330180 0.500000 0.500000
O O14 0.257118 0.548028 0.430469
O O15 0.284026 0.294287 0.444988
#
# Coordination Sequence:
#
# PCOD9468753 Si02
#       6
#    16  16  16  16  16  16
#     4   9  18  29  45  72 102 131 165 199 238 290
#     4   9  17  30  50  74  96 123 163 210 257 299
#     4  10  18  29  47  72 100 129 164 205 246 291
#     4   9  18  33  52  71  97 130 167 206 246 293
#     4  11  22  33  48  71 105 134 167 200 242 295
#     4  11  19  32  46  68 100 135 167 194 241 288
#
# _framework density 16.640761999999999
#
# number of rings (size 3 to 8) (size 9 to 14) (size 15 to 20)
#    0.000    2.167    3.333    1.000    0.000    1.333 
#    0.000    0.833    0.000    5.500    0.000    0.000 
#    0.000    6.000    0.000    0.000    0.000    0.000 
#
# Total GULP energy -267280.325067 kJ/mol
# GULP energy per Si atom -5568.340106 kJ/mol
# Density = 1.660289 g / cm^3
# Si number density = 16.640762 Si / 1000 Ang^3
#
#
#
# Elastic Constant Matrix: (Units=GPa)
#
#
# Indices 1 2 3 4 5 6 
#
# 1 93.8968 50.2344 17.2950 0.0000 0.0000 0.0000
# 2 50.2344 112.3902 15.6406 0.0000 0.0000 0.0000
# 3 17.2950 15.6406 31.3982 0.0000 0.0000 0.0000
# 4 0.0000 0.0000 0.0000 19.2561 0.0000 0.0000
# 5 0.0000 0.0000 0.0000 0.0000 2.8398 0.0000
# 6 0.0000 0.0000 0.0000 0.0000 0.0000 14.9476
#
#
#
# Elastic Compliance Matrix: (Units=1/GPa)
#
#
# Indices 1 2 3 4 5 6 
#
# 1 0.014747 -0.005868 -0.005200 0.000000 0.000000 0.000000
# 2 -0.005868 0.011895 -0.002693 0.000000 0.000000 0.000000
# 3 -0.005200 -0.002693 0.036055 0.000000 0.000000 0.000000
# 4 0.000000 0.000000 0.000000 0.051932 0.000000 0.000000
# 5 0.000000 0.000000 0.000000 0.000000 0.352134 0.000000
# 6 0.000000 0.000000 0.000000 0.000000 0.000000 0.066900
#
#
# Mechanical properties :
#
#
# Convention : Reuss Voigt Hill
#
# Bulk Modulus (GPa) = 28.42945 44.89169 36.66057
# Shear Modulus (GPa) = 8.72737 17.70973 13.21855
#
# Velocity S-wave (km/s) = 2.29259 3.26580 2.82147
# Velocity P-wave (km/s) = 4.91215 6.42310 5.71775
#
# Compressibility (1/GPa) = 0.03517479
#
# Stress axis : x y z
#
# Youngs Moduli (GPa) = 67.81034 84.06868 27.73544
#
# Poissons Ratio (x) = 0.49329 0.14423
# Poissons Ratio (y) = 0.39789 0.07470
# Poissons Ratio (z) = 0.35262 0.22642
#
# Static dielectric constant tensor:
#      x y z
#    x 1.537420 0.000000 0.000000 
#    y 0.000000 1.593400 0.000000 
#    z 0.000000 0.000000 1.596040 
# 
# From -- ./inp_files/65329.got.cif
#   From: 2010.05.17/outbox.cif.g08.bks.cpg/sg63_33_cif.got.tgz:65329.got - 2010.06.03 15:47:04.
