data_PCOD9468093
_publ_section_title
;
Structure prediction by ZEFSAII (Michael W. Deem and Ramdas Pophale) SiO2 
 PCOD9468093
Probable space group: C M C M
;
_chemical_formula_sum "Si O2"
_cell_formula_units_Z 60
_cell_length_a 13.323133
_cell_length_b 12.413825
_cell_length_c 16.440661
_cell_angle_alpha 90.000000
_cell_angle_beta 90.000000
_cell_angle_gamma 90.000000
_cell_volume 2719.138046
_symmetry_space_group_name_H-M "C M C M"
_symmetry_group_IT_number 63
_symmetry_cell_setting 'orthorhombic'
loop_
_space_group_symop_operation_xyz
x,y,z
-x,-y,1/2+z
x,-y,-z
-x,y,1/2-z
-x,-y,-z
x,y,1/2-z
-x,y,z
x,-y,1/2+z
1/2+x,1/2+y,z
1/2-x,1/2-y,1/2+z
1/2+x,1/2-y,-z
1/2-x,1/2+y,1/2-z
1/2-x,1/2-y,-z
1/2+x,1/2+y,1/2-z
1/2-x,1/2+y,z
1/2+x,1/2-y,1/2+z
loop_
_atom_site_type_symbol
_atom_site_label
_atom_site_fract_x
_atom_site_fract_y
_atom_site_fract_z
Si Si1 0.384316 0.903411 0.250000
Si Si2 0.823517 0.640888 0.089465
Si Si3 0.000000 0.223200 0.657560
Si Si4 0.885747 0.391038 0.075746
Si Si5 0.500000 0.512608 0.750000
Si Si6 0.715878 0.588352 0.250000
O O1 0.500000 0.949084 0.250000
O O2 0.376177 0.841446 0.165175
O O3 0.291437 0.985291 0.250000
O O4 0.903021 0.731642 0.113379
O O5 0.872504 0.519595 0.090945
O O6 0.744441 0.640992 0.162976
O O7 0.807150 0.647109 0.992016
O O8 0.000000 0.095757 0.673502
O O9 0.000000 0.270075 0.750000
O O10 0.000000 0.371729 0.047142
O O11 0.399001 0.445548 0.750000
#
# Coordination Sequence:
#
# PCOD9468093 Si02
#       6
#     8  16   8  16   4   8
#     4   8  16  25  46  79 109 129 158 218 279 306
#     4  10  15  25  50  80 100 128 170 223 256 295
#     4  10  18  29  51  79 102 130 181 223 251 309
#     4   9  14  21  43  85 118 113 152 229 281 291
#     4  10  24  36  42  70 110 152 176 214 266 310
#     4  10  19  30  47  68 113 139 172 214 266 315
#
# _framework density 22.065816000000002
#
# number of rings (size 3 to 8) (size 9 to 14) (size 15 to 20)
#    0.400    2.133    4.000    0.800    1.867    0.000 
#    0.000    0.000    0.000   27.200    6.933    0.000 
#    0.000    0.000    0.000    0.000    0.000    0.000 
#
# Total GULP energy -167015.924064 kJ/mol
# GULP energy per Si atom -5567.197469 kJ/mol
# Density = 2.201559 g / cm^3
# Si number density = 22.065816 Si / 1000 Ang^3
#
#
#
# Elastic Constant Matrix: (Units=GPa)
#
#
# Indices 1 2 3 4 5 6 
#
# 1 138.0429 50.1681 48.0645 0.0000 0.0000 0.0000
# 2 50.1681 41.5900 15.6734 0.0000 0.0000 0.0000
# 3 48.0645 15.6734 211.6026 0.0000 0.0000 0.0000
# 4 0.0000 0.0000 0.0000 -7.4204 0.0000 0.0000
# 5 0.0000 0.0000 0.0000 0.0000 -28.6436 0.0000
# 6 0.0000 0.0000 0.0000 0.0000 0.0000 82.5920
#
#
#
# Elastic Compliance Matrix: (Units=1/GPa)
#
#
# Indices 1 2 3 4 5 6 
#
# 1 0.013625 -0.015707 -0.001931 0.000000 0.000000 0.000000
# 2 -0.015707 0.042843 0.000395 0.000000 0.000000 0.000000
# 3 -0.001931 0.000395 0.005135 0.000000 0.000000 0.000000
# 4 0.000000 0.000000 0.000000 -0.134764 0.000000 0.000000
# 5 0.000000 0.000000 0.000000 0.000000 -0.034912 0.000000
# 6 0.000000 0.000000 0.000000 0.000000 0.000000 0.012108
#
#
# Mechanical properties :
#
#
# Convention : Reuss Voigt Hill
#
# Bulk Modulus (GPa) = 36.88068 68.78306 52.83187
# Shear Modulus (GPa) = -95.35119 27.79424 -33.77848
#
# Velocity S-wave (km/s) = -6.58073 3.55294 -3.91680
# Velocity P-wave (km/s) = 6.40243 6.93330 1.88143
#
# Compressibility (1/GPa) = 0.02711447
#
# Stress axis : x y z
#
# Youngs Moduli (GPa) = 73.39404 23.34114 194.72935
#
# Poissons Ratio (x) = 0.36663 0.37610
# Poissons Ratio (y) = 1.15283 -0.07682
# Poissons Ratio (z) = 0.14175 -0.00921
#
# Static dielectric constant tensor:
#      x y z
#    x 1.780610 0.000000 0.000000 
#    y 0.000000 1.797530 0.000000 
#    z 0.000000 0.000000 1.971670 
# 
# From -- ./inp_files/41807.got.cif
#   From: 2010.05.17/outbox.cif.g08.bks.cpg/sg63_21_cif.got.tgz:41807.got - 2010.06.03 15:47:04.
