data_PCOD9468564
_publ_section_title
;
Structure prediction by ZEFSAII (Michael W. Deem and Ramdas Pophale) SiO2 
 PCOD9468564
Probable space group: C M C M
;
_chemical_formula_sum "Si O2"
_cell_formula_units_Z 96
_cell_length_a 24.360332
_cell_length_b 12.128645
_cell_length_c 19.558444
_cell_angle_alpha 90.000000
_cell_angle_beta 90.000000
_cell_angle_gamma 90.000000
_cell_volume 5778.695206
_symmetry_space_group_name_H-M "C M C M"
_symmetry_group_IT_number 63
_symmetry_cell_setting 'orthorhombic'
loop_
_space_group_symop_operation_xyz
x,y,z
-x,-y,1/2+z
x,-y,-z
-x,y,1/2-z
-x,-y,-z
x,y,1/2-z
-x,y,z
x,-y,1/2+z
1/2+x,1/2+y,z
1/2-x,1/2-y,1/2+z
1/2+x,1/2-y,-z
1/2-x,1/2+y,1/2-z
1/2-x,1/2-y,-z
1/2+x,1/2+y,1/2-z
1/2-x,1/2+y,z
1/2+x,1/2-y,1/2+z
loop_
_atom_site_type_symbol
_atom_site_label
_atom_site_fract_x
_atom_site_fract_y
_atom_site_fract_z
Si Si1 0.146208 0.185702 0.827307
Si Si2 0.308787 0.766096 0.427687
Si Si3 0.150102 0.445664 0.331492
Si Si4 0.804587 0.887946 0.458590
Si Si5 0.759097 0.625825 0.326255
Si Si6 0.062205 0.630534 0.167080
O O1 0.140533 0.141851 0.750000
O O2 0.165935 0.103359 0.885565
O O3 0.194074 0.278962 0.824829
O O4 0.092227 0.254126 0.848462
O O5 0.346920 0.839150 0.379105
O O6 0.257702 0.844541 0.448950
O O7 0.331939 0.709870 0.495900
O O8 0.283012 0.666878 0.382637
O O9 0.145364 0.421027 0.250000
O O10 0.207162 0.514178 0.339454
O O11 0.101472 0.528857 0.352734
O O12 0.805897 0.000000 0.500000
O O13 0.734855 0.619945 0.250000
O O14 0.061330 0.626617 0.250000
O O15 0.000000 0.622831 0.141945
#
# Coordination Sequence:
#
# PCOD9468564 Si02
#       6
#    16  16  16  16  16  16
#     4   8  15  29  47  64  83 111 147 184 219 257
#     4  10  18  28  42  61  89 124 154 180 219 272
#     4   9  16  26  43  68  96 122 148 183 224 263
#     4  10  20  31  43  62  89 120 152 186 224 264
#     4   8  14  25  40  60  87 118 151 181 208 250
#     4   8  14  27  49  74  94 114 148 191 227 261
#
# _framework density 16.612746999999999
#
# number of rings (size 3 to 8) (size 9 to 14) (size 15 to 20)
#    0.000    3.167    0.000    3.500    0.000    2.000 
#    0.000    1.667    0.000    3.500    0.000    0.000 
#    0.000    5.333    0.000    0.000    0.000    0.000 
#
# Total GULP energy -267317.869812 kJ/mol
# GULP energy per Si atom -5569.122288 kJ/mol
# Density = 1.657494 g / cm^3
# Si number density = 16.612747 Si / 1000 Ang^3
#
#
#
# Elastic Constant Matrix: (Units=GPa)
#
#
# Indices 1 2 3 4 5 6 
#
# 1 49.5316 20.1098 25.5322 0.0000 0.0000 0.0000
# 2 20.1098 62.3901 46.6552 0.0000 0.0000 0.0000
# 3 25.5322 46.6552 83.7772 0.0000 0.0000 0.0000
# 4 0.0000 0.0000 0.0000 36.5306 0.0000 0.0000
# 5 0.0000 0.0000 0.0000 0.0000 8.8246 0.0000
# 6 0.0000 0.0000 0.0000 0.0000 0.0000 10.2333
#
#
#
# Elastic Compliance Matrix: (Units=1/GPa)
#
#
# Indices 1 2 3 4 5 6 
#
# 1 0.024512 -0.003966 -0.005261 0.000000 0.000000 0.000000
# 2 -0.003966 0.028108 -0.014445 0.000000 0.000000 0.000000
# 3 -0.005261 -0.014445 0.021584 0.000000 0.000000 0.000000
# 4 0.000000 0.000000 0.000000 0.027374 0.000000 0.000000
# 5 0.000000 0.000000 0.000000 0.000000 0.113320 0.000000
# 6 0.000000 0.000000 0.000000 0.000000 0.000000 0.097721
#
#
# Mechanical properties :
#
#
# Convention : Reuss Voigt Hill
#
# Bulk Modulus (GPa) = 37.23095 42.25480 39.74287
# Shear Modulus (GPa) = 13.55320 18.01113 15.78216
#
# Velocity S-wave (km/s) = 2.85937 3.29625 3.08556
# Velocity P-wave (km/s) = 5.77591 6.32277 6.05552
#
# Compressibility (1/GPa) = 0.02685937
#
# Stress axis : x y z
#
# Youngs Moduli (GPa) = 40.79712 35.57678 46.33043
#
# Poissons Ratio (x) = 0.14110 0.24377
# Poissons Ratio (y) = 0.16181 0.66923
# Poissons Ratio (z) = 0.21465 0.51389
#
# Static dielectric constant tensor:
#      x y z
#    x 1.555250 0.000000 0.000000 
#    y 0.000000 1.577070 0.000000 
#    z 0.000000 0.000000 1.615060 
# 
# From -- ./inp_files/48943.got.cif
#   From: 2010.05.17/outbox.cif.g08.bks.cpg/sg63_25_cif.got.tgz:48943.got - 2010.06.03 15:47:04.
