data_PCOD9468381
_publ_section_title
;
Structure prediction by ZEFSAII (Michael W. Deem and Ramdas Pophale) SiO2 
 PCOD9468381
Probable space group: C M C M
;
_chemical_formula_sum "Si O2"
_cell_formula_units_Z 80
_cell_length_a 15.871747
_cell_length_b 17.806571
_cell_length_c 15.364937
_cell_angle_alpha 90.000000
_cell_angle_beta 90.000000
_cell_angle_gamma 90.000000
_cell_volume 4342.459850
_symmetry_space_group_name_H-M "C M C M"
_symmetry_group_IT_number 63
_symmetry_cell_setting 'orthorhombic'
loop_
_space_group_symop_operation_xyz
x,y,z
-x,-y,1/2+z
x,-y,-z
-x,y,1/2-z
-x,-y,-z
x,y,1/2-z
-x,y,z
x,-y,1/2+z
1/2+x,1/2+y,z
1/2-x,1/2-y,1/2+z
1/2+x,1/2-y,-z
1/2-x,1/2+y,1/2-z
1/2-x,1/2-y,-z
1/2+x,1/2+y,1/2-z
1/2-x,1/2+y,z
1/2+x,1/2-y,1/2+z
loop_
_atom_site_type_symbol
_atom_site_label
_atom_site_fract_x
_atom_site_fract_y
_atom_site_fract_z
Si Si1 0.906578 0.675340 0.416457
Si Si2 0.773008 0.885849 0.650210
Si Si3 0.905890 0.563754 0.929201
Si Si4 0.763544 0.063502 0.653034
Si Si5 0.323208 0.687926 0.983286
O O1 0.824693 0.640015 0.368416
O O2 0.905813 0.638129 0.512360
O O3 0.893153 0.763473 0.433785
O O4 0.000000 0.659465 0.378728
O O5 0.792140 0.866695 0.750000
O O6 0.832752 0.846065 0.579553
O O7 0.782202 0.975509 0.638652
O O8 0.837483 0.568069 0.855228
O O9 0.000000 0.546816 0.898720
O O10 0.881848 0.500000 0.000000
O O11 0.791563 0.085075 0.750000
O O12 0.796788 0.119430 0.579167
O O13 0.250000 0.750000 0.000000
#
# Coordination Sequence:
#
# PCOD9468381 Si02
#       5
#    16  16  16  16  16
#     4  10  20  34  53  77 105 139 173 211 262 311
#     4  10  20  33  54  79 103 138 179 218 260 309
#     4  10  17  30  50  71 104 141 169 206 251 304
#     4  11  20  32  52  77 103 138 179 216 261 311
#     4  10  19  34  52  75 105 138 171 219 262 310
#
# _framework density 18.422737999999999
#
# number of rings (size 3 to 8) (size 9 to 14) (size 15 to 20)
#    0.000    1.800    6.000    0.600    0.000    4.000 
#    0.000    2.000    0.000    3.000    0.000    2.800 
#    0.000    0.000    0.000    0.000    0.000    0.000 
#
# Total GULP energy -222700.581106 kJ/mol
# GULP energy per Si atom -5567.514528 kJ/mol
# Density = 1.838081 g / cm^3
# Si number density = 18.422738 Si / 1000 Ang^3
#
#
#
# Elastic Constant Matrix: (Units=GPa)
#
#
# Indices 1 2 3 4 5 6 
#
# 1 15.5607 10.7752 -6.4506 0.0000 0.0000 0.0000
# 2 10.7752 88.7293 54.0109 0.0000 0.0000 0.0000
# 3 -6.4506 54.0109 77.1909 0.0000 0.0000 0.0000
# 4 0.0000 0.0000 0.0000 16.6641 0.0000 0.0000
# 5 0.0000 0.0000 0.0000 0.0000 11.7552 0.0000
# 6 0.0000 0.0000 0.0000 0.0000 0.0000 17.6204
#
#
#
# Elastic Compliance Matrix: (Units=1/GPa)
#
#
# Indices 1 2 3 4 5 6 
#
# 1 0.095852 -0.028770 0.028140 0.000000 0.000000 0.000000
# 2 -0.028770 0.028267 -0.022183 0.000000 0.000000 0.000000
# 3 0.028140 -0.022183 0.030828 0.000000 0.000000 0.000000
# 4 0.000000 0.000000 0.000000 0.060009 0.000000 0.000000
# 5 0.000000 0.000000 0.000000 0.000000 0.085069 0.000000
# 6 0.000000 0.000000 0.000000 0.000000 0.000000 0.056753
#
#
# Mechanical properties :
#
#
# Convention : Reuss Voigt Hill
#
# Bulk Modulus (GPa) = 9.14723 33.12797 21.13760
# Shear Modulus (GPa) = 11.39363 17.41764 14.40564
#
# Velocity S-wave (km/s) = 2.48957 3.07814 2.79937
# Velocity P-wave (km/s) = 3.63867 5.53664 4.68478
#
# Compressibility (1/GPa) = 0.10932272
#
# Stress axis : x y z
#
# Youngs Moduli (GPa) = 10.43276 35.37707 32.43825
#
# Poissons Ratio (x) = 1.01778 -0.91282
# Poissons Ratio (y) = 0.30015 0.71957
# Poissons Ratio (z) = -0.29358 0.78476
#
# Static dielectric constant tensor:
#      x y z
#    x 1.680750 0.000000 0.000000 
#    y 0.000000 1.690680 0.000000 
#    z 0.000000 0.000000 1.641940 
# 
# From -- ./inp_files/33840.got.cif
#   From: 2010.05.17/outbox.cif.g08.bks.cpg/sg63_17_cif.got.tgz:33840.got - 2010.06.03 15:47:04.
