data_PCOD9468822
_publ_section_title
;
Structure prediction by ZEFSAII (Michael W. Deem and Ramdas Pophale) SiO2 
 PCOD9468822
Probable space group: C M C M
;
_chemical_formula_sum "Si O2"
_cell_formula_units_Z 72
_cell_length_a 17.420637
_cell_length_b 29.031479
_cell_length_c 8.566296
_cell_angle_alpha 90.000000
_cell_angle_beta 90.000000
_cell_angle_gamma 90.000000
_cell_volume 4332.377280
_symmetry_space_group_name_H-M "C M C M"
_symmetry_group_IT_number 63
_symmetry_cell_setting 'orthorhombic'
loop_
_space_group_symop_operation_xyz
x,y,z
-x,-y,1/2+z
x,-y,-z
-x,y,1/2-z
-x,-y,-z
x,y,1/2-z
-x,y,z
x,-y,1/2+z
1/2+x,1/2+y,z
1/2-x,1/2-y,1/2+z
1/2+x,1/2-y,-z
1/2-x,1/2+y,1/2-z
1/2-x,1/2-y,-z
1/2+x,1/2+y,1/2-z
1/2-x,1/2+y,z
1/2+x,1/2-y,1/2+z
loop_
_atom_site_type_symbol
_atom_site_label
_atom_site_fract_x
_atom_site_fract_y
_atom_site_fract_z
Si Si1 0.084856 0.196825 0.439590
Si Si2 0.000000 0.052245 0.063715
Si Si3 0.679778 0.218959 0.936965
Si Si4 0.662151 0.448234 0.064516
Si Si5 0.233650 0.862105 0.562942
O O1 0.084039 0.193442 0.250000
O O2 0.105914 0.249966 0.477742
O O3 0.156333 0.165379 0.491077
O O4 0.000000 0.183921 0.496336
O O5 0.000000 0.053547 0.250000
O O6 0.080784 0.070769 0.002417
O O7 0.000000 0.000000 0.000000
O O8 0.684265 0.216050 0.750000
O O9 0.750000 0.250000 0.000000
O O10 0.694767 0.168887 0.008475
O O11 0.657100 0.450402 0.250000
O O12 0.672974 0.500000 0.000000
O O13 0.726655 0.412726 0.008515
O O14 0.232500 0.864539 0.750000
#
# Coordination Sequence:
#
# PCOD9468822 Si02
#       5
#    16   8  16  16  16
#     4   8  15  27  44  66  88 114 149 186 223 265
#     4  10  18  30  44  58  80 112 146 182 224 260
#     4   9  16  28  45  63  87 116 147 185 228 272
#     4  11  21  33  46  63  87 115 152 191 229 265
#     4  10  19  30  46  65  88 120 154 187 227 271
#
# _framework density 16.619050999999999
#
# number of rings (size 3 to 8) (size 9 to 14) (size 15 to 20)
#    0.000    2.444    0.000    7.000    1.556    0.000 
#    0.000    0.000    0.000   13.333    0.000    0.000 
#    0.000    0.889    0.000    2.444    0.000    3.556 
#
# Total GULP energy -200567.424799 kJ/mol
# GULP energy per Si atom -5571.317356 kJ/mol
# Density = 1.658123 g / cm^3
# Si number density = 16.619051 Si / 1000 Ang^3
#
#
#
# Elastic Constant Matrix: (Units=GPa)
#
#
# Indices 1 2 3 4 5 6 
#
# 1 17.4276 9.4969 0.9301 0.0000 0.0000 0.0000
# 2 9.4969 90.8541 27.4026 0.0000 0.0000 0.0000
# 3 0.9301 27.4026 90.2974 0.0000 0.0000 0.0000
# 4 0.0000 0.0000 0.0000 23.9932 0.0000 0.0000
# 5 0.0000 0.0000 0.0000 0.0000 14.2938 0.0000
# 6 0.0000 0.0000 0.0000 0.0000 0.0000 26.8377
#
#
#
# Elastic Compliance Matrix: (Units=1/GPa)
#
#
# Indices 1 2 3 4 5 6 
#
# 1 0.061015 -0.006812 0.001439 0.000000 0.000000 0.000000
# 2 -0.006812 0.012876 -0.003837 0.000000 0.000000 0.000000
# 3 0.001439 -0.003837 0.012224 0.000000 0.000000 0.000000
# 4 0.000000 0.000000 0.000000 0.041678 0.000000 0.000000
# 5 0.000000 0.000000 0.000000 0.000000 0.069961 0.000000
# 6 0.000000 0.000000 0.000000 0.000000 0.000000 0.037261
#
#
# Mechanical properties :
#
#
# Convention : Reuss Voigt Hill
#
# Bulk Modulus (GPa) = 14.77219 30.47093 22.62156
# Shear Modulus (GPa) = 18.11584 23.74157 20.92871
#
# Velocity S-wave (km/s) = 3.30519 3.78375 3.55254
# Velocity P-wave (km/s) = 4.84497 6.12077 5.51985
#
# Compressibility (1/GPa) = 0.06769476
#
# Stress axis : x y z
#
# Youngs Moduli (GPa) = 16.38931 77.66337 81.80484
#
# Poissons Ratio (x) = 0.52903 -0.11769
# Poissons Ratio (y) = 0.11164 0.31391
# Poissons Ratio (z) = -0.02358 0.29802
#
# Static dielectric constant tensor:
#      x y z
#    x 1.570110 0.000000 0.000000 
#    y 0.000000 1.588680 0.000000 
#    z 0.000000 0.000000 1.583280 
# 
# From -- ./inp_files/6264.got.cif
#   From: 2010.05.17/outbox.cif.g08.bks.cpg/sg63_4_cif.got.tgz:6264.got - 2010.06.03 15:47:04.
