data_PCOD9468313
_publ_section_title
;
Structure prediction by ZEFSAII (Michael W. Deem and Ramdas Pophale) SiO2 
 PCOD9468313
Probable space group: C M C M
;
_chemical_formula_sum "Si O2"
_cell_formula_units_Z 128
_cell_length_a 23.714448
_cell_length_b 19.465565
_cell_length_c 18.413528
_cell_angle_alpha 90.000000
_cell_angle_beta 90.000000
_cell_angle_gamma 90.000000
_cell_volume 8499.963103
_symmetry_space_group_name_H-M "C M C M"
_symmetry_group_IT_number 63
_symmetry_cell_setting 'orthorhombic'
loop_
_space_group_symop_operation_xyz
x,y,z
-x,-y,1/2+z
x,-y,-z
-x,y,1/2-z
-x,-y,-z
x,y,1/2-z
-x,y,z
x,-y,1/2+z
1/2+x,1/2+y,z
1/2-x,1/2-y,1/2+z
1/2+x,1/2-y,-z
1/2-x,1/2+y,1/2-z
1/2-x,1/2-y,-z
1/2+x,1/2+y,1/2-z
1/2-x,1/2+y,z
1/2+x,1/2-y,1/2+z
loop_
_atom_site_type_symbol
_atom_site_label
_atom_site_fract_x
_atom_site_fract_y
_atom_site_fract_z
Si Si1 0.169240 0.410783 0.663180
Si Si2 0.233246 0.454204 0.336131
Si Si3 0.837381 0.027222 0.082373
Si Si4 0.751884 0.315450 0.091892
Si Si5 0.769147 0.836916 0.922306
Si Si6 0.128374 0.187479 0.837073
Si Si7 0.436435 0.173260 0.338105
Si Si8 0.933879 0.043481 0.836772
O O1 0.174317 0.399727 0.750000
O O2 0.184764 0.489830 0.648999
O O3 0.216492 0.365397 0.623701
O O4 0.107678 0.385525 0.639962
O O5 0.243365 0.451003 0.250000
O O6 0.289437 0.483824 0.374625
O O7 0.220518 0.379273 0.366875
O O8 0.818176 0.106558 0.085079
O O9 0.896706 0.011509 0.120109
O O10 0.837806 0.000000 0.000000
O O11 0.780778 0.241298 0.101395
O O12 0.687972 0.310691 0.122397
O O13 0.748297 0.332670 0.006700
O O14 0.138674 0.190044 0.750000
O O15 0.091095 0.253523 0.857441
O O16 0.094164 0.117782 0.852492
O O17 0.439098 0.172237 0.250000
O O18 0.500000 0.165816 0.365597
O O19 0.928846 0.032454 0.750000
O O20 0.000000 0.043207 0.855308
#
# Coordination Sequence:
#
# PCOD9468313 Si02
#       8
#    16  16  16  16  16  16  16  16
#     4   9  18  30  45  69  97 124 158 197 237 290
#     4  10  19  31  49  70  96 130 162 196 240 289
#     4  11  19  33  49  70  99 130 166 205 246 292
#     4  11  19  31  47  70  98 130 160 193 238 296
#     4  10  21  31  46  70  99 128 163 194 244 291
#     4  10  17  28  45  69  99 128 158 196 240 295
#     4   9  16  27  44  67  96 127 156 194 245 292
#     4  10  20  32  47  68  95 130 169 206 243 287
#
# _framework density 15.058888
#
# number of rings (size 3 to 8) (size 9 to 14) (size 15 to 20)
#    0.000    2.000    3.750    1.125    0.000    2.750 
#    0.000    0.000    0.000    0.000    0.000    2.625 
#    0.000    2.000    0.000    0.000    0.000    0.125 
#
# Total GULP energy -356809.891996 kJ/mol
# GULP energy per Si atom -5575.154562 kJ/mol
# Density = 1.502461 g / cm^3
# Si number density = 15.058888 Si / 1000 Ang^3
#
#
#
# Elastic Constant Matrix: (Units=GPa)
#
#
# Indices 1 2 3 4 5 6 
#
# 1 91.7157 57.9976 27.2689 0.0000 0.0000 0.0000
# 2 57.9976 136.6645 43.4130 0.0000 0.0000 0.0000
# 3 27.2689 43.4130 38.6051 0.0000 0.0000 0.0000
# 4 0.0000 0.0000 0.0000 20.9398 0.0000 0.0000
# 5 0.0000 0.0000 0.0000 0.0000 4.5790 0.0000
# 6 0.0000 0.0000 0.0000 0.0000 0.0000 17.0691
#
#
#
# Elastic Compliance Matrix: (Units=1/GPa)
#
#
# Indices 1 2 3 4 5 6 
#
# 1 0.015637 -0.004865 -0.005574 0.000000 0.000000 0.000000
# 2 -0.004865 0.012898 -0.011067 0.000000 0.000000 0.000000
# 3 -0.005574 -0.011067 0.042286 0.000000 0.000000 0.000000
# 4 0.000000 0.000000 0.000000 0.047756 0.000000 0.000000
# 5 0.000000 0.000000 0.000000 0.000000 0.218387 0.000000
# 6 0.000000 0.000000 0.000000 0.000000 0.000000 0.058585
#
#
# Mechanical properties :
#
#
# Convention : Reuss Voigt Hill
#
# Bulk Modulus (GPa) = 35.96137 58.26047 47.11092
# Shear Modulus (GPa) = 11.16492 17.73798 14.45145
#
# Velocity S-wave (km/s) = 2.72585 3.43579 3.10120
# Velocity P-wave (km/s) = 5.81716 7.38322 6.64648
#
# Compressibility (1/GPa) = 0.02780762
#
# Stress axis : x y z
#
# Youngs Moduli (GPa) = 63.94978 77.53376 23.64847
#
# Poissons Ratio (x) = 0.37724 0.13182
# Poissons Ratio (y) = 0.31115 0.26172
# Poissons Ratio (z) = 0.35646 0.85808
#
# Static dielectric constant tensor:
#      x y z
#    x 1.481160 0.000000 0.000000 
#    y 0.000000 1.522520 0.000000 
#    z 0.000000 0.000000 1.491820 
# 
# From -- ./inp_files/48444.got.cif
#   From: 2010.05.17/outbox.cif.g08.bks.cpg/sg63_25_cif.got.tgz:48444.got - 2010.06.03 15:47:04.
