data_PCOD9468382
_publ_section_title
;
Structure prediction by ZEFSAII (Michael W. Deem and Ramdas Pophale) SiO2 
 PCOD9468382
Probable space group: C M C M
;
_chemical_formula_sum "Si O2"
_cell_formula_units_Z 128
_cell_length_a 22.566614
_cell_length_b 20.243897
_cell_length_c 14.663188
_cell_angle_alpha 90.000000
_cell_angle_beta 90.000000
_cell_angle_gamma 90.000000
_cell_volume 6698.675224
_symmetry_space_group_name_H-M "C M C M"
_symmetry_group_IT_number 63
_symmetry_cell_setting 'orthorhombic'
loop_
_space_group_symop_operation_xyz
x,y,z
-x,-y,1/2+z
x,-y,-z
-x,y,1/2-z
-x,-y,-z
x,y,1/2-z
-x,y,z
x,-y,1/2+z
1/2+x,1/2+y,z
1/2-x,1/2-y,1/2+z
1/2+x,1/2-y,-z
1/2-x,1/2+y,1/2-z
1/2-x,1/2-y,-z
1/2+x,1/2+y,1/2-z
1/2-x,1/2+y,z
1/2+x,1/2-y,1/2+z
loop_
_atom_site_type_symbol
_atom_site_label
_atom_site_fract_x
_atom_site_fract_y
_atom_site_fract_z
Si Si1 0.067757 0.003194 0.638946
Si Si2 0.161476 0.357942 0.405818
Si Si3 0.642829 0.373102 0.860652
Si Si4 0.782661 0.512812 0.608898
Si Si5 0.834171 0.899896 0.142293
Si Si6 0.731951 0.271834 0.397827
Si Si7 0.068030 0.743296 0.639876
Si Si8 0.721589 0.869783 0.603933
O O1 0.067007 0.005889 0.750000
O O2 0.102923 0.936327 0.616719
O O3 0.000000 0.003011 0.608176
O O4 0.106868 0.064974 0.606353
O O5 0.169300 0.431333 0.366895
O O6 0.209619 0.308474 0.359627
O O7 0.099227 0.322309 0.397861
O O8 0.184586 0.365221 0.509871
O O9 0.652532 0.373132 0.750000
O O10 0.607628 0.306743 0.885343
O O11 0.707011 0.376418 0.907131
O O12 0.782088 0.500000 0.500000
O O13 0.719906 0.547706 0.631135
O O14 0.793307 0.440155 0.648691
O O15 0.840782 0.888812 0.250000
O O16 0.816813 0.829041 0.101947
O O17 0.750000 0.250000 0.500000
O O18 0.714349 0.202691 0.352298
O O19 0.068667 0.739698 0.750000
O O20 0.000000 0.750989 0.610762
#
# Coordination Sequence:
#
# PCOD9468382 Si02
#       8
#    16  16  16  16  16  16  16  16
#     4   9  17  30  48  73 109 149 182 215 258 309
#     4   9  18  31  49  75  97 133 176 213 261 321
#     4  10  18  28  46  76 110 143 177 210 258 323
#     4   9  18  31  49  74 102 138 169 214 274 324
#     4  10  19  31  50  78 104 135 183 229 261 309
#     4   9  18  31  48  72 100 140 172 214 272 323
#     4  10  20  33  50  74 107 141 173 218 272 325
#     4  10  17  30  50  73 102 139 170 211 267 318
#
# _framework density 19.108256000000001
#
# number of rings (size 3 to 8) (size 9 to 14) (size 15 to 20)
#    0.000    2.500    2.500    1.125    0.000    4.000 
#    0.000    0.000    0.000    6.750    0.000    0.000 
#    0.000    2.500    0.000    0.000    0.000    0.625 
#
# Total GULP energy -356819.718531 kJ/mol
# GULP energy per Si atom -5575.308102 kJ/mol
# Density = 1.906476 g / cm^3
# Si number density = 19.108256 Si / 1000 Ang^3
#
#
#
# Elastic Constant Matrix: (Units=GPa)
#
#
# Indices 1 2 3 4 5 6 
#
# 1 85.7475 42.6032 8.4751 0.0000 0.0000 0.0000
# 2 42.6032 185.6848 15.8511 0.0000 0.0000 0.0000
# 3 8.4751 15.8511 67.7868 0.0000 0.0000 0.0000
# 4 0.0000 0.0000 0.0000 23.1992 0.0000 0.0000
# 5 0.0000 0.0000 0.0000 0.0000 21.0141 0.0000
# 6 0.0000 0.0000 0.0000 0.0000 0.0000 25.2841
#
#
#
# Elastic Compliance Matrix: (Units=1/GPa)
#
#
# Indices 1 2 3 4 5 6 
#
# 1 0.013224 -0.002952 -0.000963 0.000000 0.000000 0.000000
# 2 -0.002952 0.006154 -0.001070 0.000000 0.000000 0.000000
# 3 -0.000963 -0.001070 0.015123 0.000000 0.000000 0.000000
# 4 0.000000 0.000000 0.000000 0.043105 0.000000 0.000000
# 5 0.000000 0.000000 0.000000 0.000000 0.047587 0.000000
# 6 0.000000 0.000000 0.000000 0.000000 0.000000 0.039551
#
#
# Mechanical properties :
#
#
# Convention : Reuss Voigt Hill
#
# Bulk Modulus (GPa) = 40.76490 52.56420 46.66455
# Shear Modulus (GPa) = 27.33881 32.05213 29.69547
#
# Velocity S-wave (km/s) = 3.78661 4.10005 3.94644
# Velocity P-wave (km/s) = 6.36379 7.06981 6.72607
#
# Compressibility (1/GPa) = 0.02453091
#
# Stress axis : x y z
#
# Youngs Moduli (GPa) = 75.62028 162.49369 66.12556
#
# Poissons Ratio (x) = 0.47966 0.06368
# Poissons Ratio (y) = 0.22322 0.07075
# Poissons Ratio (z) = 0.07283 0.17387
#
# Static dielectric constant tensor:
#      x y z
#    x 1.635540 0.000000 0.000000 
#    y 0.000000 1.734710 0.000000 
#    z 0.000000 0.000000 1.738320 
# 
# From -- ./inp_files/47560.got.cif
#   From: 2010.05.17/outbox.cif.g08.bks.cpg/sg63_24_cif.got.tgz:47560.got - 2010.06.03 15:47:04.
