data_PCOD9468149
_publ_section_title
;
Structure prediction by ZEFSAII (Michael W. Deem and Ramdas Pophale) SiO2 
 PCOD9468149
Probable space group: C M C M
;
_chemical_formula_sum "Si O2"
_cell_formula_units_Z 112
_cell_length_a 22.667967
_cell_length_b 17.753158
_cell_length_c 17.927086
_cell_angle_alpha 90.000000
_cell_angle_beta 90.000000
_cell_angle_gamma 90.000000
_cell_volume 7214.361359
_symmetry_space_group_name_H-M "C M C M"
_symmetry_group_IT_number 63
_symmetry_cell_setting 'orthorhombic'
loop_
_space_group_symop_operation_xyz
x,y,z
-x,-y,1/2+z
x,-y,-z
-x,y,1/2-z
-x,-y,-z
x,y,1/2-z
-x,y,z
x,-y,1/2+z
1/2+x,1/2+y,z
1/2-x,1/2-y,1/2+z
1/2+x,1/2-y,-z
1/2-x,1/2+y,1/2-z
1/2-x,1/2-y,-z
1/2+x,1/2+y,1/2-z
1/2-x,1/2+y,z
1/2+x,1/2-y,1/2+z
loop_
_atom_site_type_symbol
_atom_site_label
_atom_site_fract_x
_atom_site_fract_y
_atom_site_fract_z
Si Si1 0.157217 0.989231 0.660686
Si Si2 0.694028 0.109575 0.060073
Si Si3 0.153432 0.773354 0.430533
Si Si4 0.674765 0.666697 0.094559
Si Si5 0.784024 0.455737 0.105222
Si Si6 0.068503 0.124820 0.838705
Si Si7 0.729397 0.197229 0.666732
O O1 0.169143 0.986701 0.750000
O O2 0.215645 0.020705 0.618874
O O3 0.104802 0.048032 0.646818
O O4 0.143574 0.905518 0.630718
O O5 0.652766 0.182514 0.064276
O O6 0.757518 0.139701 0.086175
O O7 0.680713 0.034573 0.107997
O O8 0.703735 0.080202 0.975935
O O9 0.153268 0.808952 0.513018
O O10 0.101361 0.809198 0.382787
O O11 0.215466 0.796046 0.390374
O O12 0.680666 0.741214 0.144675
O O13 0.795395 0.387162 0.160690
O O14 0.072623 0.138920 0.750000
O O15 0.000000 0.117903 0.858856
O O16 0.751613 0.211900 0.750000
#
# Coordination Sequence:
#
# PCOD9468149 Si02
#       7
#    16  16  16  16  16  16  16
#     4  10  19  31  45  65  96 131 163 200 241 277
#     4   9  17  27  44  67  94 125 158 187 231 277
#     4  11  18  32  47  67  93 129 160 197 240 281
#     4  10  18  29  44  67  94 128 164 191 227 285
#     4  10  16  27  45  68  95 128 158 187 226 286
#     4  10  21  36  53  70  90 122 164 206 245 281
#     4  11  18  27  44  68  98 129 159 190 232 285
#
# _framework density 15.52459
#
# number of rings (size 3 to 8) (size 9 to 14) (size 15 to 20)
#    0.000    1.857    4.286    2.143    0.000    0.571 
#    0.000    3.571    0.000    0.000    0.000    2.000 
#    0.000    0.000    0.000    1.000    0.000    0.000 
#
# Total GULP energy -311855.355608 kJ/mol
# GULP energy per Si atom -5568.845636 kJ/mol
# Density = 1.548925 g / cm^3
# Si number density = 15.524590 Si / 1000 Ang^3
#
#
#
# Elastic Constant Matrix: (Units=GPa)
#
#
# Indices 1 2 3 4 5 6 
#
# 1 50.7303 50.9807 22.8435 0.0000 0.0000 0.0000
# 2 50.9807 159.4198 48.3261 0.0000 0.0000 0.0000
# 3 22.8435 48.3261 58.3795 0.0000 0.0000 0.0000
# 4 0.0000 0.0000 0.0000 19.7432 0.0000 0.0000
# 5 0.0000 0.0000 0.0000 0.0000 9.2570 0.0000
# 6 0.0000 0.0000 0.0000 0.0000 0.0000 8.0917
#
#
#
# Elastic Compliance Matrix: (Units=1/GPa)
#
#
# Indices 1 2 3 4 5 6 
#
# 1 0.030140 -0.008095 -0.005093 0.000000 0.000000 0.000000
# 2 -0.008095 0.010548 -0.005564 0.000000 0.000000 0.000000
# 3 -0.005093 -0.005564 0.023728 0.000000 0.000000 0.000000
# 4 0.000000 0.000000 0.000000 0.050650 0.000000 0.000000
# 5 0.000000 0.000000 0.000000 0.000000 0.108027 0.000000
# 6 0.000000 0.000000 0.000000 0.000000 0.000000 0.123583
#
#
# Mechanical properties :
#
#
# Convention : Reuss Voigt Hill
#
# Bulk Modulus (GPa) = 37.15724 56.98114 47.06919
# Shear Modulus (GPa) = 12.71776 17.17699 14.94737
#
# Velocity S-wave (km/s) = 2.86527 3.32992 3.10630
# Velocity P-wave (km/s) = 5.91040 7.18109 6.57650
#
# Compressibility (1/GPa) = 0.02691266
#
# Stress axis : x y z
#
# Youngs Moduli (GPa) = 33.17856 94.80448 42.14404
#
# Poissons Ratio (x) = 0.76740 0.21464
# Poissons Ratio (y) = 0.26857 0.23450
# Poissons Ratio (z) = 0.16898 0.52751
#
# Static dielectric constant tensor:
#      x y z
#    x 1.471740 0.000000 0.000000 
#    y 0.000000 1.577220 0.000000 
#    z 0.000000 0.000000 1.562030 
# 
# From -- ./inp_files/48338.got.cif
#   From: 2010.05.17/outbox.cif.g08.bks.cpg/sg63_25_cif.got.tgz:48338.got - 2010.06.03 15:47:04.
