data_PCOD9468122
_publ_section_title
;
Structure prediction by ZEFSAII (Michael W. Deem and Ramdas Pophale) SiO2 
 PCOD9468122
Probable space group: C M C M
;
_chemical_formula_sum "Si O2"
_cell_formula_units_Z 80
_cell_length_a 7.526553
_cell_length_b 22.409476
_cell_length_c 27.423071
_cell_angle_alpha 90.000000
_cell_angle_beta 90.000000
_cell_angle_gamma 90.000000
_cell_volume 4625.342677
_symmetry_space_group_name_H-M "C M C M"
_symmetry_group_IT_number 63
_symmetry_cell_setting 'orthorhombic'
loop_
_space_group_symop_operation_xyz
x,y,z
-x,-y,1/2+z
x,-y,-z
-x,y,1/2-z
-x,-y,-z
x,y,1/2-z
-x,y,z
x,-y,1/2+z
1/2+x,1/2+y,z
1/2-x,1/2-y,1/2+z
1/2+x,1/2-y,-z
1/2-x,1/2+y,1/2-z
1/2-x,1/2-y,-z
1/2+x,1/2+y,1/2-z
1/2-x,1/2+y,z
1/2+x,1/2-y,1/2+z
loop_
_atom_site_type_symbol
_atom_site_label
_atom_site_fract_x
_atom_site_fract_y
_atom_site_fract_z
Si Si1 0.704914 0.962624 0.143519
Si Si2 0.500000 0.599838 0.993063
Si Si3 0.296536 0.190688 0.750000
Si Si4 0.210589 0.695239 0.535959
Si Si5 0.715557 0.176777 0.644452
Si Si6 0.786844 0.948353 0.250000
Si Si7 0.000000 0.986286 0.578383
O O1 0.500000 0.964260 0.128479
O O2 0.768799 0.893189 0.140151
O O3 0.724677 0.978424 0.200341
O O4 0.827487 0.004514 0.111501
O O5 0.500000 0.573907 0.047497
O O6 0.671500 0.639970 0.981819
O O7 0.500000 0.542537 0.958238
O O8 0.500000 0.212739 0.750000
O O9 0.218186 0.203808 0.803917
O O10 0.294811 0.118253 0.750000
O O11 0.250000 0.750000 0.500000
O O12 0.260790 0.706890 0.592889
O O13 0.000000 0.682161 0.535124
O O14 0.500000 0.176406 0.648507
O O15 0.000000 0.942947 0.250000
#
# Coordination Sequence:
#
# PCOD9468122 Si02
#       7
#    16   8   8  16  16   8   8
#     4  10  18  31  48  73 108 143 173 218 272 325
#     4  11  24  38  52  80 108 139 190 228 270 325
#     4   8  14  26  42  66 102 136 161 209 268 326
#     4  11  21  36  57  79 104 143 186 231 273 323
#     4   8  15  27  47  73 102 135 173 210 269 327
#     4  10  16  24  44  73 103 137 179 212 259 332
#     4  11  22  35  54  76 110 149 176 221 274 334
#
# _framework density 17.296016000000002
#
# number of rings (size 3 to 8) (size 9 to 14) (size 15 to 20)
#    0.000    2.200    4.000    2.100    0.000    0.800 
#    0.000    2.000    0.000    0.000    0.000    2.800 
#    0.000    0.000    0.000    0.000    0.000    0.000 
#
# Total GULP energy -222857.999433 kJ/mol
# GULP energy per Si atom -5571.449986 kJ/mol
# Density = 1.725665 g / cm^3
# Si number density = 17.296016 Si / 1000 Ang^3
#
#
#
# Elastic Constant Matrix: (Units=GPa)
#
#
# Indices 1 2 3 4 5 6 
#
# 1 89.2494 15.3103 28.3016 0.0000 0.0000 0.0000
# 2 15.3103 33.9743 43.1040 0.0000 0.0000 0.0000
# 3 28.3016 43.1040 175.0387 0.0000 0.0000 0.0000
# 4 0.0000 0.0000 0.0000 25.3570 0.0000 0.0000
# 5 0.0000 0.0000 0.0000 0.0000 21.8275 0.0000
# 6 0.0000 0.0000 0.0000 0.0000 0.0000 3.4098
#
#
#
# Elastic Compliance Matrix: (Units=1/GPa)
#
#
# Indices 1 2 3 4 5 6 
#
# 1 0.012241 -0.004371 -0.000903 0.000000 0.000000 0.000000
# 2 -0.004371 0.044369 -0.010219 0.000000 0.000000 0.000000
# 3 -0.000903 -0.010219 0.008376 0.000000 0.000000 0.000000
# 4 0.000000 0.000000 0.000000 0.039437 0.000000 0.000000
# 5 0.000000 0.000000 0.000000 0.000000 0.045814 0.000000
# 6 0.000000 0.000000 0.000000 0.000000 0.000000 0.293269
#
#
# Mechanical properties :
#
#
# Convention : Reuss Voigt Hill
#
# Bulk Modulus (GPa) = 29.41216 52.41046 40.91131
# Shear Modulus (GPa) = 10.29179 24.22199 17.25689
#
# Velocity S-wave (km/s) = 2.44199 3.74630 3.16213
# Velocity P-wave (km/s) = 4.99931 7.00577 6.08580
#
# Compressibility (1/GPa) = 0.03399955
#
# Stress axis : x y z
#
# Youngs Moduli (GPa) = 81.69518 22.53813 119.39462
#
# Poissons Ratio (x) = 0.09851 0.10780
# Poissons Ratio (y) = 0.35706 1.22015
# Poissons Ratio (z) = 0.07376 0.23033
#
# Static dielectric constant tensor:
#      x y z
#    x 1.702410 0.000000 0.000000 
#    y 0.000000 1.531950 0.000000 
#    z 0.000000 0.000000 1.661840 
# 
# From -- ./inp_files/59799.got.cif
#   From: 2010.05.17/outbox.cif.g08.bks.cpg/sg63_30_cif.got.tgz:59799.got - 2010.06.03 15:47:04.
