data_PCOD9468698
_publ_section_title
;
Structure prediction by ZEFSAII (Michael W. Deem and Ramdas Pophale) SiO2 
 PCOD9468698
Probable space group: C M C M
;
_chemical_formula_sum "Si O2"
_cell_formula_units_Z 72
_cell_length_a 21.440980
_cell_length_b 20.784548
_cell_length_c 10.446230
_cell_angle_alpha 90.000000
_cell_angle_beta 90.000000
_cell_angle_gamma 90.000000
_cell_volume 4655.269198
_symmetry_space_group_name_H-M "C M C M"
_symmetry_group_IT_number 63
_symmetry_cell_setting 'orthorhombic'
loop_
_space_group_symop_operation_xyz
x,y,z
-x,-y,1/2+z
x,-y,-z
-x,y,1/2-z
-x,-y,-z
x,y,1/2-z
-x,y,z
x,-y,1/2+z
1/2+x,1/2+y,z
1/2-x,1/2-y,1/2+z
1/2+x,1/2-y,-z
1/2-x,1/2+y,1/2-z
1/2-x,1/2-y,-z
1/2+x,1/2+y,1/2-z
1/2-x,1/2+y,z
1/2+x,1/2-y,1/2+z
loop_
_atom_site_type_symbol
_atom_site_label
_atom_site_fract_x
_atom_site_fract_y
_atom_site_fract_z
Si Si1 0.841964 0.274013 0.250000
Si Si2 0.248492 0.923227 0.006974
Si Si3 0.882833 0.352545 0.013787
Si Si4 0.143666 0.288425 0.750000
Si Si5 0.780133 0.856242 0.750000
Si Si6 0.000000 0.561157 0.594878
Si Si7 0.292147 0.345987 0.250000
O O1 0.874844 0.299116 0.123074
O O2 0.831749 0.198555 0.250000
O O3 0.773638 0.307395 0.250000
O O4 0.319177 0.894957 0.012486
O O5 0.211434 0.891651 0.125704
O O6 0.218266 0.897836 0.876930
O O7 0.250550 0.000000 0.000000
O O8 0.939411 0.397580 0.056112
O O9 0.888466 0.316846 0.877326
O O10 0.212967 0.320046 0.750000
O O11 0.156173 0.211176 0.750000
O O12 0.000000 0.500000 0.500000
O O13 0.000000 0.547705 0.750000
#
# Coordination Sequence:
#
# PCOD9468698 Si02
#       7
#     8  16  16   8   8   8   8
#     4   9  16  31  49  66  88 122 163 206 241 281
#     4  10  18  29  44  69  99 132 160 192 234 289
#     4  10  20  34  50  67  93 128 170 208 240 271
#     4   9  18  31  49  70  88 120 163 204 245 285
#     4   9  17  28  46  68  91 122 160 195 239 291
#     4  12  26  40  52  70  96 132 171 210 242 274
#     4   9  17  28  46  68  95 122 160 197 237 289
#
# _framework density 15.466346
#
# number of rings (size 3 to 8) (size 9 to 14) (size 15 to 20)
#    0.000    2.222    1.111    2.667    1.556    5.333 
#    4.000    0.000    0.000    0.000    0.000    0.000 
#    0.000    0.000    0.000   70.000    0.000    0.000 
#
# Total GULP energy -200584.564493 kJ/mol
# GULP energy per Si atom -5571.793458 kJ/mol
# Density = 1.543114 g / cm^3
# Si number density = 15.466346 Si / 1000 Ang^3
#
#
#
# Elastic Constant Matrix: (Units=GPa)
#
#
# Indices 1 2 3 4 5 6 
#
# 1 40.0771 40.1772 40.8193 0.0000 0.0000 0.0000
# 2 40.1772 140.5418 89.3147 0.0000 0.0000 0.0000
# 3 40.8193 89.3147 189.5715 0.0000 0.0000 0.0000
# 4 0.0000 0.0000 0.0000 27.0753 0.0000 0.0000
# 5 0.0000 0.0000 0.0000 0.0000 13.0712 0.0000
# 6 0.0000 0.0000 0.0000 0.0000 0.0000 14.9040
#
#
#
# Elastic Compliance Matrix: (Units=1/GPa)
#
#
# Indices 1 2 3 4 5 6 
#
# 1 0.037269 -0.007928 -0.004290 0.000000 0.000000 0.000000
# 2 -0.007928 0.011843 -0.003872 0.000000 0.000000 0.000000
# 3 -0.004290 -0.003872 0.008023 0.000000 0.000000 0.000000
# 4 0.000000 0.000000 0.000000 0.036934 0.000000 0.000000
# 5 0.000000 0.000000 0.000000 0.000000 0.076504 0.000000
# 6 0.000000 0.000000 0.000000 0.000000 0.000000 0.067096
#
#
# Mechanical properties :
#
#
# Convention : Reuss Voigt Hill
#
# Bulk Modulus (GPa) = 40.07314 78.97918 59.52616
# Shear Modulus (GPa) = 17.97480 24.33540 21.15510
#
# Velocity S-wave (km/s) = 3.41279 3.97097 3.70241
# Velocity P-wave (km/s) = 6.44171 8.49711 7.53978
#
# Compressibility (1/GPa) = 0.02495437
#
# Stress axis : x y z
#
# Youngs Moduli (GPa) = 26.83204 84.44009 124.63876
#
# Poissons Ratio (x) = 0.66945 0.53465
# Poissons Ratio (y) = 0.21273 0.48266
# Poissons Ratio (z) = 0.11510 0.32699
#
# Static dielectric constant tensor:
#      x y z
#    x 1.495570 0.000000 0.000000 
#    y 0.000000 1.502940 0.000000 
#    z 0.000000 0.000000 1.526790 
# 
# From -- ./inp_files/7924.got.cif
#   From: 2010.05.17/outbox.cif.g08.bks.cpg/sg63_4_cif.got.tgz:7924.got - 2010.06.03 15:47:04.
