data_PCOD9468294
_publ_section_title
;
Structure prediction by ZEFSAII (Michael W. Deem and Ramdas Pophale) SiO2 
 PCOD9468294
Probable space group: C M C M
;
_chemical_formula_sum "Si O2"
_cell_formula_units_Z 96
_cell_length_a 12.530375
_cell_length_b 25.945581
_cell_length_c 14.181070
_cell_angle_alpha 90.000000
_cell_angle_beta 90.000000
_cell_angle_gamma 90.000000
_cell_volume 4610.377313
_symmetry_space_group_name_H-M "C M C M"
_symmetry_group_IT_number 63
_symmetry_cell_setting 'orthorhombic'
loop_
_space_group_symop_operation_xyz
x,y,z
-x,-y,1/2+z
x,-y,-z
-x,y,1/2-z
-x,-y,-z
x,y,1/2-z
-x,y,z
x,-y,1/2+z
1/2+x,1/2+y,z
1/2-x,1/2-y,1/2+z
1/2+x,1/2-y,-z
1/2-x,1/2+y,1/2-z
1/2-x,1/2-y,-z
1/2+x,1/2+y,1/2-z
1/2-x,1/2+y,z
1/2+x,1/2-y,1/2+z
loop_
_atom_site_type_symbol
_atom_site_label
_atom_site_fract_x
_atom_site_fract_y
_atom_site_fract_z
Si Si1 0.720552 0.405808 0.141015
Si Si2 0.120259 0.127940 0.137358
Si Si3 0.621781 0.509399 0.109989
Si Si4 0.500000 0.240640 0.136097
Si Si5 0.000000 0.861906 0.135078
Si Si6 0.877670 0.320297 0.134605
Si Si7 0.235682 0.278956 0.865543
O O1 0.716596 0.389343 0.250000
O O2 0.708400 0.467384 0.141797
O O3 0.608539 0.386921 0.097249
O O4 0.821654 0.374128 0.103648
O O5 0.114384 0.136517 0.250000
O O6 0.199685 0.171228 0.100767
O O7 0.000000 0.134296 0.099833
O O8 0.152661 0.068484 0.125936
O O9 0.500000 0.501433 0.148457
O O10 0.613726 0.500000 0.000000
O O11 0.500000 0.234173 0.250000
O O12 0.500000 0.301559 0.117800
O O13 0.613290 0.219651 0.101764
O O14 0.000000 0.869362 0.250000
O O15 0.883432 0.319267 0.250000
O O16 0.799524 0.273012 0.108234
O O17 0.000000 0.314565 0.101989
O O18 0.232971 0.278814 0.750000
#
# Coordination Sequence:
#
# PCOD9468294 Si02
#       7
#    16  16  16   8   8  16  16
#     4  10  17  27  47  71  95 120 149 189 232 274
#     4   9  17  29  46  68  93 122 154 186 223 270
#     4  10  20  32  47  68  92 119 154 197 239 273
#     4   9  14  22  38  67 100 124 146 177 226 276
#     4   9  14  22  39  69  97 116 140 179 233 276
#     4   9  16  25  41  69  99 123 148 183 229 275
#     4   9  15  24  41  67  98 124 147 181 225 272
#
# _framework density 20.822590000000002
#
# number of rings (size 3 to 8) (size 9 to 14) (size 15 to 20)
#    0.000    2.667    2.500    1.000    0.000    2.667 
#    0.000    0.000    1.833    1.500    0.000    0.000 
#    0.000    0.000    0.000    0.000    0.000    0.000 
#
# Total GULP energy -267857.074623 kJ/mol
# GULP energy per Si atom -5580.355721 kJ/mol
# Density = 2.077520 g / cm^3
# Si number density = 20.822590 Si / 1000 Ang^3
#
#
#
# Elastic Constant Matrix: (Units=GPa)
#
#
# Indices 1 2 3 4 5 6 
#
# 1 173.9002 114.7626 9.4900 0.0000 0.0000 0.0000
# 2 114.7626 150.3579 -5.2421 0.0000 0.0000 0.0000
# 3 9.4900 -5.2421 51.3411 0.0000 0.0000 0.0000
# 4 0.0000 0.0000 0.0000 3.1607 0.0000 0.0000
# 5 0.0000 0.0000 0.0000 0.0000 14.2713 0.0000
# 6 0.0000 0.0000 0.0000 0.0000 0.0000 9.5753
#
#
#
# Elastic Compliance Matrix: (Units=1/GPa)
#
#
# Indices 1 2 3 4 5 6 
#
# 1 0.012085 -0.009335 -0.003187 0.000000 0.000000 0.000000
# 2 -0.009335 0.013885 0.003143 0.000000 0.000000 0.000000
# 3 -0.003187 0.003143 0.020388 0.000000 0.000000 0.000000
# 4 0.000000 0.000000 0.000000 0.316386 0.000000 0.000000
# 5 0.000000 0.000000 0.000000 0.000000 0.070071 0.000000
# 6 0.000000 0.000000 0.000000 0.000000 0.000000 0.104435
#
#
# Mechanical properties :
#
#
# Convention : Reuss Voigt Hill
#
# Bulk Modulus (GPa) = 36.23119 68.18003 52.20561
# Shear Modulus (GPa) = 8.84631 22.50738 15.67684
#
# Velocity S-wave (km/s) = 2.06341 3.29129 2.74684
# Velocity P-wave (km/s) = 4.80776 6.87443 5.93180
#
# Compressibility (1/GPa) = 0.02760053
#
# Stress axis : x y z
#
# Youngs Moduli (GPa) = 82.74846 72.01789 49.04941
#
# Poissons Ratio (x) = 0.67229 0.15632
# Poissons Ratio (y) = 0.77246 -0.15417
# Poissons Ratio (z) = 0.26371 -0.22637
#
# Static dielectric constant tensor:
#      x y z
#    x 1.746320 0.000000 0.000000 
#    y 0.000000 1.740150 0.000000 
#    z 0.000000 0.000000 1.771800 
# 
# From -- ./inp_files/42717.got.cif
#   From: 2010.05.17/outbox.cif.g08.bks.cpg/sg63_22_cif.got.tgz:42717.got - 2010.06.03 15:47:04.
