data_PCOD9468787
_publ_section_title
;
Structure prediction by ZEFSAII (Michael W. Deem and Ramdas Pophale) SiO2 
 PCOD9468787
Probable space group: C M C M
;
_chemical_formula_sum "Si O2"
_cell_formula_units_Z 96
_cell_length_a 8.804234
_cell_length_b 23.703989
_cell_length_c 27.574509
_cell_angle_alpha 90.000000
_cell_angle_beta 90.000000
_cell_angle_gamma 90.000000
_cell_volume 5754.675002
_symmetry_space_group_name_H-M "C M C M"
_symmetry_group_IT_number 63
_symmetry_cell_setting 'orthorhombic'
loop_
_space_group_symop_operation_xyz
x,y,z
-x,-y,1/2+z
x,-y,-z
-x,y,1/2-z
-x,-y,-z
x,y,1/2-z
-x,y,z
x,-y,1/2+z
1/2+x,1/2+y,z
1/2-x,1/2-y,1/2+z
1/2+x,1/2-y,-z
1/2-x,1/2+y,1/2-z
1/2-x,1/2-y,-z
1/2+x,1/2+y,1/2-z
1/2-x,1/2+y,z
1/2+x,1/2-y,1/2+z
loop_
_atom_site_type_symbol
_atom_site_label
_atom_site_fract_x
_atom_site_fract_y
_atom_site_fract_z
Si Si1 0.174898 0.011452 0.750000
Si Si2 0.173924 0.721298 0.571557
Si Si3 0.181366 0.140611 0.646806
Si Si4 0.185050 0.539789 0.044817
Si Si5 0.317650 0.983497 0.353455
Si Si6 0.325791 0.351327 0.250000
Si Si7 0.677034 0.830658 0.963681
O O1 0.000000 0.992924 0.750000
O O2 0.252860 0.995837 0.698678
O O3 0.175037 0.080149 0.750000
O O4 0.280601 0.684949 0.605822
O O5 0.227546 0.785706 0.566875
O O6 0.182066 0.692529 0.518566
O O7 0.000000 0.717725 0.588156
O O8 0.260155 0.080469 0.638553
O O9 0.241281 0.164401 0.698383
O O10 0.000000 0.131124 0.650664
O O11 0.229683 0.517558 0.098183
O O12 0.231296 0.604855 0.038090
O O13 0.000000 0.538665 0.043358
O O14 0.236632 0.500000 0.000000
O O15 0.500000 0.983997 0.350602
O O16 0.500000 0.331300 0.250000
O O17 0.500000 0.829295 0.948193
#
# Coordination Sequence:
#
# PCOD9468787 Si02
#       7
#     8  16  16  16  16   8  16
#     4   9  17  31  47  66  97 132 163 198 246 292
#     4  10  19  31  49  71  94 122 160 202 238 281
#     4  10  18  30  48  70  98 129 158 191 241 293
#     4   9  17  30  49  73 101 130 158 194 242 294
#     4  10  18  29  49  75  99 126 165 206 239 281
#     4   7  14  27  43  64  89 118 151 186 224 276
#     4   9  18  33  50  68  94 128 161 193 237 290
#
# _framework density 16.682089000000001
#
# number of rings (size 3 to 8) (size 9 to 14) (size 15 to 20)
#    0.000    2.667    0.000    3.750    0.000    3.333 
#    0.000    2.917    0.000    4.500    0.000    3.500 
#    0.000    0.000    0.000    0.000    0.000    0.000 
#
# Total GULP energy -267292.902768 kJ/mol
# GULP energy per Si atom -5568.602141 kJ/mol
# Density = 1.664412 g / cm^3
# Si number density = 16.682089 Si / 1000 Ang^3
#
#
#
# Elastic Constant Matrix: (Units=GPa)
#
#
# Indices 1 2 3 4 5 6 
#
# 1 46.2079 21.5216 30.2655 0.0000 0.0000 0.0000
# 2 21.5216 98.0586 46.1216 0.0000 0.0000 0.0000
# 3 30.2655 46.1216 84.9863 0.0000 0.0000 0.0000
# 4 0.0000 0.0000 0.0000 15.7464 0.0000 0.0000
# 5 0.0000 0.0000 0.0000 0.0000 21.7848 0.0000
# 6 0.0000 0.0000 0.0000 0.0000 0.0000 20.1451
#
#
#
# Elastic Compliance Matrix: (Units=1/GPa)
#
#
# Indices 1 2 3 4 5 6 
#
# 1 0.028511 -0.001990 -0.009074 0.000000 0.000000 0.000000
# 2 -0.001990 0.013832 -0.006798 0.000000 0.000000 0.000000
# 3 -0.009074 -0.006798 0.018687 0.000000 0.000000 0.000000
# 4 0.000000 0.000000 0.000000 0.063507 0.000000 0.000000
# 5 0.000000 0.000000 0.000000 0.000000 0.045904 0.000000
# 6 0.000000 0.000000 0.000000 0.000000 0.000000 0.049640
#
#
# Mechanical properties :
#
#
# Convention : Reuss Voigt Hill
#
# Bulk Modulus (GPa) = 39.51378 47.23000 43.37189
# Shear Modulus (GPa) = 18.92227 20.29155 19.60691
#
# Velocity S-wave (km/s) = 3.37157 3.49143 3.43202
# Velocity P-wave (km/s) = 6.23654 6.68032 6.46224
#
# Compressibility (1/GPa) = 0.02530762
#
# Stress axis : x y z
#
# Youngs Moduli (GPa) = 35.07406 72.29553 53.51281
#
# Poissons Ratio (x) = 0.14385 0.48555
# Poissons Ratio (y) = 0.06979 0.36378
# Poissons Ratio (z) = 0.31825 0.49146
#
# Static dielectric constant tensor:
#      x y z
#    x 1.568460 0.000000 0.000000 
#    y 0.000000 1.533020 0.000000 
#    z 0.000000 0.000000 1.597280 
# 
# From -- ./inp_files/67293.got.cif
#   From: 2010.05.17/outbox.cif.g08.bks.cpg/sg63_34_cif.got.tgz:67293.got - 2010.06.03 15:47:04.
