data_PCOD9468983
_publ_section_title
;
Structure prediction by ZEFSAII (Michael W. Deem and Ramdas Pophale) SiO2 
 PCOD9468983
Probable space group: C M C M
;
_chemical_formula_sum "Si O2"
_cell_formula_units_Z 80
_cell_length_a 8.467464
_cell_length_b 20.947111
_cell_length_c 25.829137
_cell_angle_alpha 90.000000
_cell_angle_beta 90.000000
_cell_angle_gamma 90.000000
_cell_volume 4581.285832
_symmetry_space_group_name_H-M "C M C M"
_symmetry_group_IT_number 63
_symmetry_cell_setting 'orthorhombic'
loop_
_space_group_symop_operation_xyz
x,y,z
-x,-y,1/2+z
x,-y,-z
-x,y,1/2-z
-x,-y,-z
x,y,1/2-z
-x,y,z
x,-y,1/2+z
1/2+x,1/2+y,z
1/2-x,1/2-y,1/2+z
1/2+x,1/2-y,-z
1/2-x,1/2+y,1/2-z
1/2-x,1/2-y,-z
1/2+x,1/2+y,1/2-z
1/2-x,1/2+y,z
1/2+x,1/2-y,1/2+z
loop_
_atom_site_type_symbol
_atom_site_label
_atom_site_fract_x
_atom_site_fract_y
_atom_site_fract_z
Si Si1 0.311016 0.063792 0.470921
Si Si2 0.689889 0.312144 0.030300
Si Si3 0.311862 0.393003 0.750000
Si Si4 0.190739 0.248664 0.750000
Si Si5 0.809738 0.243057 0.637178
Si Si6 0.189633 0.111047 0.363338
O O1 0.500000 0.062814 0.468734
O O2 0.257276 0.125205 0.503527
O O3 0.248444 0.071894 0.412594
O O4 0.254995 0.000000 0.500000
O O5 0.500000 0.314408 0.027748
O O6 0.740656 0.301367 0.089837
O O7 0.750000 0.250000 0.000000
O O8 0.500000 0.403084 0.750000
O O9 0.273183 0.317618 0.750000
O O10 0.253080 0.414338 0.806835
O O11 0.233143 0.218572 0.805306
O O12 0.000000 0.257689 0.750000
O O13 0.745441 0.315202 0.630841
O O14 0.000000 0.247876 0.634649
O O15 0.000000 0.111276 0.363144
#
# Coordination Sequence:
#
# PCOD9468983 Si02
#       6
#    16  16   8   8  16  16
#     4  11  24  39  53  72 103 141 181 224 266 309
#     4  11  21  33  53  79 106 137 172 213 258 313
#     4   8  16  28  44  73 104 129 161 205 259 307
#     4   8  14  26  44  69 100 133 163 201 249 301
#     4   9  17  29  48  74 104 133 167 207 253 308
#     4  10  18  30  51  76 104 134 167 211 259 312
#
# _framework density 17.462346
#
# number of rings (size 3 to 8) (size 9 to 14) (size 15 to 20)
#    0.000    2.200    2.000    1.800    0.000    3.200 
#    0.000    0.000    0.000    1.200    0.000    5.600 
#    0.000    0.000    0.000    0.000    0.000    0.000 
#
# Total GULP energy -222872.974484 kJ/mol
# GULP energy per Si atom -5571.824362 kJ/mol
# Density = 1.742260 g / cm^3
# Si number density = 17.462346 Si / 1000 Ang^3
#
#
#
# Elastic Constant Matrix: (Units=GPa)
#
#
# Indices 1 2 3 4 5 6 
#
# 1 15.8418 10.3640 24.6136 0.0000 0.0000 0.0000
# 2 10.3640 78.3465 64.9329 0.0000 0.0000 0.0000
# 3 24.6136 64.9329 211.3824 0.0000 0.0000 0.0000
# 4 0.0000 0.0000 0.0000 19.0904 0.0000 0.0000
# 5 0.0000 0.0000 0.0000 0.0000 21.9018 0.0000
# 6 0.0000 0.0000 0.0000 0.0000 0.0000 16.5335
#
#
#
# Elastic Compliance Matrix: (Units=1/GPa)
#
#
# Indices 1 2 3 4 5 6 
#
# 1 0.077874 -0.003738 -0.007920 0.000000 0.000000 0.000000
# 2 -0.003738 0.017303 -0.004880 0.000000 0.000000 0.000000
# 3 -0.007920 -0.004880 0.007152 0.000000 0.000000 0.000000
# 4 0.000000 0.000000 0.000000 0.052382 0.000000 0.000000
# 5 0.000000 0.000000 0.000000 0.000000 0.045658 0.000000
# 6 0.000000 0.000000 0.000000 0.000000 0.000000 0.060483
#
#
# Mechanical properties :
#
#
# Convention : Reuss Voigt Hill
#
# Bulk Modulus (GPa) = 14.43956 56.15463 35.29709
# Shear Modulus (GPa) = 15.77228 25.21581 20.49405
#
# Velocity S-wave (km/s) = 3.00862 3.80414 3.42952
# Velocity P-wave (km/s) = 4.51176 7.17793 5.99494
#
# Compressibility (1/GPa) = 0.06925420
#
# Stress axis : x y z
#
# Youngs Moduli (GPa) = 12.84125 57.79467 139.82254
#
# Poissons Ratio (x) = 0.21603 1.10733
# Poissons Ratio (y) = 0.04800 0.68231
# Poissons Ratio (z) = 0.10170 0.28203
#
# Static dielectric constant tensor:
#      x y z
#    x 1.594430 0.000000 0.000000 
#    y 0.000000 1.543630 0.000000 
#    z 0.000000 0.000000 1.678300 
# 
# From -- ./inp_files/66714.got.cif
#   From: 2010.05.17/outbox.cif.g08.bks.cpg/sg63_34_cif.got.tgz:66714.got - 2010.06.03 15:47:04.
