data_PCOD9468179
_publ_section_title
;
Structure prediction by ZEFSAII (Michael W. Deem and Ramdas Pophale) SiO2 
 PCOD9468179
Probable space group: C M C M
;
_chemical_formula_sum "Si O2"
_cell_formula_units_Z 96
_cell_length_a 18.113560
_cell_length_b 11.120696
_cell_length_c 26.649827
_cell_angle_alpha 90.000000
_cell_angle_beta 90.000000
_cell_angle_gamma 90.000000
_cell_volume 5368.218408
_symmetry_space_group_name_H-M "C M C M"
_symmetry_group_IT_number 63
_symmetry_cell_setting 'orthorhombic'
loop_
_space_group_symop_operation_xyz
x,y,z
-x,-y,1/2+z
x,-y,-z
-x,y,1/2-z
-x,-y,-z
x,y,1/2-z
-x,y,z
x,-y,1/2+z
1/2+x,1/2+y,z
1/2-x,1/2-y,1/2+z
1/2+x,1/2-y,-z
1/2-x,1/2+y,1/2-z
1/2-x,1/2-y,-z
1/2+x,1/2+y,1/2-z
1/2-x,1/2+y,z
1/2+x,1/2-y,1/2+z
loop_
_atom_site_type_symbol
_atom_site_label
_atom_site_fract_x
_atom_site_fract_y
_atom_site_fract_z
Si Si1 0.140697 0.854052 0.040516
Si Si2 0.683149 0.171998 0.378475
Si Si3 0.836477 0.714985 0.637086
Si Si4 0.300885 0.957594 0.050838
Si Si5 0.414184 0.383312 0.567407
Si Si6 0.086995 0.504173 0.809245
O O1 0.135909 0.754910 0.083776
O O2 0.226969 0.887995 0.035270
O O3 0.101009 0.975564 0.058644
O O4 0.113629 0.823459 0.984835
O O5 0.750142 0.250976 0.355254
O O6 0.719514 0.073381 0.415755
O O7 0.633086 0.097567 0.339578
O O8 0.843238 0.628281 0.588446
O O9 0.876333 0.834531 0.617787
O O10 0.875285 0.634044 0.679116
O O11 0.339435 0.000000 0.000000
O O12 0.500000 0.360096 0.571543
O O13 0.091206 0.480253 0.750000
O O14 0.000000 0.505853 0.823881
#
# Coordination Sequence:
#
# PCOD9468179 Si02
#       6
#    16  16  16  16  16  16
#     4  10  18  30  47  76 111 146 180 204 245 308
#     4  10  20  34  58  79 106 139 180 222 264 316
#     4  10  20  34  56  82 104 140 181 221 264 315
#     4  10  16  29  50  77 109 140 178 217 252 297
#     4  11  20  31  47  75 116 151 178 207 250 309
#     4  10  23  42  61  80 103 134 176 231 288 327
#
# _framework density 17.883026999999998
#
# number of rings (size 3 to 8) (size 9 to 14) (size 15 to 20)
#    0.000    1.833    3.333    2.500    0.000    4.667 
#    0.000    0.000    0.000    5.500    0.000    2.333 
#    0.000    0.000    0.000    0.000    0.000    0.000 
#
# Total GULP energy -267494.845106 kJ/mol
# GULP energy per Si atom -5572.809273 kJ/mol
# Density = 1.784232 g / cm^3
# Si number density = 17.883027 Si / 1000 Ang^3
#
#
#
# Elastic Constant Matrix: (Units=GPa)
#
#
# Indices 1 2 3 4 5 6 
#
# 1 67.2745 20.2271 35.7958 0.0000 0.0000 0.0000
# 2 20.2271 69.4254 35.6694 0.0000 0.0000 0.0000
# 3 35.7958 35.6694 68.5235 0.0000 0.0000 0.0000
# 4 0.0000 0.0000 0.0000 26.1177 0.0000 0.0000
# 5 0.0000 0.0000 0.0000 0.0000 22.1403 0.0000
# 6 0.0000 0.0000 0.0000 0.0000 0.0000 17.0400
#
#
#
# Elastic Compliance Matrix: (Units=1/GPa)
#
#
# Indices 1 2 3 4 5 6 
#
# 1 0.020608 -0.000646 -0.010429 0.000000 0.000000 0.000000
# 2 -0.000646 0.019683 -0.009908 0.000000 0.000000 0.000000
# 3 -0.010429 -0.009908 0.025199 0.000000 0.000000 0.000000
# 4 0.000000 0.000000 0.000000 0.038288 0.000000 0.000000
# 5 0.000000 0.000000 0.000000 0.000000 0.045167 0.000000
# 6 0.000000 0.000000 0.000000 0.000000 0.000000 0.058685
#
#
# Mechanical properties :
#
#
# Convention : Reuss Voigt Hill
#
# Bulk Modulus (GPa) = 42.51091 43.17865 42.84478
# Shear Modulus (GPa) = 19.42217 20.62833 20.02525
#
# Velocity S-wave (km/s) = 3.29913 3.40003 3.34996
# Velocity P-wave (km/s) = 6.19157 6.29373 6.24286
#
# Compressibility (1/GPa) = 0.02352337
#
# Stress axis : x y z
#
# Youngs Moduli (GPa) = 48.52526 50.80564 39.68369
#
# Poissons Ratio (x) = 0.03281 0.41386
# Poissons Ratio (y) = 0.03134 0.39320
# Poissons Ratio (z) = 0.50607 0.50340
#
# Static dielectric constant tensor:
#      x y z
#    x 1.620500 0.000000 0.000000 
#    y 0.000000 1.678450 0.000000 
#    z 0.000000 0.000000 1.612840 
# 
# From -- ./inp_files/69869.got.cif
#   From: 2010.05.17/outbox.cif.g08.bks.cpg/sg63_35_cif.got.tgz:69869.got - 2010.06.03 15:47:04.
