data_PCOD9468976
_publ_section_title
;
Structure prediction by ZEFSAII (Michael W. Deem and Ramdas Pophale) SiO2 
 PCOD9468976
Probable space group: C M C M
;
_chemical_formula_sum "Si O2"
_cell_formula_units_Z 112
_cell_length_a 27.987442
_cell_length_b 16.182491
_cell_length_c 14.479517
_cell_angle_alpha 90.000000
_cell_angle_beta 90.000000
_cell_angle_gamma 90.000000
_cell_volume 6557.867776
_symmetry_space_group_name_H-M "C M C M"
_symmetry_group_IT_number 63
_symmetry_cell_setting 'orthorhombic'
loop_
_space_group_symop_operation_xyz
x,y,z
-x,-y,1/2+z
x,-y,-z
-x,y,1/2-z
-x,-y,-z
x,y,1/2-z
-x,y,z
x,-y,1/2+z
1/2+x,1/2+y,z
1/2-x,1/2-y,1/2+z
1/2+x,1/2-y,-z
1/2-x,1/2+y,1/2-z
1/2-x,1/2-y,-z
1/2+x,1/2+y,1/2-z
1/2-x,1/2+y,z
1/2+x,1/2-y,1/2+z
loop_
_atom_site_type_symbol
_atom_site_label
_atom_site_fract_x
_atom_site_fract_y
_atom_site_fract_z
Si Si1 0.553619 0.513853 0.138093
Si Si2 0.624459 0.630152 0.643364
Si Si3 0.141643 0.752427 0.975841
Si Si4 0.300224 0.911305 0.983560
Si Si5 0.730387 0.319897 0.642623
Si Si6 0.554777 0.704261 0.361015
Si Si7 0.265021 0.632862 0.649396
O O1 0.553789 0.515050 0.250000
O O2 0.500000 0.490407 0.108748
O O3 0.592267 0.446344 0.111069
O O4 0.562994 0.608255 0.110544
O O5 0.610999 0.652658 0.750000
O O6 0.623374 0.702105 0.567969
O O7 0.680183 0.607003 0.647005
O O8 0.183847 0.804537 0.922550
O O9 0.096667 0.744659 0.907974
O O10 0.164090 0.664844 0.002683
O O11 0.266548 0.889380 0.895716
O O12 0.263212 0.907785 0.067958
O O13 0.324013 0.000000 0.000000
O O14 0.716986 0.333766 0.750000
O O15 0.759139 0.232307 0.637909
O O16 0.558138 0.708755 0.250000
O O17 0.500000 0.725545 0.386291
O O18 0.244502 0.612891 0.750000
#
# Coordination Sequence:
#
# PCOD9468976 Si02
#       7
#    16  16  16  16  16  16  16
#     4   8  16  31  49  75 108 136 164 203 250 301
#     4  10  18  30  51  73 103 142 176 208 248 304
#     4  11  20  35  54  78 102 137 180 214 257 310
#     4  11  22  35  50  74 105 136 176 219 262 307
#     4  10  19  35  55  73  99 135 173 218 261 306
#     4   9  19  36  56  77 104 135 169 213 262 313
#     4   9  17  33  52  71  97 133 174 211 253 304
#
# _framework density 17.078721999999999
#
# number of rings (size 3 to 8) (size 9 to 14) (size 15 to 20)
#    0.000    2.286    2.857    2.143    0.000    3.429 
#    0.000    2.857    0.000    0.429    0.000    0.000 
#    0.000    2.286    0.000    0.000    0.000    0.000 
#
# Total GULP energy -312095.584113 kJ/mol
# GULP energy per Si atom -5573.135431 kJ/mol
# Density = 1.703985 g / cm^3
# Si number density = 17.078722 Si / 1000 Ang^3
#
#
#
# Elastic Constant Matrix: (Units=GPa)
#
#
# Indices 1 2 3 4 5 6 
#
# 1 45.1266 9.8427 13.5786 0.0000 0.0000 0.0000
# 2 9.8427 40.5744 13.8399 0.0000 0.0000 0.0000
# 3 13.5786 13.8399 69.3595 0.0000 0.0000 0.0000
# 4 0.0000 0.0000 0.0000 11.5104 0.0000 0.0000
# 5 0.0000 0.0000 0.0000 0.0000 20.3831 0.0000
# 6 0.0000 0.0000 0.0000 0.0000 0.0000 20.2763
#
#
#
# Elastic Compliance Matrix: (Units=1/GPa)
#
#
# Indices 1 2 3 4 5 6 
#
# 1 0.024318 -0.004587 -0.003845 0.000000 0.000000 0.000000
# 2 -0.004587 0.027311 -0.004552 0.000000 0.000000 0.000000
# 3 -0.003845 -0.004552 0.016079 0.000000 0.000000 0.000000
# 4 0.000000 0.000000 0.000000 0.086878 0.000000 0.000000
# 5 0.000000 0.000000 0.000000 0.000000 0.049060 0.000000
# 6 0.000000 0.000000 0.000000 0.000000 0.000000 0.049319
#
#
# Mechanical properties :
#
#
# Convention : Reuss Voigt Hill
#
# Bulk Modulus (GPa) = 23.95841 25.50921 24.73381
# Shear Modulus (GPa) = 17.07383 18.28725 17.68054
#
# Velocity S-wave (km/s) = 3.16525 3.27580 3.22100
# Velocity P-wave (km/s) = 5.23614 5.41078 5.32417
#
# Compressibility (1/GPa) = 0.04173899
#
# Stress axis : x y z
#
# Youngs Moduli (GPa) = 41.12264 36.61470 62.19419
#
# Poissons Ratio (x) = 0.16797 0.23916
# Poissons Ratio (y) = 0.18864 0.28308
# Poissons Ratio (z) = 0.15813 0.16666
#
# Static dielectric constant tensor:
#      x y z
#    x 1.569950 0.000000 0.000000 
#    y 0.000000 1.598880 0.000000 
#    z 0.000000 0.000000 1.629890 
# 
# From -- ./inp_files/38730.got.cif
#   From: 2010.05.17/outbox.cif.g08.bks.cpg/sg63_20_cif.got.tgz:38730.got - 2010.06.03 15:47:04.
