data_PCOD9468956
_publ_section_title
;
Structure prediction by ZEFSAII (Michael W. Deem and Ramdas Pophale) SiO2 
 PCOD9468956
Probable space group: C M C M
;
_chemical_formula_sum "Si O2"
_cell_formula_units_Z 128
_cell_length_a 7.377071
_cell_length_b 29.848454
_cell_length_c 26.348201
_cell_angle_alpha 90.000000
_cell_angle_beta 90.000000
_cell_angle_gamma 90.000000
_cell_volume 5801.720103
_symmetry_space_group_name_H-M "C M C M"
_symmetry_group_IT_number 63
_symmetry_cell_setting 'orthorhombic'
loop_
_space_group_symop_operation_xyz
x,y,z
-x,-y,1/2+z
x,-y,-z
-x,y,1/2-z
-x,-y,-z
x,y,1/2-z
-x,y,z
x,-y,1/2+z
1/2+x,1/2+y,z
1/2-x,1/2-y,1/2+z
1/2+x,1/2-y,-z
1/2-x,1/2+y,1/2-z
1/2-x,1/2-y,-z
1/2+x,1/2+y,1/2-z
1/2-x,1/2+y,z
1/2+x,1/2-y,1/2+z
loop_
_atom_site_type_symbol
_atom_site_label
_atom_site_fract_x
_atom_site_fract_y
_atom_site_fract_z
Si Si1 0.221362 0.858646 0.691600
Si Si2 0.221371 0.306319 0.404109
Si Si3 0.712279 0.294798 0.896342
Si Si4 0.218181 0.040673 0.191959
Si Si5 0.278794 0.863687 0.193041
Si Si6 0.781467 0.644094 0.493163
Si Si7 0.211486 0.450072 0.135585
Si Si8 0.778146 0.452097 0.479030
O O1 0.274580 0.850467 0.750000
O O2 0.287284 0.822125 0.651631
O O3 0.000000 0.858548 0.690811
O O4 0.277773 0.909282 0.677123
O O5 0.284814 0.254969 0.405761
O O6 0.276050 0.329982 0.351683
O O7 0.279911 0.333862 0.453767
O O8 0.000000 0.307105 0.405404
O O9 0.500000 0.288227 0.885287
O O10 0.726725 0.325624 0.945899
O O11 0.278585 0.032500 0.250000
O O12 0.274739 0.000150 0.156466
O O13 0.000000 0.041023 0.192298
O O14 0.216783 0.853396 0.250000
O O15 0.500000 0.862781 0.194712
O O16 0.218292 0.913194 0.174994
O O17 0.722249 0.592308 0.490535
O O18 0.000000 0.643902 0.494013
O O19 0.285464 0.446561 0.078928
O O20 0.000000 0.438904 0.130165
O O21 0.718304 0.500000 0.500000
O O22 0.000000 0.452963 0.479293
#
# Coordination Sequence:
#
# PCOD9468956 Si02
#       8
#    16  16  16  16  16  16  16  16
#     4   8  16  32  50  69  97 130 159 194 243 291
#     4   9  17  31  48  70  98 128 159 198 245 293
#     4  10  20  32  52  77  97 121 163 209 241 279
#     4   9  18  32  48  66  94 130 159 186 233 294
#     4   9  16  27  46  73 101 126 156 202 255 293
#     4  10  19  34  53  71  99 134 163 192 241 301
#     4  10  18  30  50  74  98 123 162 209 243 279
#     4   9  18  31  48  71  99 132 163 195 240 293
#
# _framework density 22.062421000000001
#
# number of rings (size 3 to 8) (size 9 to 14) (size 15 to 20)
#    0.000    2.750    1.250    1.500    1.750    1.250 
#    0.000    3.125    0.000    2.625    0.000    0.000 
#    0.000    0.000    0.000    0.000    0.000    0.000 
#
# Total GULP energy -357430.582877 kJ/mol
# GULP energy per Si atom -5584.852857 kJ/mol
# Density = 2.201221 g / cm^3
# Si number density = 22.062421 Si / 1000 Ang^3
#
#
#
# Elastic Constant Matrix: (Units=GPa)
#
#
# Indices 1 2 3 4 5 6 
#
# 1 72.2432 -4.3025 -6.0090 0.0000 0.0000 0.0000
# 2 -4.3025 174.3448 73.8548 0.0000 0.0000 0.0000
# 3 -6.0090 73.8548 110.0734 0.0000 0.0000 0.0000
# 4 0.0000 0.0000 0.0000 -1.1822 0.0000 0.0000
# 5 0.0000 0.0000 0.0000 0.0000 8.8193 0.0000
# 6 0.0000 0.0000 0.0000 0.0000 0.0000 25.4658
#
#
#
# Elastic Compliance Matrix: (Units=1/GPa)
#
#
# Indices 1 2 3 4 5 6 
#
# 1 0.013905 0.000030 0.000739 0.000000 0.000000 0.000000
# 2 0.000030 0.008013 -0.005375 0.000000 0.000000 0.000000
# 3 0.000739 -0.005375 0.012732 0.000000 0.000000 0.000000
# 4 0.000000 0.000000 0.000000 -0.845874 0.000000 0.000000
# 5 0.000000 0.000000 0.000000 0.000000 0.113387 0.000000
# 6 0.000000 0.000000 0.000000 0.000000 0.000000 0.039268
#
#
# Mechanical properties :
#
#
# Convention : Reuss Voigt Hill
#
# Bulk Modulus (GPa) = 39.31060 53.74977 46.53019
# Shear Modulus (GPa) = -7.80181 26.16180 9.17999
#
# Velocity S-wave (km/s) = -1.88253 3.44729 2.04205
# Velocity P-wave (km/s) = 3.62372 6.34512 5.16681
#
# Compressibility (1/GPa) = 0.02543843
#
# Stress axis : x y z
#
# Youngs Moduli (GPa) = 71.91455 124.79030 78.54460
#
# Poissons Ratio (x) = -0.00376 -0.05803
# Poissons Ratio (y) = -0.00217 0.42218
# Poissons Ratio (z) = -0.05314 0.67075
#
# Static dielectric constant tensor:
#      x y z
#    x 1.863350 0.000000 0.000000 
#    y 0.000000 1.782040 0.000000 
#    z 0.000000 0.000000 1.760810 
# 
# From -- ./inp_files/62180.got.cif
#   From: 2010.05.17/outbox.cif.g08.bks.cpg/sg63_32_cif.got.tgz:62180.got - 2010.06.03 15:47:04.
