data_PCOD9468947
_publ_section_title
;
Structure prediction by ZEFSAII (Michael W. Deem and Ramdas Pophale) SiO2 
 PCOD9468947
Probable space group: C M C M
;
_chemical_formula_sum "Si O2"
_cell_formula_units_Z 96
_cell_length_a 7.290132
_cell_length_b 30.688651
_cell_length_c 19.311794
_cell_angle_alpha 90.000000
_cell_angle_beta 90.000000
_cell_angle_gamma 90.000000
_cell_volume 4320.517917
_symmetry_space_group_name_H-M "C M C M"
_symmetry_group_IT_number 63
_symmetry_cell_setting 'orthorhombic'
loop_
_space_group_symop_operation_xyz
x,y,z
-x,-y,1/2+z
x,-y,-z
-x,y,1/2-z
-x,-y,-z
x,y,1/2-z
-x,y,z
x,-y,1/2+z
1/2+x,1/2+y,z
1/2-x,1/2-y,1/2+z
1/2+x,1/2-y,-z
1/2-x,1/2+y,1/2-z
1/2-x,1/2-y,-z
1/2+x,1/2+y,1/2-z
1/2-x,1/2+y,z
1/2+x,1/2-y,1/2+z
loop_
_atom_site_type_symbol
_atom_site_label
_atom_site_fract_x
_atom_site_fract_y
_atom_site_fract_z
Si Si1 0.777253 0.531195 0.097473
Si Si2 0.276908 0.114683 0.326435
Si Si3 0.279151 0.159159 0.580790
Si Si4 0.723120 0.938593 0.057126
Si Si5 0.776655 0.689908 0.068126
Si Si6 0.285225 0.262504 0.172794
O O1 0.718189 0.565826 0.154532
O O2 0.717577 0.481014 0.100501
O O3 0.000000 0.530499 0.098667
O O4 0.726002 0.550804 0.022350
O O5 0.217027 0.128179 0.250000
O O6 0.500000 0.115136 0.326315
O O7 0.223047 0.148045 0.386222
O O8 0.500000 0.157813 0.577882
O O9 0.214910 0.109123 0.579894
O O10 0.214164 0.183297 0.510518
O O11 0.229394 0.188132 0.646538
O O12 0.500000 0.937867 0.058334
O O13 0.711314 0.731599 0.111641
O O14 0.000000 0.691161 0.065033
O O15 0.208750 0.256225 0.250000
O O16 0.500000 0.251283 0.177407
#
# Coordination Sequence:
#
# PCOD9468947 Si02
#       6
#    16  16  16  16  16  16
#     4   8  12  20  34  56  88 123 150 173 216 275
#     4   9  14  20  34  58  89 121 150 183 226 275
#     4  10  18  30  50  73  93 118 154 193 229 270
#     4   8  13  22  38  60  88 119 148 180 220 266
#     4   9  16  28  45  66  89 115 151 192 233 274
#     4  10  21  35  48  64  91 125 156 190 234 277
#
# _framework density 22.219556000000001
#
# number of rings (size 3 to 8) (size 9 to 14) (size 15 to 20)
#    0.000    3.000    1.667    2.000    0.000    2.333 
#    0.000    0.833    0.000    3.000    0.000    2.333 
#    0.000    0.000    0.000    0.167    0.000    0.000 
#
# Total GULP energy -267939.447065 kJ/mol
# GULP energy per Si atom -5582.071814 kJ/mol
# Density = 2.216898 g / cm^3
# Si number density = 22.219556 Si / 1000 Ang^3
#
#
#
# Elastic Constant Matrix: (Units=GPa)
#
#
# Indices 1 2 3 4 5 6 
#
# 1 92.4932 -6.5184 -3.6675 0.0000 0.0000 0.0000
# 2 -6.5184 121.9804 18.9439 0.0000 0.0000 0.0000
# 3 -3.6675 18.9439 54.8240 0.0000 0.0000 0.0000
# 4 0.0000 0.0000 0.0000 14.6351 0.0000 0.0000
# 5 0.0000 0.0000 0.0000 0.0000 -5.2366 0.0000
# 6 0.0000 0.0000 0.0000 0.0000 0.0000 -2.1267
#
#
#
# Elastic Compliance Matrix: (Units=1/GPa)
#
#
# Indices 1 2 3 4 5 6 
#
# 1 0.010868 0.000494 0.000556 0.000000 0.000000 0.000000
# 2 0.000494 0.008685 -0.002968 0.000000 0.000000 0.000000
# 3 0.000556 -0.002968 0.019303 0.000000 0.000000 0.000000
# 4 0.000000 0.000000 0.000000 0.068329 0.000000 0.000000
# 5 0.000000 0.000000 0.000000 0.000000 -0.190965 0.000000
# 6 0.000000 0.000000 0.000000 0.000000 0.000000 -0.470205
#
#
# Mechanical properties :
#
#
# Convention : Reuss Voigt Hill
#
# Bulk Modulus (GPa) = 28.55350 31.86818 30.21084
# Shear Modulus (GPa) = -9.28548 18.82367 4.76909
#
# Velocity S-wave (km/s) = -2.04647 2.91377 1.46663
# Velocity P-wave (km/s) = 2.70083 5.06889 4.06129
#
# Compressibility (1/GPa) = 0.03502198
#
# Stress axis : x y z
#
# Youngs Moduli (GPa) = 92.00902 115.13566 51.80551
#
# Poissons Ratio (x) = -0.05692 -0.02882
# Poissons Ratio (y) = -0.04549 0.15376
# Poissons Ratio (z) = -0.05118 0.34173
#
# Static dielectric constant tensor:
#      x y z
#    x 1.926870 0.000000 0.000000 
#    y 0.000000 1.823280 0.000000 
#    z 0.000000 0.000000 1.763820 
# 
# From -- ./inp_files/60203.got.cif
#   From: 2010.05.17/outbox.cif.g08.bks.cpg/sg63_31_cif.got.tgz:60203.got - 2010.06.03 15:47:04.
