data_PCOD9468031
_publ_section_title
;
Structure prediction by ZEFSAII (Michael W. Deem and Ramdas Pophale) SiO2 
 PCOD9468031
Probable space group: P N M A
;
_chemical_formula_sum "Si O2"
_cell_formula_units_Z 48
_cell_length_a 9.000000
_cell_length_b 18.000000
_cell_length_c 15.000000
_cell_angle_alpha 90.000000
_cell_angle_beta 90.000000
_cell_angle_gamma 90.000000
_cell_volume 2430.000000
_symmetry_space_group_name_H-M "P N M A"
_symmetry_group_IT_number 62
_symmetry_cell_setting 'orthorhombic'
loop_
_space_group_symop_operation_xyz
x,y,z
1/2-x,-y,1/2+z
1/2+x,1/2-y,1/2-z
-x,1/2+y,-z
-x,-y,-z
1/2+x,y,1/2-z
1/2-x,1/2+y,1/2+z
x,1/2-y,z
loop_
_atom_site_type_symbol
_atom_site_label
_atom_site_fract_x
_atom_site_fract_y
_atom_site_fract_z
Si Si1 0.087868 0.339248 0.038435
Si Si2 0.567189 0.570290 0.685322
Si Si3 0.097169 0.895498 0.465270
Si Si4 0.592867 0.440334 0.125516
Si Si5 0.802428 0.164376 0.710137
Si Si6 0.005980 0.904069 0.139457
O O1 0.099377 0.250000 0.032460
O O2 0.023117 0.366176 0.132680
O O3 0.248190 0.375977 0.015734
O O4 0.981511 0.370943 0.959599
O O5 0.743371 0.578153 0.664506
O O6 0.520254 0.565186 0.789842
O O7 0.516405 0.492154 0.641294
O O8 0.093144 0.843314 0.377823
O O9 0.970043 0.893247 0.541115
O O10 0.100455 0.976812 0.417802
O O11 0.790471 0.250000 0.735153
O O12 0.643625 0.132753 0.679826
O O13 0.864163 0.118075 0.793013
#
# Coordination Sequence:
#
# PCOD9468031 Si02
#       6
#     8   8   8   8   8   8
#     4  11  24  43  65  93 133 173 216 268 328 385
#     4  12  22  43  64  99 124 172 215 269 317 382
#     4  10  21  40  63  95 124 168 212 266 326 377
#     4  11  23  39  67  94 127 163 220 270 312 385
#     4  11  21  37  60  92 133 168 207 264 333 388
#     4  11  21  38  61  93 127 169 210 265 322 389
#
# _framework density 19.753086
#
# number of rings (size 3 to 8) (size 9 to 14) (size 15 to 20)
#    0.000    1.000    5.000    4.500    0.000    1.333 
#    0.000    7.500    0.000    0.000    0.000    0.000 
#    0.000    0.000    0.000    0.000    0.000    0.000 
#
# Total GULP energy -268174.764023 kJ/mol
# GULP energy per Si atom -5586.974250 kJ/mol
# Density = 1.970813 g / cm^3
# Si number density = 19.753086 Si / 1000 Ang^3
#
#
#
# Elastic Constant Matrix: (Units=GPa)
#
#
# Indices 1 2 3 4 5 6 
#
# 1 48.4574 -3.1081 17.2910 0.0000 0.0000 0.0000
# 2 -3.1081 24.8405 2.6007 0.0000 0.0000 0.0000
# 3 17.2910 2.6007 92.6241 0.0000 0.0000 0.0000
# 4 0.0000 0.0000 0.0000 28.2730 0.0000 0.0000
# 5 0.0000 0.0000 0.0000 0.0000 36.6420 0.0000
# 6 0.0000 0.0000 0.0000 0.0000 0.0000 12.8242
#
#
#
# Elastic Compliance Matrix: (Units=1/GPa)
#
#
# Indices 1 2 3 4 5 6 
#
# 1 0.022367 0.003245 -0.004267 0.000000 0.000000 0.000000
# 2 0.003245 0.040846 -0.001753 0.000000 0.000000 0.000000
# 3 -0.004267 -0.001753 0.011642 0.000000 0.000000 0.000000
# 4 0.000000 0.000000 0.000000 0.035369 0.000000 0.000000
# 5 0.000000 0.000000 0.000000 0.000000 0.027291 0.000000
# 6 0.000000 0.000000 0.000000 0.000000 0.000000 0.077978
#
#
# Mechanical properties :
#
#
# Convention : Reuss Voigt Hill
#
# Bulk Modulus (GPa) = 14.42842 22.16546 18.29694
# Shear Modulus (GPa) = 20.47967 25.49040 22.98503
#
# Velocity S-wave (km/s) = 3.22341 3.59618 3.41488
# Velocity P-wave (km/s) = 4.60152 5.33751 4.98312
#
# Compressibility (1/GPa) = 0.06930767
#
# Stress axis : x y z
#
# Youngs Moduli (GPa) = 44.70812 24.48196 85.89566
#
# Poissons Ratio (x) = -0.07945 0.36648
# Poissons Ratio (y) = -0.14509 0.15055
# Poissons Ratio (z) = 0.19075 0.04291
#
# Static dielectric constant tensor:
#      x y z
#    x 1.717900 0.000000 0.000000 
#    y 0.000000 1.689160 0.000000 
#    z 0.000000 0.000000 1.695950 
# 
# From -- ./inp_files/16926.got.cif
#   From: 2010.05.17/outbox.ucp.g08.bks.cvg/sg62_9_cif.got.tgz:16926.got - 2010.06.11 16:29:25.
