data_PCOD9468250
_publ_section_title
;
Structure prediction by ZEFSAII (Michael W. Deem and Ramdas Pophale) SiO2 
 PCOD9468250
Probable space group: C M C M
;
_chemical_formula_sum "Si O2"
_cell_formula_units_Z 96
_cell_length_a 21.688119
_cell_length_b 31.908151
_cell_length_c 7.484345
_cell_angle_alpha 90.000000
_cell_angle_beta 90.000000
_cell_angle_gamma 90.000000
_cell_volume 5179.374625
_symmetry_space_group_name_H-M "C M C M"
_symmetry_group_IT_number 63
_symmetry_cell_setting 'orthorhombic'
loop_
_space_group_symop_operation_xyz
x,y,z
-x,-y,1/2+z
x,-y,-z
-x,y,1/2-z
-x,-y,-z
x,y,1/2-z
-x,y,z
x,-y,1/2+z
1/2+x,1/2+y,z
1/2-x,1/2-y,1/2+z
1/2+x,1/2-y,-z
1/2-x,1/2+y,1/2-z
1/2-x,1/2-y,-z
1/2+x,1/2+y,1/2-z
1/2-x,1/2+y,z
1/2+x,1/2-y,1/2+z
loop_
_atom_site_type_symbol
_atom_site_label
_atom_site_fract_x
_atom_site_fract_y
_atom_site_fract_z
Si Si1 0.065989 0.940560 0.545160
Si Si2 0.304399 0.783598 0.964429
Si Si3 0.432926 0.254748 0.031498
Si Si4 0.702223 0.545604 0.036221
Si Si5 0.905941 0.152114 0.959020
Si Si6 0.264306 0.635747 0.466073
O O1 0.065623 0.955538 0.750000
O O2 0.131659 0.953577 0.462862
O O3 0.069659 0.890008 0.547626
O O4 0.000000 0.952385 0.462646
O O5 0.309228 0.786140 0.750000
O O6 0.370957 0.768219 0.031119
O O7 0.283595 0.829403 0.031121
O O8 0.250000 0.750000 0.000000
O O9 0.430858 0.255056 0.250000
O O10 0.500000 0.237375 0.979397
O O11 0.429219 0.303314 0.974529
O O12 0.696994 0.550190 0.250000
O O13 0.737709 0.587247 0.972597
O O14 0.729600 0.500000 0.000000
O O15 0.921506 0.148675 0.750000
O O16 0.832219 0.151554 0.981227
O O17 0.261075 0.635553 0.250000
#
# Coordination Sequence:
#
# PCOD9468250 Si02
#       6
#    16  16  16  16  16  16
#     4   9  18  31  43  56  80 113 145 178 221 269
#     4  10  18  30  48  67  90 121 152 183 216 259
#     4   9  17  27  40  63  93 119 145 181 221 253
#     4   9  18  31  44  60  80 105 138 181 227 268
#     4  10  17  26  42  63  86 113 148 187 218 251
#     4   9  18  31  46  63  86 114 146 181 220 263
#
# _framework density 18.535056000000001
#
# number of rings (size 3 to 8) (size 9 to 14) (size 15 to 20)
#    0.000    2.667    1.667    2.000    0.000    4.000 
#    0.000    0.000    0.000    1.500    0.000    0.000 
#    0.000    0.667    0.000    0.500    0.000    1.000 
#
# Total GULP energy -267695.428331 kJ/mol
# GULP energy per Si atom -5576.988090 kJ/mol
# Density = 1.849287 g / cm^3
# Si number density = 18.535056 Si / 1000 Ang^3
#
#
#
# Elastic Constant Matrix: (Units=GPa)
#
#
# Indices 1 2 3 4 5 6 
#
# 1 108.2448 71.2693 -0.8481 0.0000 0.0000 0.0000
# 2 71.2693 144.7106 5.5520 0.0000 0.0000 0.0000
# 3 -0.8481 5.5520 55.4293 0.0000 0.0000 0.0000
# 4 0.0000 0.0000 0.0000 14.2192 0.0000 0.0000
# 5 0.0000 0.0000 0.0000 0.0000 4.6765 0.0000
# 6 0.0000 0.0000 0.0000 0.0000 0.0000 -7.7067
#
#
#
# Elastic Compliance Matrix: (Units=1/GPa)
#
#
# Indices 1 2 3 4 5 6 
#
# 1 0.013715 -0.006789 0.000890 0.000000 0.000000 0.000000
# 2 -0.006789 0.010297 -0.001135 0.000000 0.000000 0.000000
# 3 0.000890 -0.001135 0.018168 0.000000 0.000000 0.000000
# 4 0.000000 0.000000 0.000000 0.070328 0.000000 0.000000
# 5 0.000000 0.000000 0.000000 0.000000 0.213834 0.000000
# 6 0.000000 0.000000 0.000000 0.000000 0.000000 -0.129758
#
#
# Mechanical properties :
#
#
# Convention : Reuss Voigt Hill
#
# Bulk Modulus (GPa) = 35.57160 51.14789 43.35975
# Shear Modulus (GPa) = 22.72479 17.73190 20.22835
#
# Velocity S-wave (km/s) = 3.50529 3.09636 3.30715
# Velocity P-wave (km/s) = 5.96791 6.35912 6.16662
#
# Compressibility (1/GPa) = 0.02811231
#
# Stress axis : x y z
#
# Youngs Moduli (GPa) = 72.91262 97.11262 55.04084
#
# Poissons Ratio (x) = 0.65927 -0.04898
# Poissons Ratio (y) = 0.49498 0.06249
# Poissons Ratio (z) = -0.06488 0.11025
#
# Static dielectric constant tensor:
#      x y z
#    x 1.647040 0.000000 0.000000 
#    y 0.000000 1.670960 0.000000 
#    z 0.000000 0.000000 1.696100 
# 
# From -- ./inp_files/10716.got.cif
#   From: 2010.05.17/outbox.cif.g08.bks.cpg/sg63_6_cif.got.tgz:10716.got - 2010.06.03 15:47:04.
