data_PCOD9468347
_publ_section_title
;
Structure prediction by ZEFSAII (Michael W. Deem and Ramdas Pophale) SiO2 
 PCOD9468347
Probable space group: C M C M
;
_chemical_formula_sum "Si O2"
_cell_formula_units_Z 128
_cell_length_a 23.165550
_cell_length_b 19.964402
_cell_length_c 18.320037
_cell_angle_alpha 90.000000
_cell_angle_beta 90.000000
_cell_angle_gamma 90.000000
_cell_volume 8472.767094
_symmetry_space_group_name_H-M "C M C M"
_symmetry_group_IT_number 63
_symmetry_cell_setting 'orthorhombic'
loop_
_space_group_symop_operation_xyz
x,y,z
-x,-y,1/2+z
x,-y,-z
-x,y,1/2-z
-x,-y,-z
x,y,1/2-z
-x,y,z
x,-y,1/2+z
1/2+x,1/2+y,z
1/2-x,1/2-y,1/2+z
1/2+x,1/2-y,-z
1/2-x,1/2+y,1/2-z
1/2-x,1/2-y,-z
1/2+x,1/2+y,1/2-z
1/2-x,1/2+y,z
1/2+x,1/2-y,1/2+z
loop_
_atom_site_type_symbol
_atom_site_label
_atom_site_fract_x
_atom_site_fract_y
_atom_site_fract_z
Si Si1 0.357848 0.684541 0.904720
Si Si2 0.661681 0.331884 0.573409
Si Si3 0.858661 0.958751 0.336893
Si Si4 0.566980 0.802175 0.837962
Si Si5 0.932366 0.909082 0.836679
Si Si6 0.668029 0.105660 0.333488
Si Si7 0.753613 0.259121 0.665920
Si Si8 0.260430 0.465568 0.577917
O O1 0.372441 0.609824 0.878395
O O2 0.404047 0.737376 0.874117
O O3 0.295809 0.704831 0.870243
O O4 0.353682 0.689359 0.991759
O O5 0.605946 0.357060 0.617825
O O6 0.697577 0.276243 0.618033
O O7 0.703294 0.396973 0.567866
O O8 0.854805 0.947273 0.250000
O O9 0.906168 0.016776 0.350048
O O10 0.799096 0.988550 0.368761
O O11 0.572303 0.794757 0.750000
O O12 0.500000 0.808909 0.856487
O O13 0.605893 0.866622 0.857552
O O14 0.924980 0.896195 0.750000
O O15 0.000000 0.906413 0.854277
O O16 0.665050 0.081169 0.250000
O O17 0.708503 0.172291 0.332713
O O18 0.700049 0.053527 0.385030
O O19 0.739981 0.242473 0.750000
O O20 0.253994 0.500000 0.500000
#
# Coordination Sequence:
#
# PCOD9468347 Si02
#       8
#    16  16  16  16  16  16  16  16
#     4  11  19  29  44  69  99 121 145 183 231 281
#     4  10  19  30  47  66  92 121 154 191 234 267
#     4  10  19  30  45  64  93 127 153 181 224 276
#     4   9  18  32  48  65  87 117 152 185 218 263
#     4   9  19  34  49  64  86 123 169 204 225 259
#     4   8  15  28  47  66  85 113 149 185 221 259
#     4   9  17  30  47  66  89 120 154 187 226 274
#     4  10  17  29  44  66  92 117 147 184 223 268
#
# _framework density 15.107225
#
# number of rings (size 3 to 8) (size 9 to 14) (size 15 to 20)
#    0.000    2.500    1.250    3.000    0.000    4.000 
#    0.000    1.875    0.000    0.375    0.000    0.000 
#    0.000    0.000    0.000    0.000    0.000    0.000 
#
# Total GULP energy -356694.976284 kJ/mol
# GULP energy per Si atom -5573.359004 kJ/mol
# Density = 1.507284 g / cm^3
# Si number density = 15.107225 Si / 1000 Ang^3
#
#
#
# Elastic Constant Matrix: (Units=GPa)
#
#
# Indices 1 2 3 4 5 6 
#
# 1 120.1339 34.4131 54.4831 0.0000 0.0000 0.0000
# 2 34.4131 19.9907 16.6452 0.0000 0.0000 0.0000
# 3 54.4831 16.6452 74.9398 0.0000 0.0000 0.0000
# 4 0.0000 0.0000 0.0000 22.9210 0.0000 0.0000
# 5 0.0000 0.0000 0.0000 0.0000 13.7651 0.0000
# 6 0.0000 0.0000 0.0000 0.0000 0.0000 9.8728
#
#
#
# Elastic Compliance Matrix: (Units=1/GPa)
#
#
# Indices 1 2 3 4 5 6 
#
# 1 0.020012 -0.027403 -0.008462 0.000000 0.000000 0.000000
# 2 -0.027403 0.098898 -0.002044 0.000000 0.000000 0.000000
# 3 -0.008462 -0.002044 0.019950 0.000000 0.000000 0.000000
# 4 0.000000 0.000000 0.000000 0.043628 0.000000 0.000000
# 5 0.000000 0.000000 0.000000 0.000000 0.072647 0.000000
# 6 0.000000 0.000000 0.000000 0.000000 0.000000 0.101289
#
#
# Mechanical properties :
#
#
# Convention : Reuss Voigt Hill
#
# Bulk Modulus (GPa) = 15.86259 47.34969 31.60614
# Shear Modulus (GPa) = 11.03127 16.61331 13.82229
#
# Velocity S-wave (km/s) = 2.70515 3.31976 3.02809
# Velocity P-wave (km/s) = 4.50332 6.79006 5.76128
#
# Compressibility (1/GPa) = 0.06304139
#
# Stress axis : x y z
#
# Youngs Moduli (GPa) = 49.97097 10.11141 50.12421
#
# Poissons Ratio (x) = 0.27708 0.42417
# Poissons Ratio (y) = 1.36935 0.10246
# Poissons Ratio (z) = 0.42287 0.02067
#
# Static dielectric constant tensor:
#      x y z
#    x 1.496130 0.000000 0.000000 
#    y 0.000000 1.488380 0.000000 
#    z 0.000000 0.000000 1.496270 
# 
# From -- ./inp_files/48436.got.cif
#   From: 2010.05.17/outbox.cif.g08.bks.cpg/sg63_25_cif.got.tgz:48436.got - 2010.06.03 15:47:04.
