data_PCOD9468700
_publ_section_title
;
Structure prediction by ZEFSAII (Michael W. Deem and Ramdas Pophale) SiO2 
 PCOD9468700
Probable space group: C M C M
;
_chemical_formula_sum "Si O2"
_cell_formula_units_Z 104
_cell_length_a 29.781308
_cell_length_b 25.027106
_cell_length_c 7.612240
_cell_angle_alpha 90.000000
_cell_angle_beta 90.000000
_cell_angle_gamma 90.000000
_cell_volume 5673.706597
_symmetry_space_group_name_H-M "C M C M"
_symmetry_group_IT_number 63
_symmetry_cell_setting 'orthorhombic'
loop_
_space_group_symop_operation_xyz
x,y,z
-x,-y,1/2+z
x,-y,-z
-x,y,1/2-z
-x,-y,-z
x,y,1/2-z
-x,y,z
x,-y,1/2+z
1/2+x,1/2+y,z
1/2-x,1/2-y,1/2+z
1/2+x,1/2-y,-z
1/2-x,1/2+y,1/2-z
1/2-x,1/2-y,-z
1/2+x,1/2+y,1/2-z
1/2-x,1/2+y,z
1/2+x,1/2-y,1/2+z
loop_
_atom_site_type_symbol
_atom_site_label
_atom_site_fract_x
_atom_site_fract_y
_atom_site_fract_z
Si Si1 0.948544 0.858152 0.035056
Si Si2 0.586540 0.127103 0.459344
Si Si3 0.052142 0.737667 0.036492
Si Si4 0.773295 0.063238 0.539359
Si Si5 0.175751 0.437154 0.458504
Si Si6 0.128699 0.062881 0.961403
Si Si7 0.500000 0.937444 0.961342
O O1 0.948429 0.858659 0.250000
O O2 0.936639 0.797700 0.978262
O O3 0.912361 0.901236 0.973418
O O4 0.000000 0.869316 0.981583
O O5 0.580260 0.130364 0.250000
O O6 0.581623 0.187813 0.526242
O O7 0.633663 0.098195 0.487129
O O8 0.545069 0.091458 0.528291
O O9 0.054114 0.739187 0.250000
O O10 0.000000 0.726920 0.990974
O O11 0.773471 0.071075 0.750000
O O12 0.724616 0.081541 0.470362
O O13 0.822026 0.081791 0.472764
O O14 0.773232 0.000000 0.500000
O O15 0.168879 0.500000 0.500000
O O16 0.178439 0.433806 0.250000
O O17 0.129456 0.067729 0.750000
O O18 0.123054 0.000000 0.000000
O O19 0.500000 0.932298 0.750000
O O20 0.500000 0.000000 0.000000
#
# Coordination Sequence:
#
# PCOD9468700 Si02
#       7
#    16  16  16  16  16  16   8
#     4   8  14  24  42  68  92 113 142 179 211 244
#     4  10  18  29  45  63  83 109 141 178 218 257
#     4   8  13  25  44  63  83 109 144 182 213 243
#     4   8  15  27  42  59  82 112 144 175 207 248
#     4  10  19  30  43  61  84 111 143 179 217 255
#     4   9  16  27  44  67  92 117 143 171 209 255
#     4  10  20  30  40  58  84 110 133 164 212 262
#
# _framework density 18.330168
#
# number of rings (size 3 to 8) (size 9 to 14) (size 15 to 20)
#    0.000    3.077    0.769    1.846    0.000    2.769 
#    0.000    0.000    0.000    1.846    0.000    2.154 
#    0.000    0.000    0.000    0.000    0.000    0.769 
#
# Total GULP energy -289577.404708 kJ/mol
# GULP energy per Si atom -5568.796244 kJ/mol
# Density = 1.828845 g / cm^3
# Si number density = 18.330168 Si / 1000 Ang^3
#
#
#
# Elastic Constant Matrix: (Units=GPa)
#
#
# Indices 1 2 3 4 5 6 
#
# 1 188.2991 107.0545 4.3642 0.0000 0.0000 0.0000
# 2 107.0545 114.4284 1.7920 0.0000 0.0000 0.0000
# 3 4.3642 1.7920 36.9342 0.0000 0.0000 0.0000
# 4 0.0000 0.0000 0.0000 6.9085 0.0000 0.0000
# 5 0.0000 0.0000 0.0000 0.0000 -19.6564 0.0000
# 6 0.0000 0.0000 0.0000 0.0000 0.0000 13.8609
#
#
#
# Elastic Compliance Matrix: (Units=1/GPa)
#
#
# Indices 1 2 3 4 5 6 
#
# 1 0.011370 -0.010625 -0.000828 0.000000 0.000000 0.000000
# 2 -0.010625 0.018674 0.000349 0.000000 0.000000 0.000000
# 3 -0.000828 0.000349 0.027156 0.000000 0.000000 0.000000
# 4 0.000000 0.000000 0.000000 0.144749 0.000000 0.000000
# 5 0.000000 0.000000 0.000000 0.000000 -0.050874 0.000000
# 6 0.000000 0.000000 0.000000 0.000000 0.000000 0.072145
#
#
# Mechanical properties :
#
#
# Convention : Reuss Voigt Hill
#
# Bulk Modulus (GPa) = 28.57679 62.89810 45.73745
# Shear Modulus (GPa) = 19.44827 15.31933 17.38380
#
# Velocity S-wave (km/s) = 3.26083 2.89406 3.08290
# Velocity P-wave (km/s) = 5.45905 6.74951 6.13829
#
# Compressibility (1/GPa) = 0.03499343
#
# Stress axis : x y z
#
# Youngs Moduli (GPa) = 87.94757 53.55132 36.82422
#
# Poissons Ratio (x) = 0.56897 0.03049
# Poissons Ratio (y) = 0.93442 -0.01287
# Poissons Ratio (z) = 0.07282 -0.01871
#
# Static dielectric constant tensor:
#      x y z
#    x 1.676190 0.000000 0.000000 
#    y 0.000000 1.600790 0.000000 
#    z 0.000000 0.000000 1.687250 
# 
# From -- ./inp_files/14681.got.cif
#   From: 2010.05.17/outbox.cif.g08.bks.cpg/sg63_8_cif.got.tgz:14681.got - 2010.06.03 15:47:04.
