data_PCOD9468562
_publ_section_title
;
Structure prediction by ZEFSAII (Michael W. Deem and Ramdas Pophale) SiO2 
 PCOD9468562
Probable space group: C M C M
;
_chemical_formula_sum "Si O2"
_cell_formula_units_Z 64
_cell_length_a 18.836819
_cell_length_b 27.328553
_cell_length_c 8.647326
_cell_angle_alpha 90.000000
_cell_angle_beta 90.000000
_cell_angle_gamma 90.000000
_cell_volume 4451.496476
_symmetry_space_group_name_H-M "C M C M"
_symmetry_group_IT_number 63
_symmetry_cell_setting 'orthorhombic'
loop_
_space_group_symop_operation_xyz
x,y,z
-x,-y,1/2+z
x,-y,-z
-x,y,1/2-z
-x,-y,-z
x,y,1/2-z
-x,y,z
x,-y,1/2+z
1/2+x,1/2+y,z
1/2-x,1/2-y,1/2+z
1/2+x,1/2-y,-z
1/2-x,1/2+y,1/2-z
1/2-x,1/2-y,-z
1/2+x,1/2+y,1/2-z
1/2-x,1/2+y,z
1/2+x,1/2-y,1/2+z
loop_
_atom_site_type_symbol
_atom_site_label
_atom_site_fract_x
_atom_site_fract_y
_atom_site_fract_z
Si Si1 0.583045 0.756663 0.435216
Si Si2 0.666146 0.850850 0.563960
Si Si3 0.792127 0.797274 0.065415
Si Si4 0.418035 0.052814 0.436356
O O1 0.591593 0.758038 0.250000
O O2 0.500000 0.753368 0.472727
O O3 0.616316 0.806536 0.504324
O O4 0.628962 0.711636 0.502171
O O5 0.668747 0.848281 0.750000
O O6 0.744793 0.841825 0.496940
O O7 0.631304 0.902121 0.515579
O O8 0.791640 0.796428 0.250000
O O9 0.750000 0.750000 0.000000
O O10 0.417399 0.051070 0.250000
O O11 0.500000 0.061494 0.485637
O O12 0.396030 0.000000 0.500000
#
# Coordination Sequence:
#
# PCOD9468562 Si02
#       4
#    16  16  16  16
#     4  10  19  29  42  61  84 110 140 172 206 245
#     4  10  18  29  44  60  82 111 142 173 207 246
#     4  10  18  28  42  59  81 108 138 171 206 244
#     4   9  18  30  43  60  82 109 140 174 209 242
#
# _framework density 14.377189
#
# number of rings (size 3 to 8) (size 9 to 14) (size 15 to 20)
#    0.000    2.250    0.000    7.500    0.000    5.000 
#    0.000    2.500    0.000    0.000    0.000    0.000 
#    0.000    1.000    0.000    3.250    0.000    4.000 
#
# Total GULP energy -178360.522200 kJ/mol
# GULP energy per Si atom -5573.766319 kJ/mol
# Density = 1.434447 g / cm^3
# Si number density = 14.377189 Si / 1000 Ang^3
#
#
#
# Elastic Constant Matrix: (Units=GPa)
#
#
# Indices 1 2 3 4 5 6 
#
# 1 109.5023 64.1234 44.8413 0.0000 0.0000 0.0000
# 2 64.1234 97.9966 29.9177 0.0000 0.0000 0.0000
# 3 44.8413 29.9177 66.4903 0.0000 0.0000 0.0000
# 4 0.0000 0.0000 0.0000 20.4633 0.0000 0.0000
# 5 0.0000 0.0000 0.0000 0.0000 21.9626 0.0000
# 6 0.0000 0.0000 0.0000 0.0000 0.0000 28.7635
#
#
#
# Elastic Compliance Matrix: (Units=1/GPa)
#
#
# Indices 1 2 3 4 5 6 
#
# 1 0.017726 -0.009215 -0.007808 0.000000 0.000000 0.000000
# 2 -0.009215 0.016620 -0.001264 0.000000 0.000000 0.000000
# 3 -0.007808 -0.001264 0.020874 0.000000 0.000000 0.000000
# 4 0.000000 0.000000 0.000000 0.048868 0.000000 0.000000
# 5 0.000000 0.000000 0.000000 0.000000 0.045532 0.000000
# 6 0.000000 0.000000 0.000000 0.000000 0.000000 0.034766
#
#
# Mechanical properties :
#
#
# Convention : Reuss Voigt Hill
#
# Bulk Modulus (GPa) = 53.62901 61.30600 57.46750
# Shear Modulus (GPa) = 22.00946 23.24500 22.62723
#
# Velocity S-wave (km/s) = 3.91687 4.02530 3.97145
# Velocity P-wave (km/s) = 7.60514 8.02109 7.81588
#
# Compressibility (1/GPa) = 0.01864662
#
# Stress axis : x y z
#
# Youngs Moduli (GPa) = 56.41476 60.16845 47.90625
#
# Poissons Ratio (x) = 0.55446 0.37405
# Poissons Ratio (y) = 0.51986 0.06053
# Poissons Ratio (z) = 0.44049 0.07603
#
# Static dielectric constant tensor:
#      x y z
#    x 1.500560 0.000000 0.000000 
#    y 0.000000 1.464310 0.000000 
#    z 0.000000 0.000000 1.482810 
# 
# From -- ./inp_files/6028.got.cif
#   From: 2010.05.17/outbox.cif.g08.bks.cpg/sg63_4_cif.got.tgz:6028.got - 2010.06.03 15:47:04.
