data_PCOD9468965
_publ_section_title
;
Structure prediction by ZEFSAII (Michael W. Deem and Ramdas Pophale) SiO2 
 PCOD9468965
Probable space group: C M C M
;
_chemical_formula_sum "Si O2"
_cell_formula_units_Z 72
_cell_length_a 22.829481
_cell_length_b 20.101990
_cell_length_c 7.836171
_cell_angle_alpha 90.000000
_cell_angle_beta 90.000000
_cell_angle_gamma 90.000000
_cell_volume 3596.159913
_symmetry_space_group_name_H-M "C M C M"
_symmetry_group_IT_number 63
_symmetry_cell_setting 'orthorhombic'
loop_
_space_group_symop_operation_xyz
x,y,z
-x,-y,1/2+z
x,-y,-z
-x,y,1/2-z
-x,-y,-z
x,y,1/2-z
-x,y,z
x,-y,1/2+z
1/2+x,1/2+y,z
1/2-x,1/2-y,1/2+z
1/2+x,1/2-y,-z
1/2-x,1/2+y,1/2-z
1/2-x,1/2-y,-z
1/2+x,1/2+y,1/2-z
1/2-x,1/2+y,z
1/2+x,1/2-y,1/2+z
loop_
_atom_site_type_symbol
_atom_site_label
_atom_site_fract_x
_atom_site_fract_y
_atom_site_fract_z
Si Si1 0.000000 0.922718 0.545111
Si Si2 0.566507 0.199097 0.954014
Si Si3 0.354904 0.074927 0.453110
Si Si4 0.613388 0.660420 0.459285
Si Si5 0.722228 0.575432 0.455550
O O1 0.058491 0.885006 0.485579
O O2 0.000000 0.917366 0.750000
O O3 0.000000 0.000000 0.500000
O O4 0.562332 0.206784 0.750000
O O5 0.500000 0.197775 0.021723
O O6 0.601072 0.264344 0.016742
O O7 0.601127 0.131568 0.987606
O O8 0.352059 0.078568 0.250000
O O9 0.288515 0.085570 0.521156
O O10 0.373071 0.000000 0.500000
O O11 0.614475 0.659891 0.250000
O O12 0.674051 0.627655 0.517969
O O13 0.704394 0.500000 0.500000
O O14 0.724052 0.580063 0.250000
#
# Coordination Sequence:
#
# PCOD9468965 Si02
#       5
#     8  16  16  16  16
#     4  10  18  30  50  76 105 140 179 214 249 296
#     4  10  20  36  57  78 103 139 178 215 259 313
#     4  10  21  37  56  79 105 135 172 217 267 315
#     4   9  17  32  53  76 105 141 177 211 253 308
#     4   9  18  33  53  77 107 140 175 215 258 307
#
# _framework density 20.021356999999998
#
# number of rings (size 3 to 8) (size 9 to 14) (size 15 to 20)
#    0.000    2.444    1.111    1.333    0.000    2.667 
#    0.000    2.222    0.000    0.000    0.000    0.000 
#    0.000    0.000    0.000    0.000    0.000    0.000 
#
# Total GULP energy -200947.753107 kJ/mol
# GULP energy per Si atom -5581.882031 kJ/mol
# Density = 1.997579 g / cm^3
# Si number density = 20.021357 Si / 1000 Ang^3
#
#
#
# Elastic Constant Matrix: (Units=GPa)
#
#
# Indices 1 2 3 4 5 6 
#
# 1 113.1424 108.2669 3.8688 0.0000 0.0000 0.0000
# 2 108.2669 184.1328 -1.9658 0.0000 0.0000 0.0000
# 3 3.8688 -1.9658 21.1332 0.0000 0.0000 0.0000
# 4 0.0000 0.0000 0.0000 24.3533 0.0000 0.0000
# 5 0.0000 0.0000 0.0000 0.0000 9.8212 0.0000
# 6 0.0000 0.0000 0.0000 0.0000 0.0000 31.1299
#
#
#
# Elastic Compliance Matrix: (Units=1/GPa)
#
#
# Indices 1 2 3 4 5 6 
#
# 1 0.020709 -0.012229 -0.004929 0.000000 0.000000 0.000000
# 2 -0.012229 0.012658 0.003416 0.000000 0.000000 0.000000
# 3 -0.004929 0.003416 0.048539 0.000000 0.000000 0.000000
# 4 0.000000 0.000000 0.000000 0.041062 0.000000 0.000000
# 5 0.000000 0.000000 0.000000 0.000000 0.101820 0.000000
# 6 0.000000 0.000000 0.000000 0.000000 0.000000 0.032123
#
#
# Mechanical properties :
#
#
# Convention : Reuss Voigt Hill
#
# Bulk Modulus (GPa) = 18.37472 59.86092 39.11782
# Shear Modulus (GPa) = 16.52690 26.94345 21.73517
#
# Velocity S-wave (km/s) = 2.87620 3.67241 3.29842
# Velocity P-wave (km/s) = 4.49751 6.92427 5.83837
#
# Compressibility (1/GPa) = 0.05442260
#
# Stress axis : x y z
#
# Youngs Moduli (GPa) = 48.28741 79.00149 20.60195
#
# Poissons Ratio (x) = 0.96614 0.10154
# Poissons Ratio (y) = 0.59052 -0.07038
# Poissons Ratio (z) = 0.23800 -0.26989
#
# Static dielectric constant tensor:
#      x y z
#    x 1.716180 0.000000 0.000000 
#    y 0.000000 0.152880 0.000000 
#    z 0.000000 0.000000 1.724430 
# 
# From -- ./inp_files/7824.got.cif
#   From: 2010.05.17/outbox.cif.g08.bks.cpg/sg63_4_cif.got.tgz:7824.got - 2010.06.03 15:47:04.
