data_PCOD9468699
_publ_section_title
;
Structure prediction by ZEFSAII (Michael W. Deem and Ramdas Pophale) SiO2 
 PCOD9468699
Probable space group: C M C M
;
_chemical_formula_sum "Si O2"
_cell_formula_units_Z 80
_cell_length_a 24.366617
_cell_length_b 26.637266
_cell_length_c 9.010633
_cell_angle_alpha 90.000000
_cell_angle_beta 90.000000
_cell_angle_gamma 90.000000
_cell_volume 5848.441983
_symmetry_space_group_name_H-M "C M C M"
_symmetry_group_IT_number 63
_symmetry_cell_setting 'orthorhombic'
loop_
_space_group_symop_operation_xyz
x,y,z
-x,-y,1/2+z
x,-y,-z
-x,y,1/2-z
-x,-y,-z
x,y,1/2-z
-x,y,z
x,-y,1/2+z
1/2+x,1/2+y,z
1/2-x,1/2-y,1/2+z
1/2+x,1/2-y,-z
1/2-x,1/2+y,1/2-z
1/2-x,1/2-y,-z
1/2+x,1/2+y,1/2-z
1/2-x,1/2+y,z
1/2+x,1/2-y,1/2+z
loop_
_atom_site_type_symbol
_atom_site_label
_atom_site_fract_x
_atom_site_fract_y
_atom_site_fract_z
Si Si1 0.182873 0.858461 0.427089
Si Si2 0.619787 0.253818 0.427624
Si Si3 0.000000 0.785108 0.071071
Si Si4 0.216233 0.295728 0.427273
Si Si5 0.615395 0.554010 0.427611
Si Si6 0.000000 0.895145 0.571586
O O1 0.177849 0.866879 0.250000
O O2 0.146736 0.808497 0.461802
O O3 0.246119 0.844097 0.460766
O O4 0.158875 0.905244 0.514485
O O5 0.624379 0.247283 0.250000
O O6 0.556138 0.257020 0.470537
O O7 0.655672 0.211274 0.507553
O O8 0.000000 0.790518 0.250000
O O9 0.000000 0.840510 0.001944
O O10 0.215530 0.289780 0.250000
O O11 0.250000 0.250000 0.500000
O O12 0.624337 0.500000 0.500000
O O13 0.617563 0.550274 0.250000
O O14 0.554966 0.574873 0.470391
O O15 0.000000 0.889185 0.750000
#
# Coordination Sequence:
#
# PCOD9468699 Si02
#       6
#    16  16   8  16  16   8
#     4   9  17  30  45  60  79 105 138 174 213 254
#     4   9  17  28  43  63  84 109 140 171 209 252
#     4  10  18  29  45  62  85 116 143 175 214 251
#     4   9  17  28  43  61  82 106 134 170 210 253
#     4  11  22  33  45  60  80 107 142 183 222 257
#     4  10  21  33  43  60  80 106 146 185 219 253
#
# _framework density 13.678858
#
# number of rings (size 3 to 8) (size 9 to 14) (size 15 to 20)
#    0.000    2.400    2.000    2.700    0.000    5.600 
#    0.000    0.000    0.000    0.000    0.000    0.000 
#    0.000    0.000    0.000    0.900    0.000   11.600 
#
# Total GULP energy -222882.748722 kJ/mol
# GULP energy per Si atom -5572.068718 kJ/mol
# Density = 1.364772 g / cm^3
# Si number density = 13.678858 Si / 1000 Ang^3
#
#
#
# Elastic Constant Matrix: (Units=GPa)
#
#
# Indices 1 2 3 4 5 6 
#
# 1 119.2335 62.7754 44.4579 0.0000 0.0000 0.0000
# 2 62.7754 66.9760 37.8679 0.0000 0.0000 0.0000
# 3 44.4579 37.8679 35.3552 0.0000 0.0000 0.0000
# 4 0.0000 0.0000 0.0000 21.4419 0.0000 0.0000
# 5 0.0000 0.0000 0.0000 0.0000 21.2561 0.0000
# 6 0.0000 0.0000 0.0000 0.0000 0.0000 12.3137
#
#
#
# Elastic Compliance Matrix: (Units=1/GPa)
#
#
# Indices 1 2 3 4 5 6 
#
# 1 0.018304 -0.010503 -0.011768 0.000000 0.000000 0.000000
# 2 -0.010503 0.043881 -0.033793 0.000000 0.000000 0.000000
# 3 -0.011768 -0.033793 0.079276 0.000000 0.000000 0.000000
# 4 0.000000 0.000000 0.000000 0.046638 0.000000 0.000000
# 5 0.000000 0.000000 0.000000 0.000000 0.047045 0.000000
# 6 0.000000 0.000000 0.000000 0.000000 0.000000 0.081211
#
#
# Mechanical properties :
#
#
# Convention : Reuss Voigt Hill
#
# Bulk Modulus (GPa) = 34.08893 56.86301 45.47597
# Shear Modulus (GPa) = 11.40874 16.09990 13.75432
#
# Velocity S-wave (km/s) = 2.89111 3.43445 3.17443
# Velocity P-wave (km/s) = 6.00997 7.57546 6.83766
#
# Compressibility (1/GPa) = 0.02933504
#
# Stress axis : x y z
#
# Youngs Moduli (GPa) = 54.63177 22.78880 12.61413
#
# Poissons Ratio (x) = 0.23935 0.14844
# Poissons Ratio (y) = 0.57380 0.42627
# Poissons Ratio (z) = 0.64289 0.77010
#
# Static dielectric constant tensor:
#      x y z
#    x 1.482060 0.000000 0.000000 
#    y 0.000000 1.414500 0.000000 
#    z 0.000000 0.000000 1.452120 
# 
# From -- ./inp_files/8930.got.cif
#   From: 2010.05.17/outbox.cif.g08.bks.cpg/sg63_5_cif.got.tgz:8930.got - 2010.06.03 15:47:04.
