data_PCOD9468794
_publ_section_title
;
Structure prediction by ZEFSAII (Michael W. Deem and Ramdas Pophale) SiO2 
 PCOD9468794
Probable space group: C M C M
;
_chemical_formula_sum "Si O2"
_cell_formula_units_Z 96
_cell_length_a 19.334981
_cell_length_b 8.924904
_cell_length_c 24.211317
_cell_angle_alpha 90.000000
_cell_angle_beta 90.000000
_cell_angle_gamma 90.000000
_cell_volume 4177.973846
_symmetry_space_group_name_H-M "C M C M"
_symmetry_group_IT_number 63
_symmetry_cell_setting 'orthorhombic'
loop_
_space_group_symop_operation_xyz
x,y,z
-x,-y,1/2+z
x,-y,-z
-x,y,1/2-z
-x,-y,-z
x,y,1/2-z
-x,y,z
x,-y,1/2+z
1/2+x,1/2+y,z
1/2-x,1/2-y,1/2+z
1/2+x,1/2-y,-z
1/2-x,1/2+y,1/2-z
1/2-x,1/2-y,-z
1/2+x,1/2+y,1/2-z
1/2-x,1/2+y,z
1/2+x,1/2-y,1/2+z
loop_
_atom_site_type_symbol
_atom_site_label
_atom_site_fract_x
_atom_site_fract_y
_atom_site_fract_z
Si Si1 0.922535 0.352650 0.565750
Si Si2 0.343455 0.866441 0.405452
Si Si3 0.635332 0.570925 0.353026
Si Si4 0.404127 0.720724 0.687526
Si Si5 0.803253 0.876143 0.046983
Si Si6 0.217716 0.423197 0.690458
O O1 0.894434 0.521724 0.563026
O O2 0.927516 0.305587 0.631643
O O3 0.000000 0.332187 0.543288
O O4 0.862210 0.249775 0.539176
O O5 0.273323 0.814931 0.437584
O O6 0.311971 0.970771 0.356881
O O7 0.385102 0.727180 0.380265
O O8 0.585664 0.456168 0.321628
O O9 0.665600 0.469760 0.402246
O O10 0.701789 0.605372 0.315876
O O11 0.426833 0.763458 0.750000
O O12 0.322755 0.765448 0.687251
O O13 0.795223 0.000000 0.000000
O O14 0.202217 0.491044 0.750000
#
# Coordination Sequence:
#
# PCOD9468794 Si02
#       6
#    16  16  16  16  16  16
#     4  10  22  40  60  83 115 152 187 229 286 347
#     4  10  20  34  54  85 117 147 185 232 287 339
#     4  10  18  29  49  80 111 141 185 237 279 320
#     4   9  18  32  51  76 109 153 196 227 267 333
#     4  10  21  38  61  84 110 148 194 236 281 345
#     4   9  16  27  46  75 112 149 182 222 275 332
#
# _framework density 22.977646
#
# number of rings (size 3 to 8) (size 9 to 14) (size 15 to 20)
#    0.000    2.333    0.000    5.500    0.000    6.000 
#    0.000    3.333    0.000    3.500    0.000    0.000 
#    0.000    0.000    0.000    0.000    0.000    0.000 
#
# Total GULP energy -267866.283223 kJ/mol
# GULP energy per Si atom -5580.547567 kJ/mol
# Density = 2.292535 g / cm^3
# Si number density = 22.977646 Si / 1000 Ang^3
#
#
#
# Elastic Constant Matrix: (Units=GPa)
#
#
# Indices 1 2 3 4 5 6 
#
# 1 104.1253 39.5237 12.7528 0.0000 0.0000 0.0000
# 2 39.5237 126.3850 3.5033 0.0000 0.0000 0.0000
# 3 12.7528 3.5033 73.3908 0.0000 0.0000 0.0000
# 4 0.0000 0.0000 0.0000 28.9629 0.0000 0.0000
# 5 0.0000 0.0000 0.0000 0.0000 -0.4617 0.0000
# 6 0.0000 0.0000 0.0000 0.0000 0.0000 1.0962
#
#
#
# Elastic Compliance Matrix: (Units=1/GPa)
#
#
# Indices 1 2 3 4 5 6 
#
# 1 0.011122 -0.003429 -0.001769 0.000000 0.000000 0.000000
# 2 -0.003429 0.008980 0.000167 0.000000 0.000000 0.000000
# 3 -0.001769 0.000167 0.013925 0.000000 0.000000 0.000000
# 4 0.000000 0.000000 0.000000 0.034527 0.000000 0.000000
# 5 0.000000 0.000000 0.000000 0.000000 -2.165776 0.000000
# 6 0.000000 0.000000 0.000000 0.000000 0.000000 0.912231
#
#
# Mechanical properties :
#
#
# Convention : Reuss Voigt Hill
#
# Bulk Modulus (GPa) = 41.72662 46.16230 43.94446
# Shear Modulus (GPa) = -4.28471 22.46089 9.08809
#
# Velocity S-wave (km/s) = -1.36703 3.12991 1.99092
# Velocity P-wave (km/s) = 3.96325 5.76155 4.94484
#
# Compressibility (1/GPa) = 0.02396552
#
# Stress axis : x y z
#
# Youngs Moduli (GPa) = 89.91121 111.35770 71.81279
#
# Poissons Ratio (x) = 0.38186 0.12703
# Poissons Ratio (y) = 0.30832 -0.01201
# Poissons Ratio (z) = 0.15905 -0.01862
#
# Static dielectric constant tensor:
#      x y z
#    x 1.854250 0.000000 0.000000 
#    y 0.000000 1.874360 0.000000 
#    z 0.000000 0.000000 1.956390 
# 
# From -- ./inp_files/70291.got.cif
#   From: 2010.05.17/outbox.cif.g08.bks.cpg/sg63_36_cif.got.tgz:70291.got - 2010.06.03 15:47:04.
