data_PCOD9468630
_publ_section_title
;
Structure prediction by ZEFSAII (Michael W. Deem and Ramdas Pophale) SiO2 
 PCOD9468630
Probable space group: C M C M
;
_chemical_formula_sum "Si O2"
_cell_formula_units_Z 96
_cell_length_a 8.541755
_cell_length_b 28.441811
_cell_length_c 24.504644
_cell_angle_alpha 90.000000
_cell_angle_beta 90.000000
_cell_angle_gamma 90.000000
_cell_volume 5953.231270
_symmetry_space_group_name_H-M "C M C M"
_symmetry_group_IT_number 63
_symmetry_cell_setting 'orthorhombic'
loop_
_space_group_symop_operation_xyz
x,y,z
-x,-y,1/2+z
x,-y,-z
-x,y,1/2-z
-x,-y,-z
x,y,1/2-z
-x,y,z
x,-y,1/2+z
1/2+x,1/2+y,z
1/2-x,1/2-y,1/2+z
1/2+x,1/2-y,-z
1/2-x,1/2+y,1/2-z
1/2-x,1/2-y,-z
1/2+x,1/2+y,1/2-z
1/2-x,1/2+y,z
1/2+x,1/2-y,1/2+z
loop_
_atom_site_type_symbol
_atom_site_label
_atom_site_fract_x
_atom_site_fract_y
_atom_site_fract_z
Si Si1 0.311158 0.320096 0.187763
Si Si2 0.688011 0.929058 0.520639
Si Si3 0.188089 0.984961 0.416509
Si Si4 0.809304 0.071841 0.811661
Si Si5 0.186973 0.734370 0.585011
Si Si6 0.188815 0.321304 0.976770
O O1 0.263435 0.308668 0.250000
O O2 0.500000 0.319114 0.186029
O O3 0.261826 0.374208 0.176567
O O4 0.246992 0.285666 0.141982
O O5 0.500000 0.930628 0.516254
O O6 0.759325 0.949961 0.464913
O O7 0.738245 0.875285 0.529111
O O8 0.742076 0.964475 0.568021
O O9 0.241897 0.963333 0.359020
O O10 0.000000 0.988061 0.416890
O O11 0.758984 0.059889 0.750000
O O12 0.000000 0.071617 0.811737
O O13 0.239709 0.699967 0.535400
O O14 0.247909 0.785856 0.568838
O O15 0.000000 0.734796 0.585204
O O16 0.000000 0.319981 0.975327
#
# Coordination Sequence:
#
# PCOD9468630 Si02
#       6
#    16  16  16  16  16  16
#     4   9  17  30  48  68  92 123 153 179 216 270
#     4  10  19  31  46  64  92 124 151 182 222 270
#     4  10  18  28  46  70  93 117 150 189 225 265
#     4   8  15  28  46  68  92 119 150 183 220 263
#     4  10  19  30  47  70  93 116 147 190 231 266
#     4   9  19  33  47  65  90 122 154 183 224 276
#
# _framework density 16.125696000000001
#
# number of rings (size 3 to 8) (size 9 to 14) (size 15 to 20)
#    0.000    2.667    0.000    4.500    0.000    2.333 
#    0.000    0.833    0.000    5.000    0.000    4.667 
#    0.000    0.000    0.000    0.000    0.000    0.000 
#
# Total GULP energy -267608.107212 kJ/mol
# GULP energy per Si atom -5575.168900 kJ/mol
# Density = 1.608899 g / cm^3
# Si number density = 16.125696 Si / 1000 Ang^3
#
#
#
# Elastic Constant Matrix: (Units=GPa)
#
#
# Indices 1 2 3 4 5 6 
#
# 1 20.0774 24.0568 13.0787 0.0000 0.0000 0.0000
# 2 24.0568 150.6133 79.7713 0.0000 0.0000 0.0000
# 3 13.0787 79.7713 106.7090 0.0000 0.0000 0.0000
# 4 0.0000 0.0000 0.0000 25.7563 0.0000 0.0000
# 5 0.0000 0.0000 0.0000 0.0000 17.1013 0.0000
# 6 0.0000 0.0000 0.0000 0.0000 0.0000 21.1989
#
#
#
# Elastic Compliance Matrix: (Units=1/GPa)
#
#
# Indices 1 2 3 4 5 6 
#
# 1 0.061602 -0.009669 -0.000322 0.000000 0.000000 0.000000
# 2 -0.009669 0.012509 -0.008166 0.000000 0.000000 0.000000
# 3 -0.000322 -0.008166 0.015515 0.000000 0.000000 0.000000
# 4 0.000000 0.000000 0.000000 0.038825 0.000000 0.000000
# 5 0.000000 0.000000 0.000000 0.000000 0.058475 0.000000
# 6 0.000000 0.000000 0.000000 0.000000 0.000000 0.047172
#
#
# Mechanical properties :
#
#
# Convention : Reuss Voigt Hill
#
# Bulk Modulus (GPa) = 18.75733 56.80147 37.77940
# Shear Modulus (GPa) = 17.34996 23.51083 20.43040
#
# Velocity S-wave (km/s) = 3.28368 3.82248 3.56328
# Velocity P-wave (km/s) = 5.10235 7.40152 6.35675
#
# Compressibility (1/GPa) = 0.05331250
#
# Stress axis : x y z
#
# Youngs Moduli (GPa) = 16.23313 79.94212 64.45169
#
# Poissons Ratio (x) = 0.77294 0.02077
# Poissons Ratio (y) = 0.15695 0.52633
# Poissons Ratio (z) = 0.00523 0.65282
#
# Static dielectric constant tensor:
#      x y z
#    x 1.548290 0.000000 0.000000 
#    y 0.000000 1.529540 0.000000 
#    z 0.000000 0.000000 1.531340 
# 
# From -- ./inp_files/67507.got.cif
#   From: 2010.05.17/outbox.cif.g08.bks.cpg/sg63_34_cif.got.tgz:67507.got - 2010.06.03 15:47:04.
