data_PCOD9468834
_publ_section_title
;
Structure prediction by ZEFSAII (Michael W. Deem and Ramdas Pophale) SiO2 
 PCOD9468834
Probable space group: C M C M
;
_chemical_formula_sum "Si O2"
_cell_formula_units_Z 80
_cell_length_a 11.744180
_cell_length_b 26.524354
_cell_length_c 13.345386
_cell_angle_alpha 90.000000
_cell_angle_beta 90.000000
_cell_angle_gamma 90.000000
_cell_volume 4157.178324
_symmetry_space_group_name_H-M "C M C M"
_symmetry_group_IT_number 63
_symmetry_cell_setting 'orthorhombic'
loop_
_space_group_symop_operation_xyz
x,y,z
-x,-y,1/2+z
x,-y,-z
-x,y,1/2-z
-x,-y,-z
x,y,1/2-z
-x,y,z
x,-y,1/2+z
1/2+x,1/2+y,z
1/2-x,1/2-y,1/2+z
1/2+x,1/2-y,-z
1/2-x,1/2+y,1/2-z
1/2-x,1/2-y,-z
1/2+x,1/2+y,1/2-z
1/2-x,1/2+y,z
1/2+x,1/2-y,1/2+z
loop_
_atom_site_type_symbol
_atom_site_label
_atom_site_fract_x
_atom_site_fract_y
_atom_site_fract_z
Si Si1 0.000000 0.589726 0.637687
Si Si2 0.239368 0.709431 0.859604
Si Si3 0.135808 0.102437 0.636601
Si Si4 0.633096 0.195069 0.430590
Si Si5 0.190170 0.590447 0.017655
Si Si6 0.000000 0.468576 0.635705
O O1 0.109019 0.605819 0.575762
O O2 0.000000 0.528844 0.637076
O O3 0.000000 0.607855 0.750000
O O4 0.184771 0.706369 0.750000
O O5 0.321469 0.660513 0.870412
O O6 0.315214 0.759752 0.866865
O O7 0.155023 0.711226 0.953804
O O8 0.169113 0.084513 0.750000
O O9 0.196585 0.075143 0.542140
O O10 0.000000 0.099844 0.629547
O O11 0.500000 0.186868 0.410922
O O12 0.698436 0.141686 0.418288
O O13 0.113263 0.551136 0.079179
O O14 0.000000 0.450179 0.750000
#
# Coordination Sequence:
#
# PCOD9468834 Si02
#       6
#     8  16  16  16  16   8
#     4  10  19  33  54  77 101 126 155 205 270 321
#     4   9  19  31  44  64  95 134 167 201 244 283
#     4   9  17  30  49  74 101 132 171 208 244 290
#     4  10  18  30  45  69  95 123 165 207 244 287
#     4  10  18  32  50  75 100 127 162 207 253 301
#     4  10  21  35  52  75 103 132 163 203 258 321
#
# _framework density 19.243822000000002
#
# number of rings (size 3 to 8) (size 9 to 14) (size 15 to 20)
#    0.000    2.400    2.000    2.400    0.000    3.200 
#    0.000    0.000    0.000    3.000    0.000    2.800 
#    0.000    0.000    0.000    0.000    0.000    0.000 
#
# Total GULP energy -222920.438131 kJ/mol
# GULP energy per Si atom -5573.010953 kJ/mol
# Density = 1.920002 g / cm^3
# Si number density = 19.243822 Si / 1000 Ang^3
#
#
#
# Elastic Constant Matrix: (Units=GPa)
#
#
# Indices 1 2 3 4 5 6 
#
# 1 67.4104 13.7777 18.5420 0.0000 0.0000 0.0000
# 2 13.7777 50.8679 21.5234 0.0000 0.0000 0.0000
# 3 18.5420 21.5234 85.4388 0.0000 0.0000 0.0000
# 4 0.0000 0.0000 0.0000 26.3015 0.0000 0.0000
# 5 0.0000 0.0000 0.0000 0.0000 11.7829 0.0000
# 6 0.0000 0.0000 0.0000 0.0000 0.0000 4.3771
#
#
#
# Elastic Compliance Matrix: (Units=1/GPa)
#
#
# Indices 1 2 3 4 5 6 
#
# 1 0.016244 -0.003255 -0.002705 0.000000 0.000000 0.000000
# 2 -0.003255 0.022656 -0.005001 0.000000 0.000000 0.000000
# 3 -0.002705 -0.005001 0.013551 0.000000 0.000000 0.000000
# 4 0.000000 0.000000 0.000000 0.038021 0.000000 0.000000
# 5 0.000000 0.000000 0.000000 0.000000 0.084869 0.000000
# 6 0.000000 0.000000 0.000000 0.000000 0.000000 0.228462
#
#
# Mechanical properties :
#
#
# Convention : Reuss Voigt Hill
#
# Bulk Modulus (GPa) = 32.75599 34.60038 33.67818
# Shear Modulus (GPa) = 11.47046 18.48389 14.97718
#
# Velocity S-wave (km/s) = 2.44408 3.10257 2.79280
# Velocity P-wave (km/s) = 5.00232 5.55460 5.28568
#
# Compressibility (1/GPa) = 0.03052877
#
# Stress axis : x y z
#
# Youngs Moduli (GPa) = 61.56157 44.13745 73.79389
#
# Poissons Ratio (x) = 0.14367 0.19963
# Poissons Ratio (y) = 0.20039 0.36905
# Poissons Ratio (z) = 0.16654 0.22074
#
# Static dielectric constant tensor:
#      x y z
#    x 1.696690 0.000000 0.000000 
#    y 0.000000 1.691210 0.000000 
#    z 0.000000 0.000000 1.719220 
# 
# From -- ./inp_files/30069.got.cif
#   From: 2010.05.17/outbox.cif.g08.bks.cpg/sg63_16_cif.got.tgz:30069.got - 2010.06.03 15:47:04.
