data_PCOD9468280
_publ_section_title
;
Structure prediction by ZEFSAII (Michael W. Deem and Ramdas Pophale) SiO2 
 PCOD9468280
Probable space group: C M C M
;
_chemical_formula_sum "Si O2"
_cell_formula_units_Z 56
_cell_length_a 5.494371
_cell_length_b 24.863415
_cell_length_c 17.433410
_cell_angle_alpha 90.000000
_cell_angle_beta 90.000000
_cell_angle_gamma 90.000000
_cell_volume 2381.557679
_symmetry_space_group_name_H-M "C M C M"
_symmetry_group_IT_number 63
_symmetry_cell_setting 'orthorhombic'
loop_
_space_group_symop_operation_xyz
x,y,z
-x,-y,1/2+z
x,-y,-z
-x,y,1/2-z
-x,-y,-z
x,y,1/2-z
-x,y,z
x,-y,1/2+z
1/2+x,1/2+y,z
1/2-x,1/2-y,1/2+z
1/2+x,1/2-y,-z
1/2-x,1/2+y,1/2-z
1/2-x,1/2-y,-z
1/2+x,1/2+y,1/2-z
1/2-x,1/2+y,z
1/2+x,1/2-y,1/2+z
loop_
_atom_site_type_symbol
_atom_site_label
_atom_site_fract_x
_atom_site_fract_y
_atom_site_fract_z
Si Si1 0.000000 0.944032 0.163064
Si Si2 0.500000 0.704726 0.540726
Si Si3 0.500000 0.770364 0.250000
Si Si4 0.500000 0.662005 0.750000
Si Si5 0.500000 0.822739 0.478218
Si Si6 0.500000 0.987434 0.158101
Si Si7 0.000000 0.828128 0.862225
Si Si8 0.500000 0.113450 0.373936
O O1 0.000000 0.881131 0.180651
O O2 0.000000 0.969647 0.250000
O O3 0.748945 0.962463 0.125540
O O4 0.500000 0.769522 0.534653
O O5 0.756949 0.684296 0.570304
O O6 0.500000 0.682668 0.453268
O O7 0.751722 0.803849 0.250000
O O8 0.500000 0.728723 0.320738
O O9 0.500000 0.873405 0.534524
O O10 0.500000 0.974724 0.250000
O O11 0.500000 0.050936 0.145164
O O12 0.750766 0.859867 0.843910
#
# Coordination Sequence:
#
# PCOD9468280 Si02
#       8
#     8   8   4   4   8   8   8   8
#     4   8  17  31  46  62  75 104 142 185 219 245
#     4   8  14  27  41  55  80 113 152 181 197 226
#     4  12  22  32  45  62  87 118 150 182 214 248
#     4  10  20  36  49  58  79 110 152 198 218 238
#     4   8  14  25  42  58  78 115 148 176 202 229
#     4  10  17  27  44  64  87 113 133 164 213 268
#     4  10  21  30  40  63  93 125 150 169 202 251
#     4  10  19  29  42  65  96 121 143 165 205 263
#
# _framework density 23.514021
#
# number of rings (size 3 to 8) (size 9 to 14) (size 15 to 20)
#    0.429    2.286    0.000    2.571    2.000    0.000 
#    0.000    0.000    0.000    0.000    0.000    0.000 
#    0.000    6.857    0.000    0.000    0.000    0.000 
#
# Total GULP energy -156387.633242 kJ/mol
# GULP energy per Si atom -5585.272616 kJ/mol
# Density = 2.346050 g / cm^3
# Si number density = 23.514021 Si / 1000 Ang^3
#
#
#
# Elastic Constant Matrix: (Units=GPa)
#
#
# Indices 1 2 3 4 5 6 
#
# 1 315.9020 114.0771 19.5297 0.0000 0.0000 0.0000
# 2 114.0771 134.9926 17.1256 0.0000 0.0000 0.0000
# 3 19.5297 17.1256 44.4036 0.0000 0.0000 0.0000
# 4 0.0000 0.0000 0.0000 21.3652 0.0000 0.0000
# 5 0.0000 0.0000 0.0000 0.0000 -2.6979 0.0000
# 6 0.0000 0.0000 0.0000 0.0000 0.0000 44.4124
#
#
#
# Elastic Compliance Matrix: (Units=1/GPa)
#
#
# Indices 1 2 3 4 5 6 
#
# 1 0.004568 -0.003791 -0.000547 0.000000 0.000000 0.000000
# 2 -0.003791 0.010935 -0.002550 0.000000 0.000000 0.000000
# 3 -0.000547 -0.002550 0.023745 0.000000 0.000000 0.000000
# 4 0.000000 0.000000 0.000000 0.046805 0.000000 0.000000
# 5 0.000000 0.000000 0.000000 0.000000 -0.370657 0.000000
# 6 0.000000 0.000000 0.000000 0.000000 0.000000 0.022516
#
#
# Mechanical properties :
#
#
# Convention : Reuss Voigt Hill
#
# Bulk Modulus (GPa) = 39.25923 88.52921 63.89422
# Shear Modulus (GPa) = -20.84899 35.58698 7.36900
#
# Velocity S-wave (km/s) = -2.98092 3.89451 1.77220
# Velocity P-wave (km/s) = 2.21009 7.61277 5.60530
#
# Compressibility (1/GPa) = 0.02547171
#
# Stress axis : x y z
#
# Youngs Moduli (GPa) = 218.89413 91.44858 42.11450
#
# Poissons Ratio (x) = 0.34670 0.02304
# Poissons Ratio (y) = 0.82987 0.10739
# Poissons Ratio (z) = 0.11976 0.23319
#
# Static dielectric constant tensor:
#      x y z
#    x 1.942830 0.000000 0.000000 
#    y 0.000000 1.819120 0.000000 
#    z 0.000000 0.000000 1.906450 
# 
# From -- ./inp_files/65945.got.cif
#   From: 2010.05.17/outbox.cif.g08.bks.cpg/sg63_33_cif.got.tgz:65945.got - 2010.06.03 15:47:04.
