data_PCOD9468032
_publ_section_title
;
Structure prediction by ZEFSAII (Michael W. Deem and Ramdas Pophale) SiO2 
 PCOD9468032
Probable space group: P N M A
;
_chemical_formula_sum "Si O2"
_cell_formula_units_Z 56
_cell_length_a 21.000000
_cell_length_b 9.000000
_cell_length_c 15.000000
_cell_angle_alpha 90.000000
_cell_angle_beta 90.000000
_cell_angle_gamma 90.000000
_cell_volume 2835.000000
_symmetry_space_group_name_H-M "P N M A"
_symmetry_group_IT_number 62
_symmetry_cell_setting 'orthorhombic'
loop_
_space_group_symop_operation_xyz
x,y,z
1/2-x,-y,1/2+z
1/2+x,1/2-y,1/2-z
-x,1/2+y,-z
-x,-y,-z
1/2+x,y,1/2-z
1/2-x,1/2+y,1/2+z
x,1/2-y,z
loop_
_atom_site_type_symbol
_atom_site_label
_atom_site_fract_x
_atom_site_fract_y
_atom_site_fract_z
Si Si1 0.754912 0.073727 0.703027
Si Si2 0.520651 0.572530 0.761613
Si Si3 0.243179 0.576801 0.509591
Si Si4 0.152904 0.925554 0.665358
Si Si5 0.453308 0.926683 0.427292
Si Si6 0.864139 0.076308 0.951375
Si Si7 0.884416 0.926778 0.769473
O O1 0.758179 0.250000 0.719419
O O2 0.754533 0.051933 0.595975
O O3 0.696294 0.008671 0.760834
O O4 0.819765 0.995291 0.733818
O O5 0.523327 0.750000 0.743295
O O6 0.578797 0.534174 0.825918
O O7 0.534109 0.486118 0.670487
O O8 0.447707 0.541758 0.788287
O O9 0.263063 0.750000 0.525427
O O10 0.178359 0.555429 0.564774
O O11 0.290271 0.460723 0.555999
O O12 0.159379 0.750000 0.686053
O O13 0.456761 0.750000 0.431713
O O14 0.500000 0.000000 0.500000
O O15 0.386035 0.988501 0.461108
O O16 0.878054 0.250000 0.956905
O O17 0.895827 0.002164 0.865412
O O18 0.877571 0.750000 0.780473
#
# Coordination Sequence:
#
# PCOD9468032 Si02
#       7
#     8   8   8   8   8   8   8
#     4  11  23  39  61  91 122 158 206 254 303 358
#     4  10  22  39  60  87 119 159 205 251 304 366
#     4  10  22  40  62  88 121 159 200 253 307 359
#     4  10  21  40  64  88 119 160 202 250 309 365
#     4  12  23  35  54  82 118 157 195 241 299 363
#     4  12  23  36  58  87 119 155 197 247 301 365
#     4  11  22  38  60  85 120 160 199 247 303 361
#
# _framework density 19.753086
#
# number of rings (size 3 to 8) (size 9 to 14) (size 15 to 20)
#    0.000    1.143    2.857    4.286    0.000    4.571 
#    0.000    0.714    0.000    0.000    0.000    0.000 
#    0.000    0.000    0.000    0.000    0.000    0.000 
#
# Total GULP energy -312507.255999 kJ/mol
# GULP energy per Si atom -5580.486714 kJ/mol
# Density = 1.970813 g / cm^3
# Si number density = 19.753086 Si / 1000 Ang^3
#
#
#
# Elastic Constant Matrix: (Units=GPa)
#
#
# Indices 1 2 3 4 5 6 
#
# 1 87.1462 16.4397 0.4143 0.0000 0.0000 0.0000
# 2 16.4397 28.3607 1.9164 0.0000 0.0000 0.0000
# 3 0.4143 1.9164 28.3056 0.0000 0.0000 0.0000
# 4 0.0000 0.0000 0.0000 22.5234 0.0000 0.0000
# 5 0.0000 0.0000 0.0000 0.0000 -14.9255 0.0000
# 6 0.0000 0.0000 0.0000 0.0000 0.0000 6.5209
#
#
#
# Elastic Compliance Matrix: (Units=1/GPa)
#
#
# Indices 1 2 3 4 5 6 
#
# 1 0.012887 -0.007491 0.000319 0.000000 0.000000 0.000000
# 2 -0.007491 0.039777 -0.002583 0.000000 0.000000 0.000000
# 3 0.000319 -0.002583 0.035499 0.000000 0.000000 0.000000
# 4 0.000000 0.000000 0.000000 0.044398 0.000000 0.000000
# 5 0.000000 0.000000 0.000000 0.000000 -0.066999 0.000000
# 6 0.000000 0.000000 0.000000 0.000000 0.000000 0.153352
#
#
# Mechanical properties :
#
#
# Convention : Reuss Voigt Hill
#
# Bulk Modulus (GPa) = 14.56660 20.15036 17.35848
# Shear Modulus (GPa) = 19.13440 11.15991 15.14715
#
# Velocity S-wave (km/s) = 3.11574 2.37949 2.77216
# Velocity P-wave (km/s) = 4.50934 4.21575 4.36501
#
# Compressibility (1/GPa) = 0.06865020
#
# Stress axis : x y z
#
# Youngs Moduli (GPa) = 77.59947 25.14009 28.16987
#
# Poissons Ratio (x) = 0.18834 -0.00897
# Poissons Ratio (y) = 0.58133 0.07277
# Poissons Ratio (z) = -0.02472 0.06495
#
# Static dielectric constant tensor:
#      x y z
#    x 1.857540 0.000000 0.000000 
#    y 0.000000 1.661200 0.000000 
#    z 0.000000 0.000000 1.709380 
# 
# From -- ./inp_files/20429.got.cif
#   From: 2010.05.17/outbox.ucp.g08.bks.cvg/sg62_11_cif.got.tgz:20429.got - 2010.06.11 16:29:25.
