data_PCOD9468155
_publ_section_title
;
Structure prediction by ZEFSAII (Michael W. Deem and Ramdas Pophale) SiO2 
 PCOD9468155
Probable space group: C M C M
;
_chemical_formula_sum "Si O2"
_cell_formula_units_Z 68
_cell_length_a 19.112155
_cell_length_b 7.798437
_cell_length_c 18.315493
_cell_angle_alpha 90.000000
_cell_angle_beta 90.000000
_cell_angle_gamma 90.000000
_cell_volume 2729.831495
_symmetry_space_group_name_H-M "C M C M"
_symmetry_group_IT_number 63
_symmetry_cell_setting 'orthorhombic'
loop_
_space_group_symop_operation_xyz
x,y,z
-x,-y,1/2+z
x,-y,-z
-x,y,1/2-z
-x,-y,-z
x,y,1/2-z
-x,y,z
x,-y,1/2+z
1/2+x,1/2+y,z
1/2-x,1/2-y,1/2+z
1/2+x,1/2-y,-z
1/2-x,1/2+y,1/2-z
1/2-x,1/2-y,-z
1/2+x,1/2+y,1/2-z
1/2-x,1/2+y,z
1/2+x,1/2-y,1/2+z
loop_
_atom_site_type_symbol
_atom_site_label
_atom_site_fract_x
_atom_site_fract_y
_atom_site_fract_z
Si Si1 0.344580 0.630290 0.408774
Si Si2 0.500000 0.890819 0.596139
Si Si3 0.500000 0.720902 0.105106
Si Si4 0.500000 0.936697 0.250000
Si Si5 0.150390 0.674095 0.450954
Si Si6 0.772741 0.544151 0.663026
O O1 0.428076 0.623927 0.409622
O O2 0.323818 0.683691 0.491283
O O3 0.304575 0.471874 0.372147
O O4 0.319876 0.792636 0.358760
O O5 0.500000 0.920203 0.683652
O O6 0.570406 0.798781 0.571555
O O7 0.500000 0.090171 0.567003
O O8 0.500000 0.785661 0.187636
O O9 0.153419 0.500000 0.500000
O O10 0.190543 0.614946 0.378263
O O11 0.770792 0.527101 0.750000
#
# Coordination Sequence:
#
# PCOD9468155 Si02
#       6
#    16   8   8   4  16  16
#     4  11  23  39  59  87 116 154 192 240 285 347
#     4  10  16  27  56  84 114 140 196 244 282 320
#     4  10  19  32  62  82 113 145 202 234 285 329
#     4   8  16  24  46  84 114 132 180 242 290 308
#     4  10  18  32  54  82 115 148 188 234 286 334
#     4  11  23  35  56  83 121 150 192 235 294 339
#
# _framework density 24.909960999999999
#
# number of rings (size 3 to 8) (size 9 to 14) (size 15 to 20)
#    0.706    0.941    4.706    2.471    8.235    0.000 
#    0.000    0.000    0.000    2.824    0.000   17.294 
#    0.000    0.000    0.000    0.000    0.000    0.000 
#
# Total GULP energy -189612.256240 kJ/mol
# GULP energy per Si atom -5576.831066 kJ/mol
# Density = 2.485326 g / cm^3
# Si number density = 24.909961 Si / 1000 Ang^3
#
#
#
# Elastic Constant Matrix: (Units=GPa)
#
#
# Indices 1 2 3 4 5 6 
#
# 1 177.9416 14.5041 35.5964 0.0000 0.0000 0.0000
# 2 14.5041 116.7212 13.0063 0.0000 0.0000 0.0000
# 3 35.5964 13.0063 212.5682 0.0000 0.0000 0.0000
# 4 0.0000 0.0000 0.0000 17.3334 0.0000 0.0000
# 5 0.0000 0.0000 0.0000 0.0000 -14.7063 0.0000
# 6 0.0000 0.0000 0.0000 0.0000 0.0000 -1.1960
#
#
#
# Elastic Compliance Matrix: (Units=1/GPa)
#
#
# Indices 1 2 3 4 5 6 
#
# 1 0.005859 -0.000623 -0.000943 0.000000 0.000000 0.000000
# 2 -0.000623 0.008692 -0.000428 0.000000 0.000000 0.000000
# 3 -0.000943 -0.000428 0.004888 0.000000 0.000000 0.000000
# 4 0.000000 0.000000 0.000000 0.057692 0.000000 0.000000
# 5 0.000000 0.000000 0.000000 0.000000 -0.067998 0.000000
# 6 0.000000 0.000000 0.000000 0.000000 0.000000 -0.836135
#
#
# Mechanical properties :
#
#
# Convention : Reuss Voigt Hill
#
# Bulk Modulus (GPa) = 64.71238 70.38273 67.54755
# Shear Modulus (GPa) = -6.11350 29.89450 11.89050
#
# Velocity S-wave (km/s) = -1.56830 3.46801 2.18718
# Velocity P-wave (km/s) = 4.77027 6.65975 5.79257
#
# Compressibility (1/GPa) = 0.01545299
#
# Stress axis : x y z
#
# Youngs Moduli (GPa) = 170.67007 115.04195 204.56358
#
# Poissons Ratio (x) = 0.07167 0.19292
# Poissons Ratio (y) = 0.10633 0.08746
# Poissons Ratio (z) = 0.16095 0.04918
#
# Static dielectric constant tensor:
#      x y z
#    x 2.049760 0.000000 0.000000 
#    y 0.000000 2.123450 0.000000 
#    z 0.000000 0.000000 1.905920 
# 
# From -- ./inp_files/46682.got.cif
#   From: 2010.05.17/outbox.cif.g08.bks.cpg/sg63_24_cif.got.tgz:46682.got - 2010.06.03 15:47:04.
