data_PCOD9468402
_publ_section_title
;
Structure prediction by ZEFSAII (Michael W. Deem and Ramdas Pophale) SiO2 
 PCOD9468402
Probable space group: C M C M
;
_chemical_formula_sum "Si O2"
_cell_formula_units_Z 64
_cell_length_a 14.577920
_cell_length_b 15.869918
_cell_length_c 13.995285
_cell_angle_alpha 90.000000
_cell_angle_beta 90.000000
_cell_angle_gamma 90.000000
_cell_volume 3237.814713
_symmetry_space_group_name_H-M "C M C M"
_symmetry_group_IT_number 63
_symmetry_cell_setting 'orthorhombic'
loop_
_space_group_symop_operation_xyz
x,y,z
-x,-y,1/2+z
x,-y,-z
-x,y,1/2-z
-x,-y,-z
x,y,1/2-z
-x,y,z
x,-y,1/2+z
1/2+x,1/2+y,z
1/2-x,1/2-y,1/2+z
1/2+x,1/2-y,-z
1/2-x,1/2+y,1/2-z
1/2-x,1/2-y,-z
1/2+x,1/2+y,1/2-z
1/2-x,1/2+y,z
1/2+x,1/2-y,1/2+z
loop_
_atom_site_type_symbol
_atom_site_label
_atom_site_fract_x
_atom_site_fract_y
_atom_site_fract_z
Si Si1 0.891440 0.636316 0.645343
Si Si2 0.000000 0.098946 0.997899
Si Si3 0.000000 0.247571 0.864593
Si Si4 0.684355 0.824497 0.957681
Si Si5 0.855568 0.161703 0.353351
O O1 0.860691 0.603627 0.750000
O O2 0.839475 0.614891 0.547083
O O3 0.877291 0.737980 0.649547
O O4 0.000000 0.619424 0.636012
O O5 0.087161 0.127584 0.059054
O O6 0.000000 0.150124 0.899092
O O7 0.000000 0.000000 0.000000
O O8 0.909830 0.289489 0.912823
O O9 0.000000 0.255844 0.750000
O O10 0.749472 0.858028 0.874102
O O11 0.750000 0.750000 0.000000
O O12 0.883519 0.127589 0.250000
#
# Coordination Sequence:
#
# PCOD9468402 Si02
#       5
#    16   8   8  16  16
#     4   9  14  24  46  69  95 131 163 198 249 307
#     4  12  23  37  52  71 105 151 185 220 258 304
#     4  12  22  35  50  81 117 135 168 232 286 320
#     4  10  17  31  50  74 107 137 167 217 282 326
#     4  10  18  32  52  71  94 136 181 213 255 326
#
# _framework density 19.766418000000002
#
# number of rings (size 3 to 8) (size 9 to 14) (size 15 to 20)
#    0.000    1.750    7.500    1.125    0.000    2.000 
#    0.000    0.000    0.000    0.000    0.000    0.875 
#    0.000    0.000    0.000    0.000    0.000    0.000 
#
# Total GULP energy -178137.082607 kJ/mol
# GULP energy per Si atom -5566.783831 kJ/mol
# Density = 1.972143 g / cm^3
# Si number density = 19.766418 Si / 1000 Ang^3
#
#
#
# Elastic Constant Matrix: (Units=GPa)
#
#
# Indices 1 2 3 4 5 6 
#
# 1 119.3880 0.1711 31.3678 0.0000 0.0000 0.0000
# 2 0.1711 6.9858 -2.1076 0.0000 0.0000 0.0000
# 3 31.3678 -2.1076 119.7589 0.0000 0.0000 0.0000
# 4 0.0000 0.0000 0.0000 2.9511 0.0000 0.0000
# 5 0.0000 0.0000 0.0000 0.0000 355.1392 0.0000
# 6 0.0000 0.0000 0.0000 0.0000 0.0000 -8.5610
#
#
#
# Elastic Compliance Matrix: (Units=1/GPa)
#
#
# Indices 1 2 3 4 5 6 
#
# 1 0.009001 -0.000937 -0.002374 0.000000 0.000000 0.000000
# 2 -0.000937 0.144008 0.002780 0.000000 0.000000 0.000000
# 3 -0.002374 0.002780 0.009021 0.000000 0.000000 0.000000
# 4 0.000000 0.000000 0.000000 0.338853 0.000000 0.000000
# 5 0.000000 0.000000 0.000000 0.000000 0.002816 0.000000
# 6 0.000000 0.000000 0.000000 0.000000 0.000000 -0.116809
#
#
# Mechanical properties :
#
#
# Convention : Reuss Voigt Hill
#
# Bulk Modulus (GPa) = 6.21241 33.88836 20.05039
# Shear Modulus (GPa) = 11.32225 84.35264 47.83745
#
# Velocity S-wave (km/s) = 2.39593 6.53968 4.92483
# Velocity P-wave (km/s) = 3.28690 8.61422 6.51953
#
# Compressibility (1/GPa) = 0.16096808
#
# Stress axis : x y z
#
# Youngs Moduli (GPa) = 111.09676 6.94405 110.85414
#
# Poissons Ratio (x) = 0.00650 0.26318
# Poissons Ratio (y) = 0.10406 -0.30814
# Poissons Ratio (z) = 0.26376 -0.01930
#
# Static dielectric constant tensor:
#      x y z
#    x 1.719830 0.000000 0.000000 
#    y 0.000000 1.702880 0.000000 
#    z 0.000000 0.000000 1.785420 
# 
# From -- ./inp_files/31365.got.cif
#   From: 2010.05.17/outbox.cif.g08.bks.cpg/sg63_16_cif.got.tgz:31365.got - 2010.06.03 15:47:04.
