data_PCOD9468234
_publ_section_title
;
Structure prediction by ZEFSAII (Michael W. Deem and Ramdas Pophale) SiO2 
 PCOD9468234
Probable space group: C M C M
;
_chemical_formula_sum "Si O2"
_cell_formula_units_Z 80
_cell_length_a 14.952445
_cell_length_b 40.927879
_cell_length_c 7.428132
_cell_angle_alpha 90.000000
_cell_angle_beta 90.000000
_cell_angle_gamma 90.000000
_cell_volume 4545.807754
_symmetry_space_group_name_H-M "C M C M"
_symmetry_group_IT_number 63
_symmetry_cell_setting 'orthorhombic'
loop_
_space_group_symop_operation_xyz
x,y,z
-x,-y,1/2+z
x,-y,-z
-x,y,1/2-z
-x,-y,-z
x,y,1/2-z
-x,y,z
x,-y,1/2+z
1/2+x,1/2+y,z
1/2-x,1/2-y,1/2+z
1/2+x,1/2-y,-z
1/2-x,1/2+y,1/2-z
1/2-x,1/2-y,-z
1/2+x,1/2+y,1/2-z
1/2-x,1/2+y,z
1/2+x,1/2-y,1/2+z
loop_
_atom_site_type_symbol
_atom_site_label
_atom_site_fract_x
_atom_site_fract_y
_atom_site_fract_z
Si Si1 0.727907 0.335164 0.457635
Si Si2 0.102148 0.700567 0.970091
Si Si3 0.897929 0.964866 0.035353
Si Si4 0.396862 0.274804 0.532635
Si Si5 0.895872 0.106933 0.970093
O O1 0.744725 0.344231 0.250000
O O2 0.823513 0.324697 0.535740
O O3 0.668064 0.302475 0.461458
O O4 0.668862 0.364467 0.536251
O O5 0.103680 0.700568 0.750000
O O6 0.125434 0.737795 0.024486
O O7 0.000000 0.693869 0.024028
O O8 0.903168 0.962561 0.250000
O O9 0.863784 0.929441 0.974742
O O10 0.000000 0.966819 0.963705
O O11 0.853532 0.000000 0.000000
O O12 0.392710 0.275770 0.750000
O O13 0.500000 0.281272 0.480719
O O14 0.896948 0.108300 0.750000
O O15 0.000000 0.111265 0.024653
#
# Coordination Sequence:
#
# PCOD9468234 Si02
#       5
#    16  16  16  16  16
#     4  10  17  25  41  59  73  95 127 158 185 219
#     4   8  15  27  40  54  73  97 125 157 193 226
#     4   8  13  22  35  49  68  94 118 139 166 203
#     4   9  17  28  39  52  75 103 124 149 190 229
#     4   8  14  23  34  52  77  97 114 144 183 213
#
# _framework density 17.598633
#
# number of rings (size 3 to 8) (size 9 to 14) (size 15 to 20)
#    0.000    3.400    0.000    3.600    0.000    1.200 
#    0.000    1.000    0.000    5.400    0.000    0.000 
#    0.000    0.800    0.000    0.600    0.000    1.200 
#
# Total GULP energy -222806.101845 kJ/mol
# GULP energy per Si atom -5570.152546 kJ/mol
# Density = 1.755858 g / cm^3
# Si number density = 17.598633 Si / 1000 Ang^3
#
#
#
# Elastic Constant Matrix: (Units=GPa)
#
#
# Indices 1 2 3 4 5 6 
#
# 1 77.0380 89.4150 0.1357 0.0000 0.0000 0.0000
# 2 89.4150 153.8540 3.3977 0.0000 0.0000 0.0000
# 3 0.1357 3.3977 53.6277 0.0000 0.0000 0.0000
# 4 0.0000 0.0000 0.0000 10.4766 0.0000 0.0000
# 5 0.0000 0.0000 0.0000 0.0000 0.3345 0.0000
# 6 0.0000 0.0000 0.0000 0.0000 0.0000 14.7984
#
#
#
# Elastic Compliance Matrix: (Units=1/GPa)
#
#
# Indices 1 2 3 4 5 6 
#
# 1 0.039984 -0.023268 0.001373 0.000000 0.000000 0.000000
# 2 -0.023268 0.020049 -0.001211 0.000000 0.000000 0.000000
# 3 0.001373 -0.001211 0.018720 0.000000 0.000000 0.000000
# 4 0.000000 0.000000 0.000000 0.095451 0.000000 0.000000
# 5 0.000000 0.000000 0.000000 0.000000 2.989641 0.000000
# 6 0.000000 0.000000 0.000000 0.000000 0.000000 0.067575
#
#
# Mechanical properties :
#
#
# Convention : Reuss Voigt Hill
#
# Bulk Modulus (GPa) = 30.73037 52.26853 41.49945
# Shear Modulus (GPa) = 1.52046 17.89332 9.70689
#
# Velocity S-wave (km/s) = 0.93051 3.19210 2.35110
# Velocity P-wave (km/s) = 4.31905 6.58414 5.56799
#
# Compressibility (1/GPa) = 0.03254110
#
# Stress axis : x y z
#
# Youngs Moduli (GPa) = 25.00973 49.87773 53.41781
#
# Poissons Ratio (x) = 1.16055 -0.07334
# Poissons Ratio (y) = 0.58193 0.06471
# Poissons Ratio (z) = -0.03434 0.06042
#
# Static dielectric constant tensor:
#      x y z
#    x 1.587080 0.000000 0.000000 
#    y 0.000000 1.634340 0.000000 
#    z 0.000000 0.000000 1.674050 
# 
# From -- ./inp_files/19859.got.cif
#   From: 2010.05.17/outbox.cif.g08.bks.cpg/sg63_10_cif.got.tgz:19859.got - 2010.06.03 15:47:04.
