data_PCOD9468743
_publ_section_title
;
Structure prediction by ZEFSAII (Michael W. Deem and Ramdas Pophale) SiO2 
 PCOD9468743
Probable space group: C M C M
;
_chemical_formula_sum "Si O2"
_cell_formula_units_Z 80
_cell_length_a 7.477172
_cell_length_b 26.628755
_cell_length_c 20.769670
_cell_angle_alpha 90.000000
_cell_angle_beta 90.000000
_cell_angle_gamma 90.000000
_cell_volume 4135.402912
_symmetry_space_group_name_H-M "C M C M"
_symmetry_group_IT_number 63
_symmetry_cell_setting 'orthorhombic'
loop_
_space_group_symop_operation_xyz
x,y,z
-x,-y,1/2+z
x,-y,-z
-x,y,1/2-z
-x,-y,-z
x,y,1/2-z
-x,y,z
x,-y,1/2+z
1/2+x,1/2+y,z
1/2-x,1/2-y,1/2+z
1/2+x,1/2-y,-z
1/2-x,1/2+y,1/2-z
1/2-x,1/2-y,-z
1/2+x,1/2+y,1/2-z
1/2-x,1/2+y,z
1/2+x,1/2-y,1/2+z
loop_
_atom_site_type_symbol
_atom_site_label
_atom_site_fract_x
_atom_site_fract_y
_atom_site_fract_z
Si Si1 0.787102 0.806837 0.822004
Si Si2 0.208674 0.488319 0.423106
Si Si3 0.280619 0.118814 0.952604
Si Si4 0.284546 0.904174 0.901410
Si Si5 0.714329 0.770631 0.428542
O O1 0.714565 0.801040 0.750000
O O2 0.761357 0.862878 0.848977
O O3 0.714775 0.767412 0.874565
O O4 0.000000 0.798640 0.818790
O O5 0.213916 0.500000 0.500000
O O6 0.282209 0.432031 0.417258
O O7 0.283883 0.538905 0.391294
O O8 0.000000 0.485244 0.404322
O O9 0.500000 0.117896 0.952172
O O10 0.220936 0.171960 0.924653
O O11 0.225958 0.114801 0.027749
O O12 0.500000 0.907458 0.904503
O O13 0.500000 0.772443 0.421761
O O14 0.750000 0.750000 0.500000
#
# Coordination Sequence:
#
# PCOD9468743 Si02
#       5
#    16  16  16  16  16
#     4  10  21  33  43  61  93 128 153 179 225 279
#     4   7  11  20  38  65  91 110 131 169 221 267
#     4   8  13  23  42  68  91 112 139 180 231 267
#     4   9  15  26  46  68  88 112 147 186 222 264
#     4  10  18  29  47  67  89 118 154 191 226 268
#
# _framework density 19.345151000000001
#
# number of rings (size 3 to 8) (size 9 to 14) (size 15 to 20)
#    0.000    3.200    2.000    2.400    0.000    0.400 
#    0.000    0.000    0.000    7.800    0.000    5.600 
#    0.000    0.000    0.000    0.000    0.000    0.000 
#
# Total GULP energy -222815.530262 kJ/mol
# GULP energy per Si atom -5570.388257 kJ/mol
# Density = 1.930112 g / cm^3
# Si number density = 19.345151 Si / 1000 Ang^3
#
#
#
# Elastic Constant Matrix: (Units=GPa)
#
#
# Indices 1 2 3 4 5 6 
#
# 1 55.3259 6.4848 4.3304 0.0000 0.0000 0.0000
# 2 6.4848 217.7930 87.0646 0.0000 0.0000 0.0000
# 3 4.3304 87.0646 106.8175 0.0000 0.0000 0.0000
# 4 0.0000 0.0000 0.0000 15.4181 0.0000 0.0000
# 5 0.0000 0.0000 0.0000 0.0000 10.1065 0.0000
# 6 0.0000 0.0000 0.0000 0.0000 0.0000 11.8033
#
#
#
# Elastic Compliance Matrix: (Units=1/GPa)
#
#
# Indices 1 2 3 4 5 6 
#
# 1 0.018152 -0.000365 -0.000438 0.000000 0.000000 0.000000
# 2 -0.000365 0.006818 -0.005542 0.000000 0.000000 0.000000
# 3 -0.000438 -0.005542 0.013897 0.000000 0.000000 0.000000
# 4 0.000000 0.000000 0.000000 0.064859 0.000000 0.000000
# 5 0.000000 0.000000 0.000000 0.000000 0.098946 0.000000
# 6 0.000000 0.000000 0.000000 0.000000 0.000000 0.084722
#
#
# Mechanical properties :
#
#
# Convention : Reuss Voigt Hill
#
# Bulk Modulus (GPa) = 38.20415 63.96623 51.08519
# Shear Modulus (GPa) = 16.19116 26.26936 21.23026
#
# Velocity S-wave (km/s) = 2.89617 3.68901 3.31637
# Velocity P-wave (km/s) = 5.56555 7.16119 6.41319
#
# Compressibility (1/GPa) = 0.02617517
#
# Stress axis : x y z
#
# Youngs Moduli (GPa) = 55.09092 146.67023 71.95793
#
# Poissons Ratio (x) = 0.05358 0.03152
# Poissons Ratio (y) = 0.02013 0.39882
# Poissons Ratio (z) = 0.02414 0.81291
#
# Static dielectric constant tensor:
#      x y z
#    x 1.757200 0.000000 0.000000 
#    y 0.000000 1.731850 0.000000 
#    z 0.000000 0.000000 1.636270 
# 
# From -- ./inp_files/29740.got.cif
#   From: 2010.05.17/outbox.cif.g08.bks.cpg/sg63_15_cif.got.tgz:29740.got - 2010.06.03 15:47:04.
