data_PCOD9468437
_publ_section_title
;
Structure prediction by ZEFSAII (Michael W. Deem and Ramdas Pophale) SiO2 
 PCOD9468437
Probable space group: C M C M
;
_chemical_formula_sum "Si O2"
_cell_formula_units_Z 116
_cell_length_a 12.128258
_cell_length_b 14.648030
_cell_length_c 29.598169
_cell_angle_alpha 90.000000
_cell_angle_beta 90.000000
_cell_angle_gamma 90.000000
_cell_volume 5258.265290
_symmetry_space_group_name_H-M "C M C M"
_symmetry_group_IT_number 63
_symmetry_cell_setting 'orthorhombic'
loop_
_space_group_symop_operation_xyz
x,y,z
-x,-y,1/2+z
x,-y,-z
-x,y,1/2-z
-x,-y,-z
x,y,1/2-z
-x,y,z
x,-y,1/2+z
1/2+x,1/2+y,z
1/2-x,1/2-y,1/2+z
1/2+x,1/2-y,-z
1/2-x,1/2+y,1/2-z
1/2-x,1/2-y,-z
1/2+x,1/2+y,1/2-z
1/2-x,1/2+y,z
1/2+x,1/2-y,1/2+z
loop_
_atom_site_type_symbol
_atom_site_label
_atom_site_fract_x
_atom_site_fract_y
_atom_site_fract_z
Si Si1 0.156044 0.451479 0.045294
Si Si2 0.131130 0.243036 0.030127
Si Si3 0.341272 0.502735 0.322602
Si Si4 0.000000 0.925991 0.250000
Si Si5 0.877765 0.084686 0.581941
Si Si6 0.121074 0.543929 0.358558
Si Si7 0.736132 0.230061 0.114609
Si Si8 0.626774 0.717207 0.199184
O O1 0.118396 0.348199 0.043274
O O2 0.288813 0.451233 0.046927
O O3 0.122026 0.494679 0.092767
O O4 0.119019 0.500000 0.000000
O O5 0.177903 0.196425 0.075889
O O6 0.000000 0.215283 0.017998
O O7 0.250000 0.250000 0.000000
O O8 0.404242 0.436216 0.289290
O O9 0.374676 0.478416 0.373679
O O10 0.209427 0.499692 0.325066
O O11 0.371265 0.606726 0.308714
O O12 0.835352 0.185485 0.596461
O O13 0.000000 0.088740 0.564090
O O14 0.160775 0.646243 0.370046
O O15 0.000000 0.543346 0.339181
O O16 0.803464 0.259815 0.158854
O O17 0.668318 0.734244 0.250000
O O18 0.500000 0.746366 0.196410
#
# Coordination Sequence:
#
# PCOD9468437 Si02
#       8
#    16  16  16   4  16  16  16  16
#     4  10  22  38  60  88 112 154 205 245 289 351
#     4  11  24  41  61  90 122 161 203 249 304 362
#     4  10  19  33  60  87 108 150 198 243 290 343
#     4  12  16  36  62  88 110 148 204 248 292 352
#     4  10  20  37  55  84 119 152 189 243 300 354
#     4  10  21  38  59  86 120 157 198 243 296 356
#     4  10  22  36  57  85 121 158 191 240 301 358
#     4  10  17  33  57  82 107 143 192 241 283 338
#
# _framework density 22.060507000000001
#
# number of rings (size 3 to 8) (size 9 to 14) (size 15 to 20)
#    0.000    1.793    2.069    2.069    0.000    5.241 
#    1.241    5.172    0.000    0.828    0.000    0.000 
#    0.000    0.000    0.000    0.000    0.000    0.000 
#
# Total GULP energy -322875.276118 kJ/mol
# GULP energy per Si atom -5566.815105 kJ/mol
# Density = 2.201030 g / cm^3
# Si number density = 22.060507 Si / 1000 Ang^3
#
#
#
# Elastic Constant Matrix: (Units=GPa)
#
#
# Indices 1 2 3 4 5 6 
#
# 1 219.0343 7.6425 55.8110 0.0000 0.0000 0.0000
# 2 7.6425 21.3964 -3.0907 0.0000 0.0000 0.0000
# 3 55.8110 -3.0907 90.4851 0.0000 0.0000 0.0000
# 4 0.0000 0.0000 0.0000 15.8406 0.0000 0.0000
# 5 0.0000 0.0000 0.0000 0.0000 -47.7784 0.0000
# 6 0.0000 0.0000 0.0000 0.0000 0.0000 43.3009
#
#
#
# Elastic Compliance Matrix: (Units=1/GPa)
#
#
# Indices 1 2 3 4 5 6 
#
# 1 0.005545 -0.002487 -0.003505 0.000000 0.000000 0.000000
# 2 -0.002487 0.048084 0.003176 0.000000 0.000000 0.000000
# 3 -0.003505 0.003176 0.013322 0.000000 0.000000 0.000000
# 4 0.000000 0.000000 0.000000 0.063129 0.000000 0.000000
# 5 0.000000 0.000000 0.000000 0.000000 -0.020930 0.000000
# 6 0.000000 0.000000 0.000000 0.000000 0.000000 0.023094
#
#
# Mechanical properties :
#
#
# Convention : Reuss Voigt Hill
#
# Bulk Modulus (GPa) = 16.30800 50.18238 33.24519
# Shear Modulus (GPa) = 31.58226 20.30949 25.94587
#
# Velocity S-wave (km/s) = 3.78778 3.03747 3.43319
# Velocity P-wave (km/s) = 5.15152 5.92441 5.55143
#
# Compressibility (1/GPa) = 0.06131960
#
# Stress axis : x y z
#
# Youngs Moduli (GPa) = 180.32746 20.79692 75.06290
#
# Poissons Ratio (x) = 0.05172 0.26312
# Poissons Ratio (y) = 0.44850 -0.23844
# Poissons Ratio (z) = 0.63212 -0.06606
#
# Static dielectric constant tensor:
#      x y z
#    x 1.873840 0.000000 0.000000 
#    y 0.000000 1.889560 0.000000 
#    z 0.000000 0.000000 1.764410 
# 
# From -- ./inp_files/68516.got.cif
#   From: 2010.05.17/outbox.cif.g08.bks.cpg/sg63_35_cif.got.tgz:68516.got - 2010.06.03 15:47:04.
