data_PCOD9468546
_publ_section_title
;
Structure prediction by ZEFSAII (Michael W. Deem and Ramdas Pophale) SiO2 
 PCOD9468546
Probable space group: C M C M
;
_chemical_formula_sum "Si O2"
_cell_formula_units_Z 72
_cell_length_a 14.458415
_cell_length_b 15.018989
_cell_length_c 14.758562
_cell_angle_alpha 90.000000
_cell_angle_beta 90.000000
_cell_angle_gamma 90.000000
_cell_volume 3204.833189
_symmetry_space_group_name_H-M "C M C M"
_symmetry_group_IT_number 63
_symmetry_cell_setting 'orthorhombic'
loop_
_space_group_symop_operation_xyz
x,y,z
-x,-y,1/2+z
x,-y,-z
-x,y,1/2-z
-x,-y,-z
x,y,1/2-z
-x,y,z
x,-y,1/2+z
1/2+x,1/2+y,z
1/2-x,1/2-y,1/2+z
1/2+x,1/2-y,-z
1/2-x,1/2+y,1/2-z
1/2-x,1/2-y,-z
1/2+x,1/2+y,1/2-z
1/2-x,1/2+y,z
1/2+x,1/2-y,1/2+z
loop_
_atom_site_type_symbol
_atom_site_label
_atom_site_fract_x
_atom_site_fract_y
_atom_site_fract_z
Si Si1 0.500000 0.405938 0.057260
Si Si2 0.696596 0.999588 0.391096
Si Si3 0.000000 0.437544 0.146613
Si Si4 0.202035 0.173989 0.117221
Si Si5 0.500000 0.264087 0.604629
Si Si6 0.688438 0.660865 0.602750
O O1 0.500000 0.322968 0.987075
O O2 0.500000 0.500000 0.000000
O O3 0.408432 0.389247 0.115737
O O4 0.589013 0.998636 0.369782
O O5 0.733618 0.904532 0.360898
O O6 0.705615 0.000000 0.500000
O O7 0.761552 0.077595 0.354655
O O8 0.000000 0.406015 0.250000
O O9 0.000000 0.343385 0.091522
O O10 0.283948 0.243113 0.139448
O O11 0.099593 0.206420 0.146688
O O12 0.196467 0.169261 0.006987
#
# Coordination Sequence:
#
# PCOD9468546 Si02
#       6
#     8  16   8  16   8  16
#     4  10  18  27  49  85 126 150 174 239 297 344
#     4  10  20  35  58  84 113 150 193 243 298 346
#     4  12  25  40  55  80 118 157 199 248 293 350
#     4   9  17  29  53  81 112 144 182 231 283 346
#     4  10  18  35  56  80 116 152 188 230 289 354
#     4   9  16  28  47  82 117 142 177 230 290 343
#
# _framework density 22.466066999999999
#
# number of rings (size 3 to 8) (size 9 to 14) (size 15 to 20)
#    0.000    2.222    2.222    3.667    3.111    0.889 
#    0.000    1.111    0.000    0.000    0.000    0.778 
#    0.000    0.000    0.000    0.000    0.000    0.000 
#
# Total GULP energy -200595.786805 kJ/mol
# GULP energy per Si atom -5572.105189 kJ/mol
# Density = 2.241493 g / cm^3
# Si number density = 22.466067 Si / 1000 Ang^3
#
#
#
# Elastic Constant Matrix: (Units=GPa)
#
#
# Indices 1 2 3 4 5 6 
#
# 1 167.2604 32.3283 -10.2721 0.0000 0.0000 0.0000
# 2 32.3283 96.5580 -1.0618 0.0000 0.0000 0.0000
# 3 -10.2721 -1.0618 60.0713 0.0000 0.0000 0.0000
# 4 0.0000 0.0000 0.0000 -15.9240 0.0000 0.0000
# 5 0.0000 0.0000 0.0000 0.0000 86.2409 0.0000
# 6 0.0000 0.0000 0.0000 0.0000 0.0000 38.5377
#
#
#
# Elastic Compliance Matrix: (Units=1/GPa)
#
#
# Indices 1 2 3 4 5 6 
#
# 1 0.006460 -0.002151 0.001067 0.000000 0.000000 0.000000
# 2 -0.002151 0.011075 -0.000172 0.000000 0.000000 0.000000
# 3 0.001067 -0.000172 0.016826 0.000000 0.000000 0.000000
# 4 0.000000 0.000000 0.000000 -0.062798 0.000000 0.000000
# 5 0.000000 0.000000 0.000000 0.000000 0.011595 0.000000
# 6 0.000000 0.000000 0.000000 0.000000 0.000000 0.025949
#
#
# Mechanical properties :
#
#
# Convention : Reuss Voigt Hill
#
# Bulk Modulus (GPa) = 31.39927 40.65315 36.02621
# Shear Modulus (GPa) = 224.86410 41.96396 133.41403
#
# Velocity S-wave (km/s) = 10.01538 4.32659 7.71451
# Velocity P-wave (km/s) = 12.15526 6.56459 9.76842
#
# Compressibility (1/GPa) = 0.03184787
#
# Stress axis : x y z
#
# Youngs Moduli (GPa) = 154.79933 90.29522 59.43096
#
# Poissons Ratio (x) = 0.19424 -0.06339
# Poissons Ratio (y) = 0.33299 0.01023
# Poissons Ratio (z) = -0.16511 0.01554
#
# Static dielectric constant tensor:
#      x y z
#    x 1.888840 0.000000 0.000000 
#    y 0.000000 1.793880 0.000000 
#    z 0.000000 0.000000 1.909080 
# 
# From -- ./inp_files/43817.got.cif
#   From: 2010.05.17/outbox.cif.g08.bks.cpg/sg63_22_cif.got.tgz:43817.got - 2010.06.03 15:47:04.
