data_PCOD9468292
_publ_section_title
;
Structure prediction by ZEFSAII (Michael W. Deem and Ramdas Pophale) SiO2 
 PCOD9468292
Probable space group: C M C M
;
_chemical_formula_sum "Si O2"
_cell_formula_units_Z 116
_cell_length_a 27.435412
_cell_length_b 28.101913
_cell_length_c 7.491393
_cell_angle_alpha 90.000000
_cell_angle_beta 90.000000
_cell_angle_gamma 90.000000
_cell_volume 5775.770819
_symmetry_space_group_name_H-M "C M C M"
_symmetry_group_IT_number 63
_symmetry_cell_setting 'orthorhombic'
loop_
_space_group_symop_operation_xyz
x,y,z
-x,-y,1/2+z
x,-y,-z
-x,y,1/2-z
-x,-y,-z
x,y,1/2-z
-x,y,z
x,-y,1/2+z
1/2+x,1/2+y,z
1/2-x,1/2-y,1/2+z
1/2+x,1/2-y,-z
1/2-x,1/2+y,1/2-z
1/2-x,1/2-y,-z
1/2+x,1/2+y,1/2-z
1/2-x,1/2+y,z
1/2+x,1/2-y,1/2+z
loop_
_atom_site_type_symbol
_atom_site_label
_atom_site_fract_x
_atom_site_fract_y
_atom_site_fract_z
Si Si1 0.224281 0.182556 0.541569
Si Si2 0.085169 0.930970 0.539373
Si Si3 0.055812 0.823003 0.034324
Si Si4 0.297313 0.052320 0.463752
Si Si5 0.500000 0.500000 0.000000
Si Si6 0.831097 0.651650 0.047067
Si Si7 0.639013 0.250017 0.469430
Si Si8 0.309174 0.578591 0.034043
O O1 0.234580 0.190618 0.750000
O O2 0.275589 0.171886 0.449324
O O3 0.189423 0.224335 0.473871
O O4 0.194150 0.133660 0.521866
O O5 0.081862 0.942241 0.750000
O O6 0.074802 0.874898 0.520677
O O7 0.139447 0.941699 0.471020
O O8 0.042534 0.960967 0.454394
O O9 0.055740 0.822050 0.250000
O O10 0.093520 0.782293 0.974735
O O11 0.000000 0.816403 0.973657
O O12 0.294969 0.058290 0.250000
O O13 0.325712 0.098883 0.534016
O O14 0.241200 0.055195 0.530083
O O15 0.317459 0.000000 0.500000
O O16 0.848558 0.645316 0.250000
O O17 0.861388 0.695410 0.968082
O O18 0.640039 0.249826 0.250000
O O19 0.309941 0.576958 0.250000
#
# Coordination Sequence:
#
# PCOD9468292 Si02
#       8
#    16  16  16  16   4  16  16  16
#     4  10  17  27  46  72  97 121 153 192 235 282
#     4  11  23  39  54  68  90 123 165 211 256 301
#     4  10  20  35  55  75  96 122 156 200 251 300
#     4   9  18  31  47  65  88 121 155 189 230 272
#     4  12  26  36  52  70  90 120 168 222 260 284
#     4   9  18  32  47  65  97 130 158 188 228 287
#     4   9  17  30  48  71  96 125 155 189 238 291
#     4   9  19  34  49  66  89 122 160 195 241 294
#
# _framework density 20.083898000000001
#
# number of rings (size 3 to 8) (size 9 to 14) (size 15 to 20)
#    0.000    2.345    2.069    1.862    0.966    3.310 
#    0.000    1.379    0.000    0.000    0.000    0.000 
#    0.000    0.552    0.000    0.414    0.000    0.828 
#
# Total GULP energy -323284.442538 kJ/mol
# GULP energy per Si atom -5573.869699 kJ/mol
# Density = 2.003819 g / cm^3
# Si number density = 20.083898 Si / 1000 Ang^3
#
#
#
# Elastic Constant Matrix: (Units=GPa)
#
#
# Indices 1 2 3 4 5 6 
#
# 1 45.9081 41.7835 1.4855 0.0000 0.0000 0.0000
# 2 41.7835 173.1720 -4.1291 0.0000 0.0000 0.0000
# 3 1.4855 -4.1291 62.3281 0.0000 0.0000 0.0000
# 4 0.0000 0.0000 0.0000 15.8361 0.0000 0.0000
# 5 0.0000 0.0000 0.0000 0.0000 1.1501 0.0000
# 6 0.0000 0.0000 0.0000 0.0000 0.0000 37.3759
#
#
#
# Elastic Compliance Matrix: (Units=1/GPa)
#
#
# Indices 1 2 3 4 5 6 
#
# 1 0.027990 -0.006780 -0.001116 0.000000 0.000000 0.000000
# 2 -0.006780 0.007426 0.000654 0.000000 0.000000 0.000000
# 3 -0.001116 0.000654 0.016114 0.000000 0.000000 0.000000
# 4 0.000000 0.000000 0.000000 0.063147 0.000000 0.000000
# 5 0.000000 0.000000 0.000000 0.000000 0.869483 0.000000
# 6 0.000000 0.000000 0.000000 0.000000 0.000000 0.026755
#
#
# Mechanical properties :
#
#
# Convention : Reuss Voigt Hill
#
# Bulk Modulus (GPa) = 26.99473 39.96534 33.48004
# Shear Modulus (GPa) = 4.81812 27.02365 15.92089
#
# Velocity S-wave (km/s) = 1.55055 3.67214 2.81858
# Velocity P-wave (km/s) = 4.08360 6.15807 5.22483
#
# Compressibility (1/GPa) = 0.03704427
#
# Stress axis : x y z
#
# Youngs Moduli (GPa) = 35.72753 134.66024 62.05775
#
# Poissons Ratio (x) = 0.91300 0.06927
# Poissons Ratio (y) = 0.24223 -0.04056
# Poissons Ratio (z) = 0.03988 -0.08801
#
# Static dielectric constant tensor:
#      x y z
#    x 1.691480 0.000000 0.000000 
#    y 0.000000 1.748170 0.000000 
#    z 0.000000 0.000000 1.610290 
# 
# From -- ./inp_files/13137.got.cif
#   From: 2010.05.17/outbox.cif.g08.bks.cpg/sg63_7_cif.got.tgz:13137.got - 2010.06.03 15:47:04.
