data_PCOD9468612
_publ_section_title
;
Structure prediction by ZEFSAII (Michael W. Deem and Ramdas Pophale) SiO2 
 PCOD9468612
Probable space group: C M C M
;
_chemical_formula_sum "Si O2"
_cell_formula_units_Z 80
_cell_length_a 23.398997
_cell_length_b 11.822606
_cell_length_c 15.399915
_cell_angle_alpha 90.000000
_cell_angle_beta 90.000000
_cell_angle_gamma 90.000000
_cell_volume 4260.188170
_symmetry_space_group_name_H-M "C M C M"
_symmetry_group_IT_number 63
_symmetry_cell_setting 'orthorhombic'
loop_
_space_group_symop_operation_xyz
x,y,z
-x,-y,1/2+z
x,-y,-z
-x,y,1/2-z
-x,-y,-z
x,y,1/2-z
-x,y,z
x,-y,1/2+z
1/2+x,1/2+y,z
1/2-x,1/2-y,1/2+z
1/2+x,1/2-y,-z
1/2-x,1/2+y,1/2-z
1/2-x,1/2-y,-z
1/2+x,1/2+y,1/2-z
1/2-x,1/2+y,z
1/2+x,1/2-y,1/2+z
loop_
_atom_site_type_symbol
_atom_site_label
_atom_site_fract_x
_atom_site_fract_y
_atom_site_fract_z
Si Si1 0.750833 0.043482 0.347390
Si Si2 0.343165 0.351680 0.346821
Si Si3 0.066509 0.968296 0.601851
Si Si4 0.351784 0.267954 0.847981
Si Si5 0.691428 0.179887 0.484608
O O1 0.726294 0.036513 0.250000
O O2 0.797810 0.144976 0.346268
O O3 0.708482 0.074313 0.424691
O O4 0.787523 0.930500 0.363546
O O5 0.336868 0.303147 0.250000
O O6 0.396527 0.436267 0.350023
O O7 0.346148 0.259416 0.421329
O O8 0.095730 0.848469 0.623784
O O9 0.000000 0.968974 0.624905
O O10 0.072311 0.000000 0.500000
O O11 0.359135 0.224882 0.750000
O O12 0.338704 0.176068 0.921941
O O13 0.750000 0.250000 0.500000
#
# Coordination Sequence:
#
# PCOD9468612 Si02
#       5
#    16  16  16  16  16
#     4   8  16  28  43  63  85 112 147 187 223 265
#     4  10  19  31  47  67  91 120 157 188 224 269
#     4  10  18  29  45  63  88 121 156 186 221 267
#     4   9  17  28  40  57  82 112 149 183 215 255
#     4  10  18  28  45  60  85 118 154 186 227 263
#
# _framework density 18.778514000000001
#
# number of rings (size 3 to 8) (size 9 to 14) (size 15 to 20)
#    0.000    2.600    2.000    2.400    0.000    2.400 
#    0.000    0.000    0.000    1.200    0.000    0.000 
#    0.000    0.000    0.000   64.800    0.000  302.800 
#
# Total GULP energy -223195.361458 kJ/mol
# GULP energy per Si atom -5579.884036 kJ/mol
# Density = 1.873577 g / cm^3
# Si number density = 18.778514 Si / 1000 Ang^3
#
#
#
# Elastic Constant Matrix: (Units=GPa)
#
#
# Indices 1 2 3 4 5 6 
#
# 1 74.9585 26.9623 51.5796 0.0000 0.0000 0.0000
# 2 26.9623 36.8585 50.2037 0.0000 0.0000 0.0000
# 3 51.5796 50.2037 175.0196 0.0000 0.0000 0.0000
# 4 0.0000 0.0000 0.0000 10.2678 0.0000 0.0000
# 5 0.0000 0.0000 0.0000 0.0000 16.6211 0.0000
# 6 0.0000 0.0000 0.0000 0.0000 0.0000 13.9924
#
#
#
# Elastic Compliance Matrix: (Units=1/GPa)
#
#
# Indices 1 2 3 4 5 6 
#
# 1 0.018809 -0.010190 -0.002620 0.000000 0.000000 0.000000
# 2 -0.010190 0.050049 -0.011353 0.000000 0.000000 0.000000
# 3 -0.002620 -0.011353 0.009742 0.000000 0.000000 0.000000
# 4 0.000000 0.000000 0.000000 0.097392 0.000000 0.000000
# 5 0.000000 0.000000 0.000000 0.000000 0.060164 0.000000
# 6 0.000000 0.000000 0.000000 0.000000 0.000000 0.071467
#
#
# Mechanical properties :
#
#
# Convention : Reuss Voigt Hill
#
# Bulk Modulus (GPa) = 33.03242 60.48087 46.75664
# Shear Modulus (GPa) = 13.65963 18.71566 16.18765
#
# Velocity S-wave (km/s) = 2.69998 3.16041 2.93922
# Velocity P-wave (km/s) = 5.22958 6.75240 6.03918
#
# Compressibility (1/GPa) = 0.03027329
#
# Stress axis : x y z
#
# Youngs Moduli (GPa) = 53.16604 19.98051 102.64352
#
# Poissons Ratio (x) = 0.20360 0.26894
# Poissons Ratio (y) = 0.54177 1.16533
# Poissons Ratio (z) = 0.13930 0.22684
#
# Static dielectric constant tensor:
#      x y z
#    x 1.622860 0.000000 0.000000 
#    y 0.000000 1.677070 0.000000 
#    z 0.000000 0.000000 1.713140 
# 
# From -- ./inp_files/35092.got.cif
#   From: 2010.05.17/outbox.cif.g08.bks.cpg/sg63_18_cif.got.tgz:35092.got - 2010.06.03 15:47:04.
