data_PCOD9468370
_publ_section_title
;
Structure prediction by ZEFSAII (Michael W. Deem and Ramdas Pophale) SiO2 
 PCOD9468370
Probable space group: C M C M
;
_chemical_formula_sum "Si O2"
_cell_formula_units_Z 88
_cell_length_a 15.228959
_cell_length_b 21.332685
_cell_length_c 14.904457
_cell_angle_alpha 90.000000
_cell_angle_beta 90.000000
_cell_angle_gamma 90.000000
_cell_volume 4842.079286
_symmetry_space_group_name_H-M "C M C M"
_symmetry_group_IT_number 63
_symmetry_cell_setting 'orthorhombic'
loop_
_space_group_symop_operation_xyz
x,y,z
-x,-y,1/2+z
x,-y,-z
-x,y,1/2-z
-x,-y,-z
x,y,1/2-z
-x,y,z
x,-y,1/2+z
1/2+x,1/2+y,z
1/2-x,1/2-y,1/2+z
1/2+x,1/2-y,-z
1/2-x,1/2+y,1/2-z
1/2-x,1/2-y,-z
1/2+x,1/2+y,1/2-z
1/2-x,1/2+y,z
1/2+x,1/2-y,1/2+z
loop_
_atom_site_type_symbol
_atom_site_label
_atom_site_fract_x
_atom_site_fract_y
_atom_site_fract_z
Si Si1 0.901337 0.487232 0.856717
Si Si2 0.395067 0.820293 0.250000
Si Si3 0.701512 0.305897 0.750000
Si Si4 0.600879 0.876231 0.067526
Si Si5 0.763911 0.314973 0.554265
Si Si6 0.713335 0.448958 0.921140
Si Si7 0.394829 0.560423 0.250000
O O1 0.900148 0.503957 0.750000
O O2 0.895479 0.549237 0.918645
O O3 0.811817 0.450652 0.877745
O O4 0.000000 0.459471 0.872892
O O5 0.500000 0.831396 0.250000
O O6 0.370596 0.748336 0.250000
O O7 0.358082 0.850094 0.340415
O O8 0.758336 0.301148 0.659777
O O9 0.647847 0.370287 0.750000
O O10 0.500000 0.858138 0.064846
O O11 0.647564 0.844026 0.985173
O O12 0.750000 0.250000 0.500000
O O13 0.700173 0.376962 0.544190
O O14 0.645988 0.466889 0.841882
O O15 0.709012 0.500000 0.000000
O O16 0.500000 0.560079 0.250000
#
# Coordination Sequence:
#
# PCOD9468370 Si02
#       7
#    16   8   8  16  16  16   8
#     4  10  19  34  58  91 128 161 191 228 282 350
#     4  10  17  29  53  84 111 140 188 241 283 336
#     4  10  21  36  57  78 107 147 198 242 302 344
#     4  10  19  32  55  87 120 153 188 228 283 351
#     4  11  22  37  55  83 114 151 192 238 290 345
#     4  11  22  37  61  88 119 155 196 237 295 355
#     4  10  23  41  58  82 114 149 200 261 298 330
#
# _framework density 18.174011
#
# number of rings (size 3 to 8) (size 9 to 14) (size 15 to 20)
#    0.000    1.636    5.455    0.273    0.000    1.455 
#    0.000    1.364    0.000    0.000    0.000    0.000 
#    0.000    0.000    0.000    0.000    0.000    0.000 
#
# Total GULP energy -245019.023576 kJ/mol
# GULP energy per Si atom -5568.614172 kJ/mol
# Density = 1.813265 g / cm^3
# Si number density = 18.174011 Si / 1000 Ang^3
#
#
#
# Elastic Constant Matrix: (Units=GPa)
#
#
# Indices 1 2 3 4 5 6 
#
# 1 95.9536 11.5834 61.1678 0.0000 0.0000 0.0000
# 2 11.5834 63.6833 51.8357 0.0000 0.0000 0.0000
# 3 61.1678 51.8357 135.2134 0.0000 0.0000 0.0000
# 4 0.0000 0.0000 0.0000 30.7197 0.0000 0.0000
# 5 0.0000 0.0000 0.0000 0.0000 18.9011 0.0000
# 6 0.0000 0.0000 0.0000 0.0000 0.0000 19.9746
#
#
#
# Elastic Compliance Matrix: (Units=1/GPa)
#
#
# Indices 1 2 3 4 5 6 
#
# 1 0.015368 0.004162 -0.008548 0.000000 0.000000 0.000000
# 2 0.004162 0.023952 -0.011065 0.000000 0.000000 0.000000
# 3 -0.008548 -0.011065 0.015505 0.000000 0.000000 0.000000
# 4 0.000000 0.000000 0.000000 0.032552 0.000000 0.000000
# 5 0.000000 0.000000 0.000000 0.000000 0.052907 0.000000
# 6 0.000000 0.000000 0.000000 0.000000 0.000000 0.050063
#
#
# Mechanical properties :
#
#
# Convention : Reuss Voigt Hill
#
# Bulk Modulus (GPa) = 41.80006 60.44712 51.12359
# Shear Modulus (GPa) = 21.81262 25.26999 23.54130
#
# Velocity S-wave (km/s) = 3.46816 3.73291 3.60297
# Velocity P-wave (km/s) = 6.25199 7.20499 6.74534
#
# Compressibility (1/GPa) = 0.02392341
#
# Stress axis : x y z
#
# Youngs Moduli (GPa) = 65.06863 41.74936 64.49627
#
# Poissons Ratio (x) = -0.17378 0.55132
# Poissons Ratio (y) = -0.27084 0.71368
# Poissons Ratio (z) = 0.55621 0.46198
#
# Static dielectric constant tensor:
#      x y z
#    x 1.614770 0.000000 0.000000 
#    y 0.000000 1.677580 0.000000 
#    z 0.000000 0.000000 1.700250 
# 
# From -- ./inp_files/31819.got.cif
#   From: 2010.05.17/outbox.cif.g08.bks.cpg/sg63_16_cif.got.tgz:31819.got - 2010.06.03 15:47:04.
