data_PCOD9468744
_publ_section_title
;
Structure prediction by ZEFSAII (Michael W. Deem and Ramdas Pophale) SiO2 
 PCOD9468744
Probable space group: C M C M
;
_chemical_formula_sum "Si O2"
_cell_formula_units_Z 80
_cell_length_a 24.305081
_cell_length_b 24.892482
_cell_length_c 8.685167
_cell_angle_alpha 90.000000
_cell_angle_beta 90.000000
_cell_angle_gamma 90.000000
_cell_volume 5254.645815
_symmetry_space_group_name_H-M "C M C M"
_symmetry_group_IT_number 63
_symmetry_cell_setting 'orthorhombic'
loop_
_space_group_symop_operation_xyz
x,y,z
-x,-y,1/2+z
x,-y,-z
-x,y,1/2-z
-x,-y,-z
x,y,1/2-z
-x,y,z
x,-y,1/2+z
1/2+x,1/2+y,z
1/2-x,1/2-y,1/2+z
1/2+x,1/2-y,-z
1/2-x,1/2+y,1/2-z
1/2-x,1/2-y,-z
1/2+x,1/2+y,1/2-z
1/2-x,1/2+y,z
1/2+x,1/2-y,1/2+z
loop_
_atom_site_type_symbol
_atom_site_label
_atom_site_fract_x
_atom_site_fract_y
_atom_site_fract_z
Si Si1 0.937750 0.663252 0.564419
Si Si2 0.331903 0.229282 0.935312
Si Si3 0.739473 0.943433 0.433023
Si Si4 0.228399 0.835151 0.566830
Si Si5 0.616021 0.057071 0.066238
O O1 0.935698 0.657231 0.750000
O O2 0.891837 0.707384 0.522339
O O3 0.919929 0.606893 0.490482
O O4 0.000000 0.677486 0.520719
O O5 0.324968 0.223274 0.750000
O O6 0.318135 0.291106 0.972641
O O7 0.285582 0.192978 0.016090
O O8 0.734925 0.946633 0.250000
O O9 0.774655 0.892095 0.483337
O O10 0.678095 0.935483 0.502303
O O11 0.760091 0.000000 0.500000
O O12 0.228816 0.843440 0.750000
O O13 0.617844 0.054829 0.250000
O O14 0.595988 0.000000 0.000000
#
# Coordination Sequence:
#
# PCOD9468744 Si02
#       5
#    16  16  16  16  16
#     4  10  20  34  50  67  90 121 157 197 233 268
#     4   9  18  31  47  67  92 121 154 189 228 273
#     4  11  20  31  47  68  94 122 152 188 231 276
#     4  10  18  29  47  70  93 120 151 187 228 275
#     4  11  21  33  48  65  87 119 157 198 237 273
#
# _framework density 15.224622
#
# number of rings (size 3 to 8) (size 9 to 14) (size 15 to 20)
#    0.000    1.800    2.000    5.400    0.000    1.600 
#    0.000    0.000    0.000    0.000    0.000    0.000 
#    0.000    0.800    0.000    1.400    0.000    2.000 
#
# Total GULP energy -223233.856727 kJ/mol
# GULP energy per Si atom -5580.846418 kJ/mol
# Density = 1.518997 g / cm^3
# Si number density = 15.224622 Si / 1000 Ang^3
#
#
#
# Elastic Constant Matrix: (Units=GPa)
#
#
# Indices 1 2 3 4 5 6 
#
# 1 81.7797 64.7737 34.9855 0.0000 0.0000 0.0000
# 2 64.7737 124.6343 48.1372 0.0000 0.0000 0.0000
# 3 34.9855 48.1372 64.7848 0.0000 0.0000 0.0000
# 4 0.0000 0.0000 0.0000 21.1915 0.0000 0.0000
# 5 0.0000 0.0000 0.0000 0.0000 11.8987 0.0000
# 6 0.0000 0.0000 0.0000 0.0000 0.0000 19.3959
#
#
#
# Elastic Compliance Matrix: (Units=1/GPa)
#
#
# Indices 1 2 3 4 5 6 
#
# 1 0.021756 -0.009493 -0.004695 0.000000 0.000000 0.000000
# 2 -0.009493 0.015395 -0.006313 0.000000 0.000000 0.000000
# 3 -0.004695 -0.006313 0.022661 0.000000 0.000000 0.000000
# 4 0.000000 0.000000 0.000000 0.047189 0.000000 0.000000
# 5 0.000000 0.000000 0.000000 0.000000 0.084043 0.000000
# 6 0.000000 0.000000 0.000000 0.000000 0.000000 0.051557
#
#
# Mechanical properties :
#
#
# Convention : Reuss Voigt Hill
#
# Bulk Modulus (GPa) = 53.16017 62.99908 58.07962
# Shear Modulus (GPa) = 17.24892 18.71738 17.98315
#
# Velocity S-wave (km/s) = 3.36960 3.51011 3.44057
# Velocity P-wave (km/s) = 7.08039 7.60903 7.34947
#
# Compressibility (1/GPa) = 0.01881108
#
# Stress axis : x y z
#
# Youngs Moduli (GPa) = 45.96509 64.95449 44.12785
#
# Poissons Ratio (x) = 0.61664 0.20717
# Poissons Ratio (y) = 0.43637 0.27856
# Poissons Ratio (z) = 0.21579 0.41003
#
# Static dielectric constant tensor:
#      x y z
#    x 1.490520 0.000000 0.000000 
#    y 0.000000 1.522700 0.000000 
#    z 0.000000 0.000000 1.508940 
# 
# From -- ./inp_files/6443.got.cif
#   From: 2010.05.17/outbox.cif.g08.bks.cpg/sg63_4_cif.got.tgz:6443.got - 2010.06.03 15:47:04.
