data_PCOD9468481
_publ_section_title
;
Structure prediction by ZEFSAII (Michael W. Deem and Ramdas Pophale) SiO2 
 PCOD9468481
Probable space group: C M C M
;
_chemical_formula_sum "Si O2"
_cell_formula_units_Z 96
_cell_length_a 7.509476
_cell_length_b 23.972155
_cell_length_c 28.161718
_cell_angle_alpha 90.000000
_cell_angle_beta 90.000000
_cell_angle_gamma 90.000000
_cell_volume 5069.625237
_symmetry_space_group_name_H-M "C M C M"
_symmetry_group_IT_number 63
_symmetry_cell_setting 'orthorhombic'
loop_
_space_group_symop_operation_xyz
x,y,z
-x,-y,1/2+z
x,-y,-z
-x,y,1/2-z
-x,-y,-z
x,y,1/2-z
-x,y,z
x,-y,1/2+z
1/2+x,1/2+y,z
1/2-x,1/2-y,1/2+z
1/2+x,1/2-y,-z
1/2-x,1/2+y,1/2-z
1/2-x,1/2-y,-z
1/2+x,1/2+y,1/2-z
1/2-x,1/2+y,z
1/2+x,1/2-y,1/2+z
loop_
_atom_site_type_symbol
_atom_site_label
_atom_site_fract_x
_atom_site_fract_y
_atom_site_fract_z
Si Si1 0.299192 0.001095 0.750000
Si Si2 0.215724 0.725119 0.568186
Si Si3 0.288772 0.142734 0.648017
Si Si4 0.217832 0.538232 0.045028
Si Si5 0.281505 0.985518 0.354321
Si Si6 0.292290 0.371694 0.250000
Si Si7 0.709408 0.836894 0.973679
O O1 0.500000 0.978107 0.750000
O O2 0.221532 0.989818 0.697118
O O3 0.306780 0.068858 0.750000
O O4 0.280898 0.688508 0.611969
O O5 0.270175 0.789584 0.566239
O O6 0.282015 0.692927 0.521000
O O7 0.000000 0.725178 0.567513
O O8 0.500000 0.139016 0.639791
O O9 0.221849 0.079227 0.642292
O O10 0.255215 0.159374 0.702055
O O11 0.272358 0.515683 0.096947
O O12 0.279892 0.601833 0.037401
O O13 0.000000 0.537271 0.045409
O O14 0.271937 0.500000 0.000000
O O15 0.500000 0.985851 0.352436
O O16 0.500000 0.385075 0.250000
O O17 0.500000 0.845099 0.982434
#
# Coordination Sequence:
#
# PCOD9468481 Si02
#       7
#     8  16  16  16  16   8  16
#     4   8  14  26  42  59  82 113 145 170 198 248
#     4   9  17  29  45  62  83 115 149 176 206 254
#     4   9  16  28  45  63  84 113 147 176 207 253
#     4   9  15  23  39  64  89 109 135 177 222 256
#     4   8  13  22  39  61  82 106 138 174 207 244
#     4  10  18  26  40  65  92 111 133 174 224 260
#     4   9  17  28  43  65  89 112 142 180 218 251
#
# _framework density 18.936311
#
# number of rings (size 3 to 8) (size 9 to 14) (size 15 to 20)
#    0.000    3.167    0.000    2.750    0.000    4.667 
#    0.000    0.000    0.000    5.500    0.000    2.333 
#    0.000    0.000    0.000    0.000    0.000    0.000 
#
# Total GULP energy -267307.954177 kJ/mol
# GULP energy per Si atom -5568.915712 kJ/mol
# Density = 1.889321 g / cm^3
# Si number density = 18.936311 Si / 1000 Ang^3
#
#
#
# Elastic Constant Matrix: (Units=GPa)
#
#
# Indices 1 2 3 4 5 6 
#
# 1 40.7926 -1.8422 -12.0869 0.0000 0.0000 0.0000
# 2 -1.8422 134.0637 86.3373 0.0000 0.0000 0.0000
# 3 -12.0869 86.3373 154.9261 0.0000 0.0000 0.0000
# 4 0.0000 0.0000 0.0000 22.3901 0.0000 0.0000
# 5 0.0000 0.0000 0.0000 0.0000 -4.3533 0.0000
# 6 0.0000 0.0000 0.0000 0.0000 0.0000 -2.7324
#
#
#
# Elastic Compliance Matrix: (Units=1/GPa)
#
#
# Indices 1 2 3 4 5 6 
#
# 1 0.025271 -0.001439 0.002773 0.000000 0.000000 0.000000
# 2 -0.001439 0.011717 -0.006642 0.000000 0.000000 0.000000
# 3 0.002773 -0.006642 0.010372 0.000000 0.000000 0.000000
# 4 0.000000 0.000000 0.000000 0.044663 0.000000 0.000000
# 5 0.000000 0.000000 0.000000 0.000000 -0.229711 0.000000
# 6 0.000000 0.000000 0.000000 0.000000 0.000000 -0.365972
#
#
# Mechanical properties :
#
#
# Convention : Reuss Voigt Hill
#
# Bulk Modulus (GPa) = 27.21400 52.73319 39.97360
# Shear Modulus (GPa) = -10.39938 20.21916 4.90989
#
# Velocity S-wave (km/s) = -2.34599 3.27118 1.61198
# Velocity P-wave (km/s) = 2.65787 6.49428 4.96185
#
# Compressibility (1/GPa) = 0.03674579
#
# Stress axis : x y z
#
# Youngs Moduli (GPa) = 39.57098 85.34870 96.41007
#
# Poissons Ratio (x) = 0.12280 -0.26739
# Poissons Ratio (y) = 0.05694 0.64033
# Poissons Ratio (z) = -0.10975 0.56686
#
# Static dielectric constant tensor:
#      x y z
#    x 1.737370 0.000000 0.000000 
#    y 0.000000 1.627930 0.000000 
#    z 0.000000 0.000000 1.695330 
# 
# From -- ./inp_files/67294.got.cif
#   From: 2010.05.17/outbox.cif.g08.bks.cpg/sg63_34_cif.got.tgz:67294.got - 2010.06.03 15:47:04.
