data_PCOD9468372
_publ_section_title
;
Structure prediction by ZEFSAII (Michael W. Deem and Ramdas Pophale) SiO2 
 PCOD9468372
Probable space group: C M C M
;
_chemical_formula_sum "Si O2"
_cell_formula_units_Z 112
_cell_length_a 22.668866
_cell_length_b 18.308501
_cell_length_c 17.211064
_cell_angle_alpha 90.000000
_cell_angle_beta 90.000000
_cell_angle_gamma 90.000000
_cell_volume 7143.158765
_symmetry_space_group_name_H-M "C M C M"
_symmetry_group_IT_number 63
_symmetry_cell_setting 'orthorhombic'
loop_
_space_group_symop_operation_xyz
x,y,z
-x,-y,1/2+z
x,-y,-z
-x,y,1/2-z
-x,-y,-z
x,y,1/2-z
-x,y,z
x,-y,1/2+z
1/2+x,1/2+y,z
1/2-x,1/2-y,1/2+z
1/2+x,1/2-y,-z
1/2-x,1/2+y,1/2-z
1/2-x,1/2-y,-z
1/2+x,1/2+y,1/2-z
1/2-x,1/2+y,z
1/2+x,1/2-y,1/2+z
loop_
_atom_site_type_symbol
_atom_site_label
_atom_site_fract_x
_atom_site_fract_y
_atom_site_fract_z
Si Si1 0.884772 0.922920 0.035819
Si Si2 0.679848 0.761915 0.609691
Si Si3 0.247089 0.610008 0.340861
Si Si4 0.340412 0.700861 0.059136
Si Si5 0.701202 0.179582 0.659276
Si Si6 0.251135 0.039805 0.920762
Si Si7 0.434356 0.325299 0.340640
O O1 0.815714 0.931522 0.062128
O O2 0.921569 0.897398 0.109411
O O3 0.888342 0.855648 0.974600
O O4 0.902176 0.000000 0.000000
O O5 0.688738 0.846427 0.631748
O O6 0.683158 0.741947 0.518346
O O7 0.735240 0.720762 0.649951
O O8 0.618111 0.730224 0.638805
O O9 0.258151 0.624882 0.250000
O O10 0.295252 0.646069 0.398053
O O11 0.248392 0.524215 0.357074
O O12 0.346888 0.765766 0.121406
O O13 0.690773 0.165651 0.750000
O O14 0.709683 0.106481 0.609096
O O15 0.271014 0.000000 0.000000
O O16 0.431059 0.341806 0.250000
O O17 0.500000 0.297137 0.358455
#
# Coordination Sequence:
#
# PCOD9468372 Si02
#       7
#    16  16  16  16  16  16  16
#     4  10  19  32  47  63  90 124 156 189 227 279
#     4  10  18  30  46  61  88 121 153 185 229 277
#     4  11  19  26  41  66  90 118 153 185 219 271
#     4  10  17  30  43  61  87 124 154 178 221 279
#     4  11  19  27  43  67  95 125 155 191 227 271
#     4  11  18  30  42  62  93 129 159 178 223 280
#     4  10  20  33  49  67  87 116 157 202 243 276
#
# _framework density 15.679339000000001
#
# number of rings (size 3 to 8) (size 9 to 14) (size 15 to 20)
#    0.000    1.571    5.714    5.571    0.000    0.857 
#    0.000    0.000    0.000    0.000    0.000    0.000 
#    0.000   34.857    0.000    4.571    0.000    0.143 
#
# Total GULP energy -311743.941806 kJ/mol
# GULP energy per Si atom -5566.856104 kJ/mol
# Density = 1.564365 g / cm^3
# Si number density = 15.679339 Si / 1000 Ang^3
#
#
#
# Elastic Constant Matrix: (Units=GPa)
#
#
# Indices 1 2 3 4 5 6 
#
# 1 23.1636 10.0257 19.8977 0.0000 0.0000 0.0000
# 2 10.0257 74.3782 18.5552 0.0000 0.0000 0.0000
# 3 19.8977 18.5552 93.1525 0.0000 0.0000 0.0000
# 4 0.0000 0.0000 0.0000 24.9927 0.0000 0.0000
# 5 0.0000 0.0000 0.0000 0.0000 11.7473 0.0000
# 6 0.0000 0.0000 0.0000 0.0000 0.0000 8.3682
#
#
#
# Elastic Compliance Matrix: (Units=1/GPa)
#
#
# Indices 1 2 3 4 5 6 
#
# 1 0.054367 -0.004663 -0.010684 0.000000 0.000000 0.000000
# 2 -0.004663 0.014548 -0.001902 0.000000 0.000000 0.000000
# 3 -0.010684 -0.001902 0.013396 0.000000 0.000000 0.000000
# 4 0.000000 0.000000 0.000000 0.040012 0.000000 0.000000
# 5 0.000000 0.000000 0.000000 0.000000 0.085126 0.000000
# 6 0.000000 0.000000 0.000000 0.000000 0.000000 0.119500
#
#
# Mechanical properties :
#
#
# Convention : Reuss Voigt Hill
#
# Bulk Modulus (GPa) = 20.91474 31.96127 26.43801
# Shear Modulus (GPa) = 13.24912 18.50270 15.87591
#
# Velocity S-wave (km/s) = 2.91005 3.43894 3.18549
# Velocity P-wave (km/s) = 4.96580 6.01639 5.51617
#
# Compressibility (1/GPa) = 0.04781316
#
# Stress axis : x y z
#
# Youngs Moduli (GPa) = 18.39348 68.73903 74.64870
#
# Poissons Ratio (x) = 0.32053 0.79756
# Poissons Ratio (y) = 0.08577 0.14197
# Poissons Ratio (z) = 0.19652 0.13073
#
# Static dielectric constant tensor:
#      x y z
#    x 1.510450 0.000000 0.000000 
#    y 0.000000 1.567740 0.000000 
#    z 0.000000 0.000000 1.553090 
# 
# From -- ./inp_files/48372.got.cif
#   From: 2010.05.17/outbox.cif.g08.bks.cpg/sg63_25_cif.got.tgz:48372.got - 2010.06.03 15:47:04.
