data_PCOD9468802
_publ_section_title
;
Structure prediction by ZEFSAII (Michael W. Deem and Ramdas Pophale) SiO2 
 PCOD9468802
Probable space group: C M C M
;
_chemical_formula_sum "Si O2"
_cell_formula_units_Z 80
_cell_length_a 15.389130
_cell_length_b 29.876743
_cell_length_c 7.564647
_cell_angle_alpha 90.000000
_cell_angle_beta 90.000000
_cell_angle_gamma 90.000000
_cell_volume 3478.051324
_symmetry_space_group_name_H-M "C M C M"
_symmetry_group_IT_number 63
_symmetry_cell_setting 'orthorhombic'
loop_
_space_group_symop_operation_xyz
x,y,z
-x,-y,1/2+z
x,-y,-z
-x,y,1/2-z
-x,-y,-z
x,y,1/2-z
-x,y,z
x,-y,1/2+z
1/2+x,1/2+y,z
1/2-x,1/2-y,1/2+z
1/2+x,1/2-y,-z
1/2-x,1/2+y,1/2-z
1/2-x,1/2-y,-z
1/2+x,1/2+y,1/2-z
1/2-x,1/2+y,z
1/2+x,1/2-y,1/2+z
loop_
_atom_site_type_symbol
_atom_site_label
_atom_site_fract_x
_atom_site_fract_y
_atom_site_fract_z
Si Si1 0.655226 0.769567 0.961370
Si Si2 0.218334 0.450702 0.958157
Si Si3 0.598720 0.416420 0.038137
Si Si4 0.101458 0.631717 0.466553
Si Si5 0.399362 0.677722 0.948627
O O1 0.639641 0.772713 0.750000
O O2 0.635889 0.819319 0.027627
O O3 0.602539 0.726746 0.031127
O O4 0.750000 0.750000 0.000000
O O5 0.215398 0.445591 0.750000
O O6 0.161571 0.409237 0.031406
O O7 0.183093 0.500000 0.000000
O O8 0.320186 0.448489 0.008063
O O9 0.592282 0.411668 0.250000
O O10 0.500000 0.427910 0.974466
O O11 0.632618 0.367994 0.963885
O O12 0.103955 0.631823 0.250000
O O13 0.000000 0.626844 0.516032
O O14 0.360150 0.681169 0.750000
O O15 0.500000 0.666809 0.929641
#
# Coordination Sequence:
#
# PCOD9468802 Si02
#       5
#    16  16  16  16  16
#     4  10  18  29  50  78 108 140 172 210 255 306
#     4  11  23  38  57  79 104 137 180 233 287 334
#     4   9  18  34  56  82 113 146 178 215 263 325
#     4   9  19  36  57  81 109 144 188 232 273 322
#     4   8  14  26  47  74 101 132 168 199 233 289
#
# _framework density 23.001386
#
# number of rings (size 3 to 8) (size 9 to 14) (size 15 to 20)
#    0.000    2.600    0.000    3.600    0.000    3.600 
#    0.000    1.000    0.000    7.800    0.000    0.000 
#    0.000    0.000    0.000    0.000    0.000    0.000 
#
# Total GULP energy -222700.187549 kJ/mol
# GULP energy per Si atom -5567.504689 kJ/mol
# Density = 2.294903 g / cm^3
# Si number density = 23.001386 Si / 1000 Ang^3
#
#
#
# Elastic Constant Matrix: (Units=GPa)
#
#
# Indices 1 2 3 4 5 6 
#
# 1 110.8716 70.7302 -1.1548 0.0000 0.0000 0.0000
# 2 70.7302 185.5231 4.5600 0.0000 0.0000 0.0000
# 3 -1.1548 4.5600 58.5419 0.0000 0.0000 0.0000
# 4 0.0000 0.0000 0.0000 -4.6128 0.0000 0.0000
# 5 0.0000 0.0000 0.0000 0.0000 12.1364 0.0000
# 6 0.0000 0.0000 0.0000 0.0000 0.0000 32.7080
#
#
#
# Elastic Compliance Matrix: (Units=1/GPa)
#
#
# Indices 1 2 3 4 5 6 
#
# 1 0.011938 -0.004566 0.000591 0.000000 0.000000 0.000000
# 2 -0.004566 0.007147 -0.000647 0.000000 0.000000 0.000000
# 3 0.000591 -0.000647 0.017144 0.000000 0.000000 0.000000
# 4 0.000000 0.000000 0.000000 -0.216787 0.000000 0.000000
# 5 0.000000 0.000000 0.000000 0.000000 0.082397 0.000000
# 6 0.000000 0.000000 0.000000 0.000000 0.000000 0.030574
#
#
# Mechanical properties :
#
#
# Convention : Reuss Voigt Hill
#
# Bulk Modulus (GPa) = 37.05643 55.91194 46.48418
# Shear Modulus (GPa) = -101.31972 26.76639 -37.27667
#
# Velocity S-wave (km/s) = -6.64417 3.41498 -4.03007
# Velocity P-wave (km/s) = 6.53564 6.31746 1.18410
#
# Compressibility (1/GPa) = 0.02698587
#
# Stress axis : x y z
#
# Youngs Moduli (GPa) = 83.76271 139.92172 58.33005
#
# Poissons Ratio (x) = 0.63889 -0.03448
# Poissons Ratio (y) = 0.38246 0.03773
# Poissons Ratio (z) = -0.04952 0.09050
#
# Static dielectric constant tensor:
#      x y z
#    x 2.135130 0.000000 0.000000 
#    y 0.000000 2.009040 0.000000 
#    z 0.000000 0.000000 1.919640 
# 
# From -- ./inp_files/19866.got.cif
#   From: 2010.05.17/outbox.cif.g08.bks.cpg/sg63_10_cif.got.tgz:19866.got - 2010.06.03 15:47:04.
