data_PCOD9468936
_publ_section_title
;
Structure prediction by ZEFSAII (Michael W. Deem and Ramdas Pophale) SiO2 
 PCOD9468936
Probable space group: C M C M
;
_chemical_formula_sum "Si O2"
_cell_formula_units_Z 112
_cell_length_a 24.575271
_cell_length_b 15.566624
_cell_length_c 16.017730
_cell_angle_alpha 90.000000
_cell_angle_beta 90.000000
_cell_angle_gamma 90.000000
_cell_volume 6127.646736
_symmetry_space_group_name_H-M "C M C M"
_symmetry_group_IT_number 63
_symmetry_cell_setting 'orthorhombic'
loop_
_space_group_symop_operation_xyz
x,y,z
-x,-y,1/2+z
x,-y,-z
-x,y,1/2-z
-x,-y,-z
x,y,1/2-z
-x,y,z
x,-y,1/2+z
1/2+x,1/2+y,z
1/2-x,1/2-y,1/2+z
1/2+x,1/2-y,-z
1/2-x,1/2+y,1/2-z
1/2-x,1/2-y,-z
1/2+x,1/2+y,1/2-z
1/2-x,1/2+y,z
1/2+x,1/2-y,1/2+z
loop_
_atom_site_type_symbol
_atom_site_label
_atom_site_fract_x
_atom_site_fract_y
_atom_site_fract_z
Si Si1 0.061645 0.693200 0.118144
Si Si2 0.132782 0.340588 0.153566
Si Si3 0.439290 0.994635 0.099436
Si Si4 0.280423 0.705127 0.151336
Si Si5 0.830933 0.206385 0.657804
Si Si6 0.660634 0.601140 0.489077
Si Si7 0.938249 0.216074 0.441175
O O1 0.069990 0.591667 0.131057
O O2 0.110198 0.748487 0.155850
O O3 0.000000 0.714527 0.146101
O O4 0.063462 0.717512 0.019509
O O5 0.141018 0.355952 0.250000
O O6 0.108739 0.428654 0.118558
O O7 0.187745 0.292951 0.123395
O O8 0.087189 0.268529 0.135090
O O9 0.500000 0.965962 0.129621
O O10 0.442689 0.000000 0.000000
O O11 0.294366 0.688385 0.250000
O O12 0.216504 0.723135 0.147528
O O13 0.300270 0.634343 0.085505
O O14 0.822813 0.166234 0.750000
O O15 0.826311 0.144377 0.578431
O O16 0.661632 0.500000 0.500000
O O17 0.601232 0.637816 0.463741
O O18 0.000000 0.189927 0.427692
#
# Coordination Sequence:
#
# PCOD9468936 Si02
#       7
#    16  16  16  16  16  16  16
#     4   9  18  33  54  78 106 143 183 220 267 329
#     4  10  19  31  50  76 106 141 182 225 271 323
#     4  10  18  30  49  76 112 147 179 220 270 325
#     4   9  20  40  60  79 109 145 183 228 273 324
#     4  10  21  39  59  79 110 148 184 224 273 328
#     4  10  21  37  58  84 109 139 182 228 276 323
#     4   9  17  32  53  75 104 142 178 219 271 327
#
# _framework density 18.277816000000001
#
# number of rings (size 3 to 8) (size 9 to 14) (size 15 to 20)
#    0.000    2.429    1.429    0.857    0.000    2.857 
#    2.571    1.429    0.000    0.000    0.000    4.000 
#    0.000    0.000    0.000    0.000    0.000    0.000 
#
# Total GULP energy -311973.868176 kJ/mol
# GULP energy per Si atom -5570.961932 kJ/mol
# Density = 1.823622 g / cm^3
# Si number density = 18.277816 Si / 1000 Ang^3
#
#
#
# Elastic Constant Matrix: (Units=GPa)
#
#
# Indices 1 2 3 4 5 6 
#
# 1 93.4961 39.9501 17.2633 0.0000 0.0000 0.0000
# 2 39.9501 104.0036 31.8666 0.0000 0.0000 0.0000
# 3 17.2633 31.8666 31.3010 0.0000 0.0000 0.0000
# 4 0.0000 0.0000 0.0000 9.1662 0.0000 0.0000
# 5 0.0000 0.0000 0.0000 0.0000 10.9651 0.0000
# 6 0.0000 0.0000 0.0000 0.0000 0.0000 5.1442
#
#
#
# Elastic Compliance Matrix: (Units=1/GPa)
#
#
# Indices 1 2 3 4 5 6 
#
# 1 0.012991 -0.004062 -0.003029 0.000000 0.000000 0.000000
# 2 -0.004062 0.015244 -0.013279 0.000000 0.000000 0.000000
# 3 -0.003029 -0.013279 0.047138 0.000000 0.000000 0.000000
# 4 0.000000 0.000000 0.000000 0.109096 0.000000 0.000000
# 5 0.000000 0.000000 0.000000 0.000000 0.091198 0.000000
# 6 0.000000 0.000000 0.000000 0.000000 0.000000 0.194392
#
#
# Mechanical properties :
#
#
# Convention : Reuss Voigt Hill
#
# Bulk Modulus (GPa) = 28.87548 45.21785 37.04666
# Shear Modulus (GPa) = 9.57223 14.36983 11.97103
#
# Velocity S-wave (km/s) = 2.29095 2.80695 2.56197
# Velocity P-wave (km/s) = 4.77811 5.94123 5.39113
#
# Compressibility (1/GPa) = 0.03463146
#
# Stress axis : x y z
#
# Youngs Moduli (GPa) = 76.97904 65.59949 21.21432
#
# Poissons Ratio (x) = 0.26645 0.06427
# Poissons Ratio (y) = 0.31267 0.28171
# Poissons Ratio (z) = 0.23321 0.87112
#
# Static dielectric constant tensor:
#      x y z
#    x 1.652200 0.000000 0.000000 
#    y 0.000000 1.606250 0.000000 
#    z 0.000000 0.000000 1.663280 
# 
# From -- ./inp_files/36951.got.cif
#   From: 2010.05.17/outbox.cif.g08.bks.cpg/sg63_19_cif.got.tgz:36951.got - 2010.06.03 15:47:04.
