data_PCOD9468063
_publ_section_title
;
Structure prediction by ZEFSAII (Michael W. Deem and Ramdas Pophale) SiO2 
 PCOD9468063
Probable space group: P N M A
;
_chemical_formula_sum "Si O2"
_cell_formula_units_Z 48
_cell_length_a 9.000000
_cell_length_b 9.000000
_cell_length_c 30.000000
_cell_angle_alpha 90.000000
_cell_angle_beta 90.000000
_cell_angle_gamma 90.000000
_cell_volume 2430.000000
_symmetry_space_group_name_H-M "P N M A"
_symmetry_group_IT_number 62
_symmetry_cell_setting 'orthorhombic'
loop_
_space_group_symop_operation_xyz
x,y,z
1/2-x,-y,1/2+z
1/2+x,1/2-y,1/2-z
-x,1/2+y,-z
-x,-y,-z
1/2+x,y,1/2-z
1/2-x,1/2+y,1/2+z
x,1/2-y,z
loop_
_atom_site_type_symbol
_atom_site_label
_atom_site_fract_x
_atom_site_fract_y
_atom_site_fract_z
Si Si1 0.978945 0.425151 0.137596
Si Si2 0.301129 0.418109 0.702875
Si Si3 0.989374 0.581356 0.354970
Si Si4 0.216412 0.075002 0.296548
Si Si5 0.927547 0.071762 0.955669
Si Si6 0.074768 0.071661 0.543842
O O1 0.994840 0.250000 0.128776
O O2 0.822129 0.455547 0.161035
O O3 0.084481 0.474809 0.178193
O O4 0.007397 0.509985 0.091152
O O5 0.359992 0.250000 0.710327
O O6 0.174962 0.406067 0.665168
O O7 0.254515 0.484147 0.750988
O O8 0.054126 0.750000 0.353766
O O9 0.987111 0.529103 0.406680
O O10 0.062840 0.475084 0.318460
O O11 0.223726 0.250000 0.286265
O O12 0.947088 0.250000 0.956939
O O13 0.750929 0.038827 0.956125
O O14 0.000000 0.000000 0.000000
O O15 0.057199 0.250000 0.540919
O O16 0.000000 0.000000 0.500000
#
# Coordination Sequence:
#
# PCOD9468063 Si02
#       6
#     8   8   8   8   8   8
#     4  11  24  42  64  93 128 165 208 256 311 368
#     4  11  22  41  66  91 122 164 210 257 308 367
#     4  10  22  42  64  90 123 163 209 254 306 368
#     4  11  25  40  59  93 129 163 206 257 305 365
#     4  11  24  44  67  94 127 162 207 257 309 371
#     4  10  23  43  65  93 125 159 205 255 306 368
#
# _framework density 19.753086
#
# number of rings (size 3 to 8) (size 9 to 14) (size 15 to 20)
#    0.000    1.333    1.667    3.000    2.333    8.667 
#    0.000    0.000    0.000    0.000    0.000    0.000 
#    0.000    0.000    0.000    0.000    0.000    0.000 
#
# Total GULP energy -267744.825582 kJ/mol
# GULP energy per Si atom -5578.017200 kJ/mol
# Density = 1.970813 g / cm^3
# Si number density = 19.753086 Si / 1000 Ang^3
#
#
#
# Elastic Constant Matrix: (Units=GPa)
#
#
# Indices 1 2 3 4 5 6 
#
# 1 18.4430 -1.4051 -3.3890 0.0000 0.0000 0.0000
# 2 -1.4051 -8.3335 30.1411 0.0000 0.0000 0.0000
# 3 -3.3890 30.1411 155.6906 0.0000 0.0000 0.0000
# 4 0.0000 0.0000 0.0000 44.5293 0.0000 0.0000
# 5 0.0000 0.0000 0.0000 0.0000 26.3639 0.0000
# 6 0.0000 0.0000 0.0000 0.0000 0.0000 20.2126
#
#
#
# Elastic Compliance Matrix: (Units=1/GPa)
#
#
# Indices 1 2 3 4 5 6 
#
# 1 0.054322 -0.002871 0.001738 0.000000 0.000000 0.000000
# 2 -0.002871 -0.070426 0.013572 0.000000 0.000000 0.000000
# 3 0.001738 0.013572 0.003833 0.000000 0.000000 0.000000
# 4 0.000000 0.000000 0.000000 0.022457 0.000000 0.000000
# 5 0.000000 0.000000 0.000000 0.000000 0.037931 0.000000
# 6 0.000000 0.000000 0.000000 0.000000 0.000000 0.049474
#
#
# Mechanical properties :
#
#
# Convention : Reuss Voigt Hill
#
# Bulk Modulus (GPa) = 79.32697 24.05490 51.69093
# Shear Modulus (GPa) = 65.00643 27.58470 46.29556
#
# Velocity S-wave (km/s) = 5.74290 3.74100 4.84644
# Velocity P-wave (km/s) = 9.17720 5.55557 7.58569
#
# Compressibility (1/GPa) = 0.01260605
#
# Stress axis : x y z
#
# Youngs Moduli (GPa) = 18.40883 -14.19922 260.86515
#
# Poissons Ratio (x) = -0.04077 -0.45348
# Poissons Ratio (y) = 0.05286 -3.54040
# Poissons Ratio (z) = -0.03200 0.19271
#
# Static dielectric constant tensor:
#      x y z
#    x 1.771260 0.000000 0.000000 
#    y 0.000000 1.689990 0.000000 
#    z 0.000000 0.000000 1.627200 
# 
# From -- ./inp_files/31925.got.cif
#   From: 2010.05.17/outbox.ucp.g08.bks.cvg/sg62_16_cif.got.tgz:31925.got - 2010.06.11 16:29:25.
