data_PCOD9468308
_publ_section_title
;
Structure prediction by ZEFSAII (Michael W. Deem and Ramdas Pophale) SiO2 
 PCOD9468308
Probable space group: C M C M
;
_chemical_formula_sum "Si O2"
_cell_formula_units_Z 96
_cell_length_a 7.562282
_cell_length_b 25.095253
_cell_length_c 26.356345
_cell_angle_alpha 90.000000
_cell_angle_beta 90.000000
_cell_angle_gamma 90.000000
_cell_volume 5001.838102
_symmetry_space_group_name_H-M "C M C M"
_symmetry_group_IT_number 63
_symmetry_cell_setting 'orthorhombic'
loop_
_space_group_symop_operation_xyz
x,y,z
-x,-y,1/2+z
x,-y,-z
-x,y,1/2-z
-x,-y,-z
x,y,1/2-z
-x,y,z
x,-y,1/2+z
1/2+x,1/2+y,z
1/2-x,1/2-y,1/2+z
1/2+x,1/2-y,-z
1/2-x,1/2+y,1/2-z
1/2-x,1/2-y,-z
1/2+x,1/2+y,1/2-z
1/2-x,1/2+y,z
1/2+x,1/2-y,1/2+z
loop_
_atom_site_type_symbol
_atom_site_label
_atom_site_fract_x
_atom_site_fract_y
_atom_site_fract_z
Si Si1 0.200640 0.865731 0.420390
Si Si2 0.790982 0.089496 0.393080
Si Si3 0.783886 0.017560 0.556727
Si Si4 0.202053 0.322287 0.973525
Si Si5 0.217261 0.243737 0.611869
Si Si6 0.787063 0.331625 0.692496
O O1 0.282185 0.924205 0.426719
O O2 0.196371 0.841068 0.477035
O O3 0.278806 0.817283 0.387555
O O4 0.000000 0.873627 0.401937
O O5 0.703437 0.129111 0.433481
O O6 0.758468 0.114681 0.338116
O O7 0.000000 0.091953 0.403432
O O8 0.734059 0.029377 0.404589
O O9 0.000000 0.020977 0.554775
O O10 0.728148 0.000000 0.500000
O O11 0.272101 0.272881 0.940496
O O12 0.000000 0.311813 0.988361
O O13 0.274078 0.281786 0.657915
O O14 0.000000 0.243725 0.611172
O O15 0.721136 0.330607 0.750000
O O16 0.000000 0.328359 0.693886
#
# Coordination Sequence:
#
# PCOD9468308 Si02
#       6
#    16  16  16  16  16  16
#     4  10  17  28  45  62  89 127 160 184 218 267
#     4  10  18  30  48  69  93 122 158 193 222 265
#     4   9  16  27  43  65  93 126 160 187 218 258
#     4  10  18  28  41  64  96 123 153 189 225 264
#     4   8  16  28  44  66  88 115 150 186 226 275
#     4   9  18  34  53  71  92 114 142 190 244 284
#
# _framework density 19.192945000000002
#
# number of rings (size 3 to 8) (size 9 to 14) (size 15 to 20)
#    0.000    2.667    1.667    2.500    0.000    0.333 
#    0.000    5.833    0.000    1.000    0.000    4.667 
#    0.000    0.000    0.000    0.000    0.000    0.000 
#
# Total GULP energy -267686.102248 kJ/mol
# GULP energy per Si atom -5576.793797 kJ/mol
# Density = 1.914926 g / cm^3
# Si number density = 19.192945 Si / 1000 Ang^3
#
#
#
# Elastic Constant Matrix: (Units=GPa)
#
#
# Indices 1 2 3 4 5 6 
#
# 1 54.5109 5.1263 2.9334 0.0000 0.0000 0.0000
# 2 5.1263 203.4022 64.2331 0.0000 0.0000 0.0000
# 3 2.9334 64.2331 94.7170 0.0000 0.0000 0.0000
# 4 0.0000 0.0000 0.0000 12.8092 0.0000 0.0000
# 5 0.0000 0.0000 0.0000 0.0000 13.5897 0.0000
# 6 0.0000 0.0000 0.0000 0.0000 0.0000 4.9098
#
#
#
# Elastic Compliance Matrix: (Units=1/GPa)
#
#
# Indices 1 2 3 4 5 6 
#
# 1 0.018396 -0.000361 -0.000325 0.000000 0.000000 0.000000
# 2 -0.000361 0.006263 -0.004236 0.000000 0.000000 0.000000
# 3 -0.000325 -0.004236 0.013441 0.000000 0.000000 0.000000
# 4 0.000000 0.000000 0.000000 0.078069 0.000000 0.000000
# 5 0.000000 0.000000 0.000000 0.000000 0.073585 0.000000
# 6 0.000000 0.000000 0.000000 0.000000 0.000000 0.203676
#
#
# Mechanical properties :
#
#
# Convention : Reuss Voigt Hill
#
# Bulk Modulus (GPa) = 35.39084 55.24617 45.31851
# Shear Modulus (GPa) = 12.11553 24.95088 18.53321
#
# Velocity S-wave (km/s) = 2.51519 3.60947 3.11082
# Velocity P-wave (km/s) = 5.18792 6.79839 6.04701
#
# Compressibility (1/GPa) = 0.02825590
#
# Stress axis : x y z
#
# Youngs Moduli (GPa) = 54.35849 159.66120 74.40089
#
# Poissons Ratio (x) = 0.05764 0.02417
# Poissons Ratio (y) = 0.01963 0.31518
# Poissons Ratio (z) = 0.01766 0.67637
#
# Static dielectric constant tensor:
#      x y z
#    x 1.731240 0.000000 0.000000 
#    y 0.000000 1.714770 0.000000 
#    z 0.000000 0.000000 1.638930 
# 
# From -- ./inp_files/67197.got.cif
#   From: 2010.05.17/outbox.cif.g08.bks.cpg/sg63_34_cif.got.tgz:67197.got - 2010.06.03 15:47:04.
