data_PCOD9468690
_publ_section_title
;
Structure prediction by ZEFSAII (Michael W. Deem and Ramdas Pophale) SiO2 
 PCOD9468690
Probable space group: C M C M
;
_chemical_formula_sum "Si O2"
_cell_formula_units_Z 96
_cell_length_a 32.057796
_cell_length_b 21.598575
_cell_length_c 7.745292
_cell_angle_alpha 90.000000
_cell_angle_beta 90.000000
_cell_angle_gamma 90.000000
_cell_volume 5362.861180
_symmetry_space_group_name_H-M "C M C M"
_symmetry_group_IT_number 63
_symmetry_cell_setting 'orthorhombic'
loop_
_space_group_symop_operation_xyz
x,y,z
-x,-y,1/2+z
x,-y,-z
-x,y,1/2-z
-x,-y,-z
x,y,1/2-z
-x,y,z
x,-y,1/2+z
1/2+x,1/2+y,z
1/2-x,1/2-y,1/2+z
1/2+x,1/2-y,-z
1/2-x,1/2+y,1/2-z
1/2-x,1/2-y,-z
1/2+x,1/2+y,1/2-z
1/2-x,1/2+y,z
1/2+x,1/2-y,1/2+z
loop_
_atom_site_type_symbol
_atom_site_label
_atom_site_fract_x
_atom_site_fract_y
_atom_site_fract_z
Si Si1 0.254520 0.932834 0.457642
Si Si2 0.216650 0.196040 0.542105
Si Si3 0.437743 0.932533 0.555590
Si Si4 0.346416 0.907335 0.047565
Si Si5 0.636671 0.233228 0.040086
Si Si6 0.954513 0.704275 0.461570
O O1 0.256807 0.927706 0.250000
O O2 0.231289 0.871244 0.522319
O O3 0.302329 0.930538 0.522496
O O4 0.236109 0.000000 0.500000
O O5 0.137226 0.268912 0.750000
O O6 0.250000 0.250000 0.500000
O O7 0.170682 0.216786 0.482150
O O8 0.451575 0.926337 0.750000
O O9 0.387487 0.931952 0.545031
O O10 0.450878 0.867155 0.472606
O O11 0.452176 0.000000 0.500000
O O12 0.350362 0.922767 0.250000
O O13 0.347495 0.833266 0.025717
O O14 0.784860 0.192546 0.750000
O O15 0.588209 0.238401 0.985526
O O16 0.953604 0.703703 0.250000
O O17 0.000000 0.728781 0.513286
#
# Coordination Sequence:
#
# PCOD9468690 Si02
#       6
#    16  16  16  16  16  16
#     4  10  21  32  43  63  91 121 153 187 223 261
#     4  10  19  32  48  69  93 120 154 188 224 268
#     4  10  19  29  41  58  80 111 148 187 227 267
#     4  10  18  29  44  62  86 116 150 188 224 263
#     4   9  17  29  48  68  87 114 146 183 225 267
#     4   8  15  28  44  62  83 107 138 179 227 274
#
# _framework density 17.900891999999999
#
# number of rings (size 3 to 8) (size 9 to 14) (size 15 to 20)
#    0.000    2.500    1.667    2.500    0.000    3.667 
#    0.000    0.000    0.000   12.000    0.000    0.000 
#    0.000    0.667    0.000    0.500    0.000    1.000 
#
# Total GULP energy -267598.975613 kJ/mol
# GULP energy per Si atom -5574.978659 kJ/mol
# Density = 1.786015 g / cm^3
# Si number density = 17.900892 Si / 1000 Ang^3
#
#
#
# Elastic Constant Matrix: (Units=GPa)
#
#
# Indices 1 2 3 4 5 6 
#
# 1 148.4234 68.7275 6.2049 0.0000 0.0000 0.0000
# 2 68.7275 100.6125 -0.0076 0.0000 0.0000 0.0000
# 3 6.2049 -0.0076 27.4259 0.0000 0.0000 0.0000
# 4 0.0000 0.0000 0.0000 16.6486 0.0000 0.0000
# 5 0.0000 0.0000 0.0000 0.0000 -13.4864 0.0000
# 6 0.0000 0.0000 0.0000 0.0000 0.0000 -4.5453
#
#
#
# Elastic Compliance Matrix: (Units=1/GPa)
#
#
# Indices 1 2 3 4 5 6 
#
# 1 0.009993 -0.006826 -0.002263 0.000000 0.000000 0.000000
# 2 -0.006826 0.014602 0.001548 0.000000 0.000000 0.000000
# 3 -0.002263 0.001548 0.036974 0.000000 0.000000 0.000000
# 4 0.000000 0.000000 0.000000 0.060065 0.000000 0.000000
# 5 0.000000 0.000000 0.000000 0.000000 -0.074149 0.000000
# 6 0.000000 0.000000 0.000000 0.000000 0.000000 -0.220008
#
#
# Mechanical properties :
#
#
# Convention : Reuss Voigt Hill
#
# Bulk Modulus (GPa) = 21.51081 47.36794 34.43938
# Shear Modulus (GPa) = -35.22501 13.15918 -11.03292
#
# Velocity S-wave (km/s) = -4.44078 2.71424 -2.48530
# Velocity P-wave (km/s) = 3.77509 6.02839 3.32341
#
# Compressibility (1/GPa) = 0.04648825
#
# Stress axis : x y z
#
# Youngs Moduli (GPa) = 100.07013 68.48275 27.04590
#
# Poissons Ratio (x) = 0.46748 0.06120
# Poissons Ratio (y) = 0.68311 -0.04188
# Poissons Ratio (z) = 0.22643 -0.10604
#
# Static dielectric constant tensor:
#      x y z
#    x 1.651440 0.000000 0.000000 
#    y 0.000000 1.625260 0.000000 
#    z 0.000000 0.000000 1.641370 
# 
# From -- ./inp_files/12308.got.cif
#   From: 2010.05.17/outbox.cif.g08.bks.cpg/sg63_7_cif.got.tgz:12308.got - 2010.06.03 15:47:04.
