data_PCOD9468459
_publ_section_title
;
Structure prediction by ZEFSAII (Michael W. Deem and Ramdas Pophale) SiO2 
 PCOD9468459
Probable space group: C M C M
;
_chemical_formula_sum "Si O2"
_cell_formula_units_Z 80
_cell_length_a 22.371345
_cell_length_b 17.742665
_cell_length_c 10.975382
_cell_angle_alpha 90.000000
_cell_angle_beta 90.000000
_cell_angle_gamma 90.000000
_cell_volume 4356.428524
_symmetry_space_group_name_H-M "C M C M"
_symmetry_group_IT_number 63
_symmetry_cell_setting 'orthorhombic'
loop_
_space_group_symop_operation_xyz
x,y,z
-x,-y,1/2+z
x,-y,-z
-x,y,1/2-z
-x,-y,-z
x,y,1/2-z
-x,y,z
x,-y,1/2+z
1/2+x,1/2+y,z
1/2-x,1/2-y,1/2+z
1/2+x,1/2-y,-z
1/2-x,1/2+y,1/2-z
1/2-x,1/2-y,-z
1/2+x,1/2+y,1/2-z
1/2-x,1/2+y,z
1/2+x,1/2-y,1/2+z
loop_
_atom_site_type_symbol
_atom_site_label
_atom_site_fract_x
_atom_site_fract_y
_atom_site_fract_z
Si Si1 0.931025 0.913029 0.508763
Si Si2 0.702670 0.156027 0.503377
Si Si3 0.175436 0.186126 0.390951
Si Si4 0.929824 0.544408 0.250000
Si Si5 0.564903 0.335596 0.250000
Si Si6 0.137233 0.500000 0.500000
Si Si7 0.640738 0.191943 0.250000
O O1 0.886283 0.856903 0.579024
O O2 0.932099 0.884438 0.370543
O O3 0.000000 0.911022 0.555805
O O4 0.911173 0.000000 0.500000
O O5 0.774093 0.157570 0.486332
O O6 0.677935 0.223035 0.589240
O O7 0.678448 0.177222 0.369896
O O8 0.677279 0.073440 0.528671
O O9 0.190419 0.170016 0.250000
O O10 0.900908 0.514243 0.376517
O O11 0.913793 0.632984 0.250000
O O12 0.000000 0.529961 0.250000
O O13 0.500000 0.296140 0.250000
O O14 0.616820 0.275560 0.250000
#
# Coordination Sequence:
#
# PCOD9468459 Si02
#       7
#    16  16  16   8   8   8   8
#     4  10  23  40  59  87 119 156 203 254 303 360
#     4  10  22  40  60  90 122 155 200 246 299 358
#     4  11  23  39  62  87 123 159 199 247 307 362
#     4  10  21  38  62  90 125 162 201 250 302 357
#     4  10  19  36  60  82 111 156 205 242 297 359
#     4  10  23  40  64  90 127 160 204 252 300 366
#     4  10  17  38  60  84 115 156 202 248 285 354
#
# _framework density 18.363667
#
# number of rings (size 3 to 8) (size 9 to 14) (size 15 to 20)
#    0.000    1.800    3.000    0.600    4.200    0.400 
#    0.000    1.000    0.000    0.000    0.000    0.000 
#    0.000    0.000    0.000    0.000    0.000    0.000 
#
# Total GULP energy -222980.859572 kJ/mol
# GULP energy per Si atom -5574.521489 kJ/mol
# Density = 1.832187 g / cm^3
# Si number density = 18.363667 Si / 1000 Ang^3
#
#
#
# Elastic Constant Matrix: (Units=GPa)
#
#
# Indices 1 2 3 4 5 6 
#
# 1 90.5739 61.0206 15.0372 0.0000 0.0000 0.0000
# 2 61.0206 104.8806 17.0205 0.0000 0.0000 0.0000
# 3 15.0372 17.0205 64.3959 0.0000 0.0000 0.0000
# 4 0.0000 0.0000 0.0000 16.6785 0.0000 0.0000
# 5 0.0000 0.0000 0.0000 0.0000 33.7360 0.0000
# 6 0.0000 0.0000 0.0000 0.0000 0.0000 20.7936
#
#
#
# Elastic Compliance Matrix: (Units=1/GPa)
#
#
# Indices 1 2 3 4 5 6 
#
# 1 0.018300 -0.010400 -0.001525 0.000000 0.000000 0.000000
# 2 -0.010400 0.015872 -0.001767 0.000000 0.000000 0.000000
# 3 -0.001525 -0.001767 0.016352 0.000000 0.000000 0.000000
# 4 0.000000 0.000000 0.000000 0.059957 0.000000 0.000000
# 5 0.000000 0.000000 0.000000 0.000000 0.029642 0.000000
# 6 0.000000 0.000000 0.000000 0.000000 0.000000 0.048092
#
#
# Mechanical properties :
#
#
# Convention : Reuss Voigt Hill
#
# Bulk Modulus (GPa) = 43.21123 49.55632 46.38378
# Shear Modulus (GPa) = 22.39021 25.35976 23.87499
#
# Velocity S-wave (km/s) = 3.49559 3.72018 3.60963
# Velocity P-wave (km/s) = 6.31459 6.74519 6.53344
#
# Compressibility (1/GPa) = 0.02314213
#
# Stress axis : x y z
#
# Youngs Moduli (GPa) = 54.64368 63.00345 61.15501
#
# Poissons Ratio (x) = 0.65523 0.09323
# Poissons Ratio (y) = 0.56829 0.10804
# Poissons Ratio (z) = 0.08331 0.11131
#
# Static dielectric constant tensor:
#      x y z
#    x 1.662430 0.000000 0.000000 
#    y 0.000000 1.618980 0.000000 
#    z 0.000000 0.000000 1.616280 
# 
# From -- ./inp_files/23744.got.cif
#   From: 2010.05.17/outbox.cif.g08.bks.cpg/sg63_12_cif.got.tgz:23744.got - 2010.06.03 15:47:04.
