data_PCOD9468679
_publ_section_title
;
Structure prediction by ZEFSAII (Michael W. Deem and Ramdas Pophale) SiO2 
 PCOD9468679
Probable space group: C M C M
;
_chemical_formula_sum "Si O2"
_cell_formula_units_Z 76
_cell_length_a 9.978601
_cell_length_b 25.382899
_cell_length_c 14.774196
_cell_angle_alpha 90.000000
_cell_angle_beta 90.000000
_cell_angle_gamma 90.000000
_cell_volume 3742.094369
_symmetry_space_group_name_H-M "C M C M"
_symmetry_group_IT_number 63
_symmetry_cell_setting 'orthorhombic'
loop_
_space_group_symop_operation_xyz
x,y,z
-x,-y,1/2+z
x,-y,-z
-x,y,1/2-z
-x,-y,-z
x,y,1/2-z
-x,y,z
x,-y,1/2+z
1/2+x,1/2+y,z
1/2-x,1/2-y,1/2+z
1/2+x,1/2-y,-z
1/2-x,1/2+y,1/2-z
1/2-x,1/2-y,-z
1/2+x,1/2+y,1/2-z
1/2-x,1/2+y,z
1/2+x,1/2-y,1/2+z
loop_
_atom_site_type_symbol
_atom_site_label
_atom_site_fract_x
_atom_site_fract_y
_atom_site_fract_z
Si Si1 0.734239 0.356293 0.914730
Si Si2 0.500000 0.822111 0.481681
Si Si3 0.000000 0.437044 0.437077
Si Si4 0.192810 0.054379 0.957830
Si Si5 0.000000 0.220909 0.354774
Si Si6 0.721034 0.452948 0.250000
Si Si7 0.661775 0.927926 0.750000
Si Si8 0.000000 0.560376 0.750000
O O1 0.630815 0.314559 0.874357
O O2 0.785837 0.396069 0.837234
O O3 0.658605 0.392322 0.989668
O O4 0.865313 0.328530 0.958407
O O5 0.500000 0.874517 0.418871
O O6 0.500000 0.770197 0.422318
O O7 0.855068 0.446940 0.476866
O O8 0.000000 0.469779 0.344734
O O9 0.161769 0.055880 0.850243
O O10 0.142127 0.000000 0.000000
O O11 0.000000 0.237474 0.250000
O O12 0.771810 0.513840 0.250000
O O13 0.853211 0.415246 0.250000
O O14 0.500000 0.927816 0.750000
#
# Coordination Sequence:
#
# PCOD9468679 Si02
#       8
#    16   8   8  16   8   8   8   4
#     4  11  23  41  63  92 128 164 206 262 317 374
#     4  10  22  41  66  89 119 156 207 272 325 367
#     4   8  17  26  47  82 116 147 188 242 311 358
#     4  10  18  30  53  85 125 163 199 242 301 371
#     4  12  26  44  66  90 120 167 220 267 319 381
#     4  10  18  28  51  87 128 168 201 241 304 370
#     4  12  20  33  62  96 131 161 208 259 312 374
#     4   8  14  24  38  76 124 150 180 238 292 368
#
# _framework density 20.309481999999999
#
# number of rings (size 3 to 8) (size 9 to 14) (size 15 to 20)
#    0.000    1.684    4.737    0.947    0.737    0.000 
#    1.895    0.526    0.000    0.632    0.000    0.000 
#    0.000    0.000    0.000    0.000    0.000    0.000 
#
# Total GULP energy -211667.021960 kJ/mol
# GULP energy per Si atom -5570.184788 kJ/mol
# Density = 2.026326 g / cm^3
# Si number density = 20.309482 Si / 1000 Ang^3
#
#
#
# Elastic Constant Matrix: (Units=GPa)
#
#
# Indices 1 2 3 4 5 6 
#
# 1 111.4307 26.0845 28.1253 0.0000 0.0000 0.0000
# 2 26.0845 78.3635 40.3079 0.0000 0.0000 0.0000
# 3 28.1253 40.3079 154.0693 0.0000 0.0000 0.0000
# 4 0.0000 0.0000 0.0000 44.8808 0.0000 0.0000
# 5 0.0000 0.0000 0.0000 0.0000 7.4220 0.0000
# 6 0.0000 0.0000 0.0000 0.0000 0.0000 23.8787
#
#
#
# Elastic Compliance Matrix: (Units=1/GPa)
#
#
# Indices 1 2 3 4 5 6 
#
# 1 0.009889 -0.002731 -0.001091 0.000000 0.000000 0.000000
# 2 -0.002731 0.015499 -0.003557 0.000000 0.000000 0.000000
# 3 -0.001091 -0.003557 0.007620 0.000000 0.000000 0.000000
# 4 0.000000 0.000000 0.000000 0.022281 0.000000 0.000000
# 5 0.000000 0.000000 0.000000 0.000000 0.134734 0.000000
# 6 0.000000 0.000000 0.000000 0.000000 0.000000 0.041878
#
#
# Mechanical properties :
#
#
# Convention : Reuss Voigt Hill
#
# Bulk Modulus (GPa) = 54.78702 59.21098 56.99900
# Shear Modulus (GPa) = 19.78308 31.85938 25.82123
#
# Velocity S-wave (km/s) = 3.12441 3.96497 3.56952
# Velocity P-wave (km/s) = 6.32855 7.08371 6.71675
#
# Compressibility (1/GPa) = 0.01825250
#
# Stress axis : x y z
#
# Youngs Moduli (GPa) = 101.12568 64.51906 131.23065
#
# Poissons Ratio (x) = 0.17617 0.14315
# Poissons Ratio (y) = 0.27613 0.46672
# Poissons Ratio (z) = 0.11031 0.22946
#
# Static dielectric constant tensor:
#      x y z
#    x 1.783390 0.000000 0.000000 
#    y 0.000000 1.737640 0.000000 
#    z 0.000000 0.000000 1.759840 
# 
# From -- ./inp_files/29832.got.cif
#   From: 2010.05.17/outbox.cif.g08.bks.cpg/sg63_15_cif.got.tgz:29832.got - 2010.06.03 15:47:04.
