data_PCOD9468144
_publ_section_title
;
Structure prediction by ZEFSAII (Michael W. Deem and Ramdas Pophale) SiO2 
 PCOD9468144
Probable space group: C M C M
;
_chemical_formula_sum "Si O2"
_cell_formula_units_Z 84
_cell_length_a 11.867406
_cell_length_b 20.343752
_cell_length_c 20.629269
_cell_angle_alpha 90.000000
_cell_angle_beta 90.000000
_cell_angle_gamma 90.000000
_cell_volume 4980.474173
_symmetry_space_group_name_H-M "C M C M"
_symmetry_group_IT_number 63
_symmetry_cell_setting 'orthorhombic'
loop_
_space_group_symop_operation_xyz
x,y,z
-x,-y,1/2+z
x,-y,-z
-x,y,1/2-z
-x,-y,-z
x,y,1/2-z
-x,y,z
x,-y,1/2+z
1/2+x,1/2+y,z
1/2-x,1/2-y,1/2+z
1/2+x,1/2-y,-z
1/2-x,1/2+y,1/2-z
1/2-x,1/2-y,-z
1/2+x,1/2+y,1/2-z
1/2-x,1/2+y,z
1/2+x,1/2-y,1/2+z
loop_
_atom_site_type_symbol
_atom_site_label
_atom_site_fract_x
_atom_site_fract_y
_atom_site_fract_z
Si Si1 0.824925 0.836317 0.132421
Si Si2 0.367130 0.808278 0.828192
Si Si3 0.233390 0.059708 0.327732
Si Si4 0.500000 0.396731 0.459117
Si Si5 0.869198 0.427354 0.171704
Si Si6 0.500000 0.455583 0.597692
Si Si7 0.500000 0.364435 0.250000
O O1 0.822596 0.757828 0.138945
O O2 0.890883 0.859190 0.068403
O O3 0.704364 0.870121 0.139748
O O4 0.902155 0.861296 0.192809
O O5 0.359743 0.798617 0.750000
O O6 0.500000 0.815395 0.842758
O O7 0.298648 0.873459 0.845132
O O8 0.218744 0.059089 0.250000
O O9 0.112437 0.054923 0.360872
O O10 0.309231 0.996477 0.344642
O O11 0.500000 0.408125 0.535548
O O12 0.500000 0.469404 0.427426
O O13 0.864406 0.420169 0.250000
O O14 0.000000 0.427320 0.152849
#
# Coordination Sequence:
#
# PCOD9468144 Si02
#       7
#    16  16  16   8  16   8   4
#     4  11  17  32  55  82 104 142 183 224 263 318
#     4  10  17  31  53  82 111 139 176 220 265 326
#     4  10  21  33  55  79 110 144 176 220 281 330
#     4  10  22  34  62  79 102 140 190 235 279 305
#     4  10  19  31  48  80 113 139 169 218 275 328
#     4  11  21  40  53  81 110 139 183 240 275 327
#     4  10  16  26  54  84 104 132 182 222 258 306
#
# _framework density 16.865863999999998
#
# number of rings (size 3 to 8) (size 9 to 14) (size 15 to 20)
#    0.000    1.714    5.714    0.857    0.000    2.286 
#    1.714    0.952    0.000    3.429    0.000    0.000 
#    0.000    0.000    0.000    0.000    0.000    0.000 
#
# Total GULP energy -233848.420926 kJ/mol
# GULP energy per Si atom -5567.819546 kJ/mol
# Density = 1.682748 g / cm^3
# Si number density = 16.865864 Si / 1000 Ang^3
#
#
#
# Elastic Constant Matrix: (Units=GPa)
#
#
# Indices 1 2 3 4 5 6 
#
# 1 170.8484 84.5942 32.0957 0.0000 0.0000 0.0000
# 2 84.5942 102.2754 17.9929 0.0000 0.0000 0.0000
# 3 32.0957 17.9929 19.5135 0.0000 0.0000 0.0000
# 4 0.0000 0.0000 0.0000 15.3602 0.0000 0.0000
# 5 0.0000 0.0000 0.0000 0.0000 9.1991 0.0000
# 6 0.0000 0.0000 0.0000 0.0000 0.0000 20.6308
#
#
#
# Elastic Compliance Matrix: (Units=1/GPa)
#
#
# Indices 1 2 3 4 5 6 
#
# 1 0.012084 -0.007757 -0.012724 0.000000 0.000000 0.000000
# 2 -0.007757 0.016649 -0.002594 0.000000 0.000000 0.000000
# 3 -0.012724 -0.002594 0.074566 0.000000 0.000000 0.000000
# 4 0.000000 0.000000 0.000000 0.065103 0.000000 0.000000
# 5 0.000000 0.000000 0.000000 0.000000 0.108707 0.000000
# 6 0.000000 0.000000 0.000000 0.000000 0.000000 0.048471
#
#
# Mechanical properties :
#
#
# Convention : Reuss Voigt Hill
#
# Bulk Modulus (GPa) = 17.49741 62.44478 39.97109
# Shear Modulus (GPa) = 12.79491 19.56831 16.18161
#
# Velocity S-wave (km/s) = 2.75731 3.40991 3.10083
# Velocity P-wave (km/s) = 4.53144 7.25314 6.04740
#
# Compressibility (1/GPa) = 0.05715132
#
# Stress axis : x y z
#
# Youngs Moduli (GPa) = 82.75403 60.06192 13.41085
#
# Poissons Ratio (x) = 0.46587 0.17064
# Poissons Ratio (y) = 0.64188 0.03479
# Poissons Ratio (z) = 1.05293 0.15581
#
# Static dielectric constant tensor:
#      x y z
#    x 1.564140 0.000000 0.000000 
#    y 0.000000 1.582360 0.000000 
#    z 0.000000 0.000000 1.547910 
# 
# From -- ./inp_files/52815.got.cif
#   From: 2010.05.17/outbox.cif.g08.bks.cpg/sg63_27_cif.got.tgz:52815.got - 2010.06.03 15:47:04.
