data_PCOD9468384
_publ_section_title
;
Structure prediction by ZEFSAII (Michael W. Deem and Ramdas Pophale) SiO2 
 PCOD9468384
Probable space group: C M C M
;
_chemical_formula_sum "Si O2"
_cell_formula_units_Z 96
_cell_length_a 25.189528
_cell_length_b 11.072945
_cell_length_c 19.318559
_cell_angle_alpha 90.000000
_cell_angle_beta 90.000000
_cell_angle_gamma 90.000000
_cell_volume 5388.376100
_symmetry_space_group_name_H-M "C M C M"
_symmetry_group_IT_number 63
_symmetry_cell_setting 'orthorhombic'
loop_
_space_group_symop_operation_xyz
x,y,z
-x,-y,1/2+z
x,-y,-z
-x,y,1/2-z
-x,-y,-z
x,y,1/2-z
-x,y,z
x,-y,1/2+z
1/2+x,1/2+y,z
1/2-x,1/2-y,1/2+z
1/2+x,1/2-y,-z
1/2-x,1/2+y,1/2-z
1/2-x,1/2-y,-z
1/2+x,1/2+y,1/2-z
1/2-x,1/2+y,z
1/2+x,1/2-y,1/2+z
loop_
_atom_site_type_symbol
_atom_site_label
_atom_site_fract_x
_atom_site_fract_y
_atom_site_fract_z
Si Si1 0.641591 0.974313 0.169609
Si Si2 0.644041 0.298340 0.984327
Si Si3 0.562655 0.889231 0.446287
Si Si4 0.813691 0.995604 0.407366
Si Si5 0.709270 0.866519 0.572511
Si Si6 0.751942 0.832048 0.175495
O O1 0.628456 0.003169 0.250000
O O2 0.594395 0.916243 0.124762
O O3 0.693308 0.887630 0.172161
O O4 0.662742 0.085116 0.122485
O O5 0.656414 0.394682 0.045991
O O6 0.684565 0.188884 0.002843
O O7 0.588145 0.231843 0.978873
O O8 0.654421 0.379917 0.916518
O O9 0.500000 0.878580 0.435072
O O10 0.571837 0.000000 0.500000
O O11 0.754984 0.034150 0.434381
O O12 0.796695 0.936009 0.335303
O O13 0.737503 0.760040 0.614516
O O14 0.758885 0.772053 0.250000
#
# Coordination Sequence:
#
# PCOD9468384 Si02
#       6
#    16  16  16  16  16  16
#     4  10  20  34  52  77 106 138 177 221 271 326
#     4  10  19  34  51  75 109 141 182 222 274 319
#     4  11  23  39  57  76 100 135 185 243 290 328
#     4   9  19  30  50  80 110 145 179 213 257 329
#     4  10  17  30  50  79 112 147 176 211 258 326
#     4   9  18  31  49  78 117 153 177 206 255 327
#
# _framework density 17.816129
#
# number of rings (size 3 to 8) (size 9 to 14) (size 15 to 20)
#    0.000    2.167    1.667    2.000    0.000    6.333 
#    0.000    2.500    0.000    0.000    0.000    0.000 
#    0.000    1.667    0.000    0.000    0.000    0.000 
#
# Total GULP energy -267220.711602 kJ/mol
# GULP energy per Si atom -5567.098158 kJ/mol
# Density = 1.777558 g / cm^3
# Si number density = 17.816129 Si / 1000 Ang^3
#
#
#
# Elastic Constant Matrix: (Units=GPa)
#
#
# Indices 1 2 3 4 5 6 
#
# 1 97.9503 42.2001 42.6947 0.0000 0.0000 0.0000
# 2 42.2001 65.3243 24.2353 0.0000 0.0000 0.0000
# 3 42.6947 24.2353 87.1727 0.0000 0.0000 0.0000
# 4 0.0000 0.0000 0.0000 14.7249 0.0000 0.0000
# 5 0.0000 0.0000 0.0000 0.0000 15.1122 0.0000
# 6 0.0000 0.0000 0.0000 0.0000 0.0000 26.7722
#
#
#
# Elastic Compliance Matrix: (Units=1/GPa)
#
#
# Indices 1 2 3 4 5 6 
#
# 1 0.016303 -0.008440 -0.005638 0.000000 0.000000 0.000000
# 2 -0.008440 0.021438 -0.001826 0.000000 0.000000 0.000000
# 3 -0.005638 -0.001826 0.014741 0.000000 0.000000 0.000000
# 4 0.000000 0.000000 0.000000 0.067912 0.000000 0.000000
# 5 0.000000 0.000000 0.000000 0.000000 0.066172 0.000000
# 6 0.000000 0.000000 0.000000 0.000000 0.000000 0.037352
#
#
# Mechanical properties :
#
#
# Convention : Reuss Voigt Hill
#
# Bulk Modulus (GPa) = 48.37377 52.07862 50.22619
# Shear Modulus (GPa) = 19.03899 20.74300 19.89100
#
# Velocity S-wave (km/s) = 3.27255 3.41586 3.34497
# Velocity P-wave (km/s) = 6.44128 6.69717 6.57047
#
# Compressibility (1/GPa) = 0.02067236
#
# Stress axis : x y z
#
# Youngs Moduli (GPa) = 61.33756 46.64548 67.83912
#
# Poissons Ratio (x) = 0.39370 0.38250
# Poissons Ratio (y) = 0.51770 0.12390
# Poissons Ratio (z) = 0.34584 0.08519
#
# Static dielectric constant tensor:
#      x y z
#    x 1.586170 0.000000 0.000000 
#    y 0.000000 1.681480 0.000000 
#    z 0.000000 0.000000 1.656700 
# 
# From -- ./inp_files/48944.got.cif
#   From: 2010.05.17/outbox.cif.g08.bks.cpg/sg63_25_cif.got.tgz:48944.got - 2010.06.03 15:47:04.
