data_PCOD9468361
_publ_section_title
;
Structure prediction by ZEFSAII (Michael W. Deem and Ramdas Pophale) SiO2 
 PCOD9468361
Probable space group: C M C M
;
_chemical_formula_sum "Si O2"
_cell_formula_units_Z 128
_cell_length_a 23.934394
_cell_length_b 19.754656
_cell_length_c 17.340857
_cell_angle_alpha 90.000000
_cell_angle_beta 90.000000
_cell_angle_gamma 90.000000
_cell_volume 8199.029789
_symmetry_space_group_name_H-M "C M C M"
_symmetry_group_IT_number 63
_symmetry_cell_setting 'orthorhombic'
loop_
_space_group_symop_operation_xyz
x,y,z
-x,-y,1/2+z
x,-y,-z
-x,y,1/2-z
-x,-y,-z
x,y,1/2-z
-x,y,z
x,-y,1/2+z
1/2+x,1/2+y,z
1/2-x,1/2-y,1/2+z
1/2+x,1/2-y,-z
1/2-x,1/2+y,1/2-z
1/2-x,1/2-y,-z
1/2+x,1/2+y,1/2-z
1/2-x,1/2+y,z
1/2+x,1/2-y,1/2+z
loop_
_atom_site_type_symbol
_atom_site_label
_atom_site_fract_x
_atom_site_fract_y
_atom_site_fract_z
Si Si1 0.064357 0.004802 0.407762
Si Si2 0.881675 0.141156 0.156942
Si Si3 0.249763 0.642206 0.343047
Si Si4 0.335885 0.877594 0.343093
Si Si5 0.726433 0.290565 0.343380
Si Si6 0.229671 0.500567 0.591582
Si Si7 0.063765 0.284368 0.156168
Si Si8 0.836734 0.920690 0.157339
O O1 0.088439 0.076942 0.380454
O O2 0.000000 0.997808 0.383087
O O3 0.066844 0.000000 0.500000
O O4 0.104807 0.947937 0.372912
O O5 0.885911 0.135048 0.250000
O O6 0.815906 0.142418 0.137837
O O7 0.910723 0.211599 0.133835
O O8 0.245657 0.638951 0.250000
O O9 0.224164 0.713499 0.370758
O O10 0.222770 0.575455 0.378266
O O11 0.335434 0.885496 0.250000
O O12 0.286230 0.824429 0.362175
O O13 0.394139 0.844057 0.367363
O O14 0.318561 0.948313 0.380705
O O15 0.724278 0.287776 0.250000
O O16 0.679900 0.344719 0.368300
O O17 0.234134 0.500000 0.500000
O O18 0.287191 0.530649 0.627060
O O19 0.063679 0.284690 0.250000
O O20 0.000000 0.291979 0.130022
O O21 0.835652 0.923385 0.250000
#
# Coordination Sequence:
#
# PCOD9468361 Si02
#       8
#    16  16  16  16  16  16  16  16
#     4  11  23  35  46  65  98 135 165 196 232 271
#     4  10  18  29  48  72  96 122 155 193 235 288
#     4  10  17  29  49  71  93 124 154 186 236 289
#     4   9  16  30  48  68  94 124 152 189 232 279
#     4   8  15  28  47  68  91 116 150 191 234 278
#     4  11  21  31  45  68  99 127 159 192 229 277
#     4   9  16  27  47  74  97 117 148 193 243 287
#     4  10  19  33  51  69  90 123 161 200 237 277
#
# _framework density 15.611603000000001
#
# number of rings (size 3 to 8) (size 9 to 14) (size 15 to 20)
#    0.000    2.250    2.500    3.000    0.000    1.500 
#    0.000    3.750    0.000    0.375    0.000    0.875 
#    0.000    3.000    0.000    0.000    0.000    0.000 
#
# Total GULP energy -356849.076449 kJ/mol
# GULP energy per Si atom -5575.766820 kJ/mol
# Density = 1.557607 g / cm^3
# Si number density = 15.611603 Si / 1000 Ang^3
#
#
#
# Elastic Constant Matrix: (Units=GPa)
#
#
# Indices 1 2 3 4 5 6 
#
# 1 94.4305 74.4162 25.5932 0.0000 0.0000 0.0000
# 2 74.4162 158.5042 33.4663 0.0000 0.0000 0.0000
# 3 25.5932 33.4663 28.6437 0.0000 0.0000 0.0000
# 4 0.0000 0.0000 0.0000 -13.0584 0.0000 0.0000
# 5 0.0000 0.0000 0.0000 0.0000 14.1840 0.0000
# 6 0.0000 0.0000 0.0000 0.0000 0.0000 20.2312
#
#
#
# Elastic Compliance Matrix: (Units=1/GPa)
#
#
# Indices 1 2 3 4 5 6 
#
# 1 0.018192 -0.006782 -0.008331 0.000000 0.000000 0.000000
# 2 -0.006782 0.010903 -0.006679 0.000000 0.000000 0.000000
# 3 -0.008331 -0.006679 0.050159 0.000000 0.000000 0.000000
# 4 0.000000 0.000000 0.000000 -0.076579 0.000000 0.000000
# 5 0.000000 0.000000 0.000000 0.000000 0.070502 0.000000
# 6 0.000000 0.000000 0.000000 0.000000 0.000000 0.049429
#
#
# Mechanical properties :
#
#
# Convention : Reuss Voigt Hill
#
# Bulk Modulus (GPa) = 28.03453 60.94778 44.49115
# Shear Modulus (GPa) = 28.07705 14.14487 21.11096
#
# Velocity S-wave (km/s) = 4.24544 3.01333 3.68130
# Velocity P-wave (km/s) = 6.48291 7.15763 6.82861
#
# Compressibility (1/GPa) = 0.03567030
#
# Stress axis : x y z
#
# Youngs Moduli (GPa) = 54.96792 91.71449 19.93655
#
# Poissons Ratio (x) = 0.62203 0.16609
# Poissons Ratio (y) = 0.37280 0.13316
# Poissons Ratio (z) = 0.45793 0.61258
#
# Static dielectric constant tensor:
#      x y z
#    x 1.511000 0.000000 0.000000 
#    y 0.000000 1.531580 0.000000 
#    z 0.000000 0.000000 1.506290 
# 
# From -- ./inp_files/48450.got.cif
#   From: 2010.05.17/outbox.cif.g08.bks.cpg/sg63_25_cif.got.tgz:48450.got - 2010.06.03 15:47:04.
