data_PCOD9468401
_publ_section_title
;
Structure prediction by ZEFSAII (Michael W. Deem and Ramdas Pophale) SiO2 
 PCOD9468401
Probable space group: C M C M
;
_chemical_formula_sum "Si O2"
_cell_formula_units_Z 80
_cell_length_a 24.082830
_cell_length_b 22.672980
_cell_length_c 10.185518
_cell_angle_alpha 90.000000
_cell_angle_beta 90.000000
_cell_angle_gamma 90.000000
_cell_volume 5561.593534
_symmetry_space_group_name_H-M "C M C M"
_symmetry_group_IT_number 63
_symmetry_cell_setting 'orthorhombic'
loop_
_space_group_symop_operation_xyz
x,y,z
-x,-y,1/2+z
x,-y,-z
-x,y,1/2-z
-x,-y,-z
x,y,1/2-z
-x,y,z
x,-y,1/2+z
1/2+x,1/2+y,z
1/2-x,1/2-y,1/2+z
1/2+x,1/2-y,-z
1/2-x,1/2+y,1/2-z
1/2-x,1/2-y,-z
1/2+x,1/2+y,1/2-z
1/2-x,1/2+y,z
1/2+x,1/2-y,1/2+z
loop_
_atom_site_type_symbol
_atom_site_label
_atom_site_fract_x
_atom_site_fract_y
_atom_site_fract_z
Si Si1 0.118427 0.933825 0.750000
Si Si2 0.330262 0.627979 0.001890
Si Si3 0.888474 0.073930 0.750000
Si Si4 0.883308 0.251868 0.093653
Si Si5 0.500000 0.366463 0.750000
Si Si6 0.000000 0.226121 0.488896
Si Si7 0.500000 0.648761 0.750000
Si Si8 0.769718 0.304401 0.091819
O O1 0.153900 0.911797 0.625640
O O2 0.057130 0.903740 0.750000
O O3 0.109204 0.003570 0.750000
O O4 0.359451 0.691370 0.030758
O O5 0.356932 0.597336 0.877081
O O6 0.266216 0.641927 0.966201
O O7 0.947532 0.105870 0.750000
O O8 0.889209 0.241629 0.250000
O O9 0.836355 0.301944 0.077415
O O10 0.943495 0.262389 0.032325
O O11 0.500000 0.324412 0.876715
O O12 0.000000 0.191260 0.624564
O O13 0.757913 0.296900 0.250000
O O14 0.750000 0.250000 0.000000
#
# Coordination Sequence:
#
# PCOD9468401 Si02
#       8
#     8  16   8  16   4   8   4  16
#     4  12  23  34  50  63  85 129 171 204 239 272
#     4  11  19  35  47  65  91 116 157 203 239 280
#     4  12  23  34  46  65  89 125 167 210 239 264
#     4  10  17  31  50  68  87 121 157 185 233 291
#     4  12  19  36  46  56  88 126 170 196 227 268
#     4  12  18  30  49  66  92 126 153 195 228 275
#     4  12  23  32  42  64 100 122 162 212 245 248
#     4   9  19  30  49  70  88 113 147 191 240 290
#
# _framework density 14.384366
#
# number of rings (size 3 to 8) (size 9 to 14) (size 15 to 20)
#    0.000    1.200    7.000    0.900    1.400    0.000 
#    0.000    3.000    0.000    0.000    0.000    0.000 
#    0.000    0.000    0.000    5.400    0.000    0.100 
#
# Total GULP energy -222856.278891 kJ/mol
# GULP energy per Si atom -5571.406972 kJ/mol
# Density = 1.435163 g / cm^3
# Si number density = 14.384366 Si / 1000 Ang^3
#
#
#
# Elastic Constant Matrix: (Units=GPa)
#
#
# Indices 1 2 3 4 5 6 
#
# 1 139.4883 47.1259 52.3152 0.0000 0.0000 0.0000
# 2 47.1259 34.4398 31.2071 0.0000 0.0000 0.0000
# 3 52.3152 31.2071 122.1913 0.0000 0.0000 0.0000
# 4 0.0000 0.0000 0.0000 21.5758 0.0000 0.0000
# 5 0.0000 0.0000 0.0000 0.0000 38.3244 0.0000
# 6 0.0000 0.0000 0.0000 0.0000 0.0000 4.7164
#
#
#
# Elastic Compliance Matrix: (Units=1/GPa)
#
#
# Indices 1 2 3 4 5 6 
#
# 1 0.013510 -0.017233 -0.001383 0.000000 0.000000 0.000000
# 2 -0.017233 0.059762 -0.007885 0.000000 0.000000 0.000000
# 3 -0.001383 -0.007885 0.010790 0.000000 0.000000 0.000000
# 4 0.000000 0.000000 0.000000 0.046348 0.000000 0.000000
# 5 0.000000 0.000000 0.000000 0.000000 0.026093 0.000000
# 6 0.000000 0.000000 0.000000 0.000000 0.000000 0.212025
#
#
# Mechanical properties :
#
#
# Convention : Reuss Voigt Hill
#
# Bulk Modulus (GPa) = 32.19582 61.93509 47.06546
# Shear Modulus (GPa) = 11.57722 23.95474 17.76598
#
# Velocity S-wave (km/s) = 2.84006 4.08527 3.51820
# Velocity P-wave (km/s) = 5.76070 8.08723 7.02100
#
# Compressibility (1/GPa) = 0.03105993
#
# Stress axis : x y z
#
# Youngs Moduli (GPa) = 74.01934 16.73302 92.68140
#
# Poissons Ratio (x) = 0.28837 0.12816
# Poissons Ratio (y) = 1.27561 0.73076
# Poissons Ratio (z) = 0.10236 0.13193
#
# Static dielectric constant tensor:
#      x y z
#    x 1.527090 0.000000 0.000000 
#    y 0.000000 1.445220 0.000000 
#    z 0.000000 0.000000 1.470600 
# 
# From -- ./inp_files/10165.got.cif
#   From: 2010.05.17/outbox.cif.g08.bks.cpg/sg63_6_cif.got.tgz:10165.got - 2010.06.03 15:47:04.
