data_PCOD9468136
_publ_section_title
;
Structure prediction by ZEFSAII (Michael W. Deem and Ramdas Pophale) SiO2 
 PCOD9468136
Probable space group: C M C M
;
_chemical_formula_sum "Si O2"
_cell_formula_units_Z 68
_cell_length_a 28.248111
_cell_length_b 7.699931
_cell_length_c 13.728994
_cell_angle_alpha 90.000000
_cell_angle_beta 90.000000
_cell_angle_gamma 90.000000
_cell_volume 2986.172968
_symmetry_space_group_name_H-M "C M C M"
_symmetry_group_IT_number 63
_symmetry_cell_setting 'orthorhombic'
loop_
_space_group_symop_operation_xyz
x,y,z
-x,-y,1/2+z
x,-y,-z
-x,y,1/2-z
-x,-y,-z
x,y,1/2-z
-x,y,z
x,-y,1/2+z
1/2+x,1/2+y,z
1/2-x,1/2-y,1/2+z
1/2+x,1/2-y,-z
1/2-x,1/2+y,1/2-z
1/2-x,1/2-y,-z
1/2+x,1/2+y,1/2-z
1/2-x,1/2+y,z
1/2+x,1/2-y,1/2+z
loop_
_atom_site_type_symbol
_atom_site_label
_atom_site_fract_x
_atom_site_fract_y
_atom_site_fract_z
Si Si1 0.370532 0.399694 0.631766
Si Si2 0.447619 0.156705 0.560156
Si Si3 0.810561 0.781844 0.131391
Si Si4 0.206159 0.394654 0.368350
Si Si5 0.500000 0.939477 0.250000
O O1 0.377693 0.397555 0.750000
O O2 0.352942 0.590769 0.603304
O O3 0.416642 0.324858 0.579800
O O4 0.328143 0.264871 0.608931
O O5 0.500000 0.198070 0.516118
O O6 0.459639 0.075441 0.664877
O O7 0.424929 0.000000 0.500000
O O8 0.810260 0.783185 0.250000
O O9 0.759969 0.860134 0.100078
O O10 0.812254 0.582712 0.099623
O O11 0.207847 0.400819 0.250000
#
# Coordination Sequence:
#
# PCOD9468136 Si02
#       5
#    16  16  16  16   4
#     4  10  16  26  47  68 101 136 166 212 258 296
#     4   9  17  30  51  78 103 131 170 212 257 311
#     4   9  15  23  38  67  99 132 174 213 249 298
#     4   9  15  23  38  67  99 132 174 213 249 298
#     4   8  14  32  52  78 102 128 170 214 252 314
#
# _framework density 22.771622000000001
#
# number of rings (size 3 to 8) (size 9 to 14) (size 15 to 20)
#    0.706    2.118    3.529    0.000    0.000    0.000 
#    0.000    0.000    0.000    4.235    0.000   11.529 
#    0.000    0.000    0.000    0.000    0.000    0.000 
#
# Total GULP energy -189472.586573 kJ/mol
# GULP energy per Si atom -5572.723135 kJ/mol
# Density = 2.271979 g / cm^3
# Si number density = 22.771622 Si / 1000 Ang^3
#
#
#
# Elastic Constant Matrix: (Units=GPa)
#
#
# Indices 1 2 3 4 5 6 
#
# 1 77.6675 36.2730 19.3871 0.0000 0.0000 0.0000
# 2 36.2730 134.9236 41.9930 0.0000 0.0000 0.0000
# 3 19.3871 41.9930 89.1345 0.0000 0.0000 0.0000
# 4 0.0000 0.0000 0.0000 31.0417 0.0000 0.0000
# 5 0.0000 0.0000 0.0000 0.0000 24.1006 0.0000
# 6 0.0000 0.0000 0.0000 0.0000 0.0000 11.0501
#
#
#
# Elastic Compliance Matrix: (Units=1/GPa)
#
#
# Indices 1 2 3 4 5 6 
#
# 1 0.014913 -0.003515 -0.001588 0.000000 0.000000 0.000000
# 2 -0.003515 0.009514 -0.003717 0.000000 0.000000 0.000000
# 3 -0.001588 -0.003717 0.013316 0.000000 0.000000 0.000000
# 4 0.000000 0.000000 0.000000 0.032215 0.000000 0.000000
# 5 0.000000 0.000000 0.000000 0.000000 0.041493 0.000000
# 6 0.000000 0.000000 0.000000 0.000000 0.000000 0.090497
#
#
# Mechanical properties :
#
#
# Convention : Reuss Voigt Hill
#
# Bulk Modulus (GPa) = 49.74615 55.22578 52.48596
# Shear Modulus (GPa) = 22.09568 26.84331 24.46949
#
# Velocity S-wave (km/s) = 3.11837 3.43710 3.28161
# Velocity P-wave (km/s) = 5.90413 6.32900 6.12025
#
# Compressibility (1/GPa) = 0.02010206
#
# Stress axis : x y z
#
# Youngs Moduli (GPa) = 67.05379 105.11214 75.09935
#
# Poissons Ratio (x) = 0.36949 0.11923
# Poissons Ratio (y) = 0.23571 0.27918
# Poissons Ratio (z) = 0.10646 0.39075
#
# Static dielectric constant tensor:
#      x y z
#    x 1.842820 0.000000 0.000000 
#    y 0.000000 1.816860 0.000000 
#    z 0.000000 0.000000 1.936210 
# 
# From -- ./inp_files/49374.got.cif
#   From: 2010.05.17/outbox.cif.g08.bks.cpg/sg63_25_cif.got.tgz:49374.got - 2010.06.03 15:47:04.
