data_PCOD9468089
_publ_section_title
;
Structure prediction by ZEFSAII (Michael W. Deem and Ramdas Pophale) SiO2 
 PCOD9468089
Probable space group: C M C M
;
_chemical_formula_sum "Si O2"
_cell_formula_units_Z 88
_cell_length_a 22.243782
_cell_length_b 14.676436
_cell_length_c 14.231024
_cell_angle_alpha 90.000000
_cell_angle_beta 90.000000
_cell_angle_gamma 90.000000
_cell_volume 4645.852167
_symmetry_space_group_name_H-M "C M C M"
_symmetry_group_IT_number 63
_symmetry_cell_setting 'orthorhombic'
loop_
_space_group_symop_operation_xyz
x,y,z
-x,-y,1/2+z
x,-y,-z
-x,y,1/2-z
-x,-y,-z
x,y,1/2-z
-x,y,z
x,-y,1/2+z
1/2+x,1/2+y,z
1/2-x,1/2-y,1/2+z
1/2+x,1/2-y,-z
1/2-x,1/2+y,1/2-z
1/2-x,1/2-y,-z
1/2+x,1/2+y,1/2-z
1/2-x,1/2+y,z
1/2+x,1/2-y,1/2+z
loop_
_atom_site_type_symbol
_atom_site_label
_atom_site_fract_x
_atom_site_fract_y
_atom_site_fract_z
Si Si1 0.211257 0.433927 0.854253
Si Si2 0.256906 0.148862 0.645344
Si Si3 0.567328 0.349249 0.641880
Si Si4 0.316864 0.392637 0.525436
Si Si5 0.395266 0.852058 0.142417
Si Si6 0.383609 0.000000 0.500000
O O1 0.192515 0.406252 0.750000
O O2 0.234268 0.538714 0.848912
O O3 0.266536 0.376409 0.894449
O O4 0.158882 0.440005 0.931124
O O5 0.241177 0.181773 0.750000
O O6 0.206713 0.162378 0.565745
O O7 0.325576 0.176789 0.621618
O O8 0.583755 0.375297 0.750000
O O9 0.500000 0.383508 0.622550
O O10 0.617724 0.377093 0.567748
O O11 0.567279 0.239589 0.639545
O O12 0.313579 0.500000 0.500000
O O13 0.394924 0.887626 0.250000
O O14 0.415227 0.929102 0.069452
#
# Coordination Sequence:
#
# PCOD9468089 Si02
#       6
#    16  16  16  16  16   8
#     4   9  14  23  41  70 104 128 150 186 242 300
#     4   8  14  26  45  72 101 125 151 189 244 305
#     4  10  22  37  50  68  97 134 174 213 245 279
#     4  10  17  30  50  74  98 128 162 202 250 295
#     4   9  17  31  51  73 103 133 161 200 245 295
#     4  10  14  28  47  76  99 132 154 198 244 308
#
# _framework density 18.941625999999999
#
# number of rings (size 3 to 8) (size 9 to 14) (size 15 to 20)
#    0.000    2.727    4.545    2.182    0.000    1.818 
#    0.000    0.455    0.000    1.636    0.000    0.000 
#    0.000    0.000    0.000    0.000    0.000    0.000 
#
# Total GULP energy -245113.051551 kJ/mol
# GULP energy per Si atom -5570.751172 kJ/mol
# Density = 1.889851 g / cm^3
# Si number density = 18.941626 Si / 1000 Ang^3
#
#
#
# Elastic Constant Matrix: (Units=GPa)
#
#
# Indices 1 2 3 4 5 6 
#
# 1 65.0653 -1.0056 35.8676 0.0000 0.0000 0.0000
# 2 -1.0056 22.4688 9.6561 0.0000 0.0000 0.0000
# 3 35.8676 9.6561 120.4362 0.0000 0.0000 0.0000
# 4 0.0000 0.0000 0.0000 16.8745 0.0000 0.0000
# 5 0.0000 0.0000 0.0000 0.0000 5.0837 0.0000
# 6 0.0000 0.0000 0.0000 0.0000 0.0000 3.2764
#
#
#
# Elastic Compliance Matrix: (Units=1/GPa)
#
#
# Indices 1 2 3 4 5 6 
#
# 1 0.018626 0.003332 -0.005814 0.000000 0.000000 0.000000
# 2 0.003332 0.046691 -0.004736 0.000000 0.000000 0.000000
# 3 -0.005814 -0.004736 0.010414 0.000000 0.000000 0.000000
# 4 0.000000 0.000000 0.000000 0.059261 0.000000 0.000000
# 5 0.000000 0.000000 0.000000 0.000000 0.196709 0.000000
# 6 0.000000 0.000000 0.000000 0.000000 0.000000 0.305210
#
#
# Mechanical properties :
#
#
# Convention : Reuss Voigt Hill
#
# Bulk Modulus (GPa) = 16.31448 33.00074 24.65761
# Shear Modulus (GPa) = 7.44294 15.94374 11.69334
#
# Velocity S-wave (km/s) = 1.98442 2.90441 2.48732
# Velocity P-wave (km/s) = 3.72590 5.35795 4.61465
#
# Compressibility (1/GPa) = 0.06129526
#
# Stress axis : x y z
#
# Youngs Moduli (GPa) = 53.68903 21.41757 96.02086
#
# Poissons Ratio (x) = -0.07137 0.55828
# Poissons Ratio (y) = -0.17891 0.45474
# Poissons Ratio (z) = 0.31216 0.10143
#
# Static dielectric constant tensor:
#      x y z
#    x 1.669320 0.000000 0.000000 
#    y 0.000000 1.714430 0.000000 
#    z 0.000000 0.000000 1.711210 
# 
# From -- ./inp_files/37029.got.cif
#   From: 2010.05.17/outbox.cif.g08.bks.cpg/sg63_19_cif.got.tgz:37029.got - 2010.06.03 15:47:04.
