data_PCOD9468469
_publ_section_title
;
Structure prediction by ZEFSAII (Michael W. Deem and Ramdas Pophale) SiO2 
 PCOD9468469
Probable space group: C M C M
;
_chemical_formula_sum "Si O2"
_cell_formula_units_Z 96
_cell_length_a 16.439572
_cell_length_b 21.713754
_cell_length_c 17.702117
_cell_angle_alpha 90.000000
_cell_angle_beta 90.000000
_cell_angle_gamma 90.000000
_cell_volume 6319.033049
_symmetry_space_group_name_H-M "C M C M"
_symmetry_group_IT_number 63
_symmetry_cell_setting 'orthorhombic'
loop_
_space_group_symop_operation_xyz
x,y,z
-x,-y,1/2+z
x,-y,-z
-x,y,1/2-z
-x,-y,-z
x,y,1/2-z
-x,y,z
x,-y,1/2+z
1/2+x,1/2+y,z
1/2-x,1/2-y,1/2+z
1/2+x,1/2-y,-z
1/2-x,1/2+y,1/2-z
1/2-x,1/2-y,-z
1/2+x,1/2+y,1/2-z
1/2-x,1/2+y,z
1/2+x,1/2-y,1/2+z
loop_
_atom_site_type_symbol
_atom_site_label
_atom_site_fract_x
_atom_site_fract_y
_atom_site_fract_z
Si Si1 0.096497 0.624737 0.336737
Si Si2 0.825687 0.993462 0.165947
Si Si3 0.403711 0.271635 0.337854
Si Si4 0.832582 0.877366 0.430188
Si Si5 0.216055 0.561541 0.046450
Si Si6 0.500000 0.552837 0.331425
Si Si7 0.000000 0.074779 0.004287
O O1 0.120725 0.608282 0.250000
O O2 0.108303 0.698383 0.344761
O O3 0.146082 0.590406 0.401854
O O4 0.000000 0.612786 0.343305
O O5 0.793229 0.003320 0.250000
O O6 0.783872 0.036739 0.104592
O O7 0.920518 0.010489 0.166275
O O8 0.815253 0.923949 0.138701
O O9 0.387593 0.288428 0.250000
O O10 0.500000 0.284416 0.351606
O O11 0.349206 0.310550 0.395456
O O12 0.760715 0.890309 0.490274
O O13 0.917755 0.900440 0.466666
O O14 0.190472 0.500000 0.000000
O O15 0.500000 0.585980 0.250000
O O16 0.500000 0.592367 0.407168
O O17 0.000000 0.000000 0.000000
#
# Coordination Sequence:
#
# PCOD9468469 Si02
#       7
#    16  16  16  16  16   8   8
#     4   9  19  37  55  68  88 117 153 198 241 283
#     4  10  18  27  40  63  95 128 159 183 218 273
#     4   9  18  31  48  70  93 125 164 192 223 271
#     4  11  18  27  44  67  99 128 153 191 229 267
#     4  10  20  31  47  71  94 121 150 189 240 283
#     4  10  18  26  38  58  90 134 168 182 206 259
#     4  12  16  28  38  60 100 134 157 184 218 267
#
# _framework density 15.192197999999999
#
# number of rings (size 3 to 8) (size 9 to 14) (size 15 to 20)
#    0.000    2.000    4.167    2.500    0.000    1.000 
#    0.000    0.000    0.000    0.000    0.000    0.000 
#    0.000    0.000    0.000    0.000    0.000    0.000 
#
# Total GULP energy -267373.706108 kJ/mol
# GULP energy per Si atom -5570.285544 kJ/mol
# Density = 1.515762 g / cm^3
# Si number density = 15.192198 Si / 1000 Ang^3
#
#
#
# Elastic Constant Matrix: (Units=GPa)
#
#
# Indices 1 2 3 4 5 6 
#
# 1 61.0240 40.4803 41.8089 0.0000 0.0000 0.0000
# 2 40.4803 52.3231 51.8514 0.0000 0.0000 0.0000
# 3 41.8089 51.8514 114.4592 0.0000 0.0000 0.0000
# 4 0.0000 0.0000 0.0000 23.1064 0.0000 0.0000
# 5 0.0000 0.0000 0.0000 0.0000 28.0381 0.0000
# 6 0.0000 0.0000 0.0000 0.0000 0.0000 18.1009
#
#
#
# Elastic Compliance Matrix: (Units=1/GPa)
#
#
# Indices 1 2 3 4 5 6 
#
# 1 0.033715 -0.025187 -0.000905 0.000000 0.000000 0.000000
# 2 -0.025187 0.053498 -0.015035 0.000000 0.000000 0.000000
# 3 -0.000905 -0.015035 0.015878 0.000000 0.000000 0.000000
# 4 0.000000 0.000000 0.000000 0.043278 0.000000 0.000000
# 5 0.000000 0.000000 0.000000 0.000000 0.035666 0.000000
# 6 0.000000 0.000000 0.000000 0.000000 0.000000 0.055246
#
#
# Mechanical properties :
#
#
# Convention : Reuss Voigt Hill
#
# Bulk Modulus (GPa) = 47.99197 55.12084 51.55640
# Shear Modulus (GPa) = 15.31487 20.09345 17.70416
#
# Velocity S-wave (km/s) = 3.17846 3.64073 3.41742
# Velocity P-wave (km/s) = 6.71778 7.35080 7.04141
#
# Compressibility (1/GPa) = 0.02083682
#
# Stress axis : x y z
#
# Youngs Moduli (GPa) = 29.66050 18.69244 62.97856
#
# Poissons Ratio (x) = 0.47080 0.05701
# Poissons Ratio (y) = 0.74705 0.94688
# Poissons Ratio (z) = 0.02685 0.28104
#
# Static dielectric constant tensor:
#      x y z
#    x 1.489910 0.000000 0.000000 
#    y 0.000000 1.491400 0.000000 
#    z 0.000000 0.000000 1.538870 
# 
# From -- ./inp_files/46020.got.cif
#   From: 2010.05.17/outbox.cif.g08.bks.cpg/sg63_24_cif.got.tgz:46020.got - 2010.06.03 15:47:04.
