data_PCOD9468968
_publ_section_title
;
Structure prediction by ZEFSAII (Michael W. Deem and Ramdas Pophale) SiO2 
 PCOD9468968
Probable space group: C M C M
;
_chemical_formula_sum "Si O2"
_cell_formula_units_Z 128
_cell_length_a 13.360173
_cell_length_b 19.724642
_cell_length_c 28.209720
_cell_angle_alpha 90.000000
_cell_angle_beta 90.000000
_cell_angle_gamma 90.000000
_cell_volume 7433.956011
_symmetry_space_group_name_H-M "C M C M"
_symmetry_group_IT_number 63
_symmetry_cell_setting 'orthorhombic'
loop_
_space_group_symop_operation_xyz
x,y,z
-x,-y,1/2+z
x,-y,-z
-x,y,1/2-z
-x,-y,-z
x,y,1/2-z
-x,y,z
x,-y,1/2+z
1/2+x,1/2+y,z
1/2-x,1/2-y,1/2+z
1/2+x,1/2-y,-z
1/2-x,1/2+y,1/2-z
1/2-x,1/2-y,-z
1/2+x,1/2+y,1/2-z
1/2-x,1/2+y,z
1/2+x,1/2-y,1/2+z
loop_
_atom_site_type_symbol
_atom_site_label
_atom_site_fract_x
_atom_site_fract_y
_atom_site_fract_z
Si Si1 0.277958 0.314683 0.563159
Si Si2 0.883844 0.889760 0.699071
Si Si3 0.882923 0.080322 0.610596
Si Si4 0.746849 0.548627 0.117487
Si Si5 0.883664 0.498306 0.696949
Si Si6 0.117019 0.746930 0.846632
Si Si7 0.383074 0.703761 0.536742
Si Si8 0.242732 0.130178 0.804280
O O1 0.248467 0.389893 0.580524
O O2 0.345161 0.278316 0.603645
O O3 0.339263 0.316683 0.514368
O O4 0.181638 0.267233 0.555030
O O5 0.840833 0.908156 0.750000
O O6 0.831934 0.928258 0.657181
O O7 0.876203 0.809666 0.689873
O O8 0.000000 0.907080 0.698717
O O9 0.872804 0.141069 0.572911
O O10 0.849238 0.109684 0.661811
O O11 0.000000 0.058208 0.610788
O O12 0.802965 0.020778 0.598468
O O13 0.846149 0.540179 0.149707
O O14 0.873792 0.465903 0.750000
O O15 0.814684 0.564747 0.697618
O O16 0.000000 0.515914 0.691947
O O17 0.191348 0.688797 0.828858
O O18 0.000000 0.725879 0.849423
O O19 0.500000 0.720787 0.532891
O O20 0.215219 0.147707 0.750000
#
# Coordination Sequence:
#
# PCOD9468968 Si02
#       8
#    16  16  16  16  16  16  16  16
#     4  10  21  37  57  84 108 138 183 233 282 330
#     4   9  17  28  44  70 103 137 173 217 269 320
#     4  10  21  37  56  80 111 147 184 225 273 329
#     4  10  20  33  53  79 109 141 179 230 276 324
#     4   9  18  32  50  74 105 144 187 222 262 321
#     4  10  18  30  50  77 106 137 177 226 276 324
#     4  10  21  39  61  81 108 145 185 227 278 336
#     4  10  19  32  51  78 109 144 181 222 268 319
#
# _framework density 17.21829
#
# number of rings (size 3 to 8) (size 9 to 14) (size 15 to 20)
#    0.000    2.250    1.250    1.875    0.000    4.500 
#    0.000    1.250    0.000    0.000    0.000    3.500 
#    0.000    0.000    0.000    0.000    0.000    0.000 
#
# Total GULP energy -356597.229632 kJ/mol
# GULP energy per Si atom -5571.831713 kJ/mol
# Density = 1.717910 g / cm^3
# Si number density = 17.218290 Si / 1000 Ang^3
#
#
#
# Elastic Constant Matrix: (Units=GPa)
#
#
# Indices 1 2 3 4 5 6 
#
# 1 72.0845 19.5606 34.9243 0.0000 0.0000 0.0000
# 2 19.5606 52.6294 31.9460 0.0000 0.0000 0.0000
# 3 34.9243 31.9460 96.8240 0.0000 0.0000 0.0000
# 4 0.0000 0.0000 0.0000 -18.9546 0.0000 0.0000
# 5 0.0000 0.0000 0.0000 0.0000 22.0572 0.0000
# 6 0.0000 0.0000 0.0000 0.0000 0.0000 19.2932
#
#
#
# Elastic Compliance Matrix: (Units=1/GPa)
#
#
# Indices 1 2 3 4 5 6 
#
# 1 0.017256 -0.003295 -0.005137 0.000000 0.000000 0.000000
# 2 -0.003295 0.024388 -0.006858 0.000000 0.000000 0.000000
# 3 -0.005137 -0.006858 0.014444 0.000000 0.000000 0.000000
# 4 0.000000 0.000000 0.000000 -0.052758 0.000000 0.000000
# 5 0.000000 0.000000 0.000000 0.000000 0.045337 0.000000
# 6 0.000000 0.000000 0.000000 0.000000 0.000000 0.051832
#
#
# Mechanical properties :
#
#
# Convention : Reuss Voigt Hill
#
# Bulk Modulus (GPa) = 39.20460 43.82219 41.51339
# Shear Modulus (GPa) = 35.82157 13.48632 24.65394
#
# Velocity S-wave (km/s) = 4.56613 2.80171 3.78808
# Velocity P-wave (km/s) = 7.11463 5.99769 6.57990
#
# Compressibility (1/GPa) = 0.02550721
#
# Stress axis : x y z
#
# Youngs Moduli (GPa) = 57.95241 41.00318 69.23480
#
# Poissons Ratio (x) = 0.13512 0.35565
# Poissons Ratio (y) = 0.19097 0.47482
# Poissons Ratio (z) = 0.29769 0.28120
#
# Static dielectric constant tensor:
#      x y z
#    x 1.574420 0.000000 0.000000 
#    y 0.000000 1.594770 0.000000 
#    z 0.000000 0.000000 1.587010 
# 
# From -- ./inp_files/68828.got.cif
#   From: 2010.05.17/outbox.cif.g08.bks.cpg/sg63_35_cif.got.tgz:68828.got - 2010.06.03 15:47:04.
