data_PCOD9468685
_publ_section_title
;
Structure prediction by ZEFSAII (Michael W. Deem and Ramdas Pophale) SiO2 
 PCOD9468685
Probable space group: C M C M
;
_chemical_formula_sum "Si O2"
_cell_formula_units_Z 92
_cell_length_a 22.993471
_cell_length_b 28.340740
_cell_length_c 7.385328
_cell_angle_alpha 90.000000
_cell_angle_beta 90.000000
_cell_angle_gamma 90.000000
_cell_volume 4812.663639
_symmetry_space_group_name_H-M "C M C M"
_symmetry_group_IT_number 63
_symmetry_cell_setting 'orthorhombic'
loop_
_space_group_symop_operation_xyz
x,y,z
-x,-y,1/2+z
x,-y,-z
-x,y,1/2-z
-x,-y,-z
x,y,1/2-z
-x,y,z
x,-y,1/2+z
1/2+x,1/2+y,z
1/2-x,1/2-y,1/2+z
1/2+x,1/2-y,-z
1/2-x,1/2+y,1/2-z
1/2-x,1/2-y,-z
1/2+x,1/2+y,1/2-z
1/2-x,1/2+y,z
1/2+x,1/2-y,1/2+z
loop_
_atom_site_type_symbol
_atom_site_label
_atom_site_fract_x
_atom_site_fract_y
_atom_site_fract_z
Si Si1 0.500000 0.228011 0.750000
Si Si2 0.622353 0.404788 0.529561
Si Si3 0.677768 0.305470 0.968765
Si Si4 0.000000 0.944336 0.533642
Si Si5 0.797843 0.649377 0.470461
Si Si6 0.242282 0.946775 0.965683
Si Si7 0.397299 0.784388 0.542646
O O1 0.449061 0.227275 0.591908
O O2 0.621162 0.406775 0.750000
O O3 0.639233 0.351347 0.481868
O O4 0.559736 0.421635 0.463748
O O5 0.676320 0.437307 0.467994
O O6 0.677852 0.302187 0.750000
O O7 0.743459 0.317704 0.027048
O O8 0.648680 0.258737 0.042824
O O9 0.000000 0.936960 0.750000
O O10 0.000000 0.000000 0.500000
O O11 0.797669 0.649902 0.250000
O O12 0.782482 0.596286 0.531170
O O13 0.859375 0.670818 0.523820
O O14 0.239819 0.941146 0.750000
O O15 0.261335 0.000000 0.000000
O O16 0.416709 0.792196 0.750000
#
# Coordination Sequence:
#
# PCOD9468685 Si02
#       7
#     4  16  16   8  16  16  16
#     4  12  26  42  56  82 116 152 186 228 278 338
#     4   8  16  28  45  67 100 143 187 222 274 326
#     4   9  16  33  55  81 110 147 186 236 284 330
#     4  10  18  29  42  62  87 134 190 227 263 313
#     4   8  17  33  56  80 115 149 184 228 289 341
#     4   9  16  30  48  74 108 141 175 227 286 332
#     4  11  22  39  59  84 114 150 192 230 278 340
#
# _framework density 19.116233999999999
#
# number of rings (size 3 to 8) (size 9 to 14) (size 15 to 20)
#    0.000    2.783    0.870    3.391    0.000    0.696 
#    4.696    3.478    0.000    0.000    0.000    0.609 
#    0.000    0.000    0.000    0.000    0.000    0.000 
#
# Total GULP energy -256177.982980 kJ/mol
# GULP energy per Si atom -5569.086587 kJ/mol
# Density = 1.907272 g / cm^3
# Si number density = 19.116234 Si / 1000 Ang^3
#
#
#
# Elastic Constant Matrix: (Units=GPa)
#
#
# Indices 1 2 3 4 5 6 
#
# 1 45.5912 28.1052 14.0298 0.0000 0.0000 0.0000
# 2 28.1052 79.9626 4.2135 0.0000 0.0000 0.0000
# 3 14.0298 4.2135 86.6688 0.0000 0.0000 0.0000
# 4 0.0000 0.0000 0.0000 11.2863 0.0000 0.0000
# 5 0.0000 0.0000 0.0000 0.0000 26.2999 0.0000
# 6 0.0000 0.0000 0.0000 0.0000 0.0000 8.6483
#
#
#
# Elastic Compliance Matrix: (Units=1/GPa)
#
#
# Indices 1 2 3 4 5 6 
#
# 1 0.029506 -0.010145 -0.004283 0.000000 0.000000 0.000000
# 2 -0.010145 0.016026 0.000863 0.000000 0.000000 0.000000
# 3 -0.004283 0.000863 0.012190 0.000000 0.000000 0.000000
# 4 0.000000 0.000000 0.000000 0.088603 0.000000 0.000000
# 5 0.000000 0.000000 0.000000 0.000000 0.038023 0.000000
# 6 0.000000 0.000000 0.000000 0.000000 0.000000 0.115630
#
#
# Mechanical properties :
#
#
# Convention : Reuss Voigt Hill
#
# Bulk Modulus (GPa) = 32.68873 33.87996 33.28434
# Shear Modulus (GPa) = 14.82338 20.30517 17.56428
#
# Velocity S-wave (km/s) = 2.78768 3.26267 3.03448
# Velocity P-wave (km/s) = 5.24392 5.65287 5.45223
#
# Compressibility (1/GPa) = 0.03059159
#
# Stress axis : x y z
#
# Youngs Moduli (GPa) = 33.89120 62.39796 82.03738
#
# Poissons Ratio (x) = 0.63303 0.35138
# Poissons Ratio (y) = 0.34383 -0.07081
# Poissons Ratio (z) = 0.14516 -0.05386
#
# Static dielectric constant tensor:
#      x y z
#    x 1.646710 0.000000 0.000000 
#    y 0.000000 1.677270 0.000000 
#    z 0.000000 0.000000 1.723250 
# 
# From -- ./inp_files/8681.got.cif
#   From: 2010.05.17/outbox.cif.g08.bks.cpg/sg63_5_cif.got.tgz:8681.got - 2010.06.03 15:47:04.
