data_PCOD9468442
_publ_section_title
;
Structure prediction by ZEFSAII (Michael W. Deem and Ramdas Pophale) SiO2 
 PCOD9468442
Probable space group: C M C M
;
_chemical_formula_sum "Si O2"
_cell_formula_units_Z 36
_cell_length_a 7.713680
_cell_length_b 16.488263
_cell_length_c 15.205387
_cell_angle_alpha 90.000000
_cell_angle_beta 90.000000
_cell_angle_gamma 90.000000
_cell_volume 1933.899952
_symmetry_space_group_name_H-M "C M C M"
_symmetry_group_IT_number 63
_symmetry_cell_setting 'orthorhombic'
loop_
_space_group_symop_operation_xyz
x,y,z
-x,-y,1/2+z
x,-y,-z
-x,y,1/2-z
-x,-y,-z
x,y,1/2-z
-x,y,z
x,-y,1/2+z
1/2+x,1/2+y,z
1/2-x,1/2-y,1/2+z
1/2+x,1/2-y,-z
1/2-x,1/2+y,1/2-z
1/2-x,1/2-y,-z
1/2+x,1/2+y,1/2-z
1/2-x,1/2+y,z
1/2+x,1/2-y,1/2+z
loop_
_atom_site_type_symbol
_atom_site_label
_atom_site_fract_x
_atom_site_fract_y
_atom_site_fract_z
Si Si1 0.500000 0.062580 0.579303
Si Si2 0.700774 0.319817 0.750000
Si Si3 0.000000 0.548829 0.250000
Si Si4 0.799518 0.832826 0.351004
O O1 0.500000 0.007238 0.665436
O O2 0.500000 0.000000 0.500000
O O3 0.668824 0.119929 0.586653
O O4 0.500000 0.342439 0.750000
O O5 0.831999 0.393490 0.750000
O O6 0.741906 0.260098 0.667278
O O7 0.786657 0.867320 0.250000
O O8 0.000000 0.836328 0.377554
#
# Coordination Sequence:
#
# PCOD9468442 Si02
#       4
#     8   8   4  16
#     4  12  24  38  60  90 125 158 192 242 297 356
#     4  10  17  33  67  87 108 157 196 242 299 342
#     4  12  22  38  58  98 112 140 212 252 270 356
#     4   9  16  36  65  81 109 164 195 227 305 352
#
# _framework density 18.615234000000001
#
# number of rings (size 3 to 8) (size 9 to 14) (size 15 to 20)
#    1.333    0.444    6.667    0.000    0.000    2.667 
#    0.000    2.222    0.000    0.000    0.000    0.000 
#    0.000    0.000    0.000    0.000    0.000    0.000 
#
# Total GULP energy -100272.554654 kJ/mol
# GULP energy per Si atom -5570.697481 kJ/mol
# Density = 1.857286 g / cm^3
# Si number density = 18.615234 Si / 1000 Ang^3
#
#
#
# Elastic Constant Matrix: (Units=GPa)
#
#
# Indices 1 2 3 4 5 6 
#
# 1 174.0766 30.4366 -2.8643 0.0000 0.0000 0.0000
# 2 30.4366 60.5153 -1.9670 0.0000 0.0000 0.0000
# 3 -2.8643 -1.9670 29.9309 0.0000 0.0000 0.0000
# 4 0.0000 0.0000 0.0000 -46.1728 0.0000 0.0000
# 5 0.0000 0.0000 0.0000 0.0000 6.3730 0.0000
# 6 0.0000 0.0000 0.0000 0.0000 0.0000 12.0945
#
#
#
# Elastic Compliance Matrix: (Units=1/GPa)
#
#
# Indices 1 2 3 4 5 6 
#
# 1 0.006303 -0.003157 0.000396 0.000000 0.000000 0.000000
# 2 -0.003157 0.018142 0.000890 0.000000 0.000000 0.000000
# 3 0.000396 0.000890 0.033507 0.000000 0.000000 0.000000
# 4 0.000000 0.000000 0.000000 -0.021658 0.000000 0.000000
# 5 0.000000 0.000000 0.000000 0.000000 0.156911 0.000000
# 6 0.000000 0.000000 0.000000 0.000000 0.000000 0.082682
#
#
# Mechanical properties :
#
#
# Convention : Reuss Voigt Hill
#
# Bulk Modulus (GPa) = 18.44735 35.08150 26.76442
# Shear Modulus (GPa) = 16.79546 10.38678 13.59112
#
# Velocity S-wave (km/s) = 3.00699 2.36471 2.70498
# Velocity P-wave (km/s) = 4.68907 5.13247 4.91577
#
# Compressibility (1/GPa) = 0.05420833
#
# Stress axis : x y z
#
# Youngs Moduli (GPa) = 158.65055 55.12164 29.84485
#
# Poissons Ratio (x) = 0.17404 -0.01181
# Poissons Ratio (y) = 0.50092 -0.02656
# Poissons Ratio (z) = -0.06278 -0.04906
#
# Static dielectric constant tensor:
#      x y z
#    x 1.644460 0.000000 0.000000 
#    y 0.000000 1.634210 0.000000 
#    z 0.000000 0.000000 1.619270 
# 
# From -- ./inp_files/26635.got.cif
#   From: 2010.05.17/outbox.cif.g08.bks.cpg/sg63_14_cif.got.tgz:26635.got - 2010.06.03 15:47:04.
