data_PCOD9468935
_publ_section_title
;
Structure prediction by ZEFSAII (Michael W. Deem and Ramdas Pophale) SiO2 
 PCOD9468935
Probable space group: C M C M
;
_chemical_formula_sum "Si O2"
_cell_formula_units_Z 96
_cell_length_a 10.723022
_cell_length_b 20.066872
_cell_length_c 25.975071
_cell_angle_alpha 90.000000
_cell_angle_beta 90.000000
_cell_angle_gamma 90.000000
_cell_volume 5589.251098
_symmetry_space_group_name_H-M "C M C M"
_symmetry_group_IT_number 63
_symmetry_cell_setting 'orthorhombic'
loop_
_space_group_symop_operation_xyz
x,y,z
-x,-y,1/2+z
x,-y,-z
-x,y,1/2-z
-x,-y,-z
x,y,1/2-z
-x,y,z
x,-y,1/2+z
1/2+x,1/2+y,z
1/2-x,1/2-y,1/2+z
1/2+x,1/2-y,-z
1/2-x,1/2+y,1/2-z
1/2-x,1/2-y,-z
1/2+x,1/2+y,1/2-z
1/2-x,1/2+y,z
1/2+x,1/2-y,1/2+z
loop_
_atom_site_type_symbol
_atom_site_label
_atom_site_fract_x
_atom_site_fract_y
_atom_site_fract_z
Si Si1 0.353570 0.324256 0.810099
Si Si2 0.285313 0.074497 0.006409
Si Si3 0.866225 0.282127 0.970927
Si Si4 0.648748 0.556647 0.386009
Si Si5 0.355225 0.732251 0.645830
Si Si6 0.149087 0.089248 0.897729
O O1 0.350101 0.342265 0.750000
O O2 0.500000 0.306885 0.822160
O O3 0.314276 0.386577 0.845831
O O4 0.252578 0.266770 0.821091
O O5 0.212047 0.090327 0.953769
O O6 0.366577 0.139274 0.017857
O O7 0.197121 0.069764 0.056471
O O8 0.341720 0.000000 0.000000
O O9 0.853396 0.267101 0.910479
O O10 0.000000 0.252882 0.987830
O O11 0.750000 0.250000 0.000000
O O12 0.500000 0.557800 0.387180
O O13 0.687045 0.481016 0.372228
O O14 0.500000 0.737252 0.664740
O O15 0.323470 0.654952 0.634975
O O16 0.000000 0.089051 0.905405
#
# Coordination Sequence:
#
# PCOD9468935 Si02
#       6
#    16  16  16  16  16  16
#     4  10  21  37  57  79 101 129 172 224 272 318
#     4  10  18  30  49  75 109 146 176 208 255 309
#     4  11  22  34  50  76 111 147 179 212 251 306
#     4   9  17  30  51  77 106 139 173 213 261 308
#     4  10  20  35  54  77 107 139 175 217 261 310
#     4   9  17  30  49  78 111 139 173 211 251 310
#
# _framework density 17.175825
#
# number of rings (size 3 to 8) (size 9 to 14) (size 15 to 20)
#    0.000    2.167    3.333    0.500    0.000    4.000 
#    0.000    0.833    0.000    4.000    0.000    0.000 
#    0.000    0.000    0.000    0.000    0.000    0.000 
#
# Total GULP energy -267312.465285 kJ/mol
# GULP energy per Si atom -5569.009693 kJ/mol
# Density = 1.713673 g / cm^3
# Si number density = 17.175825 Si / 1000 Ang^3
#
#
#
# Elastic Constant Matrix: (Units=GPa)
#
#
# Indices 1 2 3 4 5 6 
#
# 1 47.3920 39.6485 17.4890 0.0000 0.0000 0.0000
# 2 39.6485 112.7232 24.0687 0.0000 0.0000 0.0000
# 3 17.4890 24.0687 37.4387 0.0000 0.0000 0.0000
# 4 0.0000 0.0000 0.0000 15.6612 0.0000 0.0000
# 5 0.0000 0.0000 0.0000 0.0000 19.2262 0.0000
# 6 0.0000 0.0000 0.0000 0.0000 0.0000 11.9655
#
#
#
# Elastic Compliance Matrix: (Units=1/GPa)
#
#
# Indices 1 2 3 4 5 6 
#
# 1 0.032336 -0.009445 -0.009033 0.000000 0.000000 0.000000
# 2 -0.009445 0.013041 -0.003972 0.000000 0.000000 0.000000
# 3 -0.009033 -0.003972 0.033484 0.000000 0.000000 0.000000
# 4 0.000000 0.000000 0.000000 0.063852 0.000000 0.000000
# 5 0.000000 0.000000 0.000000 0.000000 0.052012 0.000000
# 6 0.000000 0.000000 0.000000 0.000000 0.000000 0.083573
#
#
# Mechanical properties :
#
#
# Convention : Reuss Voigt Hill
#
# Bulk Modulus (GPa) = 29.44601 39.99626 34.72113
# Shear Modulus (GPa) = 14.94683 17.12711 16.03697
#
# Velocity S-wave (km/s) = 2.95316 3.16122 3.05896
# Velocity P-wave (km/s) = 5.36743 6.05486 5.72148
#
# Compressibility (1/GPa) = 0.03396046
#
# Stress axis : x y z
#
# Youngs Moduli (GPa) = 30.92560 76.67869 29.86528
#
# Poissons Ratio (x) = 0.72421 0.26978
# Poissons Ratio (y) = 0.29208 0.11863
# Poissons Ratio (z) = 0.27936 0.30458
#
# Static dielectric constant tensor:
#      x y z
#    x 1.594040 0.000000 0.000000 
#    y 0.000000 1.634820 0.000000 
#    z 0.000000 0.000000 1.547340 
# 
# From -- ./inp_files/61492.got.cif
#   From: 2010.05.17/outbox.cif.g08.bks.cpg/sg63_31_cif.got.tgz:61492.got - 2010.06.03 15:47:04.
