data_PCOD9468750
_publ_section_title
;
Structure prediction by ZEFSAII (Michael W. Deem and Ramdas Pophale) SiO2 
 PCOD9468750
Probable space group: C M C M
;
_chemical_formula_sum "Si O2"
_cell_formula_units_Z 96
_cell_length_a 7.707960
_cell_length_b 23.581853
_cell_length_c 31.546644
_cell_angle_alpha 90.000000
_cell_angle_beta 90.000000
_cell_angle_gamma 90.000000
_cell_volume 5734.169745
_symmetry_space_group_name_H-M "C M C M"
_symmetry_group_IT_number 63
_symmetry_cell_setting 'orthorhombic'
loop_
_space_group_symop_operation_xyz
x,y,z
-x,-y,1/2+z
x,-y,-z
-x,y,1/2-z
-x,-y,-z
x,y,1/2-z
-x,y,z
x,-y,1/2+z
1/2+x,1/2+y,z
1/2-x,1/2-y,1/2+z
1/2+x,1/2-y,-z
1/2-x,1/2+y,1/2-z
1/2-x,1/2-y,-z
1/2+x,1/2+y,1/2-z
1/2-x,1/2+y,z
1/2+x,1/2-y,1/2+z
loop_
_atom_site_type_symbol
_atom_site_label
_atom_site_fract_x
_atom_site_fract_y
_atom_site_fract_z
Si Si1 0.691649 0.898059 0.643178
Si Si2 0.500000 0.397517 0.797215
Si Si3 0.206831 0.735511 0.132651
Si Si4 0.500000 0.259953 0.700487
Si Si5 0.210568 0.969254 0.563295
Si Si6 0.711121 0.414022 0.473867
Si Si7 0.291490 0.713221 0.958145
O O1 0.500000 0.900003 0.661497
O O2 0.725081 0.832790 0.629737
O O3 0.708986 0.938193 0.602961
O O4 0.832155 0.915499 0.677229
O O5 0.500000 0.419131 0.750000
O O6 0.500000 0.328681 0.796500
O O7 0.330449 0.754706 0.171665
O O8 0.264001 0.760823 0.087142
O O9 0.000000 0.747566 0.139431
O O10 0.500000 0.239756 0.750000
O O11 0.259538 0.935095 0.520774
O O12 0.000000 0.967083 0.566644
O O13 0.262853 0.034749 0.557149
O O14 0.500000 0.412638 0.473133
O O15 0.774237 0.351148 0.463753
O O16 0.500000 0.711202 0.955983
O O17 0.250000 0.750000 0.000000
#
# Coordination Sequence:
#
# PCOD9468750 Si02
#       7
#    16   8  16   8  16  16  16
#     4  10  18  29  47  71  96 125 156 191 237 285
#     4   9  18  32  48  71  97 123 152 189 240 295
#     4   9  19  31  46  71 102 127 159 198 240 294
#     4   9  18  32  52  72  95 126 160 200 247 290
#     4   9  15  28  47  67  92 126 166 200 233 273
#     4   8  16  28  45  66  93 128 167 201 230 272
#     4  10  19  30  44  67  99 135 167 197 242 287
#
# _framework density 16.741745000000002
#
# number of rings (size 3 to 8) (size 9 to 14) (size 15 to 20)
#    0.000    2.833    0.833    2.000    1.167    0.667 
#    0.000    5.833    0.000    0.000    0.000    1.167 
#    0.000    0.000    0.000    0.000    0.000    0.000 
#
# Total GULP energy -267422.838022 kJ/mol
# GULP energy per Si atom -5571.309125 kJ/mol
# Density = 1.670364 g / cm^3
# Si number density = 16.741745 Si / 1000 Ang^3
#
#
#
# Elastic Constant Matrix: (Units=GPa)
#
#
# Indices 1 2 3 4 5 6 
#
# 1 62.9661 36.4828 53.9773 0.0000 0.0000 0.0000
# 2 36.4828 82.2948 58.2441 0.0000 0.0000 0.0000
# 3 53.9773 58.2441 137.4613 0.0000 0.0000 0.0000
# 4 0.0000 0.0000 0.0000 18.8313 0.0000 0.0000
# 5 0.0000 0.0000 0.0000 0.0000 -2.6913 0.0000
# 6 0.0000 0.0000 0.0000 0.0000 0.0000 9.6981
#
#
#
# Elastic Compliance Matrix: (Units=1/GPa)
#
#
# Indices 1 2 3 4 5 6 
#
# 1 0.025937 -0.006128 -0.007588 0.000000 0.000000 0.000000
# 2 -0.006128 0.018804 -0.005561 0.000000 0.000000 0.000000
# 3 -0.007588 -0.005561 0.012611 0.000000 0.000000 0.000000
# 4 0.000000 0.000000 0.000000 0.053103 0.000000 0.000000
# 5 0.000000 0.000000 0.000000 0.000000 -0.371568 0.000000
# 6 0.000000 0.000000 0.000000 0.000000 0.000000 0.103113
#
#
# Mechanical properties :
#
#
# Convention : Reuss Voigt Hill
#
# Bulk Modulus (GPa) = 53.19952 64.45898 58.82925
# Shear Modulus (GPa) = -44.17771 14.10214 -15.03778
#
# Velocity S-wave (km/s) = -5.14247 2.90545 -3.00028
# Velocity P-wave (km/s) = 1.84784 7.05982 4.81801
#
# Compressibility (1/GPa) = 0.01879716
#
# Stress axis : x y z
#
# Youngs Moduli (GPa) = 38.55487 53.18028 79.29633
#
# Poissons Ratio (x) = 0.32587 0.60173
# Poissons Ratio (y) = 0.23625 0.44099
# Poissons Ratio (z) = 0.29257 0.29575
#
# Static dielectric constant tensor:
#      x y z
#    x 1.689860 0.000000 0.000000 
#    y 0.000000 1.557340 0.000000 
#    z 0.000000 0.000000 1.543660 
# 
# From -- ./inp_files/67307.got.cif
#   From: 2010.05.17/outbox.cif.g08.bks.cpg/sg63_34_cif.got.tgz:67307.got - 2010.06.03 15:47:04.
