data_PCOD9468068
_publ_section_title
;
Structure prediction by ZEFSAII (Michael W. Deem and Ramdas Pophale) SiO2 
 PCOD9468068
Probable space group: P N M A
;
_chemical_formula_sum "Si O2"
_cell_formula_units_Z 48
_cell_length_a 15.000000
_cell_length_b 9.000000
_cell_length_c 18.000000
_cell_angle_alpha 90.000000
_cell_angle_beta 90.000000
_cell_angle_gamma 90.000000
_cell_volume 2430.000000
_symmetry_space_group_name_H-M "P N M A"
_symmetry_group_IT_number 62
_symmetry_cell_setting 'orthorhombic'
loop_
_space_group_symop_operation_xyz
x,y,z
1/2-x,-y,1/2+z
1/2+x,1/2-y,1/2-z
-x,1/2+y,-z
-x,-y,-z
1/2+x,y,1/2-z
1/2-x,1/2+y,1/2+z
x,1/2-y,z
loop_
_atom_site_type_symbol
_atom_site_label
_atom_site_fract_x
_atom_site_fract_y
_atom_site_fract_z
Si Si1 0.546236 0.928883 0.209340
Si Si2 0.371156 0.427735 0.149555
Si Si3 0.360615 0.082043 0.405752
Si Si4 0.946737 0.925814 0.866323
Si Si5 0.773356 0.078839 0.934725
Si Si6 0.255989 0.925180 0.281683
O O1 0.537617 0.750000 0.208725
O O2 0.652280 0.965182 0.200443
O O3 0.469452 0.999869 0.157481
O O4 0.524664 0.999089 0.289371
O O5 0.377742 0.250000 0.151865
O O6 0.316549 0.486752 0.078420
O O7 0.304812 0.486408 0.215136
O O8 0.354111 0.250000 0.372855
O O9 0.465901 0.056006 0.417667
O O10 0.305496 0.079763 0.480921
O O11 0.316751 0.963695 0.351842
O O12 0.929673 0.750000 0.857541
O O13 0.857076 0.005697 0.892242
O O14 0.760962 0.250000 0.910577
O O15 0.257500 0.750000 0.265060
#
# Coordination Sequence:
#
# PCOD9468068 Si02
#       6
#     8   8   8   8   8   8
#     4  11  23  39  61  91 122 157 201 249 300 357
#     4  12  24  39  62  89 120 158 203 252 299 356
#     4  10  23  40  60  88 124 161 201 248 302 359
#     4  11  21  35  59  92 125 160 198 246 302 359
#     4  11  23  40  60  87 124 164 202 247 302 360
#     4  11  23  39  63  89 119 158 200 246 299 361
#
# _framework density 19.753086
#
# number of rings (size 3 to 8) (size 9 to 14) (size 15 to 20)
#    0.000    1.000    3.333    4.000    0.000    4.000 
#    0.000    0.833    0.000    0.000    0.000    0.000 
#    0.000    0.000    0.000    0.000    0.000    0.000 
#
# Total GULP energy -268002.549493 kJ/mol
# GULP energy per Si atom -5583.386448 kJ/mol
# Density = 1.970813 g / cm^3
# Si number density = 19.753086 Si / 1000 Ang^3
#
#
#
# Elastic Constant Matrix: (Units=GPa)
#
#
# Indices 1 2 3 4 5 6 
#
# 1 89.1812 34.7670 -14.8003 0.0000 0.0000 0.0000
# 2 34.7670 105.0394 0.7752 0.0000 0.0000 0.0000
# 3 -14.8003 0.7752 15.4123 0.0000 0.0000 0.0000
# 4 0.0000 0.0000 0.0000 19.9784 0.0000 0.0000
# 5 0.0000 0.0000 0.0000 0.0000 33.2709 0.0000
# 6 0.0000 0.0000 0.0000 0.0000 0.0000 35.4053
#
#
#
# Elastic Compliance Matrix: (Units=1/GPa)
#
#
# Indices 1 2 3 4 5 6 
#
# 1 0.015883 -0.005372 0.015523 0.000000 0.000000 0.000000
# 2 -0.005372 0.011341 -0.005729 0.000000 0.000000 0.000000
# 3 0.015523 -0.005729 0.080078 0.000000 0.000000 0.000000
# 4 0.000000 0.000000 0.000000 0.050054 0.000000 0.000000
# 5 0.000000 0.000000 0.000000 0.000000 0.030056 0.000000
# 6 0.000000 0.000000 0.000000 0.000000 0.000000 0.028244
#
#
# Mechanical properties :
#
#
# Convention : Reuss Voigt Hill
#
# Bulk Modulus (GPa) = 8.60983 27.90185 18.25584
# Shear Modulus (GPa) = 20.36431 30.32365 25.34398
#
# Velocity S-wave (km/s) = 3.21431 3.92233 3.58584
# Velocity P-wave (km/s) = 4.25957 5.88803 5.13872
#
# Compressibility (1/GPa) = 0.11614628
#
# Stress axis : x y z
#
# Youngs Moduli (GPa) = 62.95857 88.17922 12.48784
#
# Poissons Ratio (x) = 0.47368 -0.19385
# Poissons Ratio (y) = 0.33820 0.07154
# Poissons Ratio (z) = -0.97730 0.50517
#
# Static dielectric constant tensor:
#      x y z
#    x 1.692930 0.000000 0.000000 
#    y 0.000000 1.677710 0.000000 
#    z 0.000000 0.000000 1.752820 
# 
# From -- ./inp_files/23674.got.cif
#   From: 2010.05.17/outbox.ucp.g08.bks.cvg/sg62_12_cif.got.tgz:23674.got - 2010.06.11 16:29:25.
