data_PCOD9468982
_publ_section_title
;
Structure prediction by ZEFSAII (Michael W. Deem and Ramdas Pophale) SiO2 
 PCOD9468982
Probable space group: C M C M
;
_chemical_formula_sum "Si O2"
_cell_formula_units_Z 96
_cell_length_a 12.385318
_cell_length_b 30.236330
_cell_length_c 13.837174
_cell_angle_alpha 90.000000
_cell_angle_beta 90.000000
_cell_angle_gamma 90.000000
_cell_volume 5181.835722
_symmetry_space_group_name_H-M "C M C M"
_symmetry_group_IT_number 63
_symmetry_cell_setting 'orthorhombic'
loop_
_space_group_symop_operation_xyz
x,y,z
-x,-y,1/2+z
x,-y,-z
-x,y,1/2-z
-x,-y,-z
x,y,1/2-z
-x,y,z
x,-y,1/2+z
1/2+x,1/2+y,z
1/2-x,1/2-y,1/2+z
1/2+x,1/2-y,-z
1/2-x,1/2+y,1/2-z
1/2-x,1/2-y,-z
1/2+x,1/2+y,1/2-z
1/2-x,1/2+y,z
1/2+x,1/2-y,1/2+z
loop_
_atom_site_type_symbol
_atom_site_label
_atom_site_fract_x
_atom_site_fract_y
_atom_site_fract_z
Si Si1 0.500000 0.771902 0.368415
Si Si2 0.277255 0.376169 0.634132
Si Si3 0.375389 0.203254 0.131915
Si Si4 0.260781 0.210091 0.867875
Si Si5 0.500000 0.329220 0.867139
Si Si6 0.126490 0.948855 0.980780
Si Si7 0.623714 0.374120 0.363169
O O1 0.500000 0.772563 0.250000
O O2 0.614600 0.791510 0.398986
O O3 0.500000 0.720971 0.400104
O O4 0.274964 0.378460 0.750000
O O5 0.181500 0.343044 0.604323
O O6 0.390751 0.353418 0.603900
O O7 0.290092 0.424996 0.591191
O O8 0.375232 0.203919 0.250000
O O9 0.500000 0.207274 0.101548
O O10 0.301778 0.245175 0.102309
O O11 0.260006 0.211223 0.750000
O O12 0.199178 0.165774 0.896699
O O13 0.500000 0.328303 0.750000
O O14 0.000000 0.946261 0.947017
O O15 0.134704 0.918927 0.076820
O O16 0.149506 0.000000 0.000000
O O17 0.644410 0.382396 0.250000
O O18 0.500000 0.358616 0.372543
#
# Coordination Sequence:
#
# PCOD9468982 Si02
#       7
#     8  16  16  16   8  16  16
#     4   9  14  22  42  73 104 135 169 200 237 282
#     4  10  18  30  51  76 103 132 162 201 249 299
#     4   9  16  26  45  74 105 137 170 200 236 289
#     4   9  15  25  45  72 102 136 169 201 237 284
#     4   9  14  24  43  71 102 131 160 192 242 292
#     4  10  21  35  52  75 100 125 161 212 261 304
#     4   9  18  33  51  71  99 135 168 199 242 294
#
# _framework density 18.526251999999999
#
# number of rings (size 3 to 8) (size 9 to 14) (size 15 to 20)
#    0.000    2.667    2.500    0.500    0.000    2.667 
#    0.000    2.500    1.833    0.500    0.000    0.000 
#    0.000    0.000    0.000    0.000    0.000    0.000 
#
# Total GULP energy -267990.296175 kJ/mol
# GULP energy per Si atom -5583.131170 kJ/mol
# Density = 1.848409 g / cm^3
# Si number density = 18.526252 Si / 1000 Ang^3
#
#
#
# Elastic Constant Matrix: (Units=GPa)
#
#
# Indices 1 2 3 4 5 6 
#
# 1 124.2158 77.0657 34.1329 0.0000 0.0000 0.0000
# 2 77.0657 151.5143 28.3918 0.0000 0.0000 0.0000
# 3 34.1329 28.3918 63.1359 0.0000 0.0000 0.0000
# 4 0.0000 0.0000 0.0000 21.6359 0.0000 0.0000
# 5 0.0000 0.0000 0.0000 0.0000 21.3290 0.0000
# 6 0.0000 0.0000 0.0000 0.0000 0.0000 16.5394
#
#
#
# Elastic Compliance Matrix: (Units=1/GPa)
#
#
# Indices 1 2 3 4 5 6 
#
# 1 0.012770 -0.005680 -0.004349 0.000000 0.000000 0.000000
# 2 -0.005680 0.009734 -0.001306 0.000000 0.000000 0.000000
# 3 -0.004349 -0.001306 0.018778 0.000000 0.000000 0.000000
# 4 0.000000 0.000000 0.000000 0.046219 0.000000 0.000000
# 5 0.000000 0.000000 0.000000 0.000000 0.046885 0.000000
# 6 0.000000 0.000000 0.000000 0.000000 0.000000 0.060462
#
#
# Mechanical properties :
#
#
# Convention : Reuss Voigt Hill
#
# Bulk Modulus (GPa) = 53.73587 68.67185 61.20386
# Shear Modulus (GPa) = 22.34919 25.18592 23.76756
#
# Velocity S-wave (km/s) = 3.47703 3.69110 3.58566
# Velocity P-wave (km/s) = 6.72219 7.43730 7.08877
#
# Compressibility (1/GPa) = 0.01860954
#
# Stress axis : x y z
#
# Youngs Moduli (GPa) = 78.31046 102.73304 53.25468
#
# Poissons Ratio (x) = 0.58354 0.23162
# Poissons Ratio (y) = 0.44481 0.06958
# Poissons Ratio (z) = 0.34060 0.13422
#
# Static dielectric constant tensor:
#      x y z
#    x 1.636350 0.000000 0.000000 
#    y 0.000000 1.602590 0.000000 
#    z 0.000000 0.000000 1.732030 
# 
# From -- ./inp_files/30344.got.cif
#   From: 2010.05.17/outbox.cif.g08.bks.cpg/sg63_16_cif.got.tgz:30344.got - 2010.06.03 15:47:04.
