data_PCOD9468333
_publ_section_title
;
Structure prediction by ZEFSAII (Michael W. Deem and Ramdas Pophale) SiO2 
 PCOD9468333
Probable space group: C M C M
;
_chemical_formula_sum "Si O2"
_cell_formula_units_Z 96
_cell_length_a 7.382927
_cell_length_b 29.952794
_cell_length_c 21.255830
_cell_angle_alpha 90.000000
_cell_angle_beta 90.000000
_cell_angle_gamma 90.000000
_cell_volume 4700.499187
_symmetry_space_group_name_H-M "C M C M"
_symmetry_group_IT_number 63
_symmetry_cell_setting 'orthorhombic'
loop_
_space_group_symop_operation_xyz
x,y,z
-x,-y,1/2+z
x,-y,-z
-x,y,1/2-z
-x,-y,-z
x,y,1/2-z
-x,y,z
x,-y,1/2+z
1/2+x,1/2+y,z
1/2-x,1/2-y,1/2+z
1/2+x,1/2-y,-z
1/2-x,1/2+y,1/2-z
1/2-x,1/2-y,-z
1/2+x,1/2+y,1/2-z
1/2-x,1/2+y,z
1/2+x,1/2-y,1/2+z
loop_
_atom_site_type_symbol
_atom_site_label
_atom_site_fract_x
_atom_site_fract_y
_atom_site_fract_z
Si Si1 0.278748 0.970811 0.179146
Si Si2 0.782148 0.375649 0.374026
Si Si3 0.785627 0.778575 0.319728
Si Si4 0.783310 0.721755 0.063139
Si Si5 0.278605 0.873959 0.980566
Si Si6 0.220837 0.528870 0.439163
O O1 0.221221 0.981555 0.250000
O O2 0.500000 0.970857 0.178820
O O3 0.220443 0.920907 0.159602
O O4 0.220615 0.005051 0.124975
O O5 0.734193 0.330330 0.338552
O O6 0.720533 0.373840 0.446453
O O7 0.000000 0.377797 0.375729
O O8 0.710442 0.770682 0.250000
O O9 0.711323 0.748125 0.376217
O O10 0.000000 0.769647 0.316826
O O11 0.716794 0.671405 0.052702
O O12 0.000000 0.718932 0.069848
O O13 0.750000 0.750000 0.000000
O O14 0.500000 0.873633 0.980916
O O15 0.222064 0.920045 0.948209
O O16 0.276461 0.500000 0.500000
O O17 0.000000 0.528496 0.439204
#
# Coordination Sequence:
#
# PCOD9468333 Si02
#       6
#    16  16  16  16  16  16
#     4   9  16  24  37  63  95 120 145 183 229 271
#     4  10  17  28  48  72  95 117 149 195 234 268
#     4  10  21  34  46  65  96 129 154 184 234 286
#     4  10  19  32  49  68  92 121 157 195 229 272
#     4   9  16  26  43  67  89 113 151 191 225 264
#     4   9  14  23  38  58  88 120 144 174 222 273
#
# _framework density 20.423362000000001
#
# number of rings (size 3 to 8) (size 9 to 14) (size 15 to 20)
#    0.000    2.500    3.333    0.500    0.000    1.000 
#    0.000    0.833    0.000    5.000    0.000    3.500 
#    0.000    0.000    0.000    0.000    0.000    0.000 
#
# Total GULP energy -268086.865661 kJ/mol
# GULP energy per Si atom -5585.143035 kJ/mol
# Density = 2.037688 g / cm^3
# Si number density = 20.423362 Si / 1000 Ang^3
#
#
#
# Elastic Constant Matrix: (Units=GPa)
#
#
# Indices 1 2 3 4 5 6 
#
# 1 71.8910 2.4410 7.4604 0.0000 0.0000 0.0000
# 2 2.4410 193.3520 124.2756 0.0000 0.0000 0.0000
# 3 7.4604 124.2756 223.8954 0.0000 0.0000 0.0000
# 4 0.0000 0.0000 0.0000 22.7582 0.0000 0.0000
# 5 0.0000 0.0000 0.0000 0.0000 1.4056 0.0000
# 6 0.0000 0.0000 0.0000 0.0000 0.0000 8.6913
#
#
#
# Elastic Compliance Matrix: (Units=1/GPa)
#
#
# Indices 1 2 3 4 5 6 
#
# 1 0.013963 0.000191 -0.000571 0.000000 0.000000 0.000000
# 2 0.000191 0.008043 -0.004471 0.000000 0.000000 0.000000
# 3 -0.000571 -0.004471 0.006967 0.000000 0.000000 0.000000
# 4 0.000000 0.000000 0.000000 0.043940 0.000000 0.000000
# 5 0.000000 0.000000 0.000000 0.000000 0.711424 0.000000
# 6 0.000000 0.000000 0.000000 0.000000 0.000000 0.115057
#
#
# Mechanical properties :
#
#
# Convention : Reuss Voigt Hill
#
# Bulk Modulus (GPa) = 51.89261 84.16582 68.02921
# Shear Modulus (GPa) = 5.46138 30.23512 17.84825
#
# Velocity S-wave (km/s) = 1.63704 3.85179 2.95941
# Velocity P-wave (km/s) = 5.38858 7.81548 6.71262
#
# Compressibility (1/GPa) = 0.01927057
#
# Stress axis : x y z
#
# Youngs Moduli (GPa) = 71.61922 124.33110 143.53517
#
# Poissons Ratio (x) = -0.02373 0.08199
# Poissons Ratio (y) = -0.01367 0.64171
# Poissons Ratio (z) = 0.04091 0.55585
#
# Static dielectric constant tensor:
#      x y z
#    x 1.813160 0.000000 0.000000 
#    y 0.000000 1.688560 0.000000 
#    z 0.000000 0.000000 1.702160 
# 
# From -- ./inp_files/53023.got.cif
#   From: 2010.05.17/outbox.cif.g08.bks.cpg/sg63_27_cif.got.tgz:53023.got - 2010.06.03 15:47:04.
