data_PCOD9468659
_publ_section_title
;
Structure prediction by ZEFSAII (Michael W. Deem and Ramdas Pophale) SiO2 
 PCOD9468659
Probable space group: C M C M
;
_chemical_formula_sum "Si O2"
_cell_formula_units_Z 64
_cell_length_a 7.649507
_cell_length_b 18.841031
_cell_length_c 21.894880
_cell_angle_alpha 90.000000
_cell_angle_beta 90.000000
_cell_angle_gamma 90.000000
_cell_volume 3155.590790
_symmetry_space_group_name_H-M "C M C M"
_symmetry_group_IT_number 63
_symmetry_cell_setting 'orthorhombic'
loop_
_space_group_symop_operation_xyz
x,y,z
-x,-y,1/2+z
x,-y,-z
-x,y,1/2-z
-x,-y,-z
x,y,1/2-z
-x,y,z
x,-y,1/2+z
1/2+x,1/2+y,z
1/2-x,1/2-y,1/2+z
1/2+x,1/2-y,-z
1/2-x,1/2+y,1/2-z
1/2-x,1/2-y,-z
1/2+x,1/2+y,1/2-z
1/2-x,1/2+y,z
1/2+x,1/2-y,1/2+z
loop_
_atom_site_type_symbol
_atom_site_label
_atom_site_fract_x
_atom_site_fract_y
_atom_site_fract_z
Si Si1 0.210531 0.581844 0.118529
Si Si2 0.302119 0.905896 0.250000
Si Si3 0.285333 0.917292 0.117698
Si Si4 0.790027 0.332756 0.501234
Si Si5 0.200400 0.934169 0.750000
O O1 0.267239 0.499726 0.111008
O O2 0.263432 0.605240 0.186632
O O3 0.000000 0.581933 0.116767
O O4 0.276057 0.629589 0.062910
O O5 0.500000 0.877751 0.250000
O O6 0.223359 0.888902 0.183819
O O7 0.308640 0.992443 0.250000
O O8 0.500000 0.916626 0.119496
O O9 0.226401 0.872048 0.059888
O O10 0.750000 0.250000 0.500000
O O11 0.000000 0.341149 0.501286
O O12 0.000000 0.956924 0.750000
#
# Coordination Sequence:
#
# PCOD9468659 Si02
#       5
#    16   8  16  16   8
#     4   9  17  32  53  72  93 127 167 201 235 283
#     4   8  14  28  51  74  95 121 157 199 237 280
#     4   8  14  28  52  76  93 119 163 202 230 273
#     4  10  20  33  49  70  99 132 165 202 241 283
#     4  10  18  28  47  76 103 121 147 199 255 294
#
# _framework density 20.281465000000001
#
# number of rings (size 3 to 8) (size 9 to 14) (size 15 to 20)
#    0.000    3.000    0.000    3.375    0.000    4.000 
#    0.000    6.250    0.000    9.000    0.000    0.000 
#    0.000    0.000    0.000    0.000    0.000    0.000 
#
# Total GULP energy -178388.391060 kJ/mol
# GULP energy per Si atom -5574.637221 kJ/mol
# Density = 2.023530 g / cm^3
# Si number density = 20.281465 Si / 1000 Ang^3
#
#
#
# Elastic Constant Matrix: (Units=GPa)
#
#
# Indices 1 2 3 4 5 6 
#
# 1 47.7531 1.6807 8.9428 0.0000 0.0000 0.0000
# 2 1.6807 83.5100 101.1363 0.0000 0.0000 0.0000
# 3 8.9428 101.1363 269.8238 0.0000 0.0000 0.0000
# 4 0.0000 0.0000 0.0000 -3.6804 0.0000 0.0000
# 5 0.0000 0.0000 0.0000 0.0000 -3.1083 0.0000
# 6 0.0000 0.0000 0.0000 0.0000 0.0000 16.8381
#
#
#
# Elastic Compliance Matrix: (Units=1/GPa)
#
#
# Indices 1 2 3 4 5 6 
#
# 1 0.021099 0.000773 -0.000989 0.000000 0.000000 0.000000
# 2 0.000773 0.021957 -0.008256 0.000000 0.000000 0.000000
# 3 -0.000989 -0.008256 0.006833 0.000000 0.000000 0.000000
# 4 0.000000 0.000000 0.000000 -0.271710 0.000000 0.000000
# 5 0.000000 0.000000 0.000000 0.000000 -0.321717 0.000000
# 6 0.000000 0.000000 0.000000 0.000000 0.000000 0.059389
#
#
# Mechanical properties :
#
#
# Convention : Reuss Voigt Hill
#
# Bulk Modulus (GPa) = 30.35221 69.40070 49.87645
# Shear Modulus (GPa) = -10.95955 21.29835 5.16940
#
# Velocity S-wave (km/s) = -2.32711 3.24410 1.59824
# Velocity P-wave (km/s) = 2.78879 6.95164 5.29635
#
# Compressibility (1/GPa) = 0.03294653
#
# Stress axis : x y z
#
# Youngs Moduli (GPa) = 47.39548 45.54287 146.34098
#
# Poissons Ratio (x) = -0.03522 0.14475
# Poissons Ratio (y) = -0.03665 1.20816
# Poissons Ratio (z) = 0.04688 0.37599
#
# Static dielectric constant tensor:
#      x y z
#    x 1.770430 0.000000 0.000000 
#    y 0.000000 1.655510 0.000000 
#    z 0.000000 0.000000 1.769550 
# 
# From -- ./inp_files/50365.got.cif
#   From: 2010.05.17/outbox.cif.g08.bks.cpg/sg63_26_cif.got.tgz:50365.got - 2010.06.03 15:47:04.
