data_PCOD9468838
_publ_section_title
;
Structure prediction by ZEFSAII (Michael W. Deem and Ramdas Pophale) SiO2 
 PCOD9468838
Probable space group: C M C M
;
_chemical_formula_sum "Si O2"
_cell_formula_units_Z 88
_cell_length_a 18.332430
_cell_length_b 30.315890
_cell_length_c 7.519181
_cell_angle_alpha 90.000000
_cell_angle_beta 90.000000
_cell_angle_gamma 90.000000
_cell_volume 4178.889593
_symmetry_space_group_name_H-M "C M C M"
_symmetry_group_IT_number 63
_symmetry_cell_setting 'orthorhombic'
loop_
_space_group_symop_operation_xyz
x,y,z
-x,-y,1/2+z
x,-y,-z
-x,y,1/2-z
-x,-y,-z
x,y,1/2-z
-x,y,z
x,-y,1/2+z
1/2+x,1/2+y,z
1/2-x,1/2-y,1/2+z
1/2+x,1/2-y,-z
1/2-x,1/2+y,1/2-z
1/2-x,1/2-y,-z
1/2+x,1/2+y,1/2-z
1/2-x,1/2+y,z
1/2+x,1/2-y,1/2+z
loop_
_atom_site_type_symbol
_atom_site_label
_atom_site_fract_x
_atom_site_fract_y
_atom_site_fract_z
Si Si1 0.084232 0.887299 0.032664
Si Si2 0.500000 0.948337 0.037684
Si Si3 0.415822 0.290539 0.036807
Si Si4 0.083828 0.694356 0.538793
Si Si5 0.287475 0.448265 0.463168
Si Si6 0.644159 0.102794 0.531857
O O1 0.083108 0.887860 0.250000
O O2 0.112447 0.838394 0.978479
O O3 0.138454 0.925289 0.970822
O O4 0.000000 0.892388 0.976315
O O5 0.500000 0.942473 0.250000
O O6 0.426725 0.924748 0.973032
O O7 0.500000 0.000000 0.000000
O O8 0.417034 0.291779 0.250000
O O9 0.500000 0.288860 0.972892
O O10 0.383594 0.243109 0.989024
O O11 0.077518 0.688462 0.750000
O O12 0.131251 0.653220 0.473708
O O13 0.000000 0.692712 0.467114
O O14 0.282637 0.500000 0.500000
O O15 0.287803 0.443598 0.250000
O O16 0.217328 0.421240 0.529600
O O17 0.646030 0.102297 0.750000
#
# Coordination Sequence:
#
# PCOD9468838 Si02
#       6
#    16   8  16  16  16  16
#     4   8  15  30  51  71  92 121 154 184 224 283
#     4  10  18  30  46  64  88 120 158 196 229 266
#     4   8  14  26  45  68  92 118 149 186 226 268
#     4   9  15  26  45  67  91 122 156 186 219 266
#     4  10  20  34  51  69  91 121 155 192 234 276
#     4   9  17  30  47  66  91 124 157 187 226 275
#
# _framework density 21.058225
#
# number of rings (size 3 to 8) (size 9 to 14) (size 15 to 20)
#    0.000    3.091    0.909    1.636    0.000    0.364 
#    0.000    3.636    0.000    1.091    0.000    0.000 
#    0.000    0.000    0.000    0.000    0.000    0.000 
#
# Total GULP energy -245284.537839 kJ/mol
# GULP energy per Si atom -5574.648587 kJ/mol
# Density = 2.101030 g / cm^3
# Si number density = 21.058225 Si / 1000 Ang^3
#
#
#
# Elastic Constant Matrix: (Units=GPa)
#
#
# Indices 1 2 3 4 5 6 
#
# 1 113.3948 83.2760 7.7455 0.0000 0.0000 0.0000
# 2 83.2760 151.2544 2.2938 0.0000 0.0000 0.0000
# 3 7.7455 2.2938 49.9174 0.0000 0.0000 0.0000
# 4 0.0000 0.0000 0.0000 30.3564 0.0000 0.0000
# 5 0.0000 0.0000 0.0000 0.0000 -3.8497 0.0000
# 6 0.0000 0.0000 0.0000 0.0000 0.0000 144.8492
#
#
#
# Elastic Compliance Matrix: (Units=1/GPa)
#
#
# Indices 1 2 3 4 5 6 
#
# 1 0.014992 -0.008224 -0.001948 0.000000 0.000000 0.000000
# 2 -0.008224 0.011128 0.000765 0.000000 0.000000 0.000000
# 3 -0.001948 0.000765 0.020300 0.000000 0.000000 0.000000
# 4 0.000000 0.000000 0.000000 0.032942 0.000000 0.000000
# 5 0.000000 0.000000 0.000000 0.000000 -0.259762 0.000000
# 6 0.000000 0.000000 0.000000 0.000000 0.000000 0.006904
#
#
# Mechanical properties :
#
#
# Convention : Reuss Voigt Hill
#
# Bulk Modulus (GPa) = 36.22658 55.68861 45.95759
# Shear Modulus (GPa) = -34.36916 49.02128 7.32606
#
# Velocity S-wave (km/s) = -4.04431 4.83006 1.86722
# Velocity P-wave (km/s) = 2.13733 7.59002 5.14977
#
# Compressibility (1/GPa) = 0.02760404
#
# Stress axis : x y z
#
# Youngs Moduli (GPa) = 66.70314 89.86403 49.26049
#
# Poissons Ratio (x) = 0.73908 0.09597
# Poissons Ratio (y) = 0.54860 -0.03767
# Poissons Ratio (z) = 0.12996 -0.06873
#
# Static dielectric constant tensor:
#      x y z
#    x 1.742530 0.000000 0.000000 
#    y 0.000000 1.770990 0.000000 
#    z 0.000000 0.000000 1.809980 
# 
# From -- ./inp_files/6812.got.cif
#   From: 2010.05.17/outbox.cif.g08.bks.cpg/sg63_4_cif.got.tgz:6812.got - 2010.06.03 15:47:04.
