data_PCOD9468907
_publ_section_title
;
Structure prediction by ZEFSAII (Michael W. Deem and Ramdas Pophale) SiO2 
 PCOD9468907
Probable space group: C M C M
;
_chemical_formula_sum "Si O2"
_cell_formula_units_Z 96
_cell_length_a 23.588117
_cell_length_b 27.564546
_cell_length_c 8.953581
_cell_angle_alpha 90.000000
_cell_angle_beta 90.000000
_cell_angle_gamma 90.000000
_cell_volume 5821.580189
_symmetry_space_group_name_H-M "C M C M"
_symmetry_group_IT_number 63
_symmetry_cell_setting 'orthorhombic'
loop_
_space_group_symop_operation_xyz
x,y,z
-x,-y,1/2+z
x,-y,-z
-x,y,1/2-z
-x,-y,-z
x,y,1/2-z
-x,y,z
x,-y,1/2+z
1/2+x,1/2+y,z
1/2-x,1/2-y,1/2+z
1/2+x,1/2-y,-z
1/2-x,1/2+y,1/2-z
1/2-x,1/2-y,-z
1/2+x,1/2+y,1/2-z
1/2-x,1/2+y,z
1/2+x,1/2-y,1/2+z
loop_
_atom_site_type_symbol
_atom_site_label
_atom_site_fract_x
_atom_site_fract_y
_atom_site_fract_z
Si Si1 0.620569 0.788166 0.928601
Si Si2 0.726416 0.551149 0.572111
Si Si3 0.706316 0.852473 0.071230
Si Si4 0.000000 0.864065 0.568748
Si Si5 0.121526 0.899094 0.577376
Si Si6 0.000000 0.243645 0.929595
Si Si7 0.310146 0.701497 0.423087
O O1 0.625123 0.791126 0.750000
O O2 0.556347 0.773756 0.968831
O O3 0.646639 0.836354 0.002154
O O4 0.658715 0.744256 0.990990
O O5 0.741368 0.500000 0.500000
O O6 0.725798 0.547287 0.750000
O O7 0.770314 0.594154 0.530524
O O8 0.664279 0.567834 0.515788
O O9 0.705144 0.848540 0.250000
O O10 0.753215 0.815795 0.004117
O O11 0.942857 0.892357 0.523921
O O12 0.000000 0.860450 0.750000
O O13 0.000000 0.809465 0.504531
O O14 0.121357 0.915780 0.750000
O O15 0.148603 0.845217 0.575255
O O16 0.000000 0.236372 0.750000
O O17 0.299158 0.714486 0.250000
#
# Coordination Sequence:
#
# PCOD9468907 Si02
#       7
#    16  16  16   8  16   8  16
#     4  11  21  33  48  71 103 138 173 207 245 293
#     4  10  21  37  57  77  99 125 161 209 263 313
#     4  10  21  35  51  74 101 130 164 206 254 305
#     4  10  18  32  51  73 100 137 180 216 248 291
#     4   9  18  31  50  74 101 133 172 212 252 295
#     4  10  22  34  48  71 104 143 178 212 246 287
#     4  10  18  30  49  72 101 136 170 208 249 294
#
# _framework density 16.490369000000001
#
# number of rings (size 3 to 8) (size 9 to 14) (size 15 to 20)
#    0.000    2.000    1.667    2.500    0.000    4.000 
#    0.000    0.417    0.000    0.000    0.000    0.583 
#    0.000    0.000    0.000    0.000    0.000    0.000 
#
# Total GULP energy -267888.577597 kJ/mol
# GULP energy per Si atom -5581.012033 kJ/mol
# Density = 1.645284 g / cm^3
# Si number density = 16.490369 Si / 1000 Ang^3
#
#
#
# Elastic Constant Matrix: (Units=GPa)
#
#
# Indices 1 2 3 4 5 6 
#
# 1 74.4960 61.9308 36.2707 0.0000 0.0000 0.0000
# 2 61.9308 92.8916 42.4618 0.0000 0.0000 0.0000
# 3 36.2707 42.4618 56.1578 0.0000 0.0000 0.0000
# 4 0.0000 0.0000 0.0000 26.0686 0.0000 0.0000
# 5 0.0000 0.0000 0.0000 0.0000 23.0498 0.0000
# 6 0.0000 0.0000 0.0000 0.0000 0.0000 8.9983
#
#
#
# Elastic Compliance Matrix: (Units=1/GPa)
#
#
# Indices 1 2 3 4 5 6 
#
# 1 0.031764 -0.018031 -0.006882 0.000000 0.000000 0.000000
# 2 -0.018031 0.026687 -0.008533 0.000000 0.000000 0.000000
# 3 -0.006882 -0.008533 0.028703 0.000000 0.000000 0.000000
# 4 0.000000 0.000000 0.000000 0.038360 0.000000 0.000000
# 5 0.000000 0.000000 0.000000 0.000000 0.043384 0.000000
# 6 0.000000 0.000000 0.000000 0.000000 0.000000 0.111133
#
#
# Mechanical properties :
#
#
# Convention : Reuss Voigt Hill
#
# Bulk Modulus (GPa) = 49.35069 56.09687 52.72378
# Shear Modulus (GPa) = 14.13717 17.14881 15.64299
#
# Velocity S-wave (km/s) = 2.93114 3.22829 3.08330
# Velocity P-wave (km/s) = 6.43797 6.92731 6.68712
#
# Compressibility (1/GPa) = 0.02026314
#
# Stress axis : x y z
#
# Youngs Moduli (GPa) = 31.48200 37.47127 34.83929
#
# Poissons Ratio (x) = 0.67566 0.23975
# Poissons Ratio (y) = 0.56767 0.29727
# Poissons Ratio (z) = 0.21665 0.31972
#
# Static dielectric constant tensor:
#      x y z
#    x 1.569010 0.000000 0.000000 
#    y 0.000000 1.549790 0.000000 
#    z 0.000000 0.000000 1.554090 
# 
# From -- ./inp_files/10792.got.cif
#   From: 2010.05.17/outbox.cif.g08.bks.cpg/sg63_6_cif.got.tgz:10792.got - 2010.06.03 15:47:04.
