data_PCOD9468210
_publ_section_title
;
Structure prediction by ZEFSAII (Michael W. Deem and Ramdas Pophale) SiO2 
 PCOD9468210
Probable space group: C M C M
;
_chemical_formula_sum "Si O2"
_cell_formula_units_Z 64
_cell_length_a 8.729565
_cell_length_b 27.542243
_cell_length_c 13.691706
_cell_angle_alpha 90.000000
_cell_angle_beta 90.000000
_cell_angle_gamma 90.000000
_cell_volume 3291.921526
_symmetry_space_group_name_H-M "C M C M"
_symmetry_group_IT_number 63
_symmetry_cell_setting 'orthorhombic'
loop_
_space_group_symop_operation_xyz
x,y,z
-x,-y,1/2+z
x,-y,-z
-x,y,1/2-z
-x,-y,-z
x,y,1/2-z
-x,y,z
x,-y,1/2+z
1/2+x,1/2+y,z
1/2-x,1/2-y,1/2+z
1/2+x,1/2-y,-z
1/2-x,1/2+y,1/2-z
1/2-x,1/2-y,-z
1/2+x,1/2+y,1/2-z
1/2-x,1/2+y,z
1/2+x,1/2-y,1/2+z
loop_
_atom_site_type_symbol
_atom_site_label
_atom_site_fract_x
_atom_site_fract_y
_atom_site_fract_z
Si Si1 0.000000 0.686842 0.364120
Si Si2 0.500000 0.696619 0.633535
Si Si3 0.000000 0.398844 0.354993
Si Si4 0.667292 0.540302 0.087008
Si Si5 0.246033 0.858923 0.004098
Si Si6 0.500000 0.009977 0.384377
O O1 0.851532 0.667573 0.423299
O O2 0.000000 0.671367 0.250000
O O3 0.000000 0.745187 0.366414
O O4 0.500000 0.681391 0.750000
O O5 0.359119 0.676284 0.568880
O O6 0.143973 0.383576 0.417226
O O7 0.000000 0.374492 0.250000
O O8 0.000000 0.456162 0.344346
O O9 0.500000 0.532158 0.136449
O O10 0.835630 0.534956 0.137407
O O11 0.670880 0.500000 0.000000
O O12 0.665364 0.595089 0.046100
O O13 0.500000 0.000000 0.500000
#
# Coordination Sequence:
#
# PCOD9468210 Si02
#       6
#     8   8   8  16  16   8
#     4  10  24  43  65  89 123 166 221 268 319 393
#     4  11  23  40  63 100 127 156 208 267 333 400
#     4  11  21  34  56  88 122 165 213 258 311 385
#     4  10  18  32  59  87 119 162 208 249 314 374
#     4  11  20  39  65  87 125 165 206 260 332 370
#     4  10  16  33  53  75 118 167 200 248 311 360
#
# _framework density 19.441531999999999
#
# number of rings (size 3 to 8) (size 9 to 14) (size 15 to 20)
#    0.000    1.500    6.250    2.250    0.000    0.000 
#    0.000    3.125    0.000    6.000    0.000    0.000 
#    0.000    0.000    0.000    0.000    0.000    0.000 
#
# Total GULP energy -178153.857650 kJ/mol
# GULP energy per Si atom -5567.308052 kJ/mol
# Density = 1.939728 g / cm^3
# Si number density = 19.441532 Si / 1000 Ang^3
#
#
#
# Elastic Constant Matrix: (Units=GPa)
#
#
# Indices 1 2 3 4 5 6 
#
# 1 192.7897 46.8656 58.6415 0.0000 0.0000 0.0000
# 2 46.8656 110.6868 48.4822 0.0000 0.0000 0.0000
# 3 58.6415 48.4822 147.8235 0.0000 0.0000 0.0000
# 4 0.0000 0.0000 0.0000 -22.3143 0.0000 0.0000
# 5 0.0000 0.0000 0.0000 0.0000 13.8841 0.0000
# 6 0.0000 0.0000 0.0000 0.0000 0.0000 -84.6100
#
#
#
# Elastic Compliance Matrix: (Units=1/GPa)
#
#
# Indices 1 2 3 4 5 6 
#
# 1 0.006193 -0.001805 -0.001865 0.000000 0.000000 0.000000
# 2 -0.001805 0.011076 -0.002917 0.000000 0.000000 0.000000
# 3 -0.001865 -0.002917 0.008461 0.000000 0.000000 0.000000
# 4 0.000000 0.000000 0.000000 -0.044814 0.000000 0.000000
# 5 0.000000 0.000000 0.000000 0.000000 0.072025 0.000000
# 6 0.000000 0.000000 0.000000 0.000000 0.000000 -0.011819
#
#
# Mechanical properties :
#
#
# Convention : Reuss Voigt Hill
#
# Bulk Modulus (GPa) = 79.63512 84.36429 81.99970
# Shear Modulus (GPa) = 85.49718 1.21267 43.35492
#
# Velocity S-wave (km/s) = 6.63868 0.79064 4.72743
# Velocity P-wave (km/s) = 9.99064 6.65744 8.48924
#
# Compressibility (1/GPa) = 0.01255727
#
# Stress axis : x y z
#
# Youngs Moduli (GPa) = 161.47093 90.28176 118.18812
#
# Poissons Ratio (x) = 0.16300 0.22038
# Poissons Ratio (y) = 0.29153 0.34470
# Poissons Ratio (z) = 0.30109 0.26331
#
# Static dielectric constant tensor:
#      x y z
#    x 1.719120 0.000000 0.000000 
#    y 0.000000 1.649770 0.000000 
#    z 0.000000 0.000000 1.658930 
# 
# From -- ./inp_files/27789.got.cif
#   From: 2010.05.17/outbox.cif.g08.bks.cpg/sg63_14_cif.got.tgz:27789.got - 2010.06.03 15:47:04.
