data_PCOD9468159
_publ_section_title
;
Structure prediction by ZEFSAII (Michael W. Deem and Ramdas Pophale) SiO2 
 PCOD9468159
Probable space group: C M C M
;
_chemical_formula_sum "Si O2"
_cell_formula_units_Z 80
_cell_length_a 21.965599
_cell_length_b 11.850898
_cell_length_c 14.864338
_cell_angle_alpha 90.000000
_cell_angle_beta 90.000000
_cell_angle_gamma 90.000000
_cell_volume 3869.366642
_symmetry_space_group_name_H-M "C M C M"
_symmetry_group_IT_number 63
_symmetry_cell_setting 'orthorhombic'
loop_
_space_group_symop_operation_xyz
x,y,z
-x,-y,1/2+z
x,-y,-z
-x,y,1/2-z
-x,-y,-z
x,y,1/2-z
-x,y,z
x,-y,1/2+z
1/2+x,1/2+y,z
1/2-x,1/2-y,1/2+z
1/2+x,1/2-y,-z
1/2-x,1/2+y,1/2-z
1/2-x,1/2-y,-z
1/2+x,1/2+y,1/2-z
1/2-x,1/2+y,z
1/2+x,1/2-y,1/2+z
loop_
_atom_site_type_symbol
_atom_site_label
_atom_site_fract_x
_atom_site_fract_y
_atom_site_fract_z
Si Si1 0.303844 0.661955 0.522051
Si Si2 0.786948 0.454570 0.145816
Si Si3 0.632129 0.273670 0.644516
Si Si4 0.127127 0.333674 0.856920
Si Si5 0.000000 0.294222 0.148463
Si Si6 0.500000 0.952171 0.600624
O O1 0.250000 0.750000 0.500000
O O2 0.269169 0.569342 0.580892
O O3 0.336242 0.643495 0.426234
O O4 0.352115 0.726776 0.585633
O O5 0.767644 0.465064 0.250000
O O6 0.832102 0.346249 0.141115
O O7 0.825480 0.565080 0.121255
O O8 0.633388 0.308448 0.750000
O O9 0.563742 0.248319 0.610448
O O10 0.131268 0.312148 0.750000
O O11 0.060182 0.380347 0.879362
O O12 0.000000 0.250631 0.250000
O O13 0.000000 0.429664 0.153435
O O14 0.500000 0.000000 0.500000
#
# Coordination Sequence:
#
# PCOD9468159 Si02
#       6
#    16  16  16  16   8   8
#     4  10  21  33  50  71 106 143 187 224 266 319
#     4   9  18  33  52  72 103 142 181 221 267 318
#     4   9  17  29  46  69  99 137 176 216 263 315
#     4  11  22  36  55  81 112 149 185 223 273 330
#     4  10  16  28  46  68 100 137 174 210 261 325
#     4  12  22  30  52  80 116 145 178 215 276 337
#
# _framework density 20.675217
#
# number of rings (size 3 to 8) (size 9 to 14) (size 15 to 20)
#    0.000    2.000    2.000    2.700    2.800    0.800 
#    0.000    0.000    0.000    1.200    0.000    0.000 
#    0.000   33.600    0.000   90.000    0.000    0.000 
#
# Total GULP energy -223412.940515 kJ/mol
# GULP energy per Si atom -5585.323513 kJ/mol
# Density = 2.062816 g / cm^3
# Si number density = 20.675217 Si / 1000 Ang^3
#
#
#
# Elastic Constant Matrix: (Units=GPa)
#
#
# Indices 1 2 3 4 5 6 
#
# 1 151.2428 51.1961 75.8831 0.0000 0.0000 0.0000
# 2 51.1961 48.3553 42.4925 0.0000 0.0000 0.0000
# 3 75.8831 42.4925 125.8428 0.0000 0.0000 0.0000
# 4 0.0000 0.0000 0.0000 18.6945 0.0000 0.0000
# 5 0.0000 0.0000 0.0000 0.0000 31.6701 0.0000
# 6 0.0000 0.0000 0.0000 0.0000 0.0000 26.1610
#
#
#
# Elastic Compliance Matrix: (Units=1/GPa)
#
#
# Indices 1 2 3 4 5 6 
#
# 1 0.011594 -0.008718 -0.004047 0.000000 0.000000 0.000000
# 2 -0.008718 0.035962 -0.006886 0.000000 0.000000 0.000000
# 3 -0.004047 -0.006886 0.012712 0.000000 0.000000 0.000000
# 4 0.000000 0.000000 0.000000 0.053492 0.000000 0.000000
# 5 0.000000 0.000000 0.000000 0.000000 0.031576 0.000000
# 6 0.000000 0.000000 0.000000 0.000000 0.000000 0.038225
#
#
# Mechanical properties :
#
#
# Convention : Reuss Voigt Hill
#
# Bulk Modulus (GPa) = 47.69899 73.84269 60.77084
# Shear Modulus (GPa) = 21.75330 25.69638 23.72484
#
# Velocity S-wave (km/s) = 3.24720 3.52925 3.39115
# Velocity P-wave (km/s) = 6.09752 7.23882 6.69254
#
# Compressibility (1/GPa) = 0.02096481
#
# Stress axis : x y z
#
# Youngs Moduli (GPa) = 86.25440 27.80732 78.66648
#
# Poissons Ratio (x) = 0.24243 0.31837
# Poissons Ratio (y) = 0.75200 0.54168
# Poissons Ratio (z) = 0.34908 0.19148
#
# Static dielectric constant tensor:
#      x y z
#    x 1.745650 0.000000 0.000000 
#    y 0.000000 1.734010 0.000000 
#    z 0.000000 0.000000 1.511050 
# 
# From -- ./inp_files/36527.got.cif
#   From: 2010.05.17/outbox.cif.g08.bks.cpg/sg63_19_cif.got.tgz:36527.got - 2010.06.03 15:47:04.
