data_PCOD9468754
_publ_section_title
;
Structure prediction by ZEFSAII (Michael W. Deem and Ramdas Pophale) SiO2 
 PCOD9468754
Probable space group: C M C M
;
_chemical_formula_sum "Si O2"
_cell_formula_units_Z 112
_cell_length_a 24.001120
_cell_length_b 30.300324
_cell_length_c 7.479944
_cell_angle_alpha 90.000000
_cell_angle_beta 90.000000
_cell_angle_gamma 90.000000
_cell_volume 5439.727283
_symmetry_space_group_name_H-M "C M C M"
_symmetry_group_IT_number 63
_symmetry_cell_setting 'orthorhombic'
loop_
_space_group_symop_operation_xyz
x,y,z
-x,-y,1/2+z
x,-y,-z
-x,y,1/2-z
-x,-y,-z
x,y,1/2-z
-x,y,z
x,-y,1/2+z
1/2+x,1/2+y,z
1/2-x,1/2-y,1/2+z
1/2+x,1/2-y,-z
1/2-x,1/2+y,1/2-z
1/2-x,1/2-y,-z
1/2+x,1/2+y,1/2-z
1/2-x,1/2+y,z
1/2+x,1/2-y,1/2+z
loop_
_atom_site_type_symbol
_atom_site_label
_atom_site_fract_x
_atom_site_fract_y
_atom_site_fract_z
Si Si1 0.660475 0.639208 0.965304
Si Si2 0.062890 0.794890 0.962876
Si Si3 0.737308 0.801041 0.463541
Si Si4 0.288283 0.449288 0.035903
Si Si5 0.938805 0.388561 0.468280
Si Si6 0.612278 0.797929 0.031579
Si Si7 0.337770 0.051091 0.536117
O O1 0.663078 0.639102 0.750000
O O2 0.712629 0.668665 0.032578
O O3 0.670639 0.589163 0.028230
O O4 0.603254 0.663660 0.009446
O O5 0.058674 0.788946 0.750000
O O6 0.092083 0.750003 0.031658
O O7 0.000000 0.800151 0.032566
O O8 0.735946 0.807838 0.250000
O O9 0.750000 0.750000 0.500000
O O10 0.674806 0.809429 0.529659
O O11 0.285493 0.445523 0.250000
O O12 0.225098 0.440939 0.967523
O O13 0.303605 0.500000 0.000000
O O14 0.938352 0.390252 0.250000
O O15 0.928098 0.337782 0.518396
O O16 0.887010 0.417867 0.531927
O O17 0.000000 0.403481 0.526935
O O18 0.613904 0.796494 0.250000
O O19 0.335380 0.057707 0.750000
O O20 0.350800 0.000000 0.500000
#
# Coordination Sequence:
#
# PCOD9468754 Si02
#       7
#    16  16  16  16  16  16  16
#     4  10  20  33  51  75 103 132 163 200 246 296
#     4  10  20  33  50  73 100 131 167 203 238 284
#     4  10  18  29  47  72 100 130 162 199 244 290
#     4   9  18  33  52  75 100 126 158 198 246 297
#     4   9  16  26  43  67  92 124 167 206 238 275
#     4   9  16  28  46  68  97 128 162 204 240 274
#     4   9  17  30  48  69  94 123 157 199 245 290
#
# _framework density 20.589269000000002
#
# number of rings (size 3 to 8) (size 9 to 14) (size 15 to 20)
#    0.000    2.571    1.429    1.286    0.000    6.286 
#    0.000    0.000    0.000    3.857    0.000    0.000 
#    0.000    0.000    0.000    0.000    0.000    0.000 
#
# Total GULP energy -312584.096330 kJ/mol
# GULP energy per Si atom -5581.858863 kJ/mol
# Density = 2.054241 g / cm^3
# Si number density = 20.589269 Si / 1000 Ang^3
#
#
#
# Elastic Constant Matrix: (Units=GPa)
#
#
# Indices 1 2 3 4 5 6 
#
# 1 136.7515 68.9566 4.4322 0.0000 0.0000 0.0000
# 2 68.9566 108.9609 -5.3920 0.0000 0.0000 0.0000
# 3 4.4322 -5.3920 57.7628 0.0000 0.0000 0.0000
# 4 0.0000 0.0000 0.0000 1.7245 0.0000 0.0000
# 5 0.0000 0.0000 0.0000 0.0000 4.3283 0.0000
# 6 0.0000 0.0000 0.0000 0.0000 0.0000 35.4828
#
#
#
# Elastic Compliance Matrix: (Units=1/GPa)
#
#
# Indices 1 2 3 4 5 6 
#
# 1 0.010865 -0.006949 -0.001482 0.000000 0.000000 0.000000
# 2 -0.006949 0.013665 0.001809 0.000000 0.000000 0.000000
# 3 -0.001482 0.001809 0.017595 0.000000 0.000000 0.000000
# 4 0.000000 0.000000 0.000000 0.579882 0.000000 0.000000
# 5 0.000000 0.000000 0.000000 0.000000 0.231040 0.000000
# 6 0.000000 0.000000 0.000000 0.000000 0.000000 0.028183
#
#
# Mechanical properties :
#
#
# Convention : Reuss Voigt Hill
#
# Bulk Modulus (GPa) = 34.62723 48.82987 41.72855
# Shear Modulus (GPa) = 5.53036 24.00567 14.76801
#
# Velocity S-wave (km/s) = 1.64069 3.41828 2.68109
# Velocity P-wave (km/s) = 4.52148 6.27273 5.46767
#
# Compressibility (1/GPa) = 0.02887901
#
# Stress axis : x y z
#
# Youngs Moduli (GPa) = 92.04161 73.18021 56.83505
#
# Poissons Ratio (x) = 0.50854 0.08425
# Poissons Ratio (y) = 0.63961 -0.10280
# Poissons Ratio (z) = 0.13644 -0.13237
#
# Static dielectric constant tensor:
#      x y z
#    x 1.732300 0.000000 0.000000 
#    y 0.000000 1.718120 0.000000 
#    z 0.000000 0.000000 1.833770 
# 
# From -- ./inp_files/23136.got.cif
#   From: 2010.05.17/outbox.cif.g08.bks.cpg/sg63_12_cif.got.tgz:23136.got - 2010.06.03 15:47:04.
