data_PCOD9468799
_publ_section_title
;
Structure prediction by ZEFSAII (Michael W. Deem and Ramdas Pophale) SiO2 
 PCOD9468799
Probable space group: C M C M
;
_chemical_formula_sum "Si O2"
_cell_formula_units_Z 80
_cell_length_a 14.025260
_cell_length_b 12.793107
_cell_length_c 22.029392
_cell_angle_alpha 90.000000
_cell_angle_beta 90.000000
_cell_angle_gamma 90.000000
_cell_volume 3952.660050
_symmetry_space_group_name_H-M "C M C M"
_symmetry_group_IT_number 63
_symmetry_cell_setting 'orthorhombic'
loop_
_space_group_symop_operation_xyz
x,y,z
-x,-y,1/2+z
x,-y,-z
-x,y,1/2-z
-x,-y,-z
x,y,1/2-z
-x,y,z
x,-y,1/2+z
1/2+x,1/2+y,z
1/2-x,1/2-y,1/2+z
1/2+x,1/2-y,-z
1/2-x,1/2+y,1/2-z
1/2-x,1/2-y,-z
1/2+x,1/2+y,1/2-z
1/2-x,1/2+y,z
1/2+x,1/2-y,1/2+z
loop_
_atom_site_type_symbol
_atom_site_label
_atom_site_fract_x
_atom_site_fract_y
_atom_site_fract_z
Si Si1 0.889113 0.979650 0.928053
Si Si2 0.613963 0.862594 0.554542
Si Si3 0.885747 0.639574 0.314975
Si Si4 0.614655 0.761958 0.428388
Si Si5 0.796163 0.544781 0.877094
O O1 0.861911 0.858473 0.917993
O O2 0.000000 0.996766 0.912882
O O3 0.815917 0.045701 0.888592
O O4 0.879230 0.000000 0.000000
O O5 0.500000 0.876694 0.549053
O O6 0.645713 0.799638 0.495737
O O7 0.633469 0.806574 0.619751
O O8 0.660035 0.976002 0.566469
O O9 0.860529 0.688621 0.250000
O O10 0.831787 0.528412 0.322428
O O11 0.000000 0.621113 0.314930
O O12 0.500000 0.769869 0.426511
O O13 0.658959 0.841780 0.380742
#
# Coordination Sequence:
#
# PCOD9468799 Si02
#       5
#    16  16  16  16  16
#     4  10  22  35  46  70 108 142 167 201 250 304
#     4   8  15  25  44  75 101 126 157 202 254 301
#     4   8  15  28  47  75 106 129 159 211 263 298
#     4  10  18  31  51  76 105 130 163 206 255 309
#     4  10  18  29  50  74  98 132 168 203 250 300
#
# _framework density 20.239536000000001
#
# number of rings (size 3 to 8) (size 9 to 14) (size 15 to 20)
#    1.200    1.600    0.000    3.000    0.000    4.800 
#    0.000    0.000    0.000    3.000    0.000    2.800 
#    0.000    0.000    0.000    0.400    0.000    0.000 
#
# Total GULP energy -222752.909910 kJ/mol
# GULP energy per Si atom -5568.822748 kJ/mol
# Density = 2.019347 g / cm^3
# Si number density = 20.239536 Si / 1000 Ang^3
#
#
#
# Elastic Constant Matrix: (Units=GPa)
#
#
# Indices 1 2 3 4 5 6 
#
# 1 61.9969 21.5345 -9.9635 0.0000 0.0000 0.0000
# 2 21.5345 60.2450 -18.2613 0.0000 0.0000 0.0000
# 3 -9.9635 -18.2613 30.4192 0.0000 0.0000 0.0000
# 4 0.0000 0.0000 0.0000 4.2198 0.0000 0.0000
# 5 0.0000 0.0000 0.0000 0.0000 5.5940 0.0000
# 6 0.0000 0.0000 0.0000 0.0000 0.0000 23.1989
#
#
#
# Elastic Compliance Matrix: (Units=1/GPa)
#
#
# Indices 1 2 3 4 5 6 
#
# 1 0.018579 -0.005863 0.002565 0.000000 0.000000 0.000000
# 2 -0.005863 0.022142 0.011372 0.000000 0.000000 0.000000
# 3 0.002565 0.011372 0.040541 0.000000 0.000000 0.000000
# 4 0.000000 0.000000 0.000000 0.236978 0.000000 0.000000
# 5 0.000000 0.000000 0.000000 0.000000 0.178763 0.000000
# 6 0.000000 0.000000 0.000000 0.000000 0.000000 0.043105
#
#
# Mechanical properties :
#
#
# Convention : Reuss Voigt Hill
#
# Bulk Modulus (GPa) = 10.26603 15.47561 12.87082
# Shear Modulus (GPa) = 8.98587 17.22598 13.10592
#
# Velocity S-wave (km/s) = 2.10936 2.92054 2.54744
# Velocity P-wave (km/s) = 3.31901 4.36297 3.87630
#
# Compressibility (1/GPa) = 0.09740866
#
# Stress axis : x y z
#
# Youngs Moduli (GPa) = 53.82494 45.16374 24.66648
#
# Poissons Ratio (x) = 0.26481 -0.06328
# Poissons Ratio (y) = 0.31559 -0.28050
# Poissons Ratio (z) = -0.13808 -0.51358
#
# Static dielectric constant tensor:
#      x y z
#    x 1.744990 0.000000 0.000000 
#    y 0.000000 1.725750 0.000000 
#    z 0.000000 0.000000 1.754720 
# 
# From -- ./inp_files/62566.got.cif
#   From: 2010.05.17/outbox.cif.g08.bks.cpg/sg63_32_cif.got.tgz:62566.got - 2010.06.03 15:47:04.
