data_PCOD9468691
_publ_section_title
;
Structure prediction by ZEFSAII (Michael W. Deem and Ramdas Pophale) SiO2 
 PCOD9468691
Probable space group: C M C M
;
_chemical_formula_sum "Si O2"
_cell_formula_units_Z 88
_cell_length_a 20.568828
_cell_length_b 31.648036
_cell_length_c 7.425565
_cell_angle_alpha 90.000000
_cell_angle_beta 90.000000
_cell_angle_gamma 90.000000
_cell_volume 4833.768136
_symmetry_space_group_name_H-M "C M C M"
_symmetry_group_IT_number 63
_symmetry_cell_setting 'orthorhombic'
loop_
_space_group_symop_operation_xyz
x,y,z
-x,-y,1/2+z
x,-y,-z
-x,y,1/2-z
-x,-y,-z
x,y,1/2-z
-x,y,z
x,-y,1/2+z
1/2+x,1/2+y,z
1/2-x,1/2-y,1/2+z
1/2+x,1/2-y,-z
1/2-x,1/2+y,1/2-z
1/2-x,1/2-y,-z
1/2+x,1/2+y,1/2-z
1/2-x,1/2+y,z
1/2+x,1/2-y,1/2+z
loop_
_atom_site_type_symbol
_atom_site_label
_atom_site_fract_x
_atom_site_fract_y
_atom_site_fract_z
Si Si1 0.571534 0.833009 0.532600
Si Si2 0.500000 0.050364 0.535350
Si Si3 0.208576 0.371968 0.455042
Si Si4 0.929104 0.233539 0.531214
Si Si5 0.789466 0.206701 0.533616
Si Si6 0.357441 0.950389 0.033442
O O1 0.574886 0.836038 0.750000
O O2 0.500000 0.849169 0.475778
O O3 0.634934 0.854236 0.453020
O O4 0.574454 0.783262 0.486153
O O5 0.500000 0.057410 0.750000
O O6 0.570771 0.063350 0.463118
O O7 0.500000 0.000000 0.500000
O O8 0.231857 0.377694 0.250000
O O9 0.252175 0.334741 0.537296
O O10 0.197728 0.418515 0.536018
O O11 0.928744 0.231502 0.750000
O O12 0.863316 0.211558 0.467126
O O13 0.000000 0.217561 0.471059
O O14 0.791601 0.203006 0.750000
O O15 0.750000 0.250000 0.500000
O O16 0.359545 0.945701 0.250000
O O17 0.347421 0.000000 0.000000
#
# Coordination Sequence:
#
# PCOD9468691 Si02
#       6
#    16   8  16  16  16  16
#     4   9  17  28  41  59  82 112 150 180 201 240
#     4   8  14  26  42  54  70 100 132 166 204 240
#     4  10  20  29  42  64  86 109 137 176 222 255
#     4   8  14  26  43  59  80 112 145 173 199 233
#     4  10  18  29  44  63  87 113 140 171 208 247
#     4   9  18  31  43  57  78 104 137 173 212 253
#
# _framework density 18.205258000000001
#
# number of rings (size 3 to 8) (size 9 to 14) (size 15 to 20)
#    0.000    2.909    1.818    1.091    1.273    1.091 
#    0.000    0.000    0.000    0.545    0.000    0.000 
#    0.000    0.727    0.000    0.545    0.000    1.091 
#
# Total GULP energy -245288.302293 kJ/mol
# GULP energy per Si atom -5574.734143 kJ/mol
# Density = 1.816382 g / cm^3
# Si number density = 18.205258 Si / 1000 Ang^3
#
#
#
# Elastic Constant Matrix: (Units=GPa)
#
#
# Indices 1 2 3 4 5 6 
#
# 1 117.2630 67.1540 0.1158 0.0000 0.0000 0.0000
# 2 67.1540 115.0745 3.4572 0.0000 0.0000 0.0000
# 3 0.1158 3.4572 64.4307 0.0000 0.0000 0.0000
# 4 0.0000 0.0000 0.0000 8.8158 0.0000 0.0000
# 5 0.0000 0.0000 0.0000 0.0000 6.3047 0.0000
# 6 0.0000 0.0000 0.0000 0.0000 0.0000 38.6336
#
#
#
# Elastic Compliance Matrix: (Units=1/GPa)
#
#
# Indices 1 2 3 4 5 6 
#
# 1 0.012818 -0.007491 0.000379 0.000000 0.000000 0.000000
# 2 -0.007491 0.013082 -0.000689 0.000000 0.000000 0.000000
# 3 0.000379 -0.000689 0.015557 0.000000 0.000000 0.000000
# 4 0.000000 0.000000 0.000000 0.113432 0.000000 0.000000
# 5 0.000000 0.000000 0.000000 0.000000 0.158613 0.000000
# 6 0.000000 0.000000 0.000000 0.000000 0.000000 0.025884
#
#
# Mechanical properties :
#
#
# Convention : Reuss Voigt Hill
#
# Bulk Modulus (GPa) = 38.67727 48.69137 43.68432
# Shear Modulus (GPa) = 13.75115 25.82023 19.78569
#
# Velocity S-wave (km/s) = 2.75133 3.77010 3.30026
# Velocity P-wave (km/s) = 5.60217 6.76427 6.21046
#
# Compressibility (1/GPa) = 0.02585498
#
# Stress axis : x y z
#
# Youngs Moduli (GPa) = 78.01770 76.43833 64.28054
#
# Poissons Ratio (x) = 0.57263 -0.02436
# Poissons Ratio (y) = 0.58446 0.04426
# Poissons Ratio (z) = -0.02956 0.05263
#
# Static dielectric constant tensor:
#      x y z
#    x 1.645600 0.000000 0.000000 
#    y 0.000000 1.636000 0.000000 
#    z 0.000000 0.000000 1.694060 
# 
# From -- ./inp_files/8968.got.cif
#   From: 2010.05.17/outbox.cif.g08.bks.cpg/sg63_5_cif.got.tgz:8968.got - 2010.06.03 15:47:04.
