data_PCOD9468241
_publ_section_title
;
Structure prediction by ZEFSAII (Michael W. Deem and Ramdas Pophale) SiO2 
 PCOD9468241
Probable space group: C M C M
;
_chemical_formula_sum "Si O2"
_cell_formula_units_Z 88
_cell_length_a 21.054538
_cell_length_b 24.308455
_cell_length_c 7.447317
_cell_angle_alpha 90.000000
_cell_angle_beta 90.000000
_cell_angle_gamma 90.000000
_cell_volume 3811.561339
_symmetry_space_group_name_H-M "C M C M"
_symmetry_group_IT_number 63
_symmetry_cell_setting 'orthorhombic'
loop_
_space_group_symop_operation_xyz
x,y,z
-x,-y,1/2+z
x,-y,-z
-x,y,1/2-z
-x,-y,-z
x,y,1/2-z
-x,y,z
x,-y,1/2+z
1/2+x,1/2+y,z
1/2-x,1/2-y,1/2+z
1/2+x,1/2-y,-z
1/2-x,1/2+y,1/2-z
1/2-x,1/2-y,-z
1/2+x,1/2+y,1/2-z
1/2-x,1/2+y,z
1/2+x,1/2-y,1/2+z
loop_
_atom_site_type_symbol
_atom_site_label
_atom_site_fract_x
_atom_site_fract_y
_atom_site_fract_z
Si Si1 0.364358 0.610386 0.029661
Si Si2 0.359243 0.271818 0.953469
Si Si3 0.000000 0.934635 0.535251
Si Si4 0.000000 0.758467 0.467111
Si Si5 0.133978 0.649388 0.540246
Si Si6 0.262339 0.939099 0.538065
Si Si7 0.500000 0.870513 0.045331
O O1 0.366919 0.612563 0.250000
O O2 0.337852 0.670165 0.967029
O O3 0.434409 0.592632 0.966985
O O4 0.310031 0.567707 0.973535
O O5 0.334192 0.268830 0.750000
O O6 0.351715 0.210748 0.035998
O O7 0.435277 0.282310 0.957065
O O8 0.000000 0.927319 0.750000
O O9 0.000000 0.000000 0.500000
O O10 0.000000 0.695847 0.534120
O O11 0.000000 0.760618 0.250000
O O12 0.118544 0.660092 0.750000
O O13 0.192166 0.608423 0.532527
O O14 0.070171 0.619733 0.464651
O O15 0.261330 0.931203 0.750000
O O16 0.286586 0.000000 0.500000
O O17 0.500000 0.892295 0.250000
#
# Coordination Sequence:
#
# PCOD9468241 Si02
#       7
#    16  16   8   8  16  16   8
#     4   9  19  35  57  81 105 142 188 228 268 321
#     4   9  17  33  55  77 106 145 184 219 267 330
#     4  10  19  34  56  80 108 144 190 234 266 306
#     4  10  17  25  43  77 116 144 171 212 261 310
#     4   9  18  34  58  85 110 140 177 218 267 327
#     4  11  23  39  57  78 107 143 183 226 274 328
#     4   8  16  33  56  79 106 142 178 210 254 316
#
# _framework density 23.08765
#
# number of rings (size 3 to 8) (size 9 to 14) (size 15 to 20)
#    0.000    2.545    0.000    3.545    0.000    5.091 
#    0.000    5.000    0.000    0.000    0.000    0.000 
#    0.000    0.000    0.000    0.000    0.000    0.000 
#
# Total GULP energy -245245.243786 kJ/mol
# GULP energy per Si atom -5573.755541 kJ/mol
# Density = 2.303510 g / cm^3
# Si number density = 23.087650 Si / 1000 Ang^3
#
#
#
# Elastic Constant Matrix: (Units=GPa)
#
#
# Indices 1 2 3 4 5 6 
#
# 1 101.3140 58.0074 -1.0162 0.0000 0.0000 0.0000
# 2 58.0074 140.6109 -5.8902 0.0000 0.0000 0.0000
# 3 -1.0162 -5.8902 88.1143 0.0000 0.0000 0.0000
# 4 0.0000 0.0000 0.0000 2.4649 0.0000 0.0000
# 5 0.0000 0.0000 0.0000 0.0000 181.2286 0.0000
# 6 0.0000 0.0000 0.0000 0.0000 0.0000 41.4524
#
#
#
# Elastic Compliance Matrix: (Units=1/GPa)
#
#
# Indices 1 2 3 4 5 6 
#
# 1 0.012926 -0.005341 -0.000208 0.000000 0.000000 0.000000
# 2 -0.005341 0.009339 0.000563 0.000000 0.000000 0.000000
# 3 -0.000208 0.000563 0.011384 0.000000 0.000000 0.000000
# 4 0.000000 0.000000 0.000000 0.405703 0.000000 0.000000
# 5 0.000000 0.000000 0.000000 0.000000 0.005518 0.000000
# 6 0.000000 0.000000 0.000000 0.000000 0.000000 0.024124
#
#
# Mechanical properties :
#
#
# Convention : Reuss Voigt Hill
#
# Bulk Modulus (GPa) = 42.23664 48.02682 45.13173
# Shear Modulus (GPa) = 10.26990 63.62505 36.94748
#
# Velocity S-wave (km/s) = 2.11137 5.25527 4.00473
# Velocity P-wave (km/s) = 4.92723 7.59414 6.40111
#
# Compressibility (1/GPa) = 0.02367613
#
# Stress axis : x y z
#
# Youngs Moduli (GPa) = 77.36102 107.07896 87.84169
#
# Poissons Ratio (x) = 0.57195 0.01827
# Poissons Ratio (y) = 0.41321 -0.04943
# Poissons Ratio (z) = 0.01609 -0.06025
#
# Static dielectric constant tensor:
#      x y z
#    x 1.934550 0.000000 0.000000 
#    y 0.000000 1.826060 0.000000 
#    z 0.000000 0.000000 1.908710 
# 
# From -- ./inp_files/8299.got.cif
#   From: 2010.05.17/outbox.cif.g08.bks.cpg/sg63_5_cif.got.tgz:8299.got - 2010.06.03 15:47:04.
