data_PCOD9468168
_publ_section_title
;
Structure prediction by ZEFSAII (Michael W. Deem and Ramdas Pophale) SiO2 
 PCOD9468168
Probable space group: C M C M
;
_chemical_formula_sum "Si O2"
_cell_formula_units_Z 112
_cell_length_a 19.888026
_cell_length_b 17.431559
_cell_length_c 19.893502
_cell_angle_alpha 90.000000
_cell_angle_beta 90.000000
_cell_angle_gamma 90.000000
_cell_volume 6896.665320
_symmetry_space_group_name_H-M "C M C M"
_symmetry_group_IT_number 63
_symmetry_cell_setting 'orthorhombic'
loop_
_space_group_symop_operation_xyz
x,y,z
-x,-y,1/2+z
x,-y,-z
-x,y,1/2-z
-x,-y,-z
x,y,1/2-z
-x,y,z
x,-y,1/2+z
1/2+x,1/2+y,z
1/2-x,1/2-y,1/2+z
1/2+x,1/2-y,-z
1/2-x,1/2+y,1/2-z
1/2-x,1/2-y,-z
1/2+x,1/2+y,1/2-z
1/2-x,1/2+y,z
1/2+x,1/2-y,1/2+z
loop_
_atom_site_type_symbol
_atom_site_label
_atom_site_fract_x
_atom_site_fract_y
_atom_site_fract_z
Si Si1 0.204491 0.918935 0.826450
Si Si2 0.335152 0.096958 0.922201
Si Si3 0.863335 0.457645 0.671403
Si Si4 0.320395 0.545175 0.567438
Si Si5 0.296021 0.265912 0.596535
Si Si6 0.422609 0.864005 0.551418
Si Si7 0.345898 0.711867 0.553940
O O1 0.183797 0.928005 0.750000
O O2 0.285429 0.930317 0.830667
O O3 0.188271 0.834338 0.853358
O O4 0.173608 0.985277 0.872365
O O5 0.258609 0.070213 0.937333
O O6 0.330980 0.183637 0.894033
O O7 0.364802 0.039340 0.867082
O O8 0.375679 0.100449 0.992410
O O9 0.883437 0.460817 0.750000
O O10 0.904930 0.401460 0.623081
O O11 0.338662 0.500000 0.500000
O O12 0.359184 0.625270 0.576637
O O13 0.317432 0.293607 0.522183
O O14 0.216250 0.248547 0.595290
O O15 0.500000 0.876920 0.534607
O O16 0.404800 0.773752 0.554522
#
# Coordination Sequence:
#
# PCOD9468168 Si02
#       7
#    16  16  16  16  16  16  16
#     4  10  18  28  45  75 106 128 153 193 244 297
#     4   9  19  30  50  75  98 123 160 203 245 285
#     4  10  20  33  46  66 101 134 161 195 241 290
#     4  10  16  28  51  73  98 127 154 188 246 311
#     4   9  15  28  48  72  96 125 152 191 245 304
#     4  11  21  34  51  69  93 128 174 211 236 273
#     4   9  17  29  48  71  93 121 163 195 241 289
#
# _framework density 16.239733000000001
#
# number of rings (size 3 to 8) (size 9 to 14) (size 15 to 20)
#    0.000    2.286    2.857    3.000    0.000    2.000 
#    0.000    2.857    0.000    0.429    0.000    0.000 
#    0.000    4.571    0.000    0.000    0.000    0.000 
#
# Total GULP energy -312120.356890 kJ/mol
# GULP energy per Si atom -5573.577802 kJ/mol
# Density = 1.620277 g / cm^3
# Si number density = 16.239733 Si / 1000 Ang^3
#
#
#
# Elastic Constant Matrix: (Units=GPa)
#
#
# Indices 1 2 3 4 5 6 
#
# 1 16.3985 2.7542 13.9172 0.0000 0.0000 0.0000
# 2 2.7542 115.3138 61.8448 0.0000 0.0000 0.0000
# 3 13.9172 61.8448 111.3907 0.0000 0.0000 0.0000
# 4 0.0000 0.0000 0.0000 20.4829 0.0000 0.0000
# 5 0.0000 0.0000 0.0000 0.0000 6.3258 0.0000
# 6 0.0000 0.0000 0.0000 0.0000 0.0000 7.0933
#
#
#
# Elastic Compliance Matrix: (Units=1/GPa)
#
#
# Indices 1 2 3 4 5 6 
#
# 1 0.069666 0.004278 -0.011079 0.000000 0.000000 0.000000
# 2 0.004278 0.012612 -0.007537 0.000000 0.000000 0.000000
# 3 -0.011079 -0.007537 0.014546 0.000000 0.000000 0.000000
# 4 0.000000 0.000000 0.000000 0.048821 0.000000 0.000000
# 5 0.000000 0.000000 0.000000 0.000000 0.158084 0.000000
# 6 0.000000 0.000000 0.000000 0.000000 0.000000 0.140977
#
#
# Mechanical properties :
#
#
# Convention : Reuss Voigt Hill
#
# Bulk Modulus (GPa) = 14.67400 44.45947 29.56674
# Shear Modulus (GPa) = 10.07866 17.75284 13.91575
#
# Velocity S-wave (km/s) = 2.49392 3.30990 2.93045
# Velocity P-wave (km/s) = 4.16513 6.48411 5.44941
#
# Compressibility (1/GPa) = 0.06814775
#
# Stress axis : x y z
#
# Youngs Moduli (GPa) = 14.35429 79.29042 68.74709
#
# Poissons Ratio (x) = -0.33921 0.76167
# Poissons Ratio (y) = -0.06141 0.51813
# Poissons Ratio (z) = 0.15903 0.59759
#
# Static dielectric constant tensor:
#      x y z
#    x 1.525660 0.000000 0.000000 
#    y 0.000000 1.566170 0.000000 
#    z 0.000000 0.000000 1.534440 
# 
# From -- ./inp_files/47346.got.cif
#   From: 2010.05.17/outbox.cif.g08.bks.cpg/sg63_24_cif.got.tgz:47346.got - 2010.06.03 15:47:04.
