data_PCOD9468011
_publ_section_title
;
Structure prediction by ZEFSAII (Michael W. Deem and Ramdas Pophale) SiO2 
 PCOD9468011
Probable space group: P N M A
;
_chemical_formula_sum "Si O2"
_cell_formula_units_Z 40
_cell_length_a 9.000000
_cell_length_b 24.000000
_cell_length_c 9.000000
_cell_angle_alpha 90.000000
_cell_angle_beta 90.000000
_cell_angle_gamma 90.000000
_cell_volume 1944.000000
_symmetry_space_group_name_H-M "P N M A"
_symmetry_group_IT_number 62
_symmetry_cell_setting 'orthorhombic'
loop_
_space_group_symop_operation_xyz
x,y,z
1/2-x,-y,1/2+z
1/2+x,1/2-y,1/2-z
-x,1/2+y,-z
-x,-y,-z
1/2+x,y,1/2-z
1/2-x,1/2+y,1/2+z
x,1/2-y,z
loop_
_atom_site_type_symbol
_atom_site_label
_atom_site_fract_x
_atom_site_fract_y
_atom_site_fract_z
Si Si1 0.239488 0.250000 0.320431
Si Si2 0.177508 0.650836 0.032094
Si Si3 0.007872 0.150311 0.688312
Si Si4 0.915857 0.250000 0.472659
Si Si5 0.754601 0.973515 0.569351
Si Si6 0.537439 0.480777 0.795076
O O1 0.308536 0.304253 0.401639
O O2 0.065554 0.250000 0.369169
O O3 0.281103 0.250000 0.146054
O O4 0.193862 0.588634 0.964059
O O5 0.320069 0.657678 0.142407
O O6 0.038118 0.660954 0.140992
O O7 0.982273 0.082927 0.674831
O O8 0.925052 0.194569 0.578465
O O9 0.834890 0.993145 0.417691
O O10 0.621961 0.010078 0.639403
O O11 0.897285 0.978626 0.680155
#
# Coordination Sequence:
#
# PCOD9468011 Si02
#       6
#     4   8   8   4   8   8
#     4  10  23  40  60  90 118 146 195 244 298 346
#     4  10  22  39  60  87 116 153 197 244 289 351
#     4  10  21  40  62  85 119 157 197 237 289 352
#     4  10  23  42  62  88 120 152 191 246 294 350
#     4  10  22  37  58  86 120 154 195 241 290 347
#     4  10  21  39  59  88 122 157 197 244 292 348
#
# _framework density 20.576132000000001
#
# number of rings (size 3 to 8) (size 9 to 14) (size 15 to 20)
#    0.000    2.000    0.000    3.000    0.000   11.200 
#    0.000    0.000    0.000    0.000    0.000    0.000 
#    0.000    0.000    0.000    0.000    0.000    0.000 
#
# Total GULP energy -223235.943765 kJ/mol
# GULP energy per Si atom -5580.898594 kJ/mol
# Density = 2.052930 g / cm^3
# Si number density = 20.576132 Si / 1000 Ang^3
#
#
#
# Elastic Constant Matrix: (Units=GPa)
#
#
# Indices 1 2 3 4 5 6 
#
# 1 34.5203 33.4830 33.8262 0.0000 0.0000 0.0000
# 2 33.4830 114.2471 47.8860 0.0000 0.0000 0.0000
# 3 33.8262 47.8860 74.3139 0.0000 0.0000 0.0000
# 4 0.0000 0.0000 0.0000 27.6215 0.0000 0.0000
# 5 0.0000 0.0000 0.0000 0.0000 58.2533 0.0000
# 6 0.0000 0.0000 0.0000 0.0000 0.0000 18.2243
#
#
#
# Elastic Compliance Matrix: (Units=1/GPa)
#
#
# Indices 1 2 3 4 5 6 
#
# 1 0.057190 -0.008015 -0.020867 0.000000 0.000000 0.000000
# 2 -0.008015 0.013115 -0.004803 0.000000 0.000000 0.000000
# 3 -0.020867 -0.004803 0.026050 0.000000 0.000000 0.000000
# 4 0.000000 0.000000 0.000000 0.036204 0.000000 0.000000
# 5 0.000000 0.000000 0.000000 0.000000 0.017166 0.000000
# 6 0.000000 0.000000 0.000000 0.000000 0.000000 0.054872
#
#
# Mechanical properties :
#
#
# Convention : Reuss Voigt Hill
#
# Bulk Modulus (GPa) = 34.50053 50.38573 42.44313
# Shear Modulus (GPa) = 17.75396 28.01223 22.88309
#
# Velocity S-wave (km/s) = 2.94060 3.69371 3.33846
# Velocity P-wave (km/s) = 5.32289 6.53697 5.96092
#
# Compressibility (1/GPa) = 0.02898507
#
# Stress axis : x y z
#
# Youngs Moduli (GPa) = 17.48560 76.24912 38.38822
#
# Poissons Ratio (x) = 0.61110 0.80106
# Poissons Ratio (y) = 0.14014 0.18437
# Poissons Ratio (z) = 0.36488 0.36622
#
# Static dielectric constant tensor:
#      x y z
#    x 1.752950 0.000000 0.000000 
#    y 0.000000 1.727170 0.000000 
#    z 0.000000 0.000000 1.740270 
# 
# From -- ./inp_files/4353.got.cif
#   From: 2010.05.17/outbox.ucp.g08.bks.cvg/sg62_3_cif.got.tgz:4353.got - 2010.06.11 16:29:25.
