data_PCOD9468369
_publ_section_title
;
Structure prediction by ZEFSAII (Michael W. Deem and Ramdas Pophale) SiO2 
 PCOD9468369
Probable space group: C M C M
;
_chemical_formula_sum "Si O2"
_cell_formula_units_Z 116
_cell_length_a 17.454121
_cell_length_b 27.673203
_cell_length_c 13.730880
_cell_angle_alpha 90.000000
_cell_angle_beta 90.000000
_cell_angle_gamma 90.000000
_cell_volume 6632.172034
_symmetry_space_group_name_H-M "C M C M"
_symmetry_group_IT_number 63
_symmetry_cell_setting 'orthorhombic'
loop_
_space_group_symop_operation_xyz
x,y,z
-x,-y,1/2+z
x,-y,-z
-x,y,1/2-z
-x,-y,-z
x,y,1/2-z
-x,y,z
x,-y,1/2+z
1/2+x,1/2+y,z
1/2-x,1/2-y,1/2+z
1/2+x,1/2-y,-z
1/2-x,1/2+y,1/2-z
1/2-x,1/2-y,-z
1/2+x,1/2+y,1/2-z
1/2-x,1/2+y,z
1/2+x,1/2-y,1/2+z
loop_
_atom_site_type_symbol
_atom_site_label
_atom_site_fract_x
_atom_site_fract_y
_atom_site_fract_z
Si Si1 0.415735 0.951755 0.632148
Si Si2 0.089683 0.656122 0.634738
Si Si3 0.728063 0.195089 0.518997
Si Si4 0.821949 0.946174 0.013753
Si Si5 0.500000 0.326906 0.250000
Si Si6 0.144548 0.861263 0.357631
Si Si7 0.230321 0.387698 0.633921
Si Si8 0.164335 0.449050 0.364685
O O1 0.420018 0.950219 0.750000
O O2 0.500000 0.940710 0.592745
O O3 0.349451 0.914198 0.606522
O O4 0.388513 0.005683 0.607749
O O5 0.097852 0.667652 0.750000
O O6 0.145517 0.688780 0.569775
O O7 0.120244 0.601279 0.622319
O O8 0.000000 0.659554 0.609660
O O9 0.750000 0.250000 0.500000
O O10 0.790181 0.169800 0.590093
O O11 0.730676 0.163462 0.420440
O O12 0.870910 0.908245 0.076399
O O13 0.742392 0.950534 0.074634
O O14 0.796804 0.920963 0.912847
O O15 0.853190 0.000000 0.000000
O O16 0.568160 0.331653 0.333438
O O17 0.173397 0.877088 0.250000
O O18 0.236235 0.384317 0.750000
O O19 0.181883 0.454579 0.250000
#
# Coordination Sequence:
#
# PCOD9468369 Si02
#       8
#    16  16  16  16   4  16  16  16
#     4   9  17  29  46  71 113 161 196 225 262 316
#     4  10  20  35  57  88 123 150 189 243 294 343
#     4  11  23  39  60  85 110 149 194 245 304 353
#     4  11  19  30  52  87 113 154 191 231 284 337
#     4   8  20  40  70  92 108 140 192 244 312 344
#     4   9  19  39  64  87 112 142 186 245 298 350
#     4  10  21  35  48  72 112 150 197 238 275 333
#     4  10  17  29  51  81 117 155 199 227 267 333
#
# _framework density 17.490499
#
# number of rings (size 3 to 8) (size 9 to 14) (size 15 to 20)
#    0.414    1.655    4.138    1.241    0.000    3.862 
#    1.241    1.034    0.000    0.000    0.000    1.931 
#    0.000    0.000    0.000    0.000    0.000    0.000 
#
# Total GULP energy -322977.414096 kJ/mol
# GULP energy per Si atom -5568.576105 kJ/mol
# Density = 1.745069 g / cm^3
# Si number density = 17.490499 Si / 1000 Ang^3
#
#
#
# Elastic Constant Matrix: (Units=GPa)
#
#
# Indices 1 2 3 4 5 6 
#
# 1 41.5665 5.8800 15.7273 0.0000 0.0000 0.0000
# 2 5.8800 98.3028 21.9320 0.0000 0.0000 0.0000
# 3 15.7273 21.9320 98.6258 0.0000 0.0000 0.0000
# 4 0.0000 0.0000 0.0000 15.5389 0.0000 0.0000
# 5 0.0000 0.0000 0.0000 0.0000 24.2142 0.0000
# 6 0.0000 0.0000 0.0000 0.0000 0.0000 6.4009
#
#
#
# Elastic Compliance Matrix: (Units=1/GPa)
#
#
# Indices 1 2 3 4 5 6 
#
# 1 0.025643 -0.000654 -0.003944 0.000000 0.000000 0.000000
# 2 -0.000654 0.010720 -0.002280 0.000000 0.000000 0.000000
# 3 -0.003944 -0.002280 0.011275 0.000000 0.000000 0.000000
# 4 0.000000 0.000000 0.000000 0.064355 0.000000 0.000000
# 5 0.000000 0.000000 0.000000 0.000000 0.041298 0.000000
# 6 0.000000 0.000000 0.000000 0.000000 0.000000 0.156229
#
#
# Mechanical properties :
#
#
# Convention : Reuss Voigt Hill
#
# Bulk Modulus (GPa) = 29.51292 36.17487 32.84389
# Shear Modulus (GPa) = 14.94462 22.22785 18.58623
#
# Velocity S-wave (km/s) = 2.92626 3.56877 3.26336
# Velocity P-wave (km/s) = 5.32237 6.14076 5.74615
#
# Compressibility (1/GPa) = 0.03388347
#
# Stress axis : x y z
#
# Youngs Moduli (GPa) = 38.99775 93.28033 88.69062
#
# Poissons Ratio (x) = 0.06100 0.34976
# Poissons Ratio (y) = 0.02550 0.20219
# Poissons Ratio (z) = 0.15379 0.21265
#
# Static dielectric constant tensor:
#      x y z
#    x 1.587050 0.000000 0.000000 
#    y 0.000000 1.591250 0.000000 
#    z 0.000000 0.000000 1.630640 
# 
# From -- ./inp_files/34502.got.cif
#   From: 2010.05.17/outbox.cif.g08.bks.cpg/sg63_18_cif.got.tgz:34502.got - 2010.06.03 15:47:04.
