data_PCOD9468952
_publ_section_title
;
Structure prediction by ZEFSAII (Michael W. Deem and Ramdas Pophale) SiO2 
 PCOD9468952
Probable space group: C M C M
;
_chemical_formula_sum "Si O2"
_cell_formula_units_Z 80
_cell_length_a 8.482997
_cell_length_b 26.408241
_cell_length_c 20.598193
_cell_angle_alpha 90.000000
_cell_angle_beta 90.000000
_cell_angle_gamma 90.000000
_cell_volume 4614.428395
_symmetry_space_group_name_H-M "C M C M"
_symmetry_group_IT_number 63
_symmetry_cell_setting 'orthorhombic'
loop_
_space_group_symop_operation_xyz
x,y,z
-x,-y,1/2+z
x,-y,-z
-x,y,1/2-z
-x,-y,-z
x,y,1/2-z
-x,y,z
x,-y,1/2+z
1/2+x,1/2+y,z
1/2-x,1/2-y,1/2+z
1/2+x,1/2-y,-z
1/2-x,1/2+y,1/2-z
1/2-x,1/2-y,-z
1/2+x,1/2+y,1/2-z
1/2-x,1/2+y,z
1/2+x,1/2-y,1/2+z
loop_
_atom_site_type_symbol
_atom_site_label
_atom_site_fract_x
_atom_site_fract_y
_atom_site_fract_z
Si Si1 0.690833 0.943521 0.176201
Si Si2 0.311413 0.521722 0.430090
Si Si3 0.311480 0.132011 0.449802
Si Si4 0.189216 0.762512 0.927501
Si Si5 0.691606 0.846056 0.098774
O O1 0.744098 0.951361 0.250000
O O2 0.500000 0.943337 0.175872
O O3 0.744937 0.889099 0.148210
O O4 0.747059 0.986570 0.127052
O O5 0.255346 0.500000 0.500000
O O6 0.500000 0.519860 0.429654
O O7 0.256101 0.579521 0.424115
O O8 0.500000 0.130080 0.449503
O O9 0.256580 0.182316 0.411963
O O10 0.259101 0.138713 0.525403
O O11 0.238356 0.712175 0.887946
O O12 0.000000 0.765285 0.927938
O O13 0.250000 0.750000 0.000000
O O14 0.500000 0.846465 0.098592
#
# Coordination Sequence:
#
# PCOD9468952 Si02
#       5
#    16  16  16  16  16
#     4  10  20  35  55  77 103 139 178 214 259 320
#     4  11  22  34  51  77 106 138 176 222 270 317
#     4  10  18  30  50  74 102 135 171 217 266 310
#     4   9  16  27  44  70 103 134 167 208 256 310
#     4   8  15  28  47  72 101 132 165 208 257 307
#
# _framework density 17.336925000000001
#
# number of rings (size 3 to 8) (size 9 to 14) (size 15 to 20)
#    0.000    2.400    2.000    3.000    0.000    1.200 
#    0.000    1.000    0.000    1.200    0.000    2.800 
#    0.000    0.000    0.000    0.000    0.000    0.000 
#
# Total GULP energy -222919.340208 kJ/mol
# GULP energy per Si atom -5572.983505 kJ/mol
# Density = 1.729747 g / cm^3
# Si number density = 17.336925 Si / 1000 Ang^3
#
#
#
# Elastic Constant Matrix: (Units=GPa)
#
#
# Indices 1 2 3 4 5 6 
#
# 1 26.9270 23.1082 21.8784 0.0000 0.0000 0.0000
# 2 23.1082 191.4768 76.9637 0.0000 0.0000 0.0000
# 3 21.8784 76.9637 94.0914 0.0000 0.0000 0.0000
# 4 0.0000 0.0000 0.0000 18.3707 0.0000 0.0000
# 5 0.0000 0.0000 0.0000 0.0000 13.0802 0.0000
# 6 0.0000 0.0000 0.0000 0.0000 0.0000 25.8491
#
#
#
# Elastic Compliance Matrix: (Units=1/GPa)
#
#
# Indices 1 2 3 4 5 6 
#
# 1 0.046236 -0.001875 -0.009217 0.000000 0.000000 0.000000
# 2 -0.001875 0.007857 -0.005991 0.000000 0.000000 0.000000
# 3 -0.009217 -0.005991 0.017671 0.000000 0.000000 0.000000
# 4 0.000000 0.000000 0.000000 0.054434 0.000000 0.000000
# 5 0.000000 0.000000 0.000000 0.000000 0.076451 0.000000
# 6 0.000000 0.000000 0.000000 0.000000 0.000000 0.038686
#
#
# Mechanical properties :
#
#
# Convention : Reuss Voigt Hill
#
# Bulk Modulus (GPa) = 26.59708 61.82176 44.20942
# Shear Modulus (GPa) = 17.35908 24.16299 20.76103
#
# Velocity S-wave (km/s) = 3.16773 3.73732 3.46425
# Velocity P-wave (km/s) = 5.36227 7.37291 6.44646
#
# Compressibility (1/GPa) = 0.03759812
#
# Stress axis : x y z
#
# Youngs Moduli (GPa) = 21.62838 127.27891 56.58925
#
# Poissons Ratio (x) = 0.23867 0.52158
# Poissons Ratio (y) = 0.04056 0.33900
# Poissons Ratio (z) = 0.19935 0.76247
#
# Static dielectric constant tensor:
#      x y z
#    x 1.589670 0.000000 0.000000 
#    y 0.000000 1.615840 0.000000 
#    z 0.000000 0.000000 1.562940 
# 
# From -- ./inp_files/40528.got.cif
#   From: 2010.05.17/outbox.cif.g08.bks.cpg/sg63_21_cif.got.tgz:40528.got - 2010.06.03 15:47:04.
