data_PCOD9468826
_publ_section_title
;
Structure prediction by ZEFSAII (Michael W. Deem and Ramdas Pophale) SiO2 
 PCOD9468826
Probable space group: C M C M
;
_chemical_formula_sum "Si O2"
_cell_formula_units_Z 72
_cell_length_a 15.110375
_cell_length_b 16.735896
_cell_length_c 11.063378
_cell_angle_alpha 90.000000
_cell_angle_beta 90.000000
_cell_angle_gamma 90.000000
_cell_volume 2797.769697
_symmetry_space_group_name_H-M "C M C M"
_symmetry_group_IT_number 63
_symmetry_cell_setting 'orthorhombic'
loop_
_space_group_symop_operation_xyz
x,y,z
-x,-y,1/2+z
x,-y,-z
-x,y,1/2-z
-x,-y,-z
x,y,1/2-z
-x,y,z
x,-y,1/2+z
1/2+x,1/2+y,z
1/2-x,1/2-y,1/2+z
1/2+x,1/2-y,-z
1/2-x,1/2+y,1/2-z
1/2-x,1/2-y,-z
1/2+x,1/2+y,1/2-z
1/2-x,1/2+y,z
1/2+x,1/2-y,1/2+z
loop_
_atom_site_type_symbol
_atom_site_label
_atom_site_fract_x
_atom_site_fract_y
_atom_site_fract_z
Si Si1 0.853442 0.858118 0.014115
Si Si2 0.143291 0.320526 0.980432
Si Si3 0.852368 0.874359 0.750000
Si Si4 0.322810 0.442455 0.250000
Si Si5 0.399816 0.023192 0.122249
Si Si6 0.835166 0.312554 0.250000
O O1 0.877085 0.769187 0.056990
O O2 0.895986 0.874842 0.883174
O O3 0.747818 0.844609 0.983035
O O4 0.867795 0.921464 0.120537
O O5 0.116316 0.328000 0.122418
O O6 0.098927 0.382336 0.891142
O O7 0.811102 0.782849 0.750000
O O8 0.805424 0.961817 0.750000
O O9 0.249241 0.370770 0.250000
O O10 0.364482 0.996905 0.250000
O O11 0.500000 0.992336 0.117103
O O12 0.349990 0.000000 0.000000
#
# Coordination Sequence:
#
# PCOD9468826 Si02
#       6
#    16  16   8   8  16   8
#     4   9  19  31  48  73  99 135 179 215 270 324
#     4   9  18  33  52  68 103 136 174 225 267 313
#     4  10  18  30  44  67 105 137 169 218 259 328
#     4  10  18  30  46  67 102 140 176 212 264 319
#     4  10  23  39  55  78 108 145 190 231 270 320
#     4   8  18  32  45  74  99 133 182 218 253 329
#
# _framework density 25.734784000000001
#
# number of rings (size 3 to 8) (size 9 to 14) (size 15 to 20)
#    0.000    2.667    0.000    2.000    4.667    3.556 
#    0.000    0.000    0.000    0.000    0.000    0.000 
#    0.000   21.333    0.000    0.000    0.000    0.000 
#
# Total GULP energy -200597.082710 kJ/mol
# GULP energy per Si atom -5572.141186 kJ/mol
# Density = 2.567621 g / cm^3
# Si number density = 25.734784 Si / 1000 Ang^3
#
#
#
# Elastic Constant Matrix: (Units=GPa)
#
#
# Indices 1 2 3 4 5 6 
#
# 1 37.9083 16.5214 11.4476 0.0000 0.0000 0.0000
# 2 16.5214 166.2402 48.4264 0.0000 0.0000 0.0000
# 3 11.4476 48.4264 211.7201 0.0000 0.0000 0.0000
# 4 0.0000 0.0000 0.0000 44.2146 0.0000 0.0000
# 5 0.0000 0.0000 0.0000 0.0000 -7.3189 0.0000
# 6 0.0000 0.0000 0.0000 0.0000 0.0000 5.8788
#
#
#
# Elastic Compliance Matrix: (Units=1/GPa)
#
#
# Indices 1 2 3 4 5 6 
#
# 1 0.027744 -0.002486 -0.000932 0.000000 0.000000 0.000000
# 2 -0.002486 0.006668 -0.001391 0.000000 0.000000 0.000000
# 3 -0.000932 -0.001391 0.005092 0.000000 0.000000 0.000000
# 4 0.000000 0.000000 0.000000 0.022617 0.000000 0.000000
# 5 0.000000 0.000000 0.000000 0.000000 -0.136633 0.000000
# 6 0.000000 0.000000 0.000000 0.000000 0.000000 0.170104
#
#
# Mechanical properties :
#
#
# Convention : Reuss Voigt Hill
#
# Bulk Modulus (GPa) = 33.45912 63.18437 48.32175
# Shear Modulus (GPa) = 43.41420 31.18643 37.30032
#
# Velocity S-wave (km/s) = 4.11175 3.48493 3.81125
# Velocity P-wave (km/s) = 5.96420 6.38736 6.17940
#
# Compressibility (1/GPa) = 0.02988722
#
# Stress axis : x y z
#
# Youngs Moduli (GPa) = 36.04357 149.98005 196.39944
#
# Poissons Ratio (x) = 0.37284 0.18295
# Poissons Ratio (y) = 0.08960 0.27312
# Poissons Ratio (z) = 0.03357 0.20857
#
# Static dielectric constant tensor:
#      x y z
#    x 2.056430 0.000000 0.000000 
#    y 0.000000 2.060630 0.000000 
#    z 0.000000 0.000000 2.131030 
# 
# From -- ./inp_files/23620.got.cif
#   From: 2010.05.17/outbox.cif.g08.bks.cpg/sg63_12_cif.got.tgz:23620.got - 2010.06.03 15:47:04.
