data_PCOD9468784
_publ_section_title
;
Structure prediction by ZEFSAII (Michael W. Deem and Ramdas Pophale) SiO2 
 PCOD9468784
Probable space group: C M C M
;
_chemical_formula_sum "Si O2"
_cell_formula_units_Z 116
_cell_length_a 32.057350
_cell_length_b 26.445140
_cell_length_c 7.660607
_cell_angle_alpha 90.000000
_cell_angle_beta 90.000000
_cell_angle_gamma 90.000000
_cell_volume 6494.364684
_symmetry_space_group_name_H-M "C M C M"
_symmetry_group_IT_number 63
_symmetry_cell_setting 'orthorhombic'
loop_
_space_group_symop_operation_xyz
x,y,z
-x,-y,1/2+z
x,-y,-z
-x,y,1/2-z
-x,-y,-z
x,y,1/2-z
-x,y,z
x,-y,1/2+z
1/2+x,1/2+y,z
1/2-x,1/2-y,1/2+z
1/2+x,1/2-y,-z
1/2-x,1/2+y,1/2-z
1/2-x,1/2-y,-z
1/2+x,1/2+y,1/2-z
1/2-x,1/2+y,z
1/2+x,1/2-y,1/2+z
loop_
_atom_site_type_symbol
_atom_site_label
_atom_site_fract_x
_atom_site_fract_y
_atom_site_fract_z
Si Si1 0.000000 0.343325 0.250000
Si Si2 0.802590 0.220144 0.049796
Si Si3 0.657954 0.177858 0.955945
Si Si4 0.453071 0.303930 0.039160
Si Si5 0.758253 0.363315 0.538519
Si Si6 0.811826 0.941275 0.957340
Si Si7 0.627721 0.357834 0.044994
Si Si8 0.564843 0.186754 0.047994
O O1 0.036228 0.340185 0.405275
O O2 0.791755 0.231766 0.250000
O O3 0.821274 0.270721 0.967914
O O4 0.763828 0.188766 0.973151
O O5 0.839789 0.179305 0.047806
O O6 0.650751 0.185465 0.750000
O O7 0.693909 0.136270 0.981298
O O8 0.612852 0.169546 0.037199
O O9 0.455462 0.307505 0.250000
O O10 0.500000 0.310369 0.970230
O O11 0.418555 0.344356 0.981023
O O12 0.437812 0.246860 0.001401
O O13 0.757354 0.362523 0.750000
O O14 0.728307 0.408972 0.478476
O O15 0.812421 0.935819 0.750000
O O16 0.853651 0.913674 0.024051
O O17 0.809337 0.000000 0.000000
O O18 0.629365 0.344967 0.250000
O O19 0.550730 0.181793 0.250000
#
# Coordination Sequence:
#
# PCOD9468784 Si02
#       8
#     4  16  16  16  16  16  16  16
#     4  12  22  36  48  74  96 140 198 216 256 310
#     4   9  18  30  44  64  99 136 172 214 246 293
#     4  11  20  30  46  72 103 138 178 212 252 302
#     4   9  17  30  47  68  96 131 170 210 261 307
#     4   9  19  33  47  69  98 132 167 206 259 309
#     4  10  21  38  56  74  95 123 163 210 263 318
#     4  10  18  29  49  73  95 125 166 210 256 310
#     4  11  21  34  50  70 102 142 181 225 261 300
#
# _framework density 17.861640999999999
#
# number of rings (size 3 to 8) (size 9 to 14) (size 15 to 20)
#    0.000    2.069    2.759    2.690    0.000    3.310 
#    1.241    0.000    0.000    0.414    0.000    0.000 
#    0.000    0.000    0.000    0.621    3.862    1.241 
#
# Total GULP energy -322919.780535 kJ/mol
# GULP energy per Si atom -5567.582423 kJ/mol
# Density = 1.782099 g / cm^3
# Si number density = 17.861641 Si / 1000 Ang^3
#
#
#
# Elastic Constant Matrix: (Units=GPa)
#
#
# Indices 1 2 3 4 5 6 
#
# 1 143.3155 13.5397 13.8962 0.0000 0.0000 0.0000
# 2 13.5397 25.2178 -0.1366 0.0000 0.0000 0.0000
# 3 13.8962 -0.1366 71.8153 0.0000 0.0000 0.0000
# 4 0.0000 0.0000 0.0000 12.9867 0.0000 0.0000
# 5 0.0000 0.0000 0.0000 0.0000 19.6699 0.0000
# 6 0.0000 0.0000 0.0000 0.0000 0.0000 5.8275
#
#
#
# Elastic Compliance Matrix: (Units=1/GPa)
#
#
# Indices 1 2 3 4 5 6 
#
# 1 0.007500 -0.004035 -0.001459 0.000000 0.000000 0.000000
# 2 -0.004035 0.041825 0.000860 0.000000 0.000000 0.000000
# 3 -0.001459 0.000860 0.014209 0.000000 0.000000 0.000000
# 4 0.000000 0.000000 0.000000 0.077002 0.000000 0.000000
# 5 0.000000 0.000000 0.000000 0.000000 0.050839 0.000000
# 6 0.000000 0.000000 0.000000 0.000000 0.000000 0.171600
#
#
# Mechanical properties :
#
#
# Convention : Reuss Voigt Hill
#
# Bulk Modulus (GPa) = 18.42733 32.77192 25.59963
# Shear Modulus (GPa) = 12.80962 21.90011 17.35487
#
# Velocity S-wave (km/s) = 2.68089 3.50537 3.12048
# Velocity P-wave (km/s) = 4.46340 5.89669 5.22938
#
# Compressibility (1/GPa) = 0.05426721
#
# Stress axis : x y z
#
# Youngs Moduli (GPa) = 133.32850 23.90886 70.38018
#
# Poissons Ratio (x) = 0.09647 0.10268
# Poissons Ratio (y) = 0.53796 -0.06055
# Poissons Ratio (z) = 0.19452 -0.02057
#
# Static dielectric constant tensor:
#      x y z
#    x 1.651610 0.000000 0.000000 
#    y 0.000000 1.604730 0.000000 
#    z 0.000000 0.000000 1.656760 
# 
# From -- ./inp_files/14774.got.cif
#   From: 2010.05.17/outbox.cif.g08.bks.cpg/sg63_8_cif.got.tgz:14774.got - 2010.06.03 15:47:04.
