data_PCOD9468414
_publ_section_title
;
Structure prediction by ZEFSAII (Michael W. Deem and Ramdas Pophale) SiO2 
 PCOD9468414
Probable space group: C M C M
;
_chemical_formula_sum "Si O2"
_cell_formula_units_Z 112
_cell_length_a 13.251532
_cell_length_b 13.730369
_cell_length_c 32.764193
_cell_angle_alpha 90.000000
_cell_angle_beta 90.000000
_cell_angle_gamma 90.000000
_cell_volume 5961.393286
_symmetry_space_group_name_H-M "C M C M"
_symmetry_group_IT_number 63
_symmetry_cell_setting 'orthorhombic'
loop_
_space_group_symop_operation_xyz
x,y,z
-x,-y,1/2+z
x,-y,-z
-x,y,1/2-z
-x,-y,-z
x,y,1/2-z
-x,y,z
x,-y,1/2+z
1/2+x,1/2+y,z
1/2-x,1/2-y,1/2+z
1/2+x,1/2-y,-z
1/2-x,1/2+y,1/2-z
1/2-x,1/2-y,-z
1/2+x,1/2+y,1/2-z
1/2-x,1/2+y,z
1/2+x,1/2-y,1/2+z
loop_
_atom_site_type_symbol
_atom_site_label
_atom_site_fract_x
_atom_site_fract_y
_atom_site_fract_z
Si Si1 0.122340 0.231896 0.471572
Si Si2 0.236591 0.516862 0.354412
Si Si3 0.379404 0.471136 0.931003
Si Si4 0.197342 0.730616 0.353459
Si Si5 0.879688 0.329983 0.386316
Si Si6 0.879456 0.804288 0.440972
Si Si7 0.116194 0.900498 0.298602
O O1 0.147405 0.302509 0.433538
O O2 0.155364 0.251243 0.518166
O O3 0.000000 0.234508 0.473092
O O4 0.148225 0.120777 0.458975
O O5 0.318332 0.539070 0.389454
O O6 0.182264 0.617718 0.344978
O O7 0.161965 0.435316 0.372924
O O8 0.301271 0.473994 0.317131
O O9 0.500000 0.466222 0.924497
O O10 0.356519 0.580548 0.946005
O O11 0.316429 0.756908 0.357342
O O12 0.157797 0.762202 0.398171
O O13 0.143445 0.799153 0.320750
O O14 0.000000 0.321891 0.381941
O O15 0.000000 0.797929 0.439230
O O16 0.123990 0.893681 0.250000
O O17 0.000000 0.927070 0.309115
#
# Coordination Sequence:
#
# PCOD9468414 Si02
#       7
#    16  16  16  16  16  16  16
#     4   9  18  32  52  79 115 157 198 244 293 333
#     4  11  22  37  58  89 116 151 188 232 287 341
#     4  10  17  31  55  84 113 145 193 247 292 335
#     4  11  22  37  60  87 114 151 191 232 286 344
#     4  10  21  37  53  77 115 158 198 231 273 330
#     4  10  19  33  54  83 117 152 196 251 294 334
#     4  10  22  42  68  93 116 142 179 234 293 350
#
# _framework density 18.787555000000001
#
# number of rings (size 3 to 8) (size 9 to 14) (size 15 to 20)
#    0.000    1.857    4.286    1.286    0.000    4.571 
#    0.000    0.714    0.000    9.429    0.000    0.000 
#    0.000    0.000    0.000    0.000    0.000    0.000 
#
# Total GULP energy -312387.722892 kJ/mol
# GULP energy per Si atom -5578.352195 kJ/mol
# Density = 1.874479 g / cm^3
# Si number density = 18.787555 Si / 1000 Ang^3
#
#
#
# Elastic Constant Matrix: (Units=GPa)
#
#
# Indices 1 2 3 4 5 6 
#
# 1 55.5732 17.7286 27.0845 0.0000 0.0000 0.0000
# 2 17.7286 101.9767 22.8742 0.0000 0.0000 0.0000
# 3 27.0845 22.8742 91.6247 0.0000 0.0000 0.0000
# 4 0.0000 0.0000 0.0000 7.9698 0.0000 0.0000
# 5 0.0000 0.0000 0.0000 0.0000 20.7112 0.0000
# 6 0.0000 0.0000 0.0000 0.0000 0.0000 17.8226
#
#
#
# Elastic Compliance Matrix: (Units=1/GPa)
#
#
# Indices 1 2 3 4 5 6 
#
# 1 0.021590 -0.002460 -0.005768 0.000000 0.000000 0.000000
# 2 -0.002460 0.010668 -0.001936 0.000000 0.000000 0.000000
# 3 -0.005768 -0.001936 0.013103 0.000000 0.000000 0.000000
# 4 0.000000 0.000000 0.000000 0.125474 0.000000 0.000000
# 5 0.000000 0.000000 0.000000 0.000000 0.048283 0.000000
# 6 0.000000 0.000000 0.000000 0.000000 0.000000 0.056108
#
#
# Mechanical properties :
#
#
# Convention : Reuss Voigt Hill
#
# Bulk Modulus (GPa) = 39.94739 42.72769 41.33754
# Shear Modulus (GPa) = 16.45289 21.39987 18.92638
#
# Velocity S-wave (km/s) = 2.96249 3.37864 3.17738
# Velocity P-wave (km/s) = 5.74549 6.16540 5.95914
#
# Compressibility (1/GPa) = 0.02503293
#
# Stress axis : x y z
#
# Youngs Moduli (GPa) = 46.31751 93.73766 76.32112
#
# Poissons Ratio (x) = 0.23056 0.44022
# Poissons Ratio (y) = 0.11392 0.14778
# Poissons Ratio (z) = 0.26716 0.18150
#
# Static dielectric constant tensor:
#      x y z
#    x 1.696900 0.000000 0.000000 
#    y 0.000000 1.673820 0.000000 
#    z 0.000000 0.000000 1.640680 
# 
# From -- ./inp_files/73549.got.cif
#   From: 2010.05.17/outbox.cif.g08.bks.cpg/sg63_37_cif.got.tgz:73549.got - 2010.06.03 15:47:04.
