data_PCOD9468660
_publ_section_title
;
Structure prediction by ZEFSAII (Michael W. Deem and Ramdas Pophale) SiO2 
 PCOD9468660
Probable space group: C M C M
;
_chemical_formula_sum "Si O2"
_cell_formula_units_Z 80
_cell_length_a 27.120860
_cell_length_b 19.663991
_cell_length_c 8.190535
_cell_angle_alpha 90.000000
_cell_angle_beta 90.000000
_cell_angle_gamma 90.000000
_cell_volume 4368.047919
_symmetry_space_group_name_H-M "C M C M"
_symmetry_group_IT_number 63
_symmetry_cell_setting 'orthorhombic'
loop_
_space_group_symop_operation_xyz
x,y,z
-x,-y,1/2+z
x,-y,-z
-x,y,1/2-z
-x,-y,-z
x,y,1/2-z
-x,y,z
x,-y,1/2+z
1/2+x,1/2+y,z
1/2-x,1/2-y,1/2+z
1/2+x,1/2-y,-z
1/2-x,1/2+y,1/2-z
1/2-x,1/2-y,-z
1/2+x,1/2+y,1/2-z
1/2-x,1/2+y,z
1/2+x,1/2-y,1/2+z
loop_
_atom_site_type_symbol
_atom_site_label
_atom_site_fract_x
_atom_site_fract_y
_atom_site_fract_z
Si Si1 0.500000 0.162051 0.059788
Si Si2 0.802460 0.577817 0.054949
Si Si3 0.500000 0.685484 0.441167
Si Si4 0.104404 0.172200 0.947625
Si Si5 0.693738 0.422180 0.054943
Si Si6 0.607067 0.169609 0.450061
O O1 0.500000 0.142627 0.250000
O O2 0.446438 0.142243 0.991266
O O3 0.500000 0.244346 0.044611
O O4 0.803403 0.579113 0.250000
O O5 0.846853 0.625111 0.993777
O O6 0.809090 0.500000 0.000000
O O7 0.748081 0.600608 0.000440
O O8 0.500000 0.702706 0.250000
O O9 0.448851 0.649444 0.485774
O O10 0.102649 0.170337 0.750000
O O11 0.149554 0.125722 0.004712
O O12 0.111808 0.251160 0.997067
O O13 0.693204 0.420967 0.250000
O O14 0.686970 0.500000 0.000000
O O15 0.606095 0.168313 0.250000
#
# Coordination Sequence:
#
# PCOD9468660 Si02
#       6
#     8  16   8  16  16  16
#     4   8  14  30  51  68  94 130 163 192 232 286
#     4  10  19  32  49  69  96 128 161 197 240 286
#     4  10  18  28  47  76 103 124 151 192 241 282
#     4   9  18  34  53  71  94 127 163 194 231 283
#     4  10  20  34  52  71  94 126 161 196 238 286
#     4   8  15  29  51  73  92 123 164 198 230 278
#
# _framework density 18.314817999999999
#
# number of rings (size 3 to 8) (size 9 to 14) (size 15 to 20)
#    0.000    2.800    0.000    4.500    0.000    2.400 
#    0.000    9.000    0.000    0.000    0.000    0.000 
#    0.000    0.000    0.000    0.000    0.000    0.000 
#
# Total GULP energy -222871.494656 kJ/mol
# GULP energy per Si atom -5571.787366 kJ/mol
# Density = 1.827313 g / cm^3
# Si number density = 18.314818 Si / 1000 Ang^3
#
#
#
# Elastic Constant Matrix: (Units=GPa)
#
#
# Indices 1 2 3 4 5 6 
#
# 1 233.4870 89.9761 18.6164 0.0000 0.0000 0.0000
# 2 89.9761 52.9423 9.4374 0.0000 0.0000 0.0000
# 3 18.6164 9.4374 25.8413 0.0000 0.0000 0.0000
# 4 0.0000 0.0000 0.0000 7.6764 0.0000 0.0000
# 5 0.0000 0.0000 0.0000 0.0000 14.4923 0.0000
# 6 0.0000 0.0000 0.0000 0.0000 0.0000 1.2468
#
#
#
# Elastic Compliance Matrix: (Units=1/GPa)
#
#
# Indices 1 2 3 4 5 6 
#
# 1 0.012454 -0.020929 -0.001329 0.000000 0.000000 0.000000
# 2 -0.020929 0.055374 -0.005146 0.000000 0.000000 0.000000
# 3 -0.001329 -0.005146 0.041534 0.000000 0.000000 0.000000
# 4 0.000000 0.000000 0.000000 0.130270 0.000000 0.000000
# 5 0.000000 0.000000 0.000000 0.000000 0.069002 0.000000
# 6 0.000000 0.000000 0.000000 0.000000 0.000000 0.802051
#
#
# Mechanical properties :
#
#
# Convention : Reuss Voigt Hill
#
# Bulk Modulus (GPa) = 18.32973 60.92561 39.62767
# Shear Modulus (GPa) = 4.22412 17.63248 10.92830
#
# Velocity S-wave (km/s) = 1.52033 3.10618 2.44538
# Velocity P-wave (km/s) = 3.62101 6.79724 5.44583
#
# Compressibility (1/GPa) = 0.05455619
#
# Stress axis : x y z
#
# Youngs Moduli (GPa) = 80.29649 18.05894 24.07654
#
# Poissons Ratio (x) = 0.37795 0.03199
# Poissons Ratio (y) = 1.68050 0.12389
# Poissons Ratio (z) = 0.10669 0.09293
#
# Static dielectric constant tensor:
#      x y z
#    x 1.674370 0.000000 0.000000 
#    y 0.000000 1.603150 0.000000 
#    z 0.000000 0.000000 1.638140 
# 
# From -- ./inp_files/12118.got.cif
#   From: 2010.05.17/outbox.cif.g08.bks.cpg/sg63_7_cif.got.tgz:12118.got - 2010.06.03 15:47:04.
