data_PCOD9468817
_publ_section_title
;
Structure prediction by ZEFSAII (Michael W. Deem and Ramdas Pophale) SiO2 
 PCOD9468817
Probable space group: C M C M
;
_chemical_formula_sum "Si O2"
_cell_formula_units_Z 72
_cell_length_a 17.486445
_cell_length_b 29.048770
_cell_length_c 8.639171
_cell_angle_alpha 90.000000
_cell_angle_beta 90.000000
_cell_angle_gamma 90.000000
_cell_volume 4388.350873
_symmetry_space_group_name_H-M "C M C M"
_symmetry_group_IT_number 63
_symmetry_cell_setting 'orthorhombic'
loop_
_space_group_symop_operation_xyz
x,y,z
-x,-y,1/2+z
x,-y,-z
-x,y,1/2-z
-x,-y,-z
x,y,1/2-z
-x,y,z
x,-y,1/2+z
1/2+x,1/2+y,z
1/2-x,1/2-y,1/2+z
1/2+x,1/2-y,-z
1/2-x,1/2+y,1/2-z
1/2-x,1/2-y,-z
1/2+x,1/2+y,1/2-z
1/2-x,1/2+y,z
1/2+x,1/2-y,1/2+z
loop_
_atom_site_type_symbol
_atom_site_label
_atom_site_fract_x
_atom_site_fract_y
_atom_site_fract_z
Si Si1 0.339534 0.948630 0.933615
Si Si2 0.000000 0.552029 0.565102
Si Si3 0.230032 0.362904 0.436607
Si Si4 0.322852 0.278003 0.064575
Si Si5 0.414891 0.800344 0.436486
O O1 0.346597 0.951690 0.750000
O O2 0.419708 0.929432 0.003505
O O3 0.275566 0.912394 0.985023
O O4 0.327505 0.000000 0.000000
O O5 0.000000 0.500000 0.500000
O O6 0.000000 0.553074 0.750000
O O7 0.226985 0.368044 0.250000
O O8 0.302907 0.330857 0.475219
O O9 0.154200 0.333868 0.485961
O O10 0.324237 0.274471 0.250000
O O11 0.250000 0.250000 0.000000
O O12 0.394519 0.250903 0.995242
O O13 0.413480 0.800207 0.250000
O O14 0.500000 0.814454 0.487016
#
# Coordination Sequence:
#
# PCOD9468817 Si02
#       5
#    16   8  16  16  16
#     4  11  21  32  45  63  85 113 150 188 226 263
#     4  10  18  30  44  56  78 110 142 180 222 258
#     4   9  18  31  46  64  88 121 154 185 226 266
#     4   9  17  30  47  65  88 118 148 183 226 268
#     4   9  18  31  47  68  93 121 150 184 226 266
#
# _framework density 16.407076
#
# number of rings (size 3 to 8) (size 9 to 14) (size 15 to 20)
#    0.000    2.444    0.000    6.333    1.556    4.889 
#    0.000    0.000    0.000    0.000    0.000    0.000 
#    0.000    0.889    0.000    2.889    0.000    4.222 
#
# Total GULP energy -200562.644503 kJ/mol
# GULP energy per Si atom -5571.184570 kJ/mol
# Density = 1.636973 g / cm^3
# Si number density = 16.407076 Si / 1000 Ang^3
#
#
#
# Elastic Constant Matrix: (Units=GPa)
#
#
# Indices 1 2 3 4 5 6 
#
# 1 19.0663 12.0943 0.1282 0.0000 0.0000 0.0000
# 2 12.0943 89.1019 21.0688 0.0000 0.0000 0.0000
# 3 0.1282 21.0688 52.5612 0.0000 0.0000 0.0000
# 4 0.0000 0.0000 0.0000 23.9007 0.0000 0.0000
# 5 0.0000 0.0000 0.0000 0.0000 17.7871 0.0000
# 6 0.0000 0.0000 0.0000 0.0000 0.0000 26.6965
#
#
#
# Elastic Compliance Matrix: (Units=1/GPa)
#
#
# Indices 1 2 3 4 5 6 
#
# 1 0.057911 -0.008647 0.003325 0.000000 0.000000 0.000000
# 2 -0.008647 0.013689 -0.005466 0.000000 0.000000 0.000000
# 3 0.003325 -0.005466 0.021208 0.000000 0.000000 0.000000
# 4 0.000000 0.000000 0.000000 0.041840 0.000000 0.000000
# 5 0.000000 0.000000 0.000000 0.000000 0.056220 0.000000
# 6 0.000000 0.000000 0.000000 0.000000 0.000000 0.037458
#
#
# Mechanical properties :
#
#
# Convention : Reuss Voigt Hill
#
# Bulk Modulus (GPa) = 14.03855 25.25688 19.64771
# Shear Modulus (GPa) = 18.27169 22.17274 20.22221
#
# Velocity S-wave (km/s) = 3.34076 3.68015 3.51455
# Velocity P-wave (km/s) = 4.84312 5.78665 5.33578
#
# Compressibility (1/GPa) = 0.07123245
#
# Stress axis : x y z
#
# Youngs Moduli (GPa) = 17.26788 73.04983 47.15106
#
# Poissons Ratio (x) = 0.63164 -0.15677
# Poissons Ratio (y) = 0.14931 0.25774
# Poissons Ratio (z) = -0.05741 0.39930
#
# Static dielectric constant tensor:
#      x y z
#    x 1.499990 0.000000 0.000000 
#    y 0.000000 1.586230 0.000000 
#    z 0.000000 0.000000 1.547560 
# 
# From -- ./inp_files/6312.got.cif
#   From: 2010.05.17/outbox.cif.g08.bks.cpg/sg63_4_cif.got.tgz:6312.got - 2010.06.03 15:47:04.
