data_PCOD9468990
_publ_section_title
;
Structure prediction by ZEFSAII (Michael W. Deem and Ramdas Pophale) SiO2 
 PCOD9468990
Probable space group: C M C M
;
_chemical_formula_sum "Si O2"
_cell_formula_units_Z 80
_cell_length_a 25.620582
_cell_length_b 21.147194
_cell_length_c 8.546019
_cell_angle_alpha 90.000000
_cell_angle_beta 90.000000
_cell_angle_gamma 90.000000
_cell_volume 4630.262304
_symmetry_space_group_name_H-M "C M C M"
_symmetry_group_IT_number 63
_symmetry_cell_setting 'orthorhombic'
loop_
_space_group_symop_operation_xyz
x,y,z
-x,-y,1/2+z
x,-y,-z
-x,y,1/2-z
-x,-y,-z
x,y,1/2-z
-x,y,z
x,-y,1/2+z
1/2+x,1/2+y,z
1/2-x,1/2-y,1/2+z
1/2+x,1/2-y,-z
1/2-x,1/2+y,1/2-z
1/2-x,1/2-y,-z
1/2+x,1/2+y,1/2-z
1/2-x,1/2+y,z
1/2+x,1/2-y,1/2+z
loop_
_atom_site_type_symbol
_atom_site_label
_atom_site_fract_x
_atom_site_fract_y
_atom_site_fract_z
Si Si1 0.614599 0.244470 0.435832
Si Si2 0.500000 0.259273 0.435642
Si Si3 0.887158 0.888424 0.940285
Si Si4 0.717823 0.190141 0.564768
Si Si5 0.225551 0.933369 0.936916
Si Si6 0.000000 0.898763 0.566352
O O1 0.624214 0.244695 0.250000
O O2 0.554526 0.224519 0.464228
O O3 0.618094 0.316647 0.497640
O O4 0.658034 0.202307 0.517483
O O5 0.500000 0.278138 0.250000
O O6 0.500000 0.322825 0.539015
O O7 0.888754 0.886098 0.750000
O O8 0.834772 0.923995 0.989650
O O9 0.942727 0.917252 0.997207
O O10 0.723294 0.188917 0.750000
O O11 0.750000 0.250000 0.500000
O O12 0.741476 0.126188 0.495237
O O13 0.225902 0.933647 0.750000
O O14 0.245401 0.000000 0.000000
O O15 0.000000 0.914262 0.750000
#
# Coordination Sequence:
#
# PCOD9468990 Si02
#       6
#    16   8  16  16  16   8
#     4  10  18  30  51  78 108 139 173 215 262 312
#     4   8  16  28  44  73 108 137 167 208 259 311
#     4   9  17  30  49  71 100 136 178 220 263 309
#     4  12  23  36  55  80 107 139 180 224 270 319
#     4  11  23  38  54  75 105 142 181 223 272 321
#     4   8  14  26  45  69  95 131 175 220 259 301
#
# _framework density 17.277640000000002
#
# number of rings (size 3 to 8) (size 9 to 14) (size 15 to 20)
#    0.000    2.000    2.000    3.000    0.000    1.600 
#    0.000    0.500    0.000    0.000    0.000    0.700 
#    0.000    0.000    0.000    0.000    0.000    0.000 
#
# Total GULP energy -223105.466228 kJ/mol
# GULP energy per Si atom -5577.636656 kJ/mol
# Density = 1.723832 g / cm^3
# Si number density = 17.277640 Si / 1000 Ang^3
#
#
#
# Elastic Constant Matrix: (Units=GPa)
#
#
# Indices 1 2 3 4 5 6 
#
# 1 102.1801 52.8541 22.7576 0.0000 0.0000 0.0000
# 2 52.8541 99.3541 23.6847 0.0000 0.0000 0.0000
# 3 22.7576 23.6847 45.6686 0.0000 0.0000 0.0000
# 4 0.0000 0.0000 0.0000 18.5602 0.0000 0.0000
# 5 0.0000 0.0000 0.0000 0.0000 20.7972 0.0000
# 6 0.0000 0.0000 0.0000 0.0000 0.0000 9.3555
#
#
#
# Elastic Compliance Matrix: (Units=1/GPa)
#
#
# Indices 1 2 3 4 5 6 
#
# 1 0.013989 -0.006595 -0.003550 0.000000 0.000000 0.000000
# 2 -0.006595 0.014594 -0.004282 0.000000 0.000000 0.000000
# 3 -0.003550 -0.004282 0.025887 0.000000 0.000000 0.000000
# 4 0.000000 0.000000 0.000000 0.053879 0.000000 0.000000
# 5 0.000000 0.000000 0.000000 0.000000 0.048083 0.000000
# 6 0.000000 0.000000 0.000000 0.000000 0.000000 0.106889
#
#
# Mechanical properties :
#
#
# Convention : Reuss Voigt Hill
#
# Bulk Modulus (GPa) = 39.04112 49.53284 44.28698
# Shear Modulus (GPa) = 16.62697 19.60300 18.11498
#
# Velocity S-wave (km/s) = 3.10553 3.37202 3.24151
# Velocity P-wave (km/s) = 5.95856 6.62508 6.30064
#
# Compressibility (1/GPa) = 0.02561402
#
# Stress axis : x y z
#
# Youngs Moduli (GPa) = 71.48480 68.51900 38.62925
#
# Poissons Ratio (x) = 0.45191 0.13715
# Poissons Ratio (y) = 0.47147 0.16543
# Poissons Ratio (z) = 0.25381 0.29342
#
# Static dielectric constant tensor:
#      x y z
#    x 1.647450 0.000000 0.000000 
#    y 0.000000 1.544430 0.000000 
#    z 0.000000 0.000000 1.585280 
# 
# From -- ./inp_files/10126.got.cif
#   From: 2010.05.17/outbox.cif.g08.bks.cpg/sg63_6_cif.got.tgz:10126.got - 2010.06.03 15:47:04.
