data_PCOD9468865
_publ_section_title
;
Structure prediction by ZEFSAII (Michael W. Deem and Ramdas Pophale) SiO2 
 PCOD9468865
Probable space group: C M C M
;
_chemical_formula_sum "Si O2"
_cell_formula_units_Z 96
_cell_length_a 13.713985
_cell_length_b 10.095379
_cell_length_c 26.814752
_cell_angle_alpha 90.000000
_cell_angle_beta 90.000000
_cell_angle_gamma 90.000000
_cell_volume 3712.445465
_symmetry_space_group_name_H-M "C M C M"
_symmetry_group_IT_number 63
_symmetry_cell_setting 'orthorhombic'
loop_
_space_group_symop_operation_xyz
x,y,z
-x,-y,1/2+z
x,-y,-z
-x,y,1/2-z
-x,-y,-z
x,y,1/2-z
-x,y,z
x,-y,1/2+z
1/2+x,1/2+y,z
1/2-x,1/2-y,1/2+z
1/2+x,1/2-y,-z
1/2-x,1/2+y,1/2-z
1/2-x,1/2-y,-z
1/2+x,1/2+y,1/2-z
1/2-x,1/2+y,z
1/2+x,1/2-y,1/2+z
loop_
_atom_site_type_symbol
_atom_site_label
_atom_site_fract_x
_atom_site_fract_y
_atom_site_fract_z
Si Si1 0.175619 0.781729 0.645362
Si Si2 0.114657 0.567826 0.563918
Si Si3 0.661316 0.252193 0.750000
Si Si4 0.884105 0.998945 0.578632
Si Si5 0.388785 0.154928 0.355465
Si Si6 0.883122 0.218668 0.508626
Si Si7 0.662123 0.954217 0.750000
O O1 0.133877 0.679905 0.605478
O O2 0.115168 0.768611 0.696123
O O3 0.164032 0.932142 0.626098
O O4 0.291659 0.756861 0.652133
O O5 0.134322 0.432799 0.594697
O O6 0.154010 0.640226 0.512791
O O7 0.000000 0.558450 0.554295
O O8 0.698432 0.103030 0.750000
O O9 0.746044 0.359055 0.750000
O O10 0.849257 0.141107 0.558136
O O11 0.000000 0.004413 0.586002
O O12 0.867709 0.890782 0.534708
O O13 0.500000 0.208785 0.361338
O O14 0.390880 0.073077 0.302962
O O15 0.000000 0.230836 0.514451
#
# Coordination Sequence:
#
# PCOD9468865 Si02
#       7
#    16  16   8  16  16  16   8
#     4  10  18  30  47  71 100 135 166 218 262 313
#     4   9  16  29  50  76 100 127 168 221 268 315
#     4  10  20  32  52  80 109 135 175 215 271 313
#     4   8  13  24  42  68  98 131 164 208 271 326
#     4  10  20  32  49  73 100 132 177 216 256 312
#     4   7  11  21  41  67  96 125 161 208 264 319
#     4  10  19  36  54  80 102 141 174 223 265 321
#
# _framework density 25.858967
#
# number of rings (size 3 to 8) (size 9 to 14) (size 15 to 20)
#    0.000    3.000    1.667    2.750    0.000    0.000 
#    0.000    2.500    0.000    2.000    0.000   21.000 
#    0.000    0.000    0.000    0.000    0.000    0.333 
#
# Total GULP energy -267849.633605 kJ/mol
# GULP energy per Si atom -5580.200700 kJ/mol
# Density = 2.580011 g / cm^3
# Si number density = 25.858967 Si / 1000 Ang^3
#
#
#
# Elastic Constant Matrix: (Units=GPa)
#
#
# Indices 1 2 3 4 5 6 
#
# 1 96.8212 19.6804 10.6724 0.0000 0.0000 0.0000
# 2 19.6804 103.1059 17.2643 0.0000 0.0000 0.0000
# 3 10.6724 17.2643 154.8890 0.0000 0.0000 0.0000
# 4 0.0000 0.0000 0.0000 40.4323 0.0000 0.0000
# 5 0.0000 0.0000 0.0000 0.0000 0.1259 0.0000
# 6 0.0000 0.0000 0.0000 0.0000 0.0000 19.8704
#
#
#
# Elastic Compliance Matrix: (Units=1/GPa)
#
#
# Indices 1 2 3 4 5 6 
#
# 1 0.010787 -0.001971 -0.000524 0.000000 0.000000 0.000000
# 2 -0.001971 0.010243 -0.001006 0.000000 0.000000 0.000000
# 3 -0.000524 -0.001006 0.006604 0.000000 0.000000 0.000000
# 4 0.000000 0.000000 0.000000 0.024733 0.000000 0.000000
# 5 0.000000 0.000000 0.000000 0.000000 7.945263 0.000000
# 6 0.000000 0.000000 0.000000 0.000000 0.000000 0.050326
#
#
# Mechanical properties :
#
#
# Convention : Reuss Voigt Hill
#
# Bulk Modulus (GPa) = 48.46564 50.00561 49.23563
# Shear Modulus (GPa) = 0.62021 32.56564 16.59293
#
# Velocity S-wave (km/s) = 0.49027 3.55259 2.53587
# Velocity P-wave (km/s) = 4.37075 6.01728 5.25886
#
# Compressibility (1/GPa) = 0.02063317
#
# Stress axis : x y z
#
# Youngs Moduli (GPa) = 92.70662 97.62322 151.41344
#
# Poissons Ratio (x) = 0.19244 0.07927
# Poissons Ratio (y) = 0.18275 0.15231
# Poissons Ratio (z) = 0.04853 0.09820
#
# Static dielectric constant tensor:
#      x y z
#    x 1.994770 0.000000 0.000000 
#    y 0.000000 2.058400 0.000000 
#    z 0.000000 0.000000 2.138420 
# 
# From -- ./inp_files/73356.got.cif
#   From: 2010.05.17/outbox.cif.g08.bks.cpg/sg63_37_cif.got.tgz:73356.got - 2010.06.03 15:47:04.
