data_PCOD9468812
_publ_section_title
;
Structure prediction by ZEFSAII (Michael W. Deem and Ramdas Pophale) SiO2 
 PCOD9468812
Probable space group: C M C M
;
_chemical_formula_sum "Si O2"
_cell_formula_units_Z 64
_cell_length_a 9.113818
_cell_length_b 14.864586
_cell_length_c 25.217036
_cell_angle_alpha 90.000000
_cell_angle_beta 90.000000
_cell_angle_gamma 90.000000
_cell_volume 3416.230833
_symmetry_space_group_name_H-M "C M C M"
_symmetry_group_IT_number 63
_symmetry_cell_setting 'orthorhombic'
loop_
_space_group_symop_operation_xyz
x,y,z
-x,-y,1/2+z
x,-y,-z
-x,y,1/2-z
-x,-y,-z
x,y,1/2-z
-x,y,z
x,-y,1/2+z
1/2+x,1/2+y,z
1/2-x,1/2-y,1/2+z
1/2+x,1/2-y,-z
1/2-x,1/2+y,1/2-z
1/2-x,1/2-y,-z
1/2+x,1/2+y,1/2-z
1/2-x,1/2+y,z
1/2+x,1/2-y,1/2+z
loop_
_atom_site_type_symbol
_atom_site_label
_atom_site_fract_x
_atom_site_fract_y
_atom_site_fract_z
Si Si1 0.174928 0.753384 0.556980
Si Si2 0.174110 0.408300 0.750000
Si Si3 0.173055 0.607887 0.132768
Si Si4 0.173723 0.898820 0.250000
Si Si5 0.174574 0.395185 0.142531
O O1 0.250000 0.750000 0.500000
O O2 0.232281 0.837455 0.591171
O O3 0.212357 0.665576 0.592198
O O4 0.000000 0.757083 0.551018
O O5 0.199123 0.361022 0.806225
O O6 0.274686 0.496661 0.750000
O O7 0.000000 0.435699 0.750000
O O8 0.204624 0.500831 0.132195
O O9 0.000000 0.619966 0.121257
O O10 0.241717 0.863463 0.304763
O O11 0.000000 0.889162 0.250000
O O12 0.000000 0.387639 0.152324
#
# Coordination Sequence:
#
# PCOD9468812 Si02
#       5
#    16   8  16   8  16
#     4  11  24  40  57  79 108 144 188 233 274 322
#     4   8  16  33  56  81 114 152 180 209 267 341
#     4   9  18  36  60  83 110 145 183 221 266 324
#     4  10  18  29  54  89 116 138 176 229 271 311
#     4   9  20  39  59  79 111 152 182 212 271 341
#
# _framework density 18.734096000000001
#
# number of rings (size 3 to 8) (size 9 to 14) (size 15 to 20)
#    0.000    2.500    0.000    3.375    0.000    8.000 
#    0.000    7.500    0.000    0.000    0.000    0.000 
#    0.000    0.000    0.000    0.000    0.000    0.000 
#
# Total GULP energy -178560.508756 kJ/mol
# GULP energy per Si atom -5580.015899 kJ/mol
# Density = 1.869146 g / cm^3
# Si number density = 18.734096 Si / 1000 Ang^3
#
#
#
# Elastic Constant Matrix: (Units=GPa)
#
#
# Indices 1 2 3 4 5 6 
#
# 1 64.2162 46.4080 90.3988 0.0000 0.0000 0.0000
# 2 46.4080 81.0189 72.0403 0.0000 0.0000 0.0000
# 3 90.3988 72.0403 206.5678 0.0000 0.0000 0.0000
# 4 0.0000 0.0000 0.0000 28.1335 0.0000 0.0000
# 5 0.0000 0.0000 0.0000 0.0000 38.4269 0.0000
# 6 0.0000 0.0000 0.0000 0.0000 0.0000 25.0936
#
#
#
# Elastic Compliance Matrix: (Units=1/GPa)
#
#
# Indices 1 2 3 4 5 6 
#
# 1 0.048324 -0.012866 -0.016661 0.000000 0.000000 0.000000
# 2 -0.012866 0.021316 -0.001804 0.000000 0.000000 0.000000
# 3 -0.016661 -0.001804 0.012761 0.000000 0.000000 0.000000
# 4 0.000000 0.000000 0.000000 0.035545 0.000000 0.000000
# 5 0.000000 0.000000 0.000000 0.000000 0.026023 0.000000
# 6 0.000000 0.000000 0.000000 0.000000 0.000000 0.039851
#
#
# Mechanical properties :
#
#
# Convention : Reuss Voigt Hill
#
# Bulk Modulus (GPa) = 50.65604 85.49965 68.07785
# Shear Modulus (GPa) = 19.75806 27.86120 23.80963
#
# Velocity S-wave (km/s) = 3.25107 3.86060 3.56887
# Velocity P-wave (km/s) = 6.41801 8.09999 7.30755
#
# Compressibility (1/GPa) = 0.01974098
#
# Stress axis : x y z
#
# Youngs Moduli (GPa) = 20.69358 46.91289 78.36272
#
# Poissons Ratio (x) = 0.60357 1.30559
# Poissons Ratio (y) = 0.26624 0.14133
# Poissons Ratio (z) = 0.34477 0.08461
#
# Static dielectric constant tensor:
#      x y z
#    x 1.621140 0.000000 0.000000 
#    y 0.000000 1.666900 0.000000 
#    z 0.000000 0.000000 1.642530 
# 
# From -- ./inp_files/59090.got.cif
#   From: 2010.05.17/outbox.cif.g08.bks.cpg/sg63_30_cif.got.tgz:59090.got - 2010.06.03 15:47:04.
