data_PCOD9468105
_publ_section_title
;
Structure prediction by ZEFSAII (Michael W. Deem and Ramdas Pophale) SiO2 
 PCOD9468105
Probable space group: C M C M
;
_chemical_formula_sum "Si O2"
_cell_formula_units_Z 80
_cell_length_a 14.258779
_cell_length_b 29.147235
_cell_length_c 8.478009
_cell_angle_alpha 90.000000
_cell_angle_beta 90.000000
_cell_angle_gamma 90.000000
_cell_volume 3523.494303
_symmetry_space_group_name_H-M "C M C M"
_symmetry_group_IT_number 63
_symmetry_cell_setting 'orthorhombic'
loop_
_space_group_symop_operation_xyz
x,y,z
-x,-y,1/2+z
x,-y,-z
-x,y,1/2-z
-x,-y,-z
x,y,1/2-z
-x,y,z
x,-y,1/2+z
1/2+x,1/2+y,z
1/2-x,1/2-y,1/2+z
1/2+x,1/2-y,-z
1/2-x,1/2+y,1/2-z
1/2-x,1/2-y,-z
1/2+x,1/2+y,1/2-z
1/2-x,1/2+y,z
1/2+x,1/2-y,1/2+z
loop_
_atom_site_type_symbol
_atom_site_label
_atom_site_fract_x
_atom_site_fract_y
_atom_site_fract_z
Si Si1 0.601012 0.562795 0.067145
Si Si2 0.851565 0.352171 0.432610
Si Si3 0.190332 0.548482 0.561922
Si Si4 0.642764 0.756011 0.936777
Si Si5 0.346511 0.334502 0.929772
O O1 0.606933 0.547223 0.250000
O O2 0.500000 0.548350 0.998620
O O3 0.599429 0.618034 0.069664
O O4 0.699177 0.550394 0.985650
O O5 0.879187 0.351286 0.250000
O O6 0.860636 0.404439 0.496083
O O7 0.891565 0.306693 0.515635
O O8 0.739926 0.343703 0.452274
O O9 0.152418 0.500000 0.500000
O O10 0.184547 0.549428 0.750000
O O11 0.638096 0.751304 0.750000
O O12 0.750000 0.750000 0.000000
O O13 0.600349 0.711143 0.018924
O O14 0.309455 0.328168 0.750000
#
# Coordination Sequence:
#
# PCOD9468105 Si02
#       5
#    16  16  16  16  16
#     4   9  18  31  44  56  71  94 126 162 196 227
#     4   9  16  26  38  53  71  90 115 145 179 219
#     4  10  20  31  43  56  71  94 124 160 197 230
#     4  10  16  22  35  54  74  93 112 137 173 217
#     4   9  15  24  38  54  72  92 114 144 181 219
#
# _framework density 22.704733999999998
#
# number of rings (size 3 to 8) (size 9 to 14) (size 15 to 20)
#    0.000    2.600    0.000    6.000    0.000    4.000 
#    0.000    0.000    0.000    0.000    0.000    0.000 
#    0.000    0.000    0.000    0.000    0.000    1.000 
#
# Total GULP energy -222865.963941 kJ/mol
# GULP energy per Si atom -5571.649099 kJ/mol
# Density = 2.265306 g / cm^3
# Si number density = 22.704734 Si / 1000 Ang^3
#
#
#
# Elastic Constant Matrix: (Units=GPa)
#
#
# Indices 1 2 3 4 5 6 
#
# 1 40.9252 -3.2102 -4.5202 0.0000 0.0000 0.0000
# 2 -3.2102 228.9285 36.3013 0.0000 0.0000 0.0000
# 3 -4.5202 36.3013 72.3629 0.0000 0.0000 0.0000
# 4 0.0000 0.0000 0.0000 37.4841 0.0000 0.0000
# 5 0.0000 0.0000 0.0000 0.0000 -19.8027 0.0000
# 6 0.0000 0.0000 0.0000 0.0000 0.0000 -24.9521
#
#
#
# Elastic Compliance Matrix: (Units=1/GPa)
#
#
# Indices 1 2 3 4 5 6 
#
# 1 0.024607 0.000110 0.001482 0.000000 0.000000 0.000000
# 2 0.000110 0.004746 -0.002374 0.000000 0.000000 0.000000
# 3 0.001482 -0.002374 0.015103 0.000000 0.000000 0.000000
# 4 0.000000 0.000000 0.000000 0.026678 0.000000 0.000000
# 5 0.000000 0.000000 0.000000 0.000000 -0.050498 0.000000
# 6 0.000000 0.000000 0.000000 0.000000 0.000000 -0.040077
#
#
# Mechanical properties :
#
#
# Convention : Reuss Voigt Hill
#
# Bulk Modulus (GPa) = 23.31445 44.37316 33.84381
# Shear Modulus (GPa) = -1396.96465 19.45555 -688.75455
#
# Velocity S-wave (km/s) = -24.83164 2.93045 -17.43592
# Velocity P-wave (km/s) = 28.49309 5.57100 19.75880
#
# Compressibility (1/GPa) = 0.04289185
#
# Stress axis : x y z
#
# Youngs Moduli (GPa) = 40.63863 210.69580 66.21301
#
# Poissons Ratio (x) = -0.02319 -0.09812
# Poissons Ratio (y) = -0.00447 0.15719
# Poissons Ratio (z) = -0.06022 0.50021
#
# Static dielectric constant tensor:
#      x y z
#    x 1.945900 0.000000 0.000000 
#    y 0.000000 1.959900 0.000000 
#    z 0.000000 0.000000 1.787130 
# 
# From -- ./inp_files/8881.got.cif
#   From: 2010.05.17/outbox.cif.g08.bks.cpg/sg63_5_cif.got.tgz:8881.got - 2010.06.03 15:47:04.
