data_PCOD9468954
_publ_section_title
;
Structure prediction by ZEFSAII (Michael W. Deem and Ramdas Pophale) SiO2 
 PCOD9468954
Probable space group: C M C M
;
_chemical_formula_sum "Si O2"
_cell_formula_units_Z 80
_cell_length_a 16.488473
_cell_length_b 10.917598
_cell_length_c 19.980146
_cell_angle_alpha 90.000000
_cell_angle_beta 90.000000
_cell_angle_gamma 90.000000
_cell_volume 3596.716389
_symmetry_space_group_name_H-M "C M C M"
_symmetry_group_IT_number 63
_symmetry_cell_setting 'orthorhombic'
loop_
_space_group_symop_operation_xyz
x,y,z
-x,-y,1/2+z
x,-y,-z
-x,y,1/2-z
-x,-y,-z
x,y,1/2-z
-x,y,z
x,-y,1/2+z
1/2+x,1/2+y,z
1/2-x,1/2-y,1/2+z
1/2+x,1/2-y,-z
1/2-x,1/2+y,1/2-z
1/2-x,1/2-y,-z
1/2+x,1/2+y,1/2-z
1/2-x,1/2+y,z
1/2+x,1/2-y,1/2+z
loop_
_atom_site_type_symbol
_atom_site_label
_atom_site_fract_x
_atom_site_fract_y
_atom_site_fract_z
Si Si1 0.820843 0.882514 0.572272
Si Si2 0.907197 0.702870 0.014821
Si Si3 0.343243 0.994312 0.091677
Si Si4 0.909213 0.955716 0.326688
Si Si5 0.759966 0.319236 0.175710
O O1 0.852107 0.818661 0.504689
O O2 0.747184 0.976190 0.565600
O O3 0.891721 0.944652 0.615800
O O4 0.782937 0.777742 0.619648
O O5 0.888468 0.605148 0.954850
O O6 0.000000 0.739872 0.013500
O O7 0.888648 0.622866 0.080827
O O8 0.321693 0.933162 0.162365
O O9 0.905832 0.005963 0.250000
O O10 0.000000 0.904091 0.335655
O O11 0.832835 0.864194 0.330552
O O12 0.771442 0.269189 0.250000
#
# Coordination Sequence:
#
# PCOD9468954 Si02
#       5
#    16  16  16  16  16
#     4  10  18  30  50  74  95 123 162 202 239 284
#     4  10  19  33  52  72  98 128 161 200 242 285
#     4   9  18  31  49  71  97 126 158 195 235 284
#     4   9  17  30  47  68  95 125 159 199 241 285
#     4   9  18  31  48  71  98 128 160 196 239 287
#
# _framework density 22.242509999999999
#
# number of rings (size 3 to 8) (size 9 to 14) (size 15 to 20)
#    0.000    2.600    0.000    3.000    0.000    0.800 
#    0.000    2.000    0.000   12.000    0.000   22.400 
#    0.000    0.000    0.000    0.000    0.000    0.000 
#
# Total GULP energy -223083.225352 kJ/mol
# GULP energy per Si atom -5577.080634 kJ/mol
# Density = 2.219189 g / cm^3
# Si number density = 22.242510 Si / 1000 Ang^3
#
#
#
# Elastic Constant Matrix: (Units=GPa)
#
#
# Indices 1 2 3 4 5 6 
#
# 1 98.3571 8.7866 18.0517 0.0000 0.0000 0.0000
# 2 8.7866 29.5738 23.7766 0.0000 0.0000 0.0000
# 3 18.0517 23.7766 59.4651 0.0000 0.0000 0.0000
# 4 0.0000 0.0000 0.0000 23.2197 0.0000 0.0000
# 5 0.0000 0.0000 0.0000 0.0000 26.0926 0.0000
# 6 0.0000 0.0000 0.0000 0.0000 0.0000 19.0649
#
#
#
# Elastic Compliance Matrix: (Units=1/GPa)
#
#
# Indices 1 2 3 4 5 6 
#
# 1 0.010781 -0.000843 -0.002936 0.000000 0.000000 0.000000
# 2 -0.000843 0.049899 -0.019696 0.000000 0.000000 0.000000
# 3 -0.002936 -0.019696 0.025583 0.000000 0.000000 0.000000
# 4 0.000000 0.000000 0.000000 0.043067 0.000000 0.000000
# 5 0.000000 0.000000 0.000000 0.000000 0.038325 0.000000
# 6 0.000000 0.000000 0.000000 0.000000 0.000000 0.052453
#
#
# Mechanical properties :
#
#
# Convention : Reuss Voigt Hill
#
# Bulk Modulus (GPa) = 25.43604 32.06953 28.75279
# Shear Modulus (GPa) = 17.84683 22.79416 20.32050
#
# Velocity S-wave (km/s) = 2.83570 3.20473 3.02584
# Velocity P-wave (km/s) = 4.70979 5.30501 5.01624
#
# Compressibility (1/GPa) = 0.03931429
#
# Stress axis : x y z
#
# Youngs Moduli (GPa) = 92.75453 20.04041 39.08838
#
# Poissons Ratio (x) = 0.01689 0.11476
# Poissons Ratio (y) = 0.07818 0.76988
# Poissons Ratio (z) = 0.27231 0.39471
#
# Static dielectric constant tensor:
#      x y z
#    x 1.780340 0.000000 0.000000 
#    y 0.000000 1.872430 0.000000 
#    z 0.000000 0.000000 1.855010 
# 
# From -- ./inp_files/54002.got.cif
#   From: 2010.05.17/outbox.cif.g08.bks.cpg/sg63_28_cif.got.tgz:54002.got - 2010.06.03 15:47:04.
