data_PCOD9468584
_publ_section_title
;
Structure prediction by ZEFSAII (Michael W. Deem and Ramdas Pophale) SiO2 
 PCOD9468584
Probable space group: C M C M
;
_chemical_formula_sum "Si O2"
_cell_formula_units_Z 80
_cell_length_a 7.525574
_cell_length_b 26.837305
_cell_length_c 20.498393
_cell_angle_alpha 90.000000
_cell_angle_beta 90.000000
_cell_angle_gamma 90.000000
_cell_volume 4139.980998
_symmetry_space_group_name_H-M "C M C M"
_symmetry_group_IT_number 63
_symmetry_cell_setting 'orthorhombic'
loop_
_space_group_symop_operation_xyz
x,y,z
-x,-y,1/2+z
x,-y,-z
-x,y,1/2-z
-x,-y,-z
x,y,1/2-z
-x,y,z
x,-y,1/2+z
1/2+x,1/2+y,z
1/2-x,1/2-y,1/2+z
1/2+x,1/2-y,-z
1/2-x,1/2+y,1/2-z
1/2-x,1/2-y,-z
1/2+x,1/2+y,1/2-z
1/2-x,1/2+y,z
1/2+x,1/2-y,1/2+z
loop_
_atom_site_type_symbol
_atom_site_label
_atom_site_fract_x
_atom_site_fract_y
_atom_site_fract_z
Si Si1 0.787688 0.153147 0.091946
Si Si2 0.287636 0.942522 0.823375
Si Si3 0.707807 0.867446 0.058443
Si Si4 0.717997 0.021837 0.929671
Si Si5 0.287312 0.239711 0.923681
O O1 0.744131 0.111070 0.144000
O O2 0.723066 0.209118 0.109426
O O3 0.000000 0.155646 0.085088
O O4 0.717718 0.137620 0.020394
O O5 0.216694 0.945476 0.750000
O O6 0.500000 0.949056 0.820094
O O7 0.221224 0.985089 0.872579
O O8 0.500000 0.868447 0.076108
O O9 0.781417 0.921297 0.077277
O O10 0.784256 0.816038 0.088164
O O11 0.500000 0.022403 0.929737
O O12 0.771052 0.000000 0.000000
O O13 0.500000 0.237166 0.914236
O O14 0.250000 0.250000 0.000000
#
# Coordination Sequence:
#
# PCOD9468584 Si02
#       5
#    16  16  16  16  16
#     4  10  18  28  43  66  96 121 148 184 226 270
#     4  10  20  33  48  66  88 118 156 191 227 277
#     4   9  15  27  47  67  91 120 150 184 226 268
#     4   9  15  26  47  70  89 113 149 192 231 264
#     4   8  15  25  40  64  90 117 144 175 214 262
#
# _framework density 19.32376
#
# number of rings (size 3 to 8) (size 9 to 14) (size 15 to 20)
#    0.000    2.800    2.000    0.600    0.000    1.200 
#    0.000    2.000    0.000    1.200    0.000    5.600 
#    0.000    0.000    0.000    0.000    0.000    0.000 
#
# Total GULP energy -222832.418298 kJ/mol
# GULP energy per Si atom -5570.810457 kJ/mol
# Density = 1.927978 g / cm^3
# Si number density = 19.323760 Si / 1000 Ang^3
#
#
#
# Elastic Constant Matrix: (Units=GPa)
#
#
# Indices 1 2 3 4 5 6 
#
# 1 50.9739 4.7979 -3.9516 0.0000 0.0000 0.0000
# 2 4.7979 252.2182 89.8672 0.0000 0.0000 0.0000
# 3 -3.9516 89.8672 82.0425 0.0000 0.0000 0.0000
# 4 0.0000 0.0000 0.0000 14.6571 0.0000 0.0000
# 5 0.0000 0.0000 0.0000 0.0000 0.5181 0.0000
# 6 0.0000 0.0000 0.0000 0.0000 0.0000 -3.3750
#
#
#
# Elastic Compliance Matrix: (Units=1/GPa)
#
#
# Indices 1 2 3 4 5 6 
#
# 1 0.019904 -0.001181 0.002253 0.000000 0.000000 0.000000
# 2 -0.001181 0.006573 -0.007257 0.000000 0.000000 0.000000
# 3 0.002253 -0.007257 0.020246 0.000000 0.000000 0.000000
# 4 0.000000 0.000000 0.000000 0.068226 0.000000 0.000000
# 5 0.000000 0.000000 0.000000 0.000000 1.930021 0.000000
# 6 0.000000 0.000000 0.000000 0.000000 0.000000 -0.296298
#
#
# Mechanical properties :
#
#
# Convention : Reuss Voigt Hill
#
# Bulk Modulus (GPa) = 29.11041 62.96241 46.03641
# Shear Modulus (GPa) = 2.82089 21.99479 12.40784
#
# Velocity S-wave (km/s) = 1.20953 3.37742 2.53672
# Velocity P-wave (km/s) = 4.12891 6.91830 5.69696
#
# Compressibility (1/GPa) = 0.03435197
#
# Stress axis : x y z
#
# Youngs Moduli (GPa) = 50.24190 152.13986 49.39226
#
# Poissons Ratio (x) = 0.17971 -0.11126
# Poissons Ratio (y) = 0.05935 0.35842
# Poissons Ratio (z) = -0.11317 1.10403
#
# Static dielectric constant tensor:
#      x y z
#    x 1.293450 0.000000 0.000000 
#    y 0.000000 1.746140 0.000000 
#    z 0.000000 0.000000 1.620330 
# 
# From -- ./inp_files/40519.got.cif
#   From: 2010.05.17/outbox.cif.g08.bks.cpg/sg63_21_cif.got.tgz:40519.got - 2010.06.03 15:47:04.
