data_PCOD9468772
_publ_section_title
;
Structure prediction by ZEFSAII (Michael W. Deem and Ramdas Pophale) SiO2 
 PCOD9468772
Probable space group: C M C M
;
_chemical_formula_sum "Si O2"
_cell_formula_units_Z 96
_cell_length_a 8.828071
_cell_length_b 23.496623
_cell_length_c 27.721385
_cell_angle_alpha 90.000000
_cell_angle_beta 90.000000
_cell_angle_gamma 90.000000
_cell_volume 5750.242902
_symmetry_space_group_name_H-M "C M C M"
_symmetry_group_IT_number 63
_symmetry_cell_setting 'orthorhombic'
loop_
_space_group_symop_operation_xyz
x,y,z
-x,-y,1/2+z
x,-y,-z
-x,y,1/2-z
-x,-y,-z
x,y,1/2-z
-x,y,z
x,-y,1/2+z
1/2+x,1/2+y,z
1/2-x,1/2-y,1/2+z
1/2+x,1/2-y,-z
1/2-x,1/2+y,1/2-z
1/2-x,1/2-y,-z
1/2+x,1/2+y,1/2-z
1/2-x,1/2+y,z
1/2+x,1/2-y,1/2+z
loop_
_atom_site_type_symbol
_atom_site_label
_atom_site_fract_x
_atom_site_fract_y
_atom_site_fract_z
Si Si1 0.319146 0.711600 0.456825
Si Si2 0.822180 0.529752 0.927695
Si Si3 0.673730 0.395903 0.250000
Si Si4 0.181127 0.111287 0.852276
Si Si5 0.822471 0.411333 0.532382
Si Si6 0.674643 0.257539 0.250000
Si Si7 0.318090 0.236402 0.853232
O O1 0.500000 0.717413 0.459682
O O2 0.250000 0.750000 0.500000
O O3 0.270351 0.646299 0.463769
O O4 0.272898 0.730917 0.402496
O O5 0.720883 0.565771 0.892100
O O6 0.777031 0.463755 0.933109
O O7 0.000000 0.531724 0.913818
O O8 0.811692 0.561028 0.979329
O O9 0.500000 0.415997 0.250000
O O10 0.741389 0.412132 0.199036
O O11 0.674290 0.326819 0.250000
O O12 0.259693 0.171886 0.860756
O O13 0.000000 0.120831 0.848917
O O14 0.000000 0.398444 0.540946
O O15 0.500000 0.238682 0.250000
O O16 0.751905 0.242240 0.198528
O O17 0.500000 0.236937 0.849647
#
# Coordination Sequence:
#
# PCOD9468772 Si02
#       7
#    16  16   8  16  16   8  16
#     4  11  23  35  50  74 104 135 168 205 248 297
#     4   9  18  33  51  71  95 125 159 198 246 297
#     4   7  14  27  41  64  97 122 147 188 236 278
#     4  10  18  29  48  73  98 127 163 202 241 286
#     4   9  19  35  52  69  95 129 162 198 244 295
#     4   9  17  31  51  74  97 126 167 210 248 292
#     4  10  20  33  49  72 103 136 166 203 250 298
#
# _framework density 16.694948
#
# number of rings (size 3 to 8) (size 9 to 14) (size 15 to 20)
#    0.000    2.500    0.000    4.750    0.000    8.000 
#    0.000    2.917    0.000    1.000    0.000    3.500 
#    0.000    0.000    0.000    0.000    0.000    0.000 
#
# Total GULP energy -267323.892524 kJ/mol
# GULP energy per Si atom -5569.247761 kJ/mol
# Density = 1.665695 g / cm^3
# Si number density = 16.694948 Si / 1000 Ang^3
#
#
#
# Elastic Constant Matrix: (Units=GPa)
#
#
# Indices 1 2 3 4 5 6 
#
# 1 49.9137 30.3774 42.6435 0.0000 0.0000 0.0000
# 2 30.3774 77.3013 43.2709 0.0000 0.0000 0.0000
# 3 42.6435 43.2709 98.7180 0.0000 0.0000 0.0000
# 4 0.0000 0.0000 0.0000 21.2405 0.0000 0.0000
# 5 0.0000 0.0000 0.0000 0.0000 28.7093 0.0000
# 6 0.0000 0.0000 0.0000 0.0000 0.0000 24.8860
#
#
#
# Elastic Compliance Matrix: (Units=1/GPa)
#
#
# Indices 1 2 3 4 5 6 
#
# 1 0.034303 -0.006872 -0.011806 0.000000 0.000000 0.000000
# 2 -0.006872 0.018519 -0.005149 0.000000 0.000000 0.000000
# 3 -0.011806 -0.005149 0.017487 0.000000 0.000000 0.000000
# 4 0.000000 0.000000 0.000000 0.047080 0.000000 0.000000
# 5 0.000000 0.000000 0.000000 0.000000 0.034832 0.000000
# 6 0.000000 0.000000 0.000000 0.000000 0.000000 0.040183
#
#
# Mechanical properties :
#
#
# Convention : Reuss Voigt Hill
#
# Bulk Modulus (GPa) = 44.13942 50.94631 47.54286
# Shear Modulus (GPa) = 20.19315 22.27657 21.23486
#
# Velocity S-wave (km/s) = 3.48161 3.65681 3.57029
# Velocity P-wave (km/s) = 6.53134 6.95787 6.74797
#
# Compressibility (1/GPa) = 0.02265549
#
# Stress axis : x y z
#
# Youngs Moduli (GPa) = 29.15204 53.99841 57.18628
#
# Poissons Ratio (x) = 0.37105 0.67514
# Poissons Ratio (y) = 0.20032 0.29446
# Poissons Ratio (z) = 0.34417 0.27804
#
# Static dielectric constant tensor:
#      x y z
#    x 1.571710 0.000000 0.000000 
#    y 0.000000 1.529450 0.000000 
#    z 0.000000 0.000000 1.097190 
# 
# From -- ./inp_files/67317.got.cif
#   From: 2010.05.17/outbox.cif.g08.bks.cpg/sg63_34_cif.got.tgz:67317.got - 2010.06.03 15:47:04.
