data_PCOD9468696
_publ_section_title
;
Structure prediction by ZEFSAII (Michael W. Deem and Ramdas Pophale) SiO2 
 PCOD9468696
Probable space group: C M C M
;
_chemical_formula_sum "Si O2"
_cell_formula_units_Z 96
_cell_length_a 20.190695
_cell_length_b 12.775997
_cell_length_c 22.944600
_cell_angle_alpha 90.000000
_cell_angle_beta 90.000000
_cell_angle_gamma 90.000000
_cell_volume 5918.703174
_symmetry_space_group_name_H-M "C M C M"
_symmetry_group_IT_number 63
_symmetry_cell_setting 'orthorhombic'
loop_
_space_group_symop_operation_xyz
x,y,z
-x,-y,1/2+z
x,-y,-z
-x,y,1/2-z
-x,-y,-z
x,y,1/2-z
-x,y,z
x,-y,1/2+z
1/2+x,1/2+y,z
1/2-x,1/2-y,1/2+z
1/2+x,1/2-y,-z
1/2-x,1/2+y,1/2-z
1/2-x,1/2-y,-z
1/2+x,1/2+y,1/2-z
1/2-x,1/2+y,z
1/2+x,1/2-y,1/2+z
loop_
_atom_site_type_symbol
_atom_site_label
_atom_site_fract_x
_atom_site_fract_y
_atom_site_fract_z
Si Si1 0.423962 0.752840 0.318806
Si Si2 0.425411 0.926412 0.414922
Si Si3 0.572714 0.561918 0.938267
Si Si4 0.833612 0.895287 0.608185
Si Si5 0.701367 0.066496 0.443874
Si Si6 0.873151 0.746518 0.500565
O O1 0.418756 0.769599 0.250000
O O2 0.500000 0.715800 0.331869
O O3 0.416360 0.859628 0.355744
O O4 0.368968 0.671147 0.341315
O O5 0.500000 0.970461 0.416781
O O6 0.417535 0.839424 0.465996
O O7 0.365980 0.008133 0.423996
O O8 0.500000 0.552393 0.911834
O O9 0.626794 0.503059 0.900241
O O10 0.571506 0.500000 0.000000
O O11 0.589152 0.680302 0.955101
O O12 0.756245 0.922631 0.606000
O O13 0.845280 0.823128 0.550590
O O14 0.682454 0.180068 0.468068
O O15 0.727667 0.000000 0.500000
#
# Coordination Sequence:
#
# PCOD9468696 Si02
#       6
#    16  16  16  16  16  16
#     4   9  18  34  54  70  85 112 152 198 240 271
#     4   9  18  31  47  69  94 121 157 195 228 267
#     4   9  16  25  39  61  89 119 148 179 215 259
#     4  10  18  29  44  66  93 119 151 187 225 273
#     4  10  19  29  44  67  98 130 152 179 222 274
#     4   9  17  27  44  65  93 128 156 179 214 268
#
# _framework density 16.219768999999999
#
# number of rings (size 3 to 8) (size 9 to 14) (size 15 to 20)
#    0.000    2.667    0.000    3.000    0.000   10.333 
#    0.000    0.833    0.000    0.000    0.000    1.167 
#    0.000    2.667    0.000    0.000    0.000    0.000 
#
# Total GULP energy -267351.338866 kJ/mol
# GULP energy per Si atom -5569.819560 kJ/mol
# Density = 1.618285 g / cm^3
# Si number density = 16.219769 Si / 1000 Ang^3
#
#
#
# Elastic Constant Matrix: (Units=GPa)
#
#
# Indices 1 2 3 4 5 6 
#
# 1 96.1709 35.0092 29.2616 0.0000 0.0000 0.0000
# 2 35.0092 61.3879 17.8956 0.0000 0.0000 0.0000
# 3 29.2616 17.8956 55.0050 0.0000 0.0000 0.0000
# 4 0.0000 0.0000 0.0000 8.2266 0.0000 0.0000
# 5 0.0000 0.0000 0.0000 0.0000 15.7324 0.0000
# 6 0.0000 0.0000 0.0000 0.0000 0.0000 14.6900
#
#
#
# Elastic Compliance Matrix: (Units=1/GPa)
#
#
# Indices 1 2 3 4 5 6 
#
# 1 0.014511 -0.006657 -0.005554 0.000000 0.000000 0.000000
# 2 -0.006657 0.021050 -0.003307 0.000000 0.000000 0.000000
# 3 -0.005554 -0.003307 0.022211 0.000000 0.000000 0.000000
# 4 0.000000 0.000000 0.000000 0.121557 0.000000 0.000000
# 5 0.000000 0.000000 0.000000 0.000000 0.063563 0.000000
# 6 0.000000 0.000000 0.000000 0.000000 0.000000 0.068073
#
#
# Mechanical properties :
#
#
# Convention : Reuss Voigt Hill
#
# Bulk Modulus (GPa) = 37.40236 41.87740 39.63988
# Shear Modulus (GPa) = 14.24849 16.42296 15.33572
#
# Velocity S-wave (km/s) = 2.96711 3.18548 3.07823
# Velocity P-wave (km/s) = 5.90323 6.27730 6.09313
#
# Compressibility (1/GPa) = 0.02673628
#
# Stress axis : x y z
#
# Youngs Moduli (GPa) = 68.91192 47.50536 45.02308
#
# Poissons Ratio (x) = 0.31622 0.25006
# Poissons Ratio (y) = 0.45872 0.14891
# Poissons Ratio (z) = 0.38274 0.15712
#
# Static dielectric constant tensor:
#      x y z
#    x 1.589510 0.000000 0.000000 
#    y 0.000000 1.555670 0.000000 
#    z 0.000000 0.000000 1.522990 
# 
# From -- ./inp_files/56549.got.cif
#   From: 2010.05.17/outbox.cif.g08.bks.cpg/sg63_29_cif.got.tgz:56549.got - 2010.06.03 15:47:04.
