data_PCOD9468588
_publ_section_title
;
Structure prediction by ZEFSAII (Michael W. Deem and Ramdas Pophale) SiO2 
 PCOD9468588
Probable space group: C M C M
;
_chemical_formula_sum "Si O2"
_cell_formula_units_Z 96
_cell_length_a 9.049600
_cell_length_b 20.950495
_cell_length_c 30.985404
_cell_angle_alpha 90.000000
_cell_angle_beta 90.000000
_cell_angle_gamma 90.000000
_cell_volume 5874.634278
_symmetry_space_group_name_H-M "C M C M"
_symmetry_group_IT_number 63
_symmetry_cell_setting 'orthorhombic'
loop_
_space_group_symop_operation_xyz
x,y,z
-x,-y,1/2+z
x,-y,-z
-x,y,1/2-z
-x,-y,-z
x,y,1/2-z
-x,y,z
x,-y,1/2+z
1/2+x,1/2+y,z
1/2-x,1/2-y,1/2+z
1/2+x,1/2-y,-z
1/2-x,1/2+y,1/2-z
1/2-x,1/2-y,-z
1/2+x,1/2+y,1/2-z
1/2-x,1/2+y,z
1/2+x,1/2-y,1/2+z
loop_
_atom_site_type_symbol
_atom_site_label
_atom_site_fract_x
_atom_site_fract_y
_atom_site_fract_z
Si Si1 0.324238 0.263434 0.385814
Si Si2 0.673167 0.237181 0.702113
Si Si3 0.679823 0.064892 0.477742
Si Si4 0.176883 0.388534 0.614685
Si Si5 0.322435 0.806177 0.028094
Si Si6 0.826903 0.108004 0.202751
O O1 0.500000 0.271010 0.390155
O O2 0.268856 0.284152 0.338532
O O3 0.290549 0.187326 0.390346
O O4 0.239238 0.299466 0.423712
O O5 0.719113 0.214862 0.750000
O O6 0.500000 0.221458 0.695928
O O7 0.682836 0.314569 0.702888
O O8 0.500000 0.062619 0.476232
O O9 0.729697 0.076009 0.428496
O O10 0.717853 0.126652 0.506127
O O11 0.732213 0.000000 0.500000
O O12 0.245038 0.412851 0.659464
O O13 0.000000 0.393906 0.617394
O O14 0.500000 0.799887 0.027500
O O15 0.250000 0.750000 0.000000
O O16 0.770464 0.086439 0.250000
O O17 0.000000 0.091850 0.200031
#
# Coordination Sequence:
#
# PCOD9468588 Si02
#       6
#    16  16  16  16  16  16
#     4  10  18  28  43  68  96 123 158 195 236 283
#     4   8  14  25  40  61  91 125 157 189 232 284
#     4   9  18  33  50  68  93 125 160 198 238 282
#     4   9  16  27  43  65  90 118 154 189 228 273
#     4  11  20  32  50  71  94 123 159 197 240 282
#     4   8  14  24  38  59  88 120 150 181 225 277
#
# _framework density 16.341443000000002
#
# number of rings (size 3 to 8) (size 9 to 14) (size 15 to 20)
#    0.000    2.833    1.667    2.000    0.000    1.333 
#    0.000    3.333    0.000    4.500    0.000    1.167 
#    0.000    4.000    0.000    0.000    0.000    0.000 
#
# Total GULP energy -267283.554410 kJ/mol
# GULP energy per Si atom -5568.407384 kJ/mol
# Density = 1.630425 g / cm^3
# Si number density = 16.341443 Si / 1000 Ang^3
#
#
#
# Elastic Constant Matrix: (Units=GPa)
#
#
# Indices 1 2 3 4 5 6 
#
# 1 32.3837 25.5159 53.1381 0.0000 0.0000 0.0000
# 2 25.5159 60.3488 55.8403 0.0000 0.0000 0.0000
# 3 53.1381 55.8403 190.1400 0.0000 0.0000 0.0000
# 4 0.0000 0.0000 0.0000 12.8934 0.0000 0.0000
# 5 0.0000 0.0000 0.0000 0.0000 33.5314 0.0000
# 6 0.0000 0.0000 0.0000 0.0000 0.0000 9.7740
#
#
#
# Elastic Compliance Matrix: (Units=1/GPa)
#
#
# Indices 1 2 3 4 5 6 
#
# 1 0.065366 -0.014740 -0.013939 0.000000 0.000000 0.000000
# 2 -0.014740 0.026077 -0.003539 0.000000 0.000000 0.000000
# 3 -0.013939 -0.003539 0.010194 0.000000 0.000000 0.000000
# 4 0.000000 0.000000 0.000000 0.077559 0.000000 0.000000
# 5 0.000000 0.000000 0.000000 0.000000 0.029823 0.000000
# 6 0.000000 0.000000 0.000000 0.000000 0.000000 0.102313
#
#
# Mechanical properties :
#
#
# Convention : Reuss Voigt Hill
#
# Bulk Modulus (GPa) = 26.88045 61.31790 44.09918
# Shear Modulus (GPa) = 12.88106 21.13164 17.00635
#
# Velocity S-wave (km/s) = 2.81062 3.59992 3.22947
# Velocity P-wave (km/s) = 5.19786 7.40835 6.39927
#
# Compressibility (1/GPa) = 0.03720176
#
# Stress axis : x y z
#
# Youngs Moduli (GPa) = 15.29856 38.34801 98.09583
#
# Poissons Ratio (x) = 0.56523 1.36735
# Poissons Ratio (y) = 0.22549 0.34717
# Poissons Ratio (z) = 0.21325 0.13572
#
# Static dielectric constant tensor:
#      x y z
#    x 1.545310 0.000000 0.000000 
#    y 0.000000 1.526300 0.000000 
#    z 0.000000 0.000000 1.580250 
# 
# From -- ./inp_files/67012.got.cif
#   From: 2010.05.17/outbox.cif.g08.bks.cpg/sg63_34_cif.got.tgz:67012.got - 2010.06.03 15:47:04.
