data_PCOD9468371
_publ_section_title
;
Structure prediction by ZEFSAII (Michael W. Deem and Ramdas Pophale) SiO2 
 PCOD9468371
Probable space group: C M C M
;
_chemical_formula_sum "Si O2"
_cell_formula_units_Z 88
_cell_length_a 24.913714
_cell_length_b 9.302614
_cell_length_c 20.599643
_cell_angle_alpha 90.000000
_cell_angle_beta 90.000000
_cell_angle_gamma 90.000000
_cell_volume 4774.228152
_symmetry_space_group_name_H-M "C M C M"
_symmetry_group_IT_number 63
_symmetry_cell_setting 'orthorhombic'
loop_
_space_group_symop_operation_xyz
x,y,z
-x,-y,1/2+z
x,-y,-z
-x,y,1/2-z
-x,-y,-z
x,y,1/2-z
-x,y,z
x,-y,1/2+z
1/2+x,1/2+y,z
1/2-x,1/2-y,1/2+z
1/2+x,1/2-y,-z
1/2-x,1/2+y,1/2-z
1/2-x,1/2-y,-z
1/2+x,1/2+y,1/2-z
1/2-x,1/2+y,z
1/2+x,1/2-y,1/2+z
loop_
_atom_site_type_symbol
_atom_site_label
_atom_site_fract_x
_atom_site_fract_y
_atom_site_fract_z
Si Si1 0.810811 0.670539 0.250000
Si Si2 0.878956 0.830566 0.650520
Si Si3 0.104995 0.167371 0.500737
Si Si4 0.000000 0.869688 0.171915
Si Si5 0.000000 0.191319 0.350464
Si Si6 0.000000 0.335166 0.486007
Si Si7 0.803695 0.673730 0.750000
Si Si8 0.621141 0.672169 0.642761
O O1 0.802466 0.499096 0.250000
O O2 0.754869 0.755834 0.250000
O O3 0.844648 0.724762 0.188052
O O4 0.875259 0.802930 0.572574
O O5 0.939424 0.793459 0.676030
O O6 0.836295 0.736461 0.688593
O O7 0.871196 0.002567 0.660638
O O8 0.052840 0.261579 0.512194
O O9 0.137879 0.187974 0.567097
O O10 0.089439 0.000000 0.500000
O O11 0.942720 0.799170 0.155068
O O12 0.000000 0.900490 0.250000
O O13 0.000000 0.020982 0.132858
O O14 0.000000 0.298445 0.410311
O O15 0.000000 0.500000 0.500000
#
# Coordination Sequence:
#
# PCOD9468371 Si02
#       8
#     8  16  16   8   8   8   8  16
#     4  12  26  43  60  85 109 154 194 244 305 342
#     4   9  19  37  61  89 116 156 194 235 284 343
#     4   9  18  34  58  84 115 156 195 231 283 353
#     4  10  17  29  57  90 122 158 192 231 280 345
#     4   8  18  30  53  85 119 152 192 222 277 343
#     4  10  18  29  47  78 122 162 192 232 282 327
#     4  12  26  43  62  79 113 148 198 248 293 360
#     4  10  19  36  61  89 122 149 195 239 282 343
#
# _framework density 18.432300000000001
#
# number of rings (size 3 to 8) (size 9 to 14) (size 15 to 20)
#    0.000    2.182    0.909    3.545    3.818    4.364 
#    0.000    2.727    0.000    0.000    0.000    0.000 
#    0.000    0.000    0.000    0.000    0.000    0.000 
#
# Total GULP energy -245051.486674 kJ/mol
# GULP energy per Si atom -5569.351970 kJ/mol
# Density = 1.839035 g / cm^3
# Si number density = 18.432300 Si / 1000 Ang^3
#
#
#
# Elastic Constant Matrix: (Units=GPa)
#
#
# Indices 1 2 3 4 5 6 
#
# 1 119.7753 64.0151 45.5334 0.0000 0.0000 0.0000
# 2 64.0151 101.3398 75.5504 0.0000 0.0000 0.0000
# 3 45.5334 75.5504 142.2994 0.0000 0.0000 0.0000
# 4 0.0000 0.0000 0.0000 2.7106 0.0000 0.0000
# 5 0.0000 0.0000 0.0000 0.0000 8.0850 0.0000
# 6 0.0000 0.0000 0.0000 0.0000 0.0000 30.9495
#
#
#
# Elastic Compliance Matrix: (Units=1/GPa)
#
#
# Indices 1 2 3 4 5 6 
#
# 1 0.012613 -0.008207 0.000321 0.000000 0.000000 0.000000
# 2 -0.008207 0.021673 -0.008880 0.000000 0.000000 0.000000
# 3 0.000321 -0.008880 0.011639 0.000000 0.000000 0.000000
# 4 0.000000 0.000000 0.000000 0.368922 0.000000 0.000000
# 5 0.000000 0.000000 0.000000 0.000000 0.123686 0.000000
# 6 0.000000 0.000000 0.000000 0.000000 0.000000 0.032311
#
#
# Mechanical properties :
#
#
# Convention : Reuss Voigt Hill
#
# Bulk Modulus (GPa) = 80.69155 81.51248 81.10202
# Shear Modulus (GPa) = 8.21682 20.23672 14.22677
#
# Velocity S-wave (km/s) = 2.11365 3.31704 2.78121
# Velocity P-wave (km/s) = 7.05896 7.68043 7.37625
#
# Compressibility (1/GPa) = 0.01239287
#
# Stress axis : x y z
#
# Youngs Moduli (GPa) = 79.28193 46.14108 85.91494
#
# Poissons Ratio (x) = 0.37869 -0.02761
# Poissons Ratio (y) = 0.65069 0.76296
# Poissons Ratio (z) = -0.02548 0.40975
#
# Static dielectric constant tensor:
#      x y z
#    x 1.638020 0.000000 0.000000 
#    y 0.000000 1.598010 0.000000 
#    z 0.000000 0.000000 1.712530 
# 
# From -- ./inp_files/57431.got.cif
#   From: 2010.05.17/outbox.cif.g08.bks.cpg/sg63_29_cif.got.tgz:57431.got - 2010.06.03 15:47:04.
