data_PCOD9468473
_publ_section_title
;
Structure prediction by ZEFSAII (Michael W. Deem and Ramdas Pophale) SiO2 
 PCOD9468473
Probable space group: C M C M
;
_chemical_formula_sum "Si O2"
_cell_formula_units_Z 112
_cell_length_a 34.491546
_cell_length_b 26.975178
_cell_length_c 9.149866
_cell_angle_alpha 90.000000
_cell_angle_beta 90.000000
_cell_angle_gamma 90.000000
_cell_volume 8513.177999
_symmetry_space_group_name_H-M "C M C M"
_symmetry_group_IT_number 63
_symmetry_cell_setting 'orthorhombic'
loop_
_space_group_symop_operation_xyz
x,y,z
-x,-y,1/2+z
x,-y,-z
-x,y,1/2-z
-x,-y,-z
x,y,1/2-z
-x,y,z
x,-y,1/2+z
1/2+x,1/2+y,z
1/2-x,1/2-y,1/2+z
1/2+x,1/2-y,-z
1/2-x,1/2+y,1/2-z
1/2-x,1/2-y,-z
1/2+x,1/2+y,1/2-z
1/2-x,1/2+y,z
1/2+x,1/2-y,1/2+z
loop_
_atom_site_type_symbol
_atom_site_label
_atom_site_fract_x
_atom_site_fract_y
_atom_site_fract_z
Si Si1 0.579841 0.913341 0.923519
Si Si2 0.500000 0.795488 0.417320
Si Si3 0.921554 0.706182 0.078423
Si Si4 0.710668 0.854649 0.423097
Si Si5 0.845417 0.739364 0.923312
Si Si6 0.500000 0.916215 0.419327
Si Si7 0.658297 0.050470 0.574767
Si Si8 0.727947 0.703914 0.075248
O O1 0.580227 0.924077 0.750000
O O2 0.583041 0.853504 0.941876
O O3 0.539348 0.930401 0.996180
O O4 0.616611 0.936444 0.004998
O O5 0.500000 0.779464 0.250000
O O6 0.538876 0.779339 0.498366
O O7 0.500000 0.855849 0.418942
O O8 0.924709 0.715121 0.250000
O O9 0.884669 0.733833 0.011887
O O10 0.719265 0.852846 0.250000
O O11 0.680332 0.809941 0.452905
O O12 0.688362 0.905233 0.456637
O O13 0.749768 0.843514 0.512139
O O14 0.853767 0.739658 0.750000
O O15 0.817274 0.785768 0.957557
O O16 0.500000 0.932648 0.250000
O O17 0.654580 0.045841 0.750000
O O18 0.671815 0.000000 0.500000
O O19 0.732477 0.706818 0.250000
O O20 0.750000 0.750000 0.000000
#
# Coordination Sequence:
#
# PCOD9468473 Si02
#       8
#    16   8  16  16  16   8  16  16
#     4  10  19  31  45  62  79  97 124 159 199 241
#     4   9  17  27  39  54  76 105 131 157 192 233
#     4  10  18  26  40  60  80 101 129 163 193 229
#     4   9  18  31  45  59  79 103 126 157 195 236
#     4   9  16  27  41  60  82 104 127 153 191 234
#     4   9  17  29  46  62  75  97 123 153 198 245
#     4  11  22  35  48  62  79 100 129 162 199 244
#     4   9  17  27  41  61  83 104 127 154 187 232
#
# _framework density 13.156072999999999
#
# number of rings (size 3 to 8) (size 9 to 14) (size 15 to 20)
#    0.000    2.429    1.429    3.000    0.000    6.857 
#    0.000    0.357    0.000    0.000    0.000    0.000 
#    0.000    0.000    0.000    0.000    0.000    0.000 
#
# Total GULP energy -312141.618575 kJ/mol
# GULP energy per Si atom -5573.957475 kJ/mol
# Density = 1.312613 g / cm^3
# Si number density = 13.156073 Si / 1000 Ang^3
#
#
#
# Elastic Constant Matrix: (Units=GPa)
#
#
# Indices 1 2 3 4 5 6 
#
# 1 90.1708 43.9967 62.2660 0.0000 0.0000 0.0000
# 2 43.9967 42.4174 34.6883 0.0000 0.0000 0.0000
# 3 62.2660 34.6883 73.5866 0.0000 0.0000 0.0000
# 4 0.0000 0.0000 0.0000 15.0778 0.0000 0.0000
# 5 0.0000 0.0000 0.0000 0.0000 26.9921 0.0000
# 6 0.0000 0.0000 0.0000 0.0000 0.0000 6.8938
#
#
#
# Elastic Compliance Matrix: (Units=1/GPa)
#
#
# Indices 1 2 3 4 5 6 
#
# 1 0.034181 -0.019205 -0.019870 0.000000 0.000000 0.000000
# 2 -0.019205 0.049155 -0.006921 0.000000 0.000000 0.000000
# 3 -0.019870 -0.006921 0.033665 0.000000 0.000000 0.000000
# 4 0.000000 0.000000 0.000000 0.066323 0.000000 0.000000
# 5 0.000000 0.000000 0.000000 0.000000 0.037048 0.000000
# 6 0.000000 0.000000 0.000000 0.000000 0.000000 0.145058
#
#
# Mechanical properties :
#
#
# Convention : Reuss Voigt Hill
#
# Bulk Modulus (GPa) = 39.98400 54.23074 47.10737
# Shear Modulus (GPa) = 10.73518 14.14099 12.43808
#
# Velocity S-wave (km/s) = 2.85965 3.28207 3.07811
# Velocity P-wave (km/s) = 6.43129 7.46145 6.96544
#
# Compressibility (1/GPa) = 0.02501001
#
# Stress axis : x y z
#
# Youngs Moduli (GPa) = 29.25561 20.34376 29.70431
#
# Poissons Ratio (x) = 0.39070 0.59022
# Poissons Ratio (y) = 0.56185 0.20559
# Poissons Ratio (z) = 0.58131 0.14080
#
# Static dielectric constant tensor:
#      x y z
#    x 1.429400 0.000000 0.000000 
#    y 0.000000 1.421110 0.000000 
#    z 0.000000 0.000000 1.436050 
# 
# From -- ./inp_files/14987.got.cif
#   From: 2010.05.17/outbox.cif.g08.bks.cpg/sg63_8_cif.got.tgz:14987.got - 2010.06.03 15:47:04.
