data_PCOD9468898
_publ_section_title
;
Structure prediction by ZEFSAII (Michael W. Deem and Ramdas Pophale) SiO2 
 PCOD9468898
Probable space group: C M C M
;
_chemical_formula_sum "Si O2"
_cell_formula_units_Z 96
_cell_length_a 8.629282
_cell_length_b 24.356261
_cell_length_c 26.647243
_cell_angle_alpha 90.000000
_cell_angle_beta 90.000000
_cell_angle_gamma 90.000000
_cell_volume 5600.638781
_symmetry_space_group_name_H-M "C M C M"
_symmetry_group_IT_number 63
_symmetry_cell_setting 'orthorhombic'
loop_
_space_group_symop_operation_xyz
x,y,z
-x,-y,1/2+z
x,-y,-z
-x,y,1/2-z
-x,-y,-z
x,y,1/2-z
-x,y,z
x,-y,1/2+z
1/2+x,1/2+y,z
1/2-x,1/2-y,1/2+z
1/2+x,1/2-y,-z
1/2-x,1/2+y,1/2-z
1/2-x,1/2-y,-z
1/2+x,1/2+y,1/2-z
1/2-x,1/2+y,z
1/2+x,1/2-y,1/2+z
loop_
_atom_site_type_symbol
_atom_site_label
_atom_site_fract_x
_atom_site_fract_y
_atom_site_fract_z
Si Si1 0.815565 0.664478 0.393841
Si Si2 0.313995 0.396780 0.427661
Si Si3 0.314254 0.726819 0.947417
Si Si4 0.318432 0.996196 0.124574
Si Si5 0.317653 0.428733 0.540247
Si Si6 0.315008 0.409609 0.808360
O O1 0.782394 0.728099 0.404421
O O2 0.720989 0.630023 0.435278
O O3 0.765593 0.638023 0.341184
O O4 0.000000 0.655579 0.400972
O O5 0.500000 0.396561 0.421165
O O6 0.258178 0.333946 0.432630
O O7 0.240718 0.434709 0.384937
O O8 0.282165 0.424639 0.481751
O O9 0.500000 0.722873 0.953397
O O10 0.250000 0.750000 0.000000
O O11 0.500000 0.997054 0.134264
O O12 0.280157 0.029149 0.073211
O O13 0.233664 0.032399 0.166859
O O14 0.500000 0.441643 0.546371
O O15 0.272672 0.407286 0.750000
O O16 0.500000 0.403695 0.813281
#
# Coordination Sequence:
#
# PCOD9468898 Si02
#       6
#    16  16  16  16  16  16
#     4  10  19  31  51  79 108 135 170 217 260 300
#     4  10  20  33  48  69 103 145 181 209 245 301
#     4  10  20  33  50  74 106 145 182 214 250 298
#     4  11  22  33  49  75 104 132 167 216 264 307
#     4  10  18  30  49  70 100 142 177 209 249 298
#     4  10  21  38  60  80  99 129 168 212 265 321
#
# _framework density 17.140902000000001
#
# number of rings (size 3 to 8) (size 9 to 14) (size 15 to 20)
#    0.000    1.833    1.667    5.500    0.000    6.000 
#    0.000    0.000    0.000    1.000    0.000    2.333 
#    0.000    0.000    0.000    0.000    0.000    0.000 
#
# Total GULP energy -267830.140922 kJ/mol
# GULP energy per Si atom -5579.794603 kJ/mol
# Density = 1.710189 g / cm^3
# Si number density = 17.140902 Si / 1000 Ang^3
#
#
#
# Elastic Constant Matrix: (Units=GPa)
#
#
# Indices 1 2 3 4 5 6 
#
# 1 22.4220 4.9836 18.4361 0.0000 0.0000 0.0000
# 2 4.9836 79.4515 25.9621 0.0000 0.0000 0.0000
# 3 18.4361 25.9621 79.0293 0.0000 0.0000 0.0000
# 4 0.0000 0.0000 0.0000 9.8708 0.0000 0.0000
# 5 0.0000 0.0000 0.0000 0.0000 12.6041 0.0000
# 6 0.0000 0.0000 0.0000 0.0000 0.0000 25.7753
#
#
#
# Elastic Compliance Matrix: (Units=1/GPa)
#
#
# Indices 1 2 3 4 5 6 
#
# 1 0.055233 0.000836 -0.013159 0.000000 0.000000 0.000000
# 2 0.000836 0.014113 -0.004831 0.000000 0.000000 0.000000
# 3 -0.013159 -0.004831 0.017310 0.000000 0.000000 0.000000
# 4 0.000000 0.000000 0.000000 0.101309 0.000000 0.000000
# 5 0.000000 0.000000 0.000000 0.000000 0.079339 0.000000
# 6 0.000000 0.000000 0.000000 0.000000 0.000000 0.038797
#
#
# Mechanical properties :
#
#
# Convention : Reuss Voigt Hill
#
# Bulk Modulus (GPa) = 19.10347 31.07406 25.08876
# Shear Modulus (GPa) = 13.97195 18.41812 16.19503
#
# Velocity S-wave (km/s) = 2.85813 3.28153 3.07712
# Velocity P-wave (km/s) = 4.69692 5.70315 5.22432
#
# Compressibility (1/GPa) = 0.05234651
#
# Stress axis : x y z
#
# Youngs Moduli (GPa) = 18.10498 70.85911 57.76855
#
# Poissons Ratio (x) = -0.05921 0.76020
# Poissons Ratio (y) = -0.01513 0.27908
# Poissons Ratio (z) = 0.23825 0.34232
#
# Static dielectric constant tensor:
#      x y z
#    x 1.578980 0.000000 0.000000 
#    y 0.000000 1.621750 0.000000 
#    z 0.000000 0.000000 1.558160 
# 
# From -- ./inp_files/67184.got.cif
#   From: 2010.05.17/outbox.cif.g08.bks.cpg/sg63_34_cif.got.tgz:67184.got - 2010.06.03 15:47:04.
