data_PCOD9468578
_publ_section_title
;
Structure prediction by ZEFSAII (Michael W. Deem and Ramdas Pophale) SiO2 
 PCOD9468578
Probable space group: C M C M
;
_chemical_formula_sum "Si O2"
_cell_formula_units_Z 96
_cell_length_a 7.471970
_cell_length_b 24.643420
_cell_length_c 27.169527
_cell_angle_alpha 90.000000
_cell_angle_beta 90.000000
_cell_angle_gamma 90.000000
_cell_volume 5002.858000
_symmetry_space_group_name_H-M "C M C M"
_symmetry_group_IT_number 63
_symmetry_cell_setting 'orthorhombic'
loop_
_space_group_symop_operation_xyz
x,y,z
-x,-y,1/2+z
x,-y,-z
-x,y,1/2-z
-x,-y,-z
x,y,1/2-z
-x,y,z
x,-y,1/2+z
1/2+x,1/2+y,z
1/2-x,1/2-y,1/2+z
1/2+x,1/2-y,-z
1/2-x,1/2+y,1/2-z
1/2-x,1/2-y,-z
1/2+x,1/2+y,1/2-z
1/2-x,1/2+y,z
1/2+x,1/2-y,1/2+z
loop_
_atom_site_type_symbol
_atom_site_label
_atom_site_fract_x
_atom_site_fract_y
_atom_site_fract_z
Si Si1 0.219417 0.605542 0.569048
Si Si2 0.788173 0.090280 0.305089
Si Si3 0.708469 0.929730 0.535823
Si Si4 0.214419 0.271676 0.444694
Si Si5 0.717098 0.334080 0.606722
Si Si6 0.283955 0.004769 0.876207
O O1 0.280449 0.575585 0.518931
O O2 0.281698 0.667627 0.566078
O O3 0.271252 0.566882 0.614544
O O4 0.000000 0.606814 0.567801
O O5 0.713852 0.093646 0.250000
O O6 0.717758 0.134609 0.344406
O O7 0.000000 0.100279 0.302027
O O8 0.767107 0.030589 0.328957
O O9 0.500000 0.944305 0.530729
O O10 0.723979 0.870984 0.560864
O O11 0.784298 0.970367 0.576557
O O12 0.250000 0.250000 0.500000
O O13 0.277792 0.226615 0.405524
O O14 0.000000 0.274168 0.440420
O O15 0.500000 0.334522 0.607688
O O16 0.500000 0.003597 0.877168
#
# Coordination Sequence:
#
# PCOD9468578 Si02
#       6
#    16  16  16  16  16  16
#     4   9  16  26  41  62  91 123 148 173 211 256
#     4   9  18  33  50  65  84 111 143 184 233 273
#     4   9  15  25  42  62  87 120 150 174 208 257
#     4  10  18  28  43  63  91 124 153 179 209 253
#     4   9  17  28  43  65  89 114 148 186 218 252
#     4   9  17  28  44  66  89 113 146 183 218 259
#
# _framework density 19.189032999999998
#
# number of rings (size 3 to 8) (size 9 to 14) (size 15 to 20)
#    0.000    2.833    1.667    0.500    0.000    2.333 
#    0.000    1.667    0.000    5.000    0.000    4.667 
#    0.000    0.000    0.000    0.000    0.000    0.000 
#
# Total GULP energy -267485.555502 kJ/mol
# GULP energy per Si atom -5572.615740 kJ/mol
# Density = 1.914536 g / cm^3
# Si number density = 19.189033 Si / 1000 Ang^3
#
#
#
# Elastic Constant Matrix: (Units=GPa)
#
#
# Indices 1 2 3 4 5 6 
#
# 1 56.3668 -1.1142 1.6987 0.0000 0.0000 0.0000
# 2 -1.1142 85.8626 39.4549 0.0000 0.0000 0.0000
# 3 1.6987 39.4549 109.3919 0.0000 0.0000 0.0000
# 4 0.0000 0.0000 0.0000 12.8760 0.0000 0.0000
# 5 0.0000 0.0000 0.0000 0.0000 11.3773 0.0000
# 6 0.0000 0.0000 0.0000 0.0000 0.0000 4.9009
#
#
#
# Elastic Compliance Matrix: (Units=1/GPa)
#
#
# Indices 1 2 3 4 5 6 
#
# 1 0.017762 0.000428 -0.000430 0.000000 0.000000 0.000000
# 2 0.000428 0.013971 -0.005045 0.000000 0.000000 0.000000
# 3 -0.000430 -0.005045 0.010968 0.000000 0.000000 0.000000
# 4 0.000000 0.000000 0.000000 0.077664 0.000000 0.000000
# 5 0.000000 0.000000 0.000000 0.000000 0.087895 0.000000
# 6 0.000000 0.000000 0.000000 0.000000 0.000000 0.204046
#
#
# Mechanical properties :
#
#
# Convention : Reuss Voigt Hill
#
# Bulk Modulus (GPa) = 30.66943 36.85555 33.76249
# Shear Modulus (GPa) = 11.54018 19.93629 15.73823
#
# Velocity S-wave (km/s) = 2.45499 3.22676 2.86696
# Velocity P-wave (km/s) = 4.90444 5.75594 5.34717
#
# Compressibility (1/GPa) = 0.03260575
#
# Stress axis : x y z
#
# Youngs Moduli (GPa) = 56.29882 71.57931 91.17515
#
# Poissons Ratio (x) = -0.03065 0.03923
# Poissons Ratio (y) = -0.02411 0.46002
# Poissons Ratio (z) = 0.02422 0.36115
#
# Static dielectric constant tensor:
#      x y z
#    x 1.756000 0.000000 0.000000 
#    y 0.000000 1.707990 0.000000 
#    z 0.000000 0.000000 1.656680 
# 
# From -- ./inp_files/52884.got.cif
#   From: 2010.05.17/outbox.cif.g08.bks.cpg/sg63_27_cif.got.tgz:52884.got - 2010.06.03 15:47:04.
