data_PCOD9468858
_publ_section_title
;
Structure prediction by ZEFSAII (Michael W. Deem and Ramdas Pophale) SiO2 
 PCOD9468858
Probable space group: C M C M
;
_chemical_formula_sum "Si O2"
_cell_formula_units_Z 88
_cell_length_a 25.101430
_cell_length_b 24.768477
_cell_length_c 8.700265
_cell_angle_alpha 90.000000
_cell_angle_beta 90.000000
_cell_angle_gamma 90.000000
_cell_volume 5409.165224
_symmetry_space_group_name_H-M "C M C M"
_symmetry_group_IT_number 63
_symmetry_cell_setting 'orthorhombic'
loop_
_space_group_symop_operation_xyz
x,y,z
-x,-y,1/2+z
x,-y,-z
-x,y,1/2-z
-x,-y,-z
x,y,1/2-z
-x,y,z
x,-y,1/2+z
1/2+x,1/2+y,z
1/2-x,1/2-y,1/2+z
1/2+x,1/2-y,-z
1/2-x,1/2+y,1/2-z
1/2-x,1/2-y,-z
1/2+x,1/2+y,1/2-z
1/2-x,1/2+y,z
1/2+x,1/2-y,1/2+z
loop_
_atom_site_type_symbol
_atom_site_label
_atom_site_fract_x
_atom_site_fract_y
_atom_site_fract_z
Si Si1 0.215240 0.671771 0.933881
Si Si2 0.500000 0.561262 0.067885
Si Si3 0.093744 0.133755 0.928376
Si Si4 0.793972 0.556095 0.424612
Si Si5 0.666008 0.445167 0.926105
Si Si6 0.670602 0.720889 0.563849
O O1 0.215182 0.673330 0.750000
O O2 0.275573 0.688421 0.986807
O O3 0.197491 0.612618 0.988954
O O4 0.178193 0.719132 0.000334
O O5 0.500000 0.555380 0.250000
O O6 0.500000 0.500000 0.000000
O O7 0.549960 0.598158 0.015006
O O8 0.078593 0.137035 0.750000
O O9 0.115328 0.191859 0.984449
O O10 0.147379 0.099548 0.954726
O O11 0.813210 0.500000 0.500000
O O12 0.813383 0.559946 0.250000
O O13 0.729523 0.551718 0.420022
O O14 0.647321 0.436540 0.750000
O O15 0.644431 0.500000 0.000000
O O16 0.670820 0.721205 0.750000
#
# Coordination Sequence:
#
# PCOD9468858 Si02
#       6
#    16   8  16  16  16  16
#     4  10  18  30  47  69  95 123 157 195 238 286
#     4  12  26  42  56  72  94 124 165 212 263 306
#     4  11  21  36  53  69  90 118 156 201 250 296
#     4  10  19  29  43  63  91 123 157 193 233 278
#     4  10  19  29  43  62  85 115 151 193 237 283
#     4   9  19  32  48  68  92 122 155 195 241 291
#
# _framework density 16.268682999999999
#
# number of rings (size 3 to 8) (size 9 to 14) (size 15 to 20)
#    0.000    1.818    1.818    3.545    0.000    3.636 
#    0.000    0.000    0.000    0.000    0.000    0.000 
#    0.000    0.000    0.000    0.818    0.000   10.727 
#
# Total GULP energy -245037.504598 kJ/mol
# GULP energy per Si atom -5569.034195 kJ/mol
# Density = 1.623165 g / cm^3
# Si number density = 16.268683 Si / 1000 Ang^3
#
#
#
# Elastic Constant Matrix: (Units=GPa)
#
#
# Indices 1 2 3 4 5 6 
#
# 1 41.0135 37.2056 23.6209 0.0000 0.0000 0.0000
# 2 37.2056 142.6499 36.3250 0.0000 0.0000 0.0000
# 3 23.6209 36.3250 53.9383 0.0000 0.0000 0.0000
# 4 0.0000 0.0000 0.0000 27.7622 0.0000 0.0000
# 5 0.0000 0.0000 0.0000 0.0000 14.7428 0.0000
# 6 0.0000 0.0000 0.0000 0.0000 0.0000 15.5708
#
#
#
# Elastic Compliance Matrix: (Units=1/GPa)
#
#
# Indices 1 2 3 4 5 6 
#
# 1 0.037270 -0.006716 -0.011798 0.000000 0.000000 0.000000
# 2 -0.006716 0.009672 -0.003572 0.000000 0.000000 0.000000
# 3 -0.011798 -0.003572 0.026112 0.000000 0.000000 0.000000
# 4 0.000000 0.000000 0.000000 0.036020 0.000000 0.000000
# 5 0.000000 0.000000 0.000000 0.000000 0.067830 0.000000
# 6 0.000000 0.000000 0.000000 0.000000 0.000000 0.064223
#
#
# Mechanical properties :
#
#
# Convention : Reuss Voigt Hill
#
# Bulk Modulus (GPa) = 34.62585 47.98942 41.30764
# Shear Modulus (GPa) = 16.95339 20.97850 18.96595
#
# Velocity S-wave (km/s) = 3.23164 3.59486 3.41808
# Velocity P-wave (km/s) = 5.93756 6.84052 6.40497
#
# Compressibility (1/GPa) = 0.02888016
#
# Stress axis : x y z
#
# Youngs Moduli (GPa) = 26.83130 103.39657 38.29643
#
# Poissons Ratio (x) = 0.69444 0.45183
# Poissons Ratio (y) = 0.18021 0.13680
# Poissons Ratio (z) = 0.31656 0.36934
#
# Static dielectric constant tensor:
#      x y z
#    x 1.568250 0.000000 0.000000 
#    y 0.000000 1.602140 0.000000 
#    z 0.000000 0.000000 1.703610 
# 
# From -- ./inp_files/14345.got.cif
#   From: 2010.05.17/outbox.cif.g08.bks.cpg/sg63_8_cif.got.tgz:14345.got - 2010.06.03 15:47:04.
