data_PCOD9468537
_publ_section_title
;
Structure prediction by ZEFSAII (Michael W. Deem and Ramdas Pophale) SiO2 
 PCOD9468537
Probable space group: C M C M
;
_chemical_formula_sum "Si O2"
_cell_formula_units_Z 112
_cell_length_a 18.300750
_cell_length_b 18.155401
_cell_length_c 21.428959
_cell_angle_alpha 90.000000
_cell_angle_beta 90.000000
_cell_angle_gamma 90.000000
_cell_volume 7119.931377
_symmetry_space_group_name_H-M "C M C M"
_symmetry_group_IT_number 63
_symmetry_cell_setting 'orthorhombic'
loop_
_space_group_symop_operation_xyz
x,y,z
-x,-y,1/2+z
x,-y,-z
-x,y,1/2-z
-x,-y,-z
x,y,1/2-z
-x,y,z
x,-y,1/2+z
1/2+x,1/2+y,z
1/2-x,1/2-y,1/2+z
1/2+x,1/2-y,-z
1/2-x,1/2+y,1/2-z
1/2-x,1/2-y,-z
1/2+x,1/2+y,1/2-z
1/2-x,1/2+y,z
1/2+x,1/2-y,1/2+z
loop_
_atom_site_type_symbol
_atom_site_label
_atom_site_fract_x
_atom_site_fract_y
_atom_site_fract_z
Si Si1 0.288802 0.330232 0.576704
Si Si2 0.680528 0.208553 0.178304
Si Si3 0.916148 0.784603 0.081896
Si Si4 0.586935 0.041377 0.565632
Si Si5 0.914629 0.914592 0.516743
Si Si6 0.087200 0.439694 0.820110
Si Si7 0.157823 0.319035 0.013741
O O1 0.253630 0.319676 0.644296
O O2 0.356404 0.384962 0.567029
O O3 0.222794 0.350963 0.529375
O O4 0.312753 0.249566 0.553134
O O5 0.691344 0.229545 0.250000
O O6 0.642217 0.271664 0.136602
O O7 0.625336 0.139259 0.175564
O O8 0.000000 0.782351 0.103607
O O9 0.904460 0.859763 0.042735
O O10 0.900918 0.717276 0.033629
O O11 0.500000 0.052028 0.572524
O O12 0.625318 0.119329 0.557881
O O13 0.599067 0.000000 0.500000
O O14 0.612343 0.992755 0.624195
O O15 0.000000 0.906441 0.535812
O O16 0.902367 0.000000 0.500000
O O17 0.101288 0.469122 0.750000
O O18 0.000000 0.429935 0.826745
#
# Coordination Sequence:
#
# PCOD9468537 Si02
#       7
#    16  16  16  16  16  16  16
#     4   9  18  31  47  65  91 121 151 190 236 280
#     4  10  19  31  47  68  96 129 161 189 220 270
#     4   9  16  28  48  73  98 122 151 188 235 286
#     4  10  18  27  44  70  96 121 153 189 220 263
#     4   9  18  32  51  73  93 115 149 200 257 299
#     4   9  18  31  45  65  97 132 158 184 227 279
#     4   9  17  29  44  67  94 120 149 188 234 274
#
# _framework density 15.73049
#
# number of rings (size 3 to 8) (size 9 to 14) (size 15 to 20)
#    0.000    2.714    0.000    3.429    0.000    4.286 
#    0.000    0.714    0.000    3.000    0.000    2.000 
#    0.000    0.000    0.000    0.000    0.000    0.000 
#
# Total GULP energy -311979.473499 kJ/mol
# GULP energy per Si atom -5571.062027 kJ/mol
# Density = 1.569469 g / cm^3
# Si number density = 15.730490 Si / 1000 Ang^3
#
#
#
# Elastic Constant Matrix: (Units=GPa)
#
#
# Indices 1 2 3 4 5 6 
#
# 1 65.1267 34.2908 36.2163 0.0000 0.0000 0.0000
# 2 34.2908 51.2188 18.0575 0.0000 0.0000 0.0000
# 3 36.2163 18.0575 81.5028 0.0000 0.0000 0.0000
# 4 0.0000 0.0000 0.0000 15.1752 0.0000 0.0000
# 5 0.0000 0.0000 0.0000 0.0000 12.2082 0.0000
# 6 0.0000 0.0000 0.0000 0.0000 0.0000 22.1477
#
#
#
# Elastic Compliance Matrix: (Units=1/GPa)
#
#
# Indices 1 2 3 4 5 6 
#
# 1 0.029051 -0.016161 -0.009329 0.000000 0.000000 0.000000
# 2 -0.016161 0.030168 0.000497 0.000000 0.000000 0.000000
# 3 -0.009329 0.000497 0.016305 0.000000 0.000000 0.000000
# 4 0.000000 0.000000 0.000000 0.065897 0.000000 0.000000
# 5 0.000000 0.000000 0.000000 0.000000 0.081912 0.000000
# 6 0.000000 0.000000 0.000000 0.000000 0.000000 0.045151
#
#
# Mechanical properties :
#
#
# Convention : Reuss Voigt Hill
#
# Bulk Modulus (GPa) = 39.15467 41.66417 40.40942
# Shear Modulus (GPa) = 15.29134 17.19181 16.24157
#
# Velocity S-wave (km/s) = 3.12121 3.30949 3.21672
# Velocity P-wave (km/s) = 6.15908 6.41462 6.28815
#
# Compressibility (1/GPa) = 0.02553974
#
# Stress axis : x y z
#
# Youngs Moduli (GPa) = 34.42182 33.14719 61.33242
#
# Poissons Ratio (x) = 0.53569 0.57215
# Poissons Ratio (y) = 0.55629 -0.03049
# Poissons Ratio (z) = 0.32111 -0.01648
#
# Static dielectric constant tensor:
#      x y z
#    x 1.542180 0.000000 0.000000 
#    y 0.000000 1.516720 0.000000 
#    z 0.000000 0.000000 1.532390 
# 
# From -- ./inp_files/55838.got.cif
#   From: 2010.05.17/outbox.cif.g08.bks.cpg/sg63_28_cif.got.tgz:55838.got - 2010.06.03 15:47:04.
