data_PCOD9468268
_publ_section_title
;
Structure prediction by ZEFSAII (Michael W. Deem and Ramdas Pophale) SiO2 
 PCOD9468268
Probable space group: C M C M
;
_chemical_formula_sum "Si O2"
_cell_formula_units_Z 80
_cell_length_a 28.042128
_cell_length_b 14.402490
_cell_length_c 14.097279
_cell_angle_alpha 90.000000
_cell_angle_beta 90.000000
_cell_angle_gamma 90.000000
_cell_volume 5693.559252
_symmetry_space_group_name_H-M "C M C M"
_symmetry_group_IT_number 63
_symmetry_cell_setting 'orthorhombic'
loop_
_space_group_symop_operation_xyz
x,y,z
-x,-y,1/2+z
x,-y,-z
-x,y,1/2-z
-x,-y,-z
x,y,1/2-z
-x,y,z
x,-y,1/2+z
1/2+x,1/2+y,z
1/2-x,1/2-y,1/2+z
1/2+x,1/2-y,-z
1/2-x,1/2+y,1/2-z
1/2-x,1/2-y,-z
1/2+x,1/2+y,1/2-z
1/2-x,1/2+y,z
1/2+x,1/2-y,1/2+z
loop_
_atom_site_type_symbol
_atom_site_label
_atom_site_fract_x
_atom_site_fract_y
_atom_site_fract_z
Si Si1 0.710796 0.741735 0.860720
Si Si2 0.260301 0.396672 0.976740
Si Si3 0.888904 0.151281 0.857352
Si Si4 0.644385 0.562703 0.140353
Si Si5 0.946889 0.108333 0.468661
O O1 0.723985 0.733439 0.750000
O O2 0.727268 0.838770 0.905292
O O3 0.654227 0.723332 0.867466
O O4 0.734493 0.662876 0.927049
O O5 0.312171 0.407480 0.926650
O O6 0.243246 0.500000 0.000000
O O7 0.907970 0.154803 0.750000
O O8 0.865439 0.048109 0.869071
O O9 0.928416 0.161011 0.937864
O O10 0.655537 0.581530 0.250000
O O11 0.595365 0.611763 0.108045
O O12 0.000000 0.135770 0.437990
O O13 0.949204 0.000000 0.500000
#
# Coordination Sequence:
#
# PCOD9468268 Si02
#       5
#    16  16  16  16  16
#     4  10  20  30  45  66  87 116 152 186 220 266
#     4  11  19  31  46  64  90 119 152 184 222 264
#     4   9  16  28  42  59  85 115 148 183 217 258
#     4  10  17  27  42  59  84 119 152 180 218 256
#     4   9  16  26  38  57  83 114 152 185 217 256
#
# _framework density 14.050965
#
# number of rings (size 3 to 8) (size 9 to 14) (size 15 to 20)
#    0.000    2.200    4.000    1.200    0.000    1.600 
#    0.000    4.000    0.000    0.000    0.000    0.000 
#    0.000    0.800    0.000    0.000    1.600    0.000 
#
# Total GULP energy -222784.294041 kJ/mol
# GULP energy per Si atom -5569.607351 kJ/mol
# Density = 1.401898 g / cm^3
# Si number density = 14.050965 Si / 1000 Ang^3
#
#
#
# Elastic Constant Matrix: (Units=GPa)
#
#
# Indices 1 2 3 4 5 6 
#
# 1 59.9927 27.4710 31.6983 0.0000 0.0000 0.0000
# 2 27.4710 59.9175 32.9401 0.0000 0.0000 0.0000
# 3 31.6983 32.9401 94.4620 0.0000 0.0000 0.0000
# 4 0.0000 0.0000 0.0000 16.3984 0.0000 0.0000
# 5 0.0000 0.0000 0.0000 0.0000 14.7127 0.0000
# 6 0.0000 0.0000 0.0000 0.0000 0.0000 8.7554
#
#
#
# Elastic Compliance Matrix: (Units=1/GPa)
#
#
# Indices 1 2 3 4 5 6 
#
# 1 0.022836 -0.007741 -0.004964 0.000000 0.000000 0.000000
# 2 -0.007741 0.023272 -0.005518 0.000000 0.000000 0.000000
# 3 -0.004964 -0.005518 0.014176 0.000000 0.000000 0.000000
# 4 0.000000 0.000000 0.000000 0.060981 0.000000 0.000000
# 5 0.000000 0.000000 0.000000 0.000000 0.067968 0.000000
# 6 0.000000 0.000000 0.000000 0.000000 0.000000 0.114216
#
#
# Mechanical properties :
#
#
# Convention : Reuss Voigt Hill
#
# Bulk Modulus (GPa) = 41.94728 44.28788 43.11758
# Shear Modulus (GPa) = 14.37441 16.12417 15.24929
#
# Velocity S-wave (km/s) = 3.20194 3.39122 3.29794
# Velocity P-wave (km/s) = 6.60215 6.84995 6.72719
#
# Compressibility (1/GPa) = 0.02383945
#
# Stress axis : x y z
#
# Youngs Moduli (GPa) = 43.79058 42.96997 70.54201
#
# Poissons Ratio (x) = 0.33263 0.35014
# Poissons Ratio (y) = 0.33899 0.38922
# Poissons Ratio (z) = 0.21736 0.23709
#
# Static dielectric constant tensor:
#      x y z
#    x 1.467440 0.000000 0.000000 
#    y 0.000000 1.445380 0.000000 
#    z 0.000000 0.000000 1.488080 
# 
# From -- ./inp_files/25664.got.cif
#   From: 2010.05.17/outbox.cif.g08.bks.cpg/sg63_13_cif.got.tgz:25664.got - 2010.06.03 15:47:04.
