data_PCOD9468046
_publ_section_title
;
Structure prediction by ZEFSAII (Michael W. Deem and Ramdas Pophale) SiO2 
 PCOD9468046
Probable space group: P N M A
;
_chemical_formula_sum "Si O2"
_cell_formula_units_Z 48
_cell_length_a 18.000000
_cell_length_b 9.000000
_cell_length_c 15.000000
_cell_angle_alpha 90.000000
_cell_angle_beta 90.000000
_cell_angle_gamma 90.000000
_cell_volume 2430.000000
_symmetry_space_group_name_H-M "P N M A"
_symmetry_group_IT_number 62
_symmetry_cell_setting 'orthorhombic'
loop_
_space_group_symop_operation_xyz
x,y,z
1/2-x,-y,1/2+z
1/2+x,1/2-y,1/2-z
-x,1/2+y,-z
-x,-y,-z
1/2+x,y,1/2-z
1/2-x,1/2+y,1/2+z
x,1/2-y,z
loop_
_atom_site_type_symbol
_atom_site_label
_atom_site_fract_x
_atom_site_fract_y
_atom_site_fract_z
Si Si1 0.224455 0.070447 0.025578
Si Si2 0.166559 0.070959 0.666598
Si Si3 0.018013 0.574281 0.594071
Si Si4 0.916905 0.074920 0.736994
Si Si5 0.566133 0.572346 0.444642
Si Si6 0.254635 0.428123 0.827981
O O1 0.230016 0.250000 0.035118
O O2 0.268564 0.986605 0.102533
O O3 0.140322 0.015192 0.028956
O O4 0.256780 0.021571 0.929477
O O5 0.161478 0.250000 0.663511
O O6 0.186243 0.021711 0.767239
O O7 0.093203 0.995651 0.631049
O O8 0.024082 0.750000 0.583551
O O9 0.000000 0.500000 0.500000
O O10 0.957311 0.528255 0.666575
O O11 0.928574 0.250000 0.714216
O O12 0.943208 0.053256 0.838010
O O13 0.829759 0.042324 0.725794
O O14 0.500000 0.500000 0.500000
O O15 0.572827 0.750000 0.460880
O O16 0.248033 0.250000 0.833583
#
# Coordination Sequence:
#
# PCOD9468046 Si02
#       6
#     8   8   8   8   8   8
#     4  11  22  39  65  96 127 165 211 263 317 378
#     4  11  22  42  66  93 126 168 212 259 316 378
#     4  12  26  43  64  96 129 167 212 264 319 379
#     4  10  21  43  68  91 126 173 214 258 318 379
#     4  11  24  42  64  91 128 173 216 265 322 383
#     4   9  20  39  64  90 121 162 207 252 314 379
#
# _framework density 19.753086
#
# number of rings (size 3 to 8) (size 9 to 14) (size 15 to 20)
#    0.000    1.333    1.667    4.000    2.333    2.667 
#    0.000    3.333    0.000    0.000    0.000    0.000 
#    0.000    0.000    0.000    0.000    0.000    0.000 
#
# Total GULP energy -268115.323060 kJ/mol
# GULP energy per Si atom -5585.735897 kJ/mol
# Density = 1.970813 g / cm^3
# Si number density = 19.753086 Si / 1000 Ang^3
#
#
#
# Elastic Constant Matrix: (Units=GPa)
#
#
# Indices 1 2 3 4 5 6 
#
# 1 0.4488 9.6080 4.7175 0.0000 0.0000 0.0000
# 2 9.6080 96.2072 30.0651 0.0000 0.0000 0.0000
# 3 4.7175 30.0651 82.9677 0.0000 0.0000 0.0000
# 4 0.0000 0.0000 0.0000 27.4972 0.0000 0.0000
# 5 0.0000 0.0000 0.0000 0.0000 27.7316 0.0000
# 6 0.0000 0.0000 0.0000 0.0000 0.0000 35.9020
#
#
#
# Elastic Compliance Matrix: (Units=1/GPa)
#
#
# Indices 1 2 3 4 5 6 
#
# 1 -1.815726 0.168105 0.042324 0.000000 0.000000 0.000000
# 2 0.168105 -0.003842 -0.008166 0.000000 0.000000 0.000000
# 3 0.042324 -0.008166 0.012606 0.000000 0.000000 0.000000
# 4 0.000000 0.000000 0.000000 0.036367 0.000000 0.000000
# 5 0.000000 0.000000 0.000000 0.000000 0.036060 0.000000
# 6 0.000000 0.000000 0.000000 0.000000 0.000000 0.027854
#
#
# Mechanical properties :
#
#
# Convention : Reuss Voigt Hill
#
# Bulk Modulus (GPa) = -0.71305 29.82273 14.55484
# Shear Modulus (GPa) = -1.93897 27.24169 12.65136
#
# Velocity S-wave (km/s) = -0.99183 3.71767 2.53351
# Velocity P-wave (km/s) = 1.29360 5.79298 3.99282
#
# Compressibility (1/GPa) = -1.40243558
#
# Stress axis : x y z
#
# Youngs Moduli (GPa) = -0.55074 -260.27744 79.33037
#
# Poissons Ratio (x) = 43.75399 -3.35759
# Poissons Ratio (y) = 0.09258 0.64782
# Poissons Ratio (z) = 0.02331 -2.12544
#
# Static dielectric constant tensor:
#      x y z
#    x 1.290870 0.000000 0.000000 
#    y 0.000000 1.649330 0.000000 
#    z 0.000000 0.000000 1.718150 
# 
# From -- ./inp_files/19663.got.cif
#   From: 2010.05.17/outbox.ucp.g08.bks.cvg/sg62_10_cif.got.tgz:19663.got - 2010.06.11 16:29:25.
