data_PCOD9468411
_publ_section_title
;
Structure prediction by ZEFSAII (Michael W. Deem and Ramdas Pophale) SiO2 
 PCOD9468411
Probable space group: C M C M
;
_chemical_formula_sum "Si O2"
_cell_formula_units_Z 100
_cell_length_a 22.204661
_cell_length_b 14.510094
_cell_length_c 13.596869
_cell_angle_alpha 90.000000
_cell_angle_beta 90.000000
_cell_angle_gamma 90.000000
_cell_volume 4380.798587
_symmetry_space_group_name_H-M "C M C M"
_symmetry_group_IT_number 63
_symmetry_cell_setting 'orthorhombic'
loop_
_space_group_symop_operation_xyz
x,y,z
-x,-y,1/2+z
x,-y,-z
-x,y,1/2-z
-x,-y,-z
x,y,1/2-z
-x,y,z
x,-y,1/2+z
1/2+x,1/2+y,z
1/2-x,1/2-y,1/2+z
1/2+x,1/2-y,-z
1/2-x,1/2+y,1/2-z
1/2-x,1/2-y,-z
1/2+x,1/2+y,1/2-z
1/2-x,1/2+y,z
1/2+x,1/2-y,1/2+z
loop_
_atom_site_type_symbol
_atom_site_label
_atom_site_fract_x
_atom_site_fract_y
_atom_site_fract_z
Si Si1 0.344237 0.102207 0.629896
Si Si2 0.270393 0.485205 0.636817
Si Si3 0.500000 0.459573 0.250000
Si Si4 0.395769 0.568316 0.909164
Si Si5 0.359947 0.761167 0.630813
Si Si6 0.068693 0.446528 0.630161
Si Si7 0.281277 0.717641 0.368787
O O1 0.345186 0.105659 0.750000
O O2 0.287007 0.040269 0.599437
O O3 0.402968 0.044915 0.599668
O O4 0.328360 0.205385 0.595799
O O5 0.254021 0.465163 0.750000
O O6 0.329486 0.546462 0.633232
O O7 0.287094 0.386171 0.591568
O O8 0.552494 0.456386 0.334051
O O9 0.394997 0.678552 0.922496
O O10 0.402894 0.500000 0.000000
O O11 0.368595 0.749063 0.750000
O O12 0.387292 0.861233 0.605541
O O13 0.288239 0.755918 0.613349
O O14 0.067677 0.447762 0.750000
O O15 0.000000 0.432746 0.597385
O O16 0.289237 0.715303 0.250000
#
# Coordination Sequence:
#
# PCOD9468411 Si02
#       7
#    16  16   4  16  16  16  16
#     4   9  15  26  48  80 113 158 208 253 301 368
#     4  10  17  33  57  83 118 159 201 255 312 365
#     4  12  26  48  64  82 124 166 204 248 312 382
#     4  12  25  40  63  92 122 160 205 253 314 381
#     4  10  17  31  54  86 117 154 197 251 316 366
#     4   9  17  26  45  76 115 153 201 258 315 364
#     4   9  16  26  53  84 113 161 204 249 308 371
#
# _framework density 22.826889000000001
#
# number of rings (size 3 to 8) (size 9 to 14) (size 15 to 20)
#    0.000    2.080    4.800    0.240    1.120    0.000 
#    0.000    0.800    1.760    0.000    0.000    0.000 
#    0.000    1.920    0.000    0.160    0.000    0.160 
#
# Total GULP energy -279058.631719 kJ/mol
# GULP energy per Si atom -5581.172634 kJ/mol
# Density = 2.277493 g / cm^3
# Si number density = 22.826889 Si / 1000 Ang^3
#
#
#
# Elastic Constant Matrix: (Units=GPa)
#
#
# Indices 1 2 3 4 5 6 
#
# 1 100.9997 18.4046 -12.7575 0.0000 0.0000 0.0000
# 2 18.4046 125.5306 5.0792 0.0000 0.0000 0.0000
# 3 -12.7575 5.0792 60.8791 0.0000 0.0000 0.0000
# 4 0.0000 0.0000 0.0000 23.7235 0.0000 0.0000
# 5 0.0000 0.0000 0.0000 0.0000 21.0926 0.0000
# 6 0.0000 0.0000 0.0000 0.0000 0.0000 12.1344
#
#
#
# Elastic Compliance Matrix: (Units=1/GPa)
#
#
# Indices 1 2 3 4 5 6 
#
# 1 0.010494 -0.001633 0.002335 0.000000 0.000000 0.000000
# 2 -0.001633 0.008247 -0.001030 0.000000 0.000000 0.000000
# 3 0.002335 -0.001030 0.017001 0.000000 0.000000 0.000000
# 4 0.000000 0.000000 0.000000 0.042152 0.000000 0.000000
# 5 0.000000 0.000000 0.000000 0.000000 0.047410 0.000000
# 6 0.000000 0.000000 0.000000 0.000000 0.000000 0.082410
#
#
# Mechanical properties :
#
#
# Convention : Reuss Voigt Hill
#
# Bulk Modulus (GPa) = 28.50135 34.31798 31.40966
# Shear Modulus (GPa) = 22.72043 29.83564 26.27804
#
# Velocity S-wave (km/s) = 3.15832 3.61922 3.39660
# Velocity P-wave (km/s) = 5.08064 5.70365 5.40114
#
# Compressibility (1/GPa) = 0.03508606
#
# Stress axis : x y z
#
# Youngs Moduli (GPa) = 95.29657 121.25189 58.81898
#
# Poissons Ratio (x) = 0.19800 -0.13736
# Poissons Ratio (y) = 0.15562 0.06060
# Poissons Ratio (z) = -0.22254 0.12492
#
# Static dielectric constant tensor:
#      x y z
#    x 1.767440 0.000000 0.000000 
#    y 0.000000 1.868580 0.000000 
#    z 0.000000 0.000000 1.912650 
# 
# From -- ./inp_files/47163.got.cif
#   From: 2010.05.17/outbox.cif.g08.bks.cpg/sg63_24_cif.got.tgz:47163.got - 2010.06.03 15:47:04.
