data_PCOD9468375
_publ_section_title
;
Structure prediction by ZEFSAII (Michael W. Deem and Ramdas Pophale) SiO2 
 PCOD9468375
Probable space group: C M C M
;
_chemical_formula_sum "Si O2"
_cell_formula_units_Z 80
_cell_length_a 26.883387
_cell_length_b 7.281779
_cell_length_c 17.000205
_cell_angle_alpha 90.000000
_cell_angle_beta 90.000000
_cell_angle_gamma 90.000000
_cell_volume 3327.941140
_symmetry_space_group_name_H-M "C M C M"
_symmetry_group_IT_number 63
_symmetry_cell_setting 'orthorhombic'
loop_
_space_group_symop_operation_xyz
x,y,z
-x,-y,1/2+z
x,-y,-z
-x,y,1/2-z
-x,-y,-z
x,y,1/2-z
-x,y,z
x,-y,1/2+z
1/2+x,1/2+y,z
1/2-x,1/2-y,1/2+z
1/2+x,1/2-y,-z
1/2-x,1/2+y,1/2-z
1/2-x,1/2-y,-z
1/2+x,1/2+y,1/2-z
1/2-x,1/2+y,z
1/2+x,1/2-y,1/2+z
loop_
_atom_site_type_symbol
_atom_site_label
_atom_site_fract_x
_atom_site_fract_y
_atom_site_fract_z
Si Si1 0.292826 0.264552 0.065230
Si Si2 0.942850 0.862654 0.335105
Si Si3 0.710815 0.614306 0.161880
Si Si4 0.106895 0.259275 0.163144
Si Si5 0.399661 0.725565 0.508587
O O1 0.302535 0.468764 0.095476
O O2 0.266493 0.173113 0.140326
O O3 0.344893 0.202779 0.031285
O O4 0.250000 0.250000 0.000000
O O5 0.935973 0.768727 0.250000
O O6 0.931635 0.746481 0.412686
O O7 0.000000 0.926495 0.339520
O O8 0.908094 0.042720 0.333083
O O9 0.709044 0.539480 0.250000
O O10 0.667251 0.766329 0.157841
O O11 0.092110 0.333935 0.250000
O O12 0.086284 0.309513 0.076500
O O13 0.400170 0.500000 0.500000
#
# Coordination Sequence:
#
# PCOD9468375 Si02
#       5
#    16  16  16  16  16
#     4  12  20  34  51  73 101 139 179 218 259 313
#     4   9  17  28  46  70  98 131 168 211 264 320
#     4  11  22  34  50  72 102 141 178 215 261 313
#     4   9  17  30  44  65  97 132 166 209 258 308
#     4  10  17  30  47  68  98 134 166 212 261 308
#
# _framework density 24.038886000000002
#
# number of rings (size 3 to 8) (size 9 to 14) (size 15 to 20)
#    0.000    1.800    6.000    1.200    0.000    4.400 
#    0.000    0.000    0.000    0.000    0.000    0.000 
#    0.000    4.800    0.000    7.400    0.000    0.000 
#
# Total GULP energy -222951.433821 kJ/mol
# GULP energy per Si atom -5573.785846 kJ/mol
# Density = 2.398417 g / cm^3
# Si number density = 24.038886 Si / 1000 Ang^3
#
#
#
# Elastic Constant Matrix: (Units=GPa)
#
#
# Indices 1 2 3 4 5 6 
#
# 1 63.1788 4.1359 32.7834 0.0000 0.0000 0.0000
# 2 4.1359 41.1229 -5.6884 0.0000 0.0000 0.0000
# 3 32.7834 -5.6884 225.6952 0.0000 0.0000 0.0000
# 4 0.0000 0.0000 0.0000 6.2893 0.0000 0.0000
# 5 0.0000 0.0000 0.0000 0.0000 31.3373 0.0000
# 6 0.0000 0.0000 0.0000 0.0000 0.0000 10.0058
#
#
#
# Elastic Compliance Matrix: (Units=1/GPa)
#
#
# Indices 1 2 3 4 5 6 
#
# 1 0.017296 -0.002094 -0.002565 0.000000 0.000000 0.000000
# 2 -0.002094 0.024656 0.000926 0.000000 0.000000 0.000000
# 3 -0.002565 0.000926 0.004827 0.000000 0.000000 0.000000
# 4 0.000000 0.000000 0.000000 0.159000 0.000000 0.000000
# 5 0.000000 0.000000 0.000000 0.000000 0.031911 0.000000
# 6 0.000000 0.000000 0.000000 0.000000 0.000000 0.099942
#
#
# Mechanical properties :
#
#
# Convention : Reuss Voigt Hill
#
# Bulk Modulus (GPa) = 25.43802 43.60650 34.52226
# Shear Modulus (GPa) = 13.95855 29.44421 21.70138
#
# Velocity S-wave (km/s) = 2.41231 3.50359 3.00786
# Velocity P-wave (km/s) = 4.28533 5.87761 5.14346
#
# Compressibility (1/GPa) = 0.03931123
#
# Stress axis : x y z
#
# Youngs Moduli (GPa) = 57.81602 40.55800 207.18145
#
# Poissons Ratio (x) = 0.08494 0.53145
# Poissons Ratio (y) = 0.12109 -0.19178
# Poissons Ratio (z) = 0.14831 -0.03754
#
# Static dielectric constant tensor:
#      x y z
#    x 1.928560 0.000000 0.000000 
#    y 0.000000 1.979900 0.000000 
#    z 0.000000 0.000000 2.014570 
# 
# From -- ./inp_files/49419.got.cif
#   From: 2010.05.17/outbox.cif.g08.bks.cpg/sg63_25_cif.got.tgz:49419.got - 2010.06.03 15:47:04.
