data_PCOD9468310
_publ_section_title
;
Structure prediction by ZEFSAII (Michael W. Deem and Ramdas Pophale) SiO2 
 PCOD9468310
Probable space group: C M C M
;
_chemical_formula_sum "Si O2"
_cell_formula_units_Z 128
_cell_length_a 26.429166
_cell_length_b 19.128717
_cell_length_c 16.551663
_cell_angle_alpha 90.000000
_cell_angle_beta 90.000000
_cell_angle_gamma 90.000000
_cell_volume 8367.793151
_symmetry_space_group_name_H-M "C M C M"
_symmetry_group_IT_number 63
_symmetry_cell_setting 'orthorhombic'
loop_
_space_group_symop_operation_xyz
x,y,z
-x,-y,1/2+z
x,-y,-z
-x,y,1/2-z
-x,-y,-z
x,y,1/2-z
-x,y,z
x,-y,1/2+z
1/2+x,1/2+y,z
1/2-x,1/2-y,1/2+z
1/2+x,1/2-y,-z
1/2-x,1/2+y,1/2-z
1/2-x,1/2-y,-z
1/2+x,1/2+y,1/2-z
1/2-x,1/2+y,z
1/2+x,1/2-y,1/2+z
loop_
_atom_site_type_symbol
_atom_site_label
_atom_site_fract_x
_atom_site_fract_y
_atom_site_fract_z
Si Si1 0.294040 0.838053 0.653973
Si Si2 0.305816 0.267628 0.911009
Si Si3 0.846291 0.785432 0.091661
Si Si4 0.253065 0.863634 0.153084
Si Si5 0.940838 0.865552 0.344990
Si Si6 0.251338 0.521863 0.152367
Si Si7 0.852890 0.897801 0.843818
Si Si8 0.056829 0.980864 0.905955
O O1 0.281699 0.830073 0.750000
O O2 0.249370 0.803388 0.600721
O O3 0.342057 0.790764 0.633614
O O4 0.291720 0.920284 0.635212
O O5 0.294333 0.188273 0.885983
O O6 0.340043 0.316352 0.854127
O O7 0.329336 0.276476 0.999138
O O8 0.802808 0.833863 0.132576
O O9 0.900367 0.820790 0.105235
O O10 0.259177 0.861185 0.250000
O O11 0.256623 0.943384 0.122728
O O12 0.935144 0.849562 0.250000
O O13 0.929976 0.947742 0.358934
O O14 0.000000 0.854787 0.367818
O O15 0.254421 0.516851 0.250000
O O16 0.304445 0.556954 0.125917
O O17 0.859564 0.914083 0.750000
O O18 0.902342 0.921937 0.889862
O O19 0.000000 0.959820 0.882184
O O20 0.056783 0.000000 0.000000
#
# Coordination Sequence:
#
# PCOD9468310 Si02
#       8
#    16  16  16  16  16  16  16  16
#     4   9  16  29  45  63  89 118 148 182 220 263
#     4  10  19  29  40  61  88 116 149 184 216 252
#     4  11  19  29  44  64  89 119 149 179 222 266
#     4  10  17  28  45  64  88 118 150 178 211 262
#     4  10  20  33  48  66  87 113 149 189 223 259
#     4   8  16  27  42  63  85 111 143 178 211 249
#     4  10  18  30  45  60  83 118 155 185 217 257
#     4  10  20  32  45  64  89 114 143 185 230 263
#
# _framework density 15.296745
#
# number of rings (size 3 to 8) (size 9 to 14) (size 15 to 20)
#    0.000    2.250    0.000    7.125    0.000    1.750 
#    0.000    5.000    0.000    0.000    0.000    0.000 
#    0.000    3.000    0.000    8.000    0.000    0.000 
#
# Total GULP energy -356592.595453 kJ/mol
# GULP energy per Si atom -5571.759304 kJ/mol
# Density = 1.526193 g / cm^3
# Si number density = 15.296745 Si / 1000 Ang^3
#
#
#
# Elastic Constant Matrix: (Units=GPa)
#
#
# Indices 1 2 3 4 5 6 
#
# 1 52.7171 28.9047 6.6098 0.0000 0.0000 0.0000
# 2 28.9047 103.6666 4.8139 0.0000 0.0000 0.0000
# 3 6.6098 4.8139 42.0767 0.0000 0.0000 0.0000
# 4 0.0000 0.0000 0.0000 3.6801 0.0000 0.0000
# 5 0.0000 0.0000 0.0000 0.0000 15.0275 0.0000
# 6 0.0000 0.0000 0.0000 0.0000 0.0000 18.5736
#
#
#
# Elastic Compliance Matrix: (Units=1/GPa)
#
#
# Indices 1 2 3 4 5 6 
#
# 1 0.022730 -0.006205 -0.002861 0.000000 0.000000 0.000000
# 2 -0.006205 0.011392 -0.000329 0.000000 0.000000 0.000000
# 3 -0.002861 -0.000329 0.024253 0.000000 0.000000 0.000000
# 4 0.000000 0.000000 0.000000 0.271730 0.000000 0.000000
# 5 0.000000 0.000000 0.000000 0.000000 0.066545 0.000000
# 6 0.000000 0.000000 0.000000 0.000000 0.000000 0.053840
#
#
# Mechanical properties :
#
#
# Convention : Reuss Voigt Hill
#
# Bulk Modulus (GPa) = 25.26120 31.01301 28.13710
# Shear Modulus (GPa) = 10.36329 17.99840 14.18084
#
# Velocity S-wave (km/s) = 2.60567 3.43391 3.04805
# Velocity P-wave (km/s) = 5.05991 6.00338 5.55172
#
# Compressibility (1/GPa) = 0.03958641
#
# Stress axis : x y z
#
# Youngs Moduli (GPa) = 43.99488 87.78394 41.23183
#
# Poissons Ratio (x) = 0.54468 0.11795
# Poissons Ratio (y) = 0.27298 0.01355
# Poissons Ratio (z) = 0.12586 0.02884
#
# Static dielectric constant tensor:
#      x y z
#    x 1.498240 0.000000 0.000000 
#    y 0.000000 1.536960 0.000000 
#    z 0.000000 0.000000 1.578250 
# 
# From -- ./inp_files/48487.got.cif
#   From: 2010.05.17/outbox.cif.g08.bks.cpg/sg63_25_cif.got.tgz:48487.got - 2010.06.03 15:47:04.
