data_PCOD9468238
_publ_section_title
;
Structure prediction by ZEFSAII (Michael W. Deem and Ramdas Pophale) SiO2 
 PCOD9468238
Probable space group: C M C M
;
_chemical_formula_sum "Si O2"
_cell_formula_units_Z 104
_cell_length_a 10.087275
_cell_length_b 32.311557
_cell_length_c 18.854682
_cell_angle_alpha 90.000000
_cell_angle_beta 90.000000
_cell_angle_gamma 90.000000
_cell_volume 6145.411358
_symmetry_space_group_name_H-M "C M C M"
_symmetry_group_IT_number 63
_symmetry_cell_setting 'orthorhombic'
loop_
_space_group_symop_operation_xyz
x,y,z
-x,-y,1/2+z
x,-y,-z
-x,y,1/2-z
-x,-y,-z
x,y,1/2-z
-x,y,z
x,-y,1/2+z
1/2+x,1/2+y,z
1/2-x,1/2-y,1/2+z
1/2+x,1/2-y,-z
1/2-x,1/2+y,1/2-z
1/2-x,1/2-y,-z
1/2+x,1/2+y,1/2-z
1/2-x,1/2+y,z
1/2+x,1/2-y,1/2+z
loop_
_atom_site_type_symbol
_atom_site_label
_atom_site_fract_x
_atom_site_fract_y
_atom_site_fract_z
Si Si1 0.838552 0.474728 0.891669
Si Si2 0.346595 0.255279 0.250000
Si Si3 0.660343 0.059185 0.546244
Si Si4 0.343689 0.850763 0.020748
Si Si5 0.159665 0.428071 0.750000
Si Si6 0.260376 0.665373 0.250000
Si Si7 0.152966 0.727791 0.621601
Si Si8 0.853606 0.821604 0.593178
O O1 0.794414 0.522490 0.901674
O O2 0.792152 0.451325 0.821271
O O3 0.000000 0.474404 0.889365
O O4 0.801231 0.452353 0.965389
O O5 0.500000 0.267720 0.250000
O O6 0.337609 0.204996 0.250000
O O7 0.263005 0.270814 0.317487
O O8 0.500000 0.057364 0.548438
O O9 0.697447 0.106612 0.559218
O O10 0.500000 0.853881 0.003170
O O11 0.325975 0.810836 0.070108
O O12 0.259443 0.844748 0.949900
O O13 0.197579 0.379979 0.750000
O O14 0.000000 0.430492 0.750000
O O15 0.341099 0.670614 0.322818
O O16 0.161952 0.772173 0.582793
O O17 0.000000 0.725457 0.649273
O O18 0.000000 0.833892 0.568574
#
# Coordination Sequence:
#
# PCOD9468238 Si02
#       8
#    16   8  16  16   8   8  16  16
#     4   8  14  24  39  62  95 124 142 177 238 290
#     4  10  20  33  51  72  95 127 166 203 236 278
#     4   8  14  26  42  62  91 124 151 180 229 286
#     4  10  19  31  50  74  97 125 164 205 238 276
#     4  10  17  25  42  71  98 116 145 194 241 279
#     4  10  20  32  47  69  95 127 161 195 237 291
#     4   9  19  34  49  68  99 133 160 194 244 289
#     4  10  20  33  48  68  98 133 162 193 238 289
#
# _framework density 16.923196000000001
#
# number of rings (size 3 to 8) (size 9 to 14) (size 15 to 20)
#    0.000    2.769    0.000    3.000    0.000    6.769 
#    0.000    0.769    0.000    3.692    0.000    9.692 
#    0.000    0.000    0.000    0.000    0.000    0.000 
#
# Total GULP energy -289551.936222 kJ/mol
# GULP energy per Si atom -5568.306466 kJ/mol
# Density = 1.688468 g / cm^3
# Si number density = 16.923196 Si / 1000 Ang^3
#
#
#
# Elastic Constant Matrix: (Units=GPa)
#
#
# Indices 1 2 3 4 5 6 
#
# 1 56.7357 16.7622 23.7645 0.0000 0.0000 0.0000
# 2 16.7622 117.3814 45.9730 0.0000 0.0000 0.0000
# 3 23.7645 45.9730 56.5308 0.0000 0.0000 0.0000
# 4 0.0000 0.0000 0.0000 12.2317 0.0000 0.0000
# 5 0.0000 0.0000 0.0000 0.0000 9.1695 0.0000
# 6 0.0000 0.0000 0.0000 0.0000 0.0000 13.5668
#
#
#
# Elastic Compliance Matrix: (Units=1/GPa)
#
#
# Indices 1 2 3 4 5 6 
#
# 1 0.021430 0.000687 -0.009567 0.000000 0.000000 0.000000
# 2 0.000687 0.012523 -0.010473 0.000000 0.000000 0.000000
# 3 -0.009567 -0.010473 0.030228 0.000000 0.000000 0.000000
# 4 0.000000 0.000000 0.000000 0.081754 0.000000 0.000000
# 5 0.000000 0.000000 0.000000 0.000000 0.109058 0.000000
# 6 0.000000 0.000000 0.000000 0.000000 0.000000 0.073709
#
#
# Mechanical properties :
#
#
# Convention : Reuss Voigt Hill
#
# Bulk Modulus (GPa) = 39.25482 44.84971 42.05227
# Shear Modulus (GPa) = 13.30137 16.60348 14.95243
#
# Velocity S-wave (km/s) = 2.80658 3.13566 2.97568
# Velocity P-wave (km/s) = 5.80937 6.29836 6.05880
#
# Compressibility (1/GPa) = 0.02547458
#
# Stress axis : x y z
#
# Youngs Moduli (GPa) = 46.66342 79.85381 33.08159
#
# Poissons Ratio (x) = -0.05485 0.31650
# Poissons Ratio (y) = -0.03205 0.34646
# Poissons Ratio (z) = 0.44645 0.83629
#
# Static dielectric constant tensor:
#      x y z
#    x 1.564000 0.000000 0.000000 
#    y 0.000000 1.592780 0.000000 
#    z 0.000000 0.000000 1.567570 
# 
# From -- ./inp_files/51727.got.cif
#   From: 2010.05.17/outbox.cif.g08.bks.cpg/sg63_26_cif.got.tgz:51727.got - 2010.06.03 15:47:04.
