data_PCOD9468340
_publ_section_title
;
Structure prediction by ZEFSAII (Michael W. Deem and Ramdas Pophale) SiO2 
 PCOD9468340
Probable space group: C M C M
;
_chemical_formula_sum "Si O2"
_cell_formula_units_Z 96
_cell_length_a 19.885890
_cell_length_b 11.884425
_cell_length_c 24.221810
_cell_angle_alpha 90.000000
_cell_angle_beta 90.000000
_cell_angle_gamma 90.000000
_cell_volume 5724.397721
_symmetry_space_group_name_H-M "C M C M"
_symmetry_group_IT_number 63
_symmetry_cell_setting 'orthorhombic'
loop_
_space_group_symop_operation_xyz
x,y,z
-x,-y,1/2+z
x,-y,-z
-x,y,1/2-z
-x,-y,-z
x,y,1/2-z
-x,y,z
x,-y,1/2+z
1/2+x,1/2+y,z
1/2-x,1/2-y,1/2+z
1/2+x,1/2-y,-z
1/2-x,1/2+y,1/2-z
1/2-x,1/2-y,-z
1/2+x,1/2+y,1/2-z
1/2-x,1/2+y,z
1/2+x,1/2-y,1/2+z
loop_
_atom_site_type_symbol
_atom_site_label
_atom_site_fract_x
_atom_site_fract_y
_atom_site_fract_z
Si Si1 0.821812 0.788307 0.889899
Si Si2 0.326603 0.467707 0.057429
Si Si3 0.576872 0.169749 0.683981
Si Si4 0.670979 0.240533 0.394365
Si Si5 0.919362 0.411235 0.815484
Si Si6 0.680665 0.881023 0.487263
O O1 0.874613 0.759584 0.843012
O O2 0.746742 0.754652 0.870856
O O3 0.842858 0.708860 0.941950
O O4 0.819874 0.917889 0.908461
O O5 0.356036 0.365214 0.092416
O O6 0.253788 0.418411 0.037083
O O7 0.362592 0.500000 0.000000
O O8 0.577874 0.176974 0.750000
O O9 0.500000 0.185111 0.665386
O O10 0.597618 0.041207 0.670055
O O11 0.622747 0.170319 0.354698
O O12 0.682122 0.180593 0.453931
O O13 0.905331 0.394307 0.750000
O O14 0.000000 0.398119 0.822670
O O15 0.644390 0.000000 0.500000
#
# Coordination Sequence:
#
# PCOD9468340 Si02
#       6
#    16  16  16  16  16  16
#     4  11  19  31  55  81 112 144 178 222 269 323
#     4  10  17  31  47  80 113 149 173 205 272 331
#     4   9  20  39  59  77 103 143 186 231 281 323
#     4  11  19  30  56  84 109 145 183 223 265 329
#     4   9  20  40  60  77 105 144 185 233 283 321
#     4  10  17  28  49  81 111 142 176 219 270 319
#
# _framework density 16.770323999999999
#
# number of rings (size 3 to 8) (size 9 to 14) (size 15 to 20)
#    0.000    2.000    5.000    3.000    2.333    0.667 
#    0.000    2.500    0.000    6.000    0.000    0.000 
#    0.000    0.000    0.000    0.000    0.000    0.000 
#
# Total GULP energy -267257.549958 kJ/mol
# GULP energy per Si atom -5567.865624 kJ/mol
# Density = 1.673215 g / cm^3
# Si number density = 16.770324 Si / 1000 Ang^3
#
#
#
# Elastic Constant Matrix: (Units=GPa)
#
#
# Indices 1 2 3 4 5 6 
#
# 1 38.9010 31.6144 28.4783 0.0000 0.0000 0.0000
# 2 31.6144 124.2372 41.4859 0.0000 0.0000 0.0000
# 3 28.4783 41.4859 47.4916 0.0000 0.0000 0.0000
# 4 0.0000 0.0000 0.0000 24.6479 0.0000 0.0000
# 5 0.0000 0.0000 0.0000 0.0000 93.1503 0.0000
# 6 0.0000 0.0000 0.0000 0.0000 0.0000 20.0959
#
#
#
# Elastic Compliance Matrix: (Units=1/GPa)
#
#
# Indices 1 2 3 4 5 6 
#
# 1 0.046930 -0.003593 -0.025003 0.000000 0.000000 0.000000
# 2 -0.003593 0.011639 -0.008013 0.000000 0.000000 0.000000
# 3 -0.025003 -0.008013 0.043049 0.000000 0.000000 0.000000
# 4 0.000000 0.000000 0.000000 0.040571 0.000000 0.000000
# 5 0.000000 0.000000 0.000000 0.000000 0.010735 0.000000
# 6 0.000000 0.000000 0.000000 0.000000 0.000000 0.049761
#
#
# Mechanical properties :
#
#
# Convention : Reuss Voigt Hill
#
# Bulk Modulus (GPa) = 35.21039 45.97632 40.59335
# Shear Modulus (GPa) = 17.52110 34.84890 26.18500
#
# Velocity S-wave (km/s) = 3.23579 4.56346 3.95573
# Velocity P-wave (km/s) = 5.91622 7.43248 6.71727
#
# Compressibility (1/GPa) = 0.02840070
#
# Stress axis : x y z
#
# Youngs Moduli (GPa) = 21.30823 85.91757 23.22955
#
# Poissons Ratio (x) = 0.30871 0.58081
# Poissons Ratio (y) = 0.07656 0.18613
# Poissons Ratio (z) = 0.53277 0.68842
#
# Static dielectric constant tensor:
#      x y z
#    x 1.567140 0.000000 0.000000 
#    y 0.000000 1.608750 0.000000 
#    z 0.000000 0.000000 1.578570 
# 
# From -- ./inp_files/56570.got.cif
#   From: 2010.05.17/outbox.cif.g08.bks.cpg/sg63_29_cif.got.tgz:56570.got - 2010.06.03 15:47:04.
