data_PCOD9468193
_publ_section_title
;
Structure prediction by ZEFSAII (Michael W. Deem and Ramdas Pophale) SiO2 
 PCOD9468193
Probable space group: C M C M
;
_chemical_formula_sum "Si O2"
_cell_formula_units_Z 60
_cell_length_a 15.549954
_cell_length_b 21.500640
_cell_length_c 7.313915
_cell_angle_alpha 90.000000
_cell_angle_beta 90.000000
_cell_angle_gamma 90.000000
_cell_volume 2445.290187
_symmetry_space_group_name_H-M "C M C M"
_symmetry_group_IT_number 63
_symmetry_cell_setting 'orthorhombic'
loop_
_space_group_symop_operation_xyz
x,y,z
-x,-y,1/2+z
x,-y,-z
-x,y,1/2-z
-x,-y,-z
x,y,1/2-z
-x,y,z
x,-y,1/2+z
1/2+x,1/2+y,z
1/2-x,1/2-y,1/2+z
1/2+x,1/2-y,-z
1/2-x,1/2+y,1/2-z
1/2-x,1/2-y,-z
1/2+x,1/2+y,1/2-z
1/2-x,1/2+y,z
1/2+x,1/2-y,1/2+z
loop_
_atom_site_type_symbol
_atom_site_label
_atom_site_fract_x
_atom_site_fract_y
_atom_site_fract_z
Si Si1 0.098578 0.760537 0.470658
Si Si2 0.175219 0.365288 0.972750
Si Si3 0.000000 0.056638 0.750000
Si Si4 0.859855 0.902424 0.958062
Si Si5 0.500000 0.927306 0.532922
O O1 0.102522 0.765592 0.250000
O O2 0.163937 0.706640 0.529932
O O3 0.116034 0.828866 0.544605
O O4 0.000000 0.742090 0.515221
O O5 0.177586 0.364824 0.750000
O O6 0.261581 0.400547 0.026575
O O7 0.088601 0.398560 0.036122
O O8 0.074691 0.064532 0.591056
O O9 0.866145 0.926124 0.750000
O O10 0.500000 0.914354 0.750000
O O11 0.500000 0.000000 0.500000
#
# Coordination Sequence:
#
# PCOD9468193 Si02
#       5
#    16  16   4  16   8
#     4  10  16  30  52  79 114 158 195 241 285 339
#     4   9  19  34  58  82 115 157 196 239 299 360
#     4  12  22  38  52  76 120 152 194 254 278 332
#     4  11  21  35  55  83 116 161 204 237 291 351
#     4  10  20  41  62  88 121 154 194 247 305 357
#
# _framework density 24.536964000000001
#
# number of rings (size 3 to 8) (size 9 to 14) (size 15 to 20)
#    0.000    1.867    4.000    1.200    0.000    0.000 
#    4.800    0.000    0.000    0.000    0.000    0.933 
#    0.000    0.000    0.000    0.000    0.000    0.000 
#
# Total GULP energy -167458.472682 kJ/mol
# GULP energy per Si atom -5581.949089 kJ/mol
# Density = 2.448112 g / cm^3
# Si number density = 24.536964 Si / 1000 Ang^3
#
#
#
# Elastic Constant Matrix: (Units=GPa)
#
#
# Indices 1 2 3 4 5 6 
#
# 1 210.9031 41.6498 58.0473 0.0000 0.0000 0.0000
# 2 41.6498 93.6328 15.0403 0.0000 0.0000 0.0000
# 3 58.0473 15.0403 134.5960 0.0000 0.0000 0.0000
# 4 0.0000 0.0000 0.0000 15.7065 0.0000 0.0000
# 5 0.0000 0.0000 0.0000 0.0000 -13.3804 0.0000
# 6 0.0000 0.0000 0.0000 0.0000 0.0000 17.5893
#
#
#
# Elastic Compliance Matrix: (Units=1/GPa)
#
#
# Indices 1 2 3 4 5 6 
#
# 1 0.005800 -0.002218 -0.002253 0.000000 0.000000 0.000000
# 2 -0.002218 0.011723 -0.000354 0.000000 0.000000 0.000000
# 3 -0.002253 -0.000354 0.008441 0.000000 0.000000 0.000000
# 4 0.000000 0.000000 0.000000 0.063668 0.000000 0.000000
# 5 0.000000 0.000000 0.000000 0.000000 -0.074736 0.000000
# 6 0.000000 0.000000 0.000000 0.000000 0.000000 0.056853
#
#
# Mechanical properties :
#
#
# Convention : Reuss Voigt Hill
#
# Bulk Modulus (GPa) = 61.29531 74.28963 67.79247
# Shear Modulus (GPa) = 57.57957 25.60937 41.59447
#
# Velocity S-wave (km/s) = 4.84947 3.23415 4.12172
# Velocity P-wave (km/s) = 7.50943 6.65497 7.09508
#
# Compressibility (1/GPa) = 0.01631446
#
# Stress axis : x y z
#
# Youngs Moduli (GPa) = 172.42222 85.29976 118.46969
#
# Poissons Ratio (x) = 0.18918 0.26696
# Poissons Ratio (y) = 0.38241 0.04188
# Poissons Ratio (z) = 0.38854 0.03015
#
# Static dielectric constant tensor:
#      x y z
#    x 1.937560 0.000000 0.000000 
#    y 0.000000 1.932710 0.000000 
#    z 0.000000 0.000000 1.913100 
# 
# From -- ./inp_files/4188.got.cif
#   From: 2010.05.17/outbox.cif.g08.bks.cpg/sg63_3_cif.got.tgz:4188.got - 2010.06.03 15:47:04.
