data_PCOD9468385
_publ_section_title
;
Structure prediction by ZEFSAII (Michael W. Deem and Ramdas Pophale) SiO2 
 PCOD9468385
Probable space group: C M C M
;
_chemical_formula_sum "Si O2"
_cell_formula_units_Z 84
_cell_length_a 25.530800
_cell_length_b 24.783830
_cell_length_c 7.785570
_cell_angle_alpha 90.000000
_cell_angle_beta 90.000000
_cell_angle_gamma 90.000000
_cell_volume 4926.327257
_symmetry_space_group_name_H-M "C M C M"
_symmetry_group_IT_number 63
_symmetry_cell_setting 'orthorhombic'
loop_
_space_group_symop_operation_xyz
x,y,z
-x,-y,1/2+z
x,-y,-z
-x,y,1/2-z
-x,-y,-z
x,y,1/2-z
-x,y,z
x,-y,1/2+z
1/2+x,1/2+y,z
1/2-x,1/2-y,1/2+z
1/2+x,1/2-y,-z
1/2-x,1/2+y,1/2-z
1/2-x,1/2-y,-z
1/2+x,1/2+y,1/2-z
1/2-x,1/2+y,z
1/2+x,1/2-y,1/2+z
loop_
_atom_site_type_symbol
_atom_site_label
_atom_site_fract_x
_atom_site_fract_y
_atom_site_fract_z
Si Si1 0.253145 0.169681 0.049812
Si Si2 0.000000 0.954512 0.750000
Si Si3 0.919694 0.921351 0.048519
Si Si4 0.941581 0.797636 0.959462
Si Si5 0.664675 0.249286 0.952810
Si Si6 0.797450 0.060510 0.547526
O O1 0.256379 0.182335 0.250000
O O2 0.205523 0.206156 0.974530
O O3 0.307512 0.191827 0.975839
O O4 0.237658 0.107790 0.030273
O O5 0.954970 0.948725 0.596628
O O6 0.930359 0.936567 0.250000
O O7 0.858846 0.931448 0.004485
O O8 0.931094 0.857506 0.030306
O O9 0.941558 0.802116 0.750000
O O10 0.893859 0.759655 0.017620
O O11 0.000000 0.780194 0.010017
O O12 0.661346 0.259612 0.750000
O O13 0.793704 0.067135 0.750000
O O14 0.781876 0.000000 0.500000
#
# Coordination Sequence:
#
# PCOD9468385 Si02
#       6
#    16   4  16  16  16  16
#     4  10  19  32  52  74 102 133 170 215 267 311
#     4  12  22  36  58  66 106 132 178 230 272 302
#     4  11  22  35  54  75  97 135 180 220 267 318
#     4  10  17  30  51  74 104 142 174 215 264 308
#     4   9  18  30  49  75 105 135 170 211 262 316
#     4  11  24  38  57  75  99 131 175 221 270 322
#
# _framework density 17.051242999999999
#
# number of rings (size 3 to 8) (size 9 to 14) (size 15 to 20)
#    0.000    1.714    3.810    1.429    2.667    1.524 
#    0.000    0.476    0.000    0.000    0.000    0.000 
#    0.000    0.762    0.000    2.095    0.000    3.048 
#
# Total GULP energy -233925.732025 kJ/mol
# GULP energy per Si atom -5569.660286 kJ/mol
# Density = 1.701243 g / cm^3
# Si number density = 17.051243 Si / 1000 Ang^3
#
#
#
# Elastic Constant Matrix: (Units=GPa)
#
#
# Indices 1 2 3 4 5 6 
#
# 1 118.0926 63.0024 28.1606 0.0000 0.0000 0.0000
# 2 63.0024 75.6538 14.2483 0.0000 0.0000 0.0000
# 3 28.1606 14.2483 45.9414 0.0000 0.0000 0.0000
# 4 0.0000 0.0000 0.0000 23.3227 0.0000 0.0000
# 5 0.0000 0.0000 0.0000 0.0000 16.0142 0.0000
# 6 0.0000 0.0000 0.0000 0.0000 0.0000 5.8229
#
#
#
# Elastic Compliance Matrix: (Units=1/GPa)
#
#
# Indices 1 2 3 4 5 6 
#
# 1 0.016810 -0.012806 -0.006332 0.000000 0.000000 0.000000
# 2 -0.012806 0.023794 0.000470 0.000000 0.000000 0.000000
# 3 -0.006332 0.000470 0.025502 0.000000 0.000000 0.000000
# 4 0.000000 0.000000 0.000000 0.042877 0.000000 0.000000
# 5 0.000000 0.000000 0.000000 0.000000 0.062445 0.000000
# 6 0.000000 0.000000 0.000000 0.000000 0.000000 0.171735
#
#
# Mechanical properties :
#
#
# Convention : Reuss Voigt Hill
#
# Bulk Modulus (GPa) = 34.75819 50.05671 42.40745
# Shear Modulus (GPa) = 12.81755 17.98373 15.40064
#
# Velocity S-wave (km/s) = 2.74470 3.25112 3.00858
# Velocity P-wave (km/s) = 5.52027 6.59647 6.08222
#
# Compressibility (1/GPa) = 0.02877020
#
# Stress axis : x y z
#
# Youngs Moduli (GPa) = 59.48773 42.02674 39.21189
#
# Poissons Ratio (x) = 0.53821 0.24830
# Poissons Ratio (y) = 0.76183 -0.01844
# Poissons Ratio (z) = 0.37669 -0.01977
#
# Static dielectric constant tensor:
#      x y z
#    x 1.601540 0.000000 0.000000 
#    y 0.000000 1.551850 0.000000 
#    z 0.000000 0.000000 1.614210 
# 
# From -- ./inp_files/12279.got.cif
#   From: 2010.05.17/outbox.cif.g08.bks.cpg/sg63_7_cif.got.tgz:12279.got - 2010.06.03 15:47:04.
