data_PCOD9468814
_publ_section_title
;
Structure prediction by ZEFSAII (Michael W. Deem and Ramdas Pophale) SiO2 
 PCOD9468814
Probable space group: C M C M
;
_chemical_formula_sum "Si O2"
_cell_formula_units_Z 128
_cell_length_a 19.337053
_cell_length_b 21.968471
_cell_length_c 17.478201
_cell_angle_alpha 90.000000
_cell_angle_beta 90.000000
_cell_angle_gamma 90.000000
_cell_volume 7424.835706
_symmetry_space_group_name_H-M "C M C M"
_symmetry_group_IT_number 63
_symmetry_cell_setting 'orthorhombic'
loop_
_space_group_symop_operation_xyz
x,y,z
-x,-y,1/2+z
x,-y,-z
-x,y,1/2-z
-x,-y,-z
x,y,1/2-z
-x,y,z
x,-y,1/2+z
1/2+x,1/2+y,z
1/2-x,1/2-y,1/2+z
1/2+x,1/2-y,-z
1/2-x,1/2+y,1/2-z
1/2-x,1/2-y,-z
1/2+x,1/2+y,1/2-z
1/2-x,1/2+y,z
1/2+x,1/2-y,1/2+z
loop_
_atom_site_type_symbol
_atom_site_label
_atom_site_fract_x
_atom_site_fract_y
_atom_site_fract_z
Si Si1 0.170350 0.078621 0.838687
Si Si2 0.578464 0.513589 0.084437
Si Si3 0.278188 0.646226 0.341634
Si Si4 0.921490 0.180888 0.914842
Si Si5 0.630194 0.804435 0.657996
Si Si6 0.777929 0.485277 0.656439
Si Si7 0.076054 0.561417 0.157199
Si Si8 0.424196 0.341188 0.905528
O O1 0.176734 0.095813 0.750000
O O2 0.135148 0.133118 0.884498
O O3 0.118719 0.021636 0.850126
O O4 0.241596 0.048049 0.867600
O O5 0.500000 0.489521 0.082522
O O6 0.575814 0.585276 0.096355
O O7 0.608892 0.500000 0.000000
O O8 0.278250 0.643041 0.250000
O O9 0.210600 0.685110 0.363700
O O10 0.263192 0.576249 0.368331
O O11 0.351150 0.674024 0.366998
O O12 0.902860 0.247016 0.883010
O O13 0.000000 0.164242 0.889980
O O14 0.921082 0.178949 0.006449
O O15 0.626569 0.795951 0.750000
O O16 0.591583 0.867776 0.639933
O O17 0.776017 0.485257 0.750000
O O18 0.857196 0.476766 0.631594
O O19 0.075601 0.557406 0.250000
O O20 0.000000 0.543456 0.129292
O O21 0.500000 0.321423 0.874108
#
# Coordination Sequence:
#
# PCOD9468814 Si02
#       8
#    16  16  16  16  16  16  16  16
#     4  11  20  29  44  65  92 126 158 190 229 274
#     4  10  18  30  43  58  87 126 161 192 225 265
#     4   9  17  32  50  68  90 117 155 201 239 272
#     4  11  22  33  44  66 100 132 159 187 223 280
#     4   9  18  31  48  68  93 123 154 192 235 278
#     4   8  15  26  40  63  90 113 145 190 232 269
#     4   8  13  24  44  66  87 113 143 182 235 282
#     4  10  20  31  46  67  93 124 158 196 235 274
#
# _framework density 17.239438
#
# number of rings (size 3 to 8) (size 9 to 14) (size 15 to 20)
#    0.000    2.500    2.500    2.625    0.000    3.000 
#    0.000    1.250    0.000    0.000    0.000    0.875 
#    0.000   17.500    0.000    0.000    0.000    0.000 
#
# Total GULP energy -356334.428557 kJ/mol
# GULP energy per Si atom -5567.725446 kJ/mol
# Density = 1.720020 g / cm^3
# Si number density = 17.239438 Si / 1000 Ang^3
#
#
#
# Elastic Constant Matrix: (Units=GPa)
#
#
# Indices 1 2 3 4 5 6 
#
# 1 139.7611 26.6295 14.2958 0.0000 0.0000 0.0000
# 2 26.6295 42.6511 2.5516 0.0000 0.0000 0.0000
# 3 14.2958 2.5516 6.4449 0.0000 0.0000 0.0000
# 4 0.0000 0.0000 0.0000 14.0195 0.0000 0.0000
# 5 0.0000 0.0000 0.0000 0.0000 0.7081 0.0000
# 6 0.0000 0.0000 0.0000 0.0000 0.0000 -243.2005
#
#
#
# Elastic Compliance Matrix: (Units=1/GPa)
#
#
# Indices 1 2 3 4 5 6 
#
# 1 0.010257 -0.005165 -0.020707 0.000000 0.000000 0.000000
# 2 -0.005165 0.026616 0.000920 0.000000 0.000000 0.000000
# 3 -0.020707 0.000920 0.200728 0.000000 0.000000 0.000000
# 4 0.000000 0.000000 0.000000 0.071329 0.000000 0.000000
# 5 0.000000 0.000000 0.000000 0.000000 1.412188 0.000000
# 6 0.000000 0.000000 0.000000 0.000000 0.000000 -0.004112
#
#
# Mechanical properties :
#
#
# Convention : Reuss Voigt Hill
#
# Bulk Modulus (GPa) = 5.32774 30.64565 17.98670
# Shear Modulus (GPa) = 2.73302 -36.00257 -16.63477
#
# Velocity S-wave (km/s) = 1.26047 -4.57484 -3.10969
# Velocity P-wave (km/s) = 2.28375 3.17655 1.56125
#
# Compressibility (1/GPa) = 0.18769681
#
# Stress axis : x y z
#
# Youngs Moduli (GPa) = 97.49079 37.57129 4.98186
#
# Poissons Ratio (x) = 0.19407 0.10316
# Poissons Ratio (y) = 0.50358 -0.00459
# Poissons Ratio (z) = 2.01878 -0.03458
#
# Static dielectric constant tensor:
#      x y z
#    x 1.649430 0.000000 0.000000 
#    y 0.000000 1.573890 0.000000 
#    z 0.000000 0.000000 1.584950 
# 
# From -- ./inp_files/46339.got.cif
#   From: 2010.05.17/outbox.cif.g08.bks.cpg/sg63_24_cif.got.tgz:46339.got - 2010.06.03 15:47:04.
