data_PCOD9468896
_publ_section_title
;
Structure prediction by ZEFSAII (Michael W. Deem and Ramdas Pophale) SiO2 
 PCOD9468896
Probable space group: C M C M
;
_chemical_formula_sum "Si O2"
_cell_formula_units_Z 80
_cell_length_a 19.083790
_cell_length_b 14.055833
_cell_length_c 14.224300
_cell_angle_alpha 90.000000
_cell_angle_beta 90.000000
_cell_angle_gamma 90.000000
_cell_volume 3815.505824
_symmetry_space_group_name_H-M "C M C M"
_symmetry_group_IT_number 63
_symmetry_cell_setting 'orthorhombic'
loop_
_space_group_symop_operation_xyz
x,y,z
-x,-y,1/2+z
x,-y,-z
-x,y,1/2-z
-x,-y,-z
x,y,1/2-z
-x,y,z
x,-y,1/2+z
1/2+x,1/2+y,z
1/2-x,1/2-y,1/2+z
1/2+x,1/2-y,-z
1/2-x,1/2+y,1/2-z
1/2-x,1/2-y,-z
1/2+x,1/2+y,1/2-z
1/2-x,1/2+y,z
1/2+x,1/2-y,1/2+z
loop_
_atom_site_type_symbol
_atom_site_label
_atom_site_fract_x
_atom_site_fract_y
_atom_site_fract_z
Si Si1 0.500000 0.957258 0.102151
Si Si2 0.355935 0.149265 0.636908
Si Si3 0.146025 0.253229 0.864948
Si Si4 0.292845 0.344160 0.864806
Si Si5 0.211149 0.943959 0.364886
Si Si6 0.500000 0.829749 0.854947
O O1 0.500000 0.057006 0.156596
O O2 0.569437 0.895968 0.116568
O O3 0.500000 0.000000 0.000000
O O4 0.350374 0.152937 0.750000
O O5 0.342069 0.257231 0.603354
O O6 0.290243 0.084324 0.605836
O O7 0.145623 0.257488 0.750000
O O8 0.213654 0.315317 0.892372
O O9 0.072615 0.295098 0.900049
O O10 0.161782 0.144287 0.891654
O O11 0.294921 0.345266 0.750000
O O12 0.308891 0.450659 0.897249
O O13 0.210962 0.945933 0.250000
O O14 0.500000 0.786517 0.750000
#
# Coordination Sequence:
#
# PCOD9468896 Si02
#       6
#     8  16  16  16  16   8
#     4  12  24  34  45  64  92 120 149 192 239 274
#     4   9  17  30  49  70  91 119 155 186 220 273
#     4   8  14  23  40  70  98 119 148 183 219 261
#     4   8  13  23  42  68  95 119 144 182 225 260
#     4   8  13  24  45  73 100 120 146 188 227 259
#     4  10  18  30  49  68  89 118 151 186 225 270
#
# _framework density 20.967075999999999
#
# number of rings (size 3 to 8) (size 9 to 14) (size 15 to 20)
#    0.000    3.200    0.000    4.500    0.000    3.200 
#    0.000    1.000    0.000   15.600    0.000    1.400 
#    0.000    0.000    0.000    0.000    0.000    0.000 
#
# Total GULP energy -223250.272435 kJ/mol
# GULP energy per Si atom -5581.256811 kJ/mol
# Density = 2.091935 g / cm^3
# Si number density = 20.967076 Si / 1000 Ang^3
#
#
#
# Elastic Constant Matrix: (Units=GPa)
#
#
# Indices 1 2 3 4 5 6 
#
# 1 157.7334 98.6227 2.4172 0.0000 0.0000 0.0000
# 2 98.6227 199.6584 17.5053 0.0000 0.0000 0.0000
# 3 2.4172 17.5053 48.5146 0.0000 0.0000 0.0000
# 4 0.0000 0.0000 0.0000 23.5525 0.0000 0.0000
# 5 0.0000 0.0000 0.0000 0.0000 -63.5677 0.0000
# 6 0.0000 0.0000 0.0000 0.0000 0.0000 20.9434
#
#
#
# Elastic Compliance Matrix: (Units=1/GPa)
#
#
# Indices 1 2 3 4 5 6 
#
# 1 0.009243 -0.004673 0.001226 0.000000 0.000000 0.000000
# 2 -0.004673 0.007535 -0.002486 0.000000 0.000000 0.000000
# 3 0.001226 -0.002486 0.021448 0.000000 0.000000 0.000000
# 4 0.000000 0.000000 0.000000 0.042458 0.000000 0.000000
# 5 0.000000 0.000000 0.000000 0.000000 -0.015731 0.000000
# 6 0.000000 0.000000 0.000000 0.000000 0.000000 0.047748
#
#
# Mechanical properties :
#
#
# Convention : Reuss Voigt Hill
#
# Bulk Modulus (GPa) = 37.93729 71.44409 54.69069
# Shear Modulus (GPa) = 37.49428 15.34306 26.41867
#
# Velocity S-wave (km/s) = 4.23335 2.70806 3.55351
# Velocity P-wave (km/s) = 6.48290 6.62771 6.55571
#
# Compressibility (1/GPa) = 0.02635929
#
# Stress axis : x y z
#
# Youngs Moduli (GPa) = 108.19188 132.71775 46.62379
#
# Poissons Ratio (x) = 0.62019 -0.05714
# Poissons Ratio (y) = 0.50558 0.11590
# Poissons Ratio (z) = -0.13260 0.32993
#
# Static dielectric constant tensor:
#      x y z
#    x 1.663090 0.000000 0.000000 
#    y 0.000000 1.769570 0.000000 
#    z 0.000000 0.000000 1.765900 
# 
# From -- ./inp_files/45472.got.cif
#   From: 2010.05.17/outbox.cif.g08.bks.cpg/sg63_23_cif.got.tgz:45472.got - 2010.06.03 15:47:04.
