data_PCOD9468830
_publ_section_title
;
Structure prediction by ZEFSAII (Michael W. Deem and Ramdas Pophale) SiO2 
 PCOD9468830
Probable space group: C M C M
;
_chemical_formula_sum "Si O2"
_cell_formula_units_Z 100
_cell_length_a 27.314302
_cell_length_b 29.509899
_cell_length_c 7.538671
_cell_angle_alpha 90.000000
_cell_angle_beta 90.000000
_cell_angle_gamma 90.000000
_cell_volume 6076.487661
_symmetry_space_group_name_H-M "C M C M"
_symmetry_group_IT_number 63
_symmetry_cell_setting 'orthorhombic'
loop_
_space_group_symop_operation_xyz
x,y,z
-x,-y,1/2+z
x,-y,-z
-x,y,1/2-z
-x,-y,-z
x,y,1/2-z
-x,y,z
x,-y,1/2+z
1/2+x,1/2+y,z
1/2-x,1/2-y,1/2+z
1/2+x,1/2-y,-z
1/2-x,1/2+y,1/2-z
1/2-x,1/2-y,-z
1/2+x,1/2+y,1/2-z
1/2-x,1/2+y,z
1/2+x,1/2-y,1/2+z
loop_
_atom_site_type_symbol
_atom_site_label
_atom_site_fract_x
_atom_site_fract_y
_atom_site_fract_z
Si Si1 0.445360 0.053035 0.963152
Si Si2 0.820414 0.214344 0.459017
Si Si3 0.131393 0.376148 0.047706
Si Si4 0.500000 0.337045 0.750000
Si Si5 0.427488 0.695849 0.953956
Si Si6 0.945261 0.698716 0.463350
Si Si7 0.712958 0.186608 0.964593
O O1 0.446415 0.059347 0.750000
O O2 0.500000 0.065411 0.030181
O O3 0.401368 0.083964 0.034526
O O4 0.437980 0.000000 0.000000
O O5 0.829221 0.218321 0.250000
O O6 0.868768 0.192248 0.538128
O O7 0.769936 0.187616 0.488236
O O8 0.810128 0.265508 0.528975
O O9 0.142696 0.389979 0.250000
O O10 0.181164 0.355736 0.968351
O O11 0.095025 0.333040 0.048571
O O12 0.542749 0.333592 0.593506
O O13 0.442972 0.689533 0.750000
O O14 0.438377 0.748441 0.005749
O O15 0.941162 0.694451 0.250000
O O16 0.000000 0.684940 0.517171
O O17 0.709462 0.187003 0.750000
#
# Coordination Sequence:
#
# PCOD9468830 Si02
#       7
#    16  16  16   4  16  16  16
#     4   9  18  32  47  64  83 110 143 182 234 294
#     4  10  18  30  45  62  83 116 145 177 228 276
#     4  10  19  30  46  63  80 105 142 181 225 278
#     4  12  22  32  48  62  84 120 148 180 230 266
#     4  11  21  32  45  63  87 113 147 185 225 271
#     4  10  20  29  38  57  82 105 134 175 224 268
#     4   9  18  29  43  61  83 108 143 184 225 270
#
# _framework density 16.456876000000001
#
# number of rings (size 3 to 8) (size 9 to 14) (size 15 to 20)
#    0.000    2.080    3.200    1.200    1.120    2.880 
#    0.000    1.600    0.000    0.000    0.000    0.000 
#    0.000    0.000    0.000    0.000    0.000    0.000 
#
# Total GULP energy -278411.058265 kJ/mol
# GULP energy per Si atom -5568.221165 kJ/mol
# Density = 1.641942 g / cm^3
# Si number density = 16.456876 Si / 1000 Ang^3
#
#
#
# Elastic Constant Matrix: (Units=GPa)
#
#
# Indices 1 2 3 4 5 6 
#
# 1 133.3201 30.5006 13.9439 0.0000 0.0000 0.0000
# 2 30.5006 38.6484 1.9021 0.0000 0.0000 0.0000
# 3 13.9439 1.9021 64.0275 0.0000 0.0000 0.0000
# 4 0.0000 0.0000 0.0000 8.0019 0.0000 0.0000
# 5 0.0000 0.0000 0.0000 0.0000 17.3944 0.0000
# 6 0.0000 0.0000 0.0000 0.0000 0.0000 24.9683
#
#
#
# Elastic Compliance Matrix: (Units=1/GPa)
#
#
# Indices 1 2 3 4 5 6 
#
# 1 0.009361 -0.007298 -0.001822 0.000000 0.000000 0.000000
# 2 -0.007298 0.031601 0.000650 0.000000 0.000000 0.000000
# 3 -0.001822 0.000650 0.015996 0.000000 0.000000 0.000000
# 4 0.000000 0.000000 0.000000 0.124970 0.000000 0.000000
# 5 0.000000 0.000000 0.000000 0.000000 0.057490 0.000000
# 6 0.000000 0.000000 0.000000 0.000000 0.000000 0.040051
#
#
# Mechanical properties :
#
#
# Convention : Reuss Voigt Hill
#
# Bulk Modulus (GPa) = 24.98754 36.52102 30.75428
# Shear Modulus (GPa) = 16.14221 22.71621 19.42921
#
# Velocity S-wave (km/s) = 3.13530 3.71933 3.43973
# Velocity P-wave (km/s) = 5.32197 6.37846 5.87402
#
# Compressibility (1/GPa) = 0.04001994
#
# Stress axis : x y z
#
# Youngs Moduli (GPa) = 106.82799 31.64408 62.51674
#
# Poissons Ratio (x) = 0.23093 0.11389
# Poissons Ratio (y) = 0.77960 -0.04067
# Poissons Ratio (z) = 0.19462 -0.02058
#
# Static dielectric constant tensor:
#      x y z
#    x 1.594730 0.000000 0.000000 
#    y 0.000000 1.530490 0.000000 
#    z 0.000000 0.000000 1.607180 
# 
# From -- ./inp_files/13292.got.cif
#   From: 2010.05.17/outbox.cif.g08.bks.cpg/sg63_7_cif.got.tgz:13292.got - 2010.06.03 15:47:04.
