data_PCOD9468495
_publ_section_title
;
Structure prediction by ZEFSAII (Michael W. Deem and Ramdas Pophale) SiO2 
 PCOD9468495
Probable space group: C M C M
;
_chemical_formula_sum "Si O2"
_cell_formula_units_Z 80
_cell_length_a 29.624787
_cell_length_b 23.527193
_cell_length_c 9.076663
_cell_angle_alpha 90.000000
_cell_angle_beta 90.000000
_cell_angle_gamma 90.000000
_cell_volume 6326.325929
_symmetry_space_group_name_H-M "C M C M"
_symmetry_group_IT_number 63
_symmetry_cell_setting 'orthorhombic'
loop_
_space_group_symop_operation_xyz
x,y,z
-x,-y,1/2+z
x,-y,-z
-x,y,1/2-z
-x,-y,-z
x,y,1/2-z
-x,y,z
x,-y,1/2+z
1/2+x,1/2+y,z
1/2-x,1/2-y,1/2+z
1/2+x,1/2-y,-z
1/2-x,1/2+y,1/2-z
1/2-x,1/2-y,-z
1/2+x,1/2+y,1/2-z
1/2-x,1/2+y,z
1/2+x,1/2-y,1/2+z
loop_
_atom_site_type_symbol
_atom_site_label
_atom_site_fract_x
_atom_site_fract_y
_atom_site_fract_z
Si Si1 0.448548 0.439592 0.573297
Si Si2 0.220100 0.938614 0.428065
Si Si3 0.820288 0.765718 0.418643
Si Si4 0.224016 0.332380 0.081028
Si Si5 0.861596 0.131070 0.073516
O O1 0.437242 0.500000 0.500000
O O2 0.447601 0.446786 0.750000
O O3 0.500000 0.424623 0.530356
O O4 0.410948 0.393104 0.535987
O O5 0.216248 0.941491 0.250000
O O6 0.261485 0.895784 0.463757
O O7 0.175298 0.909346 0.495060
O O8 0.225813 0.000000 0.500000
O O9 0.835477 0.763977 0.250000
O O10 0.810163 0.703416 0.482097
O O11 0.771769 0.798239 0.421206
O O12 0.852470 0.805399 0.515920
O O13 0.208273 0.332653 0.250000
O O14 0.855230 0.128643 0.250000
#
# Coordination Sequence:
#
# PCOD9468495 Si02
#       5
#    16  16  16  16  16
#     4   9  18  30  41  53  69  91 119 150 185 222
#     4  10  19  28  38  53  73  95 120 150 180 213
#     4   9  16  25  38  54  70  88 113 146 179 212
#     4   8  15  26  37  50  69  92 116 142 174 210
#     4  10  18  27  40  54  70  92 118 151 186 219
#
# _framework density 12.645571
#
# number of rings (size 3 to 8) (size 9 to 14) (size 15 to 20)
#    0.000    2.800    0.000    3.600    0.000    8.800 
#    0.000    0.000    0.000    0.000    0.000    0.000 
#    0.000    0.000    0.000    0.000    0.000    1.000 
#
# Total GULP energy -222702.433878 kJ/mol
# GULP energy per Si atom -5567.560847 kJ/mol
# Density = 1.261679 g / cm^3
# Si number density = 12.645571 Si / 1000 Ang^3
#
#
#
# Elastic Constant Matrix: (Units=GPa)
#
#
# Indices 1 2 3 4 5 6 
#
# 1 50.3321 42.4207 32.6961 0.0000 0.0000 0.0000
# 2 42.4207 84.9854 43.4250 0.0000 0.0000 0.0000
# 3 32.6961 43.4250 55.5166 0.0000 0.0000 0.0000
# 4 0.0000 0.0000 0.0000 20.7923 0.0000 0.0000
# 5 0.0000 0.0000 0.0000 0.0000 12.7523 0.0000
# 6 0.0000 0.0000 0.0000 0.0000 0.0000 19.0439
#
#
#
# Elastic Compliance Matrix: (Units=1/GPa)
#
#
# Indices 1 2 3 4 5 6 
#
# 1 0.039195 -0.012942 -0.012960 0.000000 0.000000 0.000000
# 2 -0.012942 0.023874 -0.011052 0.000000 0.000000 0.000000
# 3 -0.012960 -0.011052 0.034291 0.000000 0.000000 0.000000
# 4 0.000000 0.000000 0.000000 0.048095 0.000000 0.000000
# 5 0.000000 0.000000 0.000000 0.000000 0.078417 0.000000
# 6 0.000000 0.000000 0.000000 0.000000 0.000000 0.052510
#
#
# Mechanical properties :
#
#
# Convention : Reuss Voigt Hill
#
# Bulk Modulus (GPa) = 42.64301 47.54640 45.09471
# Shear Modulus (GPa) = 13.96230 15.33719 14.64975
#
# Velocity S-wave (km/s) = 3.32644 3.48638 3.40735
# Velocity P-wave (km/s) = 6.96768 7.34080 7.15667
#
# Compressibility (1/GPa) = 0.02345050
#
# Stress axis : x y z
#
# Youngs Moduli (GPa) = 25.51366 41.88646 29.16249
#
# Poissons Ratio (x) = 0.54209 0.37796
# Poissons Ratio (y) = 0.33019 0.32231
# Poissons Ratio (z) = 0.33067 0.46294
#
# Static dielectric constant tensor:
#      x y z
#    x 1.395250 0.000000 0.000000 
#    y 0.000000 1.414890 0.000000 
#    z 0.000000 0.000000 1.428660 
# 
# From -- ./inp_files/14291.got.cif
#   From: 2010.05.17/outbox.cif.g08.bks.cpg/sg63_8_cif.got.tgz:14291.got - 2010.06.03 15:47:04.
