data_PCOD9468124
_publ_section_title
;
Structure prediction by ZEFSAII (Michael W. Deem and Ramdas Pophale) SiO2 
 PCOD9468124
Probable space group: C M C M
;
_chemical_formula_sum "Si O2"
_cell_formula_units_Z 72
_cell_length_a 37.017998
_cell_length_b 5.360331
_cell_length_c 18.514064
_cell_angle_alpha 90.000000
_cell_angle_beta 90.000000
_cell_angle_gamma 90.000000
_cell_volume 3673.722063
_symmetry_space_group_name_H-M "C M C M"
_symmetry_group_IT_number 63
_symmetry_cell_setting 'orthorhombic'
loop_
_space_group_symop_operation_xyz
x,y,z
-x,-y,1/2+z
x,-y,-z
-x,y,1/2-z
-x,-y,-z
x,y,1/2-z
-x,y,z
x,-y,1/2+z
1/2+x,1/2+y,z
1/2-x,1/2-y,1/2+z
1/2+x,1/2-y,-z
1/2-x,1/2+y,1/2-z
1/2-x,1/2-y,-z
1/2+x,1/2+y,1/2-z
1/2-x,1/2+y,z
1/2+x,1/2-y,1/2+z
loop_
_atom_site_type_symbol
_atom_site_label
_atom_site_fract_x
_atom_site_fract_y
_atom_site_fract_z
Si Si1 0.540198 0.250061 0.048923
Si Si2 0.228771 0.212135 0.250000
Si Si3 0.382197 0.251140 0.089302
Si Si4 0.352168 0.750990 0.071977
Si Si5 0.226452 0.295143 0.089590
O O1 0.500000 0.248045 0.082240
O O2 0.574993 0.253265 0.100333
O O3 0.542447 0.500000 0.000000
O O4 0.542940 0.000000 0.000000
O O5 0.261621 0.417722 0.250000
O O6 0.212350 0.274728 0.172581
O O7 0.362157 0.500241 0.113815
O O8 0.363278 0.998827 0.114200
O O9 0.375573 0.250546 0.001917
O O10 0.310608 0.761197 0.047008
O O11 0.246532 0.560086 0.079249
#
# Coordination Sequence:
#
# PCOD9468124 Si02
#       5
#    16   8  16  16  16
#     4  10  16  25  41  58  77 108 141 166 188 223
#     4   8  16  30  48  60  76  92 121 172 219 244
#     4  10  17  30  38  58  85 114 133 157 195 232
#     4  10  18  28  43  55  80 110 135 161 199 238
#     4  10  19  32  45  62  76 100 136 172 206 243
#
# _framework density 19.598652000000001
#
# number of rings (size 3 to 8) (size 9 to 14) (size 15 to 20)
#    0.000    2.222    4.444    1.333    0.000    0.000 
#    0.000   13.333    0.000    0.000    0.000    0.000 
#    0.000    0.000    0.000   11.000    0.000    0.000 
#
# Total GULP energy -200453.202499 kJ/mol
# GULP energy per Si atom -5568.144514 kJ/mol
# Density = 1.955404 g / cm^3
# Si number density = 19.598652 Si / 1000 Ang^3
#
#
#
# Elastic Constant Matrix: (Units=GPa)
#
#
# Indices 1 2 3 4 5 6 
#
# 1 164.5588 61.0740 -9.6883 0.0000 0.0000 0.0000
# 2 61.0740 207.1487 -14.0171 0.0000 0.0000 0.0000
# 3 -9.6883 -14.0171 22.0969 0.0000 0.0000 0.0000
# 4 0.0000 0.0000 0.0000 5.2553 0.0000 0.0000
# 5 0.0000 0.0000 0.0000 0.0000 0.4965 0.0000
# 6 0.0000 0.0000 0.0000 0.0000 0.0000 33.4032
#
#
#
# Elastic Compliance Matrix: (Units=1/GPa)
#
#
# Indices 1 2 3 4 5 6 
#
# 1 0.006892 -0.001910 0.001811 0.000000 0.000000 0.000000
# 2 -0.001910 0.005573 0.002698 0.000000 0.000000 0.000000
# 3 0.001811 0.002698 0.047760 0.000000 0.000000 0.000000
# 4 0.000000 0.000000 0.000000 0.190284 0.000000 0.000000
# 5 0.000000 0.000000 0.000000 0.000000 2.013993 0.000000
# 6 0.000000 0.000000 0.000000 0.000000 0.000000 0.029937
#
#
# Mechanical properties :
#
#
# Convention : Reuss Voigt Hill
#
# Bulk Modulus (GPa) = 15.28499 52.06018 33.67259
# Shear Modulus (GPa) = 2.16352 31.59339 16.87846
#
# Velocity S-wave (km/s) = 1.05181 4.01935 2.93781
# Velocity P-wave (km/s) = 3.04812 6.93982 5.35967
#
# Compressibility (1/GPa) = 0.06542365
#
# Stress axis : x y z
#
# Youngs Moduli (GPa) = 145.09282 179.43663 20.93782
#
# Poissons Ratio (x) = 0.34264 -0.03791
# Poissons Ratio (y) = 0.27706 -0.05649
# Poissons Ratio (z) = -0.26270 -0.48412
#
# Static dielectric constant tensor:
#      x y z
#    x 1.681870 0.000000 0.000000 
#    y 0.000000 1.661060 0.000000 
#    z 0.000000 0.000000 1.846880 
# 
# From -- ./inp_files/65604.got.cif
#   From: 2010.05.17/outbox.cif.g08.bks.cpg/sg63_33_cif.got.tgz:65604.got - 2010.06.03 15:47:04.
