data_PCOD9468062
_publ_section_title
;
Structure prediction by ZEFSAII (Michael W. Deem and Ramdas Pophale) SiO2 
 PCOD9468062
Probable space group: P N M A
;
_chemical_formula_sum "Si O2"
_cell_formula_units_Z 48
_cell_length_a 30.000000
_cell_length_b 9.000000
_cell_length_c 9.000000
_cell_angle_alpha 90.000000
_cell_angle_beta 90.000000
_cell_angle_gamma 90.000000
_cell_volume 2430.000000
_symmetry_space_group_name_H-M "P N M A"
_symmetry_group_IT_number 62
_symmetry_cell_setting 'orthorhombic'
loop_
_space_group_symop_operation_xyz
x,y,z
1/2-x,-y,1/2+z
1/2+x,1/2-y,1/2-z
-x,1/2+y,-z
-x,-y,-z
1/2+x,y,1/2-z
1/2-x,1/2+y,1/2+z
x,1/2-y,z
loop_
_atom_site_type_symbol
_atom_site_label
_atom_site_fract_x
_atom_site_fract_y
_atom_site_fract_z
Si Si1 0.616430 0.572464 0.095709
Si Si2 0.535376 0.913813 0.596596
Si Si3 0.710954 0.072234 0.596742
Si Si4 0.527445 0.414767 0.122642
Si Si5 0.875386 0.430051 0.244364
Si Si6 0.202543 0.072224 0.255165
O O1 0.618035 0.750000 0.110677
O O2 0.571108 0.507132 0.163299
O O3 0.658289 0.498517 0.175600
O O4 0.616723 0.537033 0.918638
O O5 0.543457 0.750000 0.531271
O O6 0.508129 0.898963 0.748059
O O7 0.583009 0.980398 0.642068
O O8 0.500000 0.000000 0.500000
O O9 0.712798 0.250000 0.616155
O O10 0.705993 0.041147 0.421005
O O11 0.669276 0.004436 0.685115
O O12 0.755445 0.998390 0.660865
O O13 0.541540 0.250000 0.073542
O O14 0.500000 0.500000 0.000000
O O15 0.872703 0.250000 0.232878
O O16 0.202276 0.250000 0.274826
#
# Coordination Sequence:
#
# PCOD9468062 Si02
#       6
#     8   8   8   8   8   8
#     4  11  23  41  65  93 125 163 208 255 308 367
#     4  10  23  41  60  88 126 165 209 258 307 360
#     4  11  25  43  65  94 125 160 203 252 307 368
#     4  11  22  40  63  91 126 165 210 258 305 363
#     4  10  22  42  63  89 125 164 205 256 307 361
#     4  11  25  44  65  94 127 159 200 254 306 365
#
# _framework density 19.753086
#
# number of rings (size 3 to 8) (size 9 to 14) (size 15 to 20)
#    0.000    1.333    1.667    3.000    2.333   10.000 
#    0.000    0.000    0.000    0.000    0.000    0.000 
#    0.000    0.000    0.000    0.000    0.000    0.000 
#
# Total GULP energy -268087.749000 kJ/mol
# GULP energy per Si atom -5585.161438 kJ/mol
# Density = 1.970813 g / cm^3
# Si number density = 19.753086 Si / 1000 Ang^3
#
#
#
# Elastic Constant Matrix: (Units=GPa)
#
#
# Indices 1 2 3 4 5 6 
#
# 1 124.2427 7.8407 -23.5896 0.0000 0.0000 0.0000
# 2 7.8407 38.2777 6.0650 0.0000 0.0000 0.0000
# 3 -23.5896 6.0650 -2.2920 0.0000 0.0000 0.0000
# 4 0.0000 0.0000 0.0000 30.3912 0.0000 0.0000
# 5 0.0000 0.0000 0.0000 0.0000 37.8039 0.0000
# 6 0.0000 0.0000 0.0000 0.0000 0.0000 37.9199
#
#
#
# Elastic Compliance Matrix: (Units=1/GPa)
#
#
# Indices 1 2 3 4 5 6 
#
# 1 0.003203 0.003218 -0.024451 0.000000 0.000000 0.000000
# 2 0.003218 0.021640 0.024142 0.000000 0.000000 0.000000
# 3 -0.024451 0.024142 -0.120758 0.000000 0.000000 0.000000
# 4 0.000000 0.000000 0.000000 0.032904 0.000000 0.000000
# 5 0.000000 0.000000 0.000000 0.000000 0.026452 0.000000
# 6 0.000000 0.000000 0.000000 0.000000 0.000000 0.026371
#
#
# Mechanical properties :
#
#
# Convention : Reuss Voigt Hill
#
# Bulk Modulus (GPa) = -11.09927 15.65118 2.27596
# Shear Modulus (GPa) = -108.60996 32.55048 -38.02974
#
# Velocity S-wave (km/s) = -7.42315 4.06380 -4.39253
# Velocity P-wave (km/s) = 8.89393 5.47356 4.95692
#
# Compressibility (1/GPa) = -0.09009605
#
# Stress axis : x y z
#
# Youngs Moduli (GPa) = 312.19235 46.20992 -8.28105
#
# Poissons Ratio (x) = -0.14871 -0.20248
# Poissons Ratio (y) = -1.00468 0.19992
# Poissons Ratio (z) = 7.63356 -1.11562
#
# Static dielectric constant tensor:
#      x y z
#    x 1.647010 0.000000 0.000000 
#    y 0.000000 1.712870 0.000000 
#    z 0.000000 0.000000 1.676420 
# 
# From -- ./inp_files/10264.got.cif
#   From: 2010.05.17/outbox.ucp.g08.bks.cvg/sg62_6_cif.got.tgz:10264.got - 2010.06.11 16:29:25.
