data_PCOD9468819
_publ_section_title
;
Structure prediction by ZEFSAII (Michael W. Deem and Ramdas Pophale) SiO2 
 PCOD9468819
Probable space group: C M C M
;
_chemical_formula_sum "Si O2"
_cell_formula_units_Z 88
_cell_length_a 33.767194
_cell_length_b 12.949226
_cell_length_c 8.585984
_cell_angle_alpha 90.000000
_cell_angle_beta 90.000000
_cell_angle_gamma 90.000000
_cell_volume 3754.299005
_symmetry_space_group_name_H-M "C M C M"
_symmetry_group_IT_number 63
_symmetry_cell_setting 'orthorhombic'
loop_
_space_group_symop_operation_xyz
x,y,z
-x,-y,1/2+z
x,-y,-z
-x,y,1/2-z
-x,-y,-z
x,y,1/2-z
-x,y,z
x,-y,1/2+z
1/2+x,1/2+y,z
1/2-x,1/2-y,1/2+z
1/2+x,1/2-y,-z
1/2-x,1/2+y,1/2-z
1/2-x,1/2-y,-z
1/2+x,1/2+y,1/2-z
1/2-x,1/2+y,z
1/2+x,1/2-y,1/2+z
loop_
_atom_site_type_symbol
_atom_site_label
_atom_site_fract_x
_atom_site_fract_y
_atom_site_fract_z
Si Si1 0.543334 0.194618 0.565056
Si Si2 0.868392 0.894662 0.571718
Si Si3 0.290138 0.373071 0.423052
Si Si4 0.296640 0.158428 0.929082
Si Si5 0.500000 0.383193 0.063140
Si Si6 0.123664 0.333444 0.932499
O O1 0.549536 0.200346 0.750000
O O2 0.500000 0.146341 0.534776
O O3 0.536505 0.312196 0.499924
O O4 0.579751 0.137277 0.486321
O O5 0.880156 0.882236 0.750000
O O6 0.820489 0.906109 0.556104
O O7 0.875528 0.789246 0.477652
O O8 0.885509 0.000000 0.500000
O O9 0.200438 0.303450 0.250000
O O10 0.289987 0.249194 0.445874
O O11 0.244299 0.403714 0.432898
O O12 0.305606 0.396386 0.250000
O O13 0.339760 0.116619 0.974079
O O14 0.500000 0.383986 0.250000
O O15 0.500000 0.500000 0.000000
O O16 0.129004 0.347939 0.750000
#
# Coordination Sequence:
#
# PCOD9468819 Si02
#       6
#    16  16  16  16   8  16
#     4   9  19  33  46  58  75  99 127 162 202 245
#     4  11  21  32  44  58  80 106 135 168 205 245
#     4   9  16  27  42  60  80 102 130 160 195 237
#     4   9  16  26  42  61  81 103 127 159 197 238
#     4  10  18  30  44  58  72  92 124 158 195 236
#     4  11  20  30  45  63  82 102 132 170 206 245
#
# _framework density 23.439793999999999
#
# number of rings (size 3 to 8) (size 9 to 14) (size 15 to 20)
#    0.545    1.636    0.000    7.636    0.000    2.909 
#    0.000    3.636    0.000    0.000    0.000    0.000 
#    0.000    0.000    0.000    0.000    0.000    0.909 
#
# Total GULP energy -245334.179016 kJ/mol
# GULP energy per Si atom -5575.776796 kJ/mol
# Density = 2.338644 g / cm^3
# Si number density = 23.439794 Si / 1000 Ang^3
#
#
#
# Elastic Constant Matrix: (Units=GPa)
#
#
# Indices 1 2 3 4 5 6 
#
# 1 141.9453 -12.6839 26.7498 0.0000 0.0000 0.0000
# 2 -12.6839 38.8552 7.2817 0.0000 0.0000 0.0000
# 3 26.7498 7.2817 131.1642 0.0000 0.0000 0.0000
# 4 0.0000 0.0000 0.0000 9.3962 0.0000 0.0000
# 5 0.0000 0.0000 0.0000 0.0000 30.6296 0.0000
# 6 0.0000 0.0000 0.0000 0.0000 0.0000 -34.8934
#
#
#
# Elastic Compliance Matrix: (Units=1/GPa)
#
#
# Indices 1 2 3 4 5 6 
#
# 1 0.007618 0.002807 -0.001709 0.000000 0.000000 0.000000
# 2 0.002807 0.027042 -0.002074 0.000000 0.000000 0.000000
# 3 -0.001709 -0.002074 0.008088 0.000000 0.000000 0.000000
# 4 0.000000 0.000000 0.000000 0.106426 0.000000 0.000000
# 5 0.000000 0.000000 0.000000 0.000000 0.032648 0.000000
# 6 0.000000 0.000000 0.000000 0.000000 0.000000 -0.028659
#
#
# Mechanical properties :
#
#
# Convention : Reuss Voigt Hill
#
# Bulk Modulus (GPa) = 24.51263 39.40665 31.95964
# Shear Modulus (GPa) = 29.63610 20.40096 25.01853
#
# Velocity S-wave (km/s) = 3.55963 2.95338 3.27058
# Velocity P-wave (km/s) = 5.23211 5.33651 5.28457
#
# Compressibility (1/GPa) = 0.04079529
#
# Stress axis : x y z
#
# Youngs Moduli (GPa) = 131.26868 36.98010 123.64321
#
# Poissons Ratio (x) = -0.10381 0.21136
# Poissons Ratio (y) = -0.36849 0.25640
# Poissons Ratio (z) = 0.22440 0.07669
#
# Static dielectric constant tensor:
#      x y z
#    x 2.016960 0.000000 0.000000 
#    y 0.000000 2.039520 0.000000 
#    z 0.000000 0.000000 1.799950 
# 
# From -- ./inp_files/14181.got.cif
#   From: 2010.05.17/outbox.cif.g08.bks.cpg/sg63_8_cif.got.tgz:14181.got - 2010.06.03 15:47:04.
