data_PCOD9468330
_publ_section_title
;
Structure prediction by ZEFSAII (Michael W. Deem and Ramdas Pophale) SiO2 
 PCOD9468330
Probable space group: C M C M
;
_chemical_formula_sum "Si O2"
_cell_formula_units_Z 112
_cell_length_a 13.183771
_cell_length_b 23.811076
_cell_length_c 21.286676
_cell_angle_alpha 90.000000
_cell_angle_beta 90.000000
_cell_angle_gamma 90.000000
_cell_volume 6682.308503
_symmetry_space_group_name_H-M "C M C M"
_symmetry_group_IT_number 63
_symmetry_cell_setting 'orthorhombic'
loop_
_space_group_symop_operation_xyz
x,y,z
-x,-y,1/2+z
x,-y,-z
-x,y,1/2-z
-x,-y,-z
x,y,1/2-z
-x,y,z
x,-y,1/2+z
1/2+x,1/2+y,z
1/2-x,1/2-y,1/2+z
1/2+x,1/2-y,-z
1/2-x,1/2+y,1/2-z
1/2-x,1/2-y,-z
1/2+x,1/2+y,1/2-z
1/2-x,1/2+y,z
1/2+x,1/2-y,1/2+z
loop_
_atom_site_type_symbol
_atom_site_label
_atom_site_fract_x
_atom_site_fract_y
_atom_site_fract_z
Si Si1 0.376485 0.489943 0.179639
Si Si2 0.113553 0.743471 0.176472
Si Si3 0.617313 0.367730 0.355354
Si Si4 0.880786 0.096699 0.397087
Si Si5 0.114624 0.273995 0.057112
Si Si6 0.825052 0.795477 0.674982
Si Si7 0.689954 0.662455 0.987872
O O1 0.347874 0.507134 0.250000
O O2 0.500000 0.488480 0.176956
O O3 0.338249 0.426745 0.167116
O O4 0.346350 0.537006 0.129837
O O5 0.103120 0.732068 0.250000
O O6 0.153472 0.807470 0.169615
O O7 0.205826 0.705050 0.154207
O O8 0.000000 0.738714 0.147761
O O9 0.500000 0.368609 0.335517
O O10 0.628725 0.362908 0.429772
O O11 0.871224 0.144503 0.343427
O O12 0.815402 0.118976 0.455195
O O13 0.000000 0.093866 0.415427
O O14 0.126582 0.250983 0.128622
O O15 0.200134 0.318789 0.037826
O O16 0.000000 0.293381 0.047189
O O17 0.136924 0.219133 0.013939
O O18 0.833284 0.784859 0.750000
#
# Coordination Sequence:
#
# PCOD9468330 Si02
#       7
#    16  16  16  16  16  16  16
#     4   9  18  31  48  71  98 129 161 194 241 293
#     4   9  17  28  43  68 101 128 154 194 238 283
#     4  10  17  28  48  71  97 128 156 189 233 286
#     4  10  20  33  47  68  99 131 164 201 239 286
#     4  10  20  33  47  68  99 130 162 200 242 291
#     4  10  18  30  48  70  96 127 164 200 242 290
#     4  10  19  32  46  69  98 128 161 195 239 289
#
# _framework density 16.760674000000002
#
# number of rings (size 3 to 8) (size 9 to 14) (size 15 to 20)
#    0.000    2.286    1.429    3.429    0.000    4.000 
#    0.000    2.143    0.000    0.000    0.000    3.000 
#    0.000    2.286    0.000    0.000    0.000    0.000 
#
# Total GULP energy -311823.434996 kJ/mol
# GULP energy per Si atom -5568.275625 kJ/mol
# Density = 1.672253 g / cm^3
# Si number density = 16.760674 Si / 1000 Ang^3
#
#
#
# Elastic Constant Matrix: (Units=GPa)
#
#
# Indices 1 2 3 4 5 6 
#
# 1 53.4230 1.9163 3.3541 0.0000 0.0000 0.0000
# 2 1.9163 22.8109 -7.5158 0.0000 0.0000 0.0000
# 3 3.3541 -7.5158 47.4140 0.0000 0.0000 0.0000
# 4 0.0000 0.0000 0.0000 15.0040 0.0000 0.0000
# 5 0.0000 0.0000 0.0000 0.0000 18.8847 0.0000
# 6 0.0000 0.0000 0.0000 0.0000 0.0000 14.8324
#
#
#
# Elastic Compliance Matrix: (Units=1/GPa)
#
#
# Indices 1 2 3 4 5 6 
#
# 1 0.018901 -0.002140 -0.001676 0.000000 0.000000 0.000000
# 2 -0.002140 0.046497 0.007522 0.000000 0.000000 0.000000
# 3 -0.001676 0.007522 0.022402 0.000000 0.000000 0.000000
# 4 0.000000 0.000000 0.000000 0.066649 0.000000 0.000000
# 5 0.000000 0.000000 0.000000 0.000000 0.052953 0.000000
# 6 0.000000 0.000000 0.000000 0.000000 0.000000 0.067420
#
#
# Mechanical properties :
#
#
# Convention : Reuss Voigt Hill
#
# Bulk Modulus (GPa) = 10.50310 13.23966 11.87138
# Shear Modulus (GPa) = 16.71424 18.13713 17.42568
#
# Velocity S-wave (km/s) = 3.16132 3.29313 3.22790
# Velocity P-wave (km/s) = 4.42780 4.73033 4.58156
#
# Compressibility (1/GPa) = 0.09520998
#
# Stress axis : x y z
#
# Youngs Moduli (GPa) = 52.90858 21.50688 44.63945
#
# Poissons Ratio (x) = 0.04603 0.07483
# Poissons Ratio (y) = 0.11323 -0.33577
# Poissons Ratio (z) = 0.08869 -0.16177
#
# Static dielectric constant tensor:
#      x y z
#    x 1.591220 0.000000 0.000000 
#    y 0.000000 1.573280 0.000000 
#    z 0.000000 0.000000 1.599890 
# 
# From -- ./inp_files/53339.got.cif
#   From: 2010.05.17/outbox.cif.g08.bks.cpg/sg63_27_cif.got.tgz:53339.got - 2010.06.03 15:47:04.
