data_PCOD9468475
_publ_section_title
;
Structure prediction by ZEFSAII (Michael W. Deem and Ramdas Pophale) SiO2 
 PCOD9468475
Probable space group: C M C M
;
_chemical_formula_sum "Si O2"
_cell_formula_units_Z 96
_cell_length_a 13.639642
_cell_length_b 9.911906
_cell_length_c 25.487454
_cell_angle_alpha 90.000000
_cell_angle_beta 90.000000
_cell_angle_gamma 90.000000
_cell_volume 3445.772505
_symmetry_space_group_name_H-M "C M C M"
_symmetry_group_IT_number 63
_symmetry_cell_setting 'orthorhombic'
loop_
_space_group_symop_operation_xyz
x,y,z
-x,-y,1/2+z
x,-y,-z
-x,y,1/2-z
-x,-y,-z
x,y,1/2-z
-x,y,z
x,-y,1/2+z
1/2+x,1/2+y,z
1/2-x,1/2-y,1/2+z
1/2+x,1/2-y,-z
1/2-x,1/2+y,1/2-z
1/2-x,1/2-y,-z
1/2+x,1/2+y,1/2-z
1/2-x,1/2+y,z
1/2+x,1/2-y,1/2+z
loop_
_atom_site_type_symbol
_atom_site_label
_atom_site_fract_x
_atom_site_fract_y
_atom_site_fract_z
Si Si1 0.322284 0.661867 0.692325
Si Si2 0.113430 0.265208 0.191044
Si Si3 0.883445 0.383852 0.878156
Si Si4 0.881709 0.171321 0.526811
Si Si5 0.382896 0.893803 0.452520
Si Si6 0.613682 0.456195 0.894867
O O1 0.363889 0.644578 0.750000
O O2 0.374414 0.568203 0.650439
O O3 0.205817 0.635960 0.694481
O O4 0.337468 0.815348 0.672531
O O5 0.116125 0.197127 0.250000
O O6 0.136888 0.176790 0.139056
O O7 0.000000 0.313047 0.185935
O O8 0.866478 0.279685 0.926380
O O9 0.848137 0.527065 0.901084
O O10 0.000000 0.391045 0.870402
O O11 0.846294 0.249151 0.473978
O O12 0.845281 0.030660 0.552568
O O13 0.000000 0.159727 0.521328
O O14 0.500000 0.878881 0.445897
O O15 0.370485 0.000000 0.500000
O O16 0.500000 0.438483 0.907549
#
# Coordination Sequence:
#
# PCOD9468475 Si02
#       6
#    16  16  16  16  16  16
#     4  10  18  26  40  61  83 107 137 172 205 239
#     4   9  18  31  44  58  79 109 141 170 203 243
#     4   8  13  20  32  54  83 109 130 158 200 243
#     4   7  10  17  32  55  79 102 128 158 194 235
#     4   7   9  15  28  48  77 107 129 152 189 237
#     4   9  16  27  45  67  87 106 132 168 207 245
#
# _framework density 27.860226000000001
#
# number of rings (size 3 to 8) (size 9 to 14) (size 15 to 20)
#    0.000    3.667    0.000    4.000    0.000    2.000 
#    0.000    0.000    0.000    3.000    0.000    4.667 
#    0.000   16.667    0.000    0.000    0.000    0.000 
#
# Total GULP energy -268190.913904 kJ/mol
# GULP energy per Si atom -5587.310706 kJ/mol
# Density = 2.779682 g / cm^3
# Si number density = 27.860226 Si / 1000 Ang^3
#
#
#
# Elastic Constant Matrix: (Units=GPa)
#
#
# Indices 1 2 3 4 5 6 
#
# 1 83.0277 6.6856 5.4330 0.0000 0.0000 0.0000
# 2 6.6856 124.6135 30.9239 0.0000 0.0000 0.0000
# 3 5.4330 30.9239 211.4084 0.0000 0.0000 0.0000
# 4 0.0000 0.0000 0.0000 30.0507 0.0000 0.0000
# 5 0.0000 0.0000 0.0000 0.0000 0.0893 0.0000
# 6 0.0000 0.0000 0.0000 0.0000 0.0000 42.3876
#
#
#
# Elastic Compliance Matrix: (Units=1/GPa)
#
#
# Indices 1 2 3 4 5 6 
#
# 1 0.012107 -0.000594 -0.000224 0.000000 0.000000 0.000000
# 2 -0.000594 0.008356 -0.001207 0.000000 0.000000 0.000000
# 3 -0.000224 -0.001207 0.004913 0.000000 0.000000 0.000000
# 4 0.000000 0.000000 0.000000 0.033277 0.000000 0.000000
# 5 0.000000 0.000000 0.000000 0.000000 11.201766 0.000000
# 6 0.000000 0.000000 0.000000 0.000000 0.000000 0.023592
#
#
# Mechanical properties :
#
#
# Convention : Reuss Voigt Hill
#
# Bulk Modulus (GPa) = 46.89329 56.12607 51.50968
# Shear Modulus (GPa) = 0.44267 39.57266 20.00766
#
# Velocity S-wave (km/s) = 0.39904 3.77291 2.68273
# Velocity P-wave (km/s) = 4.13285 6.25852 5.30328
#
# Compressibility (1/GPa) = 0.02132501
#
# Stress axis : x y z
#
# Youngs Moduli (GPa) = 82.59906 119.67142 203.56210
#
# Poissons Ratio (x) = 0.07107 0.04565
# Poissons Ratio (y) = 0.04905 0.24571
# Poissons Ratio (z) = 0.01852 0.14445
#
# Static dielectric constant tensor:
#      x y z
#    x 2.126810 0.000000 0.000000 
#    y 0.000000 2.274610 0.000000 
#    z 0.000000 0.000000 2.138820 
# 
# From -- ./inp_files/73476.got.cif
#   From: 2010.05.17/outbox.cif.g08.bks.cpg/sg63_37_cif.got.tgz:73476.got - 2010.06.03 15:47:04.
