data_PCOD9468543
_publ_section_title
;
Structure prediction by ZEFSAII (Michael W. Deem and Ramdas Pophale) SiO2 
 PCOD9468543
Probable space group: C M C M
;
_chemical_formula_sum "Si O2"
_cell_formula_units_Z 68
_cell_length_a 23.442458
_cell_length_b 6.939539
_cell_length_c 16.843411
_cell_angle_alpha 90.000000
_cell_angle_beta 90.000000
_cell_angle_gamma 90.000000
_cell_volume 2740.083601
_symmetry_space_group_name_H-M "C M C M"
_symmetry_group_IT_number 63
_symmetry_cell_setting 'orthorhombic'
loop_
_space_group_symop_operation_xyz
x,y,z
-x,-y,1/2+z
x,-y,-z
-x,y,1/2-z
-x,-y,-z
x,y,1/2-z
-x,y,z
x,-y,1/2+z
1/2+x,1/2+y,z
1/2-x,1/2-y,1/2+z
1/2+x,1/2-y,-z
1/2-x,1/2+y,1/2-z
1/2-x,1/2-y,-z
1/2+x,1/2+y,1/2-z
1/2-x,1/2+y,z
1/2+x,1/2-y,1/2+z
loop_
_atom_site_type_symbol
_atom_site_label
_atom_site_fract_x
_atom_site_fract_y
_atom_site_fract_z
Si Si1 0.796097 0.066417 0.659313
Si Si2 0.084994 0.177571 0.894047
Si Si3 0.437140 0.776417 0.072261
Si Si4 0.328471 0.119802 0.840576
Si Si5 0.000000 0.735013 0.250000
O O1 0.788737 0.138072 0.750000
O O2 0.846242 0.185277 0.617600
O O3 0.732368 0.052954 0.624735
O O4 0.818901 0.850174 0.663369
O O5 0.049817 0.251569 0.819550
O O6 0.069811 0.947974 0.901472
O O7 0.067384 0.269459 0.977512
O O8 0.500000 0.840289 0.098269
O O9 0.386053 0.897996 0.110012
O O10 0.336004 0.050344 0.750000
#
# Coordination Sequence:
#
# PCOD9468543 Si02
#       5
#    16  16  16  16   4
#     4   9  17  31  47  73  97 129 165 200 243 292
#     4  10  18  27  46  70 101 123 158 204 251 289
#     4  10  18  29  43  72 100 124 159 205 246 291
#     4   9  19  31  50  72  99 132 165 202 244 289
#     4  12  16  26  48  72  94 136 154 202 258 288
#
# _framework density 24.816759999999999
#
# number of rings (size 3 to 8) (size 9 to 14) (size 15 to 20)
#    0.000    2.353    3.529    0.706    1.647    1.412 
#    0.000    0.000    0.000    0.000    3.059    1.647 
#    0.000    0.000    0.000    0.000    0.000    0.000 
#
# Total GULP energy -189833.844002 kJ/mol
# GULP energy per Si atom -5583.348353 kJ/mol
# Density = 2.476028 g / cm^3
# Si number density = 24.816760 Si / 1000 Ang^3
#
#
#
# Elastic Constant Matrix: (Units=GPa)
#
#
# Indices 1 2 3 4 5 6 
#
# 1 285.6495 32.8301 85.6904 0.0000 0.0000 0.0000
# 2 32.8301 75.5072 20.6741 0.0000 0.0000 0.0000
# 3 85.6904 20.6741 100.6440 0.0000 0.0000 0.0000
# 4 0.0000 0.0000 0.0000 10.0479 0.0000 0.0000
# 5 0.0000 0.0000 0.0000 0.0000 42.0427 0.0000
# 6 0.0000 0.0000 0.0000 0.0000 0.0000 35.1674
#
#
#
# Elastic Compliance Matrix: (Units=1/GPa)
#
#
# Indices 1 2 3 4 5 6 
#
# 1 0.004775 -0.001020 -0.003856 0.000000 0.000000 0.000000
# 2 -0.001020 0.014251 -0.002059 0.000000 0.000000 0.000000
# 3 -0.003856 -0.002059 0.013642 0.000000 0.000000 0.000000
# 4 0.000000 0.000000 0.000000 0.099523 0.000000 0.000000
# 5 0.000000 0.000000 0.000000 0.000000 0.023785 0.000000
# 6 0.000000 0.000000 0.000000 0.000000 0.000000 0.028435
#
#
# Mechanical properties :
#
#
# Convention : Reuss Voigt Hill
#
# Bulk Modulus (GPa) = 53.19695 82.24333 67.72014
# Shear Modulus (GPa) = 24.44430 38.95867 31.70149
#
# Velocity S-wave (km/s) = 3.14186 3.96644 3.57798
# Velocity P-wave (km/s) = 5.88593 7.36132 6.66458
#
# Compressibility (1/GPa) = 0.01879807
#
# Stress axis : x y z
#
# Youngs Moduli (GPa) = 209.43683 70.17009 73.30449
#
# Poissons Ratio (x) = 0.07160 0.28264
# Poissons Ratio (y) = 0.21369 0.15091
# Poissons Ratio (z) = 0.80752 0.14446
#
# Static dielectric constant tensor:
#      x y z
#    x 1.986210 0.000000 0.000000 
#    y 0.000000 2.076530 0.000000 
#    z 0.000000 0.000000 1.868820 
# 
# From -- ./inp_files/34954.got.cif
#   From: 2010.05.17/outbox.cif.g08.bks.cpg/sg63_18_cif.got.tgz:34954.got - 2010.06.03 15:47:04.
