data_PCOD9468058
_publ_section_title
;
Structure prediction by ZEFSAII (Michael W. Deem and Ramdas Pophale) SiO2 
 PCOD9468058
Probable space group: P N M A
;
_chemical_formula_sum "Si O2"
_cell_formula_units_Z 56
_cell_length_a 15.000000
_cell_length_b 9.000000
_cell_length_c 21.000000
_cell_angle_alpha 90.000000
_cell_angle_beta 90.000000
_cell_angle_gamma 90.000000
_cell_volume 2835.000000
_symmetry_space_group_name_H-M "P N M A"
_symmetry_group_IT_number 62
_symmetry_cell_setting 'orthorhombic'
loop_
_space_group_symop_operation_xyz
x,y,z
1/2-x,-y,1/2+z
1/2+x,1/2-y,1/2-z
-x,1/2+y,-z
-x,-y,-z
1/2+x,y,1/2-z
1/2-x,1/2+y,1/2+z
x,1/2-y,z
loop_
_atom_site_type_symbol
_atom_site_label
_atom_site_fract_x
_atom_site_fract_y
_atom_site_fract_z
Si Si1 0.693453 0.073751 0.718854
Si Si2 0.918190 0.927493 0.462795
Si Si3 0.602457 0.926978 0.235952
Si Si4 0.782028 0.074456 0.978735
Si Si5 0.105262 0.425063 0.126854
Si Si6 0.902372 0.424727 0.101647
Si Si7 0.427056 0.072032 0.175526
O O1 0.684709 0.250000 0.730471
O O2 0.798376 0.041293 0.709254
O O3 0.636873 0.024305 0.657850
O O4 0.650814 0.985666 0.777858
O O5 0.930661 0.750000 0.458816
O O6 0.821291 0.956162 0.494051
O O7 0.914421 0.998732 0.393070
O O8 0.000000 0.000000 0.500000
O O9 0.586101 0.750000 0.231564
O O10 0.605477 0.979946 0.308932
O O11 0.521890 0.014198 0.202714
O O12 0.788486 0.250000 0.962383
O O13 0.846595 0.046117 0.038153
O O14 0.817607 0.979157 0.919955
O O15 0.114116 0.250000 0.141438
O O16 0.008090 0.448549 0.094741
O O17 0.890224 0.250000 0.118676
O O18 0.426683 0.250000 0.172429
#
# Coordination Sequence:
#
# PCOD9468058 Si02
#       7
#     8   8   8   8   8   8   8
#     4  11  24  41  64  95 128 168 213 265 323 381
#     4  11  25  45  67  94 128 170 218 269 323 379
#     4  11  24  41  64  94 128 167 211 262 318 382
#     4  10  23  42  64  90 126 172 214 261 318 378
#     4  11  22  38  63  97 129 166 210 257 318 383
#     4  10  22  40  62  93 129 165 209 261 318 382
#     4  12  25  43  67  95 128 170 213 264 320 379
#
# _framework density 19.753086
#
# number of rings (size 3 to 8) (size 9 to 14) (size 15 to 20)
#    0.000    1.143    1.429    4.286    2.000    8.000 
#    0.000    0.000    0.000    0.000    0.000    0.000 
#    0.000    0.000    0.000    0.000    0.000    0.000 
#
# Total GULP energy -313258.895277 kJ/mol
# GULP energy per Si atom -5593.908844 kJ/mol
# Density = 1.970813 g / cm^3
# Si number density = 19.753086 Si / 1000 Ang^3
#
#
#
# Elastic Constant Matrix: (Units=GPa)
#
#
# Indices 1 2 3 4 5 6 
#
# 1 83.7714 27.2741 -2.2165 0.0000 0.0000 0.0000
# 2 27.2741 66.9436 13.3759 0.0000 0.0000 0.0000
# 3 -2.2165 13.3759 27.7792 0.0000 0.0000 0.0000
# 4 0.0000 0.0000 0.0000 34.3304 0.0000 0.0000
# 5 0.0000 0.0000 0.0000 0.0000 24.5734 0.0000
# 6 0.0000 0.0000 0.0000 0.0000 0.0000 29.0724
#
#
#
# Elastic Compliance Matrix: (Units=1/GPa)
#
#
# Indices 1 2 3 4 5 6 
#
# 1 0.014221 -0.006662 0.004342 0.000000 0.000000 0.000000
# 2 -0.006662 0.019649 -0.009992 0.000000 0.000000 0.000000
# 3 0.004342 -0.009992 0.041156 0.000000 0.000000 0.000000
# 4 0.000000 0.000000 0.000000 0.029129 0.000000 0.000000
# 5 0.000000 0.000000 0.000000 0.000000 0.040694 0.000000
# 6 0.000000 0.000000 0.000000 0.000000 0.000000 0.034397
#
#
# Mechanical properties :
#
#
# Convention : Reuss Voigt Hill
#
# Bulk Modulus (GPa) = 19.84043 28.37348 24.10696
# Shear Modulus (GPa) = 22.65830 26.93262 24.79546
#
# Velocity S-wave (km/s) = 3.39053 3.69652 3.54682
# Velocity P-wave (km/s) = 5.03920 5.71089 5.38553
#
# Compressibility (1/GPa) = 0.05040213
#
# Stress axis : x y z
#
# Youngs Moduli (GPa) = 70.31861 50.89434 24.29779
#
# Poissons Ratio (x) = 0.33903 -0.10551
# Poissons Ratio (y) = 0.46843 0.24279
# Poissons Ratio (z) = -0.30534 0.50856
#
# Static dielectric constant tensor:
#      x y z
#    x 1.692170 0.000000 0.000000 
#    y 0.000000 1.658470 0.000000 
#    z 0.000000 0.000000 1.674080 
# 
# From -- ./inp_files/27123.got.cif
#   From: 2010.05.17/outbox.ucp.g08.bks.cvg/sg62_14_cif.got.tgz:27123.got - 2010.06.11 16:29:25.
