data_PCOD9468042
_publ_section_title
;
Structure prediction by ZEFSAII (Michael W. Deem and Ramdas Pophale) SiO2 
 PCOD9468042
Probable space group: P N M A
;
_chemical_formula_sum "Si O2"
_cell_formula_units_Z 48
_cell_length_a 15.000000
_cell_length_b 9.000000
_cell_length_c 18.000000
_cell_angle_alpha 90.000000
_cell_angle_beta 90.000000
_cell_angle_gamma 90.000000
_cell_volume 2430.000000
_symmetry_space_group_name_H-M "P N M A"
_symmetry_group_IT_number 62
_symmetry_cell_setting 'orthorhombic'
loop_
_space_group_symop_operation_xyz
x,y,z
1/2-x,-y,1/2+z
1/2+x,1/2-y,1/2-z
-x,1/2+y,-z
-x,-y,-z
1/2+x,y,1/2-z
1/2-x,1/2+y,1/2+z
x,1/2-y,z
loop_
_atom_site_type_symbol
_atom_site_label
_atom_site_fract_x
_atom_site_fract_y
_atom_site_fract_z
Si Si1 0.663795 0.427644 0.822115
Si Si2 0.905378 0.924984 0.486871
Si Si3 0.757151 0.421966 0.583047
Si Si4 0.486695 0.425960 0.276969
Si Si5 0.835887 0.078057 0.744643
Si Si6 0.051752 0.428364 0.932095
O O1 0.656089 0.250000 0.806989
O O2 0.598398 0.514657 0.767677
O O3 0.767404 0.466159 0.809542
O O4 0.630991 0.457368 0.904750
O O5 0.916979 0.750000 0.494054
O O6 0.831417 0.982070 0.543299
O O7 0.000000 0.000000 0.500000
O O8 0.768125 0.250000 0.559996
O O9 0.776267 0.428541 0.670662
O O10 0.656600 0.467928 0.565567
O O11 0.482940 0.250000 0.284901
O O12 0.577777 0.477064 0.237539
O O13 0.486836 0.506014 0.356282
O O14 0.864562 0.250000 0.754709
O O15 0.044611 0.250000 0.932309
O O16 0.000000 0.500000 0.000000
#
# Coordination Sequence:
#
# PCOD9468042 Si02
#       6
#     8   8   8   8   8   8
#     4  10  22  43  65  89 121 167 214 254 310 376
#     4  11  24  40  63  93 127 166 208 256 314 376
#     4  10  22  42  67  92 124 165 209 260 316 373
#     4  12  25  40  63  97 129 163 206 264 319 371
#     4  10  21  41  66  89 119 165 212 258 314 376
#     4  11  24  44  66  93 128 170 215 261 314 379
#
# _framework density 19.753086
#
# number of rings (size 3 to 8) (size 9 to 14) (size 15 to 20)
#    0.000    1.333    1.667    3.500    2.333    8.000 
#    0.000    0.000    0.000    0.000    0.000    0.000 
#    0.000    0.000    0.000    0.000    0.000    0.000 
#
# Total GULP energy -268316.248339 kJ/mol
# GULP energy per Si atom -5589.921840 kJ/mol
# Density = 1.970813 g / cm^3
# Si number density = 19.753086 Si / 1000 Ang^3
#
#
#
# Elastic Constant Matrix: (Units=GPa)
#
#
# Indices 1 2 3 4 5 6 
#
# 1 22.6566 -21.0653 9.8916 0.0000 0.0000 0.0000
# 2 -21.0653 -18.7247 26.7637 0.0000 0.0000 0.0000
# 3 9.8916 26.7637 48.4968 0.0000 0.0000 0.0000
# 4 0.0000 0.0000 0.0000 31.7203 0.0000 0.0000
# 5 0.0000 0.0000 0.0000 0.0000 29.4039 0.0000
# 6 0.0000 0.0000 0.0000 0.0000 0.0000 31.3544
#
#
#
# Elastic Compliance Matrix: (Units=1/GPa)
#
#
# Indices 1 2 3 4 5 6 
#
# 1 0.024013 -0.019016 0.005596 0.000000 0.000000 0.000000
# 2 -0.019016 -0.014797 0.012044 0.000000 0.000000 0.000000
# 3 0.005596 0.012044 0.012832 0.000000 0.000000 0.000000
# 4 0.000000 0.000000 0.000000 0.031526 0.000000 0.000000
# 5 0.000000 0.000000 0.000000 0.000000 0.034009 0.000000
# 6 0.000000 0.000000 0.000000 0.000000 0.000000 0.031893
#
#
# Mechanical properties :
#
#
# Convention : Reuss Voigt Hill
#
# Bulk Modulus (GPa) = 51.81952 9.28986 30.55469
# Shear Modulus (GPa) = 38.86236 20.95164 29.90700
#
# Velocity S-wave (km/s) = 4.44036 3.26034 3.89529
# Velocity P-wave (km/s) = 7.25118 4.34583 5.97770
#
# Compressibility (1/GPa) = 0.01929775
#
# Stress axis : x y z
#
# Youngs Moduli (GPa) = 41.64329 -67.58206 77.93308
#
# Poissons Ratio (x) = -1.28514 -0.43614
# Poissons Ratio (y) = 0.79189 -0.93866
# Poissons Ratio (z) = -0.23305 0.81399
#
# Static dielectric constant tensor:
#      x y z
#    x 1.682360 0.000000 0.000000 
#    y 0.000000 1.701110 0.000000 
#    z 0.000000 0.000000 1.657120 
# 
# From -- ./inp_files/23711.got.cif
#   From: 2010.05.17/outbox.ucp.g08.bks.cvg/sg62_12_cif.got.tgz:23711.got - 2010.06.11 16:29:25.
