data_PCOD9468043
_publ_section_title
;
Structure prediction by ZEFSAII (Michael W. Deem and Ramdas Pophale) SiO2 
 PCOD9468043
Probable space group: P N M A
;
_chemical_formula_sum "Si O2"
_cell_formula_units_Z 40
_cell_length_a 12.000000
_cell_length_b 18.000000
_cell_length_c 9.000000
_cell_angle_alpha 90.000000
_cell_angle_beta 90.000000
_cell_angle_gamma 90.000000
_cell_volume 1944.000000
_symmetry_space_group_name_H-M "P N M A"
_symmetry_group_IT_number 62
_symmetry_cell_setting 'orthorhombic'
loop_
_space_group_symop_operation_xyz
x,y,z
1/2-x,-y,1/2+z
1/2+x,1/2-y,1/2-z
-x,1/2+y,-z
-x,-y,-z
1/2+x,y,1/2-z
1/2-x,1/2+y,1/2+z
x,1/2-y,z
loop_
_atom_site_type_symbol
_atom_site_label
_atom_site_fract_x
_atom_site_fract_y
_atom_site_fract_z
Si Si1 0.133177 0.577187 0.062548
Si Si2 0.871005 0.556297 0.529966
Si Si3 0.420342 0.907053 0.635835
Si Si4 0.918114 0.107681 0.602080
Si Si5 0.663119 0.250000 0.304896
Si Si6 0.582324 0.750000 0.883812
O O1 0.126148 0.487107 0.081805
O O2 0.120409 0.613037 0.226633
O O3 0.252025 0.593111 0.990520
O O4 0.036579 0.600961 0.950059
O O5 0.925267 0.580352 0.686383
O O6 0.862096 0.466888 0.534084
O O7 0.951833 0.583181 0.399588
O O8 0.354689 0.829655 0.614416
O O9 0.908631 0.178605 0.494905
O O10 0.801963 0.250000 0.281442
O O11 0.544475 0.250000 0.196526
#
# Coordination Sequence:
#
# PCOD9468043 Si02
#       6
#     8   8   8   8   4   4
#     4  10  23  42  70  95 135 176 228 284 338 399
#     4  10  21  41  67  93 133 174 226 284 331 403
#     4  10  23  41  65 102 127 179 228 272 336 412
#     4  10  23  42  64  98 133 174 226 279 342 397
#     4  12  26  41  69  99 141 178 230 276 350 404
#     4  12  26  45  67 101 141 182 224 288 342 418
#
# _framework density 20.576132000000001
#
# number of rings (size 3 to 8) (size 9 to 14) (size 15 to 20)
#    0.000    1.600    2.000    1.200    2.800   15.200 
#    0.000    2.000    0.000    0.000    0.000    0.000 
#    0.000    0.000    0.000    0.000    0.000    0.000 
#
# Total GULP energy -222823.856016 kJ/mol
# GULP energy per Si atom -5570.596400 kJ/mol
# Density = 2.052930 g / cm^3
# Si number density = 20.576132 Si / 1000 Ang^3
#
#
#
# Elastic Constant Matrix: (Units=GPa)
#
#
# Indices 1 2 3 4 5 6 
#
# 1 115.3593 0.8362 57.9191 0.0000 0.0000 0.0000
# 2 0.8362 91.8287 25.1001 0.0000 0.0000 0.0000
# 3 57.9191 25.1001 81.2018 0.0000 0.0000 0.0000
# 4 0.0000 0.0000 0.0000 25.3204 0.0000 0.0000
# 5 0.0000 0.0000 0.0000 0.0000 16.4616 0.0000
# 6 0.0000 0.0000 0.0000 0.0000 0.0000 15.3010
#
#
#
# Elastic Compliance Matrix: (Units=1/GPa)
#
#
# Indices 1 2 3 4 5 6 
#
# 1 0.014168 0.002876 -0.010995 0.000000 0.000000 0.000000
# 2 0.002876 0.012479 -0.005909 0.000000 0.000000 0.000000
# 3 -0.010995 -0.005909 0.021984 0.000000 0.000000 0.000000
# 4 0.000000 0.000000 0.000000 0.039494 0.000000 0.000000
# 5 0.000000 0.000000 0.000000 0.000000 0.060747 0.000000
# 6 0.000000 0.000000 0.000000 0.000000 0.000000 0.065355
#
#
# Mechanical properties :
#
#
# Convention : Reuss Voigt Hill
#
# Bulk Modulus (GPa) = 48.60075 50.67783 49.63929
# Shear Modulus (GPa) = 20.06905 25.05221 22.56063
#
# Velocity S-wave (km/s) = 3.12646 3.49311 3.31486
# Velocity P-wave (km/s) = 6.05840 6.39937 6.23122
#
# Compressibility (1/GPa) = 0.02057581
#
# Stress axis : x y z
#
# Youngs Moduli (GPa) = 70.58239 80.13628 45.48843
#
# Poissons Ratio (x) = -0.23049 0.50013
# Poissons Ratio (y) = -0.20301 0.26878
# Poissons Ratio (z) = 0.77603 0.47351
#
# Static dielectric constant tensor:
#      x y z
#    x 1.797590 0.000000 0.000000 
#    y 0.000000 1.756990 0.000000 
#    z 0.000000 0.000000 1.719470 
# 
# From -- ./inp_files/5055.got.cif
#   From: 2010.05.17/outbox.ucp.g08.bks.cvg/sg62_3_cif.got.tgz:5055.got - 2010.06.11 16:29:25.
