data_PCOD9468010
_publ_section_title
;
Structure prediction by ZEFSAII (Michael W. Deem and Ramdas Pophale) SiO2 
 PCOD9468010
Probable space group: P N M A
;
_chemical_formula_sum "Si O2"
_cell_formula_units_Z 64
_cell_length_a 24.000000
_cell_length_b 15.000000
_cell_length_c 9.000000
_cell_angle_alpha 90.000000
_cell_angle_beta 90.000000
_cell_angle_gamma 90.000000
_cell_volume 3240.000000
_symmetry_space_group_name_H-M "P N M A"
_symmetry_group_IT_number 62
_symmetry_cell_setting 'orthorhombic'
loop_
_space_group_symop_operation_xyz
x,y,z
1/2-x,-y,1/2+z
1/2+x,1/2-y,1/2-z
-x,1/2+y,-z
-x,-y,-z
1/2+x,y,1/2-z
1/2-x,1/2+y,1/2+z
x,1/2-y,z
loop_
_atom_site_type_symbol
_atom_site_label
_atom_site_fract_x
_atom_site_fract_y
_atom_site_fract_z
Si Si1 0.827395 0.356537 0.324368
Si Si2 0.035125 0.355952 0.720286
Si Si3 0.718188 0.356951 0.836368
Si Si4 0.713283 0.142930 0.492861
Si Si5 0.840947 0.146223 0.970574
Si Si6 0.414396 0.646313 0.550441
Si Si7 0.120291 0.026055 0.531571
Si Si8 0.426299 0.025934 0.712953
O O1 0.837019 0.250000 0.359367
O O2 0.766205 0.381898 0.391329
O O3 0.869587 0.429003 0.393177
O O4 0.831690 0.365592 0.146739
O O5 0.028895 0.250000 0.680539
O O6 0.070910 0.414630 0.604181
O O7 0.976838 0.407612 0.744874
O O8 0.068533 0.357256 0.877268
O O9 0.704239 0.250000 0.842731
O O10 0.716387 0.388296 0.664141
O O11 0.780992 0.367314 0.893930
O O12 0.675178 0.414249 0.934031
O O13 0.715931 0.250000 0.501854
O O14 0.651452 0.123406 0.433242
O O15 0.857656 0.250000 0.945268
O O16 0.885967 0.080221 0.899063
O O17 0.423383 0.750000 0.599072
O O18 0.445777 0.566914 0.636063
O O19 0.106489 0.004528 0.361009
#
# Coordination Sequence:
#
# PCOD9468010 Si02
#       8
#     8   8   8   8   8   8   8   8
#     4  10  23  40  63  95 138 177 218 270 328 399
#     4  11  24  48  72  93 127 177 232 288 338 392
#     4  10  21  38  63  93 132 172 219 274 335 401
#     4   9  18  37  62  91 126 172 215 262 327 391
#     4  10  23  41  62  95 132 177 224 273 334 400
#     4  10  22  40  66  95 127 168 220 275 333 394
#     4  12  25  40  66  98 130 172 227 271 345 393
#     4  12  26  42  66  98 136 178 226 279 334 405
#
# _framework density 19.753086
#
# number of rings (size 3 to 8) (size 9 to 14) (size 15 to 20)
#    0.000    1.500    1.250    3.000    3.500    3.000 
#    0.000    1.875    0.000    0.000    0.000    0.000 
#    0.000    0.000    0.000    0.000    0.000    0.000 
#
# Total GULP energy -357633.277843 kJ/mol
# GULP energy per Si atom -5588.019966 kJ/mol
# Density = 1.970813 g / cm^3
# Si number density = 19.753086 Si / 1000 Ang^3
#
#
#
# Elastic Constant Matrix: (Units=GPa)
#
#
# Indices 1 2 3 4 5 6 
#
# 1 65.0900 38.7107 25.3760 0.0000 0.0000 0.0000
# 2 38.7107 125.2855 40.2705 0.0000 0.0000 0.0000
# 3 25.3760 40.2705 68.0103 0.0000 0.0000 0.0000
# 4 0.0000 0.0000 0.0000 37.6385 0.0000 0.0000
# 5 0.0000 0.0000 0.0000 0.0000 27.0903 0.0000
# 6 0.0000 0.0000 0.0000 0.0000 0.0000 43.2174
#
#
#
# Elastic Compliance Matrix: (Units=1/GPa)
#
#
# Indices 1 2 3 4 5 6 
#
# 1 0.019963 -0.004661 -0.004689 0.000000 0.000000 0.000000
# 2 -0.004661 0.010946 -0.004742 0.000000 0.000000 0.000000
# 3 -0.004689 -0.004742 0.019261 0.000000 0.000000 0.000000
# 4 0.000000 0.000000 0.000000 0.026569 0.000000 0.000000
# 5 0.000000 0.000000 0.000000 0.000000 0.036914 0.000000
# 6 0.000000 0.000000 0.000000 0.000000 0.000000 0.023139
#
#
# Mechanical properties :
#
#
# Convention : Reuss Voigt Hill
#
# Bulk Modulus (GPa) = 45.48291 51.90003 48.69147
# Shear Modulus (GPa) = 29.01825 31.85782 30.43804
#
# Velocity S-wave (km/s) = 3.83698 4.02033 3.92972
# Velocity P-wave (km/s) = 6.53495 6.91969 6.73007
#
# Compressibility (1/GPa) = 0.02198628
#
# Stress axis : x y z
#
# Youngs Moduli (GPa) = 50.09158 91.35481 51.91779
#
# Poissons Ratio (x) = 0.42582 0.24343
# Poissons Ratio (y) = 0.23349 0.24621
# Poissons Ratio (z) = 0.23487 0.43324
#
# Static dielectric constant tensor:
#      x y z
#    x 1.694800 0.000000 0.000000 
#    y 0.000000 1.709880 0.000000 
#    z 0.000000 0.000000 1.688400 
# 
# From -- ./inp_files/9525.got.cif
#   From: 2010.05.17/outbox.ucp.g08.bks.cvg/sg62_5_cif.got.tgz:9525.got - 2010.06.11 16:29:25.
