data_PCOD9468827
_publ_section_title
;
Structure prediction by ZEFSAII (Michael W. Deem and Ramdas Pophale) SiO2 
 PCOD9468827
Probable space group: C M C M
;
_chemical_formula_sum "Si O2"
_cell_formula_units_Z 96
_cell_length_a 18.628977
_cell_length_b 21.271050
_cell_length_c 15.379658
_cell_angle_alpha 90.000000
_cell_angle_beta 90.000000
_cell_angle_gamma 90.000000
_cell_volume 6094.311000
_symmetry_space_group_name_H-M "C M C M"
_symmetry_group_IT_number 63
_symmetry_cell_setting 'orthorhombic'
loop_
_space_group_symop_operation_xyz
x,y,z
-x,-y,1/2+z
x,-y,-z
-x,y,1/2-z
-x,-y,-z
x,y,1/2-z
-x,y,z
x,-y,1/2+z
1/2+x,1/2+y,z
1/2-x,1/2-y,1/2+z
1/2+x,1/2-y,-z
1/2-x,1/2+y,1/2-z
1/2-x,1/2-y,-z
1/2+x,1/2+y,1/2-z
1/2-x,1/2+y,z
1/2+x,1/2-y,1/2+z
loop_
_atom_site_type_symbol
_atom_site_label
_atom_site_fract_x
_atom_site_fract_y
_atom_site_fract_z
Si Si1 0.080736 0.763785 0.145943
Si Si2 0.343352 0.366330 0.851730
Si Si3 0.500000 0.359258 0.649989
Si Si4 0.630968 0.593984 0.649731
Si Si5 0.000000 0.004563 0.604367
Si Si6 0.260447 0.570072 0.496244
Si Si7 0.283000 0.801648 0.935574
O O1 0.082691 0.754242 0.250000
O O2 0.097841 0.837292 0.130887
O O3 0.143285 0.723282 0.102942
O O4 0.000000 0.749690 0.115141
O O5 0.349517 0.383736 0.750000
O O6 0.421005 0.341702 0.884938
O O7 0.279828 0.315772 0.864949
O O8 0.316746 0.422399 0.915076
O O9 0.500000 0.338057 0.750000
O O10 0.500000 0.434874 0.642992
O O11 0.654231 0.592781 0.750000
O O12 0.569198 0.542924 0.634980
O O13 0.694852 0.582150 0.583204
O O14 0.000000 0.000000 0.500000
O O15 0.229849 0.500000 0.500000
O O16 0.209153 0.629883 0.480906
O O17 0.250000 0.750000 0.000000
#
# Coordination Sequence:
#
# PCOD9468827 Si02
#       7
#    16  16   8  16   8  16  16
#     4  10  19  34  55  78 103 135 180 227 275 325
#     4   9  19  33  53  73 105 143 175 212 256 308
#     4  10  18  30  44  70 104 140 176 201 235 304
#     4  11  20  32  48  73 108 144 178 215 259 313
#     4  12  22  28  44  70 110 152 177 213 251 308
#     4  10  21  34  50  75 105 139 177 219 259 320
#     4  10  20  36  52  73 109 137 176 215 267 318
#
# _framework density 15.752395999999999
#
# number of rings (size 3 to 8) (size 9 to 14) (size 15 to 20)
#    1.000    0.833    2.500    3.750    0.000    2.000 
#    4.500    0.000    0.000    0.500    0.000    0.000 
#    0.000    0.000    0.000    0.000    0.000    0.000 
#
# Total GULP energy -267301.340772 kJ/mol
# GULP energy per Si atom -5568.777933 kJ/mol
# Density = 1.571654 g / cm^3
# Si number density = 15.752396 Si / 1000 Ang^3
#
#
#
# Elastic Constant Matrix: (Units=GPa)
#
#
# Indices 1 2 3 4 5 6 
#
# 1 94.9428 52.0106 20.7594 0.0000 0.0000 0.0000
# 2 52.0106 80.1946 25.7115 0.0000 0.0000 0.0000
# 3 20.7594 25.7115 60.5027 0.0000 0.0000 0.0000
# 4 0.0000 0.0000 0.0000 20.7924 0.0000 0.0000
# 5 0.0000 0.0000 0.0000 0.0000 20.6435 0.0000
# 6 0.0000 0.0000 0.0000 0.0000 0.0000 20.7587
#
#
#
# Elastic Compliance Matrix: (Units=1/GPa)
#
#
# Indices 1 2 3 4 5 6 
#
# 1 0.016423 -0.010239 -0.001283 0.000000 0.000000 0.000000
# 2 -0.010239 0.020821 -0.005335 0.000000 0.000000 0.000000
# 3 -0.001283 -0.005335 0.019236 0.000000 0.000000 0.000000
# 4 0.000000 0.000000 0.000000 0.048094 0.000000 0.000000
# 5 0.000000 0.000000 0.000000 0.000000 0.048441 0.000000
# 6 0.000000 0.000000 0.000000 0.000000 0.000000 0.048173
#
#
# Mechanical properties :
#
#
# Convention : Reuss Voigt Hill
#
# Bulk Modulus (GPa) = 43.92956 48.06701 45.99829
# Shear Modulus (GPa) = 20.61933 21.58283 21.10108
#
# Velocity S-wave (km/s) = 3.62189 3.70554 3.66395
# Velocity P-wave (km/s) = 6.74083 6.99202 6.86758
#
# Compressibility (1/GPa) = 0.02276371
#
# Stress axis : x y z
#
# Youngs Moduli (GPa) = 60.89193 48.02861 51.98676
#
# Poissons Ratio (x) = 0.49179 0.06672
# Poissons Ratio (y) = 0.62350 0.27734
# Poissons Ratio (z) = 0.07815 0.25623
#
# Static dielectric constant tensor:
#      x y z
#    x 1.525200 0.000000 0.000000 
#    y 0.000000 1.525360 0.000000 
#    z 0.000000 0.000000 1.551990 
# 
# From -- ./inp_files/46011.got.cif
#   From: 2010.05.17/outbox.cif.g08.bks.cpg/sg63_24_cif.got.tgz:46011.got - 2010.06.03 15:47:04.
