data_PCOD9468170
_publ_section_title
;
Structure prediction by ZEFSAII (Michael W. Deem and Ramdas Pophale) SiO2 
 PCOD9468170
Probable space group: C M C M
;
_chemical_formula_sum "Si O2"
_cell_formula_units_Z 112
_cell_length_a 16.969657
_cell_length_b 21.655660
_cell_length_c 17.830573
_cell_angle_alpha 90.000000
_cell_angle_beta 90.000000
_cell_angle_gamma 90.000000
_cell_volume 6552.541622
_symmetry_space_group_name_H-M "C M C M"
_symmetry_group_IT_number 63
_symmetry_cell_setting 'orthorhombic'
loop_
_space_group_symop_operation_xyz
x,y,z
-x,-y,1/2+z
x,-y,-z
-x,y,1/2-z
-x,-y,-z
x,y,1/2-z
-x,y,z
x,-y,1/2+z
1/2+x,1/2+y,z
1/2-x,1/2-y,1/2+z
1/2+x,1/2-y,-z
1/2-x,1/2+y,1/2-z
1/2-x,1/2-y,-z
1/2+x,1/2+y,1/2-z
1/2-x,1/2+y,z
1/2+x,1/2-y,1/2+z
loop_
_atom_site_type_symbol
_atom_site_label
_atom_site_fract_x
_atom_site_fract_y
_atom_site_fract_z
Si Si1 0.638051 0.085594 0.535089
Si Si2 0.264544 0.898874 0.665847
Si Si3 0.823989 0.272221 0.446074
Si Si4 0.684928 0.432741 0.988219
Si Si5 0.697887 0.756579 0.837439
Si Si6 0.408416 0.315378 0.455754
Si Si7 0.587341 0.972739 0.620412
O O1 0.644478 0.159022 0.541316
O O2 0.729108 0.065222 0.527069
O O3 0.594743 0.063568 0.459332
O O4 0.600411 0.044908 0.600968
O O5 0.230325 0.897719 0.750000
O O6 0.205173 0.916371 0.598553
O O7 0.299304 0.830474 0.649257
O O8 0.338256 0.945703 0.664225
O O9 0.750000 0.250000 0.500000
O O10 0.783556 0.266598 0.365412
O O11 0.891773 0.225414 0.469857
O O12 0.648392 0.500000 0.000000
O O13 0.635284 0.379466 0.027695
O O14 0.685036 0.745549 0.750000
O O15 0.633146 0.721777 0.887740
O O16 0.500000 0.323393 0.441820
O O17 0.500000 0.962534 0.651713
#
# Coordination Sequence:
#
# PCOD9468170 Si02
#       7
#    16  16  16  16  16  16  16
#     4  10  16  28  52  75  99 142 182 224 253 315
#     4  10  20  34  56  82 108 145 186 226 279 336
#     4  10  17  32  54  77 104 141 190 224 259 321
#     4  11  18  35  58  78 105 142 194 234 265 330
#     4  10  20  35  58  84 112 145 181 227 279 337
#     4  11  22  35  55  84 114 143 180 236 288 325
#     4  10  19  30  46  78 113 140 174 220 278 325
#
# _framework density 17.092604000000001
#
# number of rings (size 3 to 8) (size 9 to 14) (size 15 to 20)
#    0.000    1.714    7.143    3.429    0.000    3.714 
#    0.000    4.286    0.000    1.714    0.000    0.000 
#    0.000    0.000    0.000    0.000    0.000    0.000 
#
# Total GULP energy -311933.615760 kJ/mol
# GULP energy per Si atom -5570.243139 kJ/mol
# Density = 1.705370 g / cm^3
# Si number density = 17.092604 Si / 1000 Ang^3
#
#
#
# Elastic Constant Matrix: (Units=GPa)
#
#
# Indices 1 2 3 4 5 6 
#
# 1 63.3127 33.0963 43.0217 0.0000 0.0000 0.0000
# 2 33.0963 131.4254 28.7786 0.0000 0.0000 0.0000
# 3 43.0217 28.7786 78.8977 0.0000 0.0000 0.0000
# 4 0.0000 0.0000 0.0000 18.0712 0.0000 0.0000
# 5 0.0000 0.0000 0.0000 0.0000 7.9452 0.0000
# 6 0.0000 0.0000 0.0000 0.0000 0.0000 19.3605
#
#
#
# Elastic Compliance Matrix: (Units=1/GPa)
#
#
# Indices 1 2 3 4 5 6 
#
# 1 0.026775 -0.003853 -0.013194 0.000000 0.000000 0.000000
# 2 -0.003853 0.008824 -0.001117 0.000000 0.000000 0.000000
# 3 -0.013194 -0.001117 0.020277 0.000000 0.000000 0.000000
# 4 0.000000 0.000000 0.000000 0.055337 0.000000 0.000000
# 5 0.000000 0.000000 0.000000 0.000000 0.125862 0.000000
# 6 0.000000 0.000000 0.000000 0.000000 0.000000 0.051652
#
#
# Mechanical properties :
#
#
# Convention : Reuss Voigt Hill
#
# Bulk Modulus (GPa) = 51.16309 53.71433 52.43871
# Shear Modulus (GPa) = 15.07976 20.32467 17.70221
#
# Velocity S-wave (km/s) = 2.97347 3.45206 3.22167
# Velocity P-wave (km/s) = 6.46425 6.88351 6.67717
#
# Compressibility (1/GPa) = 0.01954534
#
# Stress axis : x y z
#
# Youngs Moduli (GPa) = 37.34892 113.32806 49.31731
#
# Poissons Ratio (x) = 0.43669 0.65070
# Poissons Ratio (y) = 0.14392 0.05511
# Poissons Ratio (z) = 0.49279 0.12664
#
# Static dielectric constant tensor:
#      x y z
#    x 1.575360 0.000000 0.000000 
#    y 0.000000 1.636180 0.000000 
#    z 0.000000 0.000000 1.617590 
# 
# From -- ./inp_files/46116.got.cif
#   From: 2010.05.17/outbox.cif.g08.bks.cpg/sg63_24_cif.got.tgz:46116.got - 2010.06.03 15:47:04.
