data_PCOD9468614
_publ_section_title
;
Structure prediction by ZEFSAII (Michael W. Deem and Ramdas Pophale) SiO2 
 PCOD9468614
Probable space group: C M C M
;
_chemical_formula_sum "Si O2"
_cell_formula_units_Z 80
_cell_length_a 7.414414
_cell_length_b 29.019496
_cell_length_c 18.141453
_cell_angle_alpha 90.000000
_cell_angle_beta 90.000000
_cell_angle_gamma 90.000000
_cell_volume 3903.361423
_symmetry_space_group_name_H-M "C M C M"
_symmetry_group_IT_number 63
_symmetry_cell_setting 'orthorhombic'
loop_
_space_group_symop_operation_xyz
x,y,z
-x,-y,1/2+z
x,-y,-z
-x,y,1/2-z
-x,-y,-z
x,y,1/2-z
-x,y,z
x,-y,1/2+z
1/2+x,1/2+y,z
1/2-x,1/2-y,1/2+z
1/2+x,1/2-y,-z
1/2-x,1/2+y,1/2-z
1/2-x,1/2-y,-z
1/2+x,1/2+y,1/2-z
1/2-x,1/2+y,z
1/2+x,1/2-y,1/2+z
loop_
_atom_site_type_symbol
_atom_site_label
_atom_site_fract_x
_atom_site_fract_y
_atom_site_fract_z
Si Si1 0.705017 0.138823 0.564602
Si Si2 0.721418 0.217443 0.834635
Si Si3 0.290497 0.307214 0.580100
Si Si4 0.220873 0.551115 0.478589
Si Si5 0.281939 0.102033 0.167514
O O1 0.500000 0.128070 0.586596
O O2 0.784281 0.169416 0.629878
O O3 0.701163 0.172355 0.493075
O O4 0.784521 0.090999 0.534844
O O5 0.775375 0.223366 0.750000
O O6 0.500000 0.217815 0.836292
O O7 0.780694 0.259955 0.885804
O O8 0.500000 0.300634 0.561354
O O9 0.275254 0.347139 0.641502
O O10 0.277718 0.500000 0.500000
O O11 0.276416 0.567137 0.396817
O O12 0.000000 0.552102 0.479567
O O13 0.219558 0.091635 0.250000
O O14 0.500000 0.101746 0.167766
#
# Coordination Sequence:
#
# PCOD9468614 Si02
#       5
#    16  16  16  16  16
#     4   9  17  30  47  64  86 117 149 181 216 258
#     4   9  17  28  42  63  90 117 145 178 216 257
#     4  10  18  28  45  66  89 116 145 179 217 258
#     4   8  14  26  44  64  85 110 141 177 216 255
#     4   9  17  29  45  66  91 116 144 181 222 261
#
# _framework density 20.495155
#
# number of rings (size 3 to 8) (size 9 to 14) (size 15 to 20)
#    0.000    3.000    0.000    3.000    0.000    1.200 
#    0.000    2.000    0.000   18.600    0.000    0.000 
#    0.000    0.000    0.000    0.000    0.000    0.000 
#
# Total GULP energy -223167.313284 kJ/mol
# GULP energy per Si atom -5579.182832 kJ/mol
# Density = 2.044851 g / cm^3
# Si number density = 20.495155 Si / 1000 Ang^3
#
#
#
# Elastic Constant Matrix: (Units=GPa)
#
#
# Indices 1 2 3 4 5 6 
#
# 1 69.1181 -3.9071 -8.6713 0.0000 0.0000 0.0000
# 2 -3.9071 140.2575 41.7779 0.0000 0.0000 0.0000
# 3 -8.6713 41.7779 29.9641 0.0000 0.0000 0.0000
# 4 0.0000 0.0000 0.0000 15.7040 0.0000 0.0000
# 5 0.0000 0.0000 0.0000 0.0000 3.7051 0.0000
# 6 0.0000 0.0000 0.0000 0.0000 0.0000 5.3415
#
#
#
# Elastic Compliance Matrix: (Units=1/GPa)
#
#
# Indices 1 2 3 4 5 6 
#
# 1 0.015199 -0.001517 0.006513 0.000000 0.000000 0.000000
# 2 -0.001517 0.012345 -0.017651 0.000000 0.000000 0.000000
# 3 0.006513 -0.017651 0.059869 0.000000 0.000000 0.000000
# 4 0.000000 0.000000 0.000000 0.063678 0.000000 0.000000
# 5 0.000000 0.000000 0.000000 0.000000 0.269896 0.000000
# 6 0.000000 0.000000 0.000000 0.000000 0.000000 0.187214
#
#
# Mechanical properties :
#
#
# Convention : Reuss Voigt Hill
#
# Bulk Modulus (GPa) = 16.10207 33.08206 24.59206
# Shear Modulus (GPa) = 7.64277 18.95947 13.30112
#
# Velocity S-wave (km/s) = 1.93317 3.04480 2.55029
# Velocity P-wave (km/s) = 3.58559 5.34205 4.54939
#
# Compressibility (1/GPa) = 0.06210381
#
# Stress axis : x y z
#
# Youngs Moduli (GPa) = 65.79213 81.00269 16.70311
#
# Poissons Ratio (x) = 0.12285 -0.10879
# Poissons Ratio (y) = 0.09978 0.29484
# Poissons Ratio (z) = -0.42852 1.42982
#
# Static dielectric constant tensor:
#      x y z
#    x 1.785590 0.000000 0.000000 
#    y 0.000000 1.704730 0.000000 
#    z 0.000000 0.000000 1.712180 
# 
# From -- ./inp_files/40470.got.cif
#   From: 2010.05.17/outbox.cif.g08.bks.cpg/sg63_21_cif.got.tgz:40470.got - 2010.06.03 15:47:04.
