data_PCOD9468113
_publ_section_title
;
Structure prediction by ZEFSAII (Michael W. Deem and Ramdas Pophale) SiO2 
 PCOD9468113
Probable space group: C M C M
;
_chemical_formula_sum "Si O2"
_cell_formula_units_Z 52
_cell_length_a 28.095379
_cell_length_b 13.391287
_cell_length_c 5.469915
_cell_angle_alpha 90.000000
_cell_angle_beta 90.000000
_cell_angle_gamma 90.000000
_cell_volume 2057.964081
_symmetry_space_group_name_H-M "C M C M"
_symmetry_group_IT_number 63
_symmetry_cell_setting 'orthorhombic'
loop_
_space_group_symop_operation_xyz
x,y,z
-x,-y,1/2+z
x,-y,-z
-x,y,1/2-z
-x,-y,-z
x,y,1/2-z
-x,y,z
x,-y,1/2+z
1/2+x,1/2+y,z
1/2-x,1/2-y,1/2+z
1/2+x,1/2-y,-z
1/2-x,1/2+y,1/2-z
1/2-x,1/2-y,-z
1/2+x,1/2+y,1/2-z
1/2-x,1/2+y,z
1/2+x,1/2-y,1/2+z
loop_
_atom_site_type_symbol
_atom_site_label
_atom_site_fract_x
_atom_site_fract_y
_atom_site_fract_z
Si Si1 0.339565 0.166801 0.750000
Si Si2 0.840110 0.874997 0.250000
Si Si3 0.500000 0.065240 0.750000
Si Si4 0.824587 0.634936 0.250000
Si Si5 0.287078 0.357387 0.750000
Si Si6 0.063628 0.242791 0.250000
Si Si7 0.948747 0.122590 0.750000
O O1 0.343788 0.103388 0.509039
O O2 0.291903 0.234966 0.750000
O O3 0.380030 0.250026 0.750000
O O4 0.839795 0.753020 0.250000
O O5 0.811996 0.895305 0.501869
O O6 0.894233 0.918910 0.250000
O O7 0.456500 0.144773 0.750000
O O8 0.500000 0.000000 0.500000
O O9 0.768331 0.618352 0.250000
O O10 0.050054 0.187284 0.500262
O O11 0.000000 0.064495 0.750000
#
# Coordination Sequence:
#
# PCOD9468113 Si02
#       7
#     8   8   4   8   8   8   8
#     4  10  16  26  38  57  72  94 116 129 168 214
#     4  10  16  25  34  52  77  90 122 137 162 209
#     4  12  26  40  50  62  70  88 122 168 226 266
#     4  10  16  23  38  55  82  98 112 132 158 208
#     4  10  16  24  36  56  80 100 112 133 160 203
#     4  12  20  34  48  56  73  88 111 156 192 248
#     4  12  19  30  44  60  68  93 119 152 188 224
#
# _framework density 25.267693000000001
#
# number of rings (size 3 to 8) (size 9 to 14) (size 15 to 20)
#    0.000    1.231    7.692    5.538    0.000    0.000 
#    0.000    0.000    0.000    0.000    0.000    0.000 
#    0.000    0.000    0.000    0.000    0.000    0.000 
#
# Total GULP energy -145187.577081 kJ/mol
# GULP energy per Si atom -5584.137580 kJ/mol
# Density = 2.521018 g / cm^3
# Si number density = 25.267693 Si / 1000 Ang^3
#
#
#
# Elastic Constant Matrix: (Units=GPa)
#
#
# Indices 1 2 3 4 5 6 
#
# 1 133.1229 -39.3528 38.3817 0.0000 0.0000 0.0000
# 2 -39.3528 76.3044 15.9807 0.0000 0.0000 0.0000
# 3 38.3817 15.9807 299.6128 0.0000 0.0000 0.0000
# 4 0.0000 0.0000 0.0000 -17.9844 0.0000 0.0000
# 5 0.0000 0.0000 0.0000 0.0000 71.2462 0.0000
# 6 0.0000 0.0000 0.0000 0.0000 0.0000 -31.2982
#
#
#
# Elastic Compliance Matrix: (Units=1/GPa)
#
#
# Indices 1 2 3 4 5 6 
#
# 1 0.009480 0.005201 -0.001492 0.000000 0.000000 0.000000
# 2 0.005201 0.016107 -0.001525 0.000000 0.000000 0.000000
# 3 -0.001492 -0.001525 0.003610 0.000000 0.000000 0.000000
# 4 0.000000 0.000000 0.000000 -0.055604 0.000000 0.000000
# 5 0.000000 0.000000 0.000000 0.000000 0.014036 0.000000
# 6 0.000000 0.000000 0.000000 0.000000 0.000000 -0.031951
#
#
# Mechanical properties :
#
#
# Convention : Reuss Voigt Hill
#
# Bulk Modulus (GPa) = 29.79265 59.89548 44.84407
# Shear Modulus (GPa) = -133.32840 37.32809 -48.00016
#
# Velocity S-wave (km/s) = -7.27193 3.84774 -4.36324
# Velocity P-wave (km/s) = 7.66104 6.59515 2.75640
#
# Compressibility (1/GPa) = 0.03356532
#
# Stress axis : x y z
#
# Youngs Moduli (GPa) = 105.49015 62.08318 276.99970
#
# Poissons Ratio (x) = -0.32292 0.41323
# Poissons Ratio (y) = -0.54869 0.42255
# Poissons Ratio (z) = 0.15737 0.09471
#
# Static dielectric constant tensor:
#      x y z
#    x 2.078540 0.000000 0.000000 
#    y 0.000000 2.175870 0.000000 
#    z 0.000000 0.000000 2.053110 
# 
# From -- ./inp_files/1235.got.cif
#   From: 2010.05.17/outbox.cif.g08.bks.cpg/sg63_1_cif.got.tgz:1235.got - 2010.06.03 15:47:04.
