data_PCOD9468306
_publ_section_title
;
Structure prediction by ZEFSAII (Michael W. Deem and Ramdas Pophale) SiO2 
 PCOD9468306
Probable space group: C M C M
;
_chemical_formula_sum "Si O2"
_cell_formula_units_Z 72
_cell_length_a 10.189302
_cell_length_b 16.193033
_cell_length_c 16.903611
_cell_angle_alpha 90.000000
_cell_angle_beta 90.000000
_cell_angle_gamma 90.000000
_cell_volume 2789.023189
_symmetry_space_group_name_H-M "C M C M"
_symmetry_group_IT_number 63
_symmetry_cell_setting 'orthorhombic'
loop_
_space_group_symop_operation_xyz
x,y,z
-x,-y,1/2+z
x,-y,-z
-x,y,1/2-z
-x,-y,-z
x,y,1/2-z
-x,y,z
x,-y,1/2+z
1/2+x,1/2+y,z
1/2-x,1/2-y,1/2+z
1/2+x,1/2-y,-z
1/2-x,1/2+y,1/2-z
1/2-x,1/2-y,-z
1/2+x,1/2+y,1/2-z
1/2-x,1/2+y,z
1/2+x,1/2-y,1/2+z
loop_
_atom_site_type_symbol
_atom_site_label
_atom_site_fract_x
_atom_site_fract_y
_atom_site_fract_z
Si Si1 0.500000 0.778472 0.836068
Si Si2 0.303979 0.679812 0.162969
Si Si3 0.500000 0.000045 0.162686
Si Si4 0.500000 0.862487 0.972818
Si Si5 0.794933 0.098265 0.503419
Si Si6 0.268083 0.131724 0.838071
O O1 0.500000 0.735700 0.750000
O O2 0.644824 0.821539 0.833730
O O3 0.500000 0.772622 0.932135
O O4 0.348851 0.648518 0.250000
O O5 0.341968 0.635893 0.080451
O O6 0.334318 0.777461 0.158280
O O7 0.500000 0.039442 0.250000
O O8 0.372894 0.942053 0.158401
O O9 0.500000 0.061549 0.089959
O O10 0.358804 0.874200 0.011483
O O11 0.837501 0.125061 0.591615
O O12 0.807852 0.000000 0.500000
O O13 0.211089 0.125234 0.750000
#
# Coordination Sequence:
#
# PCOD9468306 Si02
#       6
#     8  16   8   8  16  16
#     4   8  15  28  48  69  91 121 153 196 239 278
#     4   9  19  33  48  69  97 126 162 198 240 287
#     4  10  18  29  48  72 104 133 155 189 240 294
#     4  10  17  28  44  72 104 123 151 188 241 297
#     4  11  19  29  48  69  98 128 156 195 239 288
#     4  10  20  32  45  68 100 132 161 192 232 290
#
# _framework density 25.815491999999999
#
# number of rings (size 3 to 8) (size 9 to 14) (size 15 to 20)
#    0.000    2.222    2.222    2.000    0.000    1.778 
#    0.000    0.000    0.000    0.000    0.000    3.111 
#    0.000    8.889    0.000    0.000    0.000    0.000 
#
# Total GULP energy -200411.748690 kJ/mol
# GULP energy per Si atom -5566.993019 kJ/mol
# Density = 2.575673 g / cm^3
# Si number density = 25.815492 Si / 1000 Ang^3
#
#
#
# Elastic Constant Matrix: (Units=GPa)
#
#
# Indices 1 2 3 4 5 6 
#
# 1 94.8011 15.1115 0.1861 0.0000 0.0000 0.0000
# 2 15.1115 88.7175 39.6709 0.0000 0.0000 0.0000
# 3 0.1861 39.6709 213.0267 0.0000 0.0000 0.0000
# 4 0.0000 0.0000 0.0000 31.7111 0.0000 0.0000
# 5 0.0000 0.0000 0.0000 0.0000 -10.0800 0.0000
# 6 0.0000 0.0000 0.0000 0.0000 0.0000 23.3951
#
#
#
# Elastic Compliance Matrix: (Units=1/GPa)
#
#
# Indices 1 2 3 4 5 6 
#
# 1 0.010869 -0.002015 0.000366 0.000000 0.000000 0.000000
# 2 -0.002015 0.012669 -0.002358 0.000000 0.000000 0.000000
# 3 0.000366 -0.002358 0.005133 0.000000 0.000000 0.000000
# 4 0.000000 0.000000 0.000000 0.031535 0.000000 0.000000
# 5 0.000000 0.000000 0.000000 0.000000 -0.099206 0.000000
# 6 0.000000 0.000000 0.000000 0.000000 0.000000 0.042744
#
#
# Mechanical properties :
#
#
# Convention : Reuss Voigt Hill
#
# Bulk Modulus (GPa) = 48.40840 56.27582 52.34211
# Shear Modulus (GPa) = 268.19735 31.77701 149.98718
#
# Velocity S-wave (km/s) = 10.20371 3.51226 7.63058
# Velocity P-wave (km/s) = 12.55441 6.18826 9.89717
#
# Compressibility (1/GPa) = 0.02065757
#
# Stress axis : x y z
#
# Youngs Moduli (GPa) = 92.00602 78.93202 194.81923
#
# Poissons Ratio (x) = 0.15904 -0.07125
# Poissons Ratio (y) = 0.18538 0.45930
# Poissons Ratio (z) = -0.03365 0.18609
#
# Static dielectric constant tensor:
#      x y z
#    x 2.112090 0.000000 0.000000 
#    y 0.000000 2.120560 0.000000 
#    z 0.000000 0.000000 2.277730 
# 
# From -- ./inp_files/41924.got.cif
#   From: 2010.05.17/outbox.cif.g08.bks.cpg/sg63_21_cif.got.tgz:41924.got - 2010.06.03 15:47:04.
