data_PCOD9468791
_publ_section_title
;
Structure prediction by ZEFSAII (Michael W. Deem and Ramdas Pophale) SiO2 
 PCOD9468791
Probable space group: C M C M
;
_chemical_formula_sum "Si O2"
_cell_formula_units_Z 88
_cell_length_a 9.069691
_cell_length_b 24.805170
_cell_length_c 21.148645
_cell_angle_alpha 90.000000
_cell_angle_beta 90.000000
_cell_angle_gamma 90.000000
_cell_volume 4757.921212
_symmetry_space_group_name_H-M "C M C M"
_symmetry_group_IT_number 63
_symmetry_cell_setting 'orthorhombic'
loop_
_space_group_symop_operation_xyz
x,y,z
-x,-y,1/2+z
x,-y,-z
-x,y,1/2-z
-x,-y,-z
x,y,1/2-z
-x,y,z
x,-y,1/2+z
1/2+x,1/2+y,z
1/2-x,1/2-y,1/2+z
1/2+x,1/2-y,-z
1/2-x,1/2+y,1/2-z
1/2-x,1/2-y,-z
1/2+x,1/2+y,1/2-z
1/2-x,1/2+y,z
1/2+x,1/2-y,1/2+z
loop_
_atom_site_type_symbol
_atom_site_label
_atom_site_fract_x
_atom_site_fract_y
_atom_site_fract_z
Si Si1 0.164149 0.370573 0.750000
Si Si2 0.677566 0.135314 0.389495
Si Si3 0.664326 0.368644 0.250000
Si Si4 0.834169 0.751860 0.608246
Si Si5 0.177214 0.139526 0.611409
Si Si6 0.675273 0.562964 0.006352
Si Si7 0.250911 0.748849 0.250000
O O1 0.232131 0.381750 0.681262
O O2 0.157203 0.305418 0.750000
O O3 0.000000 0.394248 0.750000
O O4 0.500000 0.139701 0.387142
O O5 0.745329 0.193711 0.407358
O O6 0.731907 0.091926 0.439479
O O7 0.500000 0.392466 0.250000
O O8 0.732510 0.379659 0.318939
O O9 0.658617 0.303472 0.250000
O O10 0.751693 0.696167 0.592145
O O11 0.839405 0.751400 0.684922
O O12 0.000000 0.753485 0.582407
O O13 0.203403 0.094722 0.558795
O O14 0.000000 0.148216 0.617097
O O15 0.500000 0.568306 0.020420
O O16 0.709351 0.500000 0.000000
#
# Coordination Sequence:
#
# PCOD9468791 Si02
#       7
#     8  16   8  16  16  16   8
#     4   8  15  29  50  77 106 135 170 211 252 300
#     4  10  20  35  56  80 107 140 176 212 255 310
#     4   8  13  25  48  75 100 131 170 207 248 304
#     4  10  18  29  49  79 112 139 167 207 256 308
#     4   9  18  33  53  76 104 137 172 210 255 310
#     4  10  22  40  57  74 101 137 177 223 270 311
#     4   8  14  24  42  72 109 142 165 196 249 308
#
# _framework density 18.495473
#
# number of rings (size 3 to 8) (size 9 to 14) (size 15 to 20)
#    0.000    2.727    0.000    1.636    0.000    6.182 
#    0.000    2.273    0.000    2.182    0.000    2.545 
#    0.000    0.000    0.000    0.000    0.000    0.000 
#
# Total GULP energy -245017.567202 kJ/mol
# GULP energy per Si atom -5568.581073 kJ/mol
# Density = 1.845338 g / cm^3
# Si number density = 18.495473 Si / 1000 Ang^3
#
#
#
# Elastic Constant Matrix: (Units=GPa)
#
#
# Indices 1 2 3 4 5 6 
#
# 1 64.3482 47.0636 37.5203 0.0000 0.0000 0.0000
# 2 47.0636 110.1755 63.2621 0.0000 0.0000 0.0000
# 3 37.5203 63.2621 107.3511 0.0000 0.0000 0.0000
# 4 0.0000 0.0000 0.0000 -193.5400 0.0000 0.0000
# 5 0.0000 0.0000 0.0000 0.0000 5.6126 0.0000
# 6 0.0000 0.0000 0.0000 0.0000 0.0000 8.5400
#
#
#
# Elastic Compliance Matrix: (Units=1/GPa)
#
#
# Indices 1 2 3 4 5 6 
#
# 1 0.023423 -0.008018 -0.003462 0.000000 0.000000 0.000000
# 2 -0.008018 0.016463 -0.006899 0.000000 0.000000 0.000000
# 3 -0.003462 -0.006899 0.014591 0.000000 0.000000 0.000000
# 4 0.000000 0.000000 0.000000 -0.005167 0.000000 0.000000
# 5 0.000000 0.000000 0.000000 0.000000 0.178170 0.000000
# 6 0.000000 0.000000 0.000000 0.000000 0.000000 0.117096
#
#
# Mechanical properties :
#
#
# Convention : Reuss Voigt Hill
#
# Bulk Modulus (GPa) = 56.43600 64.17409 60.30504
# Shear Modulus (GPa) = 12.91189 -26.94222 -7.01516
#
# Velocity S-wave (km/s) = 2.64504 -3.82080 -1.94965
# Velocity P-wave (km/s) = 6.31728 3.91252 5.25432
#
# Compressibility (1/GPa) = 0.01771919
#
# Stress axis : x y z
#
# Youngs Moduli (GPa) = 42.69279 60.74219 68.53615
#
# Poissons Ratio (x) = 0.48703 0.23724
# Poissons Ratio (y) = 0.34231 0.47285
# Poissons Ratio (z) = 0.14778 0.41908
#
# Static dielectric constant tensor:
#      x y z
#    x 1.659890 0.000000 0.000000 
#    y 0.000000 1.590660 0.000000 
#    z 0.000000 0.000000 1.699820 
# 
# From -- ./inp_files/51109.got.cif
#   From: 2010.05.17/outbox.cif.g08.bks.cpg/sg63_26_cif.got.tgz:51109.got - 2010.06.03 15:47:04.
