data_PCOD9468995
_publ_section_title
;
Structure prediction by ZEFSAII (Michael W. Deem and Ramdas Pophale) SiO2 
 PCOD9468995
Probable space group: C M C M
;
_chemical_formula_sum "Si O2"
_cell_formula_units_Z 68
_cell_length_a 12.452020
_cell_length_b 20.116503
_cell_length_c 13.195484
_cell_angle_alpha 90.000000
_cell_angle_beta 90.000000
_cell_angle_gamma 90.000000
_cell_volume 3305.351272
_symmetry_space_group_name_H-M "C M C M"
_symmetry_group_IT_number 63
_symmetry_cell_setting 'orthorhombic'
loop_
_space_group_symop_operation_xyz
x,y,z
-x,-y,1/2+z
x,-y,-z
-x,y,1/2-z
-x,-y,-z
x,y,1/2-z
-x,y,z
x,-y,1/2+z
1/2+x,1/2+y,z
1/2-x,1/2-y,1/2+z
1/2+x,1/2-y,-z
1/2-x,1/2+y,1/2-z
1/2-x,1/2-y,-z
1/2+x,1/2+y,1/2-z
1/2-x,1/2+y,z
1/2+x,1/2-y,1/2+z
loop_
_atom_site_type_symbol
_atom_site_label
_atom_site_fract_x
_atom_site_fract_y
_atom_site_fract_z
Si Si1 0.500000 0.148858 0.637807
Si Si2 0.000000 0.324564 0.596338
Si Si3 0.374077 0.353170 0.750000
Si Si4 0.693674 0.936189 0.436408
Si Si5 0.264751 0.810092 0.924609
Si Si6 0.500000 0.942830 0.750000
Si Si7 0.746807 0.007665 0.250000
O O1 0.500000 0.181279 0.750000
O O2 0.500000 0.183723 0.526713
O O3 0.602779 0.101596 0.626908
O O4 0.118050 0.299890 0.626921
O O5 0.000000 0.397798 0.647536
O O6 0.500000 0.364061 0.750000
O O7 0.331716 0.313072 0.653555
O O8 0.308208 0.422527 0.750000
O O9 0.733560 0.880294 0.514890
O O10 0.653781 0.000000 0.500000
O O11 0.772242 0.966621 0.351854
O O12 0.250000 0.750000 0.000000
O O13 0.382897 0.977680 0.750000
#
# Coordination Sequence:
#
# PCOD9468995 Si02
#       7
#     8   8   8  16  16   4   8
#     4  10  18  30  52 100 138 165 197 274 346 394
#     4  10  20  39  68  92 136 180 223 270 340 409
#     4  12  26  47  70  95 134 179 229 279 340 403
#     4  11  20  36  61  92 135 170 224 273 328 398
#     4  11  25  44  66 102 135 181 224 277 340 405
#     4  12  18  38  70 100 140 168 220 278 350 424
#     4  12  20  37  66 103 129 171 220 284 343 395
#
# _framework density 20.572700999999999
#
# number of rings (size 3 to 8) (size 9 to 14) (size 15 to 20)
#    0.000    0.941    5.882    2.471    1.647    0.941 
#    2.118    2.353    0.000    0.000    0.000    0.000 
#    0.000    0.000    0.000    0.000    0.000    0.000 
#
# Total GULP energy -189614.048988 kJ/mol
# GULP energy per Si atom -5576.883794 kJ/mol
# Density = 2.052588 g / cm^3
# Si number density = 20.572701 Si / 1000 Ang^3
#
#
#
# Elastic Constant Matrix: (Units=GPa)
#
#
# Indices 1 2 3 4 5 6 
#
# 1 103.7096 24.2146 29.8901 0.0000 0.0000 0.0000
# 2 24.2146 66.2625 20.7588 0.0000 0.0000 0.0000
# 3 29.8901 20.7588 120.0454 0.0000 0.0000 0.0000
# 4 0.0000 0.0000 0.0000 27.9161 0.0000 0.0000
# 5 0.0000 0.0000 0.0000 0.0000 26.5104 0.0000
# 6 0.0000 0.0000 0.0000 0.0000 0.0000 10.0866
#
#
#
# Elastic Compliance Matrix: (Units=1/GPa)
#
#
# Indices 1 2 3 4 5 6 
#
# 1 0.011052 -0.003359 -0.002171 0.000000 0.000000 0.000000
# 2 -0.003359 0.016977 -0.002099 0.000000 0.000000 0.000000
# 3 -0.002171 -0.002099 0.009234 0.000000 0.000000 0.000000
# 4 0.000000 0.000000 0.000000 0.035822 0.000000 0.000000
# 5 0.000000 0.000000 0.000000 0.000000 0.037721 0.000000
# 6 0.000000 0.000000 0.000000 0.000000 0.000000 0.099142
#
#
# Mechanical properties :
#
#
# Convention : Reuss Voigt Hill
#
# Bulk Modulus (GPa) = 45.44575 48.86048 47.15311
# Shear Modulus (GPa) = 21.50167 27.24620 24.37393
#
# Velocity S-wave (km/s) = 3.23639 3.64316 3.44578
# Velocity P-wave (km/s) = 6.00865 6.44194 6.22906
#
# Compressibility (1/GPa) = 0.02200426
#
# Stress axis : x y z
#
# Youngs Moduli (GPa) = 90.47933 58.90466 108.29776
#
# Poissons Ratio (x) = 0.19784 0.23512
# Poissons Ratio (y) = 0.30389 0.22736
# Poissons Ratio (z) = 0.19644 0.12366
#
# Static dielectric constant tensor:
#      x y z
#    x 1.742760 0.000000 0.000000 
#    y 0.000000 1.730010 0.000000 
#    z 0.000000 0.000000 1.807240 
# 
# From -- ./inp_files/29505.got.cif
#   From: 2010.05.17/outbox.cif.g08.bks.cpg/sg63_15_cif.got.tgz:29505.got - 2010.06.03 15:47:04.
