data_PCOD9468978
_publ_section_title
;
Structure prediction by ZEFSAII (Michael W. Deem and Ramdas Pophale) SiO2 
 PCOD9468978
Probable space group: C M C M
;
_chemical_formula_sum "Si O2"
_cell_formula_units_Z 80
_cell_length_a 24.374006
_cell_length_b 20.052246
_cell_length_c 10.189965
_cell_angle_alpha 90.000000
_cell_angle_beta 90.000000
_cell_angle_gamma 90.000000
_cell_volume 4980.381714
_symmetry_space_group_name_H-M "C M C M"
_symmetry_group_IT_number 63
_symmetry_cell_setting 'orthorhombic'
loop_
_space_group_symop_operation_xyz
x,y,z
-x,-y,1/2+z
x,-y,-z
-x,y,1/2-z
-x,-y,-z
x,y,1/2-z
-x,y,z
x,-y,1/2+z
1/2+x,1/2+y,z
1/2-x,1/2-y,1/2+z
1/2+x,1/2-y,-z
1/2-x,1/2+y,1/2-z
1/2-x,1/2-y,-z
1/2+x,1/2+y,1/2-z
1/2-x,1/2+y,z
1/2+x,1/2-y,1/2+z
loop_
_atom_site_type_symbol
_atom_site_label
_atom_site_fract_x
_atom_site_fract_y
_atom_site_fract_z
Si Si1 0.677532 0.058813 0.750000
Si Si2 0.221844 0.649156 0.979315
Si Si3 0.062230 0.741811 0.974160
Si Si4 0.438012 0.830942 0.750000
Si Si5 0.674883 0.705686 0.096744
Si Si6 0.062295 0.370131 0.250000
Si Si7 0.328384 0.901741 0.750000
O O1 0.705546 0.092455 0.876703
O O2 0.613034 0.079397 0.750000
O O3 0.683827 0.979852 0.750000
O O4 0.197069 0.718717 0.925531
O O5 0.286306 0.660401 0.006253
O O6 0.195596 0.632568 0.120003
O O7 0.110977 0.792072 0.940133
O O8 0.067540 0.678899 0.875276
O O9 0.000000 0.767653 0.958380
O O10 0.069087 0.714009 0.120742
O O11 0.500000 0.857234 0.750000
O O12 0.393241 0.888368 0.750000
O O13 0.681458 0.688863 0.250000
O O14 0.000000 0.398133 0.250000
#
# Coordination Sequence:
#
# PCOD9468978 Si02
#       7
#     8  16  16   8  16   8   8
#     4  12  22  37  50  71 104 138 184 218 250 305
#     4  11  22  34  50  78  97 132 176 211 270 301
#     4  10  18  30  51  74 102 132 164 210 261 303
#     4  10  20  32  45  72 106 136 178 215 247 290
#     4  11  19  33  56  74 103 127 170 220 259 329
#     4  10  18  32  49  68  96 134 180 215 243 290
#     4  12  22  35  52  69 104 142 180 216 248 299
#
# _framework density 16.063026000000001
#
# number of rings (size 3 to 8) (size 9 to 14) (size 15 to 20)
#    0.000    1.200    7.000    0.600    0.000    1.200 
#    0.000    0.000    0.000    6.000    0.000    0.000 
#    0.000    4.800    0.000    0.000    0.000    0.000 
#
# Total GULP energy -223222.343107 kJ/mol
# GULP energy per Si atom -5580.558578 kJ/mol
# Density = 1.602647 g / cm^3
# Si number density = 16.063026 Si / 1000 Ang^3
#
#
#
# Elastic Constant Matrix: (Units=GPa)
#
#
# Indices 1 2 3 4 5 6 
#
# 1 108.1832 17.5111 5.8988 0.0000 0.0000 0.0000
# 2 17.5111 19.0092 -6.8857 0.0000 0.0000 0.0000
# 3 5.8988 -6.8857 83.4488 0.0000 0.0000 0.0000
# 4 0.0000 0.0000 0.0000 5.3067 0.0000 0.0000
# 5 0.0000 0.0000 0.0000 0.0000 29.4625 0.0000
# 6 0.0000 0.0000 0.0000 0.0000 0.0000 14.5612
#
#
#
# Elastic Compliance Matrix: (Units=1/GPa)
#
#
# Indices 1 2 3 4 5 6 
#
# 1 0.011086 -0.010820 -0.001676 0.000000 0.000000 0.000000
# 2 -0.010820 0.064787 0.006111 0.000000 0.000000 0.000000
# 3 -0.001676 0.006111 0.012606 0.000000 0.000000 0.000000
# 4 0.000000 0.000000 0.000000 0.188441 0.000000 0.000000
# 5 0.000000 0.000000 0.000000 0.000000 0.033942 0.000000
# 6 0.000000 0.000000 0.000000 0.000000 0.000000 0.068676
#
#
# Mechanical properties :
#
#
# Convention : Reuss Voigt Hill
#
# Bulk Modulus (GPa) = 13.20870 27.07661 20.14266
# Shear Modulus (GPa) = 11.97476 22.80721 17.39099
#
# Velocity S-wave (km/s) = 2.73332 3.77219 3.29397
# Velocity P-wave (km/s) = 4.26641 5.98879 5.19942
#
# Compressibility (1/GPa) = 0.07570766
#
# Stress axis : x y z
#
# Youngs Moduli (GPa) = 90.20103 15.43530 79.32661
#
# Poissons Ratio (x) = 0.16701 0.13299
# Poissons Ratio (y) = 0.97596 -0.48474
# Poissons Ratio (z) = 0.15122 -0.09432
#
# Static dielectric constant tensor:
#      x y z
#    x 1.576190 0.000000 0.000000 
#    y 0.000000 1.490340 0.000000 
#    z 0.000000 0.000000 1.546630 
# 
# From -- ./inp_files/10154.got.cif
#   From: 2010.05.17/outbox.cif.g08.bks.cpg/sg63_6_cif.got.tgz:10154.got - 2010.06.03 15:47:04.
