data_PCOD9468422
_publ_section_title
;
Structure prediction by ZEFSAII (Michael W. Deem and Ramdas Pophale) SiO2 
 PCOD9468422
Probable space group: C M C M
;
_chemical_formula_sum "Si O2"
_cell_formula_units_Z 80
_cell_length_a 32.614656
_cell_length_b 5.934945
_cell_length_c 23.119552
_cell_angle_alpha 90.000000
_cell_angle_beta 90.000000
_cell_angle_gamma 90.000000
_cell_volume 4475.163585
_symmetry_space_group_name_H-M "C M C M"
_symmetry_group_IT_number 63
_symmetry_cell_setting 'orthorhombic'
loop_
_space_group_symop_operation_xyz
x,y,z
-x,-y,1/2+z
x,-y,-z
-x,y,1/2-z
-x,-y,-z
x,y,1/2-z
-x,y,z
x,-y,1/2+z
1/2+x,1/2+y,z
1/2-x,1/2-y,1/2+z
1/2+x,1/2-y,-z
1/2-x,1/2+y,1/2-z
1/2-x,1/2-y,-z
1/2+x,1/2+y,1/2-z
1/2-x,1/2+y,z
1/2+x,1/2-y,1/2+z
loop_
_atom_site_type_symbol
_atom_site_label
_atom_site_fract_x
_atom_site_fract_y
_atom_site_fract_z
Si Si1 0.908285 0.235575 0.893780
Si Si2 0.454536 0.575953 0.184060
Si Si3 0.771936 0.000000 0.000000
Si Si4 0.342437 0.638619 0.421499
Si Si5 0.626126 0.113273 0.683071
Si Si6 0.612590 0.000000 0.500000
O O1 0.883560 0.372442 0.844786
O O2 0.914658 0.396021 0.948649
O O3 0.946222 0.118403 0.862471
O O4 0.878374 0.043061 0.917168
O O5 0.452250 0.485822 0.250000
O O6 0.500000 0.674857 0.176473
O O7 0.417322 0.752321 0.178716
O O8 0.801556 0.021140 0.055904
O O9 0.750000 0.250000 0.000000
O O10 0.342070 0.760780 0.359236
O O11 0.357754 0.821480 0.468360
O O12 0.638028 0.104865 0.750000
#
# Coordination Sequence:
#
# PCOD9468422 Si02
#       6
#    16  16   8  16  16   8
#     4  10  18  30  55  76 109 145 189 231 287 337
#     4   9  18  32  48  74 109 143 188 242 290 338
#     4  12  25  38  64  96 124 148 189 239 302 358
#     4  10  20  36  57  83 116 146 186 238 284 346
#     4   9  19  33  55  81 107 150 197 238 288 345
#     4  10  17  32  55  78 111 146 188 233 280 340
#
# _framework density 17.876439999999999
#
# number of rings (size 3 to 8) (size 9 to 14) (size 15 to 20)
#    0.000    2.200    2.000    1.200    2.800    1.600 
#    0.000    2.500    0.000   16.800    0.000    0.000 
#    0.000    0.000    0.000    0.000    0.000    0.000 
#
# Total GULP energy -222700.546155 kJ/mol
# GULP energy per Si atom -5567.513654 kJ/mol
# Density = 1.783575 g / cm^3
# Si number density = 17.876440 Si / 1000 Ang^3
#
#
#
# Elastic Constant Matrix: (Units=GPa)
#
#
# Indices 1 2 3 4 5 6 
#
# 1 63.5369 27.0156 31.1764 0.0000 0.0000 0.0000
# 2 27.0156 81.4348 46.6079 0.0000 0.0000 0.0000
# 3 31.1764 46.6079 130.1449 0.0000 0.0000 0.0000
# 4 0.0000 0.0000 0.0000 32.4252 0.0000 0.0000
# 5 0.0000 0.0000 0.0000 0.0000 27.2711 0.0000
# 6 0.0000 0.0000 0.0000 0.0000 0.0000 14.8363
#
#
#
# Elastic Compliance Matrix: (Units=1/GPa)
#
#
# Indices 1 2 3 4 5 6 
#
# 1 0.019162 -0.004691 -0.002910 0.000000 0.000000 0.000000
# 2 -0.004691 0.016594 -0.004819 0.000000 0.000000 0.000000
# 3 -0.002910 -0.004819 0.010107 0.000000 0.000000 0.000000
# 4 0.000000 0.000000 0.000000 0.030840 0.000000 0.000000
# 5 0.000000 0.000000 0.000000 0.000000 0.036669 0.000000
# 6 0.000000 0.000000 0.000000 0.000000 0.000000 0.067402
#
#
# Mechanical properties :
#
#
# Convention : Reuss Voigt Hill
#
# Bulk Modulus (GPa) = 47.56985 53.85738 50.71361
# Shear Modulus (GPa) = 23.51598 26.26097 24.88848
#
# Velocity S-wave (km/s) = 3.63088 3.83695 3.73533
# Velocity P-wave (km/s) = 6.65176 7.05851 6.85815
#
# Compressibility (1/GPa) = 0.02102172
#
# Stress axis : x y z
#
# Youngs Moduli (GPa) = 52.18795 60.26242 98.94471
#
# Poissons Ratio (x) = 0.28270 0.28794
# Poissons Ratio (y) = 0.24482 0.47681
# Poissons Ratio (z) = 0.15188 0.29040
#
# Static dielectric constant tensor:
#      x y z
#    x 1.596010 0.000000 0.000000 
#    y 0.000000 1.673850 0.000000 
#    z 0.000000 0.000000 1.629780 
# 
# From -- ./inp_files/65663.got.cif
#   From: 2010.05.17/outbox.cif.g08.bks.cpg/sg63_33_cif.got.tgz:65663.got - 2010.06.03 15:47:04.
