data_PCOD9468632
_publ_section_title
;
Structure prediction by ZEFSAII (Michael W. Deem and Ramdas Pophale) SiO2 
 PCOD9468632
Probable space group: C M C M
;
_chemical_formula_sum "Si O2"
_cell_formula_units_Z 88
_cell_length_a 17.375699
_cell_length_b 29.535099
_cell_length_c 7.635376
_cell_angle_alpha 90.000000
_cell_angle_beta 90.000000
_cell_angle_gamma 90.000000
_cell_volume 3918.421440
_symmetry_space_group_name_H-M "C M C M"
_symmetry_group_IT_number 63
_symmetry_cell_setting 'orthorhombic'
loop_
_space_group_symop_operation_xyz
x,y,z
-x,-y,1/2+z
x,-y,-z
-x,y,1/2-z
-x,-y,-z
x,y,1/2-z
-x,y,z
x,-y,1/2+z
1/2+x,1/2+y,z
1/2-x,1/2-y,1/2+z
1/2+x,1/2-y,-z
1/2-x,1/2+y,1/2-z
1/2-x,1/2-y,-z
1/2+x,1/2+y,1/2-z
1/2-x,1/2+y,z
1/2+x,1/2-y,1/2+z
loop_
_atom_site_type_symbol
_atom_site_label
_atom_site_fract_x
_atom_site_fract_y
_atom_site_fract_z
Si Si1 0.182021 0.552508 0.460656
Si Si2 0.586085 0.685626 0.463660
Si Si3 0.668091 0.772637 0.457777
Si Si4 0.500000 0.552524 0.040526
Si Si5 0.659210 0.596244 0.464042
Si Si6 0.414184 0.136382 0.041958
O O1 0.168013 0.500000 0.500000
O O2 0.183504 0.556051 0.250000
O O3 0.265544 0.569858 0.525319
O O4 0.119961 0.589029 0.527123
O O5 0.586298 0.685830 0.250000
O O6 0.500000 0.672160 0.517363
O O7 0.606668 0.735682 0.525171
O O8 0.649556 0.648677 0.516969
O O9 0.662048 0.774398 0.250000
O O10 0.750000 0.750000 0.500000
O O11 0.645992 0.822606 0.518942
O O12 0.500000 0.560162 0.250000
O O13 0.420082 0.573302 0.975689
O O14 0.500000 0.500000 0.000000
O O15 0.660846 0.595180 0.250000
O O16 0.421391 0.130934 0.250000
O O17 0.500000 0.146937 0.971987
#
# Coordination Sequence:
#
# PCOD9468632 Si02
#       6
#    16  16  16   8  16  16
#     4  10  21  37  57  81 110 148 192 243 302 360
#     4   9  16  29  51  79 108 141 186 232 270 323
#     4  11  22  36  58  88 120 154 194 239 289 350
#     4  10  18  28  46  70  98 136 178 224 273 322
#     4   9  16  29  49  75 106 140 182 228 279 336
#     4  10  22  41  62  85 117 154 194 245 304 360
#
# _framework density 22.458023000000001
#
# number of rings (size 3 to 8) (size 9 to 14) (size 15 to 20)
#    0.000    2.182    0.909    2.727    0.000    5.091 
#    0.000    0.000    0.000    2.182    0.000    0.000 
#    0.000    0.000    0.000    0.000    0.000    0.000 
#
# Total GULP energy -245687.098996 kJ/mol
# GULP energy per Si atom -5583.797704 kJ/mol
# Density = 2.240691 g / cm^3
# Si number density = 22.458023 Si / 1000 Ang^3
#
#
#
# Elastic Constant Matrix: (Units=GPa)
#
#
# Indices 1 2 3 4 5 6 
#
# 1 122.7905 65.7052 7.2911 0.0000 0.0000 0.0000
# 2 65.7052 180.9680 0.9943 0.0000 0.0000 0.0000
# 3 7.2911 0.9943 43.6068 0.0000 0.0000 0.0000
# 4 0.0000 0.0000 0.0000 18.4278 0.0000 0.0000
# 5 0.0000 0.0000 0.0000 0.0000 4.6720 0.0000
# 6 0.0000 0.0000 0.0000 0.0000 0.0000 37.0813
#
#
#
# Elastic Compliance Matrix: (Units=1/GPa)
#
#
# Indices 1 2 3 4 5 6 
#
# 1 0.010222 -0.003702 -0.001625 0.000000 0.000000 0.000000
# 2 -0.003702 0.006868 0.000462 0.000000 0.000000 0.000000
# 3 -0.001625 0.000462 0.023193 0.000000 0.000000 0.000000
# 4 0.000000 0.000000 0.000000 0.054266 0.000000 0.000000
# 5 0.000000 0.000000 0.000000 0.000000 0.214041 0.000000
# 6 0.000000 0.000000 0.000000 0.000000 0.000000 0.026968
#
#
# Mechanical properties :
#
#
# Convention : Reuss Voigt Hill
#
# Bulk Modulus (GPa) = 32.72958 55.03849 43.88404
# Shear Modulus (GPa) = 14.06588 30.26120 22.16354
#
# Velocity S-wave (km/s) = 2.50535 3.67475 3.14488
# Velocity P-wave (km/s) = 4.79316 6.52423 5.72450
#
# Compressibility (1/GPa) = 0.03055340
#
# Stress axis : x y z
#
# Youngs Moduli (GPa) = 97.83296 145.61329 43.11591
#
# Poissons Ratio (x) = 0.53910 0.07005
# Poissons Ratio (y) = 0.36220 -0.01994
# Poissons Ratio (z) = 0.15894 -0.06734
#
# Static dielectric constant tensor:
#      x y z
#    x 1.817270 0.000000 0.000000 
#    y 0.000000 1.804760 0.000000 
#    z 0.000000 0.000000 1.835320 
# 
# From -- ./inp_files/6801.got.cif
#   From: 2010.05.17/outbox.cif.g08.bks.cpg/sg63_4_cif.got.tgz:6801.got - 2010.06.03 15:47:04.
