data_PCOD9468219
_publ_section_title
;
Structure prediction by ZEFSAII (Michael W. Deem and Ramdas Pophale) SiO2 
 PCOD9468219
Probable space group: C M C M
;
_chemical_formula_sum "Si O2"
_cell_formula_units_Z 60
_cell_length_a 19.237341
_cell_length_b 4.743920
_cell_length_c 25.115963
_cell_angle_alpha 90.000000
_cell_angle_beta 90.000000
_cell_angle_gamma 90.000000
_cell_volume 2292.092998
_symmetry_space_group_name_H-M "C M C M"
_symmetry_group_IT_number 63
_symmetry_cell_setting 'orthorhombic'
loop_
_space_group_symop_operation_xyz
x,y,z
-x,-y,1/2+z
x,-y,-z
-x,y,1/2-z
-x,-y,-z
x,y,1/2-z
-x,y,z
x,-y,1/2+z
1/2+x,1/2+y,z
1/2-x,1/2-y,1/2+z
1/2+x,1/2-y,-z
1/2-x,1/2+y,1/2-z
1/2-x,1/2-y,-z
1/2+x,1/2+y,1/2-z
1/2-x,1/2+y,z
1/2+x,1/2-y,1/2+z
loop_
_atom_site_type_symbol
_atom_site_label
_atom_site_fract_x
_atom_site_fract_y
_atom_site_fract_z
Si Si1 0.297376 0.465007 0.912618
Si Si2 0.202140 0.352629 0.250000
Si Si3 0.422193 0.204229 0.449588
Si Si4 0.881138 0.308112 0.834711
Si Si5 0.000000 0.157866 0.750000
O O1 0.272247 0.150236 0.921692
O O2 0.361670 0.564830 0.947739
O O3 0.325217 0.580780 0.856126
O O4 0.226755 0.033926 0.250000
O O5 0.157528 0.456198 0.300358
O O6 0.500000 0.326504 0.450263
O O7 0.413518 0.069613 0.389913
O O8 0.415780 0.000000 0.500000
O O9 0.939369 0.174989 0.796817
#
# Coordination Sequence:
#
# PCOD9468219 Si02
#       5
#    16   8  16  16   4
#     4  10  21  39  64  95 130 165 211 266 322 382
#     4  11  22  37  60  89 124 163 202 256 315 372
#     4   9  19  39  66  93 129 172 220 269 327 393
#     4   9  19  34  61  88 127 164 217 256 324 375
#     4  10  16  36  62  90 128 176 218 268 314 398
#
# _framework density 26.176949
#
# number of rings (size 3 to 8) (size 9 to 14) (size 15 to 20)
#    1.600    0.800    1.333    1.600    0.000    1.067 
#    0.000    1.333    0.000   30.400    0.000    0.000 
#    0.000    0.000    0.000    0.000    0.000    0.000 
#
# Total GULP energy -167281.757479 kJ/mol
# GULP energy per Si atom -5576.058583 kJ/mol
# Density = 2.611737 g / cm^3
# Si number density = 26.176949 Si / 1000 Ang^3
#
#
#
# Elastic Constant Matrix: (Units=GPa)
#
#
# Indices 1 2 3 4 5 6 
#
# 1 168.4542 8.3602 41.9131 0.0000 0.0000 0.0000
# 2 8.3602 60.5090 18.6841 0.0000 0.0000 0.0000
# 3 41.9131 18.6841 222.5639 0.0000 0.0000 0.0000
# 4 0.0000 0.0000 0.0000 30.1226 0.0000 0.0000
# 5 0.0000 0.0000 0.0000 0.0000 104.2759 0.0000
# 6 0.0000 0.0000 0.0000 0.0000 0.0000 103.1913
#
#
#
# Elastic Compliance Matrix: (Units=1/GPa)
#
#
# Indices 1 2 3 4 5 6 
#
# 1 0.006244 -0.000513 -0.001133 0.000000 0.000000 0.000000
# 2 -0.000513 0.017008 -0.001331 0.000000 0.000000 0.000000
# 3 -0.001133 -0.001331 0.004818 0.000000 0.000000 0.000000
# 4 0.000000 0.000000 0.000000 0.033198 0.000000 0.000000
# 5 0.000000 0.000000 0.000000 0.000000 0.009590 0.000000
# 6 0.000000 0.000000 0.000000 0.000000 0.000000 0.009691
#
#
# Mechanical properties :
#
#
# Convention : Reuss Voigt Hill
#
# Bulk Modulus (GPa) = 45.21526 65.49355 55.35440
# Shear Modulus (GPa) = 53.26264 73.02262 63.14263
#
# Velocity S-wave (km/s) = 4.51568 5.28737 4.91669
# Velocity P-wave (km/s) = 6.67075 7.89614 7.30917
#
# Compressibility (1/GPa) = 0.02211643
#
# Stress axis : x y z
#
# Youngs Moduli (GPa) = 160.16347 58.79450 207.54786
#
# Poissons Ratio (x) = 0.03015 0.23510
# Poissons Ratio (y) = 0.08214 0.27630
# Poissons Ratio (z) = 0.18142 0.07827
#
# Static dielectric constant tensor:
#      x y z
#    x 1.999730 0.000000 0.000000 
#    y 0.000000 2.041680 0.000000 
#    z 0.000000 0.000000 2.119440 
# 
# From -- ./inp_files/69633.got.cif
#   From: 2010.05.17/outbox.cif.g08.bks.cpg/sg63_35_cif.got.tgz:69633.got - 2010.06.03 15:47:04.
