data_PCOD9468641
_publ_section_title
;
Structure prediction by ZEFSAII (Michael W. Deem and Ramdas Pophale) SiO2 
 PCOD9468641
Probable space group: C M C M
;
_chemical_formula_sum "Si O2"
_cell_formula_units_Z 96
_cell_length_a 9.173732
_cell_length_b 23.327054
_cell_length_c 27.520512
_cell_angle_alpha 90.000000
_cell_angle_beta 90.000000
_cell_angle_gamma 90.000000
_cell_volume 5889.283387
_symmetry_space_group_name_H-M "C M C M"
_symmetry_group_IT_number 63
_symmetry_cell_setting 'orthorhombic'
loop_
_space_group_symop_operation_xyz
x,y,z
-x,-y,1/2+z
x,-y,-z
-x,y,1/2-z
-x,-y,-z
x,y,1/2-z
-x,y,z
x,-y,1/2+z
1/2+x,1/2+y,z
1/2-x,1/2-y,1/2+z
1/2+x,1/2-y,-z
1/2-x,1/2+y,1/2-z
1/2-x,1/2-y,-z
1/2+x,1/2+y,1/2-z
1/2-x,1/2+y,z
1/2+x,1/2-y,1/2+z
loop_
_atom_site_type_symbol
_atom_site_label
_atom_site_fract_x
_atom_site_fract_y
_atom_site_fract_z
Si Si1 0.326529 0.141952 0.250000
Si Si2 0.324339 0.037009 0.952892
Si Si3 0.330110 0.170182 0.536050
Si Si4 0.172276 0.012958 0.142065
Si Si5 0.668954 0.222025 0.072149
Si Si6 0.175154 0.018393 0.250000
Si Si7 0.172615 0.850617 0.652828
O O1 0.500000 0.144249 0.250000
O O2 0.268364 0.076449 0.250000
O O3 0.258020 0.167396 0.298748
O O4 0.500000 0.032500 0.950712
O O5 0.286985 0.103884 0.959946
O O6 0.259006 0.014267 0.902422
O O7 0.275993 0.000000 0.000000
O O8 0.500000 0.175718 0.551107
O O9 0.321928 0.191169 0.480307
O O10 0.230047 0.213863 0.565838
O O11 0.205040 0.990614 0.197175
O O12 0.200036 0.081602 0.143322
O O13 0.000000 0.004536 0.133855
O O14 0.500000 0.221897 0.087213
O O15 0.767524 0.186401 0.108782
O O16 0.000000 0.032460 0.250000
O O17 0.000000 0.844002 0.659580
#
# Coordination Sequence:
#
# PCOD9468641 Si02
#       7
#     8  16  16  16  16   8  16
#     4  10  18  28  46  73 100 125 160 202 238 282
#     4  10  20  33  49  71 102 134 161 197 245 295
#     4   9  19  34  49  69  99 131 160 196 247 296
#     4   9  18  31  49  72  98 129 163 200 242 291
#     4  10  19  32  52  73  93 123 165 206 240 286
#     4   8  16  32  48  67  98 131 162 200 250 292
#     4  10  19  32  49  71 101 132 159 195 248 294
#
# _framework density 16.300795000000001
#
# number of rings (size 3 to 8) (size 9 to 14) (size 15 to 20)
#    0.000    2.500    0.000    3.750    0.000    6.333 
#    0.000    0.000    0.000    1.000    0.000    2.333 
#    0.000    0.000    0.000    0.000    0.000    0.000 
#
# Total GULP energy -267481.692851 kJ/mol
# GULP energy per Si atom -5572.535268 kJ/mol
# Density = 1.626369 g / cm^3
# Si number density = 16.300795 Si / 1000 Ang^3
#
#
#
# Elastic Constant Matrix: (Units=GPa)
#
#
# Indices 1 2 3 4 5 6 
#
# 1 56.7307 41.2090 41.7804 0.0000 0.0000 0.0000
# 2 41.2090 82.7812 48.7276 0.0000 0.0000 0.0000
# 3 41.7804 48.7276 93.5007 0.0000 0.0000 0.0000
# 4 0.0000 0.0000 0.0000 17.9227 0.0000 0.0000
# 5 0.0000 0.0000 0.0000 0.0000 34.1239 0.0000
# 6 0.0000 0.0000 0.0000 0.0000 0.0000 19.1704
#
#
#
# Elastic Compliance Matrix: (Units=1/GPa)
#
#
# Indices 1 2 3 4 5 6 
#
# 1 0.031767 -0.010759 -0.008588 0.000000 0.000000 0.000000
# 2 -0.010759 0.021069 -0.006173 0.000000 0.000000 0.000000
# 3 -0.008588 -0.006173 0.017750 0.000000 0.000000 0.000000
# 4 0.000000 0.000000 0.000000 0.055795 0.000000 0.000000
# 5 0.000000 0.000000 0.000000 0.000000 0.029305 0.000000
# 6 0.000000 0.000000 0.000000 0.000000 0.000000 0.052164
#
#
# Mechanical properties :
#
#
# Convention : Reuss Voigt Hill
#
# Bulk Modulus (GPa) = 51.15902 55.16074 53.15988
# Shear Modulus (GPa) = 18.83919 20.99644 19.91782
#
# Velocity S-wave (km/s) = 3.40328 3.59285 3.49935
# Velocity P-wave (km/s) = 6.84804 7.15012 7.00071
#
# Compressibility (1/GPa) = 0.01954689
#
# Stress axis : x y z
#
# Youngs Moduli (GPa) = 31.47924 47.46280 56.33937
#
# Poissons Ratio (x) = 0.51063 0.48385
# Poissons Ratio (y) = 0.33867 0.34777
# Poissons Ratio (z) = 0.27035 0.29297
#
# Static dielectric constant tensor:
#      x y z
#    x 1.540060 0.000000 0.000000 
#    y 0.000000 1.528060 0.000000 
#    z 0.000000 0.000000 1.566030 
# 
# From -- ./inp_files/60042.got.cif
#   From: 2010.05.17/outbox.cif.g08.bks.cpg/sg63_31_cif.got.tgz:60042.got - 2010.06.03 15:47:04.
