data_PCOD9468178
_publ_section_title
;
Structure prediction by ZEFSAII (Michael W. Deem and Ramdas Pophale) SiO2 
 PCOD9468178
Probable space group: C M C M
;
_chemical_formula_sum "Si O2"
_cell_formula_units_Z 80
_cell_length_a 24.708635
_cell_length_b 26.979921
_cell_length_c 8.465687
_cell_angle_alpha 90.000000
_cell_angle_beta 90.000000
_cell_angle_gamma 90.000000
_cell_volume 5643.540357
_symmetry_space_group_name_H-M "C M C M"
_symmetry_group_IT_number 63
_symmetry_cell_setting 'orthorhombic'
loop_
_space_group_symop_operation_xyz
x,y,z
-x,-y,1/2+z
x,-y,-z
-x,y,1/2-z
-x,-y,-z
x,y,1/2-z
-x,y,z
x,-y,1/2+z
1/2+x,1/2+y,z
1/2-x,1/2-y,1/2+z
1/2+x,1/2-y,-z
1/2-x,1/2+y,1/2-z
1/2-x,1/2-y,-z
1/2+x,1/2+y,1/2-z
1/2-x,1/2+y,z
1/2+x,1/2-y,1/2+z
loop_
_atom_site_type_symbol
_atom_site_label
_atom_site_fract_x
_atom_site_fract_y
_atom_site_fract_z
Si Si1 0.382368 0.742775 0.057685
Si Si2 0.781461 0.701229 0.939103
Si Si3 0.500000 0.283700 0.558450
Si Si4 0.685222 0.645031 0.440104
Si Si5 0.889136 0.944762 0.560136
Si Si6 0.000000 0.896654 0.438505
O O1 0.383003 0.742436 0.250000
O O2 0.343312 0.788147 0.009629
O O3 0.444261 0.741661 0.003698
O O4 0.353038 0.691284 0.008765
O O5 0.780011 0.700599 0.750000
O O6 0.750000 0.750000 0.000000
O O7 0.745824 0.655825 0.001292
O O8 0.500000 0.283482 0.750000
O O9 0.500000 0.340839 0.505389
O O10 0.686070 0.646065 0.250000
O O11 0.657019 0.594272 0.491586
O O12 0.890976 0.944606 0.750000
O O13 0.946527 0.924711 0.497958
O O14 0.879352 0.000000 0.500000
O O15 0.000000 0.895164 0.250000
#
# Coordination Sequence:
#
# PCOD9468178 Si02
#       6
#    16  16   8  16  16   8
#     4   8  14  25  42  61  79 105 138 167 203 246
#     4   9  16  26  40  61  83 104 134 169 207 248
#     4  10  16  29  47  60  82 116 144 173 212 247
#     4   9  17  30  45  60  78 105 138 171 211 253
#     4  11  22  36  49  61  80 107 143 182 222 258
#     4  12  23  33  44  62  83 108 146 181 219 253
#
# _framework density 14.175499
#
# number of rings (size 3 to 8) (size 9 to 14) (size 15 to 20)
#    0.000    2.400    2.000    3.600    0.000    1.600 
#    0.000    1.000    0.000    0.000    0.000    0.000 
#    0.000    0.000    0.000    0.900    0.000    9.400 
#
# Total GULP energy -222811.879194 kJ/mol
# GULP energy per Si atom -5570.296980 kJ/mol
# Density = 1.414324 g / cm^3
# Si number density = 14.175499 Si / 1000 Ang^3
#
#
#
# Elastic Constant Matrix: (Units=GPa)
#
#
# Indices 1 2 3 4 5 6 
#
# 1 137.4481 74.0348 20.2047 0.0000 0.0000 0.0000
# 2 74.0348 73.0299 15.9688 0.0000 0.0000 0.0000
# 3 20.2047 15.9688 23.4904 0.0000 0.0000 0.0000
# 4 0.0000 0.0000 0.0000 18.6361 0.0000 0.0000
# 5 0.0000 0.0000 0.0000 0.0000 17.3900 0.0000
# 6 0.0000 0.0000 0.0000 0.0000 0.0000 12.9514
#
#
#
# Elastic Compliance Matrix: (Units=1/GPa)
#
#
# Indices 1 2 3 4 5 6 
#
# 1 0.016237 -0.015747 -0.003261 0.000000 0.000000 0.000000
# 2 -0.015747 0.031356 -0.007771 0.000000 0.000000 0.000000
# 3 -0.003261 -0.007771 0.050658 0.000000 0.000000 0.000000
# 4 0.000000 0.000000 0.000000 0.053659 0.000000 0.000000
# 5 0.000000 0.000000 0.000000 0.000000 0.057504 0.000000
# 6 0.000000 0.000000 0.000000 0.000000 0.000000 0.077212
#
#
# Mechanical properties :
#
#
# Convention : Reuss Voigt Hill
#
# Bulk Modulus (GPa) = 22.37512 50.48722 36.43117
# Shear Modulus (GPa) = 14.08122 18.04619 16.06370
#
# Velocity S-wave (km/s) = 3.15516 3.57186 3.36996
# Velocity P-wave (km/s) = 5.39370 7.25976 6.39516
#
# Compressibility (1/GPa) = 0.04469250
#
# Stress axis : x y z
#
# Youngs Moduli (GPa) = 61.58799 31.89141 19.74019
#
# Poissons Ratio (x) = 0.50221 0.06437
# Poissons Ratio (y) = 0.96985 0.15341
# Poissons Ratio (z) = 0.20082 0.24784
#
# Static dielectric constant tensor:
#      x y z
#    x 1.497150 0.000000 0.000000 
#    y 0.000000 1.446320 0.000000 
#    z 0.000000 0.000000 1.486380 
# 
# From -- ./inp_files/8934.got.cif
#   From: 2010.05.17/outbox.cif.g08.bks.cpg/sg63_5_cif.got.tgz:8934.got - 2010.06.03 15:47:04.
