data_PCOD9468818
_publ_section_title
;
Structure prediction by ZEFSAII (Michael W. Deem and Ramdas Pophale) SiO2 
 PCOD9468818
Probable space group: C M C M
;
_chemical_formula_sum "Si O2"
_cell_formula_units_Z 88
_cell_length_a 34.441064
_cell_length_b 23.788492
_cell_length_c 8.735577
_cell_angle_alpha 90.000000
_cell_angle_beta 90.000000
_cell_angle_gamma 90.000000
_cell_volume 7157.066757
_symmetry_space_group_name_H-M "C M C M"
_symmetry_group_IT_number 63
_symmetry_cell_setting 'orthorhombic'
loop_
_space_group_symop_operation_xyz
x,y,z
-x,-y,1/2+z
x,-y,-z
-x,y,1/2-z
-x,-y,-z
x,y,1/2-z
-x,y,z
x,-y,1/2+z
1/2+x,1/2+y,z
1/2-x,1/2-y,1/2+z
1/2+x,1/2-y,-z
1/2-x,1/2+y,1/2-z
1/2-x,1/2-y,-z
1/2+x,1/2+y,1/2-z
1/2-x,1/2+y,z
1/2+x,1/2-y,1/2+z
loop_
_atom_site_type_symbol
_atom_site_label
_atom_site_fract_x
_atom_site_fract_y
_atom_site_fract_z
Si Si1 0.343820 0.879951 0.068591
Si Si2 0.233263 0.438341 0.564910
Si Si3 0.809717 0.273972 0.575792
Si Si4 0.419510 0.936759 0.566721
Si Si5 0.276283 0.330294 0.926058
Si Si6 0.500000 0.063544 0.933669
O O1 0.346181 0.888685 0.250000
O O2 0.307443 0.915225 0.001478
O O3 0.334950 0.814871 0.029770
O O4 0.382707 0.901204 0.987625
O O5 0.240495 0.500000 0.500000
O O6 0.230840 0.438505 0.750000
O O7 0.266573 0.393259 0.520122
O O8 0.823694 0.277165 0.750000
O O9 0.766309 0.300789 0.572823
O O10 0.804261 0.210125 0.521155
O O11 0.421897 0.939831 0.750000
O O12 0.459696 0.912415 0.498014
O O13 0.414764 0.000000 0.500000
O O14 0.289369 0.331740 0.750000
O O15 0.500000 0.062612 0.750000
O O16 0.500000 0.000000 0.000000
#
# Coordination Sequence:
#
# PCOD9468818 Si02
#       6
#    16  16  16  16  16   8
#     4  11  20  29  40  54  72  93 116 146 183 218
#     4  10  19  29  39  53  72  93 118 147 181 218
#     4   9  16  26  39  54  69  87 113 143 175 211
#     4  11  20  31  43  56  73  93 117 145 179 216
#     4   8  15  26  38  51  68  90 114 141 173 211
#     4  10  18  30  44  58  72  90 116 142 173 212
#
# _framework density 12.295539
#
# number of rings (size 3 to 8) (size 9 to 14) (size 15 to 20)
#    0.000    2.182    0.000    7.909    0.000    5.091 
#    0.000    0.000    0.000    0.000    0.000    0.000 
#    0.000    0.000    0.000    0.000    0.000    0.000 
#
# Total GULP energy -245187.664764 kJ/mol
# GULP energy per Si atom -5572.446926 kJ/mol
# Density = 1.226755 g / cm^3
# Si number density = 12.295539 Si / 1000 Ang^3
#
#
#
# Elastic Constant Matrix: (Units=GPa)
#
#
# Indices 1 2 3 4 5 6 
#
# 1 36.5035 29.2062 22.7030 0.0000 0.0000 0.0000
# 2 29.2062 80.5228 29.7862 0.0000 0.0000 0.0000
# 3 22.7030 29.7862 91.8760 0.0000 0.0000 0.0000
# 4 0.0000 0.0000 0.0000 18.2346 0.0000 0.0000
# 5 0.0000 0.0000 0.0000 0.0000 16.6009 0.0000
# 6 0.0000 0.0000 0.0000 0.0000 0.0000 11.5431
#
#
#
# Elastic Compliance Matrix: (Units=1/GPa)
#
#
# Indices 1 2 3 4 5 6 
#
# 1 0.041392 -0.012760 -0.006091 0.000000 0.000000 0.000000
# 2 -0.012760 0.018045 -0.002697 0.000000 0.000000 0.000000
# 3 -0.006091 -0.002697 0.013264 0.000000 0.000000 0.000000
# 4 0.000000 0.000000 0.000000 0.054841 0.000000 0.000000
# 5 0.000000 0.000000 0.000000 0.000000 0.060238 0.000000
# 6 0.000000 0.000000 0.000000 0.000000 0.000000 0.086632
#
#
# Mechanical properties :
#
#
# Convention : Reuss Voigt Hill
#
# Bulk Modulus (GPa) = 33.77935 41.36589 37.57262
# Shear Modulus (GPa) = 15.27294 17.75616 16.51455
#
# Velocity S-wave (km/s) = 3.52824 3.80427 3.66885
# Velocity P-wave (km/s) = 6.64308 7.28098 6.96933
#
# Compressibility (1/GPa) = 0.02960388
#
# Stress axis : x y z
#
# Youngs Moduli (GPa) = 24.15907 55.41815 75.39294
#
# Poissons Ratio (x) = 0.70713 0.45925
# Poissons Ratio (y) = 0.30827 0.20334
# Poissons Ratio (z) = 0.14716 0.14946
#
# Static dielectric constant tensor:
#      x y z
#    x 1.390320 0.000000 0.000000 
#    y 0.000000 1.407900 0.000000 
#    z 0.000000 0.000000 1.409540 
# 
# From -- ./inp_files/14593.got.cif
#   From: 2010.05.17/outbox.cif.g08.bks.cpg/sg63_8_cif.got.tgz:14593.got - 2010.06.03 15:47:04.
