data_PCOD9468260
_publ_section_title
;
Structure prediction by ZEFSAII (Michael W. Deem and Ramdas Pophale) SiO2 
 PCOD9468260
Probable space group: C M C M
;
_chemical_formula_sum "Si O2"
_cell_formula_units_Z 112
_cell_length_a 7.385179
_cell_length_b 20.442380
_cell_length_c 33.118216
_cell_angle_alpha 90.000000
_cell_angle_beta 90.000000
_cell_angle_gamma 90.000000
_cell_volume 4999.878116
_symmetry_space_group_name_H-M "C M C M"
_symmetry_group_IT_number 63
_symmetry_cell_setting 'orthorhombic'
loop_
_space_group_symop_operation_xyz
x,y,z
-x,-y,1/2+z
x,-y,-z
-x,y,1/2-z
-x,-y,-z
x,y,1/2-z
-x,y,z
x,-y,1/2+z
1/2+x,1/2+y,z
1/2-x,1/2-y,1/2+z
1/2+x,1/2-y,-z
1/2-x,1/2+y,1/2-z
1/2-x,1/2-y,-z
1/2+x,1/2+y,1/2-z
1/2-x,1/2+y,z
1/2+x,1/2-y,1/2+z
loop_
_atom_site_type_symbol
_atom_site_label
_atom_site_fract_x
_atom_site_fract_y
_atom_site_fract_z
Si Si1 0.719208 0.664039 0.465494
Si Si2 0.221951 0.797735 0.621580
Si Si3 0.783058 0.059860 0.351899
Si Si4 0.785355 0.554009 0.795099
Si Si5 0.281859 0.625317 0.951955
Si Si6 0.719793 0.517649 0.061616
Si Si7 0.713850 0.840855 0.359017
O O1 0.500000 0.669278 0.465321
O O2 0.781415 0.702496 0.425646
O O3 0.782922 0.672466 0.511713
O O4 0.767991 0.588163 0.455954
O O5 0.279650 0.865722 0.642060
O O6 0.284713 0.733051 0.644334
O O7 0.000000 0.797699 0.621014
O O8 0.736151 0.018939 0.312618
O O9 0.721911 0.019787 0.391559
O O10 0.000000 0.062274 0.354126
O O11 0.710885 0.561267 0.750000
O O12 0.710687 0.605112 0.828345
O O13 0.000000 0.565259 0.792660
O O14 0.500000 0.625379 0.954277
O O15 0.219772 0.549980 0.958054
O O16 0.234650 0.642310 0.906252
O O17 0.500000 0.516301 0.060023
O O18 0.500000 0.837932 0.351302
#
# Coordination Sequence:
#
# PCOD9468260 Si02
#       7
#    16  16  16  16  16  16  16
#     4   8  14  24  42  69  98 130 167 205 240 276
#     4   8  16  31  50  73 101 132 165 199 237 284
#     4   9  16  31  55  78  96 119 159 209 248 277
#     4  10  21  36  53  73  97 126 158 192 241 307
#     4  10  17  26  45  72  99 129 170 209 239 278
#     4   8  13  23  42  69  97 121 156 205 245 276
#     4  10  20  34  50  69 100 137 164 194 243 296
#
# _framework density 22.400545000000001
#
# number of rings (size 3 to 8) (size 9 to 14) (size 15 to 20)
#    0.000    3.000    1.429    2.143    0.000    2.571 
#    0.000    1.429    0.000    7.714    0.000    0.000 
#    0.000    0.000    0.000    0.000    0.000    0.000 
#
# Total GULP energy -312435.236560 kJ/mol
# GULP energy per Si atom -5579.200653 kJ/mol
# Density = 2.234956 g / cm^3
# Si number density = 22.400545 Si / 1000 Ang^3
#
#
#
# Elastic Constant Matrix: (Units=GPa)
#
#
# Indices 1 2 3 4 5 6 
#
# 1 77.6636 -0.9087 -0.3812 0.0000 0.0000 0.0000
# 2 -0.9087 101.0340 63.4796 0.0000 0.0000 0.0000
# 3 -0.3812 63.4796 148.5253 0.0000 0.0000 0.0000
# 4 0.0000 0.0000 0.0000 17.2850 0.0000 0.0000
# 5 0.0000 0.0000 0.0000 0.0000 15.0674 0.0000
# 6 0.0000 0.0000 0.0000 0.0000 0.0000 -4.2096
#
#
#
# Elastic Compliance Matrix: (Units=1/GPa)
#
#
# Indices 1 2 3 4 5 6 
#
# 1 0.012877 0.000130 -0.000022 0.000000 0.000000 0.000000
# 2 0.000130 0.013533 -0.005783 0.000000 0.000000 0.000000
# 3 -0.000022 -0.005783 0.009205 0.000000 0.000000 0.000000
# 4 0.000000 0.000000 0.000000 0.057854 0.000000 0.000000
# 5 0.000000 0.000000 0.000000 0.000000 0.066368 0.000000
# 6 0.000000 0.000000 0.000000 0.000000 0.000000 -0.237551
#
#
# Mechanical properties :
#
#
# Convention : Reuss Voigt Hill
#
# Bulk Modulus (GPa) = 41.21559 50.17802 45.69680
# Shear Modulus (GPa) = -85.80018 23.29744 -31.25137
#
# Velocity S-wave (km/s) = -6.19563 3.22846 -3.73918
# Velocity P-wave (km/s) = 5.72205 6.02879 1.34247
#
# Compressibility (1/GPa) = 0.02426266
#
# Stress axis : x y z
#
# Youngs Moduli (GPa) = 77.65507 73.89576 108.64066
#
# Poissons Ratio (x) = -0.00960 0.00244
# Poissons Ratio (y) = -0.01009 0.62832
# Poissons Ratio (z) = 0.00175 0.42737
#
# Static dielectric constant tensor:
#      x y z
#    x 1.884050 0.000000 0.000000 
#    y 0.000000 1.849020 0.000000 
#    z 0.000000 0.000000 1.835040 
# 
# From -- ./inp_files/68609.got.cif
#   From: 2010.05.17/outbox.cif.g08.bks.cpg/sg63_35_cif.got.tgz:68609.got - 2010.06.03 15:47:04.
