data_PCOD9468877
_publ_section_title
;
Structure prediction by ZEFSAII (Michael W. Deem and Ramdas Pophale) SiO2 
 PCOD9468877
Probable space group: C M C M
;
_chemical_formula_sum "Si O2"
_cell_formula_units_Z 80
_cell_length_a 15.476337
_cell_length_b 33.631634
_cell_length_c 7.533555
_cell_angle_alpha 90.000000
_cell_angle_beta 90.000000
_cell_angle_gamma 90.000000
_cell_volume 3921.173955
_symmetry_space_group_name_H-M "C M C M"
_symmetry_group_IT_number 63
_symmetry_cell_setting 'orthorhombic'
loop_
_space_group_symop_operation_xyz
x,y,z
-x,-y,1/2+z
x,-y,-z
-x,y,1/2-z
-x,-y,-z
x,y,1/2-z
-x,y,z
x,-y,1/2+z
1/2+x,1/2+y,z
1/2-x,1/2-y,1/2+z
1/2+x,1/2-y,-z
1/2-x,1/2+y,1/2-z
1/2-x,1/2-y,-z
1/2+x,1/2+y,1/2-z
1/2-x,1/2+y,z
1/2+x,1/2-y,1/2+z
loop_
_atom_site_type_symbol
_atom_site_label
_atom_site_fract_x
_atom_site_fract_y
_atom_site_fract_z
Si Si1 0.903414 0.650672 0.037430
Si Si2 0.093033 0.821397 0.466584
Si Si3 0.226343 0.113606 0.963011
Si Si4 0.402548 0.453793 0.462938
Si Si5 0.348159 0.762336 0.962386
O O1 0.908452 0.653888 0.250000
O O2 0.874366 0.694355 0.967845
O O3 0.000000 0.640952 0.972282
O O4 0.826894 0.619524 0.002805
O O5 0.096471 0.821005 0.250000
O O6 0.173006 0.847806 0.528553
O O7 0.099139 0.775915 0.527093
O O8 0.000000 0.838836 0.516144
O O9 0.220258 0.113387 0.750000
O O10 0.172831 0.075396 0.028820
O O11 0.384770 0.500000 0.500000
O O12 0.405981 0.449009 0.250000
O O13 0.500000 0.444780 0.530008
O O14 0.359765 0.764129 0.750000
O O15 0.250000 0.750000 0.000000
#
# Coordination Sequence:
#
# PCOD9468877 Si02
#       5
#    16  16  16  16  16
#     4  10  21  35  50  70  99 136 175 213 254 298
#     4   9  16  27  46  70  95 126 163 201 242 289
#     4  10  19  32  52  77 101 128 166 209 247 291
#     4   9  18  33  54  81 110 136 162 194 240 302
#     4  10  18  30  48  68  94 130 171 210 249 293
#
# _framework density 20.402054
#
# number of rings (size 3 to 8) (size 9 to 14) (size 15 to 20)
#    0.000    2.400    2.000    1.200    0.000    6.000 
#    0.000    0.000    0.000    5.400    0.000    0.000 
#    0.000    0.000    0.000    0.000    0.000    0.000 
#
# Total GULP energy -223176.616694 kJ/mol
# GULP energy per Si atom -5579.415417 kJ/mol
# Density = 2.035562 g / cm^3
# Si number density = 20.402054 Si / 1000 Ang^3
#
#
#
# Elastic Constant Matrix: (Units=GPa)
#
#
# Indices 1 2 3 4 5 6 
#
# 1 196.2082 90.0535 1.8730 0.0000 0.0000 0.0000
# 2 90.0535 118.1017 5.9217 0.0000 0.0000 0.0000
# 3 1.8730 5.9217 51.9504 0.0000 0.0000 0.0000
# 4 0.0000 0.0000 0.0000 10.6315 0.0000 0.0000
# 5 0.0000 0.0000 0.0000 0.0000 15.9954 0.0000
# 6 0.0000 0.0000 0.0000 0.0000 0.0000 20.4383
#
#
#
# Elastic Compliance Matrix: (Units=1/GPa)
#
#
# Indices 1 2 3 4 5 6 
#
# 1 0.007849 -0.006005 0.000402 0.000000 0.000000 0.000000
# 2 -0.006005 0.013110 -0.001278 0.000000 0.000000 0.000000
# 3 0.000402 -0.001278 0.019380 0.000000 0.000000 0.000000
# 4 0.000000 0.000000 0.000000 0.094060 0.000000 0.000000
# 5 0.000000 0.000000 0.000000 0.000000 0.062518 0.000000
# 6 0.000000 0.000000 0.000000 0.000000 0.000000 0.048928
#
#
# Mechanical properties :
#
#
# Convention : Reuss Voigt Hill
#
# Bulk Modulus (GPa) = 37.62695 62.43963 50.03329
# Shear Modulus (GPa) = 18.62430 27.30719 22.96574
#
# Velocity S-wave (km/s) = 3.02464 3.66246 3.35872
# Velocity P-wave (km/s) = 5.53902 6.96820 6.29430
#
# Compressibility (1/GPa) = 0.02657670
#
# Stress axis : x y z
#
# Youngs Moduli (GPa) = 127.40645 76.27644 51.59871
#
# Poissons Ratio (x) = 0.45804 -0.02072
# Poissons Ratio (y) = 0.76507 0.06594
# Poissons Ratio (z) = -0.05115 0.09747
#
# Static dielectric constant tensor:
#      x y z
#    x 1.759930 0.000000 0.000000 
#    y 0.000000 1.714150 0.000000 
#    z 0.000000 0.000000 1.790740 
# 
# From -- ./inp_files/17839.got.cif
#   From: 2010.05.17/outbox.cif.g08.bks.cpg/sg63_9_cif.got.tgz:17839.got - 2010.06.03 15:47:04.
