data_PCOD9468003
_publ_section_title
;
Structure prediction by ZEFSAII (Michael W. Deem and Ramdas Pophale) SiO2 
 PCOD9468003
Probable space group: P N M A
;
_chemical_formula_sum "Si O2"
_cell_formula_units_Z 40
_cell_length_a 12.000000
_cell_length_b 15.000000
_cell_length_c 12.000000
_cell_angle_alpha 90.000000
_cell_angle_beta 90.000000
_cell_angle_gamma 90.000000
_cell_volume 2160.000000
_symmetry_space_group_name_H-M "P N M A"
_symmetry_group_IT_number 62
_symmetry_cell_setting 'orthorhombic'
loop_
_space_group_symop_operation_xyz
x,y,z
1/2-x,-y,1/2+z
1/2+x,1/2-y,1/2-z
-x,1/2+y,-z
-x,-y,-z
1/2+x,y,1/2-z
1/2-x,1/2+y,1/2+z
x,1/2-y,z
loop_
_atom_site_type_symbol
_atom_site_label
_atom_site_fract_x
_atom_site_fract_y
_atom_site_fract_z
Si Si1 0.347512 0.490465 0.809161
Si Si2 0.801629 0.148403 0.100330
Si Si3 0.245544 0.352246 0.637190
Si Si4 0.997920 0.648375 0.724692
Si Si5 0.492544 0.146603 0.955908
O O1 0.272205 0.561669 0.875086
O O2 0.278012 0.425892 0.727701
O O3 0.425372 0.561699 0.743914
O O4 0.417964 0.426003 0.891292
O O5 0.751246 0.250000 0.107292
O O6 0.895889 0.146327 0.194475
O O7 0.828896 0.141398 0.969086
O O8 0.251194 0.250000 0.680520
O O9 0.120646 0.364618 0.586335
O O10 0.951990 0.750000 0.739685
O O11 0.017729 0.637511 0.590715
O O12 0.461425 0.250000 0.929992
#
# Coordination Sequence:
#
# PCOD9468003 Si02
#       5
#     8   8   8   8   8
#     4  12  21  33  62  88 115 150 199 237 282 351
#     4  10  22  38  58  85 120 154 190 239 297 342
#     4  10  22  40  58  83 120 156 186 238 299 345
#     4  10  21  38  60  85 114 151 195 243 290 344
#     4  10  21  39  61  85 116 154 195 240 292 345
#
# _framework density 18.518519000000001
#
# number of rings (size 3 to 8) (size 9 to 14) (size 15 to 20)
#    0.000    1.600    2.000    3.000    2.800    0.800 
#    0.000    0.000    0.000    0.000    0.000    0.000 
#    0.000    0.000    0.000    0.000    0.000    0.000 
#
# Total GULP energy -222827.107291 kJ/mol
# GULP energy per Si atom -5570.677682 kJ/mol
# Density = 1.847637 g / cm^3
# Si number density = 18.518519 Si / 1000 Ang^3
#
#
#
# Elastic Constant Matrix: (Units=GPa)
#
#
# Indices 1 2 3 4 5 6 
#
# 1 21.1628 34.4141 8.6192 0.0000 0.0000 0.0000
# 2 34.4141 176.5463 46.4448 0.0000 0.0000 0.0000
# 3 8.6192 46.4448 57.1814 0.0000 0.0000 0.0000
# 4 0.0000 0.0000 0.0000 33.3849 0.0000 0.0000
# 5 0.0000 0.0000 0.0000 0.0000 30.9844 0.0000
# 6 0.0000 0.0000 0.0000 0.0000 0.0000 40.3798
#
#
#
# Elastic Compliance Matrix: (Units=1/GPa)
#
#
# Indices 1 2 3 4 5 6 
#
# 1 0.069203 -0.013666 0.000668 0.000000 0.000000 0.000000
# 2 -0.013666 0.009902 -0.005983 0.000000 0.000000 0.000000
# 3 0.000668 -0.005983 0.022247 0.000000 0.000000 0.000000
# 4 0.000000 0.000000 0.000000 0.029954 0.000000 0.000000
# 5 0.000000 0.000000 0.000000 0.000000 0.032274 0.000000
# 6 0.000000 0.000000 0.000000 0.000000 0.000000 0.024765
#
#
# Mechanical properties :
#
#
# Convention : Reuss Voigt Hill
#
# Bulk Modulus (GPa) = 15.77490 48.20518 31.99004
# Shear Modulus (GPa) = 20.20730 31.97732 26.09231
#
# Velocity S-wave (km/s) = 3.30691 4.15996 3.75772
# Velocity P-wave (km/s) = 4.80810 7.01149 6.01160
#
# Compressibility (1/GPa) = 0.06339185
#
# Stress axis : x y z
#
# Youngs Moduli (GPa) = 14.45027 100.98973 44.94992
#
# Poissons Ratio (x) = 1.38008 -0.03005
# Poissons Ratio (y) = 0.19747 0.26893
# Poissons Ratio (z) = -0.00966 0.60421
#
# Static dielectric constant tensor:
#      x y z
#    x 1.707220 0.000000 0.000000 
#    y 0.000000 1.651500 0.000000 
#    z 0.000000 0.000000 1.625340 
# 
# From -- ./inp_files/12032.got.cif
#   From: 2010.05.17/outbox.ucp.g08.bks.cvg/sg62_7_cif.got.tgz:12032.got - 2010.06.11 16:29:25.
