data_PCOD9468135
_publ_section_title
;
Structure prediction by ZEFSAII (Michael W. Deem and Ramdas Pophale) SiO2 
 PCOD9468135
Probable space group: C M C M
;
_chemical_formula_sum "Si O2"
_cell_formula_units_Z 80
_cell_length_a 23.356346
_cell_length_b 7.103446
_cell_length_c 20.705003
_cell_angle_alpha 90.000000
_cell_angle_beta 90.000000
_cell_angle_gamma 90.000000
_cell_volume 3435.178282
_symmetry_space_group_name_H-M "C M C M"
_symmetry_group_IT_number 63
_symmetry_cell_setting 'orthorhombic'
loop_
_space_group_symop_operation_xyz
x,y,z
-x,-y,1/2+z
x,-y,-z
-x,y,1/2-z
-x,-y,-z
x,y,1/2-z
-x,y,z
x,-y,1/2+z
1/2+x,1/2+y,z
1/2-x,1/2-y,1/2+z
1/2+x,1/2-y,-z
1/2-x,1/2+y,1/2-z
1/2-x,1/2-y,-z
1/2+x,1/2+y,1/2-z
1/2-x,1/2+y,z
1/2+x,1/2-y,1/2+z
loop_
_atom_site_type_symbol
_atom_site_label
_atom_site_fract_x
_atom_site_fract_y
_atom_site_fract_z
Si Si1 0.384713 0.787377 0.381801
Si Si2 0.500000 0.111342 0.568786
Si Si3 0.625774 0.243427 0.367845
Si Si4 0.000000 0.726432 0.327956
Si Si5 0.798730 0.322286 0.750000
Si Si6 0.182734 0.722752 0.000020
Si Si7 0.165111 0.239894 0.250000
O O1 0.444079 0.765264 0.419433
O O2 0.337772 0.711617 0.430570
O O3 0.372616 0.698080 0.312811
O O4 0.378983 0.013931 0.372195
O O5 0.500000 0.000000 0.500000
O O6 0.500000 0.963104 0.628415
O O7 0.562020 0.313126 0.347817
O O8 0.673766 0.275711 0.313047
O O9 0.648973 0.300651 0.438145
O O10 0.000000 0.695466 0.250000
O O11 0.822509 0.535099 0.750000
O O12 0.730080 0.336023 0.750000
O O13 0.170535 0.500000 0.000000
O O14 0.250000 0.750000 0.000000
#
# Coordination Sequence:
#
# PCOD9468135 Si02
#       7
#    16   8  16   8   8  16   8
#     4   9  18  29  45  69  96 125 156 197 243 291
#     4  10  18  28  46  70 101 127 157 197 256 296
#     4   9  17  28  46  68  98 121 158 199 249 288
#     4  10  16  26  46  72  97 127 154 205 259 292
#     4  10  18  31  45  69  95 126 159 202 236 292
#     4  10  19  32  48  70  97 130 161 199 239 287
#     4  10  20  31  47  69  97 128 163 198 240 284
#
# _framework density 23.288454999999999
#
# number of rings (size 3 to 8) (size 9 to 14) (size 15 to 20)
#    0.000    2.400    1.000    4.200    4.200    0.000 
#    0.000    0.000    0.000    0.000    0.000    8.400 
#    0.000    0.000    0.000    0.000    0.000    0.000 
#
# Total GULP energy -223233.889977 kJ/mol
# GULP energy per Si atom -5580.847249 kJ/mol
# Density = 2.323545 g / cm^3
# Si number density = 23.288455 Si / 1000 Ang^3
#
#
#
# Elastic Constant Matrix: (Units=GPa)
#
#
# Indices 1 2 3 4 5 6 
#
# 1 187.6414 -7.8491 102.3750 0.0000 0.0000 0.0000
# 2 -7.8491 76.2045 -0.8278 0.0000 0.0000 0.0000
# 3 102.3750 -0.8278 222.4062 0.0000 0.0000 0.0000
# 4 0.0000 0.0000 0.0000 -12.4481 0.0000 0.0000
# 5 0.0000 0.0000 0.0000 0.0000 44.5297 0.0000
# 6 0.0000 0.0000 0.0000 0.0000 0.0000 25.8235
#
#
#
# Elastic Compliance Matrix: (Units=1/GPa)
#
#
# Indices 1 2 3 4 5 6 
#
# 1 0.007154 0.000701 -0.003290 0.000000 0.000000 0.000000
# 2 0.000701 0.013192 -0.000274 0.000000 0.000000 0.000000
# 3 -0.003290 -0.000274 0.006010 0.000000 0.000000 0.000000
# 4 0.000000 0.000000 0.000000 -0.080333 0.000000 0.000000
# 5 0.000000 0.000000 0.000000 0.000000 0.022457 0.000000
# 6 0.000000 0.000000 0.000000 0.000000 0.000000 0.038724
#
#
# Mechanical properties :
#
#
# Convention : Reuss Voigt Hill
#
# Bulk Modulus (GPa) = 48.47369 74.84981 61.66175
# Shear Modulus (GPa) = 252.45230 37.75128 145.10179
#
# Velocity S-wave (km/s) = 10.42294 4.03057 7.90200
# Velocity P-wave (km/s) = 12.87284 7.33967 10.47809
#
# Compressibility (1/GPa) = 0.02062975
#
# Stress axis : x y z
#
# Youngs Moduli (GPa) = 139.78559 75.80452 166.39426
#
# Poissons Ratio (x) = -0.05315 0.54749
# Poissons Ratio (y) = -0.09800 0.04553
# Poissons Ratio (z) = 0.45994 0.02074
#
# Static dielectric constant tensor:
#      x y z
#    x 1.927890 0.000000 0.000000 
#    y 0.000000 2.099190 0.000000 
#    z 0.000000 0.000000 1.865060 
# 
# From -- ./inp_files/46889.got.cif
#   From: 2010.05.17/outbox.cif.g08.bks.cpg/sg63_24_cif.got.tgz:46889.got - 2010.06.03 15:47:04.
