data_PCOD9468742
_publ_section_title
;
Structure prediction by ZEFSAII (Michael W. Deem and Ramdas Pophale) SiO2 
 PCOD9468742
Probable space group: C M C M
;
_chemical_formula_sum "Si O2"
_cell_formula_units_Z 116
_cell_length_a 7.800181
_cell_length_b 26.609671
_cell_length_c 29.756847
_cell_angle_alpha 90.000000
_cell_angle_beta 90.000000
_cell_angle_gamma 90.000000
_cell_volume 6176.338607
_symmetry_space_group_name_H-M "C M C M"
_symmetry_group_IT_number 63
_symmetry_cell_setting 'orthorhombic'
loop_
_space_group_symop_operation_xyz
x,y,z
-x,-y,1/2+z
x,-y,-z
-x,y,1/2-z
-x,-y,-z
x,y,1/2-z
-x,y,z
x,-y,1/2+z
1/2+x,1/2+y,z
1/2-x,1/2-y,1/2+z
1/2+x,1/2-y,-z
1/2-x,1/2+y,1/2-z
1/2-x,1/2-y,-z
1/2+x,1/2+y,1/2-z
1/2-x,1/2+y,z
1/2+x,1/2-y,1/2+z
loop_
_atom_site_type_symbol
_atom_site_label
_atom_site_fract_x
_atom_site_fract_y
_atom_site_fract_z
Si Si1 0.304705 0.188640 0.980155
Si Si2 0.000000 0.123702 0.750000
Si Si3 0.704199 0.468804 0.387155
Si Si4 0.701252 0.422799 0.481335
Si Si5 0.191683 0.378632 0.176248
Si Si6 0.704758 0.070594 0.420173
Si Si7 0.695976 0.286018 0.382917
Si Si8 0.209714 0.314156 0.919516
O O1 0.500000 0.206108 0.974882
O O2 0.305816 0.128374 0.982779
O O3 0.198862 0.200373 0.935774
O O4 0.235947 0.202007 0.029803
O O5 0.152475 0.123365 0.711055
O O6 0.500000 0.462587 0.383174
O O7 0.758114 0.452741 0.437547
O O8 0.787681 0.429652 0.352973
O O9 0.745598 0.527959 0.384423
O O10 0.500000 0.411248 0.475316
O O11 0.721448 0.445109 0.531042
O O12 0.208918 0.329734 0.143771
O O13 0.000000 0.378038 0.195747
O O14 0.500000 0.071707 0.423654
O O15 0.763326 0.128198 0.410966
O O16 0.500000 0.285374 0.366644
O O17 0.764784 0.228643 0.384278
O O18 0.000000 0.313450 0.920204
#
# Coordination Sequence:
#
# PCOD9468742 Si02
#       8
#    16   4  16  16  16  16  16  16
#     4  10  18  29  46  74 111 159 211 256 288 340
#     4  12  26  52  68  98 126 144 186 252 326 388
#     4  11  21  36  55  82 118 157 203 245 298 358
#     4  10  19  30  46  70 109 161 206 250 291 340
#     4  12  25  43  69  97 123 154 191 246 311 382
#     4  10  20  33  49  77 116 162 213 252 288 334
#     4  11  19  34  55  81 117 159 203 246 300 359
#     4   8  18  32  48  74 118 166 211 250 293 332
#
# _framework density 18.781355000000001
#
# number of rings (size 3 to 8) (size 9 to 14) (size 15 to 20)
#    0.000    1.655    2.759    3.931    0.000    3.310 
#    0.000    7.586    0.000    0.000    0.000    0.966 
#    0.000    0.000    0.000    0.000    0.000    0.000 
#
# Total GULP energy -322989.750613 kJ/mol
# GULP energy per Si atom -5568.788804 kJ/mol
# Density = 1.873861 g / cm^3
# Si number density = 18.781355 Si / 1000 Ang^3
#
#
#
# Elastic Constant Matrix: (Units=GPa)
#
#
# Indices 1 2 3 4 5 6 
#
# 1 98.6192 30.9074 27.1484 0.0000 0.0000 0.0000
# 2 30.9074 91.0281 64.2938 0.0000 0.0000 0.0000
# 3 27.1484 64.2938 65.3781 0.0000 0.0000 0.0000
# 4 0.0000 0.0000 0.0000 -3.4345 0.0000 0.0000
# 5 0.0000 0.0000 0.0000 0.0000 19.8299 0.0000
# 6 0.0000 0.0000 0.0000 0.0000 0.0000 10.3074
#
#
#
# Elastic Compliance Matrix: (Units=1/GPa)
#
#
# Indices 1 2 3 4 5 6 
#
# 1 0.011533 -0.001746 -0.003072 0.000000 0.000000 0.000000
# 2 -0.001746 0.036235 -0.034909 0.000000 0.000000 0.000000
# 3 -0.003072 -0.034909 0.050901 0.000000 0.000000 0.000000
# 4 0.000000 0.000000 0.000000 -0.291165 0.000000 0.000000
# 5 0.000000 0.000000 0.000000 0.000000 0.050429 0.000000
# 6 0.000000 0.000000 0.000000 0.000000 0.000000 0.097017
#
#
# Mechanical properties :
#
#
# Convention : Reuss Voigt Hill
#
# Bulk Modulus (GPa) = 52.04215 55.52495 53.78355
# Shear Modulus (GPa) = 122.51966 14.18563 68.35264
#
# Velocity S-wave (km/s) = 8.08556 2.75126 6.03928
# Velocity P-wave (km/s) = 10.72092 6.30243 8.79371
#
# Compressibility (1/GPa) = 0.01921519
#
# Stress axis : x y z
#
# Youngs Moduli (GPa) = 86.70847 27.59763 19.64586
#
# Poissons Ratio (x) = 0.04819 0.06035
# Poissons Ratio (y) = 0.15141 0.68582
# Poissons Ratio (z) = 0.26636 0.96341
#
# Static dielectric constant tensor:
#      x y z
#    x 1.677810 0.000000 0.000000 
#    y 0.000000 1.737200 0.000000 
#    z 0.000000 0.000000 1.614650 
# 
# From -- ./inp_files/67614.got.cif
#   From: 2010.05.17/outbox.cif.g08.bks.cpg/sg63_34_cif.got.tgz:67614.got - 2010.06.03 15:47:04.
