data_PCOD9468870
_publ_section_title
;
Structure prediction by ZEFSAII (Michael W. Deem and Ramdas Pophale) SiO2 
 PCOD9468870
Probable space group: C M C M
;
_chemical_formula_sum "Si O2"
_cell_formula_units_Z 112
_cell_length_a 18.811926
_cell_length_b 14.453892
_cell_length_c 18.268306
_cell_angle_alpha 90.000000
_cell_angle_beta 90.000000
_cell_angle_gamma 90.000000
_cell_volume 4967.253731
_symmetry_space_group_name_H-M "C M C M"
_symmetry_group_IT_number 63
_symmetry_cell_setting 'orthorhombic'
loop_
_space_group_symop_operation_xyz
x,y,z
-x,-y,1/2+z
x,-y,-z
-x,y,1/2-z
-x,-y,-z
x,y,1/2-z
-x,y,z
x,-y,1/2+z
1/2+x,1/2+y,z
1/2-x,1/2-y,1/2+z
1/2+x,1/2-y,-z
1/2-x,1/2+y,1/2-z
1/2-x,1/2-y,-z
1/2+x,1/2+y,1/2-z
1/2-x,1/2+y,z
1/2+x,1/2-y,1/2+z
loop_
_atom_site_type_symbol
_atom_site_label
_atom_site_fract_x
_atom_site_fract_y
_atom_site_fract_z
Si Si1 0.604605 0.286232 0.833968
Si Si2 0.328960 0.246930 0.469251
Si Si3 0.242294 0.195129 0.668446
Si Si4 0.367212 0.423253 0.559452
Si Si5 0.079523 0.460264 0.833862
Si Si6 0.424849 0.874424 0.446139
Si Si7 0.238637 0.476975 0.665013
O O1 0.583504 0.280827 0.750000
O O2 0.689822 0.263081 0.837318
O O3 0.589183 0.385585 0.870469
O O4 0.574963 0.204004 0.883319
O O5 0.250000 0.250000 0.500000
O O6 0.319047 0.274934 0.386150
O O7 0.366120 0.330898 0.510804
O O8 0.365058 0.153060 0.496055
O O9 0.214794 0.199108 0.750000
O O10 0.269184 0.089268 0.656198
O O11 0.388187 0.500000 0.500000
O O12 0.292363 0.450075 0.599334
O O13 0.079757 0.501088 0.750000
O O14 0.080056 0.532378 0.900535
O O15 0.161924 0.426015 0.838631
O O16 0.000000 0.413302 0.837701
O O17 0.500000 0.871969 0.486082
O O18 0.265048 0.462559 0.750000
#
# Coordination Sequence:
#
# PCOD9468870 Si02
#       7
#    16  16  16  16  16  16  16
#     4  10  19  32  49  74 105 133 169 212 258 307
#     4  11  19  35  53  73 103 137 169 212 257 301
#     4  10  18  31  52  76 100 131 169 212 256 299
#     4  11  21  29  47  72 102 132 168 207 254 300
#     4   9  16  27  46  72 103 138 169 201 249 308
#     4  10  19  29  50  79 105 131 167 214 263 307
#     4  10  18  30  47  74 104 130 161 207 258 308
#
# _framework density 22.547671000000001
#
# number of rings (size 3 to 8) (size 9 to 14) (size 15 to 20)
#    0.000    1.857    5.714    0.857    0.000    0.857 
#    0.000    0.000    0.000    8.571    0.000    0.000 
#    0.000    0.000    0.000    0.000    0.000    0.000 
#
# Total GULP energy -312002.461479 kJ/mol
# GULP energy per Si atom -5571.472526 kJ/mol
# Density = 2.249635 g / cm^3
# Si number density = 22.547671 Si / 1000 Ang^3
#
#
#
# Elastic Constant Matrix: (Units=GPa)
#
#
# Indices 1 2 3 4 5 6 
#
# 1 50.4056 -10.7921 27.2274 0.0000 0.0000 0.0000
# 2 -10.7921 69.2097 28.3559 0.0000 0.0000 0.0000
# 3 27.2274 28.3559 137.8332 0.0000 0.0000 0.0000
# 4 0.0000 0.0000 0.0000 35.7371 0.0000 0.0000
# 5 0.0000 0.0000 0.0000 0.0000 18.1394 0.0000
# 6 0.0000 0.0000 0.0000 0.0000 0.0000 -6.0058
#
#
#
# Elastic Compliance Matrix: (Units=1/GPa)
#
#
# Indices 1 2 3 4 5 6 
#
# 1 0.024518 0.006342 -0.006148 0.000000 0.000000 0.000000
# 2 0.006342 0.017419 -0.004836 0.000000 0.000000 0.000000
# 3 -0.006148 -0.004836 0.009465 0.000000 0.000000 0.000000
# 4 0.000000 0.000000 0.000000 0.027982 0.000000 0.000000
# 5 0.000000 0.000000 0.000000 0.000000 0.055129 0.000000
# 6 0.000000 0.000000 0.000000 0.000000 0.000000 -0.166507
#
#
# Mechanical properties :
#
#
# Convention : Reuss Voigt Hill
#
# Bulk Modulus (GPa) = 23.74335 38.55900 31.15117
# Shear Modulus (GPa) = -576.65263 23.75129 -276.45067
#
# Velocity S-wave (km/s) = -16.00948 3.24910 -11.08483
# Velocity P-wave (km/s) = 18.19848 5.58693 12.24686
#
# Compressibility (1/GPa) = 0.04211705
#
# Stress axis : x y z
#
# Youngs Moduli (GPa) = 40.78664 57.40758 105.65711
#
# Poissons Ratio (x) = -0.36408 0.64957
# Poissons Ratio (y) = -0.25867 0.51100
# Poissons Ratio (z) = 0.25075 0.27765
#
# Static dielectric constant tensor:
#      x y z
#    x 1.924590 0.000000 0.000000 
#    y 0.000000 1.895290 0.000000 
#    z 0.000000 0.000000 1.907310 
# 
# From -- ./inp_files/55831.got.cif
#   From: 2010.05.17/outbox.cif.g08.bks.cpg/sg63_28_cif.got.tgz:55831.got - 2010.06.03 15:47:04.
