data_PCOD9468057
_publ_section_title
;
Structure prediction by ZEFSAII (Michael W. Deem and Ramdas Pophale) SiO2 
 PCOD9468057
Probable space group: P N M A
;
_chemical_formula_sum "Si O2"
_cell_formula_units_Z 48
_cell_length_a 15.000000
_cell_length_b 9.000000
_cell_length_c 18.000000
_cell_angle_alpha 90.000000
_cell_angle_beta 90.000000
_cell_angle_gamma 90.000000
_cell_volume 2430.000000
_symmetry_space_group_name_H-M "P N M A"
_symmetry_group_IT_number 62
_symmetry_cell_setting 'orthorhombic'
loop_
_space_group_symop_operation_xyz
x,y,z
1/2-x,-y,1/2+z
1/2+x,1/2-y,1/2-z
-x,1/2+y,-z
-x,-y,-z
1/2+x,y,1/2-z
1/2-x,1/2+y,1/2+z
x,1/2-y,z
loop_
_atom_site_type_symbol
_atom_site_label
_atom_site_fract_x
_atom_site_fract_y
_atom_site_fract_z
Si Si1 0.596871 0.071664 0.495319
Si Si2 0.630364 0.078713 0.196866
Si Si3 0.025346 0.580546 0.575772
Si Si4 0.646495 0.581571 0.343541
Si Si5 0.643465 0.082517 0.809618
Si Si6 0.813723 0.570511 0.151955
O O1 0.592779 0.250000 0.491448
O O2 0.647042 0.030876 0.571930
O O3 0.500000 0.000000 0.500000
O O4 0.638763 0.006917 0.420079
O O5 0.650997 0.250000 0.214995
O O6 0.555937 0.074191 0.133840
O O7 0.601672 0.997169 0.272738
O O8 0.717290 0.000359 0.163414
O O9 0.046558 0.750000 0.557921
O O10 0.000000 0.500000 0.500000
O O11 0.104521 0.509060 0.622733
O O12 0.612589 0.750000 0.353245
O O13 0.750300 0.588226 0.320894
O O14 0.606879 0.250000 0.813987
O O15 0.629914 0.024354 0.725406
O O16 0.807123 0.750000 0.156107
#
# Coordination Sequence:
#
# PCOD9468057 Si02
#       6
#     8   8   8   8   8   8
#     4  11  24  40  61  93 126 159 203 248 299 359
#     4  10  22  40  62  90 120 155 201 250 300 356
#     4  11  25  40  59  90 122 156 199 246 298 354
#     4  10  22  41  64  89 120 161 202 247 303 358
#     4   9  20  40  63  87 118 156 199 244 298 356
#     4   9  21  41  63  89 119 158 200 242 298 360
#
# _framework density 19.753086
#
# number of rings (size 3 to 8) (size 9 to 14) (size 15 to 20)
#    0.000    2.000    0.000    3.000    4.667    7.333 
#    0.000    0.000    0.000    0.000    0.000    0.000 
#    0.000    0.000    0.000    0.000    0.000    0.000 
#
# Total GULP energy -267915.363615 kJ/mol
# GULP energy per Si atom -5581.570075 kJ/mol
# Density = 1.970813 g / cm^3
# Si number density = 19.753086 Si / 1000 Ang^3
#
#
#
# Elastic Constant Matrix: (Units=GPa)
#
#
# Indices 1 2 3 4 5 6 
#
# 1 29.6312 8.8957 10.7671 0.0000 0.0000 0.0000
# 2 8.8957 67.2551 55.9652 0.0000 0.0000 0.0000
# 3 10.7671 55.9652 156.6488 0.0000 0.0000 0.0000
# 4 0.0000 0.0000 0.0000 39.0567 0.0000 0.0000
# 5 0.0000 0.0000 0.0000 0.0000 12.0414 0.0000
# 6 0.0000 0.0000 0.0000 0.0000 0.0000 25.2589
#
#
#
# Elastic Compliance Matrix: (Units=1/GPa)
#
#
# Indices 1 2 3 4 5 6 
#
# 1 0.035271 -0.003768 -0.001078 0.000000 0.000000 0.000000
# 2 -0.003768 0.021562 -0.007444 0.000000 0.000000 0.000000
# 3 -0.001078 -0.007444 0.009117 0.000000 0.000000 0.000000
# 4 0.000000 0.000000 0.000000 0.025604 0.000000 0.000000
# 5 0.000000 0.000000 0.000000 0.000000 0.083047 0.000000
# 6 0.000000 0.000000 0.000000 0.000000 0.000000 0.039590
#
#
# Mechanical properties :
#
#
# Convention : Reuss Voigt Hill
#
# Bulk Modulus (GPa) = 24.17251 44.97679 34.57465
# Shear Modulus (GPa) = 19.79711 27.13188 23.46450
#
# Velocity S-wave (km/s) = 3.16923 3.71017 3.45032
# Velocity P-wave (km/s) = 5.06517 6.41660 5.78051
#
# Compressibility (1/GPa) = 0.04136931
#
# Stress axis : x y z
#
# Youngs Moduli (GPa) = 28.35177 46.37833 109.68050
#
# Poissons Ratio (x) = 0.17476 0.11825
# Poissons Ratio (y) = 0.10683 0.81649
# Poissons Ratio (z) = 0.03057 0.34525
#
# Static dielectric constant tensor:
#      x y z
#    x 1.715110 0.000000 0.000000 
#    y 0.000000 1.703840 0.000000 
#    z 0.000000 0.000000 1.708840 
# 
# From -- ./inp_files/23675.got.cif
#   From: 2010.05.17/outbox.ucp.g08.bks.cvg/sg62_12_cif.got.tgz:23675.got - 2010.06.11 16:29:25.
