data_PCOD9468364
_publ_section_title
;
Structure prediction by ZEFSAII (Michael W. Deem and Ramdas Pophale) SiO2 
 PCOD9468364
Probable space group: C M C M
;
_chemical_formula_sum "Si O2"
_cell_formula_units_Z 88
_cell_length_a 16.633364
_cell_length_b 22.119378
_cell_length_c 14.168083
_cell_angle_alpha 90.000000
_cell_angle_beta 90.000000
_cell_angle_gamma 90.000000
_cell_volume 5212.716361
_symmetry_space_group_name_H-M "C M C M"
_symmetry_group_IT_number 63
_symmetry_cell_setting 'orthorhombic'
loop_
_space_group_symop_operation_xyz
x,y,z
-x,-y,1/2+z
x,-y,-z
-x,y,1/2-z
-x,-y,-z
x,y,1/2-z
-x,y,z
x,-y,1/2+z
1/2+x,1/2+y,z
1/2-x,1/2-y,1/2+z
1/2+x,1/2-y,-z
1/2-x,1/2+y,1/2-z
1/2-x,1/2-y,-z
1/2+x,1/2+y,1/2-z
1/2-x,1/2+y,z
1/2+x,1/2-y,1/2+z
loop_
_atom_site_type_symbol
_atom_site_label
_atom_site_fract_x
_atom_site_fract_y
_atom_site_fract_z
Si Si1 0.187344 0.955912 0.640375
Si Si2 0.903010 0.409075 0.358831
Si Si3 0.597737 0.228149 0.641446
Si Si4 0.902904 0.848766 0.957284
Si Si5 0.317685 0.000000 0.500000
Si Si6 0.596456 0.582980 0.643613
O O1 0.210959 0.952737 0.750000
O O2 0.133048 0.899006 0.612363
O O3 0.261578 0.960734 0.569338
O O4 0.137575 0.018246 0.626670
O O5 0.878244 0.421919 0.250000
O O6 0.876785 0.340225 0.381662
O O7 0.868246 0.456280 0.432560
O O8 0.000000 0.410775 0.361067
O O9 0.621004 0.241231 0.750000
O O10 0.500000 0.227476 0.639626
O O11 0.624349 0.282063 0.573418
O O12 0.000000 0.850422 0.951192
O O13 0.880052 0.869983 0.062580
O O14 0.617220 0.602729 0.750000
O O15 0.500000 0.574907 0.638956
#
# Coordination Sequence:
#
# PCOD9468364 Si02
#       6
#    16  16  16  16   8  16
#     4  11  21  31  45  70 106 138 169 206 244 288
#     4   9  19  37  59  79  96 119 160 210 255 302
#     4   8  15  29  51  77  99 122 160 209 251 286
#     4  10  17  29  50  75 101 134 174 209 242 277
#     4  12  21  34  51  76  98 134 158 198 251 312
#     4   9  17  29  45  67 100 143 183 209 232 272
#
# _framework density 16.881792999999998
#
# number of rings (size 3 to 8) (size 9 to 14) (size 15 to 20)
#    0.000    2.364    1.818    3.000    0.000    3.273 
#    0.000    0.909    0.000    2.182    0.000    7.636 
#    0.000    0.000    0.000    0.000    0.000    0.000 
#
# Total GULP energy -245311.135945 kJ/mol
# GULP energy per Si atom -5575.253090 kJ/mol
# Density = 1.684337 g / cm^3
# Si number density = 16.881793 Si / 1000 Ang^3
#
#
#
# Elastic Constant Matrix: (Units=GPa)
#
#
# Indices 1 2 3 4 5 6 
#
# 1 16.8360 26.8918 33.5092 0.0000 0.0000 0.0000
# 2 26.8918 127.9859 87.7699 0.0000 0.0000 0.0000
# 3 33.5092 87.7699 129.1849 0.0000 0.0000 0.0000
# 4 0.0000 0.0000 0.0000 31.9896 0.0000 0.0000
# 5 0.0000 0.0000 0.0000 0.0000 20.9037 0.0000
# 6 0.0000 0.0000 0.0000 0.0000 0.0000 12.9203
#
#
#
# Elastic Compliance Matrix: (Units=1/GPa)
#
#
# Indices 1 2 3 4 5 6 
#
# 1 0.126662 -0.007644 -0.027661 0.000000 0.000000 0.000000
# 2 -0.007644 0.015091 -0.008270 0.000000 0.000000 0.000000
# 3 -0.027661 -0.008270 0.020535 0.000000 0.000000 0.000000
# 4 0.000000 0.000000 0.000000 0.031260 0.000000 0.000000
# 5 0.000000 0.000000 0.000000 0.000000 0.047838 0.000000
# 6 0.000000 0.000000 0.000000 0.000000 0.000000 0.077398
#
#
# Mechanical properties :
#
#
# Convention : Reuss Voigt Hill
#
# Bulk Modulus (GPa) = 13.30915 63.37208 38.34061
# Shear Modulus (GPa) = 11.60145 21.55177 16.57661
#
# Velocity S-wave (km/s) = 2.62433 3.57687 3.13696
# Velocity P-wave (km/s) = 4.13323 7.39452 5.99010
#
# Compressibility (1/GPa) = 0.07513629
#
# Stress axis : x y z
#
# Youngs Moduli (GPa) = 7.89505 66.26438 48.69788
#
# Poissons Ratio (x) = 0.50653 1.34704
# Poissons Ratio (y) = 0.06035 0.40274
# Poissons Ratio (z) = 0.21839 0.54802
#
# Static dielectric constant tensor:
#      x y z
#    x 1.565180 0.000000 0.000000 
#    y 0.000000 1.554780 0.000000 
#    z 0.000000 0.000000 1.578190 
# 
# From -- ./inp_files/34140.got.cif
#   From: 2010.05.17/outbox.cif.g08.bks.cpg/sg63_18_cif.got.tgz:34140.got - 2010.06.03 15:47:04.
