data_PCOD9468729
_publ_section_title
;
Structure prediction by ZEFSAII (Michael W. Deem and Ramdas Pophale) SiO2 
 PCOD9468729
Probable space group: C M C M
;
_chemical_formula_sum "Si O2"
_cell_formula_units_Z 128
_cell_length_a 23.300692
_cell_length_b 18.862552
_cell_length_c 19.441999
_cell_angle_alpha 90.000000
_cell_angle_beta 90.000000
_cell_angle_gamma 90.000000
_cell_volume 8544.962983
_symmetry_space_group_name_H-M "C M C M"
_symmetry_group_IT_number 63
_symmetry_cell_setting 'orthorhombic'
loop_
_space_group_symop_operation_xyz
x,y,z
-x,-y,1/2+z
x,-y,-z
-x,y,1/2-z
-x,-y,-z
x,y,1/2-z
-x,y,z
x,-y,1/2+z
1/2+x,1/2+y,z
1/2-x,1/2-y,1/2+z
1/2+x,1/2-y,-z
1/2-x,1/2+y,1/2-z
1/2-x,1/2-y,-z
1/2+x,1/2+y,1/2-z
1/2-x,1/2+y,z
1/2+x,1/2-y,1/2+z
loop_
_atom_site_type_symbol
_atom_site_label
_atom_site_fract_x
_atom_site_fract_y
_atom_site_fract_z
Si Si1 0.671503 0.231953 0.928513
Si Si2 0.432992 0.333231 0.953241
Si Si3 0.280951 0.880404 0.168430
Si Si4 0.933952 0.123455 0.614622
Si Si5 0.378902 0.479129 0.919118
Si Si6 0.284913 0.825479 0.928355
Si Si7 0.255306 0.983680 0.918235
Si Si8 0.667537 0.289415 0.328581
O O1 0.610173 0.268995 0.937276
O O2 0.677678 0.179481 0.863902
O O3 0.720037 0.293856 0.925485
O O4 0.690529 0.186666 0.995251
O O5 0.500000 0.320121 0.937897
O O6 0.409810 0.403382 0.914243
O O7 0.428687 0.351678 0.034737
O O8 0.289081 0.889958 0.250000
O O9 0.217397 0.847091 0.156275
O O10 0.282869 0.953372 0.126129
O O11 0.892618 0.173386 0.657904
O O12 0.000000 0.127996 0.634609
O O13 0.911809 0.042699 0.618381
O O14 0.312158 0.477487 0.899017
O O15 0.380150 0.500000 0.000000
O O16 0.283621 0.907172 0.908158
O O17 0.321792 0.776228 0.878357
O O18 0.257906 0.000000 0.000000
O O19 0.674270 0.267373 0.250000
#
# Coordination Sequence:
#
# PCOD9468729 Si02
#       8
#    16  16  16  16  16  16  16  16
#     4  10  18  31  50  73  99 132 167 210 253 294
#     4  10  18  29  48  76 102 130 172 215 249 286
#     4  10  21  34  50  73 102 130 165 209 254 303
#     4  10  18  29  46  69 102 140 174 206 242 290
#     4   9  17  26  43  71 104 134 171 204 240 287
#     4  10  19  29  50  73  97 131 172 208 251 300
#     4  11  18  29  51  78  99 134 167 198 247 308
#     4  10  20  33  46  68 101 136 172 212 250 295
#
# _framework density 14.979585
#
# number of rings (size 3 to 8) (size 9 to 14) (size 15 to 20)
#    0.000    2.000    5.000    0.375    0.000    2.250 
#    0.000    0.000    0.000    1.125    0.000    2.625 
#    0.000    0.000    0.000    0.000    0.000    0.000 
#
# Total GULP energy -356810.992836 kJ/mol
# GULP energy per Si atom -5575.171763 kJ/mol
# Density = 1.494549 g / cm^3
# Si number density = 14.979585 Si / 1000 Ang^3
#
#
#
# Elastic Constant Matrix: (Units=GPa)
#
#
# Indices 1 2 3 4 5 6 
#
# 1 65.7476 40.2650 9.5031 0.0000 0.0000 0.0000
# 2 40.2650 103.9493 39.5293 0.0000 0.0000 0.0000
# 3 9.5031 39.5293 47.5234 0.0000 0.0000 0.0000
# 4 0.0000 0.0000 0.0000 17.1611 0.0000 0.0000
# 5 0.0000 0.0000 0.0000 0.0000 13.3637 0.0000
# 6 0.0000 0.0000 0.0000 0.0000 0.0000 20.4980
#
#
#
# Elastic Compliance Matrix: (Units=1/GPa)
#
#
# Indices 1 2 3 4 5 6 
#
# 1 0.020361 -0.009271 0.003640 0.000000 0.000000 0.000000
# 2 -0.009271 0.018292 -0.013361 0.000000 0.000000 0.000000
# 3 0.003640 -0.013361 0.031428 0.000000 0.000000 0.000000
# 4 0.000000 0.000000 0.000000 0.058271 0.000000 0.000000
# 5 0.000000 0.000000 0.000000 0.000000 0.074830 0.000000
# 6 0.000000 0.000000 0.000000 0.000000 0.000000 0.048785
#
#
# Mechanical properties :
#
#
# Convention : Reuss Voigt Hill
#
# Bulk Modulus (GPa) = 31.15571 43.97946 37.56758
# Shear Modulus (GPa) = 16.63052 18.73274 17.68163
#
# Velocity S-wave (km/s) = 3.33560 3.54015 3.43940
# Velocity P-wave (km/s) = 5.97318 6.79217 6.39580
#
# Compressibility (1/GPa) = 0.03209685
#
# Stress axis : x y z
#
# Youngs Moduli (GPa) = 49.11237 54.66774 31.81866
#
# Poissons Ratio (x) = 0.50684 -0.11582
# Poissons Ratio (y) = 0.45534 0.42514
# Poissons Ratio (z) = -0.17878 0.73043
#
# Static dielectric constant tensor:
#      x y z
#    x 1.479470 0.000000 0.000000 
#    y 0.000000 1.483800 0.000000 
#    z 0.000000 0.000000 1.502660 
# 
# From -- ./inp_files/48441.got.cif
#   From: 2010.05.17/outbox.cif.g08.bks.cpg/sg63_25_cif.got.tgz:48441.got - 2010.06.03 15:47:04.
