data_PCOD9468739
_publ_section_title
;
Structure prediction by ZEFSAII (Michael W. Deem and Ramdas Pophale) SiO2 
 PCOD9468739
Probable space group: C M C M
;
_chemical_formula_sum "Si O2"
_cell_formula_units_Z 80
_cell_length_a 19.318393
_cell_length_b 4.972813
_cell_length_c 32.872757
_cell_angle_alpha 90.000000
_cell_angle_beta 90.000000
_cell_angle_gamma 90.000000
_cell_volume 3157.979121
_symmetry_space_group_name_H-M "C M C M"
_symmetry_group_IT_number 63
_symmetry_cell_setting 'orthorhombic'
loop_
_space_group_symop_operation_xyz
x,y,z
-x,-y,1/2+z
x,-y,-z
-x,y,1/2-z
-x,-y,-z
x,y,1/2-z
-x,y,z
x,-y,1/2+z
1/2+x,1/2+y,z
1/2-x,1/2-y,1/2+z
1/2+x,1/2-y,-z
1/2-x,1/2+y,1/2-z
1/2-x,1/2-y,-z
1/2+x,1/2+y,1/2-z
1/2-x,1/2+y,z
1/2+x,1/2-y,1/2+z
loop_
_atom_site_type_symbol
_atom_site_label
_atom_site_fract_x
_atom_site_fract_y
_atom_site_fract_z
Si Si1 0.500000 0.313091 0.038887
Si Si2 0.347419 0.254274 0.381329
Si Si3 0.000000 0.191617 0.298265
Si Si4 0.000000 0.796897 0.374336
Si Si5 0.854733 0.714099 0.669511
Si Si6 0.783888 0.243905 0.250000
Si Si7 0.345150 0.233176 0.027334
O O1 0.500000 0.466367 0.082732
O O2 0.426666 0.164380 0.035520
O O3 0.500000 0.500000 0.000000
O O4 0.427433 0.145863 0.379991
O O5 0.355310 0.555480 0.364805
O O6 0.317283 0.254435 0.426660
O O7 0.315513 0.042759 0.349658
O O8 0.930115 0.345346 0.310642
O O9 0.000000 0.126380 0.250000
O O10 0.000000 0.946411 0.331104
O O11 0.818313 0.843986 0.708424
O O12 0.785378 0.566496 0.250000
O O13 0.343636 0.500000 0.000000
O O14 0.313205 0.000000 0.000000
#
# Coordination Sequence:
#
# PCOD9468739 Si02
#       7
#     8  16   8   8  16   8  16
#     4   8  15  26  41  64  98 153 199 237 275 330
#     4  10  20  34  54  80 118 154 198 241 291 346
#     4  10  19  36  57  86 117 158 200 241 293 356
#     4   8  17  30  47  76 112 153 198 246 283 335
#     4  11  22  40  60  88 118 158 196 246 295 349
#     4  12  26  45  66  89 118 152 198 250 296 352
#     4  10  18  29  46  73 109 152 194 234 279 339
#
# _framework density 25.332659
#
# number of rings (size 3 to 8) (size 9 to 14) (size 15 to 20)
#    0.000    2.000    1.000    3.300    0.000    1.600 
#    1.800    7.000    0.000    0.000    0.000    0.000 
#    0.000   56.000    0.000    0.000    0.000    0.000 
#
# Total GULP energy -223085.443969 kJ/mol
# GULP energy per Si atom -5577.136099 kJ/mol
# Density = 2.527500 g / cm^3
# Si number density = 25.332659 Si / 1000 Ang^3
#
#
#
# Elastic Constant Matrix: (Units=GPa)
#
#
# Indices 1 2 3 4 5 6 
#
# 1 60.7226 -7.5666 8.2628 0.0000 0.0000 0.0000
# 2 -7.5666 72.9540 40.5952 0.0000 0.0000 0.0000
# 3 8.2628 40.5952 254.5940 0.0000 0.0000 0.0000
# 4 0.0000 0.0000 0.0000 43.0133 0.0000 0.0000
# 5 0.0000 0.0000 0.0000 0.0000 15.8748 0.0000
# 6 0.0000 0.0000 0.0000 0.0000 0.0000 15.7066
#
#
#
# Elastic Compliance Matrix: (Units=1/GPa)
#
#
# Indices 1 2 3 4 5 6 
#
# 1 0.016873 0.002255 -0.000907 0.000000 0.000000 0.000000
# 2 0.002255 0.015343 -0.002520 0.000000 0.000000 0.000000
# 3 -0.000907 -0.002520 0.004359 0.000000 0.000000 0.000000
# 4 0.000000 0.000000 0.000000 0.023249 0.000000 0.000000
# 5 0.000000 0.000000 0.000000 0.000000 0.062993 0.000000
# 6 0.000000 0.000000 0.000000 0.000000 0.000000 0.063667
#
#
# Mechanical properties :
#
#
# Convention : Reuss Voigt Hill
#
# Bulk Modulus (GPa) = 29.21337 52.31703 40.76520
# Shear Modulus (GPa) = 24.97025 38.05089 31.51057
#
# Velocity S-wave (km/s) = 3.14298 3.87983 3.53068
# Velocity P-wave (km/s) = 4.97273 6.38495 5.72257
#
# Compressibility (1/GPa) = 0.03423090
#
# Stress axis : x y z
#
# Youngs Moduli (GPa) = 59.26726 65.17553 229.40923
#
# Poissons Ratio (x) = -0.14696 0.20810
# Poissons Ratio (y) = -0.13363 0.57803
# Poissons Ratio (z) = 0.05376 0.16422
#
# Static dielectric constant tensor:
#      x y z
#    x 2.125180 0.000000 0.000000 
#    y 0.000000 2.157650 0.000000 
#    z 0.000000 0.000000 2.040570 
# 
# From -- ./inp_files/74220.got.cif
#   From: 2010.05.17/outbox.cif.g08.bks.cpg/sg63_38_cif.got.tgz:74220.got - 2010.06.03 15:47:04.
