data_PCOD9468749
_publ_section_title
;
Structure prediction by ZEFSAII (Michael W. Deem and Ramdas Pophale) SiO2 
 PCOD9468749
Probable space group: C M C M
;
_chemical_formula_sum "Si O2"
_cell_formula_units_Z 80
_cell_length_a 10.699193
_cell_length_b 14.565885
_cell_length_c 23.597293
_cell_angle_alpha 90.000000
_cell_angle_beta 90.000000
_cell_angle_gamma 90.000000
_cell_volume 3677.478002
_symmetry_space_group_name_H-M "C M C M"
_symmetry_group_IT_number 63
_symmetry_cell_setting 'orthorhombic'
loop_
_space_group_symop_operation_xyz
x,y,z
-x,-y,1/2+z
x,-y,-z
-x,y,1/2-z
-x,-y,-z
x,y,1/2-z
-x,y,z
x,-y,1/2+z
1/2+x,1/2+y,z
1/2-x,1/2-y,1/2+z
1/2+x,1/2-y,-z
1/2-x,1/2+y,1/2-z
1/2-x,1/2-y,-z
1/2+x,1/2+y,1/2-z
1/2-x,1/2+y,z
1/2+x,1/2-y,1/2+z
loop_
_atom_site_type_symbol
_atom_site_label
_atom_site_fract_x
_atom_site_fract_y
_atom_site_fract_z
Si Si1 0.355492 0.237641 0.250000
Si Si2 0.000000 0.729164 0.060675
Si Si3 0.247261 0.486709 0.871206
Si Si4 0.646468 0.986239 0.750000
Si Si5 0.500000 0.014102 0.433623
Si Si6 0.257893 0.237545 0.127994
Si Si7 0.500000 0.481537 0.932632
Si Si8 0.500000 0.260690 0.572653
O O1 0.500000 0.268071 0.250000
O O2 0.358149 0.125665 0.250000
O O3 0.287785 0.265712 0.192182
O O4 0.000000 0.622700 0.078090
O O5 0.127180 0.767149 0.087832
O O6 0.000000 0.733743 0.993144
O O7 0.220276 0.513799 0.806523
O O8 0.127932 0.520332 0.906643
O O9 0.247406 0.374549 0.872395
O O10 0.375781 0.515924 0.900700
O O11 0.500000 0.016034 0.750000
O O12 0.500000 0.000000 0.500000
O O13 0.125703 0.269727 0.104054
O O14 0.500000 0.371365 0.926980
O O15 0.500000 0.500000 0.000000
#
# Coordination Sequence:
#
# PCOD9468749 Si02
#       8
#     8   8  16   8   8  16   8   8
#     4   9  14  25  45  67  92 120 147 188 240 277
#     4  10  18  31  47  67  95 124 153 188 224 272
#     4   9  17  28  45  68  94 120 151 190 233 275
#     4   9  14  25  45  69  94 116 145 194 242 275
#     4  10  18  29  47  71  93 122 157 186 222 274
#     4   9  17  28  45  68  93 119 152 190 232 275
#     4  10  20  33  45  65  97 128 155 190 230 274
#     4  10  20  31  45  69  95 124 155 190 232 270
#
# _framework density 21.754038999999999
#
# number of rings (size 3 to 8) (size 9 to 14) (size 15 to 20)
#    0.000    2.600    2.000    1.200    0.000    0.800 
#    0.000    4.000    0.000    0.000    0.000    8.400 
#    0.000    0.000    0.000    0.000    0.000    0.000 
#
# Total GULP energy -223470.328450 kJ/mol
# GULP energy per Si atom -5586.758211 kJ/mol
# Density = 2.170453 g / cm^3
# Si number density = 21.754039 Si / 1000 Ang^3
#
#
#
# Elastic Constant Matrix: (Units=GPa)
#
#
# Indices 1 2 3 4 5 6 
#
# 1 267.1759 14.7817 164.0953 0.0000 0.0000 0.0000
# 2 14.7817 77.1134 -7.1583 0.0000 0.0000 0.0000
# 3 164.0953 -7.1583 243.1380 0.0000 0.0000 0.0000
# 4 0.0000 0.0000 0.0000 18.3167 0.0000 0.0000
# 5 0.0000 0.0000 0.0000 0.0000 28.6942 0.0000
# 6 0.0000 0.0000 0.0000 0.0000 0.0000 -16.2042
#
#
#
# Elastic Compliance Matrix: (Units=1/GPa)
#
#
# Indices 1 2 3 4 5 6 
#
# 1 0.006604 -0.001684 -0.004507 0.000000 0.000000 0.000000
# 2 -0.001684 0.013433 0.001532 0.000000 0.000000 0.000000
# 3 -0.004507 0.001532 0.007200 0.000000 0.000000 0.000000
# 4 0.000000 0.000000 0.000000 0.054595 0.000000 0.000000
# 5 0.000000 0.000000 0.000000 0.000000 0.034850 0.000000
# 6 0.000000 0.000000 0.000000 0.000000 0.000000 -0.061712
#
#
# Mechanical properties :
#
#
# Convention : Reuss Voigt Hill
#
# Bulk Modulus (GPa) = 55.80627 103.42942 79.61785
# Shear Modulus (GPa) = 71.16455 33.87524 52.51990
#
# Velocity S-wave (km/s) = 5.72576 3.95041 4.91884
# Velocity P-wave (km/s) = 8.33195 8.27380 8.30293
#
# Compressibility (1/GPa) = 0.01791913
#
# Stress axis : x y z
#
# Youngs Moduli (GPa) = 151.42503 74.44353 138.89775
#
# Poissons Ratio (x) = 0.12538 0.62596
# Poissons Ratio (y) = 0.25504 -0.21282
# Poissons Ratio (z) = 0.68241 -0.11406
#
# Static dielectric constant tensor:
#      x y z
#    x 1.758670 0.000000 0.000000 
#    y 0.000000 1.871340 0.000000 
#    z 0.000000 0.000000 1.733370 
# 
# From -- ./inp_files/42234.got.cif
#   From: 2010.05.17/outbox.cif.g08.bks.cpg/sg63_22_cif.got.tgz:42234.got - 2010.06.03 15:47:04.
