data_PCOD9468608
_publ_section_title
;
Structure prediction by ZEFSAII (Michael W. Deem and Ramdas Pophale) SiO2 
 PCOD9468608
Probable space group: C M C M
;
_chemical_formula_sum "Si O2"
_cell_formula_units_Z 128
_cell_length_a 12.900548
_cell_length_b 23.391615
_cell_length_c 25.895995
_cell_angle_alpha 90.000000
_cell_angle_beta 90.000000
_cell_angle_gamma 90.000000
_cell_volume 7814.495922
_symmetry_space_group_name_H-M "C M C M"
_symmetry_group_IT_number 63
_symmetry_cell_setting 'orthorhombic'
loop_
_space_group_symop_operation_xyz
x,y,z
-x,-y,1/2+z
x,-y,-z
-x,y,1/2-z
-x,-y,-z
x,y,1/2-z
-x,y,z
x,-y,1/2+z
1/2+x,1/2+y,z
1/2-x,1/2-y,1/2+z
1/2+x,1/2-y,-z
1/2-x,1/2+y,1/2-z
1/2-x,1/2-y,-z
1/2+x,1/2+y,1/2-z
1/2-x,1/2+y,z
1/2+x,1/2-y,1/2+z
loop_
_atom_site_type_symbol
_atom_site_label
_atom_site_fract_x
_atom_site_fract_y
_atom_site_fract_z
Si Si1 0.379072 0.340666 0.921178
Si Si2 0.751897 0.145960 0.526345
Si Si3 0.205986 0.375939 0.311904
Si Si4 0.783046 0.045161 0.118693
Si Si5 0.377473 0.785760 0.107702
Si Si6 0.886690 0.441321 0.530289
Si Si7 0.614568 0.999472 0.188574
Si Si8 0.122543 0.080042 0.614270
O O1 0.500000 0.345371 0.935140
O O2 0.346322 0.396636 0.888762
O O3 0.364824 0.282489 0.888876
O O4 0.313081 0.336970 0.974354
O O5 0.697470 0.194119 0.561067
O O6 0.658144 0.105880 0.507912
O O7 0.827532 0.109501 0.563614
O O8 0.209547 0.368565 0.250000
O O9 0.157886 0.322344 0.342485
O O10 0.138731 0.433041 0.324293
O O11 0.317129 0.391375 0.337315
O O12 0.698209 0.047730 0.073509
O O13 0.709887 0.036935 0.168292
O O14 0.850958 0.987662 0.113715
O O15 0.500000 0.797072 0.097544
O O16 0.895363 0.500000 0.500000
O O17 0.000000 0.424651 0.550296
O O18 0.611872 0.003285 0.250000
O O19 0.500000 0.014704 0.168136
O O20 0.000000 0.088700 0.616279
#
# Coordination Sequence:
#
# PCOD9468608 Si02
#       8
#    16  16  16  16  16  16  16  16
#     4  10  21  34  50  70 100 139 175 204 235 282
#     4  10  19  33  49  72 100 134 169 209 246 292
#     4   9  19  34  53  77 100 122 156 204 257 304
#     4  10  19  32  47  72 103 135 166 203 243 294
#     4  10  20  34  52  74  98 129 167 208 250 291
#     4  10  18  28  44  71 103 132 161 198 249 299
#     4   9  17  31  53  78 100 124 154 197 256 311
#     4  10  19  31  50  74  99 130 165 202 247 295
#
# _framework density 16.379815000000001
#
# number of rings (size 3 to 8) (size 9 to 14) (size 15 to 20)
#    0.000    2.250    1.250    2.250    0.000    1.000 
#    0.000    2.500    0.000   12.375    0.000    0.000 
#    0.000    0.000    0.000    0.000    0.000    0.000 
#
# Total GULP energy -356531.350774 kJ/mol
# GULP energy per Si atom -5570.802356 kJ/mol
# Density = 1.634253 g / cm^3
# Si number density = 16.379815 Si / 1000 Ang^3
#
#
#
# Elastic Constant Matrix: (Units=GPa)
#
#
# Indices 1 2 3 4 5 6 
#
# 1 102.8992 49.8436 23.7033 0.0000 0.0000 0.0000
# 2 49.8436 104.3022 39.7764 0.0000 0.0000 0.0000
# 3 23.7033 39.7764 57.2920 0.0000 0.0000 0.0000
# 4 0.0000 0.0000 0.0000 18.1781 0.0000 0.0000
# 5 0.0000 0.0000 0.0000 0.0000 12.1177 0.0000
# 6 0.0000 0.0000 0.0000 0.0000 0.0000 23.6517
#
#
#
# Elastic Compliance Matrix: (Units=1/GPa)
#
#
# Indices 1 2 3 4 5 6 
#
# 1 0.012730 -0.005542 -0.001419 0.000000 0.000000 0.000000
# 2 -0.005542 0.015453 -0.008436 0.000000 0.000000 0.000000
# 3 -0.001419 -0.008436 0.023898 0.000000 0.000000 0.000000
# 4 0.000000 0.000000 0.000000 0.055011 0.000000 0.000000
# 5 0.000000 0.000000 0.000000 0.000000 0.082524 0.000000
# 6 0.000000 0.000000 0.000000 0.000000 0.000000 0.042280
#
#
# Mechanical properties :
#
#
# Convention : Reuss Voigt Hill
#
# Bulk Modulus (GPa) = 46.97602 54.57110 50.77356
# Shear Modulus (GPa) = 18.53326 20.86751 19.70038
#
# Velocity S-wave (km/s) = 3.36738 3.57315 3.47179
# Velocity P-wave (km/s) = 6.62272 7.10011 6.86557
#
# Compressibility (1/GPa) = 0.02128746
#
# Stress axis : x y z
#
# Youngs Moduli (GPa) = 78.55675 64.71251 41.84427
#
# Poissons Ratio (x) = 0.35864 0.05937
# Poissons Ratio (y) = 0.43537 0.35298
# Poissons Ratio (z) = 0.11146 0.54589
#
# Static dielectric constant tensor:
#      x y z
#    x 1.556220 0.000000 0.000000 
#    y 0.000000 1.554650 0.000000 
#    z 0.000000 0.000000 1.558760 
# 
# From -- ./inp_files/62037.got.cif
#   From: 2010.05.17/outbox.cif.g08.bks.cpg/sg63_32_cif.got.tgz:62037.got - 2010.06.03 15:47:04.
