data_PCOD9468694
_publ_section_title
;
Structure prediction by ZEFSAII (Michael W. Deem and Ramdas Pophale) SiO2 
 PCOD9468694
Probable space group: C M C M
;
_chemical_formula_sum "Si O2"
_cell_formula_units_Z 64
_cell_length_a 28.460322
_cell_length_b 15.311031
_cell_length_c 8.322722
_cell_angle_alpha 90.000000
_cell_angle_beta 90.000000
_cell_angle_gamma 90.000000
_cell_volume 3626.683309
_symmetry_space_group_name_H-M "C M C M"
_symmetry_group_IT_number 63
_symmetry_cell_setting 'orthorhombic'
loop_
_space_group_symop_operation_xyz
x,y,z
-x,-y,1/2+z
x,-y,-z
-x,y,1/2-z
-x,-y,-z
x,y,1/2-z
-x,y,z
x,-y,1/2+z
1/2+x,1/2+y,z
1/2-x,1/2-y,1/2+z
1/2+x,1/2-y,-z
1/2-x,1/2+y,1/2-z
1/2-x,1/2-y,-z
1/2+x,1/2+y,1/2-z
1/2-x,1/2+y,z
1/2+x,1/2-y,1/2+z
loop_
_atom_site_type_symbol
_atom_site_label
_atom_site_fract_x
_atom_site_fract_y
_atom_site_fract_z
Si Si1 0.326594 0.403710 0.441788
Si Si2 0.863729 0.277318 0.553590
Si Si3 0.279739 0.096567 0.057421
Si Si4 0.946204 0.596722 0.055829
O O1 0.340314 0.500000 0.500000
O O2 0.327590 0.404742 0.250000
O O3 0.357885 0.322547 0.500032
O O4 0.272678 0.387236 0.493714
O O5 0.864326 0.277142 0.750000
O O6 0.817653 0.332131 0.504203
O O7 0.909758 0.329812 0.499888
O O8 0.277964 0.096555 0.250000
O O9 0.294149 0.000000 0.000000
O O10 0.946047 0.596980 0.250000
O O11 0.000000 0.611281 0.001616
O O12 0.931643 0.500000 0.000000
#
# Coordination Sequence:
#
# PCOD9468694 Si02
#       4
#    16  16  16  16
#     4  10  19  32  46  62  88 119 153 188 221 257
#     4   9  18  30  46  67  90 118 150 183 218 262
#     4  10  18  29  44  65  93 120 148 180 218 262
#     4   9  17  31  50  71  94 118 144 176 218 266
#
# _framework density 17.646977
#
# number of rings (size 3 to 8) (size 9 to 14) (size 15 to 20)
#    0.000    2.500    0.000    4.500    0.000    0.000 
#    0.000    7.500    0.000    0.750    0.000    0.000 
#    0.000    0.000    0.000    0.000    0.000    1.000 
#
# Total GULP energy -178507.485370 kJ/mol
# GULP energy per Si atom -5578.358918 kJ/mol
# Density = 1.760681 g / cm^3
# Si number density = 17.646977 Si / 1000 Ang^3
#
#
#
# Elastic Constant Matrix: (Units=GPa)
#
#
# Indices 1 2 3 4 5 6 
#
# 1 82.1684 100.3418 12.0904 0.0000 0.0000 0.0000
# 2 100.3418 178.1463 19.2768 0.0000 0.0000 0.0000
# 3 12.0904 19.2768 25.6359 0.0000 0.0000 0.0000
# 4 0.0000 0.0000 0.0000 21.7286 0.0000 0.0000
# 5 0.0000 0.0000 0.0000 0.0000 12.8778 0.0000
# 6 0.0000 0.0000 0.0000 0.0000 0.0000 33.1039
#
#
#
# Elastic Compliance Matrix: (Units=1/GPa)
#
#
# Indices 1 2 3 4 5 6 
#
# 1 0.039084 -0.021793 -0.002046 0.000000 0.000000 0.000000
# 2 -0.021793 0.018262 -0.003454 0.000000 0.000000 0.000000
# 3 -0.002046 -0.003454 0.042570 0.000000 0.000000 0.000000
# 4 0.000000 0.000000 0.000000 0.046022 0.000000 0.000000
# 5 0.000000 0.000000 0.000000 0.000000 0.077653 0.000000
# 6 0.000000 0.000000 0.000000 0.000000 0.000000 0.030208
#
#
# Mechanical properties :
#
#
# Convention : Reuss Voigt Hill
#
# Bulk Modulus (GPa) = 22.06019 61.04096 41.55057
# Shear Modulus (GPa) = 15.45617 23.82483 19.64050
#
# Velocity S-wave (km/s) = 2.96269 3.67833 3.33974
# Velocity P-wave (km/s) = 4.92254 7.25984 6.20228
#
# Compressibility (1/GPa) = 0.04533052
#
# Stress axis : x y z
#
# Youngs Moduli (GPa) = 25.58586 54.75818 23.49076
#
# Poissons Ratio (x) = 1.19334 0.04806
# Poissons Ratio (y) = 0.55759 0.08114
# Poissons Ratio (z) = 0.05234 0.18914
#
# Static dielectric constant tensor:
#      x y z
#    x 1.595040 0.000000 0.000000 
#    y 0.000000 1.612050 0.000000 
#    z 0.000000 0.000000 1.610490 
# 
# From -- ./inp_files/9611.got.cif
#   From: 2010.05.17/outbox.cif.g08.bks.cpg/sg63_5_cif.got.tgz:9611.got - 2010.06.03 15:47:04.
