data_PCOD9468026
_publ_section_title
;
Structure prediction by ZEFSAII (Michael W. Deem and Ramdas Pophale) SiO2 
 PCOD9468026
Probable space group: P N M A
;
_chemical_formula_sum "Si O2"
_cell_formula_units_Z 48
_cell_length_a 9.000000
_cell_length_b 18.000000
_cell_length_c 15.000000
_cell_angle_alpha 90.000000
_cell_angle_beta 90.000000
_cell_angle_gamma 90.000000
_cell_volume 2430.000000
_symmetry_space_group_name_H-M "P N M A"
_symmetry_group_IT_number 62
_symmetry_cell_setting 'orthorhombic'
loop_
_space_group_symop_operation_xyz
x,y,z
1/2-x,-y,1/2+z
1/2+x,1/2-y,1/2-z
-x,1/2+y,-z
-x,-y,-z
1/2+x,y,1/2-z
1/2-x,1/2+y,1/2+z
x,1/2-y,z
loop_
_atom_site_type_symbol
_atom_site_label
_atom_site_fract_x
_atom_site_fract_y
_atom_site_fract_z
Si Si1 0.560095 0.970301 0.594408
Si Si2 0.098532 0.436877 0.361067
Si Si3 0.460831 0.570825 0.243799
Si Si4 0.887895 0.838534 0.819708
Si Si5 0.205104 0.837330 0.336005
Si Si6 0.377953 0.336603 0.038824
O O1 0.739740 0.966512 0.607140
O O2 0.503269 0.887912 0.622288
O O3 0.500000 0.000000 0.500000
O O4 0.489592 0.027394 0.666600
O O5 0.991101 0.504810 0.328368
O O6 0.122318 0.380839 0.275893
O O7 0.013353 0.391017 0.437660
O O8 0.546316 0.641488 0.204592
O O9 0.307824 0.606774 0.278785
O O10 0.924075 0.750000 0.809499
O O11 0.736869 0.843057 0.878237
O O12 0.241704 0.750000 0.325025
O O13 0.199265 0.852829 0.442943
O O14 0.425775 0.250000 0.034233
#
# Coordination Sequence:
#
# PCOD9468026 Si02
#       6
#     8   8   8   8   8   8
#     4  11  24  42  64 100 136 176 222 273 334 406
#     4  11  23  40  66  99 133 177 216 270 335 410
#     4  11  23  43  64  97 130 172 220 273 333 397
#     4  10  21  39  67  99 137 177 219 273 336 400
#     4  11  24  44  67  93 127 175 229 281 337 395
#     4  10  23  42  67 101 135 171 220 277 334 397
#
# _framework density 19.753086
#
# number of rings (size 3 to 8) (size 9 to 14) (size 15 to 20)
#    0.000    1.333    1.667    4.000    2.333    4.667 
#    0.000    0.833    0.000    0.000    0.000    0.000 
#    0.000    0.000    0.000    0.000    0.000    0.000 
#
# Total GULP energy -267740.910159 kJ/mol
# GULP energy per Si atom -5577.935628 kJ/mol
# Density = 1.970813 g / cm^3
# Si number density = 19.753086 Si / 1000 Ang^3
#
#
#
# Elastic Constant Matrix: (Units=GPa)
#
#
# Indices 1 2 3 4 5 6 
#
# 1 69.6068 43.5931 41.2793 0.0000 0.0000 0.0000
# 2 43.5931 121.2226 28.0164 0.0000 0.0000 0.0000
# 3 41.2793 28.0164 63.1776 0.0000 0.0000 0.0000
# 4 0.0000 0.0000 0.0000 29.2025 0.0000 0.0000
# 5 0.0000 0.0000 0.0000 0.0000 28.1459 0.0000
# 6 0.0000 0.0000 0.0000 0.0000 0.0000 39.8244
#
#
#
# Elastic Compliance Matrix: (Units=1/GPa)
#
#
# Indices 1 2 3 4 5 6 
#
# 1 0.027205 -0.006323 -0.014971 0.000000 0.000000 0.000000
# 2 -0.006323 0.010661 -0.000596 0.000000 0.000000 0.000000
# 3 -0.014971 -0.000596 0.025875 0.000000 0.000000 0.000000
# 4 0.000000 0.000000 0.000000 0.034244 0.000000 0.000000
# 5 0.000000 0.000000 0.000000 0.000000 0.035529 0.000000
# 6 0.000000 0.000000 0.000000 0.000000 0.000000 0.025110
#
#
# Mechanical properties :
#
#
# Convention : Reuss Voigt Hill
#
# Bulk Modulus (GPa) = 50.10157 53.30939 51.70548
# Shear Modulus (GPa) = 23.91680 28.84245 26.37962
#
# Velocity S-wave (km/s) = 3.48341 3.82533 3.65837
# Velocity P-wave (km/s) = 6.44964 6.82330 6.63910
#
# Compressibility (1/GPa) = 0.01995946
#
# Stress axis : x y z
#
# Youngs Moduli (GPa) = 36.75804 93.80017 38.64768
#
# Poissons Ratio (x) = 0.59311 0.57860
# Poissons Ratio (y) = 0.23243 0.02304
# Poissons Ratio (z) = 0.55031 0.05592
#
# Static dielectric constant tensor:
#      x y z
#    x 1.736590 0.000000 0.000000 
#    y 0.000000 1.705440 0.000000 
#    z 0.000000 0.000000 1.691440 
# 
# From -- ./inp_files/16917.got.cif
#   From: 2010.05.17/outbox.ucp.g08.bks.cvg/sg62_9_cif.got.tgz:16917.got - 2010.06.11 16:29:25.
