data_PCOD9468203
_publ_section_title
;
Structure prediction by ZEFSAII (Michael W. Deem and Ramdas Pophale) SiO2 
 PCOD9468203
Probable space group: C M C M
;
_chemical_formula_sum "Si O2"
_cell_formula_units_Z 96
_cell_length_a 27.231041
_cell_length_b 16.247171
_cell_length_c 15.437538
_cell_angle_alpha 90.000000
_cell_angle_beta 90.000000
_cell_angle_gamma 90.000000
_cell_volume 6829.989485
_symmetry_space_group_name_H-M "C M C M"
_symmetry_group_IT_number 63
_symmetry_cell_setting 'orthorhombic'
loop_
_space_group_symop_operation_xyz
x,y,z
-x,-y,1/2+z
x,-y,-z
-x,y,1/2-z
-x,-y,-z
x,y,1/2-z
-x,y,z
x,-y,1/2+z
1/2+x,1/2+y,z
1/2-x,1/2-y,1/2+z
1/2+x,1/2-y,-z
1/2-x,1/2+y,1/2-z
1/2-x,1/2-y,-z
1/2+x,1/2+y,1/2-z
1/2-x,1/2+y,z
1/2+x,1/2-y,1/2+z
loop_
_atom_site_type_symbol
_atom_site_label
_atom_site_fract_x
_atom_site_fract_y
_atom_site_fract_z
Si Si1 0.211360 0.536003 0.750000
Si Si2 0.268747 0.773888 0.250000
Si Si3 0.639416 0.799592 0.935944
Si Si4 0.293485 0.711767 0.439239
Si Si5 0.610364 0.967136 0.750000
Si Si6 0.157367 0.285681 0.750000
Si Si7 0.272593 0.935224 0.923485
Si Si8 0.057787 0.430493 0.572204
O O1 0.233139 0.627270 0.750000
O O2 0.151657 0.537524 0.750000
O O3 0.226545 0.485304 0.665387
O O4 0.292417 0.746937 0.341540
O O5 0.215256 0.731131 0.250000
O O6 0.637799 0.754690 0.842475
O O7 0.682218 0.870055 0.926912
O O8 0.589640 0.849827 0.950284
O O9 0.657465 0.738733 0.010932
O O10 0.250000 0.750000 0.500000
O O11 0.277284 0.616977 0.433587
O O12 0.641030 0.881311 0.750000
O O13 0.578066 0.964396 0.663718
O O14 0.279061 0.000000 0.000000
O O15 0.065894 0.500000 0.500000
O O16 0.000000 0.412892 0.578246
#
# Coordination Sequence:
#
# PCOD9468203 Si02
#       8
#     8   8  16  16   8   8  16  16
#     4  12  20  27  44  65  89 126 152 191 206 269
#     4  12  20  28  42  66  88 123 159 178 223 252
#     4  10  18  31  46  61  87 120 151 185 225 267
#     4  10  19  30  43  61  88 119 150 187 218 265
#     4  10  19  32  46  64  87 121 156 186 229 266
#     4  10  16  31  44  57  88 116 147 187 217 259
#     4  11  19  29  43  64  89 120 153 185 217 261
#     4  10  20  32  48  65  88 116 152 200 236 267
#
# _framework density 14.055659
#
# number of rings (size 3 to 8) (size 9 to 14) (size 15 to 20)
#    0.000    1.500    6.667    3.250    2.333    0.000 
#    0.000    0.000    0.000    0.000    0.000    0.000 
#    0.000    0.667    0.000    0.000    0.000    0.000 
#
# Total GULP energy -267386.787785 kJ/mol
# GULP energy per Si atom -5570.558079 kJ/mol
# Density = 1.402367 g / cm^3
# Si number density = 14.055659 Si / 1000 Ang^3
#
#
#
# Elastic Constant Matrix: (Units=GPa)
#
#
# Indices 1 2 3 4 5 6 
#
# 1 79.2944 26.6333 43.8566 0.0000 0.0000 0.0000
# 2 26.6333 39.9121 28.4957 0.0000 0.0000 0.0000
# 3 43.8566 28.4957 117.2144 0.0000 0.0000 0.0000
# 4 0.0000 0.0000 0.0000 15.2133 0.0000 0.0000
# 5 0.0000 0.0000 0.0000 0.0000 18.2615 0.0000
# 6 0.0000 0.0000 0.0000 0.0000 0.0000 13.6753
#
#
#
# Elastic Compliance Matrix: (Units=1/GPa)
#
#
# Indices 1 2 3 4 5 6 
#
# 1 0.018132 -0.008780 -0.004650 0.000000 0.000000 0.000000
# 2 -0.008780 0.034568 -0.005119 0.000000 0.000000 0.000000
# 3 -0.004650 -0.005119 0.011516 0.000000 0.000000 0.000000
# 4 0.000000 0.000000 0.000000 0.065732 0.000000 0.000000
# 5 0.000000 0.000000 0.000000 0.000000 0.054760 0.000000
# 6 0.000000 0.000000 0.000000 0.000000 0.000000 0.073124
#
#
# Mechanical properties :
#
#
# Convention : Reuss Voigt Hill
#
# Bulk Modulus (GPa) = 36.87413 48.26577 42.56995
# Shear Modulus (GPa) = 16.44908 18.59238 17.52073
#
# Velocity S-wave (km/s) = 3.42465 3.64093 3.53445
# Velocity P-wave (km/s) = 6.47526 7.21726 6.85630
#
# Compressibility (1/GPa) = 0.02711928
#
# Stress axis : x y z
#
# Youngs Moduli (GPa) = 55.15166 28.92817 86.83910
#
# Poissons Ratio (x) = 0.25398 0.40378
# Poissons Ratio (y) = 0.48421 0.44452
# Poissons Ratio (z) = 0.25644 0.14808
#
# Static dielectric constant tensor:
#      x y z
#    x 1.456590 0.000000 0.000000 
#    y 0.000000 1.457190 0.000000 
#    z 0.000000 0.000000 1.481790 
# 
# From -- ./inp_files/37903.got.cif
#   From: 2010.05.17/outbox.cif.g08.bks.cpg/sg63_19_cif.got.tgz:37903.got - 2010.06.03 15:47:04.
