data_PCOD9468970
_publ_section_title
;
Structure prediction by ZEFSAII (Michael W. Deem and Ramdas Pophale) SiO2 
 PCOD9468970
Probable space group: C M C M
;
_chemical_formula_sum "Si O2"
_cell_formula_units_Z 96
_cell_length_a 24.442216
_cell_length_b 22.235296
_cell_length_c 7.607297
_cell_angle_alpha 90.000000
_cell_angle_beta 90.000000
_cell_angle_gamma 90.000000
_cell_volume 4134.413071
_symmetry_space_group_name_H-M "C M C M"
_symmetry_group_IT_number 63
_symmetry_cell_setting 'orthorhombic'
loop_
_space_group_symop_operation_xyz
x,y,z
-x,-y,1/2+z
x,-y,-z
-x,y,1/2-z
-x,-y,-z
x,y,1/2-z
-x,y,z
x,-y,1/2+z
1/2+x,1/2+y,z
1/2-x,1/2-y,1/2+z
1/2+x,1/2-y,-z
1/2-x,1/2+y,1/2-z
1/2-x,1/2-y,-z
1/2+x,1/2+y,1/2-z
1/2-x,1/2+y,z
1/2+x,1/2-y,1/2+z
loop_
_atom_site_type_symbol
_atom_site_label
_atom_site_fract_x
_atom_site_fract_y
_atom_site_fract_z
Si Si1 0.000000 0.414249 0.948905
Si Si2 0.666389 0.357914 0.956920
Si Si3 0.061087 0.929345 0.538439
Si Si4 0.617356 0.098954 0.034049
Si Si5 0.882594 0.737653 0.041973
Si Si6 0.764714 0.434554 0.539829
Si Si7 0.500000 0.777479 0.046408
O O1 0.059332 0.427604 0.030184
O O2 0.000000 0.438093 0.750000
O O3 0.000000 0.340680 0.942425
O O4 0.667111 0.372339 0.750000
O O5 0.612104 0.390538 0.030739
O O6 0.722741 0.384769 0.029482
O O7 0.659311 0.286775 0.974228
O O8 0.059662 0.921858 0.750000
O O9 0.000000 0.913429 0.472085
O O10 0.069953 0.000000 0.500000
O O11 0.614367 0.097650 0.250000
O O12 0.622120 0.169012 0.979115
O O13 0.673220 0.068962 0.971658
O O14 0.877260 0.735901 0.250000
O O15 0.944380 0.757006 0.993941
O O16 0.741131 0.500000 0.500000
O O17 0.769716 0.427164 0.750000
O O18 0.500000 0.794036 0.250000
#
# Coordination Sequence:
#
# PCOD9468970 Si02
#       7
#     8  16  16  16  16  16   8
#     4   8  14  30  55  79 105 139 175 208 261 324
#     4  10  21  34  50  75 106 141 177 223 276 320
#     4   9  18  32  48  67  94 130 172 218 265 307
#     4   8  16  33  56  79 107 141 175 218 268 325
#     4  10  20  34  53  79 108 143 184 221 263 322
#     4  10  21  38  57  77 104 140 183 226 275 326
#     4  10  18  30  50  77 112 145 173 212 265 316
#
# _framework density 23.219740000000002
#
# number of rings (size 3 to 8) (size 9 to 14) (size 15 to 20)
#    0.000    2.667    0.000    2.750    1.167    2.000 
#    0.000    4.583    0.000    0.000    0.000    0.000 
#    0.000    0.000    0.000    0.000    0.000    0.000 
#
# Total GULP energy -267973.421303 kJ/mol
# GULP energy per Si atom -5582.779610 kJ/mol
# Density = 2.316689 g / cm^3
# Si number density = 23.219740 Si / 1000 Ang^3
#
#
#
# Elastic Constant Matrix: (Units=GPa)
#
#
# Indices 1 2 3 4 5 6 
#
# 1 117.0600 49.0947 16.7737 0.0000 0.0000 0.0000
# 2 49.0947 76.5567 -13.3471 0.0000 0.0000 0.0000
# 3 16.7737 -13.3471 36.4508 0.0000 0.0000 0.0000
# 4 0.0000 0.0000 0.0000 1.7405 0.0000 0.0000
# 5 0.0000 0.0000 0.0000 0.0000 17.3738 0.0000
# 6 0.0000 0.0000 0.0000 0.0000 0.0000 26.0104
#
#
#
# Elastic Compliance Matrix: (Units=1/GPa)
#
#
# Indices 1 2 3 4 5 6 
#
# 1 0.014977 -0.011543 -0.011119 0.000000 0.000000 0.000000
# 2 -0.011543 0.022849 0.013678 0.000000 0.000000 0.000000
# 3 -0.011119 0.013678 0.037559 0.000000 0.000000 0.000000
# 4 0.000000 0.000000 0.000000 0.574546 0.000000 0.000000
# 5 0.000000 0.000000 0.000000 0.000000 0.057558 0.000000
# 6 0.000000 0.000000 0.000000 0.000000 0.000000 0.038446
#
#
# Mechanical properties :
#
#
# Convention : Reuss Voigt Hill
#
# Bulk Modulus (GPa) = 17.41575 37.23442 27.32508
# Shear Modulus (GPa) = 6.38536 20.86134 13.62335
#
# Velocity S-wave (km/s) = 1.66010 3.00064 2.42485
# Velocity P-wave (km/s) = 3.34534 5.29864 4.43096
#
# Compressibility (1/GPa) = 0.05741931
#
# Stress axis : x y z
#
# Youngs Moduli (GPa) = 66.76949 43.76509 26.62451
#
# Poissons Ratio (x) = 0.50518 0.29603
# Poissons Ratio (y) = 0.77071 -0.36418
# Poissons Ratio (z) = 0.74238 -0.59864
#
# Static dielectric constant tensor:
#      x y z
#    x 1.910840 0.000000 0.000000 
#    y 0.000000 1.860100 0.000000 
#    z 0.000000 0.000000 1.841640 
# 
# From -- ./inp_files/10574.got.cif
#   From: 2010.05.17/outbox.cif.g08.bks.cpg/sg63_6_cif.got.tgz:10574.got - 2010.06.03 15:47:04.
