data_PCOD9468774
_publ_section_title
;
Structure prediction by ZEFSAII (Michael W. Deem and Ramdas Pophale) SiO2 
 PCOD9468774
Probable space group: C M C M
;
_chemical_formula_sum "Si O2"
_cell_formula_units_Z 64
_cell_length_a 27.936300
_cell_length_b 18.745027
_cell_length_c 5.494778
_cell_angle_alpha 90.000000
_cell_angle_beta 90.000000
_cell_angle_gamma 90.000000
_cell_volume 2877.432250
_symmetry_space_group_name_H-M "C M C M"
_symmetry_group_IT_number 63
_symmetry_cell_setting 'orthorhombic'
loop_
_space_group_symop_operation_xyz
x,y,z
-x,-y,1/2+z
x,-y,-z
-x,y,1/2-z
-x,-y,-z
x,y,1/2-z
-x,y,z
x,-y,1/2+z
1/2+x,1/2+y,z
1/2-x,1/2-y,1/2+z
1/2+x,1/2-y,-z
1/2-x,1/2+y,1/2-z
1/2-x,1/2-y,-z
1/2+x,1/2+y,1/2-z
1/2-x,1/2+y,z
1/2+x,1/2-y,1/2+z
loop_
_atom_site_type_symbol
_atom_site_label
_atom_site_fract_x
_atom_site_fract_y
_atom_site_fract_z
Si Si1 0.576998 0.225399 0.750000
Si Si2 0.445135 0.391855 0.750000
Si Si3 0.946154 0.270062 0.750000
Si Si4 0.105842 0.120881 0.750000
Si Si5 0.301051 0.457847 0.250000
Si Si6 0.728586 0.165711 0.250000
Si Si7 0.302695 0.005086 0.250000
Si Si8 0.689633 0.234737 0.750000
O O1 0.553825 0.304708 0.750000
O O2 0.561857 0.189028 0.500078
O O3 0.633238 0.237974 0.750000
O O4 0.500000 0.417680 0.750000
O O5 0.417567 0.410178 0.498703
O O6 0.908783 0.204241 0.750000
O O7 0.000000 0.240035 0.750000
O O8 0.162781 0.108592 0.750000
O O9 0.311796 0.500000 0.500000
O O10 0.243026 0.450984 0.250000
O O11 0.721681 0.082142 0.250000
O O12 0.705978 0.197060 0.498483
O O13 0.783807 0.189262 0.250000
O O14 0.330538 0.000000 0.500000
#
# Coordination Sequence:
#
# PCOD9468774 Si02
#       8
#     8   8   8   8   8   8   8   8
#     4  10  18  29  48  74  98 128 178 209 246 315
#     4  10  19  32  51  72  97 131 168 209 262 316
#     4  10  19  31  49  73 103 137 172 213 263 316
#     4  10  18  30  48  65  88 120 159 209 253 301
#     4  10  21  34  47  68  90 113 158 216 266 300
#     4  10  21  38  53  75 110 135 174 229 284 341
#     4  10  21  35  55  77 100 134 174 217 272 319
#     4  10  21  35  55  78 103 142 175 222 286 330
#
# _framework density 22.242054
#
# number of rings (size 3 to 8) (size 9 to 14) (size 15 to 20)
#    0.000    2.000    0.000    6.000    0.000    8.000 
#    0.000    2.500    0.000   12.750    0.000    0.000 
#    0.000    0.000    0.000    0.000    0.000  257.500 
#
# Total GULP energy -178689.502383 kJ/mol
# GULP energy per Si atom -5584.046949 kJ/mol
# Density = 2.219143 g / cm^3
# Si number density = 22.242054 Si / 1000 Ang^3
#
#
#
# Elastic Constant Matrix: (Units=GPa)
#
#
# Indices 1 2 3 4 5 6 
#
# 1 61.6479 -6.6017 20.6154 0.0000 0.0000 0.0000
# 2 -6.6017 23.5741 9.9011 0.0000 0.0000 0.0000
# 3 20.6154 9.9011 258.7660 0.0000 0.0000 0.0000
# 4 0.0000 0.0000 0.0000 13.2416 0.0000 0.0000
# 5 0.0000 0.0000 0.0000 0.0000 26.2719 0.0000
# 6 0.0000 0.0000 0.0000 0.0000 0.0000 9.2630
#
#
#
# Elastic Compliance Matrix: (Units=1/GPa)
#
#
# Indices 1 2 3 4 5 6 
#
# 1 0.017346 0.005527 -0.001593 0.000000 0.000000 0.000000
# 2 0.005527 0.044873 -0.002157 0.000000 0.000000 0.000000
# 3 -0.001593 -0.002157 0.004074 0.000000 0.000000 0.000000
# 4 0.000000 0.000000 0.000000 0.075520 0.000000 0.000000
# 5 0.000000 0.000000 0.000000 0.000000 0.038063 0.000000
# 6 0.000000 0.000000 0.000000 0.000000 0.000000 0.107957
#
#
# Mechanical properties :
#
#
# Convention : Reuss Voigt Hill
#
# Bulk Modulus (GPa) = 14.31737 43.53527 28.92632
# Shear Modulus (GPa) = 16.25688 31.09352 23.67520
#
# Velocity S-wave (km/s) = 2.70646 3.74299 3.26611
# Velocity P-wave (km/s) = 4.02711 6.18836 5.22080
#
# Compressibility (1/GPa) = 0.06984525
#
# Stress axis : x y z
#
# Youngs Moduli (GPa) = 57.65077 22.28502 245.46020
#
# Poissons Ratio (x) = -0.12316 0.39111
# Poissons Ratio (y) = -0.31862 0.52952
# Poissons Ratio (z) = 0.09186 0.04807
#
# Static dielectric constant tensor:
#      x y z
#    x 1.794080 0.000000 0.000000 
#    y 0.000000 1.817180 0.000000 
#    z 0.000000 0.000000 1.983420 
# 
# From -- ./inp_files/1259.got.cif
#   From: 2010.05.17/outbox.cif.g08.bks.cpg/sg63_1_cif.got.tgz:1259.got - 2010.06.03 15:47:04.
