data_PCOD9468304
_publ_section_title
;
Structure prediction by ZEFSAII (Michael W. Deem and Ramdas Pophale) SiO2 
 PCOD9468304
Probable space group: C M C M
;
_chemical_formula_sum "Si O2"
_cell_formula_units_Z 96
_cell_length_a 7.511923
_cell_length_b 24.231718
_cell_length_c 27.130541
_cell_angle_alpha 90.000000
_cell_angle_beta 90.000000
_cell_angle_gamma 90.000000
_cell_volume 4938.485554
_symmetry_space_group_name_H-M "C M C M"
_symmetry_group_IT_number 63
_symmetry_cell_setting 'orthorhombic'
loop_
_space_group_symop_operation_xyz
x,y,z
-x,-y,1/2+z
x,-y,-z
-x,y,1/2-z
-x,-y,-z
x,y,1/2-z
-x,y,z
x,-y,1/2+z
1/2+x,1/2+y,z
1/2-x,1/2-y,1/2+z
1/2+x,1/2-y,-z
1/2-x,1/2+y,1/2-z
1/2-x,1/2-y,-z
1/2+x,1/2+y,1/2-z
1/2-x,1/2+y,z
1/2+x,1/2-y,1/2+z
loop_
_atom_site_type_symbol
_atom_site_label
_atom_site_fract_x
_atom_site_fract_y
_atom_site_fract_z
Si Si1 0.798570 0.755050 0.368613
Si Si2 0.712807 0.079828 0.395968
Si Si3 0.789264 0.027515 0.949801
Si Si4 0.781952 0.654766 0.306051
Si Si5 0.780827 0.151588 0.565962
Si Si6 0.794879 0.818134 0.959218
O O1 0.718562 0.713373 0.328570
O O2 0.718827 0.812477 0.387467
O O3 0.803627 0.718070 0.418548
O O4 0.000000 0.766640 0.352116
O O5 0.500000 0.084168 0.398117
O O6 0.772169 0.107054 0.344435
O O7 0.787208 0.119060 0.439155
O O8 0.763650 0.017288 0.406945
O O9 0.720774 0.088290 0.936777
O O10 0.000000 0.034839 0.957887
O O11 0.714801 0.000000 0.000000
O O12 0.725820 0.646377 0.250000
O O13 0.000000 0.656039 0.306838
O O14 0.726192 0.180882 0.514774
O O15 0.000000 0.152757 0.566418
O O16 0.000000 0.800459 0.959122
#
# Coordination Sequence:
#
# PCOD9468304 Si02
#       6
#    16  16  16  16  16  16
#     4   9  17  29  45  67  90 113 150 192 225 261
#     4  10  19  30  46  70  93 116 156 202 229 256
#     4  10  18  31  47  63  92 134 162 178 220 283
#     4   8  15  29  49  69  88 112 145 190 242 282
#     4   9  17  28  43  63  91 126 155 179 216 271
#     4  10  17  28  44  63  92 126 153 177 222 278
#
# _framework density 19.439157999999999
#
# number of rings (size 3 to 8) (size 9 to 14) (size 15 to 20)
#    0.000    2.667    1.667    2.500    0.000    0.333 
#    0.000    1.667    0.000   13.500    0.000    2.333 
#    0.000    0.000    0.000    0.000    0.000    0.000 
#
# Total GULP energy -267709.662276 kJ/mol
# GULP energy per Si atom -5577.284631 kJ/mol
# Density = 1.939491 g / cm^3
# Si number density = 19.439158 Si / 1000 Ang^3
#
#
#
# Elastic Constant Matrix: (Units=GPa)
#
#
# Indices 1 2 3 4 5 6 
#
# 1 53.5798 -2.0756 -9.0767 0.0000 0.0000 0.0000
# 2 -2.0756 103.9529 33.7329 0.0000 0.0000 0.0000
# 3 -9.0767 33.7329 94.5246 0.0000 0.0000 0.0000
# 4 0.0000 0.0000 0.0000 16.6711 0.0000 0.0000
# 5 0.0000 0.0000 0.0000 0.0000 9.8032 0.0000
# 6 0.0000 0.0000 0.0000 0.0000 0.0000 -39.2575
#
#
#
# Elastic Compliance Matrix: (Units=1/GPa)
#
#
# Indices 1 2 3 4 5 6 
#
# 1 0.018978 -0.000240 0.001908 0.000000 0.000000 0.000000
# 2 -0.000240 0.010883 -0.003907 0.000000 0.000000 0.000000
# 3 0.001908 -0.003907 0.012157 0.000000 0.000000 0.000000
# 4 0.000000 0.000000 0.000000 0.059984 0.000000 0.000000
# 5 0.000000 0.000000 0.000000 0.000000 0.102007 0.000000
# 6 0.000000 0.000000 0.000000 0.000000 0.000000 -0.025473
#
#
# Mechanical properties :
#
#
# Convention : Reuss Voigt Hill
#
# Bulk Modulus (GPa) = 26.63886 33.02428 29.83157
# Shear Modulus (GPa) = 25.57200 12.74183 19.15691
#
# Velocity S-wave (km/s) = 3.63090 2.56300 3.14264
# Velocity P-wave (km/s) = 5.59566 5.07780 5.34301
#
# Compressibility (1/GPa) = 0.03753915
#
# Stress axis : x y z
#
# Youngs Moduli (GPa) = 52.69350 91.88902 82.25932
#
# Poissons Ratio (x) = 0.02208 -0.15696
# Poissons Ratio (y) = 0.01266 0.32137
# Poissons Ratio (z) = -0.10054 0.35899
#
# Static dielectric constant tensor:
#      x y z
#    x 1.735620 0.000000 0.000000 
#    y 0.000000 1.717880 0.000000 
#    z 0.000000 0.000000 1.660600 
# 
# From -- ./inp_files/67177.got.cif
#   From: 2010.05.17/outbox.cif.g08.bks.cpg/sg63_34_cif.got.tgz:67177.got - 2010.06.03 15:47:04.
