data_PCOD9468745
_publ_section_title
;
Structure prediction by ZEFSAII (Michael W. Deem and Ramdas Pophale) SiO2 
 PCOD9468745
Probable space group: C M C M
;
_chemical_formula_sum "Si O2"
_cell_formula_units_Z 96
_cell_length_a 7.313139
_cell_length_b 28.004299
_cell_length_c 19.719047
_cell_angle_alpha 90.000000
_cell_angle_beta 90.000000
_cell_angle_gamma 90.000000
_cell_volume 4038.447637
_symmetry_space_group_name_H-M "C M C M"
_symmetry_group_IT_number 63
_symmetry_cell_setting 'orthorhombic'
loop_
_space_group_symop_operation_xyz
x,y,z
-x,-y,1/2+z
x,-y,-z
-x,y,1/2-z
-x,-y,-z
x,y,1/2-z
-x,y,z
x,-y,1/2+z
1/2+x,1/2+y,z
1/2-x,1/2-y,1/2+z
1/2+x,1/2-y,-z
1/2-x,1/2+y,1/2-z
1/2-x,1/2-y,-z
1/2+x,1/2+y,1/2-z
1/2-x,1/2+y,z
1/2+x,1/2-y,1/2+z
loop_
_atom_site_type_symbol
_atom_site_label
_atom_site_fract_x
_atom_site_fract_y
_atom_site_fract_z
Si Si1 0.277292 0.044361 0.172423
Si Si2 0.722872 0.098598 0.458299
Si Si3 0.782260 0.703462 0.454739
Si Si4 0.720430 0.364486 0.328878
Si Si5 0.207869 0.543957 0.584178
Si Si6 0.777071 0.757102 0.327007
O O1 0.213648 0.048553 0.250000
O O2 0.500000 0.043280 0.176032
O O3 0.228632 0.085678 0.118853
O O4 0.214164 0.995868 0.134565
O O5 0.500000 0.097483 0.462739
O O6 0.786942 0.151784 0.477584
O O7 0.788472 0.058526 0.511397
O O8 0.750000 0.750000 0.500000
O O9 0.714629 0.718115 0.380292
O O10 0.000000 0.698082 0.450571
O O11 0.770999 0.371660 0.250000
O O12 0.500000 0.366349 0.332686
O O13 0.794636 0.406207 0.375227
O O14 0.777940 0.310802 0.348274
O O15 0.000000 0.527766 0.571482
O O16 0.718931 0.749025 0.250000
O O17 0.000000 0.757206 0.326952
#
# Coordination Sequence:
#
# PCOD9468745 Si02
#       6
#    16  16  16  16  16  16
#     4   9  17  29  46  69  95 123 157 194 230 270
#     4   9  18  30  45  68  96 123 152 191 235 274
#     4  10  19  31  49  71  94 122 155 191 232 276
#     4   9  17  29  45  66  93 123 154 191 233 273
#     4  10  18  29  47  70  96 123 151 187 233 280
#     4   8  15  28  45  65  89 119 156 194 230 270
#
# _framework density 23.771509999999999
#
# number of rings (size 3 to 8) (size 9 to 14) (size 15 to 20)
#    0.000    2.833    0.000    3.000    0.000    3.667 
#    0.000    3.333    0.000    4.500    0.000    0.000 
#    0.000    0.000    0.000    0.000    0.000    0.000 
#
# Total GULP energy -268140.913520 kJ/mol
# GULP energy per Si atom -5586.269032 kJ/mol
# Density = 2.371740 g / cm^3
# Si number density = 23.771510 Si / 1000 Ang^3
#
#
#
# Elastic Constant Matrix: (Units=GPa)
#
#
# Indices 1 2 3 4 5 6 
#
# 1 95.8947 -1.3239 0.2011 0.0000 0.0000 0.0000
# 2 -1.3239 110.5700 58.2603 0.0000 0.0000 0.0000
# 3 0.2011 58.2603 133.6071 0.0000 0.0000 0.0000
# 4 0.0000 0.0000 0.0000 44.2806 0.0000 0.0000
# 5 0.0000 0.0000 0.0000 0.0000 -5.5543 0.0000
# 6 0.0000 0.0000 0.0000 0.0000 0.0000 6.8959
#
#
#
# Elastic Compliance Matrix: (Units=1/GPa)
#
#
# Indices 1 2 3 4 5 6 
#
# 1 0.010431 0.000173 -0.000091 0.000000 0.000000 0.000000
# 2 0.000173 0.011745 -0.005122 0.000000 0.000000 0.000000
# 3 -0.000091 -0.005122 0.009718 0.000000 0.000000 0.000000
# 4 0.000000 0.000000 0.000000 0.022583 0.000000 0.000000
# 5 0.000000 0.000000 0.000000 0.000000 -0.180041 0.000000
# 6 0.000000 0.000000 0.000000 0.000000 0.000000 0.145013
#
#
# Mechanical properties :
#
#
# Convention : Reuss Voigt Hill
#
# Bulk Modulus (GPa) = 45.84243 50.48297 48.16270
# Shear Modulus (GPa) = 135.86918 27.98673 81.92796
#
# Velocity S-wave (km/s) = 7.56838 3.43494 5.87704
# Velocity P-wave (km/s) = 9.78265 6.08396 8.14601
#
# Compressibility (1/GPa) = 0.02181385
#
# Stress axis : x y z
#
# Youngs Moduli (GPa) = 95.87099 85.14436 102.90076
#
# Poissons Ratio (x) = -0.01472 0.00937
# Poissons Ratio (y) = -0.01658 0.52702
# Poissons Ratio (z) = 0.00873 0.43608
#
# Static dielectric constant tensor:
#      x y z
#    x 1.888670 0.000000 0.000000 
#    y 0.000000 1.896390 0.000000 
#    z 0.000000 0.000000 1.886240 
# 
# From -- ./inp_files/42671.got.cif
#   From: 2010.05.17/outbox.cif.g08.bks.cpg/sg63_22_cif.got.tgz:42671.got - 2010.06.03 15:47:04.
