data_PCOD9468603
_publ_section_title
;
Structure prediction by ZEFSAII (Michael W. Deem and Ramdas Pophale) SiO2 
 PCOD9468603
Probable space group: C M C M
;
_chemical_formula_sum "Si O2"
_cell_formula_units_Z 96
_cell_length_a 7.330009
_cell_length_b 30.964475
_cell_length_c 20.056983
_cell_angle_alpha 90.000000
_cell_angle_beta 90.000000
_cell_angle_gamma 90.000000
_cell_volume 4552.331033
_symmetry_space_group_name_H-M "C M C M"
_symmetry_group_IT_number 63
_symmetry_cell_setting 'orthorhombic'
loop_
_space_group_symop_operation_xyz
x,y,z
-x,-y,1/2+z
x,-y,-z
-x,y,1/2-z
-x,-y,-z
x,y,1/2-z
-x,y,z
x,-y,1/2+z
1/2+x,1/2+y,z
1/2-x,1/2-y,1/2+z
1/2+x,1/2-y,-z
1/2-x,1/2+y,1/2-z
1/2-x,1/2-y,-z
1/2+x,1/2+y,1/2-z
1/2-x,1/2+y,z
1/2+x,1/2-y,1/2+z
loop_
_atom_site_type_symbol
_atom_site_label
_atom_site_fract_x
_atom_site_fract_y
_atom_site_fract_z
Si Si1 0.276892 0.618970 0.436035
Si Si2 0.719506 0.785484 0.325422
Si Si3 0.221913 0.979930 0.570910
Si Si4 0.276996 0.552823 0.673581
Si Si5 0.786989 0.132786 0.585498
Si Si6 0.277753 0.312705 0.825999
O O1 0.500000 0.619891 0.434800
O O2 0.221236 0.569664 0.422583
O O3 0.214632 0.631752 0.510376
O O4 0.215996 0.652735 0.380123
O O5 0.781380 0.796516 0.250000
O O6 0.500000 0.784996 0.324015
O O7 0.773245 0.821378 0.378370
O O8 0.779181 0.736600 0.340980
O O9 0.000000 0.980018 0.570094
O O10 0.279591 0.000000 0.500000
O O11 0.278240 0.011065 0.630961
O O12 0.216592 0.552481 0.750000
O O13 0.500000 0.553333 0.674914
O O14 0.213669 0.595361 0.633800
O O15 0.000000 0.122101 0.578030
O O16 0.222907 0.322870 0.750000
O O17 0.500000 0.312764 0.826615
#
# Coordination Sequence:
#
# PCOD9468603 Si02
#       6
#    16  16  16  16  16  16
#     4   9  16  25  41  63  87 116 149 184 224 266
#     4   9  18  32  47  62  86 120 152 185 225 263
#     4   9  14  23  36  53  83 118 144 170 213 264
#     4   9  16  24  36  58  87 116 145 178 216 260
#     4  10  18  28  44  68  95 119 144 180 225 270
#     4   8  15  28  43  59  82 114 152 190 223 258
#
# _framework density 21.088096
#
# number of rings (size 3 to 8) (size 9 to 14) (size 15 to 20)
#    0.000    3.000    1.667    1.500    0.000    2.333 
#    0.000    3.333    0.000    0.000    0.000    2.333 
#    0.000    0.000    0.000    4.667    0.000    5.333 
#
# Total GULP energy -268010.894430 kJ/mol
# GULP energy per Si atom -5583.560301 kJ/mol
# Density = 2.104010 g / cm^3
# Si number density = 21.088096 Si / 1000 Ang^3
#
#
#
# Elastic Constant Matrix: (Units=GPa)
#
#
# Indices 1 2 3 4 5 6 
#
# 1 78.3562 -4.0542 4.2239 0.0000 0.0000 0.0000
# 2 -4.0542 194.2161 157.4422 0.0000 0.0000 0.0000
# 3 4.2239 157.4422 225.9817 0.0000 0.0000 0.0000
# 4 0.0000 0.0000 0.0000 43.9715 0.0000 0.0000
# 5 0.0000 0.0000 0.0000 0.0000 -5.3294 0.0000
# 6 0.0000 0.0000 0.0000 0.0000 0.0000 3.9369
#
#
#
# Elastic Compliance Matrix: (Units=1/GPa)
#
#
# Indices 1 2 3 4 5 6 
#
# 1 0.012870 0.001065 -0.000983 0.000000 0.000000 0.000000
# 2 0.001065 0.011919 -0.008324 0.000000 0.000000 0.000000
# 3 -0.000983 -0.008324 0.010243 0.000000 0.000000 0.000000
# 4 0.000000 0.000000 0.000000 0.022742 0.000000 0.000000
# 5 0.000000 0.000000 0.000000 0.000000 -0.187639 0.000000
# 6 0.000000 0.000000 0.000000 0.000000 0.000000 0.254005
#
#
# Mechanical properties :
#
#
# Convention : Reuss Voigt Hill
#
# Bulk Modulus (GPa) = 53.90998 90.41976 72.16487
# Shear Modulus (GPa) = 34.05865 31.24527 32.65196
#
# Velocity S-wave (km/s) = 4.02315 3.85340 3.93919
# Velocity P-wave (km/s) = 6.87027 7.92266 7.41516
#
# Compressibility (1/GPa) = 0.01854944
#
# Stress axis : x y z
#
# Youngs Moduli (GPa) = 77.69803 83.90008 97.62967
#
# Poissons Ratio (x) = -0.08939 0.09595
# Poissons Ratio (y) = -0.08278 0.81266
# Poissons Ratio (z) = 0.07636 0.69837
#
# Static dielectric constant tensor:
#      x y z
#    x 1.852310 0.000000 0.000000 
#    y 0.000000 1.709410 0.000000 
#    z 0.000000 0.000000 1.716010 
# 
# From -- ./inp_files/42472.got.cif
#   From: 2010.05.17/outbox.cif.g08.bks.cpg/sg63_22_cif.got.tgz:42472.got - 2010.06.03 15:47:04.
