data_PCOD9468225
_publ_section_title
;
Structure prediction by ZEFSAII (Michael W. Deem and Ramdas Pophale) SiO2 
 PCOD9468225
Probable space group: C M C M
;
_chemical_formula_sum "Si O2"
_cell_formula_units_Z 80
_cell_length_a 14.453052
_cell_length_b 16.293976
_cell_length_c 14.278509
_cell_angle_alpha 90.000000
_cell_angle_beta 90.000000
_cell_angle_gamma 90.000000
_cell_volume 3362.555778
_symmetry_space_group_name_H-M "C M C M"
_symmetry_group_IT_number 63
_symmetry_cell_setting 'orthorhombic'
loop_
_space_group_symop_operation_xyz
x,y,z
-x,-y,1/2+z
x,-y,-z
-x,y,1/2-z
-x,-y,-z
x,y,1/2-z
-x,y,z
x,-y,1/2+z
1/2+x,1/2+y,z
1/2-x,1/2-y,1/2+z
1/2+x,1/2-y,-z
1/2-x,1/2+y,1/2-z
1/2-x,1/2-y,-z
1/2+x,1/2+y,1/2-z
1/2-x,1/2+y,z
1/2+x,1/2-y,1/2+z
loop_
_atom_site_type_symbol
_atom_site_label
_atom_site_fract_x
_atom_site_fract_y
_atom_site_fract_z
Si Si1 0.629170 0.867157 0.356042
Si Si2 0.143607 0.222887 0.481349
Si Si3 0.691230 0.427970 0.863043
Si Si4 0.851422 0.111238 0.644273
Si Si5 0.400916 0.943116 0.637211
O O1 0.601002 0.845392 0.250000
O O2 0.600697 0.801875 0.432967
O O3 0.741004 0.871867 0.353061
O O4 0.597852 0.959036 0.377284
O O5 0.250000 0.250000 0.500000
O O6 0.140677 0.149296 0.406266
O O7 0.108558 0.180084 0.575984
O O8 0.692647 0.426491 0.750000
O O9 0.646844 0.516142 0.888741
O O10 0.798656 0.418869 0.897467
O O11 0.887082 0.116322 0.750000
O O12 0.398627 0.929489 0.750000
O O13 0.500000 0.909217 0.603459
#
# Coordination Sequence:
#
# PCOD9468225 Si02
#       5
#    16  16  16  16  16
#     4   8  14  24  38  59  84 110 140 173 212 250
#     4  10  17  24  38  56  82 110 138 174 217 261
#     4   9  16  26  41  61  84 111 144 178 213 253
#     4   8  15  26  38  53  76 105 137 173 210 254
#     4   8  14  26  44  64  89 122 154 179 203 242
#
# _framework density 23.791425
#
# number of rings (size 3 to 8) (size 9 to 14) (size 15 to 20)
#    0.000    3.400    0.000    3.600    0.000    0.800 
#    0.000    0.000    0.000   21.600    0.000    0.000 
#    0.000    5.600    0.000   12.600    0.000  206.400 
#
# Total GULP energy -223264.161245 kJ/mol
# GULP energy per Si atom -5581.604031 kJ/mol
# Density = 2.373727 g / cm^3
# Si number density = 23.791425 Si / 1000 Ang^3
#
#
#
# Elastic Constant Matrix: (Units=GPa)
#
#
# Indices 1 2 3 4 5 6 
#
# 1 52.0905 -8.6528 0.8263 0.0000 0.0000 0.0000
# 2 -8.6528 69.7372 50.4264 0.0000 0.0000 0.0000
# 3 0.8263 50.4264 90.2418 0.0000 0.0000 0.0000
# 4 0.0000 0.0000 0.0000 28.3991 0.0000 0.0000
# 5 0.0000 0.0000 0.0000 0.0000 -10.4574 0.0000
# 6 0.0000 0.0000 0.0000 0.0000 0.0000 -2.1547
#
#
#
# Elastic Compliance Matrix: (Units=1/GPa)
#
#
# Indices 1 2 3 4 5 6 
#
# 1 0.019966 0.004379 -0.002630 0.000000 0.000000 0.000000
# 2 0.004379 0.025022 -0.014022 0.000000 0.000000 0.000000
# 3 -0.002630 -0.014022 0.018941 0.000000 0.000000 0.000000
# 4 0.000000 0.000000 0.000000 0.035212 0.000000 0.000000
# 5 0.000000 0.000000 0.000000 0.000000 -0.095626 0.000000
# 6 0.000000 0.000000 0.000000 0.000000 0.000000 -0.464099
#
#
# Mechanical properties :
#
#
# Convention : Reuss Voigt Hill
#
# Bulk Modulus (GPa) = 25.39140 33.02992 29.21066
# Shear Modulus (GPa) = -11.82289 14.45537 1.31624
#
# Velocity S-wave (km/s) = -2.23163 2.46760 0.74461
# Velocity P-wave (km/s) = 2.01381 4.69383 3.61161
#
# Compressibility (1/GPa) = 0.03938341
#
# Stress axis : x y z
#
# Youngs Moduli (GPa) = 50.08401 39.96434 52.79553
#
# Poissons Ratio (x) = -0.17500 0.13884
# Poissons Ratio (y) = -0.21931 0.74032
# Poissons Ratio (z) = 0.13171 0.56039
#
# Static dielectric constant tensor:
#      x y z
#    x 1.933220 0.000000 0.000000 
#    y 0.000000 1.859090 0.000000 
#    z 0.000000 0.000000 1.926910 
# 
# From -- ./inp_files/33843.got.cif
#   From: 2010.05.17/outbox.cif.g08.bks.cpg/sg63_17_cif.got.tgz:33843.got - 2010.06.03 15:47:04.
