data_PCOD9468307
_publ_section_title
;
Structure prediction by ZEFSAII (Michael W. Deem and Ramdas Pophale) SiO2 
 PCOD9468307
Probable space group: C M C M
;
_chemical_formula_sum "Si O2"
_cell_formula_units_Z 128
_cell_length_a 22.810579
_cell_length_b 21.063570
_cell_length_c 16.983476
_cell_angle_alpha 90.000000
_cell_angle_beta 90.000000
_cell_angle_gamma 90.000000
_cell_volume 8160.088545
_symmetry_space_group_name_H-M "C M C M"
_symmetry_group_IT_number 63
_symmetry_cell_setting 'orthorhombic'
loop_
_space_group_symop_operation_xyz
x,y,z
-x,-y,1/2+z
x,-y,-z
-x,y,1/2-z
-x,-y,-z
x,y,1/2-z
-x,y,z
x,-y,1/2+z
1/2+x,1/2+y,z
1/2-x,1/2-y,1/2+z
1/2+x,1/2-y,-z
1/2-x,1/2+y,1/2-z
1/2-x,1/2-y,-z
1/2+x,1/2+y,1/2-z
1/2-x,1/2+y,z
1/2+x,1/2-y,1/2+z
loop_
_atom_site_type_symbol
_atom_site_label
_atom_site_fract_x
_atom_site_fract_y
_atom_site_fract_z
Si Si1 0.885589 0.283983 0.159709
Si Si2 0.650113 0.888565 0.597057
Si Si3 0.765357 0.926669 0.998236
Si Si4 0.325561 0.693764 0.449964
Si Si5 0.568980 0.996536 0.661121
Si Si6 0.433953 0.115248 0.549985
Si Si7 0.197384 0.258898 0.607781
Si Si8 0.261677 0.140673 0.663655
O O1 0.902332 0.274839 0.250000
O O2 0.870269 0.218686 0.115142
O O3 0.929966 0.326475 0.110244
O O4 0.825109 0.325425 0.157850
O O5 0.709978 0.917469 0.560651
O O6 0.613161 0.938718 0.647128
O O7 0.610356 0.874553 0.520774
O O8 0.665007 0.821549 0.638559
O O9 0.747430 0.901608 0.085744
O O10 0.817029 0.880125 0.968491
O O11 0.781367 0.000000 0.000000
O O12 0.260591 0.715528 0.422087
O O13 0.335743 0.731745 0.531066
O O14 0.576242 0.021793 0.750000
O O15 0.500000 0.978511 0.652730
O O16 0.581502 0.051305 0.597841
O O17 0.500000 0.107734 0.520130
O O18 0.214269 0.198109 0.659443
O O19 0.258035 0.109212 0.750000
#
# Coordination Sequence:
#
# PCOD9468307 Si02
#       8
#    16  16  16  16  16  16  16  16
#     4  10  17  28  45  62  82 115 151 186 229 262
#     4  11  18  30  48  65  85 115 154 190 225 262
#     4  10  18  29  45  67  91 118 147 177 216 267
#     4   8  14  28  42  59  83 110 137 172 214 266
#     4  10  22  35  42  55  85 122 158 199 236 259
#     4  11  20  31  45  62  84 117 160 195 225 266
#     4   8  14  26  45  62  80 104 141 179 214 261
#     4   9  17  29  46  65  87 115 146 180 222 268
#
# _framework density 15.686104
#
# number of rings (size 3 to 8) (size 9 to 14) (size 15 to 20)
#    0.000    2.375    2.500    3.375    0.000    2.250 
#    0.000    2.500    0.000    0.000    0.000    0.000 
#    0.000    0.500    0.000    0.000    0.000    0.000 
#
# Total GULP energy -356507.532238 kJ/mol
# GULP energy per Si atom -5570.430191 kJ/mol
# Density = 1.565040 g / cm^3
# Si number density = 15.686104 Si / 1000 Ang^3
#
#
#
# Elastic Constant Matrix: (Units=GPa)
#
#
# Indices 1 2 3 4 5 6 
#
# 1 20.9482 10.6973 -6.7787 0.0000 0.0000 0.0000
# 2 10.6973 78.4867 -0.4580 0.0000 0.0000 0.0000
# 3 -6.7787 -0.4580 38.8798 0.0000 0.0000 0.0000
# 4 0.0000 0.0000 0.0000 14.0728 0.0000 0.0000
# 5 0.0000 0.0000 0.0000 0.0000 12.6041 0.0000
# 6 0.0000 0.0000 0.0000 0.0000 0.0000 21.5463
#
#
#
# Elastic Compliance Matrix: (Units=1/GPa)
#
#
# Indices 1 2 3 4 5 6 
#
# 1 0.054555 -0.007381 0.009425 0.000000 0.000000 0.000000
# 2 -0.007381 0.013740 -0.001125 0.000000 0.000000 0.000000
# 3 0.009425 -0.001125 0.027350 0.000000 0.000000 0.000000
# 4 0.000000 0.000000 0.000000 0.071059 0.000000 0.000000
# 5 0.000000 0.000000 0.000000 0.000000 0.079339 0.000000
# 6 0.000000 0.000000 0.000000 0.000000 0.000000 0.046412
#
#
# Mechanical properties :
#
#
# Convention : Reuss Voigt Hill
#
# Bulk Modulus (GPa) = 10.25802 16.13731 13.19766
# Shear Modulus (GPa) = 15.47452 18.63495 17.05473
#
# Velocity S-wave (km/s) = 3.14429 3.45046 3.30093
# Velocity P-wave (km/s) = 4.44250 5.11705 4.79166
#
# Compressibility (1/GPa) = 0.09748473
#
# Stress axis : x y z
#
# Youngs Moduli (GPa) = 18.32996 72.77822 36.56274
#
# Poissons Ratio (x) = 0.53715 -0.34460
# Poissons Ratio (y) = 0.13529 0.04113
# Poissons Ratio (z) = -0.17276 0.08187
#
# Static dielectric constant tensor:
#      x y z
#    x 1.504630 0.000000 0.000000 
#    y 0.000000 1.534590 0.000000 
#    z 0.000000 0.000000 1.550130 
# 
# From -- ./inp_files/47558.got.cif
#   From: 2010.05.17/outbox.cif.g08.bks.cpg/sg63_24_cif.got.tgz:47558.got - 2010.06.03 15:47:04.
