data_PCOD9468404
_publ_section_title
;
Structure prediction by ZEFSAII (Michael W. Deem and Ramdas Pophale) SiO2 
 PCOD9468404
Probable space group: C M C M
;
_chemical_formula_sum "Si O2"
_cell_formula_units_Z 80
_cell_length_a 8.048593
_cell_length_b 21.333754
_cell_length_c 27.094483
_cell_angle_alpha 90.000000
_cell_angle_beta 90.000000
_cell_angle_gamma 90.000000
_cell_volume 4652.304348
_symmetry_space_group_name_H-M "C M C M"
_symmetry_group_IT_number 63
_symmetry_cell_setting 'orthorhombic'
loop_
_space_group_symop_operation_xyz
x,y,z
-x,-y,1/2+z
x,-y,-z
-x,y,1/2-z
-x,-y,-z
x,y,1/2-z
-x,y,z
x,-y,1/2+z
1/2+x,1/2+y,z
1/2-x,1/2-y,1/2+z
1/2+x,1/2-y,-z
1/2-x,1/2+y,1/2-z
1/2-x,1/2-y,-z
1/2+x,1/2+y,1/2-z
1/2-x,1/2+y,z
1/2+x,1/2-y,1/2+z
loop_
_atom_site_type_symbol
_atom_site_label
_atom_site_fract_x
_atom_site_fract_y
_atom_site_fract_z
Si Si1 0.500000 0.098443 0.973360
Si Si2 0.309529 0.762913 0.750000
Si Si3 0.688251 0.580291 0.358476
Si Si4 0.695577 0.778394 0.644959
Si Si5 0.313632 0.217103 0.549302
Si Si6 0.000000 0.535022 0.421411
Si Si7 0.306858 0.915196 0.750000
O O1 0.656284 0.143518 0.960897
O O2 0.500000 0.035522 0.941892
O O3 0.500000 0.080365 0.030780
O O4 0.500000 0.739889 0.750000
O O5 0.238817 0.747339 0.804032
O O6 0.306753 0.839033 0.750000
O O7 0.500000 0.563728 0.372698
O O8 0.714336 0.655455 0.363663
O O9 0.834725 0.548846 0.389948
O O10 0.719583 0.565250 0.300666
O O11 0.500000 0.793528 0.652727
O O12 0.711339 0.734751 0.597443
O O13 0.500000 0.241688 0.559184
O O14 0.250000 0.250000 0.500000
O O15 0.500000 0.934759 0.750000
#
# Coordination Sequence:
#
# PCOD9468404 Si02
#       7
#     8   8  16  16  16   8   8
#     4   9  24  38  58  76 112 153 186 252 286 341
#     4   7  14  25  45  73 111 147 173 213 283 333
#     4  11  20  31  58  87 116 152 190 233 287 339
#     4  10  17  31  52  82 115 147 182 234 287 339
#     4  10  20  34  53  80 107 138 185 230 288 338
#     4  11  20  43  58  76 116 151 198 233 292 338
#     4   9  15  31  49  86 120 147 182 236 283 332
#
# _framework density 17.195779000000002
#
# number of rings (size 3 to 8) (size 9 to 14) (size 15 to 20)
#    0.600    1.600    2.000    3.900    0.000    0.000 
#    0.000    6.500    0.000    2.400    0.000    2.800 
#    0.000    0.000    0.000    0.000    0.000    0.000 
#
# Total GULP energy -222684.329367 kJ/mol
# GULP energy per Si atom -5567.108234 kJ/mol
# Density = 1.715664 g / cm^3
# Si number density = 17.195779 Si / 1000 Ang^3
#
#
#
# Elastic Constant Matrix: (Units=GPa)
#
#
# Indices 1 2 3 4 5 6 
#
# 1 98.7871 20.1487 39.2301 0.0000 0.0000 0.0000
# 2 20.1487 55.1084 48.7585 0.0000 0.0000 0.0000
# 3 39.2301 48.7585 153.3361 0.0000 0.0000 0.0000
# 4 0.0000 0.0000 0.0000 19.8869 0.0000 0.0000
# 5 0.0000 0.0000 0.0000 0.0000 23.0190 0.0000
# 6 0.0000 0.0000 0.0000 0.0000 0.0000 14.1438
#
#
#
# Elastic Compliance Matrix: (Units=1/GPa)
#
#
# Indices 1 2 3 4 5 6 
#
# 1 0.011460 -0.002221 -0.002226 0.000000 0.000000 0.000000
# 2 -0.002221 0.025680 -0.007598 0.000000 0.000000 0.000000
# 3 -0.002226 -0.007598 0.009507 0.000000 0.000000 0.000000
# 4 0.000000 0.000000 0.000000 0.050284 0.000000 0.000000
# 5 0.000000 0.000000 0.000000 0.000000 0.043442 0.000000
# 6 0.000000 0.000000 0.000000 0.000000 0.000000 0.070702
#
#
# Mechanical properties :
#
#
# Convention : Reuss Voigt Hill
#
# Bulk Modulus (GPa) = 44.32890 58.16737 51.24814
# Shear Modulus (GPa) = 20.60293 24.68288 22.64291
#
# Velocity S-wave (km/s) = 3.46517 3.79278 3.63267
# Velocity P-wave (km/s) = 6.46875 7.28562 6.88930
#
# Compressibility (1/GPa) = 0.02255865
#
# Stress axis : x y z
#
# Youngs Moduli (GPa) = 87.26327 38.94037 105.18493
#
# Poissons Ratio (x) = 0.08647 0.23412
# Poissons Ratio (y) = 0.19377 0.79918
# Poissons Ratio (z) = 0.19423 0.29586
#
# Static dielectric constant tensor:
#      x y z
#    x 1.611470 0.000000 0.000000 
#    y 0.000000 1.554170 0.000000 
#    z 0.000000 0.000000 1.660190 
# 
# From -- ./inp_files/66843.got.cif
#   From: 2010.05.17/outbox.cif.g08.bks.cpg/sg63_34_cif.got.tgz:66843.got - 2010.06.03 15:47:04.
