data_PCOD9468809
_publ_section_title
;
Structure prediction by ZEFSAII (Michael W. Deem and Ramdas Pophale) SiO2 
 PCOD9468809
Probable space group: C M C M
;
_chemical_formula_sum "Si O2"
_cell_formula_units_Z 88
_cell_length_a 20.471320
_cell_length_b 24.596959
_cell_length_c 8.429043
_cell_angle_alpha 90.000000
_cell_angle_beta 90.000000
_cell_angle_gamma 90.000000
_cell_volume 4244.294723
_symmetry_space_group_name_H-M "C M C M"
_symmetry_group_IT_number 63
_symmetry_cell_setting 'orthorhombic'
loop_
_space_group_symop_operation_xyz
x,y,z
-x,-y,1/2+z
x,-y,-z
-x,y,1/2-z
-x,-y,-z
x,y,1/2-z
-x,y,z
x,-y,1/2+z
1/2+x,1/2+y,z
1/2-x,1/2-y,1/2+z
1/2+x,1/2-y,-z
1/2-x,1/2+y,1/2-z
1/2-x,1/2-y,-z
1/2+x,1/2+y,1/2-z
1/2-x,1/2+y,z
1/2+x,1/2-y,1/2+z
loop_
_atom_site_type_symbol
_atom_site_label
_atom_site_fract_x
_atom_site_fract_y
_atom_site_fract_z
Si Si1 0.000000 0.747963 0.576296
Si Si2 0.646572 0.775090 0.431824
Si Si3 0.000000 0.437752 0.560731
Si Si4 0.000000 0.143423 0.928151
Si Si5 0.636801 0.109214 0.940734
Si Si6 0.858269 0.847931 0.941210
Si Si7 0.762179 0.942834 0.940138
O O1 0.067691 0.717320 0.573495
O O2 0.000000 0.790773 0.436072
O O3 0.000000 0.777524 0.750000
O O4 0.671451 0.773100 0.250000
O O5 0.665356 0.832690 0.506266
O O6 0.656007 0.714259 0.500043
O O7 0.000000 0.500000 0.500000
O O8 0.065647 0.407672 0.502117
O O9 0.000000 0.438151 0.750000
O O10 0.000000 0.122698 0.750000
O O11 0.930720 0.132034 0.010391
O O12 0.634044 0.113271 0.750000
O O13 0.689917 0.065141 0.991311
O O14 0.857020 0.844322 0.750000
O O15 0.806368 0.892235 0.995285
O O16 0.759977 0.942476 0.750000
O O17 0.789594 0.000000 0.000000
#
# Coordination Sequence:
#
# PCOD9468809 Si02
#       7
#     8  16   8   8  16  16  16
#     4   8  13  27  49  73 110 154 187 214 261 330
#     4   8  15  30  55  84 113 149 189 228 277 341
#     4  12  25  42  62  86 118 156 204 250 286 330
#     4  10  18  29  52  87 118 142 178 228 278 326
#     4  11  22  38  61  88 119 153 191 237 291 345
#     4   9  19  38  61  83 114 156 194 228 278 345
#     4  11  24  42  62  83 111 150 195 240 288 343
#
# _framework density 20.733715
#
# number of rings (size 3 to 8) (size 9 to 14) (size 15 to 20)
#    0.000    2.182    0.000    4.909    0.000    3.636 
#    0.000   11.364    0.000    0.000    0.000    0.000 
#    0.000    0.000    0.000    0.000    0.000    0.000 
#
# Total GULP energy -245214.052817 kJ/mol
# GULP energy per Si atom -5573.046655 kJ/mol
# Density = 2.068652 g / cm^3
# Si number density = 20.733715 Si / 1000 Ang^3
#
#
#
# Elastic Constant Matrix: (Units=GPa)
#
#
# Indices 1 2 3 4 5 6 
#
# 1 76.2523 53.3542 13.1752 0.0000 0.0000 0.0000
# 2 53.3542 154.0991 26.5408 0.0000 0.0000 0.0000
# 3 13.1752 26.5408 52.3465 0.0000 0.0000 0.0000
# 4 0.0000 0.0000 0.0000 17.2202 0.0000 0.0000
# 5 0.0000 0.0000 0.0000 0.0000 14.0284 0.0000
# 6 0.0000 0.0000 0.0000 0.0000 0.0000 30.6560
#
#
#
# Elastic Compliance Matrix: (Units=1/GPa)
#
#
# Indices 1 2 3 4 5 6 
#
# 1 0.017407 -0.005777 -0.001452 0.000000 0.000000 0.000000
# 2 -0.005777 0.009027 -0.003123 0.000000 0.000000 0.000000
# 3 -0.001452 -0.003123 0.021052 0.000000 0.000000 0.000000
# 4 0.000000 0.000000 0.000000 0.058071 0.000000 0.000000
# 5 0.000000 0.000000 0.000000 0.000000 0.071284 0.000000
# 6 0.000000 0.000000 0.000000 0.000000 0.000000 0.032620
#
#
# Mechanical properties :
#
#
# Convention : Reuss Voigt Hill
#
# Bulk Modulus (GPa) = 37.33752 52.09316 44.71534
# Shear Modulus (GPa) = 20.91221 25.02275 22.96748
#
# Velocity S-wave (km/s) = 3.17931 3.47776 3.33188
# Velocity P-wave (km/s) = 5.61467 6.42696 6.03450
#
# Compressibility (1/GPa) = 0.02678271
#
# Stress axis : x y z
#
# Youngs Moduli (GPa) = 57.44671 110.77415 47.50037
#
# Poissons Ratio (x) = 0.63993 0.06899
# Poissons Ratio (y) = 0.33186 0.14835
# Poissons Ratio (z) = 0.08343 0.34595
#
# Static dielectric constant tensor:
#      x y z
#    x 1.756760 0.000000 0.000000 
#    y 0.000000 1.786020 0.000000 
#    z 0.000000 0.000000 1.729980 
# 
# From -- ./inp_files/8275.got.cif
#   From: 2010.05.17/outbox.cif.g08.bks.cpg/sg63_5_cif.got.tgz:8275.got - 2010.06.03 15:47:04.
