data_PCOD9468119
_publ_section_title
;
Structure prediction by ZEFSAII (Michael W. Deem and Ramdas Pophale) SiO2 
 PCOD9468119
Probable space group: C M C M
;
_chemical_formula_sum "Si O2"
_cell_formula_units_Z 104
_cell_length_a 21.226204
_cell_length_b 14.930380
_cell_length_c 13.296076
_cell_angle_alpha 90.000000
_cell_angle_beta 90.000000
_cell_angle_gamma 90.000000
_cell_volume 4213.729804
_symmetry_space_group_name_H-M "C M C M"
_symmetry_group_IT_number 63
_symmetry_cell_setting 'orthorhombic'
loop_
_space_group_symop_operation_xyz
x,y,z
-x,-y,1/2+z
x,-y,-z
-x,y,1/2-z
-x,-y,-z
x,y,1/2-z
-x,y,z
x,-y,1/2+z
1/2+x,1/2+y,z
1/2-x,1/2-y,1/2+z
1/2+x,1/2-y,-z
1/2-x,1/2+y,1/2-z
1/2-x,1/2-y,-z
1/2+x,1/2+y,1/2-z
1/2-x,1/2+y,z
1/2+x,1/2-y,1/2+z
loop_
_atom_site_type_symbol
_atom_site_label
_atom_site_fract_x
_atom_site_fract_y
_atom_site_fract_z
Si Si1 0.893276 0.139897 0.371581
Si Si2 0.069200 0.064235 0.628306
Si Si3 0.816053 0.185417 0.872575
Si Si4 0.254967 0.134025 0.372217
Si Si5 0.569666 0.897680 0.033476
Si Si6 0.500000 0.240149 0.981013
Si Si7 0.801203 0.438151 0.370495
O O1 0.896951 0.149391 0.250000
O O2 0.818782 0.147759 0.397630
O O3 0.942824 0.207460 0.419863
O O4 0.914438 0.038004 0.396577
O O5 0.067925 0.066549 0.750000
O O6 0.121928 0.133093 0.594866
O O7 0.000000 0.092332 0.591333
O O8 0.818310 0.187688 0.750000
O O9 0.798103 0.284165 0.906558
O O10 0.757187 0.122682 0.900398
O O11 0.255077 0.132746 0.250000
O O12 0.286731 0.040162 0.403103
O O13 0.500000 0.871569 0.087036
O O14 0.556973 0.819962 0.954196
O O15 0.632928 0.896306 0.094894
O O16 0.564733 0.000000 0.000000
O O17 0.802931 0.439685 0.250000
#
# Coordination Sequence:
#
# PCOD9468119 Si02
#       7
#    16  16  16  16  16   8  16
#     4  10  16  24  41  71 105 124 151 208 262 299
#     4   9  15  24  38  61  99 137 159 188 250 312
#     4   9  16  27  43  68 103 138 167 203 253 303
#     4   9  17  27  42  70 105 134 162 202 255 300
#     4   9  21  38  51  70 101 141 166 205 268 314
#     4  10  18  28  48  70  89 125 171 205 252 308
#     4  10  18  31  53  77 104 135 170 215 253 303
#
# _framework density 24.681221000000001
#
# number of rings (size 3 to 8) (size 9 to 14) (size 15 to 20)
#    0.462    2.154    2.308    1.154    0.000    2.769 
#    0.000    0.769    0.000    6.462    0.000    0.000 
#    0.000    1.846    0.000    0.000    0.000    0.000 
#
# Total GULP energy -290035.750780 kJ/mol
# GULP energy per Si atom -5577.610592 kJ/mol
# Density = 2.462505 g / cm^3
# Si number density = 24.681221 Si / 1000 Ang^3
#
#
#
# Elastic Constant Matrix: (Units=GPa)
#
#
# Indices 1 2 3 4 5 6 
#
# 1 253.4375 103.9901 39.0625 0.0000 0.0000 0.0000
# 2 103.9901 142.0214 38.1053 0.0000 0.0000 0.0000
# 3 39.0625 38.1053 77.2930 0.0000 0.0000 0.0000
# 4 0.0000 0.0000 0.0000 28.3470 0.0000 0.0000
# 5 0.0000 0.0000 0.0000 0.0000 26.4127 0.0000
# 6 0.0000 0.0000 0.0000 0.0000 0.0000 44.5143
#
#
#
# Elastic Compliance Matrix: (Units=1/GPa)
#
#
# Indices 1 2 3 4 5 6 
#
# 1 0.005700 -0.003919 -0.000949 0.000000 0.000000 0.000000
# 2 -0.003919 0.010809 -0.003348 0.000000 0.000000 0.000000
# 3 -0.000949 -0.003348 0.015068 0.000000 0.000000 0.000000
# 4 0.000000 0.000000 0.000000 0.035277 0.000000 0.000000
# 5 0.000000 0.000000 0.000000 0.000000 0.037861 0.000000
# 6 0.000000 0.000000 0.000000 0.000000 0.000000 0.022465
#
#
# Mechanical properties :
#
#
# Convention : Reuss Voigt Hill
#
# Bulk Modulus (GPa) = 66.02766 92.78531 79.40648
# Shear Modulus (GPa) = 33.63386 39.29441 36.46414
#
# Velocity S-wave (km/s) = 3.69552 3.99441 3.84787
# Velocity P-wave (km/s) = 6.70965 7.67782 7.21000
#
# Compressibility (1/GPa) = 0.01514517
#
# Stress axis : x y z
#
# Youngs Moduli (GPa) = 175.43702 92.51370 66.36651
#
# Poissons Ratio (x) = 0.36258 0.06295
# Poissons Ratio (y) = 0.68756 0.22221
# Poissons Ratio (z) = 0.16641 0.30976
#
# Static dielectric constant tensor:
#      x y z
#    x 1.938550 0.000000 0.000000 
#    y 0.000000 2.067480 0.000000 
#    z 0.000000 0.000000 2.024980 
# 
# From -- ./inp_files/47149.got.cif
#   From: 2010.05.17/outbox.cif.g08.bks.cpg/sg63_24_cif.got.tgz:47149.got - 2010.06.03 15:47:04.
