data_PCOD9468228
_publ_section_title
;
Structure prediction by ZEFSAII (Michael W. Deem and Ramdas Pophale) SiO2 
 PCOD9468228
Probable space group: C M C M
;
_chemical_formula_sum "Si O2"
_cell_formula_units_Z 84
_cell_length_a 14.705513
_cell_length_b 15.948135
_cell_length_c 14.701513
_cell_angle_alpha 90.000000
_cell_angle_beta 90.000000
_cell_angle_gamma 90.000000
_cell_volume 3447.879784
_symmetry_space_group_name_H-M "C M C M"
_symmetry_group_IT_number 63
_symmetry_cell_setting 'orthorhombic'
loop_
_space_group_symop_operation_xyz
x,y,z
-x,-y,1/2+z
x,-y,-z
-x,y,1/2-z
-x,-y,-z
x,y,1/2-z
-x,y,z
x,-y,1/2+z
1/2+x,1/2+y,z
1/2-x,1/2-y,1/2+z
1/2+x,1/2-y,-z
1/2-x,1/2+y,1/2-z
1/2-x,1/2-y,-z
1/2+x,1/2+y,1/2-z
1/2-x,1/2+y,z
1/2+x,1/2-y,1/2+z
loop_
_atom_site_type_symbol
_atom_site_label
_atom_site_fract_x
_atom_site_fract_y
_atom_site_fract_z
Si Si1 0.169194 0.065402 0.140505
Si Si2 0.861093 0.122086 0.647901
Si Si3 0.855830 0.223741 0.018021
Si Si4 0.500000 0.110145 0.250000
Si Si5 0.359286 0.855198 0.154159
Si Si6 0.122571 0.466297 0.898245
O O1 0.171558 0.075323 0.250000
O O2 0.133940 0.146944 0.088837
O O3 0.121644 0.975248 0.122903
O O4 0.271102 0.055031 0.102044
O O5 0.892948 0.137520 0.750000
O O6 0.894579 0.188824 0.575436
O O7 0.750588 0.132761 0.648490
O O8 0.893695 0.305052 0.067604
O O9 0.750000 0.250000 0.000000
O O10 0.423052 0.102924 0.333539
O O11 0.379120 0.811426 0.250000
O O12 0.395774 0.948233 0.155906
O O13 0.099593 0.500000 0.000000
#
# Coordination Sequence:
#
# PCOD9468228 Si02
#       6
#    16  16  16   4  16  16
#     4  10  17  29  44  62  88 118 153 185 222 264
#     4   8  15  25  38  55  83 116 145 173 204 250
#     4  10  17  24  39  63  83 116 148 174 217 271
#     4  12  22  36  48  66  80 112 164 206 242 248
#     4   9  16  29  42  60  87 111 143 180 219 267
#     4  11  20  34  50  65  86 117 156 198 231 262
#
# _framework density 24.362798999999999
#
# number of rings (size 3 to 8) (size 9 to 14) (size 15 to 20)
#    0.000    2.286    1.905    6.000    0.000    0.762 
#    0.000    0.000    0.000    0.000    0.000    0.000 
#    0.000    0.000    0.000    3.429    2.286   46.286 
#
# Total GULP energy -233833.118157 kJ/mol
# GULP energy per Si atom -5567.455194 kJ/mol
# Density = 2.430735 g / cm^3
# Si number density = 24.362799 Si / 1000 Ang^3
#
#
#
# Elastic Constant Matrix: (Units=GPa)
#
#
# Indices 1 2 3 4 5 6 
#
# 1 55.9728 -11.8052 -7.7705 0.0000 0.0000 0.0000
# 2 -11.8052 89.8712 29.8931 0.0000 0.0000 0.0000
# 3 -7.7705 29.8931 134.8466 0.0000 0.0000 0.0000
# 4 0.0000 0.0000 0.0000 41.3058 0.0000 0.0000
# 5 0.0000 0.0000 0.0000 0.0000 -12.3100 0.0000
# 6 0.0000 0.0000 0.0000 0.0000 0.0000 -112.7229
#
#
#
# Elastic Compliance Matrix: (Units=1/GPa)
#
#
# Indices 1 2 3 4 5 6 
#
# 1 0.018415 0.002230 0.000567 0.000000 0.000000 0.000000
# 2 0.002230 0.012283 -0.002594 0.000000 0.000000 0.000000
# 3 0.000567 -0.002594 0.008024 0.000000 0.000000 0.000000
# 4 0.000000 0.000000 0.000000 0.024210 0.000000 0.000000
# 5 0.000000 0.000000 0.000000 0.000000 -0.081235 0.000000
# 6 0.000000 0.000000 0.000000 0.000000 0.000000 -0.008871
#
#
# Mechanical properties :
#
#
# Convention : Reuss Voigt Hill
#
# Bulk Modulus (GPa) = 25.55781 33.48060 29.51921
# Shear Modulus (GPa) = -343.92596 1.27945 -171.32325
#
# Velocity S-wave (km/s) = -11.89432 0.72547 -8.39490
# Velocity P-wave (km/s) = 13.34616 3.80448 9.04560
#
# Compressibility (1/GPa) = 0.03912699
#
# Stress axis : x y z
#
# Youngs Moduli (GPa) = 54.30380 81.41359 124.63208
#
# Poissons Ratio (x) = -0.18159 -0.07063
# Poissons Ratio (y) = -0.12112 0.32334
# Poissons Ratio (z) = -0.03077 0.21122
#
# Static dielectric constant tensor:
#      x y z
#    x 1.984510 0.000000 0.000000 
#    y 0.000000 1.940110 0.000000 
#    z 0.000000 0.000000 1.962450 
# 
# From -- ./inp_files/35220.got.cif
#   From: 2010.05.17/outbox.cif.g08.bks.cpg/sg63_18_cif.got.tgz:35220.got - 2010.06.03 15:47:04.
