data_PCOD9468449
_publ_section_title
;
Structure prediction by ZEFSAII (Michael W. Deem and Ramdas Pophale) SiO2 
 PCOD9468449
Probable space group: C M C M
;
_chemical_formula_sum "Si O2"
_cell_formula_units_Z 80
_cell_length_a 18.430986
_cell_length_b 15.081362
_cell_length_c 16.119706
_cell_angle_alpha 90.000000
_cell_angle_beta 90.000000
_cell_angle_gamma 90.000000
_cell_volume 4480.703953
_symmetry_space_group_name_H-M "C M C M"
_symmetry_group_IT_number 63
_symmetry_cell_setting 'orthorhombic'
loop_
_space_group_symop_operation_xyz
x,y,z
-x,-y,1/2+z
x,-y,-z
-x,y,1/2-z
-x,-y,-z
x,y,1/2-z
-x,y,z
x,-y,1/2+z
1/2+x,1/2+y,z
1/2-x,1/2-y,1/2+z
1/2+x,1/2-y,-z
1/2-x,1/2+y,1/2-z
1/2-x,1/2-y,-z
1/2+x,1/2+y,1/2-z
1/2-x,1/2+y,z
1/2+x,1/2-y,1/2+z
loop_
_atom_site_type_symbol
_atom_site_label
_atom_site_fract_x
_atom_site_fract_y
_atom_site_fract_z
Si Si1 0.738301 0.524441 0.598363
Si Si2 0.789075 0.723609 0.913066
Si Si3 0.420136 0.555778 0.585314
Si Si4 0.915874 0.741424 0.023495
Si Si5 0.680781 0.145712 0.158448
O O1 0.736815 0.500000 0.500000
O O2 0.770719 0.622505 0.606812
O O3 0.654443 0.525751 0.628526
O O4 0.787779 0.451489 0.641506
O O5 0.750273 0.788979 0.849593
O O6 0.750000 0.750000 0.000000
O O7 0.872646 0.737681 0.936627
O O8 0.423221 0.500000 0.500000
O O9 0.500000 0.546065 0.625845
O O10 0.410034 0.658946 0.560389
O O11 0.876026 0.676138 0.088270
O O12 0.000000 0.720042 0.014207
O O13 0.648828 0.153242 0.250000
#
# Coordination Sequence:
#
# PCOD9468449 Si02
#       5
#    16  16  16  16  16
#     4  11  17  32  57  78 107 145 190 233 270 332
#     4  10  17  34  56  81 105 143 189 231 273 337
#     4   9  16  27  50  83 111 132 168 228 283 324
#     4  10  19  35  59  84 110 145 189 235 283 332
#     4  11  23  36  53  82 117 152 189 235 289 341
#
# _framework density 17.854337000000001
#
# number of rings (size 3 to 8) (size 9 to 14) (size 15 to 20)
#    0.000    1.800    8.000    1.200    0.000    1.200 
#    0.000    2.000    0.000    2.400    0.000    0.000 
#    0.000    0.000    0.000    0.000    0.000    0.000 
#
# Total GULP energy -222872.211157 kJ/mol
# GULP energy per Si atom -5571.805279 kJ/mol
# Density = 1.781370 g / cm^3
# Si number density = 17.854337 Si / 1000 Ang^3
#
#
#
# Elastic Constant Matrix: (Units=GPa)
#
#
# Indices 1 2 3 4 5 6 
#
# 1 122.1008 22.3405 -1.0728 0.0000 0.0000 0.0000
# 2 22.3405 115.5458 -3.8199 0.0000 0.0000 0.0000
# 3 -1.0728 -3.8199 15.3158 0.0000 0.0000 0.0000
# 4 0.0000 0.0000 0.0000 7.7125 0.0000 0.0000
# 5 0.0000 0.0000 0.0000 0.0000 35.8215 0.0000
# 6 0.0000 0.0000 0.0000 0.0000 0.0000 20.2410
#
#
#
# Elastic Compliance Matrix: (Units=1/GPa)
#
#
# Indices 1 2 3 4 5 6 
#
# 1 0.008491 -0.001636 0.000187 0.000000 0.000000 0.000000
# 2 -0.001636 0.009042 0.002140 0.000000 0.000000 0.000000
# 3 0.000187 0.002140 0.065839 0.000000 0.000000 0.000000
# 4 0.000000 0.000000 0.000000 0.129660 0.000000 0.000000
# 5 0.000000 0.000000 0.000000 0.000000 0.027916 0.000000
# 6 0.000000 0.000000 0.000000 0.000000 0.000000 0.049405
#
#
# Mechanical properties :
#
#
# Convention : Reuss Voigt Hill
#
# Bulk Modulus (GPa) = 11.79872 31.98422 21.89147
# Shear Modulus (GPa) = 15.76194 28.45598 22.10896
#
# Velocity S-wave (km/s) = 2.97443 3.99656 3.52276
# Velocity P-wave (km/s) = 4.29173 6.26494 5.36975
#
# Compressibility (1/GPa) = 0.08475497
#
# Stress axis : x y z
#
# Youngs Moduli (GPa) = 117.77394 110.60034 15.18858
#
# Poissons Ratio (x) = 0.18089 -0.00284
# Poissons Ratio (y) = 0.19262 -0.03251
# Poissons Ratio (z) = -0.02200 -0.23674
#
# Static dielectric constant tensor:
#      x y z
#    x 1.661450 0.000000 0.000000 
#    y 0.000000 1.600360 0.000000 
#    z 0.000000 0.000000 1.623580 
# 
# From -- ./inp_files/45413.got.cif
#   From: 2010.05.17/outbox.cif.g08.bks.cpg/sg63_23_cif.got.tgz:45413.got - 2010.06.03 15:47:04.
