data_PCOD9468850
_publ_section_title
;
Structure prediction by ZEFSAII (Michael W. Deem and Ramdas Pophale) SiO2 
 PCOD9468850
Probable space group: C M C M
;
_chemical_formula_sum "Si O2"
_cell_formula_units_Z 112
_cell_length_a 27.449941
_cell_length_b 26.614041
_cell_length_c 7.325985
_cell_angle_alpha 90.000000
_cell_angle_beta 90.000000
_cell_angle_gamma 90.000000
_cell_volume 5352.026585
_symmetry_space_group_name_H-M "C M C M"
_symmetry_group_IT_number 63
_symmetry_cell_setting 'orthorhombic'
loop_
_space_group_symop_operation_xyz
x,y,z
-x,-y,1/2+z
x,-y,-z
-x,y,1/2-z
-x,-y,-z
x,y,1/2-z
-x,y,z
x,-y,1/2+z
1/2+x,1/2+y,z
1/2-x,1/2-y,1/2+z
1/2+x,1/2-y,-z
1/2-x,1/2+y,1/2-z
1/2-x,1/2-y,-z
1/2+x,1/2+y,1/2-z
1/2-x,1/2+y,z
1/2+x,1/2-y,1/2+z
loop_
_atom_site_type_symbol
_atom_site_label
_atom_site_fract_x
_atom_site_fract_y
_atom_site_fract_z
Si Si1 0.052217 0.577865 0.041604
Si Si2 0.247513 0.624927 0.456640
Si Si3 0.684057 0.784808 0.030779
Si Si4 0.575837 0.811260 0.030573
Si Si5 0.839959 0.557434 0.032488
Si Si6 0.341052 0.327905 0.973400
Si Si7 0.947080 0.197691 0.472267
O O1 0.052722 0.558985 0.250000
O O2 0.104857 0.564294 0.958587
O O3 0.000000 0.562014 0.959894
O O4 0.052606 0.638539 0.044201
O O5 0.253547 0.605904 0.250000
O O6 0.226763 0.681796 0.451627
O O7 0.203567 0.592606 0.540846
O O8 0.301612 0.631222 0.536405
O O9 0.689144 0.784593 0.250000
O O10 0.633072 0.811798 0.985749
O O11 0.677356 0.727597 0.970296
O O12 0.570394 0.813071 0.250000
O O13 0.557082 0.756485 0.972850
O O14 0.843394 0.567998 0.250000
O O15 0.826103 0.500000 0.000000
O O16 0.340387 0.328496 0.750000
O O17 0.397623 0.330292 0.029891
O O18 0.946144 0.197832 0.250000
O O19 0.000000 0.178165 0.529742
#
# Coordination Sequence:
#
# PCOD9468850 Si02
#       7
#    16  16  16  16  16  16  16
#     4  10  20  33  47  63  84 108 139 181 226 268
#     4  10  18  30  47  64  85 112 141 175 217 262
#     4   9  16  26  42  65  90 116 144 174 207 245
#     4   9  16  26  42  64  87 114 150 181 205 242
#     4  10  22  37  50  64  81 107 141 181 231 273
#     4   8  15  25  39  63  91 117 145 173 203 246
#     4   8  13  22  37  60  92 123 147 173 203 236
#
# _framework density 20.926652000000001
#
# number of rings (size 3 to 8) (size 9 to 14) (size 15 to 20)
#    0.000    2.857    1.429    2.571    0.000    2.286 
#    0.000    0.000    0.000    0.000    0.000    0.000 
#    0.000    0.571    0.000    0.429    0.000    0.857 
#
# Total GULP energy -312359.300685 kJ/mol
# GULP energy per Si atom -5577.844655 kJ/mol
# Density = 2.087902 g / cm^3
# Si number density = 20.926652 Si / 1000 Ang^3
#
#
#
# Elastic Constant Matrix: (Units=GPa)
#
#
# Indices 1 2 3 4 5 6 
#
# 1 207.4333 64.4289 5.3013 0.0000 0.0000 0.0000
# 2 64.4289 47.1776 -0.0847 0.0000 0.0000 0.0000
# 3 5.3013 -0.0847 80.8911 0.0000 0.0000 0.0000
# 4 0.0000 0.0000 0.0000 19.1557 0.0000 0.0000
# 5 0.0000 0.0000 0.0000 0.0000 -4.0652 0.0000
# 6 0.0000 0.0000 0.0000 0.0000 0.0000 6.5805
#
#
#
# Elastic Compliance Matrix: (Units=1/GPa)
#
#
# Indices 1 2 3 4 5 6 
#
# 1 0.008398 -0.011469 -0.000562 0.000000 0.000000 0.000000
# 2 -0.011469 0.036861 0.000790 0.000000 0.000000 0.000000
# 3 -0.000562 0.000790 0.012400 0.000000 0.000000 0.000000
# 4 0.000000 0.000000 0.000000 0.052204 0.000000 0.000000
# 5 0.000000 0.000000 0.000000 0.000000 -0.245987 0.000000
# 6 0.000000 0.000000 0.000000 0.000000 0.000000 0.151963
#
#
# Mechanical properties :
#
#
# Convention : Reuss Voigt Hill
#
# Bulk Modulus (GPa) = 28.42854 52.75479 40.59166
# Shear Modulus (GPa) = 99.90709 22.05796 60.98252
#
# Velocity S-wave (km/s) = 6.91702 3.25015 5.40410
# Velocity P-wave (km/s) = 8.79818 6.27286 7.64057
#
# Compressibility (1/GPa) = 0.03517592
#
# Stress axis : x y z
#
# Youngs Moduli (GPa) = 119.08196 27.12878 80.64531
#
# Poissons Ratio (x) = 0.31115 0.04535
# Poissons Ratio (y) = 1.36579 -0.06373
# Poissons Ratio (z) = 0.06697 -0.02144
#
# Static dielectric constant tensor:
#      x y z
#    x 1.830660 0.000000 0.000000 
#    y 0.000000 1.705260 0.000000 
#    z 0.000000 0.000000 1.781070 
# 
# From -- ./inp_files/25282.got.cif
#   From: 2010.05.17/outbox.cif.g08.bks.cpg/sg63_13_cif.got.tgz:25282.got - 2010.06.03 15:47:04.
