data_PCOD9468217
_publ_section_title
;
Structure prediction by ZEFSAII (Michael W. Deem and Ramdas Pophale) SiO2 
 PCOD9468217
Probable space group: C M C M
;
_chemical_formula_sum "Si O2"
_cell_formula_units_Z 88
_cell_length_a 14.494508
_cell_length_b 18.073474
_cell_length_c 20.524908
_cell_angle_alpha 90.000000
_cell_angle_beta 90.000000
_cell_angle_gamma 90.000000
_cell_volume 5376.830378
_symmetry_space_group_name_H-M "C M C M"
_symmetry_group_IT_number 63
_symmetry_cell_setting 'orthorhombic'
loop_
_space_group_symop_operation_xyz
x,y,z
-x,-y,1/2+z
x,-y,-z
-x,y,1/2-z
-x,-y,-z
x,y,1/2-z
-x,y,z
x,-y,1/2+z
1/2+x,1/2+y,z
1/2-x,1/2-y,1/2+z
1/2+x,1/2-y,-z
1/2-x,1/2+y,1/2-z
1/2-x,1/2-y,-z
1/2+x,1/2+y,1/2-z
1/2-x,1/2+y,z
1/2+x,1/2-y,1/2+z
loop_
_atom_site_type_symbol
_atom_site_label
_atom_site_fract_x
_atom_site_fract_y
_atom_site_fract_z
Si Si1 0.657148 0.188227 0.032174
Si Si2 0.500000 0.587100 0.980890
Si Si3 0.500000 0.176202 0.823020
Si Si4 0.183580 0.423099 0.173311
Si Si5 0.893207 0.469926 0.929042
Si Si6 0.000000 0.234275 0.053277
Si Si7 0.312539 0.343768 0.072702
O O1 0.613637 0.117884 0.066592
O O2 0.674168 0.255579 0.081629
O O3 0.587446 0.225921 0.980591
O O4 0.745256 0.158574 0.991227
O O5 0.406824 0.612098 0.942777
O O6 0.500000 0.500000 0.000000
O O7 0.500000 0.646889 0.040155
O O8 0.500000 0.204283 0.750000
O O9 0.590412 0.125780 0.832162
O O10 0.500000 0.242942 0.872697
O O11 0.201642 0.435659 0.250000
O O12 0.163526 0.495907 0.130295
O O13 0.262256 0.379599 0.134113
O O14 0.000000 0.492930 0.922227
O O15 0.861565 0.500000 0.000000
#
# Coordination Sequence:
#
# PCOD9468217 Si02
#       7
#    16   8   8  16  16   8  16
#     4  10  19  32  57  84 110 139 178 233 279 323
#     4  10  24  36  54  82 107 141 187 242 279 306
#     4  10  18  31  53  84 119 147 170 211 281 349
#     4  11  22  36  55  83 118 150 180 219 283 349
#     4  11  19  30  55  88 120 143 173 223 291 344
#     4  10  16  35  56  84 116 134 178 231 281 336
#     4  10  21  37  54  78 109 146 190 228 271 321
#
# _framework density 16.366520000000001
#
# number of rings (size 3 to 8) (size 9 to 14) (size 15 to 20)
#    0.000    1.636    5.455    0.000    2.545    0.000 
#    0.000    1.364    0.000    3.273    0.000    0.000 
#    0.000    0.000    0.000    0.000    0.000    0.000 
#
# Total GULP energy -245133.867951 kJ/mol
# GULP energy per Si atom -5571.224272 kJ/mol
# Density = 1.632927 g / cm^3
# Si number density = 16.366520 Si / 1000 Ang^3
#
#
#
# Elastic Constant Matrix: (Units=GPa)
#
#
# Indices 1 2 3 4 5 6 
#
# 1 94.4976 34.0127 39.4922 0.0000 0.0000 0.0000
# 2 34.0127 129.6681 73.4470 0.0000 0.0000 0.0000
# 3 39.4922 73.4470 105.0068 0.0000 0.0000 0.0000
# 4 0.0000 0.0000 0.0000 22.0292 0.0000 0.0000
# 5 0.0000 0.0000 0.0000 0.0000 15.9351 0.0000
# 6 0.0000 0.0000 0.0000 0.0000 0.0000 24.4314
#
#
#
# Elastic Compliance Matrix: (Units=1/GPa)
#
#
# Indices 1 2 3 4 5 6 
#
# 1 0.012638 -0.001031 -0.004032 0.000000 0.000000 0.000000
# 2 -0.001031 0.012856 -0.008604 0.000000 0.000000 0.000000
# 3 -0.004032 -0.008604 0.017058 0.000000 0.000000 0.000000
# 4 0.000000 0.000000 0.000000 0.045394 0.000000 0.000000
# 5 0.000000 0.000000 0.000000 0.000000 0.062755 0.000000
# 6 0.000000 0.000000 0.000000 0.000000 0.000000 0.040931
#
#
# Mechanical properties :
#
#
# Convention : Reuss Voigt Hill
#
# Bulk Modulus (GPa) = 65.71446 69.23071 67.47259
# Shear Modulus (GPa) = 22.31741 24.62716 23.47229
#
# Velocity S-wave (km/s) = 3.69670 3.88329 3.79115
# Velocity P-wave (km/s) = 7.64590 7.90561 7.77684
#
# Compressibility (1/GPa) = 0.01521735
#
# Stress axis : x y z
#
# Youngs Moduli (GPa) = 79.12340 77.78289 58.62388
#
# Poissons Ratio (x) = 0.08023 0.23636
# Poissons Ratio (y) = 0.08161 0.50442
# Poissons Ratio (z) = 0.31901 0.66928
#
# Static dielectric constant tensor:
#      x y z
#    x 1.604800 0.000000 0.000000 
#    y 0.000000 1.565510 0.000000 
#    z 0.000000 0.000000 1.526600 
# 
# From -- ./inp_files/44145.got.cif
#   From: 2010.05.17/outbox.cif.g08.bks.cpg/sg63_23_cif.got.tgz:44145.got - 2010.06.03 15:47:04.
