data_PCOD9468485
_publ_section_title
;
Structure prediction by ZEFSAII (Michael W. Deem and Ramdas Pophale) SiO2 
 PCOD9468485
Probable space group: C M C M
;
_chemical_formula_sum "Si O2"
_cell_formula_units_Z 116
_cell_length_a 32.043346
_cell_length_b 27.541772
_cell_length_c 7.420291
_cell_angle_alpha 90.000000
_cell_angle_beta 90.000000
_cell_angle_gamma 90.000000
_cell_volume 6548.633346
_symmetry_space_group_name_H-M "C M C M"
_symmetry_group_IT_number 63
_symmetry_cell_setting 'orthorhombic'
loop_
_space_group_symop_operation_xyz
x,y,z
-x,-y,1/2+z
x,-y,-z
-x,y,1/2-z
-x,-y,-z
x,y,1/2-z
-x,y,z
x,-y,1/2+z
1/2+x,1/2+y,z
1/2-x,1/2-y,1/2+z
1/2+x,1/2-y,-z
1/2-x,1/2+y,1/2-z
1/2-x,1/2-y,-z
1/2+x,1/2+y,1/2-z
1/2-x,1/2+y,z
1/2+x,1/2-y,1/2+z
loop_
_atom_site_type_symbol
_atom_site_label
_atom_site_fract_x
_atom_site_fract_y
_atom_site_fract_z
Si Si1 0.737365 0.868361 0.541060
Si Si2 0.805125 0.056715 0.466272
Si Si3 0.500000 0.826696 0.750000
Si Si4 0.690604 0.703812 0.967023
Si Si5 0.122792 0.122638 0.042149
Si Si6 0.662011 0.810073 0.968844
Si Si7 0.933522 0.294570 0.041048
Si Si8 0.952218 0.183517 0.469307
O O1 0.730405 0.880905 0.750000
O O2 0.766169 0.911326 0.463207
O O3 0.766638 0.820490 0.532164
O O4 0.692651 0.852756 0.465775
O O5 0.805923 0.064462 0.250000
O O6 0.848620 0.079677 0.536491
O O7 0.801197 0.000000 0.500000
O O8 0.536387 0.823086 0.592074
O O9 0.690526 0.702119 0.750000
O O10 0.681582 0.758391 0.025965
O O11 0.653667 0.669001 0.035602
O O12 0.114118 0.109712 0.250000
O O13 0.079526 0.142344 0.963377
O O14 0.662374 0.810417 0.750000
O O15 0.614264 0.811450 0.027982
O O16 0.946874 0.296984 0.250000
O O17 0.936700 0.237629 0.982999
O O18 0.951615 0.181732 0.250000
O O19 0.000000 0.177970 0.528152
#
# Coordination Sequence:
#
# PCOD9468485 Si02
#       8
#    16  16   4  16  16  16  16  16
#     4   9  19  33  47  65  92 127 162 194 245 301
#     4   9  18  32  50  67  86 119 160 202 253 302
#     4  12  22  36  48  66 104 136 182 216 240 282
#     4  10  18  26  42  66  94 125 159 197 237 285
#     4   9  17  30  46  64  88 119 155 198 247 299
#     4  10  19  31  45  67  99 131 162 200 247 291
#     4  11  21  32  50  71  95 138 178 209 248 290
#     4   9  16  28  46  67  89 116 160 204 244 296
#
# _framework density 17.713619999999999
#
# number of rings (size 3 to 8) (size 9 to 14) (size 15 to 20)
#    0.000    2.345    2.759    1.862    0.000    3.310 
#    0.000    0.000    0.000    0.414    0.000    0.000 
#    0.000    0.000    0.000    0.621    2.759    0.966 
#
# Total GULP energy -322916.203141 kJ/mol
# GULP energy per Si atom -5567.520744 kJ/mol
# Density = 1.767330 g / cm^3
# Si number density = 17.713620 Si / 1000 Ang^3
#
#
#
# Elastic Constant Matrix: (Units=GPa)
#
#
# Indices 1 2 3 4 5 6 
#
# 1 159.2066 43.8305 5.5932 0.0000 0.0000 0.0000
# 2 43.8305 25.7549 5.5138 0.0000 0.0000 0.0000
# 3 5.5932 5.5138 71.8110 0.0000 0.0000 0.0000
# 4 0.0000 0.0000 0.0000 11.1007 0.0000 0.0000
# 5 0.0000 0.0000 0.0000 0.0000 14.1629 0.0000
# 6 0.0000 0.0000 0.0000 0.0000 0.0000 0.5947
#
#
#
# Elastic Compliance Matrix: (Units=1/GPa)
#
#
# Indices 1 2 3 4 5 6 
#
# 1 0.011847 -0.020297 0.000636 0.000000 0.000000 0.000000
# 2 -0.020297 0.074252 -0.004120 0.000000 0.000000 0.000000
# 3 0.000636 -0.004120 0.014192 0.000000 0.000000 0.000000
# 4 0.000000 0.000000 0.000000 0.090084 0.000000 0.000000
# 5 0.000000 0.000000 0.000000 0.000000 0.070607 0.000000
# 6 0.000000 0.000000 0.000000 0.000000 0.000000 1.681440
#
#
# Mechanical properties :
#
#
# Convention : Reuss Voigt Hill
#
# Bulk Modulus (GPa) = 18.96540 40.73860 29.85200
# Shear Modulus (GPa) = 2.49058 18.62734 10.55896
#
# Velocity S-wave (km/s) = 1.18705 3.24633 2.44415
# Velocity P-wave (km/s) = 3.55087 6.09097 4.98541
#
# Compressibility (1/GPa) = 0.05272759
#
# Stress axis : x y z
#
# Youngs Moduli (GPa) = 84.41101 13.46759 70.46084
#
# Poissons Ratio (x) = 0.27336 -0.04480
# Poissons Ratio (y) = 1.71332 0.29032
# Poissons Ratio (z) = -0.05366 0.05549
#
# Static dielectric constant tensor:
#      x y z
#    x 1.627240 0.000000 0.000000 
#    y 0.000000 1.578390 0.000000 
#    z 0.000000 0.000000 1.658170 
# 
# From -- ./inp_files/14922.got.cif
#   From: 2010.05.17/outbox.cif.g08.bks.cpg/sg63_8_cif.got.tgz:14922.got - 2010.06.03 15:47:04.
