data_PCOD9468841
_publ_section_title
;
Structure prediction by ZEFSAII (Michael W. Deem and Ramdas Pophale) SiO2 
 PCOD9468841
Probable space group: C M C M
;
_chemical_formula_sum "Si O2"
_cell_formula_units_Z 72
_cell_length_a 16.159716
_cell_length_b 29.587633
_cell_length_c 8.149492
_cell_angle_alpha 90.000000
_cell_angle_beta 90.000000
_cell_angle_gamma 90.000000
_cell_volume 3896.498244
_symmetry_space_group_name_H-M "C M C M"
_symmetry_group_IT_number 63
_symmetry_cell_setting 'orthorhombic'
loop_
_space_group_symop_operation_xyz
x,y,z
-x,-y,1/2+z
x,-y,-z
-x,y,1/2-z
-x,-y,-z
x,y,1/2-z
-x,y,z
x,-y,1/2+z
1/2+x,1/2+y,z
1/2-x,1/2-y,1/2+z
1/2+x,1/2-y,-z
1/2-x,1/2+y,1/2-z
1/2-x,1/2-y,-z
1/2+x,1/2+y,1/2-z
1/2-x,1/2+y,z
1/2+x,1/2-y,1/2+z
loop_
_atom_site_type_symbol
_atom_site_label
_atom_site_fract_x
_atom_site_fract_y
_atom_site_fract_z
Si Si1 0.907004 0.799015 0.948590
Si Si2 0.678941 0.051694 0.055652
Si Si3 0.500000 0.947577 0.444658
Si Si4 0.246598 0.140943 0.048668
Si Si5 0.092130 0.695461 0.446989
O O1 0.904195 0.797255 0.750000
O O2 0.835046 0.832579 0.005537
O O3 0.000000 0.813199 0.996896
O O4 0.894359 0.748154 0.012220
O O5 0.683083 0.050393 0.250000
O O6 0.743892 0.088942 0.994616
O O7 0.587113 0.069902 0.010729
O O8 0.688869 0.000000 0.000000
O O9 0.500000 0.945187 0.250000
O O10 0.500000 0.000000 0.500000
O O11 0.246073 0.141385 0.250000
O O12 0.329300 0.167235 0.993130
O O13 0.090010 0.690410 0.250000
O O14 0.000000 0.682689 0.510374
#
# Coordination Sequence:
#
# PCOD9468841 Si02
#       5
#    16  16   8  16  16
#     4   9  17  31  49  69  94 121 153 195 237 274
#     4  10  19  32  49  67  92 124 160 195 232 274
#     4  10  18  30  46  66  92 122 154 186 228 276
#     4   9  18  30  48  70  91 124 162 189 226 283
#     4   9  17  29  46  68  94 123 155 187 224 278
#
# _framework density 18.478131000000001
#
# number of rings (size 3 to 8) (size 9 to 14) (size 15 to 20)
#    0.000    2.667    0.000    3.667    1.556    0.000 
#    0.000    4.444    0.000    0.667    0.000    0.000 
#    0.000    0.000    0.000    0.000    0.000    0.889 
#
# Total GULP energy -200711.674442 kJ/mol
# GULP energy per Si atom -5575.324290 kJ/mol
# Density = 1.843607 g / cm^3
# Si number density = 18.478131 Si / 1000 Ang^3
#
#
#
# Elastic Constant Matrix: (Units=GPa)
#
#
# Indices 1 2 3 4 5 6 
#
# 1 123.2981 86.5987 11.3115 0.0000 0.0000 0.0000
# 2 86.5987 99.7731 7.9357 0.0000 0.0000 0.0000
# 3 11.3115 7.9357 17.4318 0.0000 0.0000 0.0000
# 4 0.0000 0.0000 0.0000 16.8554 0.0000 0.0000
# 5 0.0000 0.0000 0.0000 0.0000 9.2364 0.0000
# 6 0.0000 0.0000 0.0000 0.0000 0.0000 29.6273
#
#
#
# Elastic Compliance Matrix: (Units=1/GPa)
#
#
# Indices 1 2 3 4 5 6 
#
# 1 0.021290 -0.018033 -0.005606 0.000000 0.000000 0.000000
# 2 -0.018033 0.025674 0.000014 0.000000 0.000000 0.000000
# 3 -0.005606 0.000014 0.060998 0.000000 0.000000 0.000000
# 4 0.000000 0.000000 0.000000 0.059328 0.000000 0.000000
# 5 0.000000 0.000000 0.000000 0.000000 0.108267 0.000000
# 6 0.000000 0.000000 0.000000 0.000000 0.000000 0.033753
#
#
# Mechanical properties :
#
#
# Convention : Reuss Voigt Hill
#
# Bulk Modulus (GPa) = 16.47134 50.24387 33.35761
# Shear Modulus (GPa) = 13.26975 20.12096 16.69536
#
# Velocity S-wave (km/s) = 2.68271 3.30344 3.00912
# Velocity P-wave (km/s) = 4.30456 6.46532 5.49224
#
# Compressibility (1/GPa) = 0.06071152
#
# Stress axis : x y z
#
# Youngs Moduli (GPa) = 46.96945 38.95031 16.39410
#
# Poissons Ratio (x) = 0.70240 0.09190
# Poissons Ratio (y) = 0.84701 -0.00023
# Poissons Ratio (z) = 0.26330 -0.00055
#
# Static dielectric constant tensor:
#      x y z
#    x 1.678510 0.000000 0.000000 
#    y 0.000000 1.646160 0.000000 
#    z 0.000000 0.000000 1.641040 
# 
# From -- ./inp_files/4923.got.cif
#   From: 2010.05.17/outbox.cif.g08.bks.cpg/sg63_3_cif.got.tgz:4923.got - 2010.06.03 15:47:04.
