data_PCOD9468831
_publ_section_title
;
Structure prediction by ZEFSAII (Michael W. Deem and Ramdas Pophale) SiO2 
 PCOD9468831
Probable space group: C M C M
;
_chemical_formula_sum "Si O2"
_cell_formula_units_Z 80
_cell_length_a 24.488543
_cell_length_b 26.939252
_cell_length_c 8.673677
_cell_angle_alpha 90.000000
_cell_angle_beta 90.000000
_cell_angle_gamma 90.000000
_cell_volume 5722.051007
_symmetry_space_group_name_H-M "C M C M"
_symmetry_group_IT_number 63
_symmetry_cell_setting 'orthorhombic'
loop_
_space_group_symop_operation_xyz
x,y,z
-x,-y,1/2+z
x,-y,-z
-x,y,1/2-z
-x,-y,-z
x,y,1/2-z
-x,y,z
x,-y,1/2+z
1/2+x,1/2+y,z
1/2-x,1/2-y,1/2+z
1/2+x,1/2-y,-z
1/2-x,1/2+y,1/2-z
1/2-x,1/2-y,-z
1/2+x,1/2+y,1/2-z
1/2-x,1/2+y,z
1/2+x,1/2-y,1/2+z
loop_
_atom_site_type_symbol
_atom_site_label
_atom_site_fract_x
_atom_site_fract_y
_atom_site_fract_z
Si Si1 0.884414 0.239807 0.935483
Si Si2 0.000000 0.782120 0.933382
Si Si3 0.000000 0.106474 0.564169
Si Si4 0.818455 0.855507 0.935531
Si Si5 0.614186 0.554939 0.565274
Si Si6 0.282668 0.202833 0.435316
O O1 0.886529 0.236224 0.750000
O O2 0.845102 0.286049 0.980720
O O3 0.944950 0.242218 0.001537
O O4 0.855563 0.189622 0.998929
O O5 0.000000 0.780552 0.750000
O O6 0.000000 0.839454 0.988607
O O7 0.054509 0.076575 0.520988
O O8 0.000000 0.113046 0.750000
O O9 0.822816 0.855183 0.750000
O O10 0.755437 0.843487 0.980466
O O11 0.841534 0.906527 0.000938
O O12 0.621103 0.500000 0.500000
O O13 0.616835 0.553947 0.750000
O O14 0.281576 0.204630 0.250000
O O15 0.250000 0.250000 0.500000
#
# Coordination Sequence:
#
# PCOD9468831 Si02
#       6
#    16   8   8  16  16  16
#     4  10  18  30  45  62  85 113 143 174 213 258
#     4  12  22  29  43  64  87 115 146 183 220 253
#     4  10  21  35  47  58  80 111 147 185 225 263
#     4  10  18  30  46  65  85 107 140 179 218 259
#     4  11  22  34  47  62  82 112 148 187 228 262
#     4   8  16  28  44  63  83 107 136 172 211 255
#
# _framework density 13.981000999999999
#
# number of rings (size 3 to 8) (size 9 to 14) (size 15 to 20)
#    0.000    2.000    2.000    3.000    0.000    2.400 
#    0.000    0.000    0.000    0.000    0.000    0.000 
#    0.000    0.000    0.000    0.900    0.000   10.000 
#
# Total GULP energy -222943.800879 kJ/mol
# GULP energy per Si atom -5573.595022 kJ/mol
# Density = 1.394918 g / cm^3
# Si number density = 13.981001 Si / 1000 Ang^3
#
#
#
# Elastic Constant Matrix: (Units=GPa)
#
#
# Indices 1 2 3 4 5 6 
#
# 1 137.3832 72.7706 39.1145 0.0000 0.0000 0.0000
# 2 72.7706 73.7186 29.5646 0.0000 0.0000 0.0000
# 3 39.1145 29.5646 39.5313 0.0000 0.0000 0.0000
# 4 0.0000 0.0000 0.0000 16.3979 0.0000 0.0000
# 5 0.0000 0.0000 0.0000 0.0000 16.9137 0.0000
# 6 0.0000 0.0000 0.0000 0.0000 0.0000 12.7788
#
#
#
# Elastic Compliance Matrix: (Units=1/GPa)
#
#
# Indices 1 2 3 4 5 6 
#
# 1 0.016133 -0.013604 -0.005789 0.000000 0.000000 0.000000
# 2 -0.013604 0.030848 -0.009610 0.000000 0.000000 0.000000
# 3 -0.005789 -0.009610 0.038211 0.000000 0.000000 0.000000
# 4 0.000000 0.000000 0.000000 0.060984 0.000000 0.000000
# 5 0.000000 0.000000 0.000000 0.000000 0.059124 0.000000
# 6 0.000000 0.000000 0.000000 0.000000 0.000000 0.078254
#
#
# Mechanical properties :
#
#
# Convention : Reuss Voigt Hill
#
# Bulk Modulus (GPa) = 36.78265 59.28140 48.03203
# Shear Modulus (GPa) = 14.26037 16.49698 15.37868
#
# Velocity S-wave (km/s) = 3.19718 3.43878 3.32018
# Velocity P-wave (km/s) = 6.32419 7.63285 7.00913
#
# Compressibility (1/GPa) = 0.02718673
#
# Stress axis : x y z
#
# Youngs Moduli (GPa) = 61.98529 32.41682 26.17020
#
# Poissons Ratio (x) = 0.44099 0.15149
# Poissons Ratio (y) = 0.84324 0.25150
# Poissons Ratio (z) = 0.35882 0.31153
#
# Static dielectric constant tensor:
#      x y z
#    x 1.490760 0.000000 0.000000 
#    y 0.000000 1.431610 0.000000 
#    z 0.000000 0.000000 1.466890 
# 
# From -- ./inp_files/6721.got.cif
#   From: 2010.05.17/outbox.cif.g08.bks.cpg/sg63_4_cif.got.tgz:6721.got - 2010.06.03 15:47:04.
