data_PCOD9468237
_publ_section_title
;
Structure prediction by ZEFSAII (Michael W. Deem and Ramdas Pophale) SiO2 
 PCOD9468237
Probable space group: C M C M
;
_chemical_formula_sum "Si O2"
_cell_formula_units_Z 64
_cell_length_a 11.229803
_cell_length_b 14.347467
_cell_length_c 17.025804
_cell_angle_alpha 90.000000
_cell_angle_beta 90.000000
_cell_angle_gamma 90.000000
_cell_volume 2743.184396
_symmetry_space_group_name_H-M "C M C M"
_symmetry_group_IT_number 63
_symmetry_cell_setting 'orthorhombic'
loop_
_space_group_symop_operation_xyz
x,y,z
-x,-y,1/2+z
x,-y,-z
-x,y,1/2-z
-x,-y,-z
x,y,1/2-z
-x,y,z
x,-y,1/2+z
1/2+x,1/2+y,z
1/2-x,1/2-y,1/2+z
1/2+x,1/2-y,-z
1/2-x,1/2+y,1/2-z
1/2-x,1/2-y,-z
1/2+x,1/2+y,1/2-z
1/2-x,1/2+y,z
1/2+x,1/2-y,1/2+z
loop_
_atom_site_type_symbol
_atom_site_label
_atom_site_fract_x
_atom_site_fract_y
_atom_site_fract_z
Si Si1 0.748449 0.764118 0.092550
Si Si2 0.000000 0.237214 0.839896
Si Si3 0.753433 0.523861 0.654935
Si Si4 0.000000 0.484830 0.092611
Si Si5 0.500000 0.508999 0.658906
Si Si6 0.000000 0.272813 0.343781
O O1 0.746514 0.872607 0.118529
O O2 0.624621 0.727101 0.129602
O O3 0.876511 0.730276 0.122774
O O4 0.750000 0.750000 0.000000
O O5 0.000000 0.265160 0.750000
O O6 0.000000 0.122871 0.842239
O O7 0.750952 0.530978 0.750000
O O8 0.628393 0.480898 0.625956
O O9 0.876586 0.478343 0.628481
O O10 0.000000 0.375030 0.115794
O O11 0.000000 0.500000 0.000000
O O12 0.500000 0.478337 0.750000
O O13 0.000000 0.284066 0.250000
#
# Coordination Sequence:
#
# PCOD9468237 Si02
#       6
#    16   8  16   8   8   8
#     4  10  17  25  41  68  95 115 143 190 233 264
#     4   9  15  25  38  55  81 117 146 169 208 262
#     4   9  16  29  46  65  86 116 151 184 224 280
#     4  10  18  27  42  66  92 116 149 197 238 267
#     4   7  12  23  42  61  78  98 132 172 205 248
#     4  10  19  33  49  68  92 125 162 192 224 281
#
# _framework density 23.330548
#
# number of rings (size 3 to 8) (size 9 to 14) (size 15 to 20)
#    0.000    2.750    0.000    7.125    0.000    0.000 
#    0.000    0.625    0.000    0.000    0.000   84.000 
#    0.000    8.000    0.000    0.000    0.000    0.000 
#
# Total GULP energy -178569.723998 kJ/mol
# GULP energy per Si atom -5580.303875 kJ/mol
# Density = 2.327745 g / cm^3
# Si number density = 23.330548 Si / 1000 Ang^3
#
#
#
# Elastic Constant Matrix: (Units=GPa)
#
#
# Indices 1 2 3 4 5 6 
#
# 1 339.2100 21.4701 93.2135 0.0000 0.0000 0.0000
# 2 21.4701 104.8968 21.2802 0.0000 0.0000 0.0000
# 3 93.2135 21.2802 180.9690 0.0000 0.0000 0.0000
# 4 0.0000 0.0000 0.0000 24.8082 0.0000 0.0000
# 5 0.0000 0.0000 0.0000 0.0000 24.9893 0.0000
# 6 0.0000 0.0000 0.0000 0.0000 0.0000 -20.7273
#
#
#
# Elastic Compliance Matrix: (Units=1/GPa)
#
#
# Indices 1 2 3 4 5 6 
#
# 1 0.003447 -0.000354 -0.001734 0.000000 0.000000 0.000000
# 2 -0.000354 0.009802 -0.000970 0.000000 0.000000 0.000000
# 3 -0.001734 -0.000970 0.006533 0.000000 0.000000 0.000000
# 4 0.000000 0.000000 0.000000 0.040309 0.000000 0.000000
# 5 0.000000 0.000000 0.000000 0.000000 0.040017 0.000000
# 6 0.000000 0.000000 0.000000 0.000000 0.000000 -0.048245
#
#
# Mechanical properties :
#
#
# Convention : Reuss Voigt Hill
#
# Bulk Modulus (GPa) = 73.17305 99.66705 86.42005
# Shear Modulus (GPa) = 79.95551 38.42148 59.18850
#
# Velocity S-wave (km/s) = 5.86047 4.06252 5.04228
# Velocity P-wave (km/s) = 8.78779 8.05094 8.42742
#
# Compressibility (1/GPa) = 0.01366623
#
# Stress axis : x y z
#
# Youngs Moduli (GPa) = 290.11894 102.01519 153.06954
#
# Poissons Ratio (x) = 0.03609 0.26539
# Poissons Ratio (y) = 0.10263 0.14855
# Poissons Ratio (z) = 0.50301 0.09900
#
# Static dielectric constant tensor:
#      x y z
#    x 2.062540 0.000000 0.000000 
#    y 0.000000 1.784020 0.000000 
#    z 0.000000 0.000000 1.717550 
# 
# From -- ./inp_files/29221.got.cif
#   From: 2010.05.17/outbox.cif.g08.bks.cpg/sg63_15_cif.got.tgz:29221.got - 2010.06.03 15:47:04.
