data_PCOD9468141
_publ_section_title
;
Structure prediction by ZEFSAII (Michael W. Deem and Ramdas Pophale) SiO2 
 PCOD9468141
Probable space group: C M C M
;
_chemical_formula_sum "Si O2"
_cell_formula_units_Z 96
_cell_length_a 13.654808
_cell_length_b 24.634559
_cell_length_c 14.138918
_cell_angle_alpha 90.000000
_cell_angle_beta 90.000000
_cell_angle_gamma 90.000000
_cell_volume 4756.051687
_symmetry_space_group_name_H-M "C M C M"
_symmetry_group_IT_number 63
_symmetry_cell_setting 'orthorhombic'
loop_
_space_group_symop_operation_xyz
x,y,z
-x,-y,1/2+z
x,-y,-z
-x,y,1/2-z
-x,-y,-z
x,y,1/2-z
-x,y,z
x,-y,1/2+z
1/2+x,1/2+y,z
1/2-x,1/2-y,1/2+z
1/2+x,1/2-y,-z
1/2-x,1/2+y,1/2-z
1/2-x,1/2-y,-z
1/2+x,1/2+y,1/2-z
1/2-x,1/2+y,z
1/2+x,1/2-y,1/2+z
loop_
_atom_site_type_symbol
_atom_site_label
_atom_site_fract_x
_atom_site_fract_y
_atom_site_fract_z
Si Si1 0.108995 0.918683 0.933469
Si Si2 0.693685 0.813144 0.364417
Si Si3 0.165734 0.907815 0.143928
Si Si4 0.787826 0.508740 0.388184
Si Si5 0.113465 0.202334 0.137838
Si Si6 0.500000 0.999968 0.613190
Si Si7 0.000000 0.628378 0.639805
O O1 0.196135 0.950562 0.880757
O O2 0.123409 0.855081 0.912790
O O3 0.000000 0.934388 0.899800
O O4 0.112287 0.926869 0.047762
O O5 0.686518 0.810994 0.250000
O O6 0.789896 0.848793 0.380354
O O7 0.682942 0.751034 0.396124
O O8 0.599515 0.846577 0.401987
O O9 0.120137 0.906698 0.250000
O O10 0.255022 0.950641 0.151269
O O11 0.796999 0.500000 0.500000
O O12 0.896211 0.524939 0.354938
O O13 0.128814 0.193344 0.250000
O O14 0.000000 0.220797 0.126857
O O15 0.500000 0.000000 0.500000
O O16 0.500000 0.063660 0.637555
O O17 0.000000 0.644359 0.750000
#
# Coordination Sequence:
#
# PCOD9468141 Si02
#       7
#    16  16  16  16  16   8   8
#     4  10  22  38  53  75 111 147 189 226 259 312
#     4   9  16  28  50  82 109 131 171 225 280 328
#     4  10  20  33  52  78 107 141 182 225 273 320
#     4   9  19  33  50  74 105 139 170 216 268 322
#     4   9  17  32  54  78 105 139 178 224 277 325
#     4  10  18  30  50  78 112 136 162 206 272 336
#     4  10  16  26  50  82 112 136 165 220 280 333
#
# _framework density 20.184809999999999
#
# number of rings (size 3 to 8) (size 9 to 14) (size 15 to 20)
#    0.000    2.500    2.500    0.000    0.000    4.667 
#    0.000    0.000    0.000    0.000    0.000    0.000 
#    0.000    0.000    0.000    0.000    0.000    0.000 
#
# Total GULP energy -267282.443153 kJ/mol
# GULP energy per Si atom -5568.384232 kJ/mol
# Density = 2.013887 g / cm^3
# Si number density = 20.184810 Si / 1000 Ang^3
#
#
#
# Elastic Constant Matrix: (Units=GPa)
#
#
# Indices 1 2 3 4 5 6 
#
# 1 125.3474 47.4142 8.3147 0.0000 0.0000 0.0000
# 2 47.4142 73.8043 5.6976 0.0000 0.0000 0.0000
# 3 8.3147 5.6976 61.2636 0.0000 0.0000 0.0000
# 4 0.0000 0.0000 0.0000 23.6798 0.0000 0.0000
# 5 0.0000 0.0000 0.0000 0.0000 1.4351 0.0000
# 6 0.0000 0.0000 0.0000 0.0000 0.0000 26.8647
#
#
#
# Elastic Compliance Matrix: (Units=1/GPa)
#
#
# Indices 1 2 3 4 5 6 
#
# 1 0.010579 -0.006734 -0.000810 0.000000 0.000000 0.000000
# 2 -0.006734 0.017933 -0.000754 0.000000 0.000000 0.000000
# 3 -0.000810 -0.000754 0.016503 0.000000 0.000000 0.000000
# 4 0.000000 0.000000 0.000000 0.042230 0.000000 0.000000
# 5 0.000000 0.000000 0.000000 0.000000 0.696816 0.000000
# 6 0.000000 0.000000 0.000000 0.000000 0.000000 0.037224
#
#
# Mechanical properties :
#
#
# Convention : Reuss Voigt Hill
#
# Bulk Modulus (GPa) = 35.18537 42.58538 38.88538
# Shear Modulus (GPa) = 5.90074 23.66184 14.78129
#
# Velocity S-wave (km/s) = 1.71164 3.42754 2.70904
# Velocity P-wave (km/s) = 4.62339 6.06693 5.39367
#
# Compressibility (1/GPa) = 0.02842090
#
# Stress axis : x y z
#
# Youngs Moduli (GPa) = 94.53087 55.76199 60.59544
#
# Poissons Ratio (x) = 0.37547 0.04905
# Poissons Ratio (y) = 0.63652 0.04569
# Poissons Ratio (z) = 0.07652 0.04204
#
# Static dielectric constant tensor:
#      x y z
#    x 1.778710 0.000000 0.000000 
#    y 0.000000 1.714760 0.000000 
#    z 0.000000 0.000000 1.763220 
# 
# From -- ./inp_files/32211.got.cif
#   From: 2010.05.17/outbox.cif.g08.bks.cpg/sg63_17_cif.got.tgz:32211.got - 2010.06.03 15:47:04.
