data_PCOD9468900
_publ_section_title
;
Structure prediction by ZEFSAII (Michael W. Deem and Ramdas Pophale) SiO2 
 PCOD9468900
Probable space group: C M C M
;
_chemical_formula_sum "Si O2"
_cell_formula_units_Z 96
_cell_length_a 7.612631
_cell_length_b 20.079452
_cell_length_c 31.808315
_cell_angle_alpha 90.000000
_cell_angle_beta 90.000000
_cell_angle_gamma 90.000000
_cell_volume 4862.138198
_symmetry_space_group_name_H-M "C M C M"
_symmetry_group_IT_number 63
_symmetry_cell_setting 'orthorhombic'
loop_
_space_group_symop_operation_xyz
x,y,z
-x,-y,1/2+z
x,-y,-z
-x,y,1/2-z
-x,-y,-z
x,y,1/2-z
-x,y,z
x,-y,1/2+z
1/2+x,1/2+y,z
1/2-x,1/2-y,1/2+z
1/2+x,1/2-y,-z
1/2-x,1/2+y,1/2-z
1/2-x,1/2-y,-z
1/2+x,1/2+y,1/2-z
1/2-x,1/2+y,z
1/2+x,1/2-y,1/2+z
loop_
_atom_site_type_symbol
_atom_site_label
_atom_site_fract_x
_atom_site_fract_y
_atom_site_fract_z
Si Si1 0.792040 0.135926 0.434577
Si Si2 0.788319 0.466104 0.638411
Si Si3 0.288668 0.254124 0.869653
Si Si4 0.784469 0.392722 0.389927
Si Si5 0.710787 0.144245 0.202549
Si Si6 0.295420 0.068924 0.982209
O O1 0.757985 0.072147 0.404706
O O2 0.723430 0.198848 0.407876
O O3 0.715100 0.121990 0.480271
O O4 0.000000 0.143490 0.439829
O O5 0.728271 0.542192 0.636095
O O6 0.722101 0.419775 0.676345
O O7 0.000000 0.466988 0.640718
O O8 0.500000 0.253120 0.873220
O O9 0.224484 0.178742 0.873296
O O10 0.247132 0.291765 0.826385
O O11 0.724967 0.404848 0.438014
O O12 0.000000 0.391330 0.389274
O O13 0.778734 0.148735 0.250000
O O14 0.500000 0.137757 0.204818
O O15 0.500000 0.054209 0.973362
O O16 0.215710 0.000000 0.000000
#
# Coordination Sequence:
#
# PCOD9468900 Si02
#       6
#    16  16  16  16  16  16
#     4  10  19  30  45  69 100 130 163 201 237 280
#     4   9  16  31  53  71  92 125 162 198 238 282
#     4   9  19  34  50  71 100 132 160 194 242 291
#     4   9  17  31  50  71  96 126 164 204 236 277
#     4   9  18  33  54  77  97 120 155 198 240 289
#     4  10  18  30  49  70  93 129 172 206 238 277
#
# _framework density 19.744399000000001
#
# number of rings (size 3 to 8) (size 9 to 14) (size 15 to 20)
#    0.000    2.667    1.667    0.500    0.000    2.000 
#    0.000    2.500    0.000    3.000    0.000    0.000 
#    0.000    0.000    0.000    0.000    0.000    0.000 
#
# Total GULP energy -267735.036425 kJ/mol
# GULP energy per Si atom -5577.813259 kJ/mol
# Density = 1.969946 g / cm^3
# Si number density = 19.744399 Si / 1000 Ang^3
#
#
#
# Elastic Constant Matrix: (Units=GPa)
#
#
# Indices 1 2 3 4 5 6 
#
# 1 37.9292 -0.5700 -2.3744 0.0000 0.0000 0.0000
# 2 -0.5700 169.6890 86.4701 0.0000 0.0000 0.0000
# 3 -2.3744 86.4701 147.1973 0.0000 0.0000 0.0000
# 4 0.0000 0.0000 0.0000 15.2608 0.0000 0.0000
# 5 0.0000 0.0000 0.0000 0.0000 2.7300 0.0000
# 6 0.0000 0.0000 0.0000 0.0000 0.0000 15.5396
#
#
#
# Elastic Compliance Matrix: (Units=1/GPa)
#
#
# Indices 1 2 3 4 5 6 
#
# 1 0.026396 -0.000183 0.000533 0.000000 0.000000 0.000000
# 2 -0.000183 0.008412 -0.004945 0.000000 0.000000 0.000000
# 3 0.000533 -0.004945 0.009707 0.000000 0.000000 0.000000
# 4 0.000000 0.000000 0.000000 0.065527 0.000000 0.000000
# 5 0.000000 0.000000 0.000000 0.000000 0.366298 0.000000
# 6 0.000000 0.000000 0.000000 0.000000 0.000000 0.064352
#
#
# Mechanical properties :
#
#
# Convention : Reuss Voigt Hill
#
# Bulk Modulus (GPa) = 28.30791 57.98521 43.14656
# Shear Modulus (GPa) = 8.90225 24.79209 16.84717
#
# Velocity S-wave (km/s) = 2.12568 3.54736 2.92424
# Velocity P-wave (km/s) = 4.51586 6.79780 5.77075
#
# Compressibility (1/GPa) = 0.03532582
#
# Stress axis : x y z
#
# Youngs Moduli (GPa) = 37.88519 118.87479 103.01943
#
# Poissons Ratio (x) = 0.02177 -0.05495
# Poissons Ratio (y) = 0.00694 0.50940
# Poissons Ratio (z) = -0.02021 0.58779
#
# Static dielectric constant tensor:
#      x y z
#    x 1.757810 0.000000 0.000000 
#    y 0.000000 1.706140 0.000000 
#    z 0.000000 0.000000 1.672550 
# 
# From -- ./inp_files/66996.got.cif
#   From: 2010.05.17/outbox.cif.g08.bks.cpg/sg63_34_cif.got.tgz:66996.got - 2010.06.03 15:47:04.
