data_PCOD9468028
_publ_section_title
;
Structure prediction by ZEFSAII (Michael W. Deem and Ramdas Pophale) SiO2 
 PCOD9468028
Probable space group: P N M A
;
_chemical_formula_sum "Si O2"
_cell_formula_units_Z 64
_cell_length_a 24.000000
_cell_length_b 9.000000
_cell_length_c 15.000000
_cell_angle_alpha 90.000000
_cell_angle_beta 90.000000
_cell_angle_gamma 90.000000
_cell_volume 3240.000000
_symmetry_space_group_name_H-M "P N M A"
_symmetry_group_IT_number 62
_symmetry_cell_setting 'orthorhombic'
loop_
_space_group_symop_operation_xyz
x,y,z
1/2-x,-y,1/2+z
1/2+x,1/2-y,1/2-z
-x,1/2+y,-z
-x,-y,-z
1/2+x,y,1/2-z
1/2-x,1/2+y,1/2+z
x,1/2-y,z
loop_
_atom_site_type_symbol
_atom_site_label
_atom_site_fract_x
_atom_site_fract_y
_atom_site_fract_z
Si Si1 0.842686 0.578759 0.863077
Si Si2 0.477166 0.925163 0.409744
Si Si3 0.953370 0.572971 0.559266
Si Si4 0.273122 0.573814 0.165653
Si Si5 0.171403 0.431954 0.481194
Si Si6 0.734349 0.920201 0.650974
Si Si7 0.375835 0.419885 0.462878
Si Si8 0.451660 0.578163 0.735532
O O1 0.825469 0.750000 0.874264
O O2 0.790441 0.473378 0.851332
O O3 0.885523 0.569705 0.781589
O O4 0.875014 0.522385 0.950188
O O5 0.470969 0.750000 0.420927
O O6 0.500000 0.000000 0.500000
O O7 0.418447 0.006405 0.394460
O O8 0.517709 0.966776 0.329846
O O9 0.953791 0.750000 0.545936
O O10 0.891462 0.520090 0.535046
O O11 0.964599 0.545624 0.662919
O O12 0.000000 0.500000 0.500000
O O13 0.278729 0.750000 0.170490
O O14 0.307267 0.521287 0.078898
O O15 0.285985 0.504238 0.261461
O O16 0.174168 0.250000 0.479159
O O17 0.212262 0.482905 0.401642
O O18 0.747022 0.750000 0.677943
O O19 0.685263 0.917870 0.578771
O O20 0.392014 0.250000 0.484403
O O21 0.467341 0.750000 0.713797
#
# Coordination Sequence:
#
# PCOD9468028 Si02
#       8
#     8   8   8   8   8   8   8   8
#     4  11  21  36  61  89 121 160 205 250 306 368
#     4  12  24  38  59  88 125 163 203 249 307 374
#     4  10  22  42  66  88 117 156 205 257 308 363
#     4  11  22  37  60  91 124 159 205 253 304 365
#     4   9  19  40  64  85 117 161 199 243 306 367
#     4  10  21  40  62  87 121 161 202 244 306 370
#     4  11  22  38  61  88 123 160 200 253 308 364
#     4  10  22  40  63  89 118 161 212 259 307 367
#
# _framework density 19.753086
#
# number of rings (size 3 to 8) (size 9 to 14) (size 15 to 20)
#    0.000    1.500    2.500    3.000    0.000    5.000 
#    0.000    5.625    0.000    0.000    0.000    0.000 
#    0.000    0.000    0.000    0.000    0.000    0.000 
#
# Total GULP energy -357357.272808 kJ/mol
# GULP energy per Si atom -5583.707388 kJ/mol
# Density = 1.970813 g / cm^3
# Si number density = 19.753086 Si / 1000 Ang^3
#
#
#
# Elastic Constant Matrix: (Units=GPa)
#
#
# Indices 1 2 3 4 5 6 
#
# 1 65.6070 18.2657 4.4860 0.0000 0.0000 0.0000
# 2 18.2657 49.7239 45.2245 0.0000 0.0000 0.0000
# 3 4.4860 45.2245 52.5093 0.0000 0.0000 0.0000
# 4 0.0000 0.0000 0.0000 29.2094 0.0000 0.0000
# 5 0.0000 0.0000 0.0000 0.0000 26.2848 0.0000
# 6 0.0000 0.0000 0.0000 0.0000 0.0000 24.4848
#
#
#
# Elastic Compliance Matrix: (Units=1/GPa)
#
#
# Indices 1 2 3 4 5 6 
#
# 1 0.021753 -0.029079 0.023186 0.000000 0.000000 0.000000
# 2 -0.029079 0.131693 -0.110939 0.000000 0.000000 0.000000
# 3 0.023186 -0.110939 0.112611 0.000000 0.000000 0.000000
# 4 0.000000 0.000000 0.000000 0.034236 0.000000 0.000000
# 5 0.000000 0.000000 0.000000 0.000000 0.038045 0.000000
# 6 0.000000 0.000000 0.000000 0.000000 0.000000 0.040842
#
#
# Mechanical properties :
#
#
# Convention : Reuss Voigt Hill
#
# Bulk Modulus (GPa) = 30.86940 33.75473 32.31206
# Shear Modulus (GPa) = 8.01745 22.65340 15.33543
#
# Velocity S-wave (km/s) = 2.01684 3.39016 2.78934
# Velocity P-wave (km/s) = 4.59185 5.69646 5.17372
#
# Compressibility (1/GPa) = 0.03239454
#
# Stress axis : x y z
#
# Youngs Moduli (GPa) = 45.97116 7.59342 8.88012
#
# Poissons Ratio (x) = 0.22081 -0.20590
# Poissons Ratio (y) = 1.33680 0.98515
# Poissons Ratio (z) = -1.06591 0.84240
#
# Static dielectric constant tensor:
#      x y z
#    x 1.752850 0.000000 0.000000 
#    y 0.000000 1.674800 0.000000 
#    z 0.000000 0.000000 1.680010 
# 
# From -- ./inp_files/20832.got.cif
#   From: 2010.05.17/outbox.ucp.g08.bks.cvg/sg62_11_cif.got.tgz:20832.got - 2010.06.11 16:29:25.
