data_PCOD9468415
_publ_section_title
;
Structure prediction by ZEFSAII (Michael W. Deem and Ramdas Pophale) SiO2 
 PCOD9468415
Probable space group: C M C M
;
_chemical_formula_sum "Si O2"
_cell_formula_units_Z 64
_cell_length_a 25.423811
_cell_length_b 7.264239
_cell_length_c 15.336350
_cell_angle_alpha 90.000000
_cell_angle_beta 90.000000
_cell_angle_gamma 90.000000
_cell_volume 2832.388269
_symmetry_space_group_name_H-M "C M C M"
_symmetry_group_IT_number 63
_symmetry_cell_setting 'orthorhombic'
loop_
_space_group_symop_operation_xyz
x,y,z
-x,-y,1/2+z
x,-y,-z
-x,y,1/2-z
-x,-y,-z
x,y,1/2-z
-x,y,z
x,-y,1/2+z
1/2+x,1/2+y,z
1/2-x,1/2-y,1/2+z
1/2+x,1/2-y,-z
1/2-x,1/2+y,1/2-z
1/2-x,1/2-y,-z
1/2+x,1/2+y,1/2-z
1/2-x,1/2+y,z
1/2+x,1/2-y,1/2+z
loop_
_atom_site_type_symbol
_atom_site_label
_atom_site_fract_x
_atom_site_fract_y
_atom_site_fract_z
Si Si1 0.680748 0.252717 0.250000
Si Si2 0.888709 0.717355 0.091773
Si Si3 0.500000 0.777840 0.151259
Si Si4 0.616771 0.227884 0.607106
Si Si5 0.196230 0.315993 0.250000
Si Si6 0.000000 0.795130 0.459822
O O1 0.648587 0.304566 0.336239
O O2 0.741284 0.308297 0.250000
O O3 0.682354 0.030969 0.250000
O O4 0.887164 0.495930 0.102268
O O5 0.949522 0.766716 0.098920
O O6 0.875352 0.779530 0.993509
O O7 0.500000 0.865371 0.250000
O O8 0.439121 0.701838 0.146439
O O9 0.500000 0.834578 0.047127
O O10 0.666858 0.269461 0.666652
O O11 0.000000 0.000000 0.500000
#
# Coordination Sequence:
#
# PCOD9468415 Si02
#       6
#     8  16   8  16   8   8
#     4  10  22  39  55  82 110 151 194 230 272 323
#     4   9  19  36  56  82 111 143 178 223 279 332
#     4  10  17  31  56  88 104 136 176 224 286 329
#     4   9  17  33  60  82 111 138 180 232 275 329
#     4  10  20  37  55  82 112 147 196 234 270 323
#     4  10  21  38  53  81 118 143 178 219 281 350
#
# _framework density 22.595770999999999
#
# number of rings (size 3 to 8) (size 9 to 14) (size 15 to 20)
#    0.000    2.500    1.250    0.750    0.000    4.500 
#   11.250    0.000    0.000    0.000    0.000    0.000 
#    0.000    0.000    0.000    0.000    0.000    0.000 
#
# Total GULP energy -178228.015770 kJ/mol
# GULP energy per Si atom -5569.625493 kJ/mol
# Density = 2.254434 g / cm^3
# Si number density = 22.595771 Si / 1000 Ang^3
#
#
#
# Elastic Constant Matrix: (Units=GPa)
#
#
# Indices 1 2 3 4 5 6 
#
# 1 230.4836 -3.7662 135.0173 0.0000 0.0000 0.0000
# 2 -3.7662 73.6548 22.9199 0.0000 0.0000 0.0000
# 3 135.0173 22.9199 180.0213 0.0000 0.0000 0.0000
# 4 0.0000 0.0000 0.0000 0.7723 0.0000 0.0000
# 5 0.0000 0.0000 0.0000 0.0000 62.3492 0.0000
# 6 0.0000 0.0000 0.0000 0.0000 0.0000 17.8310
#
#
#
# Elastic Compliance Matrix: (Units=1/GPa)
#
#
# Indices 1 2 3 4 5 6 
#
# 1 0.008129 0.002408 -0.006404 0.000000 0.000000 0.000000
# 2 0.002408 0.014850 -0.003697 0.000000 0.000000 0.000000
# 3 -0.006404 -0.003697 0.010828 0.000000 0.000000 0.000000
# 4 0.000000 0.000000 0.000000 1.294777 0.000000 0.000000
# 5 0.000000 0.000000 0.000000 0.000000 0.016039 0.000000
# 6 0.000000 0.000000 0.000000 0.000000 0.000000 0.056082
#
#
# Mechanical properties :
#
#
# Convention : Reuss Voigt Hill
#
# Bulk Modulus (GPa) = 54.27848 88.05574 71.16711
# Shear Modulus (GPa) = 3.51560 38.18975 20.85268
#
# Velocity S-wave (km/s) = 1.24870 4.11558 3.04115
# Velocity P-wave (km/s) = 5.11397 7.85102 6.62538
#
# Compressibility (1/GPa) = 0.01842351
#
# Stress axis : x y z
#
# Youngs Moduli (GPa) = 123.01116 67.33808 92.34959
#
# Poissons Ratio (x) = -0.16218 0.59138
# Poissons Ratio (y) = -0.29626 0.34142
# Poissons Ratio (z) = 0.78773 0.24895
#
# Static dielectric constant tensor:
#      x y z
#    x 1.823680 0.000000 0.000000 
#    y 0.000000 1.958190 0.000000 
#    z 0.000000 0.000000 1.842560 
# 
# From -- ./inp_files/33434.got.cif
#   From: 2010.05.17/outbox.cif.g08.bks.cpg/sg63_17_cif.got.tgz:33434.got - 2010.06.03 15:47:04.
