data_PCOD9468167
_publ_section_title
;
Structure prediction by ZEFSAII (Michael W. Deem and Ramdas Pophale) SiO2 
 PCOD9468167
Probable space group: C M C M
;
_chemical_formula_sum "Si O2"
_cell_formula_units_Z 68
_cell_length_a 19.469158
_cell_length_b 7.411182
_cell_length_c 20.059993
_cell_angle_alpha 90.000000
_cell_angle_beta 90.000000
_cell_angle_gamma 90.000000
_cell_volume 2894.445825
_symmetry_space_group_name_H-M "C M C M"
_symmetry_group_IT_number 63
_symmetry_cell_setting 'orthorhombic'
loop_
_space_group_symop_operation_xyz
x,y,z
-x,-y,1/2+z
x,-y,-z
-x,y,1/2-z
-x,-y,-z
x,y,1/2-z
-x,y,z
x,-y,1/2+z
1/2+x,1/2+y,z
1/2-x,1/2-y,1/2+z
1/2+x,1/2-y,-z
1/2-x,1/2+y,1/2-z
1/2-x,1/2-y,-z
1/2+x,1/2+y,1/2-z
1/2-x,1/2+y,z
1/2+x,1/2-y,1/2+z
loop_
_atom_site_type_symbol
_atom_site_label
_atom_site_fract_x
_atom_site_fract_y
_atom_site_fract_z
Si Si1 0.383406 0.848798 0.354791
Si Si2 0.330646 0.784438 0.006526
Si Si3 0.782505 0.488397 0.250000
Si Si4 0.000000 0.758886 0.750000
Si Si5 0.077699 0.235782 0.886053
Si Si6 0.361304 0.369115 0.250000
O O1 0.363866 0.743607 0.421820
O O2 0.312694 0.888993 0.314985
O O3 0.439352 0.758122 0.307631
O O4 0.413646 0.049269 0.370864
O O5 0.250000 0.750000 0.000000
O O6 0.369799 0.693810 0.945072
O O7 0.339965 0.000000 0.000000
O O8 0.701049 0.507752 0.250000
O O9 0.819124 0.681321 0.250000
O O10 0.094258 0.136524 0.816676
O O11 0.000000 0.200277 0.906617
#
# Coordination Sequence:
#
# PCOD9468167 Si02
#       6
#    16  16   8   4  16   8
#     4   9  18  29  50  76 109 130 170 218 278 302
#     4  10  21  35  53  81 110 140 179 220 269 324
#     4   9  18  31  48  77 100 138 173 211 258 315
#     4  10  16  28  50  78 110 132 164 232 272 310
#     4  10  19  30  52  79 105 136 173 228 266 311
#     4  10  19  32  51  77 104 136 179 211 270 311
#
# _framework density 23.493271
#
# number of rings (size 3 to 8) (size 9 to 14) (size 15 to 20)
#    0.000    2.353    1.176    2.471    1.647    1.412 
#    0.000    0.000    0.000    0.706   24.471    0.000 
#    0.000    0.000    0.000    0.000    0.000    0.000 
#
# Total GULP energy -189759.979372 kJ/mol
# GULP energy per Si atom -5581.175864 kJ/mol
# Density = 2.343980 g / cm^3
# Si number density = 23.493271 Si / 1000 Ang^3
#
#
#
# Elastic Constant Matrix: (Units=GPa)
#
#
# Indices 1 2 3 4 5 6 
#
# 1 179.8147 0.1916 79.3261 0.0000 0.0000 0.0000
# 2 0.1916 72.4059 16.5661 0.0000 0.0000 0.0000
# 3 79.3261 16.5661 181.3922 0.0000 0.0000 0.0000
# 4 0.0000 0.0000 0.0000 -3.6303 0.0000 0.0000
# 5 0.0000 0.0000 0.0000 0.0000 41.0214 0.0000
# 6 0.0000 0.0000 0.0000 0.0000 0.0000 12.6556
#
#
#
# Elastic Compliance Matrix: (Units=1/GPa)
#
#
# Indices 1 2 3 4 5 6 
#
# 1 0.006924 0.000689 -0.003091 0.000000 0.000000 0.000000
# 2 0.000689 0.014174 -0.001596 0.000000 0.000000 0.000000
# 3 -0.003091 -0.001596 0.007010 0.000000 0.000000 0.000000
# 4 0.000000 0.000000 0.000000 -0.275463 0.000000 0.000000
# 5 0.000000 0.000000 0.000000 0.000000 0.024378 0.000000
# 6 0.000000 0.000000 0.000000 0.000000 0.000000 0.079017
#
#
# Mechanical properties :
#
#
# Convention : Reuss Voigt Hill
#
# Bulk Modulus (GPa) = 49.71877 69.53116 59.62496
# Shear Modulus (GPa) = -38.68177 32.51128 -3.08524
#
# Velocity S-wave (km/s) = -4.06212 3.72406 -1.14721
# Velocity P-wave (km/s) = 0.89001 6.93916 4.86620
#
# Compressibility (1/GPa) = 0.02011313
#
# Stress axis : x y z
#
# Youngs Moduli (GPa) = 144.42228 70.55017 142.64545
#
# Poissons Ratio (x) = -0.04860 0.44091
# Poissons Ratio (y) = -0.09949 0.22763
# Poissons Ratio (z) = 0.44640 0.11258
#
# Static dielectric constant tensor:
#      x y z
#    x 1.811260 0.000000 0.000000 
#    y 0.000000 1.989360 0.000000 
#    z 0.000000 0.000000 1.866050 
# 
# From -- ./inp_files/45291.got.cif
#   From: 2010.05.17/outbox.cif.g08.bks.cpg/sg63_23_cif.got.tgz:45291.got - 2010.06.03 15:47:04.
