data_PCOD9468264
_publ_section_title
;
Structure prediction by ZEFSAII (Michael W. Deem and Ramdas Pophale) SiO2 
 PCOD9468264
Probable space group: C M C M
;
_chemical_formula_sum "Si O2"
_cell_formula_units_Z 88
_cell_length_a 25.755200
_cell_length_b 17.702396
_cell_length_c 14.152987
_cell_angle_alpha 90.000000
_cell_angle_beta 90.000000
_cell_angle_gamma 90.000000
_cell_volume 6452.753664
_symmetry_space_group_name_H-M "C M C M"
_symmetry_group_IT_number 63
_symmetry_cell_setting 'orthorhombic'
loop_
_space_group_symop_operation_xyz
x,y,z
-x,-y,1/2+z
x,-y,-z
-x,y,1/2-z
-x,-y,-z
x,y,1/2-z
-x,y,z
x,-y,1/2+z
1/2+x,1/2+y,z
1/2-x,1/2-y,1/2+z
1/2+x,1/2-y,-z
1/2-x,1/2+y,1/2-z
1/2-x,1/2-y,-z
1/2+x,1/2+y,1/2-z
1/2-x,1/2+y,z
1/2+x,1/2-y,1/2+z
loop_
_atom_site_type_symbol
_atom_site_label
_atom_site_fract_x
_atom_site_fract_y
_atom_site_fract_z
Si Si1 0.700028 0.934149 0.141014
Si Si2 0.561415 0.886389 0.861488
Si Si3 0.256420 0.103517 0.355209
Si Si4 0.778295 0.173664 0.533687
Si Si5 0.881819 0.500000 0.000000
Si Si6 0.350319 0.775662 0.859817
O O1 0.683574 0.919847 0.250000
O O2 0.740837 0.871513 0.105437
O O3 0.727021 0.016564 0.139900
O O4 0.654236 0.944799 0.064208
O O5 0.572088 0.902844 0.750000
O O6 0.500000 0.877311 0.873113
O O7 0.594529 0.811615 0.885268
O O8 0.583715 0.952022 0.927553
O O9 0.236333 0.120135 0.250000
O O10 0.217899 0.123514 0.439732
O O11 0.308077 0.155568 0.368181
O O12 0.750000 0.250000 0.500000
O O13 0.830338 0.204727 0.580893
O O14 0.350769 0.754325 0.750000
#
# Coordination Sequence:
#
# PCOD9468264 Si02
#       6
#    16  16  16  16   8  16
#     4  11  19  28  44  65  89 118 146 172 212 263
#     4  10  20  32  45  60  80 111 151 190 223 253
#     4   9  16  27  42  60  87 115 140 169 206 255
#     4  10  17  27  39  61  85 115 143 173 209 254
#     4  12  17  30  44  66  84 114 141 182 220 256
#     4   9  16  28  42  58  82 110 141 178 215 252
#
# _framework density 13.637589
#
# number of rings (size 3 to 8) (size 9 to 14) (size 15 to 20)
#    0.000    2.000    3.636    2.455    0.000    0.727 
#    0.000    0.000    0.000    0.000    0.000    0.000 
#    0.000    2.909    0.000    4.364    0.000    1.818 
#
# Total GULP energy -245017.190285 kJ/mol
# GULP energy per Si atom -5568.572506 kJ/mol
# Density = 1.360655 g / cm^3
# Si number density = 13.637589 Si / 1000 Ang^3
#
#
#
# Elastic Constant Matrix: (Units=GPa)
#
#
# Indices 1 2 3 4 5 6 
#
# 1 74.7656 30.6180 49.5439 0.0000 0.0000 0.0000
# 2 30.6180 39.4585 29.2292 0.0000 0.0000 0.0000
# 3 49.5439 29.2292 92.5031 0.0000 0.0000 0.0000
# 4 0.0000 0.0000 0.0000 26.1119 0.0000 0.0000
# 5 0.0000 0.0000 0.0000 0.0000 18.4892 0.0000
# 6 0.0000 0.0000 0.0000 0.0000 0.0000 17.6118
#
#
#
# Elastic Compliance Matrix: (Units=1/GPa)
#
#
# Indices 1 2 3 4 5 6 
#
# 1 0.024497 -0.012128 -0.009288 0.000000 0.000000 0.000000
# 2 -0.012128 0.039092 -0.005857 0.000000 0.000000 0.000000
# 3 -0.009288 -0.005857 0.017636 0.000000 0.000000 0.000000
# 4 0.000000 0.000000 0.000000 0.038297 0.000000 0.000000
# 5 0.000000 0.000000 0.000000 0.000000 0.054086 0.000000
# 6 0.000000 0.000000 0.000000 0.000000 0.000000 0.056780
#
#
# Mechanical properties :
#
#
# Convention : Reuss Voigt Hill
#
# Bulk Modulus (GPa) = 37.48265 47.27884 42.38074
# Shear Modulus (GPa) = 17.01689 18.93162 17.97426
#
# Velocity S-wave (km/s) = 3.53624 3.72989 3.63436
# Velocity P-wave (km/s) = 6.64965 7.30019 6.98250
#
# Compressibility (1/GPa) = 0.02667901
#
# Stress axis : x y z
#
# Youngs Moduli (GPa) = 40.82213 25.58045 56.70348
#
# Poissons Ratio (x) = 0.31024 0.52666
# Poissons Ratio (y) = 0.49509 0.33210
# Poissons Ratio (z) = 0.37915 0.14982
#
# Static dielectric constant tensor:
#      x y z
#    x 1.434160 0.000000 0.000000 
#    y 0.000000 1.445570 0.000000 
#    z 0.000000 0.000000 1.496310 
# 
# From -- ./inp_files/37028.got.cif
#   From: 2010.05.17/outbox.cif.g08.bks.cpg/sg63_19_cif.got.tgz:37028.got - 2010.06.03 15:47:04.
