data_PCOD9468945
_publ_section_title
;
Structure prediction by ZEFSAII (Michael W. Deem and Ramdas Pophale) SiO2 
 PCOD9468945
Probable space group: C M C M
;
_chemical_formula_sum "Si O2"
_cell_formula_units_Z 96
_cell_length_a 24.634646
_cell_length_b 25.087573
_cell_length_c 7.916932
_cell_angle_alpha 90.000000
_cell_angle_beta 90.000000
_cell_angle_gamma 90.000000
_cell_volume 4892.849864
_symmetry_space_group_name_H-M "C M C M"
_symmetry_group_IT_number 63
_symmetry_cell_setting 'orthorhombic'
loop_
_space_group_symop_operation_xyz
x,y,z
-x,-y,1/2+z
x,-y,-z
-x,y,1/2-z
-x,-y,-z
x,y,1/2-z
-x,y,z
x,-y,1/2+z
1/2+x,1/2+y,z
1/2-x,1/2-y,1/2+z
1/2+x,1/2-y,-z
1/2-x,1/2+y,1/2-z
1/2-x,1/2-y,-z
1/2+x,1/2+y,1/2-z
1/2-x,1/2+y,z
1/2+x,1/2-y,1/2+z
loop_
_atom_site_type_symbol
_atom_site_label
_atom_site_fract_x
_atom_site_fract_y
_atom_site_fract_z
Si Si1 0.143660 0.644357 0.559078
Si Si2 0.560231 0.646374 0.047096
Si Si3 0.564166 0.939997 0.553900
Si Si4 0.352698 0.441369 0.449931
Si Si5 0.561784 0.230983 0.956891
Si Si6 0.770859 0.439963 0.045380
O O1 0.160001 0.659733 0.750000
O O2 0.096294 0.600454 0.561025
O O3 0.111644 0.694549 0.480591
O O4 0.192997 0.609793 0.481921
O O5 0.558341 0.648063 0.250000
O O6 0.500000 0.629950 0.986172
O O7 0.569515 0.707467 0.992032
O O8 0.606670 0.605227 0.999649
O O9 0.579055 0.931752 0.750000
O O10 0.500000 0.932045 0.536873
O O11 0.576252 0.000000 0.500000
O O12 0.373176 0.500000 0.500000
O O13 0.347556 0.440643 0.250000
O O14 0.291185 0.435353 0.518128
O O15 0.562311 0.228178 0.750000
O O16 0.500000 0.214620 0.008179
O O17 0.772344 0.437322 0.250000
O O18 0.790135 0.500000 0.000000
#
# Coordination Sequence:
#
# PCOD9468945 Si02
#       6
#    16  16  16  16  16  16
#     4  10  18  30  50  72  94 126 169 209 244 286
#     4   9  18  34  55  78 103 130 162 199 239 289
#     4  10  20  31  42  61  91 124 160 207 259 303
#     4  10  20  35  54  76 103 132 162 197 243 297
#     4   8  15  29  50  74  99 130 167 204 243 290
#     4   9  19  33  49  71  99 131 166 207 250 292
#
# _framework density 19.620467999999999
#
# number of rings (size 3 to 8) (size 9 to 14) (size 15 to 20)
#    0.000    2.667    0.000    3.000    0.000    5.000 
#    0.000    1.667    0.000    1.000    0.000    0.000 
#    0.000    0.000    0.000    0.000    0.000    0.000 
#
# Total GULP energy -267510.567891 kJ/mol
# GULP energy per Si atom -5573.136831 kJ/mol
# Density = 1.957581 g / cm^3
# Si number density = 19.620468 Si / 1000 Ang^3
#
#
#
# Elastic Constant Matrix: (Units=GPa)
#
#
# Indices 1 2 3 4 5 6 
#
# 1 106.0540 79.2693 7.5980 0.0000 0.0000 0.0000
# 2 79.2693 114.1125 -0.1717 0.0000 0.0000 0.0000
# 3 7.5980 -0.1717 22.9394 0.0000 0.0000 0.0000
# 4 0.0000 0.0000 0.0000 14.5012 0.0000 0.0000
# 5 0.0000 0.0000 0.0000 0.0000 16.7591 0.0000
# 6 0.0000 0.0000 0.0000 0.0000 0.0000 44.2775
#
#
#
# Elastic Compliance Matrix: (Units=1/GPa)
#
#
# Indices 1 2 3 4 5 6 
#
# 1 0.020664 -0.014365 -0.006952 0.000000 0.000000 0.000000
# 2 -0.014365 0.018750 0.004898 0.000000 0.000000 0.000000
# 3 -0.006952 0.004898 0.045932 0.000000 0.000000 0.000000
# 4 0.000000 0.000000 0.000000 0.068960 0.000000 0.000000
# 5 0.000000 0.000000 0.000000 0.000000 0.059669 0.000000
# 6 0.000000 0.000000 0.000000 0.000000 0.000000 0.022585
#
#
# Mechanical properties :
#
#
# Convention : Reuss Voigt Hill
#
# Bulk Modulus (GPa) = 19.04445 46.27747 32.66096
# Shear Modulus (GPa) = 17.42766 25.53491 21.48129
#
# Velocity S-wave (km/s) = 2.98357 3.61146 3.31243
# Velocity P-wave (km/s) = 4.64719 6.40529 5.59572
#
# Compressibility (1/GPa) = 0.05250875
#
# Stress axis : x y z
#
# Youngs Moduli (GPa) = 48.39254 53.33465 21.77114
#
# Poissons Ratio (x) = 0.76616 0.15135
# Poissons Ratio (y) = 0.69517 -0.10664
# Poissons Ratio (z) = 0.33642 -0.26125
#
# Static dielectric constant tensor:
#      x y z
#    x 1.724510 0.000000 0.000000 
#    y 0.000000 1.789510 0.000000 
#    z 0.000000 0.000000 1.732740 
# 
# From -- ./inp_files/10473.got.cif
#   From: 2010.05.17/outbox.cif.g08.bks.cpg/sg63_6_cif.got.tgz:10473.got - 2010.06.03 15:47:04.
