data_PCOD9468409
_publ_section_title
;
Structure prediction by ZEFSAII (Michael W. Deem and Ramdas Pophale) SiO2 
 PCOD9468409
Probable space group: C M C M
;
_chemical_formula_sum "Si O2"
_cell_formula_units_Z 96
_cell_length_a 17.651420
_cell_length_b 8.937223
_cell_length_c 24.972044
_cell_angle_alpha 90.000000
_cell_angle_beta 90.000000
_cell_angle_gamma 90.000000
_cell_volume 3939.456730
_symmetry_space_group_name_H-M "C M C M"
_symmetry_group_IT_number 63
_symmetry_cell_setting 'orthorhombic'
loop_
_space_group_symop_operation_xyz
x,y,z
-x,-y,1/2+z
x,-y,-z
-x,y,1/2-z
-x,-y,-z
x,y,1/2-z
-x,y,z
x,-y,1/2+z
1/2+x,1/2+y,z
1/2-x,1/2-y,1/2+z
1/2+x,1/2-y,-z
1/2-x,1/2+y,1/2-z
1/2-x,1/2-y,-z
1/2+x,1/2+y,1/2-z
1/2-x,1/2+y,z
1/2+x,1/2-y,1/2+z
loop_
_atom_site_type_symbol
_atom_site_label
_atom_site_fract_x
_atom_site_fract_y
_atom_site_fract_z
Si Si1 0.247237 0.483168 0.578879
Si Si2 0.581735 0.672790 0.147795
Si Si3 0.916277 0.402156 0.934963
Si Si4 0.236548 0.185851 0.308844
Si Si5 0.881159 0.159005 0.475511
Si Si6 0.862359 0.842707 0.139475
O O1 0.159736 0.503046 0.565268
O O2 0.248528 0.415456 0.638979
O O3 0.291844 0.374496 0.537972
O O4 0.304879 0.619721 0.589254
O O5 0.500000 0.721357 0.167428
O O6 0.652865 0.748410 0.177321
O O7 0.587222 0.689165 0.083804
O O8 0.592877 0.492632 0.153806
O O9 0.910547 0.295090 0.882550
O O10 0.000000 0.471076 0.936648
O O11 0.905459 0.288822 0.984589
O O12 0.234996 0.117858 0.250000
O O13 0.306307 0.298613 0.313078
O O14 0.909133 0.000000 0.500000
#
# Coordination Sequence:
#
# PCOD9468409 Si02
#       6
#    16  16  16  16  16  16
#     4   9  20  34  50  78 104 138 174 214 250 308
#     4  10  20  33  52  82 110 129 167 219 259 298
#     4  11  19  30  52  79 107 136 169 210 253 293
#     4   9  19  35  53  73  99 133 173 215 265 313
#     4  10  17  31  54  78 105 147 175 196 242 320
#     4   9  18  33  52  74  99 136 173 204 250 311
#
# _framework density 24.368842000000001
#
# number of rings (size 3 to 8) (size 9 to 14) (size 15 to 20)
#    0.000    2.667    3.333    1.500    0.000    3.667 
#    0.000    0.833    0.000   12.500    0.000    0.000 
#    0.000    0.000    0.000    0.000    0.000    0.000 
#
# Total GULP energy -268051.266579 kJ/mol
# GULP energy per Si atom -5584.401387 kJ/mol
# Density = 2.431338 g / cm^3
# Si number density = 24.368842 Si / 1000 Ang^3
#
#
#
# Elastic Constant Matrix: (Units=GPa)
#
#
# Indices 1 2 3 4 5 6 
#
# 1 194.8546 14.3099 23.7543 0.0000 0.0000 0.0000
# 2 14.3099 31.4905 8.3264 0.0000 0.0000 0.0000
# 3 23.7543 8.3264 113.8596 0.0000 0.0000 0.0000
# 4 0.0000 0.0000 0.0000 26.2306 0.0000 0.0000
# 5 0.0000 0.0000 0.0000 0.0000 3.8379 0.0000
# 6 0.0000 0.0000 0.0000 0.0000 0.0000 16.0085
#
#
#
# Elastic Compliance Matrix: (Units=1/GPa)
#
#
# Indices 1 2 3 4 5 6 
#
# 1 0.005412 -0.002203 -0.000968 0.000000 0.000000 0.000000
# 2 -0.002203 0.033279 -0.001974 0.000000 0.000000 0.000000
# 3 -0.000968 -0.001974 0.009129 0.000000 0.000000 0.000000
# 4 0.000000 0.000000 0.000000 0.038123 0.000000 0.000000
# 5 0.000000 0.000000 0.000000 0.000000 0.260558 0.000000
# 6 0.000000 0.000000 0.000000 0.000000 0.000000 0.062467
#
#
# Mechanical properties :
#
#
# Convention : Reuss Voigt Hill
#
# Bulk Modulus (GPa) = 26.64592 48.10954 37.37773
# Shear Modulus (GPa) = 11.58030 28.80301 20.19166
#
# Velocity S-wave (km/s) = 2.18229 3.44170 2.88164
# Velocity P-wave (km/s) = 4.16029 5.96479 5.14232
#
# Compressibility (1/GPa) = 0.03752920
#
# Stress axis : x y z
#
# Youngs Moduli (GPa) = 184.78013 30.04923 109.54054
#
# Poissons Ratio (x) = 0.06621 0.10603
# Poissons Ratio (y) = 0.40713 0.21623
# Poissons Ratio (z) = 0.17886 0.05932
#
# Static dielectric constant tensor:
#      x y z
#    x 1.993630 0.000000 0.000000 
#    y 0.000000 2.067940 0.000000 
#    z 0.000000 0.000000 1.914250 
# 
# From -- ./inp_files/63661.got.cif
#   From: 2010.05.17/outbox.cif.g08.bks.cpg/sg63_32_cif.got.tgz:63661.got - 2010.06.03 15:47:04.
