data_PCOD9468551
_publ_section_title
;
Structure prediction by ZEFSAII (Michael W. Deem and Ramdas Pophale) SiO2 
 PCOD9468551
Probable space group: C M C M
;
_chemical_formula_sum "Si O2"
_cell_formula_units_Z 104
_cell_length_a 23.348652
_cell_length_b 31.350219
_cell_length_c 7.528958
_cell_angle_alpha 90.000000
_cell_angle_beta 90.000000
_cell_angle_gamma 90.000000
_cell_volume 5511.086984
_symmetry_space_group_name_H-M "C M C M"
_symmetry_group_IT_number 63
_symmetry_cell_setting 'orthorhombic'
loop_
_space_group_symop_operation_xyz
x,y,z
-x,-y,1/2+z
x,-y,-z
-x,y,1/2-z
-x,-y,-z
x,y,1/2-z
-x,y,z
x,-y,1/2+z
1/2+x,1/2+y,z
1/2-x,1/2-y,1/2+z
1/2+x,1/2-y,-z
1/2-x,1/2+y,1/2-z
1/2-x,1/2-y,-z
1/2+x,1/2+y,1/2-z
1/2-x,1/2+y,z
1/2+x,1/2-y,1/2+z
loop_
_atom_site_type_symbol
_atom_site_label
_atom_site_fract_x
_atom_site_fract_y
_atom_site_fract_z
Si Si1 0.388275 0.602195 0.032031
Si Si2 0.933377 0.377837 0.967076
Si Si3 0.934129 0.284369 0.537079
Si Si4 0.000000 0.050129 0.037719
Si Si5 0.651193 0.951277 0.536905
Si Si6 0.434435 0.308454 0.961324
Si Si7 0.280946 0.451172 0.962805
O O1 0.387299 0.601514 0.250000
O O2 0.442559 0.573701 0.974003
O O3 0.399392 0.650742 0.973765
O O4 0.329206 0.581056 0.970646
O O5 0.933305 0.378660 0.750000
O O6 0.911775 0.330571 0.022173
O O7 0.893188 0.416032 0.030066
O O8 0.000000 0.382491 0.020229
O O9 0.935654 0.285944 0.750000
O O10 0.908361 0.238479 0.491226
O O11 0.000000 0.282511 0.471563
O O12 0.000000 0.055307 0.250000
O O13 0.000000 0.000000 0.000000
O O14 0.653337 0.946816 0.750000
O O15 0.716182 0.945240 0.468385
O O16 0.633730 0.000000 0.500000
O O17 0.439027 0.313624 0.750000
O O18 0.500000 0.309521 0.033050
O O19 0.278315 0.446437 0.750000
O O20 0.298224 0.500000 0.000000
#
# Coordination Sequence:
#
# PCOD9468551 Si02
#       7
#    16  16  16   8  16  16  16
#     4   9  16  27  42  58  79 108 138 168 205 248
#     4   8  14  26  44  64  86 111 136 161 198 245
#     4   8  14  25  41  60  81 105 132 165 201 239
#     4  10  18  28  40  56  80 108 136 168 209 250
#     4   9  17  29  45  64  84 109 139 168 198 237
#     4   9  15  25  41  59  79 105 136 168 204 244
#     4   9  17  29  44  60  79 106 141 173 200 237
#
# _framework density 18.87105
#
# number of rings (size 3 to 8) (size 9 to 14) (size 15 to 20)
#    0.000    3.231    0.769    1.385    0.000    0.308 
#    0.000    2.308    0.000    1.846    0.000    0.000 
#    0.000    0.000    0.000    0.000    0.000    0.000 
#
# Total GULP energy -289675.582539 kJ/mol
# GULP energy per Si atom -5570.684280 kJ/mol
# Density = 1.882810 g / cm^3
# Si number density = 18.871050 Si / 1000 Ang^3
#
#
#
# Elastic Constant Matrix: (Units=GPa)
#
#
# Indices 1 2 3 4 5 6 
#
# 1 82.4318 103.5914 4.6135 0.0000 0.0000 0.0000
# 2 103.5914 222.0875 1.5004 0.0000 0.0000 0.0000
# 3 4.6135 1.5004 45.2189 0.0000 0.0000 0.0000
# 4 0.0000 0.0000 0.0000 20.8754 0.0000 0.0000
# 5 0.0000 0.0000 0.0000 0.0000 -1.2412 0.0000
# 6 0.0000 0.0000 0.0000 0.0000 0.0000 10.7885
#
#
#
# Elastic Compliance Matrix: (Units=1/GPa)
#
#
# Indices 1 2 3 4 5 6 
#
# 1 0.029609 -0.013794 -0.002563 0.000000 0.000000 0.000000
# 2 -0.013794 0.010930 0.001045 0.000000 0.000000 0.000000
# 3 -0.002563 0.001045 0.022341 0.000000 0.000000 0.000000
# 4 0.000000 0.000000 0.000000 0.047903 0.000000 0.000000
# 5 0.000000 0.000000 0.000000 0.000000 -0.805685 0.000000
# 6 0.000000 0.000000 0.000000 0.000000 0.000000 0.092691
#
#
# Mechanical properties :
#
#
# Convention : Reuss Voigt Hill
#
# Bulk Modulus (GPa) = 31.00217 63.23876 47.12047
# Shear Modulus (GPa) = -8.91530 22.08673 6.58572
#
# Velocity S-wave (km/s) = -2.17591 3.42483 1.87014
# Velocity P-wave (km/s) = 3.18611 7.01591 5.44859
#
# Compressibility (1/GPa) = 0.03225581
#
# Stress axis : x y z
#
# Youngs Moduli (GPa) = 33.77338 91.49418 44.75978
#
# Poissons Ratio (x) = 1.26204 0.11473
# Poissons Ratio (y) = 0.46586 -0.04676
# Poissons Ratio (z) = 0.08657 -0.09558
#
# Static dielectric constant tensor:
#      x y z
#    x 1.638350 0.000000 0.000000 
#    y 0.000000 1.673610 0.000000 
#    z 0.000000 0.000000 1.717920 
# 
# From -- ./inp_files/11087.got.cif
#   From: 2010.05.17/outbox.cif.g08.bks.cpg/sg63_6_cif.got.tgz:11087.got - 2010.06.03 15:47:04.
