data_PCOD9468120
_publ_section_title
;
Structure prediction by ZEFSAII (Michael W. Deem and Ramdas Pophale) SiO2 
 PCOD9468120
Probable space group: C M C M
;
_chemical_formula_sum "Si O2"
_cell_formula_units_Z 88
_cell_length_a 21.353727
_cell_length_b 13.930080
_cell_length_c 16.387418
_cell_angle_alpha 90.000000
_cell_angle_beta 90.000000
_cell_angle_gamma 90.000000
_cell_volume 4874.587026
_symmetry_space_group_name_H-M "C M C M"
_symmetry_group_IT_number 63
_symmetry_cell_setting 'orthorhombic'
loop_
_space_group_symop_operation_xyz
x,y,z
-x,-y,1/2+z
x,-y,-z
-x,y,1/2-z
-x,-y,-z
x,y,1/2-z
-x,y,z
x,-y,1/2+z
1/2+x,1/2+y,z
1/2-x,1/2-y,1/2+z
1/2+x,1/2-y,-z
1/2-x,1/2+y,1/2-z
1/2-x,1/2-y,-z
1/2+x,1/2+y,1/2-z
1/2-x,1/2+y,z
1/2+x,1/2-y,1/2+z
loop_
_atom_site_type_symbol
_atom_site_label
_atom_site_fract_x
_atom_site_fract_y
_atom_site_fract_z
Si Si1 0.105919 0.956753 0.414838
Si Si2 0.250184 0.390013 0.250000
Si Si3 0.928472 0.748916 0.347329
Si Si4 0.253887 0.383389 0.074751
Si Si5 0.806067 0.335459 0.912284
Si Si6 0.867485 0.962226 0.750000
Si Si7 0.743909 0.336906 0.750000
O O1 0.079046 0.853295 0.389177
O O2 0.180901 0.941186 0.427058
O O3 0.081806 0.000000 0.500000
O O4 0.096731 0.023132 0.334968
O O5 0.220414 0.405510 0.161031
O O6 0.314512 0.451906 0.250000
O O7 0.261251 0.275161 0.250000
O O8 0.914172 0.757592 0.250000
O O9 0.878308 0.680043 0.390204
O O10 0.000000 0.717009 0.355177
O O11 0.277206 0.272124 0.078323
O O12 0.211949 0.390343 0.994425
O O13 0.772534 0.378458 0.832727
O O14 0.828895 0.863427 0.750000
#
# Coordination Sequence:
#
# PCOD9468120 Si02
#       7
#    16   8  16  16  16   8   8
#     4  10  18  29  44  66  96 128 162 195 239 289
#     4   8  16  28  40  60  96 126 150 184 230 288
#     4  10  19  32  48  63  90 134 171 200 238 280
#     4   8  15  25  42  62  90 120 146 185 239 291
#     4   9  15  26  42  66  87 114 152 195 237 285
#     4  10  18  28  44  69  99 132 159 189 239 303
#     4  10  16  24  42  63  93 122 153 191 239 283
#
# _framework density 18.052811999999999
#
# number of rings (size 3 to 8) (size 9 to 14) (size 15 to 20)
#    0.000    2.727    1.818    2.182    2.545    1.818 
#    0.000    0.000    0.000    0.000    0.000    1.909 
#    0.000   24.000    0.000    0.727    0.000    0.000 
#
# Total GULP energy -245008.663562 kJ/mol
# GULP energy per Si atom -5568.378717 kJ/mol
# Density = 1.801172 g / cm^3
# Si number density = 18.052812 Si / 1000 Ang^3
#
#
#
# Elastic Constant Matrix: (Units=GPa)
#
#
# Indices 1 2 3 4 5 6 
#
# 1 52.3165 0.4568 30.2469 0.0000 0.0000 0.0000
# 2 0.4568 42.0270 10.0317 0.0000 0.0000 0.0000
# 3 30.2469 10.0317 186.6422 0.0000 0.0000 0.0000
# 4 0.0000 0.0000 0.0000 12.8851 0.0000 0.0000
# 5 0.0000 0.0000 0.0000 0.0000 15.4797 0.0000
# 6 0.0000 0.0000 0.0000 0.0000 0.0000 11.1380
#
#
#
# Elastic Compliance Matrix: (Units=1/GPa)
#
#
# Indices 1 2 3 4 5 6 
#
# 1 0.021105 0.000595 -0.003452 0.000000 0.000000 0.000000
# 2 0.000595 0.024120 -0.001393 0.000000 0.000000 0.000000
# 3 -0.003452 -0.001393 0.005992 0.000000 0.000000 0.000000
# 4 0.000000 0.000000 0.000000 0.077609 0.000000 0.000000
# 5 0.000000 0.000000 0.000000 0.000000 0.064601 0.000000
# 6 0.000000 0.000000 0.000000 0.000000 0.000000 0.089783
#
#
# Mechanical properties :
#
#
# Convention : Reuss Voigt Hill
#
# Bulk Modulus (GPa) = 23.41002 40.27297 31.84150
# Shear Modulus (GPa) = 16.34255 23.91725 20.12990
#
# Velocity S-wave (km/s) = 3.01202 3.64380 3.34287
# Velocity P-wave (km/s) = 5.00920 6.32929 5.70753
#
# Compressibility (1/GPa) = 0.04271675
#
# Stress axis : x y z
#
# Youngs Moduli (GPa) = 47.38184 41.45903 166.88452
#
# Poissons Ratio (x) = -0.02465 0.57612
# Poissons Ratio (y) = -0.02818 0.23244
# Poissons Ratio (z) = 0.16357 0.05774
#
# Static dielectric constant tensor:
#      x y z
#    x 1.599820 0.000000 0.000000 
#    y 0.000000 1.649240 0.000000 
#    z 0.000000 0.000000 1.693310 
# 
# From -- ./inp_files/35577.got.cif
#   From: 2010.05.17/outbox.cif.g08.bks.cpg/sg63_18_cif.got.tgz:35577.got - 2010.06.03 15:47:04.
