data_PCOD9468029
_publ_section_title
;
Structure prediction by ZEFSAII (Michael W. Deem and Ramdas Pophale) SiO2 
 PCOD9468029
Probable space group: P N M A
;
_chemical_formula_sum "Si O2"
_cell_formula_units_Z 48
_cell_length_a 9.000000
_cell_length_b 18.000000
_cell_length_c 15.000000
_cell_angle_alpha 90.000000
_cell_angle_beta 90.000000
_cell_angle_gamma 90.000000
_cell_volume 2430.000000
_symmetry_space_group_name_H-M "P N M A"
_symmetry_group_IT_number 62
_symmetry_cell_setting 'orthorhombic'
loop_
_space_group_symop_operation_xyz
x,y,z
1/2-x,-y,1/2+z
1/2+x,1/2-y,1/2-z
-x,1/2+y,-z
-x,-y,-z
1/2+x,y,1/2-z
1/2-x,1/2+y,1/2+z
x,1/2-y,z
loop_
_atom_site_type_symbol
_atom_site_label
_atom_site_fract_x
_atom_site_fract_y
_atom_site_fract_z
Si Si1 0.874415 0.840209 0.677697
Si Si2 0.144409 0.662932 0.975272
Si Si3 0.185264 0.573731 0.682866
Si Si4 0.871193 0.561606 0.992705
Si Si5 0.645512 0.662377 0.323120
Si Si6 0.344247 0.926837 0.306410
O O1 0.892367 0.750000 0.677273
O O2 0.760108 0.864297 0.598890
O O3 0.797244 0.869674 0.767647
O O4 0.030637 0.882827 0.668625
O O5 0.134267 0.750000 0.959992
O O6 0.203723 0.651009 0.075884
O O7 0.976725 0.632220 0.972529
O O8 0.259257 0.550050 0.588999
O O9 0.163850 0.502551 0.748607
O O10 0.795221 0.564451 0.090250
O O11 0.000000 0.500000 0.000000
O O12 0.606123 0.750000 0.315138
O O13 0.756414 0.636427 0.246918
O O14 0.509408 0.605630 0.313831
#
# Coordination Sequence:
#
# PCOD9468029 Si02
#       6
#     8   8   8   8   8   8
#     4  11  23  40  61  91 126 163 203 248 299 358
#     4   9  20  39  63  87 119 159 201 247 300 356
#     4  12  24  40  64  91 123 162 203 251 304 360
#     4  11  23  41  62  86 119 157 202 252 303 361
#     4  10  21  40  63  89 120 157 197 247 303 361
#     4  11  23  40  62  88 118 156 200 247 302 362
#
# _framework density 19.753086
#
# number of rings (size 3 to 8) (size 9 to 14) (size 15 to 20)
#    0.000    1.333    0.000    7.000    0.000    4.667 
#    0.000    6.667    0.000    0.000    0.000    0.000 
#    0.000    0.000    0.000    0.000    0.000    0.000 
#
# Total GULP energy -268048.621804 kJ/mol
# GULP energy per Si atom -5584.346288 kJ/mol
# Density = 1.970813 g / cm^3
# Si number density = 19.753086 Si / 1000 Ang^3
#
#
#
# Elastic Constant Matrix: (Units=GPa)
#
#
# Indices 1 2 3 4 5 6 
#
# 1 38.8981 18.1773 30.0836 0.0000 0.0000 0.0000
# 2 18.1773 86.9683 42.4103 0.0000 0.0000 0.0000
# 3 30.0836 42.4103 140.1277 0.0000 0.0000 0.0000
# 4 0.0000 0.0000 0.0000 28.4888 0.0000 0.0000
# 5 0.0000 0.0000 0.0000 0.0000 46.4638 0.0000
# 6 0.0000 0.0000 0.0000 0.0000 0.0000 35.9045
#
#
#
# Elastic Compliance Matrix: (Units=1/GPa)
#
#
# Indices 1 2 3 4 5 6 
#
# 1 0.031919 -0.003906 -0.005670 0.000000 0.000000 0.000000
# 2 -0.003906 0.013967 -0.003389 0.000000 0.000000 0.000000
# 3 -0.005670 -0.003389 0.009379 0.000000 0.000000 0.000000
# 4 0.000000 0.000000 0.000000 0.035101 0.000000 0.000000
# 5 0.000000 0.000000 0.000000 0.000000 0.021522 0.000000
# 6 0.000000 0.000000 0.000000 0.000000 0.000000 0.027852
#
#
# Mechanical properties :
#
#
# Convention : Reuss Voigt Hill
#
# Bulk Modulus (GPa) = 34.08878 49.70405 41.89641
# Shear Modulus (GPa) = 28.49816 33.85964 31.17890
#
# Velocity S-wave (km/s) = 3.80244 4.14471 3.97726
# Velocity P-wave (km/s) = 6.04756 6.93701 6.50750
#
# Compressibility (1/GPa) = 0.02933517
#
# Stress axis : x y z
#
# Youngs Moduli (GPa) = 31.32925 71.59534 106.61785
#
# Poissons Ratio (x) = 0.27967 0.60456
# Poissons Ratio (y) = 0.12238 0.36129
# Poissons Ratio (z) = 0.17765 0.24261
#
# Static dielectric constant tensor:
#      x y z
#    x 1.720450 0.000000 0.000000 
#    y 0.000000 1.776540 0.000000 
#    z 0.000000 0.000000 1.737900 
# 
# From -- ./inp_files/16907.got.cif
#   From: 2010.05.17/outbox.ucp.g08.bks.cvg/sg62_9_cif.got.tgz:16907.got - 2010.06.11 16:29:25.
