data_PCOD9468317
_publ_section_title
;
Structure prediction by ZEFSAII (Michael W. Deem and Ramdas Pophale) SiO2 
 PCOD9468317
Probable space group: C M C M
;
_chemical_formula_sum "Si O2"
_cell_formula_units_Z 96
_cell_length_a 30.302401
_cell_length_b 8.279974
_cell_length_c 21.344807
_cell_angle_alpha 90.000000
_cell_angle_beta 90.000000
_cell_angle_gamma 90.000000
_cell_volume 5355.478083
_symmetry_space_group_name_H-M "C M C M"
_symmetry_group_IT_number 63
_symmetry_cell_setting 'orthorhombic'
loop_
_space_group_symop_operation_xyz
x,y,z
-x,-y,1/2+z
x,-y,-z
-x,y,1/2-z
-x,-y,-z
x,y,1/2-z
-x,y,z
x,-y,1/2+z
1/2+x,1/2+y,z
1/2-x,1/2-y,1/2+z
1/2+x,1/2-y,-z
1/2-x,1/2+y,1/2-z
1/2-x,1/2-y,-z
1/2+x,1/2+y,1/2-z
1/2-x,1/2+y,z
1/2+x,1/2-y,1/2+z
loop_
_atom_site_type_symbol
_atom_site_label
_atom_site_fract_x
_atom_site_fract_y
_atom_site_fract_z
Si Si1 0.447830 0.911742 0.678967
Si Si2 0.621915 0.634407 0.680343
Si Si3 0.312230 0.155337 0.111532
Si Si4 0.142371 0.094571 0.434664
Si Si5 0.263313 0.476014 0.430280
Si Si6 0.105524 0.453448 0.065829
O O1 0.440050 0.973946 0.750000
O O2 0.500000 0.894622 0.670064
O O3 0.425864 0.019021 0.625155
O O4 0.422267 0.741008 0.675415
O O5 0.624879 0.563728 0.750000
O O6 0.662784 0.759092 0.669150
O O7 0.624419 0.507787 0.624018
O O8 0.286213 0.302142 0.077837
O O9 0.274688 0.019709 0.118949
O O10 0.352415 0.073662 0.073800
O O11 0.122424 0.271240 0.436274
O O12 0.134250 0.000000 0.500000
O O13 0.195334 0.098122 0.426055
O O14 0.244158 0.500000 0.500000
O O15 0.083544 0.500000 0.000000
#
# Coordination Sequence:
#
# PCOD9468317 Si02
#       6
#    16  16  16  16  16  16
#     4   9  19  37  59  80 103 135 174 214 260 319
#     4   9  19  36  55  75 103 137 174 216 266 318
#     4  10  19  30  48  74 102 136 174 214 256 299
#     4  10  20  34  53  79 109 143 180 218 259 308
#     4  10  17  28  46  72 104 137 176 213 249 297
#     4  11  20  33  54  80 110 139 173 218 267 313
#
# _framework density 17.925571000000001
#
# number of rings (size 3 to 8) (size 9 to 14) (size 15 to 20)
#    0.000    2.167    0.000    6.000    0.000    1.000 
#    0.000    4.167    0.000    8.000    0.000    0.000 
#    0.000    0.000    0.000    0.000    0.000    0.000 
#
# Total GULP energy -267548.655673 kJ/mol
# GULP energy per Si atom -5573.930327 kJ/mol
# Density = 1.788477 g / cm^3
# Si number density = 17.925571 Si / 1000 Ang^3
#
#
#
# Elastic Constant Matrix: (Units=GPa)
#
#
# Indices 1 2 3 4 5 6 
#
# 1 95.0726 36.8783 52.8092 0.0000 0.0000 0.0000
# 2 36.8783 73.0320 49.1811 0.0000 0.0000 0.0000
# 3 52.8092 49.1811 128.4337 0.0000 0.0000 0.0000
# 4 0.0000 0.0000 0.0000 25.7576 0.0000 0.0000
# 5 0.0000 0.0000 0.0000 0.0000 16.7204 0.0000
# 6 0.0000 0.0000 0.0000 0.0000 0.0000 11.7604
#
#
#
# Elastic Compliance Matrix: (Units=1/GPa)
#
#
# Indices 1 2 3 4 5 6 
#
# 1 0.014654 -0.004503 -0.004301 0.000000 0.000000 0.000000
# 2 -0.004503 0.019834 -0.005743 0.000000 0.000000 0.000000
# 3 -0.004301 -0.005743 0.011754 0.000000 0.000000 0.000000
# 4 0.000000 0.000000 0.000000 0.038824 0.000000 0.000000
# 5 0.000000 0.000000 0.000000 0.000000 0.059807 0.000000
# 6 0.000000 0.000000 0.000000 0.000000 0.000000 0.085031
#
#
# Mechanical properties :
#
#
# Convention : Reuss Voigt Hill
#
# Bulk Modulus (GPa) = 58.32005 63.80842 61.06423
# Shear Modulus (GPa) = 18.88818 21.35898 20.12358
#
# Velocity S-wave (km/s) = 3.24960 3.45561 3.35419
# Velocity P-wave (km/s) = 6.83264 7.18298 7.01000
#
# Compressibility (1/GPa) = 0.01714676
#
# Stress axis : x y z
#
# Youngs Moduli (GPa) = 68.23992 50.41730 85.07777
#
# Poissons Ratio (x) = 0.22705 0.36592
# Poissons Ratio (y) = 0.30731 0.48864
# Poissons Ratio (z) = 0.29350 0.28957
#
# Static dielectric constant tensor:
#      x y z
#    x 1.609540 0.000000 0.000000 
#    y 0.000000 1.641770 0.000000 
#    z 0.000000 0.000000 1.633750 
# 
# From -- ./inp_files/58074.got.cif
#   From: 2010.05.17/outbox.cif.g08.bks.cpg/sg63_30_cif.got.tgz:58074.got - 2010.06.03 15:47:04.
