data_PCOD9468400
_publ_section_title
;
Structure prediction by ZEFSAII (Michael W. Deem and Ramdas Pophale) SiO2 
 PCOD9468400
Probable space group: C M C M
;
_chemical_formula_sum "Si O2"
_cell_formula_units_Z 64
_cell_length_a 23.818432
_cell_length_b 5.230650
_cell_length_c 29.035569
_cell_angle_alpha 90.000000
_cell_angle_beta 90.000000
_cell_angle_gamma 90.000000
_cell_volume 3617.421954
_symmetry_space_group_name_H-M "C M C M"
_symmetry_group_IT_number 63
_symmetry_cell_setting 'orthorhombic'
loop_
_space_group_symop_operation_xyz
x,y,z
-x,-y,1/2+z
x,-y,-z
-x,y,1/2-z
-x,-y,-z
x,y,1/2-z
-x,y,z
x,-y,1/2+z
1/2+x,1/2+y,z
1/2-x,1/2-y,1/2+z
1/2+x,1/2-y,-z
1/2-x,1/2+y,1/2-z
1/2-x,1/2-y,-z
1/2+x,1/2+y,1/2-z
1/2-x,1/2+y,z
1/2+x,1/2-y,1/2+z
loop_
_atom_site_type_symbol
_atom_site_label
_atom_site_fract_x
_atom_site_fract_y
_atom_site_fract_z
Si Si1 0.287818 0.545290 0.801812
Si Si2 0.839874 0.948486 0.602909
Si Si3 0.173620 0.442437 0.948820
Si Si4 0.564969 0.651738 0.548157
O O1 0.311686 0.523842 0.750000
O O2 0.258999 0.822474 0.806021
O O3 0.329668 0.499462 0.843827
O O4 0.818667 0.675831 0.585695
O O5 0.808938 0.171456 0.573106
O O6 0.904613 0.983714 0.587552
O O7 0.106008 0.395292 0.953347
O O8 0.195364 0.500000 0.000000
O O9 0.570966 0.500000 0.500000
O O10 0.500000 0.707658 0.555889
#
# Coordination Sequence:
#
# PCOD9468400 Si02
#       4
#    16  16  16  16
#     4  10  21  38  60  81  97 124 174 227 270 312
#     4  10  19  32  52  76 105 136 167 217 262 299
#     4  10  17  31  47  73 107 141 170 202 244 299
#     4   9  18  30  50  78 108 143 179 207 240 294
#
# _framework density 17.692160000000001
#
# number of rings (size 3 to 8) (size 9 to 14) (size 15 to 20)
#    1.500    0.750    2.500    2.250    0.000    1.500 
#    0.000    0.000    0.000   26.250    0.000    0.000 
#    0.000    0.000    0.000    0.000    0.000    0.000 
#
# Total GULP energy -178228.855935 kJ/mol
# GULP energy per Si atom -5569.651748 kJ/mol
# Density = 1.765189 g / cm^3
# Si number density = 17.692160 Si / 1000 Ang^3
#
#
#
# Elastic Constant Matrix: (Units=GPa)
#
#
# Indices 1 2 3 4 5 6 
#
# 1 76.3647 -4.8408 31.1046 0.0000 0.0000 0.0000
# 2 -4.8408 79.6722 -10.0418 0.0000 0.0000 0.0000
# 3 31.1046 -10.0418 106.3864 0.0000 0.0000 0.0000
# 4 0.0000 0.0000 0.0000 25.8222 0.0000 0.0000
# 5 0.0000 0.0000 0.0000 0.0000 16.4500 0.0000
# 6 0.0000 0.0000 0.0000 0.0000 0.0000 -8.5702
#
#
#
# Elastic Compliance Matrix: (Units=1/GPa)
#
#
# Indices 1 2 3 4 5 6 
#
# 1 0.014876 0.000360 -0.004315 0.000000 0.000000 0.000000
# 2 0.000360 0.012711 0.001095 0.000000 0.000000 0.000000
# 3 -0.004315 0.001095 0.010765 0.000000 0.000000 0.000000
# 4 0.000000 0.000000 0.000000 0.038726 0.000000 0.000000
# 5 0.000000 0.000000 0.000000 0.000000 0.060790 0.000000
# 6 0.000000 0.000000 0.000000 0.000000 0.000000 -0.116683
#
#
# Mechanical properties :
#
#
# Convention : Reuss Voigt Hill
#
# Bulk Modulus (GPa) = 30.64661 32.76301 31.70481
# Shear Modulus (GPa) = 132.33496 23.15382 77.74439
#
# Velocity S-wave (km/s) = 8.65800 3.62153 6.63613
# Velocity P-wave (km/s) = 10.83087 6.00382 8.75653
#
# Compressibility (1/GPa) = 0.03263004
#
# Stress axis : x y z
#
# Youngs Moduli (GPa) = 67.22445 78.67041 92.89639
#
# Poissons Ratio (x) = -0.02832 0.40087
# Poissons Ratio (y) = -0.02420 -0.10168
# Poissons Ratio (z) = 0.29009 -0.08611
#
# Static dielectric constant tensor:
#      x y z
#    x 1.624700 0.000000 0.000000 
#    y 0.000000 1.637650 0.000000 
#    z 0.000000 0.000000 1.594830 
# 
# From -- ./inp_files/58397.got.cif
#   From: 2010.05.17/outbox.cif.g08.bks.cpg/sg63_30_cif.got.tgz:58397.got - 2010.06.03 15:47:04.
