data_PCOD9468123
_publ_section_title
;
Structure prediction by ZEFSAII (Michael W. Deem and Ramdas Pophale) SiO2 
 PCOD9468123
Probable space group: C M C M
;
_chemical_formula_sum "Si O2"
_cell_formula_units_Z 88
_cell_length_a 9.939064
_cell_length_b 21.003153
_cell_length_c 24.370598
_cell_angle_alpha 90.000000
_cell_angle_beta 90.000000
_cell_angle_gamma 90.000000
_cell_volume 5087.403321
_symmetry_space_group_name_H-M "C M C M"
_symmetry_group_IT_number 63
_symmetry_cell_setting 'orthorhombic'
loop_
_space_group_symop_operation_xyz
x,y,z
-x,-y,1/2+z
x,-y,-z
-x,y,1/2-z
-x,-y,-z
x,y,1/2-z
-x,y,z
x,-y,1/2+z
1/2+x,1/2+y,z
1/2-x,1/2-y,1/2+z
1/2+x,1/2-y,-z
1/2-x,1/2+y,1/2-z
1/2-x,1/2-y,-z
1/2+x,1/2+y,1/2-z
1/2-x,1/2+y,z
1/2+x,1/2-y,1/2+z
loop_
_atom_site_type_symbol
_atom_site_label
_atom_site_fract_x
_atom_site_fract_y
_atom_site_fract_z
Si Si1 0.849786 0.907912 0.872942
Si Si2 0.653373 0.206652 0.250000
Si Si3 0.162134 0.574209 0.750000
Si Si4 0.761265 0.929001 0.750000
Si Si5 0.837827 0.626015 0.632292
Si Si6 0.658331 0.734321 0.352304
Si Si7 0.838571 0.504423 0.564470
O O1 0.840189 0.918554 0.807023
O O2 0.829402 0.832625 0.883565
O O3 0.000000 0.925914 0.890956
O O4 0.738116 0.949996 0.902157
O O5 0.500000 0.229026 0.250000
O O6 0.655899 0.129357 0.250000
O O7 0.739820 0.228951 0.198150
O O8 0.202750 0.500075 0.750000
O O9 0.209914 0.607776 0.806156
O O10 0.000000 0.577589 0.750000
O O11 0.808264 0.699246 0.618265
O O12 0.793629 0.572132 0.589815
O O13 0.000000 0.621540 0.633753
O O14 0.500000 0.737789 0.334298
O O15 0.810291 0.500000 0.500000
O O16 0.000000 0.497937 0.572030
#
# Coordination Sequence:
#
# PCOD9468123 Si02
#       7
#    16   8   8   8  16  16  16
#     4  10  20  34  54  79 106 139 173 210 258 312
#     4  10  19  28  45  75 112 142 166 207 260 306
#     4  10  16  24  48  80 102 129 172 213 250 297
#     4  10  18  30  49  77 110 139 168 204 256 313
#     4   9  17  31  53  77 101 133 176 215 251 304
#     4   9  18  33  52  72 101 140 178 208 246 312
#     4  10  21  37  57  79 102 133 177 226 267 305
#
# _framework density 17.297626000000001
#
# number of rings (size 3 to 8) (size 9 to 14) (size 15 to 20)
#    0.000    2.364    1.818    1.364    0.000    6.909 
#    0.000    1.818    0.000    0.000    0.000    0.000 
#    0.000    0.000    0.000    0.000    0.000    0.000 
#
# Total GULP energy -245056.272557 kJ/mol
# GULP energy per Si atom -5569.460740 kJ/mol
# Density = 1.725826 g / cm^3
# Si number density = 17.297626 Si / 1000 Ang^3
#
#
#
# Elastic Constant Matrix: (Units=GPa)
#
#
# Indices 1 2 3 4 5 6 
#
# 1 58.2497 33.8685 26.8690 0.0000 0.0000 0.0000
# 2 33.8685 138.0104 48.9459 0.0000 0.0000 0.0000
# 3 26.8690 48.9459 70.0095 0.0000 0.0000 0.0000
# 4 0.0000 0.0000 0.0000 4.2959 0.0000 0.0000
# 5 0.0000 0.0000 0.0000 0.0000 -1.8882 0.0000
# 6 0.0000 0.0000 0.0000 0.0000 0.0000 20.7599
#
#
#
# Elastic Compliance Matrix: (Units=1/GPa)
#
#
# Indices 1 2 3 4 5 6 
#
# 1 0.021860 -0.003177 -0.006169 0.000000 0.000000 0.000000
# 2 -0.003177 0.010096 -0.005840 0.000000 0.000000 0.000000
# 3 -0.006169 -0.005840 0.020734 0.000000 0.000000 0.000000
# 4 0.000000 0.000000 0.000000 0.232780 0.000000 0.000000
# 5 0.000000 0.000000 0.000000 0.000000 -0.529594 0.000000
# 6 0.000000 0.000000 0.000000 0.000000 0.000000 0.048170
#
#
# Mechanical properties :
#
#
# Convention : Reuss Voigt Hill
#
# Bulk Modulus (GPa) = 44.80219 53.95957 49.38088
# Shear Modulus (GPa) = -31.61697 15.07259 -8.27219
#
# Velocity S-wave (km/s) = -4.27994 2.95510 -2.18921
# Velocity P-wave (km/s) = 1.23820 6.55026 4.71376
#
# Compressibility (1/GPa) = 0.02232034
#
# Stress axis : x y z
#
# Youngs Moduli (GPa) = 45.74558 99.04472 48.23031
#
# Poissons Ratio (x) = 0.31465 0.29752
# Poissons Ratio (y) = 0.14533 0.28164
# Poissons Ratio (z) = 0.28219 0.57837
#
# Static dielectric constant tensor:
#      x y z
#    x 1.573270 0.000000 0.000000 
#    y 0.000000 1.610940 0.000000 
#    z 0.000000 0.000000 1.574760 
# 
# From -- ./inp_files/59699.got.cif
#   From: 2010.05.17/outbox.cif.g08.bks.cpg/sg63_30_cif.got.tgz:59699.got - 2010.06.03 15:47:04.
