data_PCOD9468051
_publ_section_title
;
Structure prediction by ZEFSAII (Michael W. Deem and Ramdas Pophale) SiO2 
 PCOD9468051
Probable space group: P N M A
;
_chemical_formula_sum "Si O2"
_cell_formula_units_Z 64
_cell_length_a 12.000000
_cell_length_b 9.000000
_cell_length_c 30.000000
_cell_angle_alpha 90.000000
_cell_angle_beta 90.000000
_cell_angle_gamma 90.000000
_cell_volume 3240.000000
_symmetry_space_group_name_H-M "P N M A"
_symmetry_group_IT_number 62
_symmetry_cell_setting 'orthorhombic'
loop_
_space_group_symop_operation_xyz
x,y,z
1/2-x,-y,1/2+z
1/2+x,1/2-y,1/2-z
-x,1/2+y,-z
-x,-y,-z
1/2+x,y,1/2-z
1/2-x,1/2+y,1/2+z
x,1/2-y,z
loop_
_atom_site_type_symbol
_atom_site_label
_atom_site_fract_x
_atom_site_fract_y
_atom_site_fract_z
Si Si1 0.779710 0.427880 0.613596
Si Si2 0.414215 0.426917 0.562277
Si Si3 0.289287 0.912386 0.735476
Si Si4 0.975129 0.570915 0.350400
Si Si5 0.351378 0.073317 0.460993
Si Si6 0.747084 0.577578 0.869952
Si Si7 0.987707 0.419027 0.750121
Si Si8 0.619225 0.584410 0.684222
O O1 0.769421 0.250000 0.613603
O O2 0.747645 0.493966 0.565596
O O3 0.692233 0.498553 0.648384
O O4 0.904150 0.467479 0.629683
O O5 0.430598 0.250000 0.567281
O O6 0.533521 0.507183 0.558751
O O7 0.355340 0.453477 0.514173
O O8 0.339893 0.491049 0.602025
O O9 0.348499 0.750000 0.741727
O O10 0.265780 0.927771 0.683412
O O11 0.186579 0.905400 0.769155
O O12 0.356462 0.054039 0.752824
O O13 0.963945 0.750000 0.351537
O O14 0.874085 0.495502 0.376292
O O15 0.970780 0.525071 0.298098
O O16 0.347541 0.250000 0.453745
O O17 0.748084 0.750000 0.883221
O O18 0.023324 0.250000 0.753826
O O19 0.014070 0.497971 0.796919
O O20 0.593620 0.750000 0.668011
#
# Coordination Sequence:
#
# PCOD9468051 Si02
#       8
#     8   8   8   8   8   8   8   8
#     4  11  23  40  61  89 120 156 202 246 298 354
#     4  10  22  42  67  93 122 154 190 239 299 357
#     4  10  22  37  54  80 115 156 198 242 289 343
#     4  10  22  39  58  83 119 159 200 247 296 350
#     4  10  22  42  67  94 121 152 192 240 298 357
#     4  11  23  39  61  89 119 156 203 247 295 353
#     4  11  22  36  55  79 113 156 200 247 294 343
#     4  11  22  37  56  81 117 157 199 244 291 346
#
# _framework density 19.753086
#
# number of rings (size 3 to 8) (size 9 to 14) (size 15 to 20)
#    0.000    1.500    2.500    2.250    1.750    4.500 
#    0.000    0.625    0.000    0.000    0.000    0.000 
#    0.000    0.000    0.000    0.000    0.000    0.000 
#
# Total GULP energy -357098.391558 kJ/mol
# GULP energy per Si atom -5579.662368 kJ/mol
# Density = 1.970813 g / cm^3
# Si number density = 19.753086 Si / 1000 Ang^3
#
#
#
# Elastic Constant Matrix: (Units=GPa)
#
#
# Indices 1 2 3 4 5 6 
#
# 1 33.0533 17.1783 6.5236 0.0000 0.0000 0.0000
# 2 17.1783 51.0179 25.6982 0.0000 0.0000 0.0000
# 3 6.5236 25.6982 58.6094 0.0000 0.0000 0.0000
# 4 0.0000 0.0000 0.0000 30.1505 0.0000 0.0000
# 5 0.0000 0.0000 0.0000 0.0000 30.6919 0.0000
# 6 0.0000 0.0000 0.0000 0.0000 0.0000 29.9117
#
#
#
# Elastic Compliance Matrix: (Units=1/GPa)
#
#
# Indices 1 2 3 4 5 6 
#
# 1 0.036805 -0.013257 0.001716 0.000000 0.000000 0.000000
# 2 -0.013257 0.029932 -0.011649 0.000000 0.000000 0.000000
# 3 0.001716 -0.011649 0.021979 0.000000 0.000000 0.000000
# 4 0.000000 0.000000 0.000000 0.033167 0.000000 0.000000
# 5 0.000000 0.000000 0.000000 0.000000 0.032582 0.000000
# 6 0.000000 0.000000 0.000000 0.000000 0.000000 0.033432
#
#
# Mechanical properties :
#
#
# Convention : Reuss Voigt Hill
#
# Bulk Modulus (GPa) = 23.62006 26.83120 25.22563
# Shear Modulus (GPa) = 20.12971 24.36950 22.24960
#
# Velocity S-wave (km/s) = 3.19575 3.51623 3.35981
# Velocity P-wave (km/s) = 5.05971 5.48616 5.27724
#
# Compressibility (1/GPa) = 0.04233689
#
# Stress axis : x y z
#
# Youngs Moduli (GPa) = 27.16986 33.40864 45.49873
#
# Poissons Ratio (x) = 0.44291 -0.07808
# Poissons Ratio (y) = 0.36020 0.53000
# Poissons Ratio (z) = -0.04663 0.38917
#
# Static dielectric constant tensor:
#      x y z
#    x 1.731300 0.000000 0.000000 
#    y 0.000000 1.712540 0.000000 
#    z 0.000000 0.000000 1.681310 
# 
# From -- ./inp_files/32532.got.cif
#   From: 2010.05.17/outbox.ucp.g08.bks.cvg/sg62_17_cif.got.tgz:32532.got - 2010.06.11 16:29:25.
