data_PCOD9468491
_publ_section_title
;
Structure prediction by ZEFSAII (Michael W. Deem and Ramdas Pophale) SiO2 
 PCOD9468491
Probable space group: C M C M
;
_chemical_formula_sum "Si O2"
_cell_formula_units_Z 80
_cell_length_a 26.124503
_cell_length_b 21.068964
_cell_length_c 8.294228
_cell_angle_alpha 90.000000
_cell_angle_beta 90.000000
_cell_angle_gamma 90.000000
_cell_volume 4565.277567
_symmetry_space_group_name_H-M "C M C M"
_symmetry_group_IT_number 63
_symmetry_cell_setting 'orthorhombic'
loop_
_space_group_symop_operation_xyz
x,y,z
-x,-y,1/2+z
x,-y,-z
-x,y,1/2-z
-x,-y,-z
x,y,1/2-z
-x,y,z
x,-y,1/2+z
1/2+x,1/2+y,z
1/2-x,1/2-y,1/2+z
1/2+x,1/2-y,-z
1/2-x,1/2+y,1/2-z
1/2-x,1/2-y,-z
1/2+x,1/2+y,1/2-z
1/2-x,1/2+y,z
1/2+x,1/2-y,1/2+z
loop_
_atom_site_type_symbol
_atom_site_label
_atom_site_fract_x
_atom_site_fract_y
_atom_site_fract_z
Si Si1 0.718534 0.688685 0.556881
Si Si2 0.389587 0.263489 0.446677
Si Si3 0.392038 0.114183 0.444564
Si Si4 0.500000 0.265708 0.440421
Si Si5 0.500000 0.877467 0.439442
Si Si6 0.782221 0.431727 0.942356
O O1 0.717922 0.688571 0.750000
O O2 0.750000 0.750000 0.500000
O O3 0.660116 0.698346 0.498691
O O4 0.746436 0.625547 0.498479
O O5 0.390347 0.265181 0.250000
O O6 0.385128 0.188819 0.489354
O O7 0.445043 0.287254 0.506404
O O8 0.395106 0.110842 0.250000
O O9 0.446098 0.090645 0.514759
O O10 0.340680 0.079440 0.501401
O O11 0.500000 0.279533 0.250000
O O12 0.500000 0.189240 0.463094
O O13 0.500000 0.863689 0.250000
O O14 0.784059 0.430204 0.750000
O O15 0.763735 0.500000 0.000000
#
# Coordination Sequence:
#
# PCOD9468491 Si02
#       6
#    16  16  16   8   8  16
#     4  11  20  33  53  80 108 138 176 217 260 311
#     4   8  14  27  49  74  99 131 170 206 248 305
#     4   9  17  33  51  67  96 136 174 208 255 312
#     4   8  14  28  46  67 100 137 166 201 252 305
#     4  10  18  26  43  73 100 125 168 217 258 295
#     4  11  23  39  55  75 102 138 178 219 268 318
#
# _framework density 17.523579000000002
#
# number of rings (size 3 to 8) (size 9 to 14) (size 15 to 20)
#    0.000    2.400    2.000    3.300    0.000    1.600 
#    0.000    1.500    0.000    0.000    0.000    0.700 
#    0.000    0.000    0.000    0.000    0.000    0.000 
#
# Total GULP energy -222985.946195 kJ/mol
# GULP energy per Si atom -5574.648655 kJ/mol
# Density = 1.748369 g / cm^3
# Si number density = 17.523579 Si / 1000 Ang^3
#
#
#
# Elastic Constant Matrix: (Units=GPa)
#
#
# Indices 1 2 3 4 5 6 
#
# 1 155.4690 60.5911 15.3343 0.0000 0.0000 0.0000
# 2 60.5911 89.6724 14.3558 0.0000 0.0000 0.0000
# 3 15.3343 14.3558 23.5931 0.0000 0.0000 0.0000
# 4 0.0000 0.0000 0.0000 15.3809 0.0000 0.0000
# 5 0.0000 0.0000 0.0000 0.0000 19.2834 0.0000
# 6 0.0000 0.0000 0.0000 0.0000 0.0000 5.9007
#
#
#
# Elastic Compliance Matrix: (Units=1/GPa)
#
#
# Indices 1 2 3 4 5 6 
#
# 1 0.008847 -0.005603 -0.002341 0.000000 0.000000 0.000000
# 2 -0.005603 0.015904 -0.006035 0.000000 0.000000 0.000000
# 3 -0.002341 -0.006035 0.047579 0.000000 0.000000 0.000000
# 4 0.000000 0.000000 0.000000 0.065016 0.000000 0.000000
# 5 0.000000 0.000000 0.000000 0.000000 0.051858 0.000000
# 6 0.000000 0.000000 0.000000 0.000000 0.000000 0.169471
#
#
# Mechanical properties :
#
#
# Convention : Reuss Voigt Hill
#
# Bulk Modulus (GPa) = 22.53702 49.92187 36.22945
# Shear Modulus (GPa) = 12.45569 20.00988 16.23278
#
# Velocity S-wave (km/s) = 2.66897 3.38284 3.04688
# Velocity P-wave (km/s) = 4.73146 6.61879 5.75305
#
# Compressibility (1/GPa) = 0.04437144
#
# Stress axis : x y z
#
# Youngs Moduli (GPa) = 113.03724 62.87819 21.01768
#
# Poissons Ratio (x) = 0.35230 0.04920
# Poissons Ratio (y) = 0.63334 0.12685
# Poissons Ratio (z) = 0.26458 0.37950
#
# Static dielectric constant tensor:
#      x y z
#    x 1.671450 0.000000 0.000000 
#    y 0.000000 1.560160 0.000000 
#    z 0.000000 0.000000 1.619030 
# 
# From -- ./inp_files/10091.got.cif
#   From: 2010.05.17/outbox.cif.g08.bks.cpg/sg63_6_cif.got.tgz:10091.got - 2010.06.03 15:47:04.
