data_PCOD9468162
_publ_section_title
;
Structure prediction by ZEFSAII (Michael W. Deem and Ramdas Pophale) SiO2 
 PCOD9468162
Probable space group: C M C M
;
_chemical_formula_sum "Si O2"
_cell_formula_units_Z 96
_cell_length_a 11.756343
_cell_length_b 26.384839
_cell_length_c 20.515479
_cell_angle_alpha 90.000000
_cell_angle_beta 90.000000
_cell_angle_gamma 90.000000
_cell_volume 6363.680373
_symmetry_space_group_name_H-M "C M C M"
_symmetry_group_IT_number 63
_symmetry_cell_setting 'orthorhombic'
loop_
_space_group_symop_operation_xyz
x,y,z
-x,-y,1/2+z
x,-y,-z
-x,y,1/2-z
-x,-y,-z
x,y,1/2-z
-x,y,z
x,-y,1/2+z
1/2+x,1/2+y,z
1/2-x,1/2-y,1/2+z
1/2+x,1/2-y,-z
1/2-x,1/2+y,1/2-z
1/2-x,1/2-y,-z
1/2+x,1/2+y,1/2-z
1/2-x,1/2+y,z
1/2+x,1/2-y,1/2+z
loop_
_atom_site_type_symbol
_atom_site_label
_atom_site_fract_x
_atom_site_fract_y
_atom_site_fract_z
Si Si1 0.866051 0.611678 0.932245
Si Si2 0.798269 0.391266 0.914887
Si Si3 0.500000 0.272831 0.324951
Si Si4 0.868560 0.501069 0.078781
Si Si5 0.134393 0.197642 0.061329
Si Si6 0.000000 0.349035 0.826112
Si Si7 0.785405 0.793739 0.411443
O O1 0.833959 0.556232 0.904403
O O2 0.792976 0.657089 0.903674
O O3 0.000000 0.618711 0.921384
O O4 0.846206 0.612526 0.010790
O O5 0.791351 0.451472 0.901082
O O6 0.687138 0.355887 0.915110
O O7 0.890089 0.368938 0.864892
O O8 0.500000 0.287857 0.250000
O O9 0.500000 0.211750 0.329291
O O10 0.387458 0.291594 0.360987
O O11 0.000000 0.510322 0.099945
O O12 0.871153 0.500000 0.000000
O O13 0.207123 0.243565 0.092175
O O14 0.000000 0.201711 0.073191
O O15 0.159530 0.203160 0.983889
O O16 0.000000 0.364225 0.750000
#
# Coordination Sequence:
#
# PCOD9468162 Si02
#       7
#    16  16   8  16  16   8  16
#     4   9  16  26  48  76 100 124 149 198 251 289
#     4  10  16  28  47  68 103 126 153 194 244 289
#     4  11  22  36  50  67  96 130 166 190 221 283
#     4   8  13  23  43  70  97 124 150 184 240 290
#     4  10  19  28  47  73 100 122 146 197 247 286
#     4  11  20  30  47  71  95 124 165 194 230 283
#     4  10  19  30  48  70  97 123 160 191 234 281
#
# _framework density 15.085610000000001
#
# number of rings (size 3 to 8) (size 9 to 14) (size 15 to 20)
#    0.000    2.333    4.167    1.500    0.000    0.000 
#    0.000    0.000    1.833    7.000    0.000    0.000 
#    0.000    0.000    0.000    0.000    0.000    0.000 
#
# Total GULP energy -267279.528462 kJ/mol
# GULP energy per Si atom -5568.323510 kJ/mol
# Density = 1.505127 g / cm^3
# Si number density = 15.085610 Si / 1000 Ang^3
#
#
#
# Elastic Constant Matrix: (Units=GPa)
#
#
# Indices 1 2 3 4 5 6 
#
# 1 114.4410 68.8558 34.7633 0.0000 0.0000 0.0000
# 2 68.8558 132.2235 32.5797 0.0000 0.0000 0.0000
# 3 34.7633 32.5797 46.4962 0.0000 0.0000 0.0000
# 4 0.0000 0.0000 0.0000 10.3985 0.0000 0.0000
# 5 0.0000 0.0000 0.0000 0.0000 9.5770 0.0000
# 6 0.0000 0.0000 0.0000 0.0000 0.0000 23.3119
#
#
#
# Elastic Compliance Matrix: (Units=1/GPa)
#
#
# Indices 1 2 3 4 5 6 
#
# 1 0.014215 -0.005782 -0.006576 0.000000 0.000000 0.000000
# 2 -0.005782 0.011493 -0.003730 0.000000 0.000000 0.000000
# 3 -0.006576 -0.003730 0.029038 0.000000 0.000000 0.000000
# 4 0.000000 0.000000 0.000000 0.096167 0.000000 0.000000
# 5 0.000000 0.000000 0.000000 0.000000 0.104417 0.000000
# 6 0.000000 0.000000 0.000000 0.000000 0.000000 0.042897
#
#
# Mechanical properties :
#
#
# Convention : Reuss Voigt Hill
#
# Bulk Modulus (GPa) = 44.30959 62.83983 53.57471
# Shear Modulus (GPa) = 14.79614 19.12160 16.95887
#
# Velocity S-wave (km/s) = 3.13519 3.56411 3.35651
# Velocity P-wave (km/s) = 6.52240 7.66049 7.11424
#
# Compressibility (1/GPa) = 0.02256848
#
# Stress axis : x y z
#
# Youngs Moduli (GPa) = 70.35025 87.00935 34.43790
#
# Poissons Ratio (x) = 0.50308 0.22647
# Poissons Ratio (y) = 0.40676 0.12846
# Poissons Ratio (z) = 0.46265 0.32457
#
# Static dielectric constant tensor:
#      x y z
#    x 1.473820 0.000000 0.000000 
#    y 0.000000 1.537030 0.000000 
#    z 0.000000 0.000000 1.475480 
# 
# From -- ./inp_files/53316.got.cif
#   From: 2010.05.17/outbox.cif.g08.bks.cpg/sg63_27_cif.got.tgz:53316.got - 2010.06.03 15:47:04.
