data_PCOD9468869
_publ_section_title
;
Structure prediction by ZEFSAII (Michael W. Deem and Ramdas Pophale) SiO2 
 PCOD9468869
Probable space group: C M C M
;
_chemical_formula_sum "Si O2"
_cell_formula_units_Z 104
_cell_length_a 21.949389
_cell_length_b 16.789674
_cell_length_c 15.978747
_cell_angle_alpha 90.000000
_cell_angle_beta 90.000000
_cell_angle_gamma 90.000000
_cell_volume 5888.537152
_symmetry_space_group_name_H-M "C M C M"
_symmetry_group_IT_number 63
_symmetry_cell_setting 'orthorhombic'
loop_
_space_group_symop_operation_xyz
x,y,z
-x,-y,1/2+z
x,-y,-z
-x,y,1/2-z
-x,-y,-z
x,y,1/2-z
-x,y,z
x,-y,1/2+z
1/2+x,1/2+y,z
1/2-x,1/2-y,1/2+z
1/2+x,1/2-y,-z
1/2-x,1/2+y,1/2-z
1/2-x,1/2-y,-z
1/2+x,1/2+y,1/2-z
1/2-x,1/2+y,z
1/2+x,1/2-y,1/2+z
loop_
_atom_site_type_symbol
_atom_site_label
_atom_site_fract_x
_atom_site_fract_y
_atom_site_fract_z
Si Si1 0.000000 0.377666 0.847890
Si Si2 0.500000 0.061111 0.910828
Si Si3 0.193175 0.511408 0.151383
Si Si4 0.897033 0.389072 0.542588
Si Si5 0.631632 0.294583 0.649573
Si Si6 0.791586 0.660359 0.926832
Si Si7 0.697126 0.583095 0.455190
Si Si8 0.500000 0.770738 0.155422
O O1 0.000000 0.473503 0.870518
O O2 0.940605 0.343369 0.893220
O O3 0.000000 0.367666 0.750000
O O4 0.500000 0.133521 0.846474
O O5 0.557688 0.078661 0.970893
O O6 0.186547 0.524523 0.250000
O O7 0.136473 0.544441 0.098499
O O8 0.199756 0.418323 0.130043
O O9 0.250687 0.557027 0.111293
O O10 0.843367 0.341980 0.498377
O O11 0.631034 0.306427 0.750000
O O12 0.688854 0.236342 0.627263
O O13 0.644807 0.373344 0.596163
O O14 0.565880 0.257954 0.621933
O O15 0.728670 0.643269 0.976805
O O16 0.679991 0.500000 0.500000
O O17 0.500000 0.741537 0.250000
#
# Coordination Sequence:
#
# PCOD9468869 Si02
#       8
#     8   8  16  16  16  16  16   8
#     4  11  20  26  39  62  91 136 184 214 237 283
#     4  11  17  31  42  59  98 140 178 216 249 293
#     4  10  18  30  47  73 104 136 172 211 250 301
#     4  10  19  28  42  63  98 140 177 206 243 293
#     4  11  21  35  54  80 106 132 167 218 264 307
#     4  10  18  32  51  75 102 138 166 204 257 312
#     4   9  20  36  55  75 103 135 171 209 260 315
#     4  10  22  33  49  75 105 134 170 216 271 310
#
# _framework density 17.661432000000001
#
# number of rings (size 3 to 8) (size 9 to 14) (size 15 to 20)
#    0.000    1.846    1.538    6.231    0.000    0.000 
#    0.000    0.385    0.000    0.000    0.000    0.000 
#    0.000    0.000    0.000    0.000    0.000    0.000 
#
# Total GULP energy -289686.853046 kJ/mol
# GULP energy per Si atom -5570.901020 kJ/mol
# Density = 1.762123 g / cm^3
# Si number density = 17.661432 Si / 1000 Ang^3
#
#
#
# Elastic Constant Matrix: (Units=GPa)
#
#
# Indices 1 2 3 4 5 6 
#
# 1 41.2476 27.1181 17.8166 0.0000 0.0000 0.0000
# 2 27.1181 46.3377 21.8359 0.0000 0.0000 0.0000
# 3 17.8166 21.8359 97.0579 0.0000 0.0000 0.0000
# 4 0.0000 0.0000 0.0000 20.1490 0.0000 0.0000
# 5 0.0000 0.0000 0.0000 0.0000 17.0975 0.0000
# 6 0.0000 0.0000 0.0000 0.0000 0.0000 18.7424
#
#
#
# Elastic Compliance Matrix: (Units=1/GPa)
#
#
# Indices 1 2 3 4 5 6 
#
# 1 0.039865 -0.022239 -0.002314 0.000000 0.000000 0.000000
# 2 -0.022239 0.036546 -0.004140 0.000000 0.000000 0.000000
# 3 -0.002314 -0.004140 0.011659 0.000000 0.000000 0.000000
# 4 0.000000 0.000000 0.000000 0.049630 0.000000 0.000000
# 5 0.000000 0.000000 0.000000 0.000000 0.058488 0.000000
# 6 0.000000 0.000000 0.000000 0.000000 0.000000 0.053355
#
#
# Mechanical properties :
#
#
# Convention : Reuss Voigt Hill
#
# Bulk Modulus (GPa) = 32.59077 35.35382 33.97229
# Shear Modulus (GPa) = 15.76500 19.05597 17.41048
#
# Velocity S-wave (km/s) = 2.99092 3.28832 3.14314
# Velocity P-wave (km/s) = 5.51549 5.87183 5.69644
#
# Compressibility (1/GPa) = 0.03068353
#
# Stress axis : x y z
#
# Youngs Moduli (GPa) = 25.08494 27.36244 85.76809
#
# Poissons Ratio (x) = 0.60852 0.19851
# Poissons Ratio (y) = 0.55787 0.35506
# Poissons Ratio (z) = 0.05806 0.11327
#
# Static dielectric constant tensor:
#      x y z
#    x 1.642900 0.000000 0.000000 
#    y 0.000000 1.625450 0.000000 
#    z 0.000000 0.000000 1.611780 
# 
# From -- ./inp_files/48234.got.cif
#   From: 2010.05.17/outbox.cif.g08.bks.cpg/sg63_25_cif.got.tgz:48234.got - 2010.06.03 15:47:04.
