data_PCOD9468166
_publ_section_title
;
Structure prediction by ZEFSAII (Michael W. Deem and Ramdas Pophale) SiO2 
 PCOD9468166
Probable space group: C M C M
;
_chemical_formula_sum "Si O2"
_cell_formula_units_Z 80
_cell_length_a 18.559253
_cell_length_b 13.950898
_cell_length_c 18.788060
_cell_angle_alpha 90.000000
_cell_angle_beta 90.000000
_cell_angle_gamma 90.000000
_cell_volume 4864.571533
_symmetry_space_group_name_H-M "C M C M"
_symmetry_group_IT_number 63
_symmetry_cell_setting 'orthorhombic'
loop_
_space_group_symop_operation_xyz
x,y,z
-x,-y,1/2+z
x,-y,-z
-x,y,1/2-z
-x,-y,-z
x,y,1/2-z
-x,y,z
x,-y,1/2+z
1/2+x,1/2+y,z
1/2-x,1/2-y,1/2+z
1/2+x,1/2-y,-z
1/2-x,1/2+y,1/2-z
1/2-x,1/2-y,-z
1/2+x,1/2+y,1/2-z
1/2-x,1/2+y,z
1/2+x,1/2-y,1/2+z
loop_
_atom_site_type_symbol
_atom_site_label
_atom_site_fract_x
_atom_site_fract_y
_atom_site_fract_z
Si Si1 0.580720 0.781171 0.332195
Si Si2 0.710646 0.633401 0.333934
Si Si3 0.876390 0.593341 0.959933
Si Si4 0.187226 0.260746 0.940509
Si Si5 0.707866 0.450831 0.426374
O O1 0.591397 0.812954 0.250000
O O2 0.500000 0.740131 0.337191
O O3 0.642399 0.703035 0.348049
O O4 0.587397 0.866370 0.389035
O O5 0.723618 0.631661 0.250000
O O6 0.777593 0.678062 0.377232
O O7 0.696909 0.527733 0.364610
O O8 0.793856 0.567751 0.936542
O O9 0.905909 0.500000 0.000000
O O10 0.872587 0.678550 0.018218
O O11 0.171353 0.152559 0.916791
O O12 0.250000 0.250000 0.000000
O O13 0.683384 0.500000 0.500000
#
# Coordination Sequence:
#
# PCOD9468166 Si02
#       5
#    16  16  16  16  16
#     4  10  21  35  49  69 102 137 167 201 238 290
#     4  11  20  30  48  75 100 128 165 202 247 298
#     4  10  17  31  53  75  94 129 163 201 253 291
#     4  10  16  30  49  73  99 129 154 203 255 294
#     4  10  16  28  49  72  98 127 157 201 253 295
#
# _framework density 16.445436000000001
#
# number of rings (size 3 to 8) (size 9 to 14) (size 15 to 20)
#    0.000    1.800   10.000    0.000    0.000    2.000 
#    0.000    0.000    0.000    5.400    0.000    0.000 
#    0.000    3.200    0.000    0.000    0.000    0.000 
#
# Total GULP energy -222781.617413 kJ/mol
# GULP energy per Si atom -5569.540435 kJ/mol
# Density = 1.640801 g / cm^3
# Si number density = 16.445436 Si / 1000 Ang^3
#
#
#
# Elastic Constant Matrix: (Units=GPa)
#
#
# Indices 1 2 3 4 5 6 
#
# 1 25.0709 8.3996 18.0007 0.0000 0.0000 0.0000
# 2 8.3996 123.5067 51.9894 0.0000 0.0000 0.0000
# 3 18.0007 51.9894 100.7821 0.0000 0.0000 0.0000
# 4 0.0000 0.0000 0.0000 35.2013 0.0000 0.0000
# 5 0.0000 0.0000 0.0000 0.0000 9.3222 0.0000
# 6 0.0000 0.0000 0.0000 0.0000 0.0000 5.9949
#
#
#
# Elastic Compliance Matrix: (Units=1/GPa)
#
#
# Indices 1 2 3 4 5 6 
#
# 1 0.045771 0.000420 -0.008392 0.000000 0.000000 0.000000
# 2 0.000420 0.010346 -0.005412 0.000000 0.000000 0.000000
# 3 -0.008392 -0.005412 0.014213 0.000000 0.000000 0.000000
# 4 0.000000 0.000000 0.000000 0.028408 0.000000 0.000000
# 5 0.000000 0.000000 0.000000 0.000000 0.107271 0.000000
# 6 0.000000 0.000000 0.000000 0.000000 0.000000 0.166810
#
#
# Mechanical properties :
#
#
# Convention : Reuss Voigt Hill
#
# Bulk Modulus (GPa) = 22.95563 45.12658 34.04110
# Shear Modulus (GPa) = 12.07411 21.50167 16.78789
#
# Velocity S-wave (km/s) = 2.71254 3.61980 3.19850
# Velocity P-wave (km/s) = 4.87847 6.70599 5.86386
#
# Compressibility (1/GPa) = 0.04356230
#
# Stress axis : x y z
#
# Youngs Moduli (GPa) = 21.84768 96.65158 70.35716
#
# Poissons Ratio (x) = -0.04055 0.59041
# Poissons Ratio (y) = -0.00917 0.38079
# Poissons Ratio (z) = 0.18334 0.52310
#
# Static dielectric constant tensor:
#      x y z
#    x 1.552390 0.000000 0.000000 
#    y 0.000000 1.588560 0.000000 
#    z 0.000000 0.000000 1.551740 
# 
# From -- ./inp_files/45415.got.cif
#   From: 2010.05.17/outbox.cif.g08.bks.cpg/sg63_23_cif.got.tgz:45415.got - 2010.06.03 15:47:04.
