data_PCOD9468712
_publ_section_title
;
Structure prediction by ZEFSAII (Michael W. Deem and Ramdas Pophale) SiO2 
 PCOD9468712
Probable space group: C M C M
;
_chemical_formula_sum "Si O2"
_cell_formula_units_Z 80
_cell_length_a 24.201233
_cell_length_b 25.016225
_cell_length_c 8.778866
_cell_angle_alpha 90.000000
_cell_angle_beta 90.000000
_cell_angle_gamma 90.000000
_cell_volume 5314.931692
_symmetry_space_group_name_H-M "C M C M"
_symmetry_group_IT_number 63
_symmetry_cell_setting 'orthorhombic'
loop_
_space_group_symop_operation_xyz
x,y,z
-x,-y,1/2+z
x,-y,-z
-x,y,1/2-z
-x,-y,-z
x,y,1/2-z
-x,y,z
x,-y,1/2+z
1/2+x,1/2+y,z
1/2-x,1/2-y,1/2+z
1/2+x,1/2-y,-z
1/2-x,1/2+y,1/2-z
1/2-x,1/2-y,-z
1/2+x,1/2+y,1/2-z
1/2-x,1/2+y,z
1/2+x,1/2-y,1/2+z
loop_
_atom_site_type_symbol
_atom_site_label
_atom_site_fract_x
_atom_site_fract_y
_atom_site_fract_z
Si Si1 0.774822 0.670868 0.932961
Si Si2 0.437392 0.668629 0.433625
Si Si3 0.261241 0.444367 0.433041
Si Si4 0.837064 0.766315 0.068250
Si Si5 0.884781 0.055746 0.067038
O O1 0.779488 0.675385 0.750000
O O2 0.773224 0.608488 0.973717
O O3 0.715195 0.696135 0.977027
O O4 0.821109 0.707612 0.008837
O O5 0.435430 0.671854 0.250000
O O6 0.500000 0.679418 0.483657
O O7 0.392456 0.708989 0.500271
O O8 0.419706 0.608045 0.474652
O O9 0.239304 0.500000 0.500000
O O10 0.265169 0.447596 0.250000
O O11 0.323036 0.437664 0.499990
O O12 0.840200 0.766430 0.250000
O O13 0.881641 0.051898 0.250000
O O14 0.906954 0.000000 0.000000
#
# Coordination Sequence:
#
# PCOD9468712 Si02
#       5
#    16  16  16  16  16
#     4   9  18  31  47  67  93 120 148 185 230 280
#     4  10  21  35  48  63  88 122 158 195 236 278
#     4  10  18  29  45  67  94 121 151 186 227 272
#     4  10  19  31  48  69  90 115 153 193 231 274
#     4  10  19  30  45  62  85 118 157 197 234 270
#
# _framework density 15.051933
#
# number of rings (size 3 to 8) (size 9 to 14) (size 15 to 20)
#    0.000    2.200    2.000    3.000    0.000    4.000 
#    0.000    0.000    0.000    0.000    0.000    0.000 
#    0.000    0.800    0.000    2.600    0.000    3.200 
#
# Total GULP energy -223095.942859 kJ/mol
# GULP energy per Si atom -5577.398571 kJ/mol
# Density = 1.501767 g / cm^3
# Si number density = 15.051933 Si / 1000 Ang^3
#
#
#
# Elastic Constant Matrix: (Units=GPa)
#
#
# Indices 1 2 3 4 5 6 
#
# 1 87.6638 72.7254 30.5798 0.0000 0.0000 0.0000
# 2 72.7254 135.9555 43.1755 0.0000 0.0000 0.0000
# 3 30.5798 43.1755 37.0915 0.0000 0.0000 0.0000
# 4 0.0000 0.0000 0.0000 22.7621 0.0000 0.0000
# 5 0.0000 0.0000 0.0000 0.0000 18.3771 0.0000
# 6 0.0000 0.0000 0.0000 0.0000 0.0000 19.4646
#
#
#
# Elastic Compliance Matrix: (Units=1/GPa)
#
#
# Indices 1 2 3 4 5 6 
#
# 1 0.021568 -0.009344 -0.006904 0.000000 0.000000 0.000000
# 2 -0.009344 0.015717 -0.010592 0.000000 0.000000 0.000000
# 3 -0.006904 -0.010592 0.044981 0.000000 0.000000 0.000000
# 4 0.000000 0.000000 0.000000 0.043933 0.000000 0.000000
# 5 0.000000 0.000000 0.000000 0.000000 0.054415 0.000000
# 6 0.000000 0.000000 0.000000 0.000000 0.000000 0.051375
#
#
# Mechanical properties :
#
#
# Convention : Reuss Voigt Hill
#
# Bulk Modulus (GPa) = 34.98202 61.51912 48.25057
# Shear Modulus (GPa) = 16.93773 19.73611 18.33692
#
# Velocity S-wave (km/s) = 3.35817 3.62498 3.49412
# Velocity P-wave (km/s) = 6.19094 7.64726 6.95731
#
# Compressibility (1/GPa) = 0.02858612
#
# Stress axis : x y z
#
# Youngs Moduli (GPa) = 46.36562 63.62348 22.23148
#
# Poissons Ratio (x) = 0.59453 0.15349
# Poissons Ratio (y) = 0.43326 0.23547
# Poissons Ratio (z) = 0.32011 0.67387
#
# Static dielectric constant tensor:
#      x y z
#    x 1.468740 0.000000 0.000000 
#    y 0.000000 1.515290 0.000000 
#    z 0.000000 0.000000 1.505350 
# 
# From -- ./inp_files/6371.got.cif
#   From: 2010.05.17/outbox.cif.g08.bks.cpg/sg63_4_cif.got.tgz:6371.got - 2010.06.03 15:47:04.
