data_PCOD9468851
_publ_section_title
;
Structure prediction by ZEFSAII (Michael W. Deem and Ramdas Pophale) SiO2 
 PCOD9468851
Probable space group: C M C M
;
_chemical_formula_sum "Si O2"
_cell_formula_units_Z 128
_cell_length_a 18.386463
_cell_length_b 25.181871
_cell_length_c 18.263656
_cell_angle_alpha 90.000000
_cell_angle_beta 90.000000
_cell_angle_gamma 90.000000
_cell_volume 8456.173898
_symmetry_space_group_name_H-M "C M C M"
_symmetry_group_IT_number 63
_symmetry_cell_setting 'orthorhombic'
loop_
_space_group_symop_operation_xyz
x,y,z
-x,-y,1/2+z
x,-y,-z
-x,y,1/2-z
-x,-y,-z
x,y,1/2-z
-x,y,z
x,-y,1/2+z
1/2+x,1/2+y,z
1/2-x,1/2-y,1/2+z
1/2+x,1/2-y,-z
1/2-x,1/2+y,1/2-z
1/2-x,1/2-y,-z
1/2+x,1/2+y,1/2-z
1/2-x,1/2+y,z
1/2+x,1/2-y,1/2+z
loop_
_atom_site_type_symbol
_atom_site_label
_atom_site_fract_x
_atom_site_fract_y
_atom_site_fract_z
Si Si1 0.585214 0.783248 0.163586
Si Si2 0.209028 0.824552 0.059615
Si Si3 0.708760 0.714279 0.100842
Si Si4 0.085828 0.514460 0.833735
Si Si5 0.585596 0.294522 0.334821
Si Si6 0.652037 0.888559 0.093357
Si Si7 0.086762 0.584699 0.062794
Si Si8 0.646763 0.824419 0.833024
O O1 0.597287 0.793443 0.250000
O O2 0.500000 0.773355 0.151663
O O3 0.635223 0.733964 0.138929
O O4 0.609763 0.835230 0.118335
O O5 0.250627 0.769437 0.079352
O O6 0.136501 0.825056 0.108062
O O7 0.264824 0.870924 0.081117
O O8 0.195426 0.819278 0.972898
O O9 0.767809 0.684932 0.151248
O O10 0.093878 0.495608 0.750000
O O11 0.134765 0.565853 0.848306
O O12 0.103859 0.468601 0.891869
O O13 0.000000 0.528703 0.843736
O O14 0.601810 0.308996 0.250000
O O15 0.500000 0.301503 0.347787
O O16 0.606574 0.232246 0.341968
O O17 0.621587 0.910747 0.016851
O O18 0.115006 0.634218 0.109847
O O19 0.000000 0.587184 0.055439
O O20 0.634937 0.842507 0.750000
#
# Coordination Sequence:
#
# PCOD9468851 Si02
#       8
#    16  16  16  16  16  16  16  16
#     4  10  20  31  46  69  94 125 165 199 230 277
#     4   9  18  30  46  66  92 120 159 191 230 282
#     4   9  17  31  44  64  91 123 156 198 235 274
#     4  10  21  35  49  67  94 125 160 201 240 279
#     4   9  18  30  45  68  97 127 158 194 235 279
#     4  11  20  33  49  67  94 127 161 198 238 282
#     4  11  21  32  47  69  94 124 161 201 239 279
#     4  10  18  30  47  65  90 127 161 194 236 279
#
# _framework density 15.13687
#
# number of rings (size 3 to 8) (size 9 to 14) (size 15 to 20)
#    0.000    2.125    1.250    3.000    1.750    7.250 
#    0.000    0.000    0.000    0.000    0.000    0.000 
#    0.000    3.000    0.000    3.875    0.000    0.000 
#
# Total GULP energy -356879.377314 kJ/mol
# GULP energy per Si atom -5576.240271 kJ/mol
# Density = 1.510242 g / cm^3
# Si number density = 15.136870 Si / 1000 Ang^3
#
#
#
# Elastic Constant Matrix: (Units=GPa)
#
#
# Indices 1 2 3 4 5 6 
#
# 1 85.6145 24.4393 38.1297 0.0000 0.0000 0.0000
# 2 24.4393 30.4472 12.0837 0.0000 0.0000 0.0000
# 3 38.1297 12.0837 69.0455 0.0000 0.0000 0.0000
# 4 0.0000 0.0000 0.0000 20.1436 0.0000 0.0000
# 5 0.0000 0.0000 0.0000 0.0000 27.6836 0.0000
# 6 0.0000 0.0000 0.0000 0.0000 0.0000 18.5861
#
#
#
# Elastic Compliance Matrix: (Units=1/GPa)
#
#
# Indices 1 2 3 4 5 6 
#
# 1 0.018721 -0.011739 -0.008284 0.000000 0.000000 0.000000
# 2 -0.011739 0.042656 -0.000983 0.000000 0.000000 0.000000
# 3 -0.008284 -0.000983 0.019230 0.000000 0.000000 0.000000
# 4 0.000000 0.000000 0.000000 0.049643 0.000000 0.000000
# 5 0.000000 0.000000 0.000000 0.000000 0.036122 0.000000
# 6 0.000000 0.000000 0.000000 0.000000 0.000000 0.053804
#
#
# Mechanical properties :
#
#
# Convention : Reuss Voigt Hill
#
# Bulk Modulus (GPa) = 25.90943 37.15695 31.53319
# Shear Modulus (GPa) = 18.17836 20.64630 19.41233
#
# Velocity S-wave (km/s) = 3.46921 3.69721 3.58502
# Velocity P-wave (km/s) = 5.76204 6.54419 6.16553
#
# Compressibility (1/GPa) = 0.03859599
#
# Stress axis : x y z
#
# Youngs Moduli (GPa) = 53.41717 23.44322 52.00256
#
# Poissons Ratio (x) = 0.27520 0.43078
# Poissons Ratio (y) = 0.62706 0.05109
# Poissons Ratio (z) = 0.44250 0.02303
#
# Static dielectric constant tensor:
#      x y z
#    x 1.487780 0.000000 0.000000 
#    y 0.000000 1.488220 0.000000 
#    z 0.000000 0.000000 1.524440 
# 
# From -- ./inp_files/46294.got.cif
#   From: 2010.05.17/outbox.cif.g08.bks.cpg/sg63_24_cif.got.tgz:46294.got - 2010.06.03 15:47:04.
