data_PCOD9468913
_publ_section_title
;
Structure prediction by ZEFSAII (Michael W. Deem and Ramdas Pophale) SiO2 
 PCOD9468913
Probable space group: C M C M
;
_chemical_formula_sum "Si O2"
_cell_formula_units_Z 96
_cell_length_a 7.389398
_cell_length_b 30.563210
_cell_length_c 19.719837
_cell_angle_alpha 90.000000
_cell_angle_beta 90.000000
_cell_angle_gamma 90.000000
_cell_volume 4453.601402
_symmetry_space_group_name_H-M "C M C M"
_symmetry_group_IT_number 63
_symmetry_cell_setting 'orthorhombic'
loop_
_space_group_symop_operation_xyz
x,y,z
-x,-y,1/2+z
x,-y,-z
-x,y,1/2-z
-x,-y,-z
x,y,1/2-z
-x,y,z
x,-y,1/2+z
1/2+x,1/2+y,z
1/2-x,1/2-y,1/2+z
1/2+x,1/2-y,-z
1/2-x,1/2+y,1/2-z
1/2-x,1/2-y,-z
1/2+x,1/2+y,1/2-z
1/2-x,1/2+y,z
1/2+x,1/2-y,1/2+z
loop_
_atom_site_type_symbol
_atom_site_label
_atom_site_fract_x
_atom_site_fract_y
_atom_site_fract_z
Si Si1 0.221184 0.640811 0.674521
Si Si2 0.217425 0.589454 0.066852
Si Si3 0.794915 0.725328 0.607378
Si Si4 0.721123 0.980128 0.672238
Si Si5 0.286196 0.309855 0.961418
Si Si6 0.220781 0.561775 0.920271
O O1 0.272691 0.627057 0.750000
O O2 0.287265 0.689519 0.657254
O O3 0.278030 0.605693 0.618820
O O4 0.000000 0.641783 0.672016
O O5 0.278722 0.564060 0.133783
O O6 0.262203 0.640568 0.061570
O O7 0.000000 0.586706 0.066247
O O8 0.280541 0.565143 0.998124
O O9 0.798062 0.700360 0.534633
O O10 0.715782 0.772903 0.590700
O O11 0.000000 0.733003 0.631259
O O12 0.781404 0.983775 0.750000
O O13 0.500000 0.980976 0.673890
O O14 0.777613 0.020342 0.624187
O O15 0.500000 0.301545 0.970072
O O16 0.000000 0.560872 0.921254
#
# Coordination Sequence:
#
# PCOD9468913 Si02
#       6
#    16  16  16  16  16  16
#     4   9  15  24  43  71  99 122 148 192 246 289
#     4  10  18  30  49  72  98 126 159 200 241 283
#     4   9  17  31  48  70  97 123 157 198 240 284
#     4   9  17  28  44  70 100 126 157 200 246 286
#     4  10  19  30  48  71  96 126 161 198 236 279
#     4   9  15  25  44  71  98 121 152 197 244 282
#
# _framework density 21.555586999999999
#
# number of rings (size 3 to 8) (size 9 to 14) (size 15 to 20)
#    0.000    2.667    1.667    1.500    0.000    4.667 
#    0.000    0.833    0.000    4.000    0.000    0.000 
#    0.000    0.000    0.000    0.000    0.000    0.000 
#
# Total GULP energy -267902.941786 kJ/mol
# GULP energy per Si atom -5581.311287 kJ/mol
# Density = 2.150653 g / cm^3
# Si number density = 21.555587 Si / 1000 Ang^3
#
#
#
# Elastic Constant Matrix: (Units=GPa)
#
#
# Indices 1 2 3 4 5 6 
#
# 1 78.1652 -5.3265 3.1838 0.0000 0.0000 0.0000
# 2 -5.3265 141.1498 50.5247 0.0000 0.0000 0.0000
# 3 3.1838 50.5247 74.7126 0.0000 0.0000 0.0000
# 4 0.0000 0.0000 0.0000 26.9296 0.0000 0.0000
# 5 0.0000 0.0000 0.0000 0.0000 -5.1408 0.0000
# 6 0.0000 0.0000 0.0000 0.0000 0.0000 10.7352
#
#
#
# Elastic Compliance Matrix: (Units=1/GPa)
#
#
# Indices 1 2 3 4 5 6 
#
# 1 0.012902 0.000902 -0.001160 0.000000 0.000000 0.000000
# 2 0.000902 0.009410 -0.006402 0.000000 0.000000 0.000000
# 3 -0.001160 -0.006402 0.017764 0.000000 0.000000 0.000000
# 4 0.000000 0.000000 0.000000 0.037134 0.000000 0.000000
# 5 0.000000 0.000000 0.000000 0.000000 -0.194521 0.000000
# 6 0.000000 0.000000 0.000000 0.000000 0.000000 0.093151
#
#
# Mechanical properties :
#
#
# Convention : Reuss Voigt Hill
#
# Bulk Modulus (GPa) = 37.37471 43.42128 40.39799
# Shear Modulus (GPa) = -2602.75360 22.88117 -1289.93621
#
# Velocity S-wave (km/s) = -34.78624 3.26160 -24.48923
# Velocity P-wave (km/s) = 39.95081 5.86273 27.94365
#
# Compressibility (1/GPa) = 0.02675606
#
# Stress axis : x y z
#
# Youngs Moduli (GPa) = 77.50657 106.26534 56.29490
#
# Poissons Ratio (x) = -0.09586 0.06529
# Poissons Ratio (y) = -0.06991 0.36041
# Poissons Ratio (z) = 0.08989 0.68034
#
# Static dielectric constant tensor:
#      x y z
#    x 1.886280 0.000000 0.000000 
#    y 0.000000 1.779540 0.000000 
#    z 0.000000 0.000000 1.744970 
# 
# From -- ./inp_files/51402.got.cif
#   From: 2010.05.17/outbox.cif.g08.bks.cpg/sg63_26_cif.got.tgz:51402.got - 2010.06.03 15:47:04.
