data_PCOD9468188
_publ_section_title
;
Structure prediction by ZEFSAII (Michael W. Deem and Ramdas Pophale) SiO2 
 PCOD9468188
Probable space group: C M C M
;
_chemical_formula_sum "Si O2"
_cell_formula_units_Z 104
_cell_length_a 15.113439
_cell_length_b 18.996700
_cell_length_c 13.999892
_cell_angle_alpha 90.000000
_cell_angle_beta 90.000000
_cell_angle_gamma 90.000000
_cell_volume 4019.445526
_symmetry_space_group_name_H-M "C M C M"
_symmetry_group_IT_number 63
_symmetry_cell_setting 'orthorhombic'
loop_
_space_group_symop_operation_xyz
x,y,z
-x,-y,1/2+z
x,-y,-z
-x,y,1/2-z
-x,-y,-z
x,y,1/2-z
-x,y,z
x,-y,1/2+z
1/2+x,1/2+y,z
1/2-x,1/2-y,1/2+z
1/2+x,1/2-y,-z
1/2-x,1/2+y,1/2-z
1/2-x,1/2-y,-z
1/2+x,1/2+y,1/2-z
1/2-x,1/2+y,z
1/2+x,1/2-y,1/2+z
loop_
_atom_site_type_symbol
_atom_site_label
_atom_site_fract_x
_atom_site_fract_y
_atom_site_fract_z
Si Si1 0.336131 0.526592 0.135407
Si Si2 0.092054 0.655656 0.106102
Si Si3 0.403609 0.379359 0.366810
Si Si4 0.500000 0.890043 0.418442
Si Si5 0.398287 0.681196 0.366882
Si Si6 0.761251 0.770345 0.139075
Si Si7 0.869529 0.500140 0.889931
O O1 0.342151 0.530546 0.250000
O O2 0.394555 0.460644 0.104631
O O3 0.366520 0.603451 0.101573
O O4 0.235779 0.503288 0.113343
O O5 0.173829 0.703063 0.132943
O O6 0.102080 0.576496 0.146023
O O7 0.000000 0.687456 0.142413
O O8 0.075342 0.643475 0.993175
O O9 0.401665 0.376670 0.250000
O O10 0.500000 0.352445 0.397153
O O11 0.319469 0.334311 0.400946
O O12 0.578658 0.931316 0.356785
O O13 0.394706 0.681491 0.250000
O O14 0.500000 0.695202 0.392219
O O15 0.330357 0.740706 0.401190
O O16 0.744376 0.787887 0.250000
O O17 0.902216 0.500000 0.000000
#
# Coordination Sequence:
#
# PCOD9468188 Si02
#       7
#    16  16  16   8  16  16  16
#     4  10  19  31  51  78 105 137 179 220 257 308
#     4   9  15  26  45  72  98 129 166 209 248 311
#     4   9  18  32  49  73 108 142 169 207 265 328
#     4   8  17  30  46  68  98 140 177 195 253 339
#     4   9  17  29  47  73 102 135 174 215 262 313
#     4  10  18  28  47  79 106 131 173 223 273 308
#     4  10  16  30  50  72 102 138 178 208 260 322
#
# _framework density 25.874215
#
# number of rings (size 3 to 8) (size 9 to 14) (size 15 to 20)
#    0.462    2.154    2.308    1.615    0.000    2.769 
#    0.000    0.385    1.692    5.538    0.000    0.000 
#    0.000    0.000    0.000    0.000    0.000    0.000 
#
# Total GULP energy -289495.245560 kJ/mol
# GULP energy per Si atom -5567.216261 kJ/mol
# Density = 2.581532 g / cm^3
# Si number density = 25.874215 Si / 1000 Ang^3
#
#
#
# Elastic Constant Matrix: (Units=GPa)
#
#
# Indices 1 2 3 4 5 6 
#
# 1 213.2040 76.3418 4.9115 0.0000 0.0000 0.0000
# 2 76.3418 118.5023 39.3597 0.0000 0.0000 0.0000
# 3 4.9115 39.3597 94.4864 0.0000 0.0000 0.0000
# 4 0.0000 0.0000 0.0000 31.0531 0.0000 0.0000
# 5 0.0000 0.0000 0.0000 0.0000 12.3341 0.0000
# 6 0.0000 0.0000 0.0000 0.0000 0.0000 25.3653
#
#
#
# Elastic Compliance Matrix: (Units=1/GPa)
#
#
# Indices 1 2 3 4 5 6 
#
# 1 0.006294 -0.004580 0.001581 0.000000 0.000000 0.000000
# 2 -0.004580 0.013126 -0.005230 0.000000 0.000000 0.000000
# 3 0.001581 -0.005230 0.012680 0.000000 0.000000 0.000000
# 4 0.000000 0.000000 0.000000 0.032203 0.000000 0.000000
# 5 0.000000 0.000000 0.000000 0.000000 0.081076 0.000000
# 6 0.000000 0.000000 0.000000 0.000000 0.000000 0.039424
#
#
# Mechanical properties :
#
#
# Convention : Reuss Voigt Hill
#
# Bulk Modulus (GPa) = 63.93029 74.15764 69.04397
# Shear Modulus (GPa) = 24.21610 34.12246 29.16928
#
# Velocity S-wave (km/s) = 3.06259 3.63544 3.36124
# Velocity P-wave (km/s) = 6.10473 6.80772 6.46578
#
# Compressibility (1/GPa) = 0.01564204
#
# Stress axis : x y z
#
# Youngs Moduli (GPa) = 158.88859 76.18519 78.86490
#
# Poissons Ratio (x) = 0.34889 -0.12465
# Poissons Ratio (y) = 0.72763 0.41244
# Poissons Ratio (z) = -0.25113 0.39843
#
# Static dielectric constant tensor:
#      x y z
#    x 1.984860 0.000000 0.000000 
#    y 0.000000 2.047140 0.000000 
#    z 0.000000 0.000000 2.076940 
# 
# From -- ./inp_files/54517.got.cif
#   From: 2010.05.17/outbox.cif.g08.bks.cpg/sg63_28_cif.got.tgz:54517.got - 2010.06.03 15:47:04.
