data_PCOD9468674
_publ_section_title
;
Structure prediction by ZEFSAII (Michael W. Deem and Ramdas Pophale) SiO2 
 PCOD9468674
Probable space group: C M C M
;
_chemical_formula_sum "Si O2"
_cell_formula_units_Z 72
_cell_length_a 13.285704
_cell_length_b 23.863988
_cell_length_c 14.717568
_cell_angle_alpha 90.000000
_cell_angle_beta 90.000000
_cell_angle_gamma 90.000000
_cell_volume 4666.203180
_symmetry_space_group_name_H-M "C M C M"
_symmetry_group_IT_number 63
_symmetry_cell_setting 'orthorhombic'
loop_
_space_group_symop_operation_xyz
x,y,z
-x,-y,1/2+z
x,-y,-z
-x,y,1/2-z
-x,-y,-z
x,y,1/2-z
-x,y,z
x,-y,1/2+z
1/2+x,1/2+y,z
1/2-x,1/2-y,1/2+z
1/2+x,1/2-y,-z
1/2-x,1/2+y,1/2-z
1/2-x,1/2-y,-z
1/2+x,1/2+y,1/2-z
1/2-x,1/2+y,z
1/2+x,1/2-y,1/2+z
loop_
_atom_site_type_symbol
_atom_site_label
_atom_site_fract_x
_atom_site_fract_y
_atom_site_fract_z
Si Si1 0.886275 0.770534 0.064160
Si Si2 0.378811 0.943661 0.549708
Si Si3 0.381269 0.202391 0.750000
Si Si4 0.806025 0.281510 0.750000
Si Si5 0.816049 0.332332 0.444664
Si Si6 0.121555 0.592906 0.250000
O O1 0.860201 0.742861 0.161073
O O2 0.801971 0.817445 0.048908
O O3 0.000000 0.791018 0.061501
O O4 0.870761 0.720766 0.991625
O O5 0.500000 0.942694 0.543553
O O6 0.340621 0.888556 0.498052
O O7 0.354249 0.939372 0.656747
O O8 0.342836 0.000000 0.500000
O O9 0.500000 0.215316 0.750000
O O10 0.307808 0.257015 0.750000
O O11 0.352174 0.168027 0.659472
O O12 0.820080 0.348030 0.750000
O O13 0.000000 0.604431 0.250000
#
# Coordination Sequence:
#
# PCOD9468674 Si02
#       6
#    16  16   8   8  16   8
#     4  10  18  30  49  72  97 124 158 201 246 290
#     4  10  20  33  50  71  96 130 167 203 245 290
#     4  10  20  31  44  69 106 136 156 191 246 300
#     4  10  18  28  50  75  95 127 164 199 241 288
#     4  10  20  31  46  70  99 130 160 196 243 291
#     4  10  18  31  50  70  95 123 160 208 241 280
#
# _framework density 15.430104
#
# number of rings (size 3 to 8) (size 9 to 14) (size 15 to 20)
#    0.000    2.000    2.222    3.000    0.000    0.889 
#    0.000    2.222    0.000    0.667    0.000    0.000 
#    0.000    0.000    0.000    0.000    0.000    0.000 
#
# Total GULP energy -200769.694633 kJ/mol
# GULP energy per Si atom -5576.935962 kJ/mol
# Density = 1.539498 g / cm^3
# Si number density = 15.430104 Si / 1000 Ang^3
#
#
#
# Elastic Constant Matrix: (Units=GPa)
#
#
# Indices 1 2 3 4 5 6 
#
# 1 92.3108 22.5557 27.7301 0.0000 0.0000 0.0000
# 2 22.5557 76.1717 54.1663 0.0000 0.0000 0.0000
# 3 27.7301 54.1663 141.3406 0.0000 0.0000 0.0000
# 4 0.0000 0.0000 0.0000 7.6706 0.0000 0.0000
# 5 0.0000 0.0000 0.0000 0.0000 27.3104 0.0000
# 6 0.0000 0.0000 0.0000 0.0000 0.0000 15.2269
#
#
#
# Elastic Compliance Matrix: (Units=1/GPa)
#
#
# Indices 1 2 3 4 5 6 
#
# 1 0.011862 -0.002553 -0.001349 0.000000 0.000000 0.000000
# 2 -0.002553 0.018596 -0.006626 0.000000 0.000000 0.000000
# 3 -0.001349 -0.006626 0.009879 0.000000 0.000000 0.000000
# 4 0.000000 0.000000 0.000000 0.130367 0.000000 0.000000
# 5 0.000000 0.000000 0.000000 0.000000 0.036616 0.000000
# 6 0.000000 0.000000 0.000000 0.000000 0.000000 0.065673
#
#
# Mechanical properties :
#
#
# Convention : Reuss Voigt Hill
#
# Bulk Modulus (GPa) = 51.86373 57.63634 54.75003
# Shear Modulus (GPa) = 16.64029 23.73301 20.18665
#
# Velocity S-wave (km/s) = 3.28751 3.92611 3.62092
# Velocity P-wave (km/s) = 6.93508 7.61490 7.28293
#
# Compressibility (1/GPa) = 0.01928130
#
# Stress axis : x y z
#
# Youngs Moduli (GPa) = 84.30248 53.77543 101.22655
#
# Poissons Ratio (x) = 0.13732 0.13652
# Poissons Ratio (y) = 0.21527 0.67068
# Poissons Ratio (z) = 0.11370 0.35629
#
# Static dielectric constant tensor:
#      x y z
#    x 1.511490 0.000000 0.000000 
#    y 0.000000 1.478580 0.000000 
#    z 0.000000 0.000000 1.545450 
# 
# From -- ./inp_files/29639.got.cif
#   From: 2010.05.17/outbox.cif.g08.bks.cpg/sg63_15_cif.got.tgz:29639.got - 2010.06.03 15:47:04.
