data_PCOD9468888
_publ_section_title
;
Structure prediction by ZEFSAII (Michael W. Deem and Ramdas Pophale) SiO2 
 PCOD9468888
Probable space group: C M C M
;
_chemical_formula_sum "Si O2"
_cell_formula_units_Z 88
_cell_length_a 17.390376
_cell_length_b 29.541014
_cell_length_c 7.626843
_cell_angle_alpha 90.000000
_cell_angle_beta 90.000000
_cell_angle_gamma 90.000000
_cell_volume 3918.133027
_symmetry_space_group_name_H-M "C M C M"
_symmetry_group_IT_number 63
_symmetry_cell_setting 'orthorhombic'
loop_
_space_group_symop_operation_xyz
x,y,z
-x,-y,1/2+z
x,-y,-z
-x,y,1/2-z
-x,-y,-z
x,y,1/2-z
-x,y,z
x,-y,1/2+z
1/2+x,1/2+y,z
1/2-x,1/2-y,1/2+z
1/2+x,1/2-y,-z
1/2-x,1/2+y,1/2-z
1/2-x,1/2-y,-z
1/2+x,1/2+y,1/2-z
1/2-x,1/2+y,z
1/2+x,1/2-y,1/2+z
loop_
_atom_site_type_symbol
_atom_site_label
_atom_site_fract_x
_atom_site_fract_y
_atom_site_fract_z
Si Si1 0.315855 0.447530 0.042331
Si Si2 0.000000 0.552609 0.540337
Si Si3 0.158917 0.597111 0.964513
Si Si4 0.413266 0.638095 0.459317
Si Si5 0.085854 0.313566 0.463615
Si Si6 0.331027 0.273624 0.539771
O O1 0.310400 0.444809 0.250000
O O2 0.234456 0.428499 0.970235
O O3 0.328804 0.500000 0.000000
O O4 0.381136 0.412106 0.988702
O O5 0.000000 0.500000 0.500000
O O6 0.079899 0.573609 0.475941
O O7 0.000000 0.560060 0.750000
O O8 0.160358 0.595884 0.750000
O O9 0.149028 0.649468 0.018080
O O10 0.417494 0.644189 0.250000
O O11 0.500000 0.643839 0.528778
O O12 0.354152 0.676639 0.527846
O O13 0.085799 0.313762 0.250000
O O14 0.106483 0.263292 0.521184
O O15 0.000000 0.326959 0.518687
O O16 0.334283 0.275895 0.750000
O O17 0.250000 0.250000 0.500000
#
# Coordination Sequence:
#
# PCOD9468888 Si02
#       6
#    16   8  16  16  16  16
#     4  11  23  39  60  86 114 148 191 242 302 360
#     4  10  18  30  48  72 104 144 186 230 275 322
#     4   9  17  30  50  79 112 145 186 231 278 333
#     4  10  22  41  62  86 117 153 196 244 292 347
#     4   9  15  27  50  79 108 141 184 227 261 311
#     4  10  20  34  56  86 117 150 187 229 280 336
#
# _framework density 22.459678
#
# number of rings (size 3 to 8) (size 9 to 14) (size 15 to 20)
#    0.000    2.182    0.909    2.727    0.000    5.091 
#    0.000    0.909    0.000    2.727    0.000    0.000 
#    0.000    0.000    0.000    0.000    0.000    0.000 
#
# Total GULP energy -245705.734948 kJ/mol
# GULP energy per Si atom -5584.221249 kJ/mol
# Density = 2.240856 g / cm^3
# Si number density = 22.459678 Si / 1000 Ang^3
#
#
#
# Elastic Constant Matrix: (Units=GPa)
#
#
# Indices 1 2 3 4 5 6 
#
# 1 127.2448 69.9331 8.3000 0.0000 0.0000 0.0000
# 2 69.9331 172.6870 3.4073 0.0000 0.0000 0.0000
# 3 8.3000 3.4073 47.2171 0.0000 0.0000 0.0000
# 4 0.0000 0.0000 0.0000 8.2626 0.0000 0.0000
# 5 0.0000 0.0000 0.0000 0.0000 11.5871 0.0000
# 6 0.0000 0.0000 0.0000 0.0000 0.0000 35.3731
#
#
#
# Elastic Compliance Matrix: (Units=1/GPa)
#
#
# Indices 1 2 3 4 5 6 
#
# 1 0.010214 -0.004107 -0.001499 0.000000 0.000000 0.000000
# 2 -0.004107 0.007450 0.000184 0.000000 0.000000 0.000000
# 3 -0.001499 0.000184 0.021429 0.000000 0.000000 0.000000
# 4 0.000000 0.000000 0.000000 0.121027 0.000000 0.000000
# 5 0.000000 0.000000 0.000000 0.000000 0.086303 0.000000
# 6 0.000000 0.000000 0.000000 0.000000 0.000000 0.028270
#
#
# Mechanical properties :
#
#
# Convention : Reuss Voigt Hill
#
# Bulk Modulus (GPa) = 35.39821 56.71442 46.05632
# Shear Modulus (GPa) = 16.95192 28.74514 22.84853
#
# Velocity S-wave (km/s) = 2.75029 3.58139 3.19300
# Velocity P-wave (km/s) = 5.08728 6.51216 5.84332
#
# Compressibility (1/GPa) = 0.02825001
#
# Stress axis : x y z
#
# Youngs Moduli (GPa) = 97.90837 134.22360 46.66573
#
# Poissons Ratio (x) = 0.55121 0.06995
# Poissons Ratio (y) = 0.40207 -0.00860
# Poissons Ratio (z) = 0.14677 -0.02473
#
# Static dielectric constant tensor:
#      x y z
#    x 1.838030 0.000000 0.000000 
#    y 0.000000 1.793000 0.000000 
#    z 0.000000 0.000000 1.852770 
# 
# From -- ./inp_files/6784.got.cif
#   From: 2010.05.17/outbox.cif.g08.bks.cpg/sg63_4_cif.got.tgz:6784.got - 2010.06.03 15:47:04.
