data_PCOD9468581
_publ_section_title
;
Structure prediction by ZEFSAII (Michael W. Deem and Ramdas Pophale) SiO2 
 PCOD9468581
Probable space group: C M C M
;
_chemical_formula_sum "Si O2"
_cell_formula_units_Z 96
_cell_length_a 19.844580
_cell_length_b 30.475432
_cell_length_c 7.375625
_cell_angle_alpha 90.000000
_cell_angle_beta 90.000000
_cell_angle_gamma 90.000000
_cell_volume 4460.572577
_symmetry_space_group_name_H-M "C M C M"
_symmetry_group_IT_number 63
_symmetry_cell_setting 'orthorhombic'
loop_
_space_group_symop_operation_xyz
x,y,z
-x,-y,1/2+z
x,-y,-z
-x,y,1/2-z
-x,-y,-z
x,y,1/2-z
-x,y,z
x,-y,1/2+z
1/2+x,1/2+y,z
1/2-x,1/2-y,1/2+z
1/2+x,1/2-y,-z
1/2-x,1/2+y,1/2-z
1/2-x,1/2-y,-z
1/2+x,1/2+y,1/2-z
1/2-x,1/2+y,z
1/2+x,1/2-y,1/2+z
loop_
_atom_site_type_symbol
_atom_site_label
_atom_site_fract_x
_atom_site_fract_y
_atom_site_fract_z
Si Si1 0.274881 0.799060 0.533747
Si Si2 0.812402 0.119773 0.028649
Si Si3 0.923337 0.050520 0.032911
Si Si4 0.571426 0.069873 0.469631
Si Si5 0.712027 0.953788 0.965134
Si Si6 0.075473 0.673736 0.030648
O O1 0.279348 0.806477 0.750000
O O2 0.250000 0.750000 0.500000
O O3 0.216326 0.832925 0.469008
O O4 0.352317 0.806828 0.466610
O O5 0.817030 0.121503 0.250000
O O6 0.878067 0.091795 0.968541
O O7 0.752968 0.087280 0.969458
O O8 0.924671 0.054468 0.250000
O O9 0.000000 0.053420 0.963923
O O10 0.900073 0.000000 0.000000
O O11 0.570645 0.066450 0.250000
O O12 0.500000 0.053493 0.538483
O O13 0.637146 0.046491 0.541900
O O14 0.577578 0.121711 0.509021
O O15 0.708041 0.948267 0.750000
O O16 0.745892 0.000000 0.000000
O O17 0.074721 0.678400 0.250000
O O18 0.000000 0.689493 0.969306
#
# Coordination Sequence:
#
# PCOD9468581 Si02
#       6
#    16  16  16  16  16  16
#     4  10  19  33  52  74  97 123 158 203 250 294
#     4   9  17  31  49  67  91 123 157 191 231 283
#     4   9  17  30  49  72  97 127 162 196 234 287
#     4   8  13  23  41  63  85 114 153 187 213 250
#     4  10  18  28  43  65  91 120 151 185 222 264
#     4   8  13  25  48  71  88 116 161 200 225 264
#
# _framework density 21.521901
#
# number of rings (size 3 to 8) (size 9 to 14) (size 15 to 20)
#    0.000    3.000    1.667    1.500    0.000    0.333 
#    0.000    2.500    0.000    1.500    0.000    2.333 
#    0.000    0.000    0.000    0.000    0.000    0.000 
#
# Total GULP energy -267326.406209 kJ/mol
# GULP energy per Si atom -5569.300129 kJ/mol
# Density = 2.147292 g / cm^3
# Si number density = 21.521901 Si / 1000 Ang^3
#
#
#
# Elastic Constant Matrix: (Units=GPa)
#
#
# Indices 1 2 3 4 5 6 
#
# 1 182.6817 84.6408 6.5803 0.0000 0.0000 0.0000
# 2 84.6408 154.0711 -4.4055 0.0000 0.0000 0.0000
# 3 6.5803 -4.4055 75.4507 0.0000 0.0000 0.0000
# 4 0.0000 0.0000 0.0000 12.8597 0.0000 0.0000
# 5 0.0000 0.0000 0.0000 0.0000 -2.4060 0.0000
# 6 0.0000 0.0000 0.0000 0.0000 0.0000 41.3829
#
#
#
# Elastic Compliance Matrix: (Units=1/GPa)
#
#
# Indices 1 2 3 4 5 6 
#
# 1 0.007401 -0.004091 -0.000884 0.000000 0.000000 0.000000
# 2 -0.004091 0.008763 0.000868 0.000000 0.000000 0.000000
# 3 -0.000884 0.000868 0.013382 0.000000 0.000000 0.000000
# 4 0.000000 0.000000 0.000000 0.077762 0.000000 0.000000
# 5 0.000000 0.000000 0.000000 0.000000 -0.415621 0.000000
# 6 0.000000 0.000000 0.000000 0.000000 0.000000 0.024165
#
#
# Mechanical properties :
#
#
# Convention : Reuss Voigt Hill
#
# Bulk Modulus (GPa) = 46.87921 65.09273 55.98597
# Shear Modulus (GPa) = -18.59962 32.05984 6.73011
#
# Velocity S-wave (km/s) = -2.94295 3.86377 1.77028
# Velocity P-wave (km/s) = 3.20647 7.08629 5.49986
#
# Compressibility (1/GPa) = 0.02133142
#
# Stress axis : x y z
#
# Youngs Moduli (GPa) = 135.10785 114.11623 74.72987
#
# Poissons Ratio (x) = 0.46689 0.06609
# Poissons Ratio (y) = 0.55278 -0.06490
# Poissons Ratio (z) = 0.11949 -0.09911
#
# Static dielectric constant tensor:
#      x y z
#    x 1.847730 0.000000 0.000000 
#    y 0.000000 1.716850 0.000000 
#    z 0.000000 0.000000 1.802200 
# 
# From -- ./inp_files/21525.got.cif
#   From: 2010.05.17/outbox.cif.g08.bks.cpg/sg63_11_cif.got.tgz:21525.got - 2010.06.03 15:47:04.
