data_PCOD9468800
_publ_section_title
;
Structure prediction by ZEFSAII (Michael W. Deem and Ramdas Pophale) SiO2 
 PCOD9468800
Probable space group: C M C M
;
_chemical_formula_sum "Si O2"
_cell_formula_units_Z 72
_cell_length_a 14.515029
_cell_length_b 18.616011
_cell_length_c 16.394985
_cell_angle_alpha 90.000000
_cell_angle_beta 90.000000
_cell_angle_gamma 90.000000
_cell_volume 4430.120695
_symmetry_space_group_name_H-M "C M C M"
_symmetry_group_IT_number 63
_symmetry_cell_setting 'orthorhombic'
loop_
_space_group_symop_operation_xyz
x,y,z
-x,-y,1/2+z
x,-y,-z
-x,y,1/2-z
-x,-y,-z
x,y,1/2-z
-x,y,z
x,-y,1/2+z
1/2+x,1/2+y,z
1/2-x,1/2-y,1/2+z
1/2+x,1/2-y,-z
1/2-x,1/2+y,1/2-z
1/2-x,1/2-y,-z
1/2+x,1/2+y,1/2-z
1/2-x,1/2+y,z
1/2+x,1/2-y,1/2+z
loop_
_atom_site_type_symbol
_atom_site_label
_atom_site_fract_x
_atom_site_fract_y
_atom_site_fract_z
Si Si1 0.000000 0.347561 0.346351
Si Si2 0.000000 0.790642 0.534641
Si Si3 0.299267 0.913233 0.154646
Si Si4 0.810974 0.038479 0.413992
Si Si5 0.801479 0.176251 0.984081
Si Si6 0.500000 0.424152 0.842960
O O1 0.906597 0.393482 0.358389
O O2 0.000000 0.323487 0.250000
O O3 0.000000 0.282360 0.411683
O O4 0.091206 0.803188 0.481811
O O5 0.000000 0.855003 0.599760
O O6 0.279135 0.902233 0.250000
O O7 0.238765 0.862008 0.096154
O O8 0.269945 0.993892 0.129076
O O9 0.788181 0.119850 0.440873
O O10 0.905126 0.035053 0.362866
O O11 0.830685 0.000000 0.500000
O O12 0.750000 0.250000 0.000000
O O13 0.500000 0.401924 0.750000
#
# Coordination Sequence:
#
# PCOD9468800 Si02
#       6
#     8   8  16  16  16   8
#     4  10  19  32  53  78 106 139 182 227 264 306
#     4  10  19  33  53  78 107 134 178 226 262 315
#     4  10  20  35  53  78 108 141 178 221 269 318
#     4   9  19  33  50  74 106 138 172 214 262 319
#     4  10  19  35  55  78 107 140 179 219 266 319
#     4  10  18  29  50  77 102 132 169 216 270 314
#
# _framework density 16.252379000000001
#
# number of rings (size 3 to 8) (size 9 to 14) (size 15 to 20)
#    0.000    2.222    2.222    1.333    0.000    2.667 
#    0.000    8.889    0.000    0.000    0.000    0.000 
#    0.000    0.000    0.000    0.000    0.000    0.000 
#
# Total GULP energy -200503.621975 kJ/mol
# GULP energy per Si atom -5569.545055 kJ/mol
# Density = 1.621539 g / cm^3
# Si number density = 16.252379 Si / 1000 Ang^3
#
#
#
# Elastic Constant Matrix: (Units=GPa)
#
#
# Indices 1 2 3 4 5 6 
#
# 1 148.8639 58.8036 58.6488 0.0000 0.0000 0.0000
# 2 58.8036 95.5911 16.0884 0.0000 0.0000 0.0000
# 3 58.6488 16.0884 64.6672 0.0000 0.0000 0.0000
# 4 0.0000 0.0000 0.0000 7.2968 0.0000 0.0000
# 5 0.0000 0.0000 0.0000 0.0000 27.0381 0.0000
# 6 0.0000 0.0000 0.0000 0.0000 0.0000 29.0957
#
#
#
# Elastic Compliance Matrix: (Units=1/GPa)
#
#
# Indices 1 2 3 4 5 6 
#
# 1 0.013453 -0.006494 -0.010586 0.000000 0.000000 0.000000
# 2 -0.006494 0.014053 0.002394 0.000000 0.000000 0.000000
# 3 -0.010586 0.002394 0.024469 0.000000 0.000000 0.000000
# 4 0.000000 0.000000 0.000000 0.137046 0.000000 0.000000
# 5 0.000000 0.000000 0.000000 0.000000 0.036985 0.000000
# 6 0.000000 0.000000 0.000000 0.000000 0.000000 0.034369
#
#
# Mechanical properties :
#
#
# Convention : Reuss Voigt Hill
#
# Bulk Modulus (GPa) = 44.24222 64.02264 54.13243
# Shear Modulus (GPa) = 16.81900 24.39155 20.60527
#
# Velocity S-wave (km/s) = 3.22042 3.87822 3.56452
# Velocity P-wave (km/s) = 6.41165 7.71572 7.09372
#
# Compressibility (1/GPa) = 0.02260284
#
# Stress axis : x y z
#
# Youngs Moduli (GPa) = 74.33085 71.15707 40.86858
#
# Poissons Ratio (x) = 0.46212 0.43262
# Poissons Ratio (y) = 0.48273 -0.09782
# Poissons Ratio (z) = 0.78683 -0.17032
#
# Static dielectric constant tensor:
#      x y z
#    x 1.564660 0.000000 0.000000 
#    y 0.000000 1.563360 0.000000 
#    z 0.000000 0.000000 1.536110 
# 
# From -- ./inp_files/31487.got.cif
#   From: 2010.05.17/outbox.cif.g08.bks.cpg/sg63_16_cif.got.tgz:31487.got - 2010.06.03 15:47:04.
