data_PCOD9468350
_publ_section_title
;
Structure prediction by ZEFSAII (Michael W. Deem and Ramdas Pophale) SiO2 
 PCOD9468350
Probable space group: C M C M
;
_chemical_formula_sum "Si O2"
_cell_formula_units_Z 80
_cell_length_a 24.374789
_cell_length_b 26.878626
_cell_length_c 8.540916
_cell_angle_alpha 90.000000
_cell_angle_beta 90.000000
_cell_angle_gamma 90.000000
_cell_volume 5595.673678
_symmetry_space_group_name_H-M "C M C M"
_symmetry_group_IT_number 63
_symmetry_cell_setting 'orthorhombic'
loop_
_space_group_symop_operation_xyz
x,y,z
-x,-y,1/2+z
x,-y,-z
-x,y,1/2-z
-x,-y,-z
x,y,1/2-z
-x,y,z
x,-y,1/2+z
1/2+x,1/2+y,z
1/2-x,1/2-y,1/2+z
1/2+x,1/2-y,-z
1/2-x,1/2+y,1/2-z
1/2-x,1/2-y,-z
1/2+x,1/2+y,1/2-z
1/2-x,1/2+y,z
1/2+x,1/2-y,1/2+z
loop_
_atom_site_type_symbol
_atom_site_label
_atom_site_fract_x
_atom_site_fract_y
_atom_site_fract_z
Si Si1 0.500000 0.399271 0.059651
Si Si2 0.000000 0.784081 0.059357
Si Si3 0.184865 0.853550 0.936682
Si Si4 0.883516 0.055229 0.561566
Si Si5 0.379920 0.743254 0.938162
Si Si6 0.717683 0.201459 0.936545
O O1 0.500000 0.398655 0.250000
O O2 0.500000 0.341789 0.007457
O O3 0.555580 0.426736 0.010212
O O4 0.943309 0.758355 0.011411
O O5 0.000000 0.785049 0.250000
O O6 0.183080 0.850268 0.750000
O O7 0.159499 0.904910 0.995947
O O8 0.147776 0.808635 0.006656
O O9 0.246935 0.843755 0.994928
O O10 0.881850 0.056089 0.750000
O O11 0.873397 0.000000 0.500000
O O12 0.376837 0.744661 0.750000
O O13 0.343970 0.788328 0.006534
O O14 0.720036 0.200754 0.750000
O O15 0.750000 0.250000 0.000000
#
# Coordination Sequence:
#
# PCOD9468350 Si02
#       6
#     8   8  16  16  16  16
#     4   9  17  31  47  61  82 114 150 187 227 263
#     4   9  16  27  45  65  86 117 148 180 220 259
#     4  11  20  31  45  63  83 109 144 182 223 265
#     4  11  21  34  48  63  84 112 148 189 229 266
#     4  10  17  29  46  64  86 113 144 178 216 261
#     4  10  18  29  44  63  84 108 138 176 219 263
#
# _framework density 14.296759
#
# number of rings (size 3 to 8) (size 9 to 14) (size 15 to 20)
#    0.000    1.800    2.000    7.500    0.000    0.000 
#    0.000    4.500    0.000    0.000    0.000    0.000 
#    0.000    0.000    0.000    0.900    0.000   11.400 
#
# Total GULP energy -223118.394747 kJ/mol
# GULP energy per Si atom -5577.959869 kJ/mol
# Density = 1.426422 g / cm^3
# Si number density = 14.296759 Si / 1000 Ang^3
#
#
#
# Elastic Constant Matrix: (Units=GPa)
#
#
# Indices 1 2 3 4 5 6 
#
# 1 119.3260 66.6575 33.6253 0.0000 0.0000 0.0000
# 2 66.6575 75.2527 27.5997 0.0000 0.0000 0.0000
# 3 33.6253 27.5997 82.6485 0.0000 0.0000 0.0000
# 4 0.0000 0.0000 0.0000 19.5057 0.0000 0.0000
# 5 0.0000 0.0000 0.0000 0.0000 17.5822 0.0000
# 6 0.0000 0.0000 0.0000 0.0000 0.0000 14.6093
#
#
#
# Elastic Compliance Matrix: (Units=1/GPa)
#
#
# Indices 1 2 3 4 5 6 
#
# 1 0.016915 -0.014198 -0.002141 0.000000 0.000000 0.000000
# 2 -0.014198 0.027060 -0.003260 0.000000 0.000000 0.000000
# 3 -0.002141 -0.003260 0.014059 0.000000 0.000000 0.000000
# 4 0.000000 0.000000 0.000000 0.051267 0.000000 0.000000
# 5 0.000000 0.000000 0.000000 0.000000 0.056876 0.000000
# 6 0.000000 0.000000 0.000000 0.000000 0.000000 0.068450
#
#
# Mechanical properties :
#
#
# Convention : Reuss Voigt Hill
#
# Bulk Modulus (GPa) = 53.08655 59.22135 56.15395
# Shear Modulus (GPa) = 17.85063 20.29575 19.07319
#
# Velocity S-wave (km/s) = 3.53736 3.77185 3.65648
# Velocity P-wave (km/s) = 7.34141 7.77702 7.56235
#
# Compressibility (1/GPa) = 0.01883716
#
# Stress axis : x y z
#
# Youngs Moduli (GPa) = 59.12054 36.95454 71.12869
#
# Poissons Ratio (x) = 0.52467 0.15225
# Poissons Ratio (y) = 0.83937 0.23190
# Poissons Ratio (z) = 0.12655 0.12048
#
# Static dielectric constant tensor:
#      x y z
#    x 1.501760 0.000000 0.000000 
#    y 0.000000 1.439600 0.000000 
#    z 0.000000 0.000000 1.479910 
# 
# From -- ./inp_files/10376.got.cif
#   From: 2010.05.17/outbox.cif.g08.bks.cpg/sg63_6_cif.got.tgz:10376.got - 2010.06.03 15:47:04.
