data_PCOD9468534
_publ_section_title
;
Structure prediction by ZEFSAII (Michael W. Deem and Ramdas Pophale) SiO2 
 PCOD9468534
Probable space group: C M C M
;
_chemical_formula_sum "Si O2"
_cell_formula_units_Z 80
_cell_length_a 7.506504
_cell_length_b 18.804260
_cell_length_c 27.608123
_cell_angle_alpha 90.000000
_cell_angle_beta 90.000000
_cell_angle_gamma 90.000000
_cell_volume 3897.003976
_symmetry_space_group_name_H-M "C M C M"
_symmetry_group_IT_number 63
_symmetry_cell_setting 'orthorhombic'
loop_
_space_group_symop_operation_xyz
x,y,z
-x,-y,1/2+z
x,-y,-z
-x,y,1/2-z
-x,-y,-z
x,y,1/2-z
-x,y,z
x,-y,1/2+z
1/2+x,1/2+y,z
1/2-x,1/2-y,1/2+z
1/2+x,1/2-y,-z
1/2-x,1/2+y,1/2-z
1/2-x,1/2-y,-z
1/2+x,1/2+y,1/2-z
1/2-x,1/2+y,z
1/2+x,1/2-y,1/2+z
loop_
_atom_site_type_symbol
_atom_site_label
_atom_site_fract_x
_atom_site_fract_y
_atom_site_fract_z
Si Si1 0.705369 0.097773 0.898929
Si Si2 0.717592 0.825722 0.196285
Si Si3 0.290468 0.566408 0.107356
Si Si4 0.716948 0.339585 0.696271
Si Si5 0.715044 0.917593 0.502379
O O1 0.500000 0.121763 0.899976
O O2 0.783650 0.130421 0.849981
O O3 0.781173 0.116721 0.952186
O O4 0.707273 0.012026 0.895650
O O5 0.776050 0.849961 0.250000
O O6 0.500000 0.829206 0.196916
O O7 0.767350 0.742951 0.190681
O O8 0.500000 0.554674 0.114385
O O9 0.220234 0.611772 0.152322
O O10 0.267122 0.606596 0.055968
O O11 0.772528 0.363729 0.750000
O O12 0.500000 0.340728 0.695346
O O13 0.500000 0.917309 0.500700
O O14 0.775413 0.000000 0.500000
#
# Coordination Sequence:
#
# PCOD9468534 Si02
#       5
#    16  16  16  16  16
#     4   9  17  29  46  67  88 112 144 180 217 253
#     4   8  14  27  47  66  84 111 148 183 210 247
#     4  10  18  27  44  68  90 113 143 178 213 254
#     4   8  15  28  44  63  88 116 144 175 214 257
#     4   8  15  28  43  60  87 119 144 171 212 257
#
# _framework density 20.528590999999999
#
# number of rings (size 3 to 8) (size 9 to 14) (size 15 to 20)
#    0.000    3.400    0.000    3.000    0.000    4.400 
#    0.000    1.000    0.000    4.200    0.000    5.600 
#    0.000    0.000    0.000    0.000    0.000    0.000 
#
# Total GULP energy -222750.807774 kJ/mol
# GULP energy per Si atom -5568.770194 kJ/mol
# Density = 2.048187 g / cm^3
# Si number density = 20.528591 Si / 1000 Ang^3
#
#
#
# Elastic Constant Matrix: (Units=GPa)
#
#
# Indices 1 2 3 4 5 6 
#
# 1 53.5926 -8.1242 -2.2919 0.0000 0.0000 0.0000
# 2 -8.1242 28.7851 67.2091 0.0000 0.0000 0.0000
# 3 -2.2919 67.2091 244.1314 0.0000 0.0000 0.0000
# 4 0.0000 0.0000 0.0000 -80.9106 0.0000 0.0000
# 5 0.0000 0.0000 0.0000 0.0000 -23.0269 0.0000
# 6 0.0000 0.0000 0.0000 0.0000 0.0000 0.2619
#
#
#
# Elastic Compliance Matrix: (Units=1/GPa)
#
#
# Indices 1 2 3 4 5 6 
#
# 1 0.020786 0.015147 -0.003975 0.000000 0.000000 0.000000
# 2 0.015147 0.108291 -0.029670 0.000000 0.000000 0.000000
# 3 -0.003975 -0.029670 0.012227 0.000000 0.000000 0.000000
# 4 0.000000 0.000000 0.000000 -0.012359 0.000000 0.000000
# 5 0.000000 0.000000 0.000000 0.000000 -0.043427 0.000000
# 6 0.000000 0.000000 0.000000 0.000000 0.000000 3.817778
#
#
# Mechanical properties :
#
#
# Convention : Reuss Voigt Hill
#
# Bulk Modulus (GPa) = 9.58700 48.89947 29.24323
# Shear Modulus (GPa) = 1.25784 -2.75406 -0.74811
#
# Velocity S-wave (km/s) = 0.78362 -1.15952 -0.60433
# Velocity P-wave (km/s) = 2.34498 4.69886 3.71337
#
# Compressibility (1/GPa) = 0.10430795
#
# Stress axis : x y z
#
# Youngs Moduli (GPa) = 48.11045 9.23436 81.78599
#
# Poissons Ratio (x) = -0.13988 0.32509
# Poissons Ratio (y) = -0.72874 2.42661
# Poissons Ratio (z) = 0.19123 0.27399
#
# Static dielectric constant tensor:
#      x y z
#    x 1.771620 0.000000 0.000000 
#    y 0.000000 1.680830 0.000000 
#    z 0.000000 0.000000 1.797870 
# 
# From -- ./inp_files/71578.got.cif
#   From: 2010.05.17/outbox.cif.g08.bks.cpg/sg63_36_cif.got.tgz:71578.got - 2010.06.03 15:47:04.
