data_PCOD9468078
_publ_section_title
;
Structure prediction by ZEFSAII (Michael W. Deem and Ramdas Pophale) SiO2 
 PCOD9468078
Probable space group: P N M A
;
_chemical_formula_sum "Si O2"
_cell_formula_units_Z 48
_cell_length_a 15.000000
_cell_length_b 9.000000
_cell_length_c 18.000000
_cell_angle_alpha 90.000000
_cell_angle_beta 90.000000
_cell_angle_gamma 90.000000
_cell_volume 2430.000000
_symmetry_space_group_name_H-M "P N M A"
_symmetry_group_IT_number 62
_symmetry_cell_setting 'orthorhombic'
loop_
_space_group_symop_operation_xyz
x,y,z
1/2-x,-y,1/2+z
1/2+x,1/2-y,1/2-z
-x,1/2+y,-z
-x,-y,-z
1/2+x,y,1/2-z
1/2-x,1/2+y,1/2+z
x,1/2-y,z
loop_
_atom_site_type_symbol
_atom_site_label
_atom_site_fract_x
_atom_site_fract_y
_atom_site_fract_z
Si Si1 0.446549 0.926815 0.066983
Si Si2 0.904989 0.921157 0.001963
Si Si3 0.255699 0.425909 0.596674
Si Si4 0.988553 0.427763 0.274984
Si Si5 0.694053 0.073334 0.251313
Si Si6 0.158532 0.420832 0.828757
O O1 0.461979 0.750000 0.069236
O O2 0.340384 0.951837 0.059758
O O3 0.475101 0.000049 0.144571
O O4 0.500000 0.000000 0.000000
O O5 0.912506 0.750000 0.976570
O O6 0.834994 0.007956 0.951711
O O7 0.869941 0.922539 0.086006
O O8 0.000000 0.000000 0.000000
O O9 0.266965 0.250000 0.607189
O O10 0.259999 0.506669 0.675756
O O11 0.978022 0.250000 0.279324
O O12 0.916178 0.494805 0.219039
O O13 0.089182 0.460901 0.248459
O O14 0.704713 0.250000 0.249133
O O15 0.746822 0.999491 0.183505
O O16 0.163748 0.250000 0.802996
#
# Coordination Sequence:
#
# PCOD9468078 Si02
#       6
#     8   8   8   8   8   8
#     4  11  25  43  65  94 129 172 217 266 322 382
#     4  11  25  43  66  96 130 171 215 265 323 382
#     4  11  24  43  67  96 131 171 215 265 320 383
#     4  11  24  42  66  96 128 166 213 265 319 381
#     4  11  24  41  66  96 127 167 212 262 320 380
#     4  11  24  42  64  95 129 166 212 262 318 380
#
# _framework density 19.753086
#
# number of rings (size 3 to 8) (size 9 to 14) (size 15 to 20)
#    0.000    1.000    1.667    4.000    2.333   10.000 
#    0.000    0.000    0.000    0.000    0.000    0.000 
#    0.000    0.000    0.000    0.000    0.000    0.000 
#
# Total GULP energy -268570.478827 kJ/mol
# GULP energy per Si atom -5595.218309 kJ/mol
# Density = 1.970813 g / cm^3
# Si number density = 19.753086 Si / 1000 Ang^3
#
#
#
# Elastic Constant Matrix: (Units=GPa)
#
#
# Indices 1 2 3 4 5 6 
#
# 1 90.6914 59.5459 2.0782 0.0000 0.0000 0.0000
# 2 59.5459 85.2842 7.8118 0.0000 0.0000 0.0000
# 3 2.0782 7.8118 30.8518 0.0000 0.0000 0.0000
# 4 0.0000 0.0000 0.0000 31.4158 0.0000 0.0000
# 5 0.0000 0.0000 0.0000 0.0000 37.7642 0.0000
# 6 0.0000 0.0000 0.0000 0.0000 0.0000 35.5367
#
#
#
# Elastic Compliance Matrix: (Units=1/GPa)
#
#
# Indices 1 2 3 4 5 6 
#
# 1 0.020518 -0.014536 0.002299 0.000000 0.000000 0.000000
# 2 -0.014536 0.022302 -0.004668 0.000000 0.000000 0.000000
# 3 0.002299 -0.004668 0.033440 0.000000 0.000000 0.000000
# 4 0.000000 0.000000 0.000000 0.031831 0.000000 0.000000
# 5 0.000000 0.000000 0.000000 0.000000 0.026480 0.000000
# 6 0.000000 0.000000 0.000000 0.000000 0.000000 0.028140
#
#
# Mechanical properties :
#
#
# Convention : Reuss Voigt Hill
#
# Bulk Modulus (GPa) = 23.55757 38.41101 30.98429
# Shear Modulus (GPa) = 23.73352 30.10278 26.91815
#
# Velocity S-wave (km/s) = 3.47004 3.90802 3.69552
# Velocity P-wave (km/s) = 5.29215 6.31279 5.82486
#
# Compressibility (1/GPa) = 0.04244920
#
# Stress axis : x y z
#
# Youngs Moduli (GPa) = 48.73787 44.83826 29.90423
#
# Poissons Ratio (x) = 0.65178 -0.06874
# Poissons Ratio (y) = 0.70847 0.13959
# Poissons Ratio (z) = -0.11203 0.20930
#
# Static dielectric constant tensor:
#      x y z
#    x 1.722580 0.000000 0.000000 
#    y 0.000000 1.665340 0.000000 
#    z 0.000000 0.000000 1.623920 
# 
# From -- ./inp_files/23721.got.cif
#   From: 2010.05.17/outbox.ucp.g08.bks.cvg/sg62_12_cif.got.tgz:23721.got - 2010.06.11 16:29:25.
