data_PCOD9468465
_publ_section_title
;
Structure prediction by ZEFSAII (Michael W. Deem and Ramdas Pophale) SiO2 
 PCOD9468465
Probable space group: C M C M
;
_chemical_formula_sum "Si O2"
_cell_formula_units_Z 80
_cell_length_a 20.056980
_cell_length_b 34.398034
_cell_length_c 7.896842
_cell_angle_alpha 90.000000
_cell_angle_beta 90.000000
_cell_angle_gamma 90.000000
_cell_volume 5448.194602
_symmetry_space_group_name_H-M "C M C M"
_symmetry_group_IT_number 63
_symmetry_cell_setting 'orthorhombic'
loop_
_space_group_symop_operation_xyz
x,y,z
-x,-y,1/2+z
x,-y,-z
-x,y,1/2-z
-x,-y,-z
x,y,1/2-z
-x,y,z
x,-y,1/2+z
1/2+x,1/2+y,z
1/2-x,1/2-y,1/2+z
1/2+x,1/2-y,-z
1/2-x,1/2+y,1/2-z
1/2-x,1/2-y,-z
1/2+x,1/2+y,1/2-z
1/2-x,1/2+y,z
1/2+x,1/2-y,1/2+z
loop_
_atom_site_type_symbol
_atom_site_label
_atom_site_fract_x
_atom_site_fract_y
_atom_site_fract_z
Si Si1 0.500000 0.242870 0.950690
Si Si2 0.366813 0.622805 0.953055
Si Si3 0.226020 0.188803 0.953601
Si Si4 0.853597 0.265919 0.044527
Si Si5 0.500000 0.332909 0.456008
Si Si6 0.924448 0.956323 0.548961
O O1 0.500000 0.234731 0.750000
O O2 0.428896 0.228122 0.018949
O O3 0.500000 0.289255 0.977186
O O4 0.366322 0.625969 0.750000
O O5 0.304450 0.648211 0.017020
O O6 0.434281 0.644174 0.013226
O O7 0.374903 0.577664 0.994163
O O8 0.231182 0.186550 0.750000
O O9 0.297956 0.203415 0.016915
O O10 0.173965 0.223422 0.993912
O O11 0.854642 0.266854 0.250000
O O12 0.500000 0.331369 0.250000
O O13 0.928894 0.954678 0.750000
O O14 0.000000 0.949429 0.478351
O O15 0.904802 0.000000 0.500000
#
# Coordination Sequence:
#
# PCOD9468465 Si02
#       6
#     8  16  16  16   8  16
#     4  10  18  26  38  55  77 102 131 169 203 232
#     4  10  18  28  41  55  74 100 130 164 196 228
#     4   9  17  28  40  54  74 101 131 163 198 233
#     4   9  17  27  38  54  76 101 130 164 200 233
#     4  10  18  26  37  55  76 100 133 165 195 232
#     4  10  20  31  43  58  77 100 126 157 192 228
#
# _framework density 14.683763000000001
#
# number of rings (size 3 to 8) (size 9 to 14) (size 15 to 20)
#    0.000    2.400    3.000    0.600    0.000    2.400 
#    0.000    0.000    0.000    0.000    0.000    0.000 
#    0.000    0.000    0.000    0.900    0.000    6.400 
#
# Total GULP energy -222894.041543 kJ/mol
# GULP energy per Si atom -5572.351039 kJ/mol
# Density = 1.465034 g / cm^3
# Si number density = 14.683763 Si / 1000 Ang^3
#
#
#
# Elastic Constant Matrix: (Units=GPa)
#
#
# Indices 1 2 3 4 5 6 
#
# 1 116.0735 58.9241 3.7153 0.0000 0.0000 0.0000
# 2 58.9241 106.3462 0.8806 0.0000 0.0000 0.0000
# 3 3.7153 0.8806 8.4354 0.0000 0.0000 0.0000
# 4 0.0000 0.0000 0.0000 17.3815 0.0000 0.0000
# 5 0.0000 0.0000 0.0000 0.0000 6.7605 0.0000
# 6 0.0000 0.0000 0.0000 0.0000 0.0000 38.4755
#
#
#
# Elastic Compliance Matrix: (Units=1/GPa)
#
#
# Indices 1 2 3 4 5 6 
#
# 1 0.012167 -0.006703 -0.004659 0.000000 0.000000 0.000000
# 2 -0.006703 0.013104 0.001584 0.000000 0.000000 0.000000
# 3 -0.004659 0.001584 0.120435 0.000000 0.000000 0.000000
# 4 0.000000 0.000000 0.000000 0.057532 0.000000 0.000000
# 5 0.000000 0.000000 0.000000 0.000000 0.147918 0.000000
# 6 0.000000 0.000000 0.000000 0.000000 0.000000 0.025991
#
#
# Mechanical properties :
#
#
# Convention : Reuss Voigt Hill
#
# Bulk Modulus (GPa) = 7.92706 39.76611 23.84658
# Shear Modulus (GPa) = 11.39595 23.67917 17.53756
#
# Velocity S-wave (km/s) = 2.78886 4.02009 3.45969
# Velocity P-wave (km/s) = 3.97248 6.97772 5.67755
#
# Compressibility (1/GPa) = 0.12615024
#
# Stress axis : x y z
#
# Youngs Moduli (GPa) = 82.18908 76.31210 8.30326
#
# Poissons Ratio (x) = 0.51151 0.03869
# Poissons Ratio (y) = 0.55091 -0.01315
# Poissons Ratio (z) = 0.38293 -0.12090
#
# Static dielectric constant tensor:
#      x y z
#    x 1.520090 0.000000 0.000000 
#    y 0.000000 1.485960 0.000000 
#    z 0.000000 0.000000 1.518320 
# 
# From -- ./inp_files/8896.got.cif
#   From: 2010.05.17/outbox.cif.g08.bks.cpg/sg63_5_cif.got.tgz:8896.got - 2010.06.03 15:47:04.
