data_PCOD9468615
_publ_section_title
;
Structure prediction by ZEFSAII (Michael W. Deem and Ramdas Pophale) SiO2 
 PCOD9468615
Probable space group: C M C M
;
_chemical_formula_sum "Si O2"
_cell_formula_units_Z 80
_cell_length_a 7.388154
_cell_length_b 28.155421
_cell_length_c 19.149562
_cell_angle_alpha 90.000000
_cell_angle_beta 90.000000
_cell_angle_gamma 90.000000
_cell_volume 3983.426516
_symmetry_space_group_name_H-M "C M C M"
_symmetry_group_IT_number 63
_symmetry_cell_setting 'orthorhombic'
loop_
_space_group_symop_operation_xyz
x,y,z
-x,-y,1/2+z
x,-y,-z
-x,y,1/2-z
-x,-y,-z
x,y,1/2-z
-x,y,z
x,-y,1/2+z
1/2+x,1/2+y,z
1/2-x,1/2-y,1/2+z
1/2+x,1/2-y,-z
1/2-x,1/2+y,1/2-z
1/2-x,1/2-y,-z
1/2+x,1/2+y,1/2-z
1/2-x,1/2+y,z
1/2+x,1/2-y,1/2+z
loop_
_atom_site_type_symbol
_atom_site_label
_atom_site_fract_x
_atom_site_fract_y
_atom_site_fract_z
Si Si1 0.282697 0.429714 0.250000
Si Si2 0.720559 0.475404 0.106179
Si Si3 0.788072 0.177383 0.042862
Si Si4 0.720996 0.427748 0.961601
Si Si5 0.219578 0.276187 0.396536
Si Si6 0.715056 0.182392 0.750000
O O1 0.500000 0.434822 0.250000
O O2 0.215661 0.454348 0.320788
O O3 0.243588 0.373903 0.250000
O O4 0.500000 0.474990 0.106744
O O5 0.775565 0.529463 0.089443
O O6 0.775154 0.443519 0.039757
O O7 0.713373 0.124935 0.056001
O O8 0.714494 0.223211 0.083806
O O9 0.000000 0.175348 0.060691
O O10 0.772688 0.189917 0.960789
O O11 0.500000 0.426730 0.961542
O O12 0.284586 0.294897 0.321953
O O13 0.000000 0.275510 0.396286
O O14 0.500000 0.191010 0.750000
#
# Coordination Sequence:
#
# PCOD9468615 Si02
#       6
#     8  16  16  16  16   8
#     4  10  18  28  45  67  85 105 140 180 209 242
#     4   8  14  23  37  61  88 106 127 166 210 245
#     4   9  16  28  47  66  83 110 148 182 211 249
#     4   8  13  23  39  59  84 110 131 160 208 253
#     4   9  18  30  43  62  88 115 144 178 214 253
#     4  10  20  32  43  59  89 121 140 166 217 266
#
# _framework density 20.083212
#
# number of rings (size 3 to 8) (size 9 to 14) (size 15 to 20)
#    0.000    3.200    0.000    2.400    0.000    2.400 
#    0.000    1.000    0.000    7.200    0.000    5.600 
#    0.000    1.600    0.000    0.000    0.000    0.000 
#
# Total GULP energy -223141.834910 kJ/mol
# GULP energy per Si atom -5578.545873 kJ/mol
# Density = 2.003750 g / cm^3
# Si number density = 20.083212 Si / 1000 Ang^3
#
#
#
# Elastic Constant Matrix: (Units=GPa)
#
#
# Indices 1 2 3 4 5 6 
#
# 1 67.0479 -6.2876 -9.1700 0.0000 0.0000 0.0000
# 2 -6.2876 170.8077 78.5223 0.0000 0.0000 0.0000
# 3 -9.1700 78.5223 140.8433 0.0000 0.0000 0.0000
# 4 0.0000 0.0000 0.0000 17.1742 0.0000 0.0000
# 5 0.0000 0.0000 0.0000 0.0000 5.1224 0.0000
# 6 0.0000 0.0000 0.0000 0.0000 0.0000 7.2835
#
#
#
# Elastic Compliance Matrix: (Units=1/GPa)
#
#
# Indices 1 2 3 4 5 6 
#
# 1 0.015051 0.000139 0.000902 0.000000 0.000000 0.000000
# 2 0.000139 0.007873 -0.004380 0.000000 0.000000 0.000000
# 3 0.000902 -0.004380 0.009601 0.000000 0.000000 0.000000
# 4 0.000000 0.000000 0.000000 0.058227 0.000000 0.000000
# 5 0.000000 0.000000 0.000000 0.000000 0.195221 0.000000
# 6 0.000000 0.000000 0.000000 0.000000 0.000000 0.137296
#
#
# Mechanical properties :
#
#
# Convention : Reuss Voigt Hill
#
# Bulk Modulus (GPa) = 38.68806 56.09204 47.39005
# Shear Modulus (GPa) = 11.40085 26.95830 19.17958
#
# Velocity S-wave (km/s) = 2.38519 3.66776 3.09367
# Velocity P-wave (km/s) = 5.18567 6.77695 6.03400
#
# Compressibility (1/GPa) = 0.02584776
#
# Stress axis : x y z
#
# Youngs Moduli (GPa) = 66.44002 127.00952 104.15551
#
# Poissons Ratio (x) = -0.01768 -0.09398
# Poissons Ratio (y) = -0.00925 0.45625
# Poissons Ratio (z) = -0.05995 0.55636
#
# Static dielectric constant tensor:
#      x y z
#    x 1.794080 0.000000 0.000000 
#    y 0.000000 1.701870 0.000000 
#    z 0.000000 0.000000 1.673700 
# 
# From -- ./inp_files/40753.got.cif
#   From: 2010.05.17/outbox.cif.g08.bks.cpg/sg63_21_cif.got.tgz:40753.got - 2010.06.03 15:47:04.
