data_PCOD9468697
_publ_section_title
;
Structure prediction by ZEFSAII (Michael W. Deem and Ramdas Pophale) SiO2 
 PCOD9468697
Probable space group: C M C M
;
_chemical_formula_sum "Si O2"
_cell_formula_units_Z 96
_cell_length_a 23.463095
_cell_length_b 26.977502
_cell_length_c 7.897792
_cell_angle_alpha 90.000000
_cell_angle_beta 90.000000
_cell_angle_gamma 90.000000
_cell_volume 4999.110359
_symmetry_space_group_name_H-M "C M C M"
_symmetry_group_IT_number 63
_symmetry_cell_setting 'orthorhombic'
loop_
_space_group_symop_operation_xyz
x,y,z
-x,-y,1/2+z
x,-y,-z
-x,y,1/2-z
-x,-y,-z
x,y,1/2-z
-x,y,z
x,-y,1/2+z
1/2+x,1/2+y,z
1/2-x,1/2-y,1/2+z
1/2+x,1/2-y,-z
1/2-x,1/2+y,1/2-z
1/2-x,1/2-y,-z
1/2+x,1/2+y,1/2-z
1/2-x,1/2+y,z
1/2+x,1/2-y,1/2+z
loop_
_atom_site_type_symbol
_atom_site_label
_atom_site_fract_x
_atom_site_fract_y
_atom_site_fract_z
Si Si1 0.566930 0.750691 0.044019
Si Si2 0.872295 0.848144 0.558191
Si Si3 0.317727 0.443606 0.548118
Si Si4 0.240442 0.194353 0.556690
Si Si5 0.367495 0.152371 0.553415
Si Si6 0.315035 0.943573 0.451913
O O1 0.575928 0.750310 0.250000
O O2 0.500000 0.752377 0.010465
O O3 0.593327 0.698419 0.981444
O O4 0.597011 0.801293 0.980084
O O5 0.894646 0.854749 0.750000
O O6 0.861972 0.902450 0.478001
O O7 0.807175 0.829111 0.560568
O O8 0.331290 0.500000 0.500000
O O9 0.319784 0.439575 0.750000
O O10 0.251529 0.434391 0.498309
O O11 0.219255 0.191654 0.750000
O O12 0.250000 0.250000 0.500000
O O13 0.301888 0.169574 0.552534
O O14 0.386960 0.147431 0.750000
O O15 0.359683 0.097225 0.477681
O O16 0.317269 0.939295 0.250000
O O17 0.328201 0.000000 0.500000
#
# Coordination Sequence:
#
# PCOD9468697 Si02
#       6
#    16  16  16  16  16  16
#     4   9  17  31  51  72  93 121 160 208 248 277
#     4  10  19  31  48  73  99 124 161 201 239 292
#     4  10  19  29  44  68 100 129 158 190 230 286
#     4  11  19  29  45  70 102 130 156 192 240 294
#     4   9  17  28  45  69  97 124 156 195 234 285
#     4  10  18  29  44  67  99 129 159 189 230 284
#
# _framework density 19.203416000000001
#
# number of rings (size 3 to 8) (size 9 to 14) (size 15 to 20)
#    0.000    2.167    3.333    2.500    0.000    0.667 
#    0.000    0.000    0.000    1.500    0.000    0.000 
#    0.000    0.000    0.000    0.000    0.000    1.333 
#
# Total GULP energy -267245.860097 kJ/mol
# GULP energy per Si atom -5567.622085 kJ/mol
# Density = 1.915971 g / cm^3
# Si number density = 19.203416 Si / 1000 Ang^3
#
#
#
# Elastic Constant Matrix: (Units=GPa)
#
#
# Indices 1 2 3 4 5 6 
#
# 1 59.2224 56.9714 5.2315 0.0000 0.0000 0.0000
# 2 56.9714 202.0989 7.2201 0.0000 0.0000 0.0000
# 3 5.2315 7.2201 39.7306 0.0000 0.0000 0.0000
# 4 0.0000 0.0000 0.0000 3.6342 0.0000 0.0000
# 5 0.0000 0.0000 0.0000 0.0000 8.4875 0.0000
# 6 0.0000 0.0000 0.0000 0.0000 0.0000 10.6806
#
#
#
# Elastic Compliance Matrix: (Units=1/GPa)
#
#
# Indices 1 2 3 4 5 6 
#
# 1 0.023308 -0.006503 -0.001887 0.000000 0.000000 0.000000
# 2 -0.006503 0.006795 -0.000378 0.000000 0.000000 0.000000
# 3 -0.001887 -0.000378 0.025487 0.000000 0.000000 0.000000
# 4 0.000000 0.000000 0.000000 0.275161 0.000000 0.000000
# 5 0.000000 0.000000 0.000000 0.000000 0.117820 0.000000
# 6 0.000000 0.000000 0.000000 0.000000 0.000000 0.093627
#
#
# Mechanical properties :
#
#
# Convention : Reuss Voigt Hill
#
# Bulk Modulus (GPa) = 26.27986 48.87754 37.57870
# Shear Modulus (GPa) = 8.73484 20.00240 14.36862
#
# Velocity S-wave (km/s) = 2.13506 3.23089 2.73835
# Velocity P-wave (km/s) = 4.44889 6.27901 5.44145
#
# Compressibility (1/GPa) = 0.03805195
#
# Stress axis : x y z
#
# Youngs Moduli (GPa) = 42.90342 147.17106 39.23594
#
# Poissons Ratio (x) = 0.95707 0.07405
# Poissons Ratio (y) = 0.27901 0.01485
# Poissons Ratio (z) = 0.08097 0.05570
#
# Static dielectric constant tensor:
#      x y z
#    x 1.600560 0.000000 0.000000 
#    y 0.000000 1.783030 0.000000 
#    z 0.000000 0.000000 1.801080 
# 
# From -- ./inp_files/10728.got.cif
#   From: 2010.05.17/outbox.cif.g08.bks.cpg/sg63_6_cif.got.tgz:10728.got - 2010.06.03 15:47:04.
