data_PCOD9468322
_publ_section_title
;
Structure prediction by ZEFSAII (Michael W. Deem and Ramdas Pophale) SiO2 
 PCOD9468322
Probable space group: C M C M
;
_chemical_formula_sum "Si O2"
_cell_formula_units_Z 112
_cell_length_a 26.425620
_cell_length_b 15.989672
_cell_length_c 14.659318
_cell_angle_alpha 90.000000
_cell_angle_beta 90.000000
_cell_angle_gamma 90.000000
_cell_volume 6194.104194
_symmetry_space_group_name_H-M "C M C M"
_symmetry_group_IT_number 63
_symmetry_cell_setting 'orthorhombic'
loop_
_space_group_symop_operation_xyz
x,y,z
-x,-y,1/2+z
x,-y,-z
-x,y,1/2-z
-x,-y,-z
x,y,1/2-z
-x,y,z
x,-y,1/2+z
1/2+x,1/2+y,z
1/2-x,1/2-y,1/2+z
1/2+x,1/2-y,-z
1/2-x,1/2+y,1/2-z
1/2-x,1/2-y,-z
1/2+x,1/2+y,1/2-z
1/2-x,1/2+y,z
1/2+x,1/2-y,1/2+z
loop_
_atom_site_type_symbol
_atom_site_label
_atom_site_fract_x
_atom_site_fract_y
_atom_site_fract_z
Si Si1 0.149574 0.211357 0.357285
Si Si2 0.439427 0.806191 0.443516
Si Si3 0.918170 0.488109 0.102619
Si Si4 0.303344 0.967495 0.646418
Si Si5 0.239543 0.655553 0.648196
Si Si6 0.557416 0.163473 0.152917
Si Si7 0.783623 0.904182 0.525914
O O1 0.144260 0.196927 0.250000
O O2 0.096199 0.236207 0.400728
O O3 0.190365 0.287183 0.368762
O O4 0.175163 0.133398 0.406992
O O5 0.500000 0.792797 0.441364
O O6 0.427797 0.890340 0.383842
O O7 0.422723 0.816812 0.550681
O O8 0.859311 0.512400 0.111542
O O9 0.944098 0.562575 0.156059
O O10 0.936599 0.500000 0.000000
O O11 0.305204 0.934097 0.750000
O O12 0.270325 0.910469 0.579248
O O13 0.277196 0.058431 0.650037
O O14 0.259107 0.677150 0.750000
O O15 0.277175 0.655190 0.562465
O O16 0.581769 0.190958 0.250000
O O17 0.500000 0.195556 0.152877
O O18 0.795823 0.000000 0.500000
#
# Coordination Sequence:
#
# PCOD9468322 Si02
#       7
#    16  16  16  16  16  16  16
#     4  11  22  37  55  78 109 141 175 220 271 320
#     4  10  21  35  54  79 110 148 186 226 274 323
#     4  10  17  28  47  71 106 145 187 227 263 310
#     4  10  18  29  48  76 106 143 183 217 261 317
#     4   9  18  33  52  76 106 138 174 219 268 319
#     4   9  18  31  47  70 103 143 186 230 271 315
#     4  10  21  36  56  77 103 141 178 221 267 320
#
# _framework density 18.081710999999999
#
# number of rings (size 3 to 8) (size 9 to 14) (size 15 to 20)
#    0.000    2.143    1.429    3.000    2.000    3.143 
#    0.000    0.714    0.000    0.429    0.000    0.000 
#    0.000    0.000    0.000    0.000    0.000    0.000 
#
# Total GULP energy -311835.172078 kJ/mol
# GULP energy per Si atom -5568.485216 kJ/mol
# Density = 1.804056 g / cm^3
# Si number density = 18.081711 Si / 1000 Ang^3
#
#
#
# Elastic Constant Matrix: (Units=GPa)
#
#
# Indices 1 2 3 4 5 6 
#
# 1 82.9583 34.1587 46.9576 0.0000 0.0000 0.0000
# 2 34.1587 35.3983 35.6113 0.0000 0.0000 0.0000
# 3 46.9576 35.6113 138.5570 0.0000 0.0000 0.0000
# 4 0.0000 0.0000 0.0000 6.7905 0.0000 0.0000
# 5 0.0000 0.0000 0.0000 0.0000 13.4697 0.0000
# 6 0.0000 0.0000 0.0000 0.0000 0.0000 -3.7787
#
#
#
# Elastic Compliance Matrix: (Units=1/GPa)
#
#
# Indices 1 2 3 4 5 6 
#
# 1 0.020639 -0.017371 -0.002530 0.000000 0.000000 0.000000
# 2 -0.017371 0.052722 -0.007663 0.000000 0.000000 0.000000
# 3 -0.002530 -0.007663 0.010044 0.000000 0.000000 0.000000
# 4 0.000000 0.000000 0.000000 0.147265 0.000000 0.000000
# 5 0.000000 0.000000 0.000000 0.000000 0.074241 0.000000
# 6 0.000000 0.000000 0.000000 0.000000 0.000000 -0.264643
#
#
# Mechanical properties :
#
#
# Convention : Reuss Voigt Hill
#
# Bulk Modulus (GPa) = 35.36482 54.48542 44.92512
# Shear Modulus (GPa) = 47.70007 12.64203 30.17105
#
# Velocity S-wave (km/s) = 5.14175 2.64703 4.08928
# Velocity P-wave (km/s) = 7.40614 6.28814 6.86992
#
# Compressibility (1/GPa) = 0.02827669
#
# Stress axis : x y z
#
# Youngs Moduli (GPa) = 48.45209 18.96744 99.55930
#
# Poissons Ratio (x) = 0.32948 0.25189
# Poissons Ratio (y) = 0.84166 0.76295
# Poissons Ratio (z) = 0.12259 0.14535
#
# Static dielectric constant tensor:
#      x y z
#    x 1.623860 0.000000 0.000000 
#    y 0.000000 1.621590 0.000000 
#    z 0.000000 0.000000 1.718130 
# 
# From -- ./inp_files/37944.got.cif
#   From: 2010.05.17/outbox.cif.g08.bks.cpg/sg63_19_cif.got.tgz:37944.got - 2010.06.03 15:47:04.
