data_PCOD9468778
_publ_section_title
;
Structure prediction by ZEFSAII (Michael W. Deem and Ramdas Pophale) SiO2 
 PCOD9468778
Probable space group: C M C M
;
_chemical_formula_sum "Si O2"
_cell_formula_units_Z 72
_cell_length_a 9.942999
_cell_length_b 22.148377
_cell_length_c 17.195811
_cell_angle_alpha 90.000000
_cell_angle_beta 90.000000
_cell_angle_gamma 90.000000
_cell_volume 3786.883687
_symmetry_space_group_name_H-M "C M C M"
_symmetry_group_IT_number 63
_symmetry_cell_setting 'orthorhombic'
loop_
_space_group_symop_operation_xyz
x,y,z
-x,-y,1/2+z
x,-y,-z
-x,y,1/2-z
-x,-y,-z
x,y,1/2-z
-x,y,z
x,-y,1/2+z
1/2+x,1/2+y,z
1/2-x,1/2-y,1/2+z
1/2+x,1/2-y,-z
1/2-x,1/2+y,1/2-z
1/2-x,1/2-y,-z
1/2+x,1/2+y,1/2-z
1/2-x,1/2+y,z
1/2+x,1/2-y,1/2+z
loop_
_atom_site_type_symbol
_atom_site_label
_atom_site_fract_x
_atom_site_fract_y
_atom_site_fract_z
Si Si1 0.000000 0.987928 0.593567
Si Si2 0.500000 0.133764 0.490733
Si Si3 0.203104 0.781302 0.664249
Si Si4 0.500000 0.244926 0.381897
Si Si5 0.500000 0.826575 0.339785
Si Si6 0.795542 0.892654 0.943063
Si Si7 0.500000 0.615781 0.580980
O O1 0.132820 0.947048 0.603788
O O2 0.000000 0.000000 0.500000
O O3 0.000000 0.054154 0.631169
O O4 0.500000 0.204575 0.461763
O O5 0.500000 0.131190 0.584529
O O6 0.364058 0.104898 0.455946
O O7 0.163979 0.802829 0.750000
O O8 0.362738 0.773158 0.659684
O O9 0.128135 0.718058 0.651813
O O10 0.168194 0.830750 0.600536
O O11 0.500000 0.317116 0.386749
O O12 0.500000 0.850142 0.250000
O O13 0.868481 0.889032 0.026212
#
# Coordination Sequence:
#
# PCOD9468778 Si02
#       7
#     8   8  16   8   8  16   8
#     4   8  17  33  49  72  98 124 163 208 242 275
#     4  10  18  29  48  76  98 121 159 203 248 294
#     4  10  19  30  46  70 101 132 161 199 244 292
#     4  10  19  30  49  73 100 131 159 195 247 296
#     4  10  19  28  40  66 101 129 154 188 242 303
#     4   9  17  30  49  71  95 126 166 206 244 279
#     4  10  18  32  51  71 101 129 160 206 240 286
#
# _framework density 19.012995
#
# number of rings (size 3 to 8) (size 9 to 14) (size 15 to 20)
#    0.000    2.667    0.000    4.333    0.000    3.556 
#    0.000    5.000    0.000    2.667    0.000   24.889 
#    0.000   14.222    0.000    0.000    0.000    0.000 
#
# Total GULP energy -200467.766222 kJ/mol
# GULP energy per Si atom -5568.549062 kJ/mol
# Density = 1.896972 g / cm^3
# Si number density = 19.012995 Si / 1000 Ang^3
#
#
#
# Elastic Constant Matrix: (Units=GPa)
#
#
# Indices 1 2 3 4 5 6 
#
# 1 135.4039 24.2938 13.8925 0.0000 0.0000 0.0000
# 2 24.2938 92.8721 13.9154 0.0000 0.0000 0.0000
# 3 13.8925 13.9154 46.2176 0.0000 0.0000 0.0000
# 4 0.0000 0.0000 0.0000 5.1977 0.0000 0.0000
# 5 0.0000 0.0000 0.0000 0.0000 12.9753 0.0000
# 6 0.0000 0.0000 0.0000 0.0000 0.0000 -34.1772
#
#
#
# Elastic Compliance Matrix: (Units=1/GPa)
#
#
# Indices 1 2 3 4 5 6 
#
# 1 0.007895 -0.001790 -0.001834 0.000000 0.000000 0.000000
# 2 -0.001790 0.011682 -0.002979 0.000000 0.000000 0.000000
# 3 -0.001834 -0.002979 0.023085 0.000000 0.000000 0.000000
# 4 0.000000 0.000000 0.000000 0.192391 0.000000 0.000000
# 5 0.000000 0.000000 0.000000 0.000000 0.077070 0.000000
# 6 0.000000 0.000000 0.000000 0.000000 0.000000 -0.029259
#
#
# Mechanical properties :
#
#
# Convention : Reuss Voigt Hill
#
# Bulk Modulus (GPa) = 33.95021 42.07744 38.01382
# Shear Modulus (GPa) = 16.34581 11.62529 13.98555
#
# Velocity S-wave (km/s) = 2.93528 2.47541 2.71510
# Velocity P-wave (km/s) = 5.42060 5.50901 5.46498
#
# Compressibility (1/GPa) = 0.02945490
#
# Stress axis : x y z
#
# Youngs Moduli (GPa) = 126.66731 85.60035 43.31810
#
# Poissons Ratio (x) = 0.15325 0.07945
# Poissons Ratio (y) = 0.22677 0.12905
# Poissons Ratio (z) = 0.23231 0.25502
#
# Static dielectric constant tensor:
#      x y z
#    x 1.683430 0.000000 0.000000 
#    y 0.000000 1.702880 0.000000 
#    z 0.000000 0.000000 1.680210 
# 
# From -- ./inp_files/50775.got.cif
#   From: 2010.05.17/outbox.cif.g08.bks.cpg/sg63_26_cif.got.tgz:50775.got - 2010.06.03 15:47:04.
