data_PCOD9468769
_publ_section_title
;
Structure prediction by ZEFSAII (Michael W. Deem and Ramdas Pophale) SiO2 
 PCOD9468769
Probable space group: C M C M
;
_chemical_formula_sum "Si O2"
_cell_formula_units_Z 96
_cell_length_a 8.718885
_cell_length_b 24.607506
_cell_length_c 26.585366
_cell_angle_alpha 90.000000
_cell_angle_beta 90.000000
_cell_angle_gamma 90.000000
_cell_volume 5703.890673
_symmetry_space_group_name_H-M "C M C M"
_symmetry_group_IT_number 63
_symmetry_cell_setting 'orthorhombic'
loop_
_space_group_symop_operation_xyz
x,y,z
-x,-y,1/2+z
x,-y,-z
-x,y,1/2-z
-x,-y,-z
x,y,1/2-z
-x,y,z
x,-y,1/2+z
1/2+x,1/2+y,z
1/2-x,1/2-y,1/2+z
1/2+x,1/2-y,-z
1/2-x,1/2+y,1/2-z
1/2-x,1/2-y,-z
1/2+x,1/2+y,1/2-z
1/2-x,1/2+y,z
1/2+x,1/2-y,1/2+z
loop_
_atom_site_type_symbol
_atom_site_label
_atom_site_fract_x
_atom_site_fract_y
_atom_site_fract_z
Si Si1 0.685330 0.007193 0.618334
Si Si2 0.179640 0.583796 0.040530
Si Si3 0.319574 0.329979 0.887769
Si Si4 0.314333 0.912132 0.808134
Si Si5 0.181101 0.614593 0.573709
Si Si6 0.681922 0.732127 0.945675
O O1 0.500000 0.011248 0.621225
O O2 0.719078 0.972351 0.568004
O O3 0.735373 0.967963 0.663790
O O4 0.740774 0.068954 0.612612
O O5 0.282704 0.629920 0.065602
O O6 0.000000 0.595493 0.053300
O O7 0.191805 0.586253 0.981051
O O8 0.500000 0.322618 0.881773
O O9 0.250548 0.361656 0.839920
O O10 0.241246 0.273791 0.903364
O O11 0.268315 0.911111 0.750000
O O12 0.500000 0.910242 0.810721
O O13 0.266227 0.671571 0.569016
O O14 0.000000 0.625364 0.582946
O O15 0.500000 0.735490 0.949750
O O16 0.750000 0.750000 0.000000
#
# Coordination Sequence:
#
# PCOD9468769 Si02
#       6
#    16  16  16  16  16  16
#     4   8  15  28  48  76 103 132 171 208 250 306
#     4   9  16  28  47  70 101 138 173 207 247 301
#     4  11  21  33  51  76 105 136 174 219 262 305
#     4   9  18  35  59  82 104 133 169 212 262 312
#     4  10  18  29  48  72 103 141 176 210 250 302
#     4  12  23  35  50  71 103 142 182 218 258 311
#
# _framework density 16.830615999999999
#
# number of rings (size 3 to 8) (size 9 to 14) (size 15 to 20)
#    0.000    2.167    1.667    4.500    0.000    2.333 
#    0.000    3.333    0.000    6.000    0.000    2.333 
#    0.000    0.000    0.000    0.000    0.000    0.000 
#
# Total GULP energy -267604.547816 kJ/mol
# GULP energy per Si atom -5575.094746 kJ/mol
# Density = 1.679231 g / cm^3
# Si number density = 16.830616 Si / 1000 Ang^3
#
#
#
# Elastic Constant Matrix: (Units=GPa)
#
#
# Indices 1 2 3 4 5 6 
#
# 1 69.0424 47.1100 35.9597 0.0000 0.0000 0.0000
# 2 47.1100 144.9345 63.4410 0.0000 0.0000 0.0000
# 3 35.9597 63.4410 87.0260 0.0000 0.0000 0.0000
# 4 0.0000 0.0000 0.0000 9.7255 0.0000 0.0000
# 5 0.0000 0.0000 0.0000 0.0000 13.8556 0.0000
# 6 0.0000 0.0000 0.0000 0.0000 0.0000 22.4234
#
#
#
# Elastic Compliance Matrix: (Units=1/GPa)
#
#
# Indices 1 2 3 4 5 6 
#
# 1 0.020097 -0.004255 -0.005202 0.000000 0.000000 0.000000
# 2 -0.004255 0.011034 -0.006285 0.000000 0.000000 0.000000
# 3 -0.005202 -0.006285 0.018222 0.000000 0.000000 0.000000
# 4 0.000000 0.000000 0.000000 0.102823 0.000000 0.000000
# 5 0.000000 0.000000 0.000000 0.000000 0.072173 0.000000
# 6 0.000000 0.000000 0.000000 0.000000 0.000000 0.044596
#
#
# Mechanical properties :
#
#
# Convention : Reuss Voigt Hill
#
# Bulk Modulus (GPa) = 55.96692 66.00270 60.98481
# Shear Modulus (GPa) = 16.31926 19.50038 17.90982
#
# Velocity S-wave (km/s) = 3.11725 3.40755 3.26563
# Velocity P-wave (km/s) = 6.80305 7.40154 7.10860
#
# Compressibility (1/GPa) = 0.01786770
#
# Stress axis : x y z
#
# Youngs Moduli (GPa) = 49.75915 90.62823 54.87764
#
# Poissons Ratio (x) = 0.38565 0.28548
# Poissons Ratio (y) = 0.21174 0.34493
# Poissons Ratio (z) = 0.25885 0.56964
#
# Static dielectric constant tensor:
#      x y z
#    x 1.572720 0.000000 0.000000 
#    y 0.000000 1.589530 0.000000 
#    z 0.000000 0.000000 1.563960 
# 
# From -- ./inp_files/67234.got.cif
#   From: 2010.05.17/outbox.cif.g08.bks.cpg/sg63_34_cif.got.tgz:67234.got - 2010.06.03 15:47:04.
