data_PCOD9468112
_publ_section_title
;
Structure prediction by ZEFSAII (Michael W. Deem and Ramdas Pophale) SiO2 
 PCOD9468112
Probable space group: C M C M
;
_chemical_formula_sum "Si O2"
_cell_formula_units_Z 64
_cell_length_a 34.086811
_cell_length_b 7.048185
_cell_length_c 10.916938
_cell_angle_alpha 90.000000
_cell_angle_beta 90.000000
_cell_angle_gamma 90.000000
_cell_volume 2622.795992
_symmetry_space_group_name_H-M "C M C M"
_symmetry_group_IT_number 63
_symmetry_cell_setting 'orthorhombic'
loop_
_space_group_symop_operation_xyz
x,y,z
-x,-y,1/2+z
x,-y,-z
-x,y,1/2-z
-x,-y,-z
x,y,1/2-z
-x,y,z
x,-y,1/2+z
1/2+x,1/2+y,z
1/2-x,1/2-y,1/2+z
1/2+x,1/2-y,-z
1/2-x,1/2+y,1/2-z
1/2-x,1/2-y,-z
1/2+x,1/2+y,1/2-z
1/2-x,1/2+y,z
1/2+x,1/2-y,1/2+z
loop_
_atom_site_type_symbol
_atom_site_label
_atom_site_fract_x
_atom_site_fract_y
_atom_site_fract_z
Si Si1 0.193002 0.265509 0.250000
Si Si2 0.581626 0.263538 0.384829
Si Si3 0.954650 0.178745 0.120301
Si Si4 0.215985 0.825341 0.250000
Si Si5 0.331868 0.272458 0.480999
O O1 0.237398 0.340701 0.250000
O O2 0.173494 0.312172 0.382044
O O3 0.197597 0.036135 0.250000
O O4 0.572729 0.190295 0.250000
O O5 0.555411 0.206715 0.499780
O O6 0.572595 0.491135 0.377410
O O7 0.626265 0.226474 0.421784
O O8 0.948360 0.277694 0.250000
O O9 0.000000 0.117157 0.116043
O O10 0.200844 0.731203 0.123242
O O11 0.330998 0.500000 0.500000
#
# Coordination Sequence:
#
# PCOD9468112 Si02
#       5
#     8  16  16   8  16
#     4  10  22  32  52  64  92 114 152 192 244 282
#     4  10  16  23  37  54  79 108 150 188 215 254
#     4   9  17  24  34  53  83 116 154 184 217 262
#     4  10  20  36  46  70  88 116 148 196 238 284
#     4  10  18  28  45  65  84 112 150 195 223 270
#
# _framework density 24.401439
#
# number of rings (size 3 to 8) (size 9 to 14) (size 15 to 20)
#    0.000    2.250    3.750    2.250    1.750    1.500 
#    0.000    0.000    0.000    0.000    0.000    0.000 
#    0.000    0.000    0.000    0.000    0.000   30.000 
#
# Total GULP energy -178670.743248 kJ/mol
# GULP energy per Si atom -5583.460726 kJ/mol
# Density = 2.434590 g / cm^3
# Si number density = 24.401439 Si / 1000 Ang^3
#
#
#
# Elastic Constant Matrix: (Units=GPa)
#
#
# Indices 1 2 3 4 5 6 
#
# 1 102.1538 4.0512 62.9603 0.0000 0.0000 0.0000
# 2 4.0512 90.8815 15.3708 0.0000 0.0000 0.0000
# 3 62.9603 15.3708 300.9584 0.0000 0.0000 0.0000
# 4 0.0000 0.0000 0.0000 -22.9841 0.0000 0.0000
# 5 0.0000 0.0000 0.0000 0.0000 48.5875 0.0000
# 6 0.0000 0.0000 0.0000 0.0000 0.0000 -0.8406
#
#
#
# Elastic Compliance Matrix: (Units=1/GPa)
#
#
# Indices 1 2 3 4 5 6 
#
# 1 0.011239 -0.000104 -0.002346 0.000000 0.000000 0.000000
# 2 -0.000104 0.011100 -0.000545 0.000000 0.000000 0.000000
# 3 -0.002346 -0.000545 0.003841 0.000000 0.000000 0.000000
# 4 0.000000 0.000000 0.000000 -0.043508 0.000000 0.000000
# 5 0.000000 0.000000 0.000000 0.000000 0.020581 0.000000
# 6 0.000000 0.000000 0.000000 0.000000 0.000000 -1.189671
#
#
# Mechanical properties :
#
#
# Convention : Reuss Voigt Hill
#
# Bulk Modulus (GPa) = 49.52911 73.19535 61.36223
# Shear Modulus (GPa) = -4.26005 32.39334 14.06665
#
# Velocity S-wave (km/s) = -1.32273 3.64746 2.40358
# Velocity P-wave (km/s) = 4.24369 6.91376 5.73624
#
# Compressibility (1/GPa) = 0.02019015
#
# Stress axis : x y z
#
# Youngs Moduli (GPa) = 88.97478 90.08865 260.32731
#
# Poissons Ratio (x) = 0.00939 0.61070
# Poissons Ratio (y) = 0.00927 0.14191
# Poissons Ratio (z) = 0.20873 0.04911
#
# Static dielectric constant tensor:
#      x y z
#    x 1.864600 0.000000 0.000000 
#    y 0.000000 1.957640 0.000000 
#    z 0.000000 0.000000 1.997700 
# 
# From -- ./inp_files/24685.got.cif
#   From: 2010.05.17/outbox.cif.g08.bks.cpg/sg63_13_cif.got.tgz:24685.got - 2010.06.03 15:47:04.
