data_PCOD9468269
_publ_section_title
;
Structure prediction by ZEFSAII (Michael W. Deem and Ramdas Pophale) SiO2 
 PCOD9468269
Probable space group: C M C M
;
_chemical_formula_sum "Si O2"
_cell_formula_units_Z 96
_cell_length_a 29.714227
_cell_length_b 27.394194
_cell_length_c 8.689528
_cell_angle_alpha 90.000000
_cell_angle_beta 90.000000
_cell_angle_gamma 90.000000
_cell_volume 7073.252322
_symmetry_space_group_name_H-M "C M C M"
_symmetry_group_IT_number 63
_symmetry_cell_setting 'orthorhombic'
loop_
_space_group_symop_operation_xyz
x,y,z
-x,-y,1/2+z
x,-y,-z
-x,y,1/2-z
-x,-y,-z
x,y,1/2-z
-x,y,z
x,-y,1/2+z
1/2+x,1/2+y,z
1/2-x,1/2-y,1/2+z
1/2+x,1/2-y,-z
1/2-x,1/2+y,1/2-z
1/2-x,1/2-y,-z
1/2+x,1/2+y,1/2-z
1/2-x,1/2+y,z
1/2+x,1/2-y,1/2+z
loop_
_atom_site_type_symbol
_atom_site_label
_atom_site_fract_x
_atom_site_fract_y
_atom_site_fract_z
Si Si1 0.858518 0.755568 0.433827
Si Si2 0.948988 0.903832 0.935361
Si Si3 0.550803 0.288997 0.564865
Si Si4 0.195170 0.146556 0.563218
Si Si5 0.859155 0.052360 0.565750
Si Si6 0.221840 0.704131 0.934615
O O1 0.856517 0.754021 0.250000
O O2 0.909498 0.758080 0.490568
O O3 0.835174 0.806925 0.485523
O O4 0.827947 0.712027 0.500346
O O5 0.945427 0.907731 0.750000
O O6 0.943372 0.846421 0.975776
O O7 0.000000 0.918231 0.978831
O O8 0.909642 0.934288 0.012852
O O9 0.553770 0.285954 0.750000
O O10 0.500000 0.274921 0.519333
O O11 0.193651 0.146092 0.750000
O O12 0.173142 0.096318 0.509442
O O13 0.246865 0.158163 0.520091
O O14 0.857742 0.051014 0.750000
O O15 0.846157 0.000000 0.500000
O O16 0.220586 0.706794 0.750000
O O17 0.250000 0.750000 0.000000
#
# Coordination Sequence:
#
# PCOD9468269 Si02
#       6
#    16  16  16  16  16  16
#     4  10  17  27  42  62  82 103 129 159 195 238
#     4   9  18  32  46  59  74  95 128 169 211 249
#     4   9  17  28  42  60  81 105 133 165 201 239
#     4   8  16  29  42  56  77  99 124 159 198 239
#     4  11  21  33  45  59  76  99 130 166 206 248
#     4   9  16  27  42  61  80 100 124 156 197 238
#
# _framework density 13.572257
#
# number of rings (size 3 to 8) (size 9 to 14) (size 15 to 20)
#    0.000    2.667    1.667    3.500    0.000    1.000 
#    0.000    4.167    0.000    0.000    0.000    0.000 
#    0.000    0.000    0.000    0.000    0.000    0.833 
#
# Total GULP energy -267341.787545 kJ/mol
# GULP energy per Si atom -5569.620574 kJ/mol
# Density = 1.354137 g / cm^3
# Si number density = 13.572257 Si / 1000 Ang^3
#
#
#
# Elastic Constant Matrix: (Units=GPa)
#
#
# Indices 1 2 3 4 5 6 
#
# 1 99.0058 51.6100 26.8452 0.0000 0.0000 0.0000
# 2 51.6100 54.6605 16.6819 0.0000 0.0000 0.0000
# 3 26.8452 16.6819 27.6455 0.0000 0.0000 0.0000
# 4 0.0000 0.0000 0.0000 12.0512 0.0000 0.0000
# 5 0.0000 0.0000 0.0000 0.0000 21.1923 0.0000
# 6 0.0000 0.0000 0.0000 0.0000 0.0000 16.5242
#
#
#
# Elastic Compliance Matrix: (Units=1/GPa)
#
#
# Indices 1 2 3 4 5 6 
#
# 1 0.022312 -0.017717 -0.010975 0.000000 0.000000 0.000000
# 2 -0.017717 0.036493 -0.004816 0.000000 0.000000 0.000000
# 3 -0.010975 -0.004816 0.049736 0.000000 0.000000 0.000000
# 4 0.000000 0.000000 0.000000 0.082979 0.000000 0.000000
# 5 0.000000 0.000000 0.000000 0.000000 0.047187 0.000000
# 6 0.000000 0.000000 0.000000 0.000000 0.000000 0.060517
#
#
# Mechanical properties :
#
#
# Convention : Reuss Voigt Hill
#
# Bulk Modulus (GPa) = 24.08265 41.28734 32.68500
# Shear Modulus (GPa) = 13.15500 15.69851 14.42676
#
# Velocity S-wave (km/s) = 3.11667 3.40466 3.26384
# Velocity P-wave (km/s) = 5.54383 6.77806 6.19177
#
# Compressibility (1/GPa) = 0.04152367
#
# Stress axis : x y z
#
# Youngs Moduli (GPa) = 44.81883 27.40235 20.10613
#
# Poissons Ratio (x) = 0.48550 0.22067
# Poissons Ratio (y) = 0.79407 0.09684
# Poissons Ratio (z) = 0.49189 0.13198
#
# Static dielectric constant tensor:
#      x y z
#    x 1.469270 0.000000 0.000000 
#    y 0.000000 1.431500 0.000000 
#    z 0.000000 0.000000 1.455070 
# 
# From -- ./inp_files/12977.got.cif
#   From: 2010.05.17/outbox.cif.g08.bks.cpg/sg63_7_cif.got.tgz:12977.got - 2010.06.03 15:47:04.
