data_PCOD9468527
_publ_section_title
;
Structure prediction by ZEFSAII (Michael W. Deem and Ramdas Pophale) SiO2 
 PCOD9468527
Probable space group: C M C M
;
_chemical_formula_sum "Si O2"
_cell_formula_units_Z 96
_cell_length_a 20.080265
_cell_length_b 18.437397
_cell_length_c 15.331643
_cell_angle_alpha 90.000000
_cell_angle_beta 90.000000
_cell_angle_gamma 90.000000
_cell_volume 5676.200729
_symmetry_space_group_name_H-M "C M C M"
_symmetry_group_IT_number 63
_symmetry_cell_setting 'orthorhombic'
loop_
_space_group_symop_operation_xyz
x,y,z
-x,-y,1/2+z
x,-y,-z
-x,y,1/2-z
-x,-y,-z
x,y,1/2-z
-x,y,z
x,-y,1/2+z
1/2+x,1/2+y,z
1/2-x,1/2-y,1/2+z
1/2+x,1/2-y,-z
1/2-x,1/2+y,1/2-z
1/2-x,1/2-y,-z
1/2+x,1/2+y,1/2-z
1/2-x,1/2+y,z
1/2+x,1/2-y,1/2+z
loop_
_atom_site_type_symbol
_atom_site_label
_atom_site_fract_x
_atom_site_fract_y
_atom_site_fract_z
Si Si1 0.377808 0.176000 0.146769
Si Si2 0.268044 0.625645 0.348557
Si Si3 0.922297 0.835245 0.353774
Si Si4 0.712640 0.959898 0.346083
Si Si5 0.679499 0.583506 0.976532
Si Si6 0.926343 0.481612 0.601388
O O1 0.389909 0.169437 0.250000
O O2 0.298050 0.173129 0.135115
O O3 0.408510 0.251994 0.118834
O O4 0.409094 0.103502 0.107920
O O5 0.293523 0.641017 0.250000
O O6 0.242531 0.541812 0.347555
O O7 0.314770 0.627994 0.433141
O O8 0.907179 0.841313 0.250000
O O9 0.874741 0.885396 0.410748
O O10 0.000000 0.852324 0.365657
O O11 0.726832 0.928572 0.250000
O O12 0.749635 0.918570 0.424484
O O13 0.634037 0.972565 0.357701
O O14 0.664147 0.500000 0.000000
O O15 0.926987 0.500000 0.500000
O O16 0.000000 0.495035 0.638499
#
# Coordination Sequence:
#
# PCOD9468527 Si02
#       6
#    16  16  16  16  16  16
#     4   9  17  31  50  72 100 130 162 203 248 292
#     4   8  15  28  47  70  94 123 158 194 236 289
#     4  10  21  35  51  73  99 128 165 210 259 302
#     4   9  16  27  44  66  94 128 163 197 237 285
#     4  10  19  32  51  72  99 129 162 205 251 297
#     4  10  18  27  43  69 101 135 169 202 237 285
#
# _framework density 16.912721999999999
#
# number of rings (size 3 to 8) (size 9 to 14) (size 15 to 20)
#    0.000    2.667    0.000    5.000    0.000    3.667 
#    0.000    0.000    0.000    0.500    0.000    1.167 
#    0.000    8.000    0.000    0.000    0.000    0.000 
#
# Total GULP energy -267364.403554 kJ/mol
# GULP energy per Si atom -5570.091741 kJ/mol
# Density = 1.687423 g / cm^3
# Si number density = 16.912722 Si / 1000 Ang^3
#
#
#
# Elastic Constant Matrix: (Units=GPa)
#
#
# Indices 1 2 3 4 5 6 
#
# 1 86.4258 40.7208 55.4991 0.0000 0.0000 0.0000
# 2 40.7208 43.4844 30.9068 0.0000 0.0000 0.0000
# 3 55.4991 30.9068 94.7405 0.0000 0.0000 0.0000
# 4 0.0000 0.0000 0.0000 19.8704 0.0000 0.0000
# 5 0.0000 0.0000 0.0000 0.0000 23.3653 0.0000
# 6 0.0000 0.0000 0.0000 0.0000 0.0000 -1.1197
#
#
#
# Elastic Compliance Matrix: (Units=1/GPa)
#
#
# Indices 1 2 3 4 5 6 
#
# 1 0.025905 -0.017540 -0.009453 0.000000 0.000000 0.000000
# 2 -0.017540 0.041814 -0.003366 0.000000 0.000000 0.000000
# 3 -0.009453 -0.003366 0.017191 0.000000 0.000000 0.000000
# 4 0.000000 0.000000 0.000000 0.050326 0.000000 0.000000
# 5 0.000000 0.000000 0.000000 0.000000 0.042799 0.000000
# 6 0.000000 0.000000 0.000000 0.000000 0.000000 -0.893058
#
#
# Mechanical properties :
#
#
# Convention : Reuss Voigt Hill
#
# Bulk Modulus (GPa) = 41.33587 53.21158 47.27373
# Shear Modulus (GPa) = -7.73707 14.92478 3.59386
#
# Velocity S-wave (km/s) = -2.14118 2.97384 1.45930
# Velocity P-wave (km/s) = 4.28730 6.58198 5.55443
#
# Compressibility (1/GPa) = 0.02419206
#
# Stress axis : x y z
#
# Youngs Moduli (GPa) = 38.60192 23.91524 58.16965
#
# Poissons Ratio (x) = 0.41947 0.54991
# Poissons Ratio (y) = 0.67708 0.19580
# Poissons Ratio (z) = 0.36492 0.08050
#
# Static dielectric constant tensor:
#      x y z
#    x 1.585340 0.000000 0.000000 
#    y 0.000000 1.564510 0.000000 
#    z 0.000000 0.000000 1.608510 
# 
# From -- ./inp_files/45777.got.cif
#   From: 2010.05.17/outbox.cif.g08.bks.cpg/sg63_23_cif.got.tgz:45777.got - 2010.06.03 15:47:04.
