data_PCOD9468132
_publ_section_title
;
Structure prediction by ZEFSAII (Michael W. Deem and Ramdas Pophale) SiO2 
 PCOD9468132
Probable space group: C M C M
;
_chemical_formula_sum "Si O2"
_cell_formula_units_Z 56
_cell_length_a 34.875805
_cell_length_b 5.396592
_cell_length_c 13.661017
_cell_angle_alpha 90.000000
_cell_angle_beta 90.000000
_cell_angle_gamma 90.000000
_cell_volume 2571.146707
_symmetry_space_group_name_H-M "C M C M"
_symmetry_group_IT_number 63
_symmetry_cell_setting 'orthorhombic'
loop_
_space_group_symop_operation_xyz
x,y,z
-x,-y,1/2+z
x,-y,-z
-x,y,1/2-z
-x,-y,-z
x,y,1/2-z
-x,y,z
x,-y,1/2+z
1/2+x,1/2+y,z
1/2-x,1/2-y,1/2+z
1/2+x,1/2-y,-z
1/2-x,1/2+y,1/2-z
1/2-x,1/2-y,-z
1/2+x,1/2+y,1/2-z
1/2-x,1/2+y,z
1/2+x,1/2-y,1/2+z
loop_
_atom_site_type_symbol
_atom_site_label
_atom_site_fract_x
_atom_site_fract_y
_atom_site_fract_z
Si Si1 0.376212 0.358039 0.636726
Si Si2 0.773878 0.238853 0.750000
Si Si3 0.654073 0.140733 0.362481
Si Si4 0.457803 0.750546 0.064858
O O1 0.363982 0.391162 0.750000
O O2 0.369417 0.631291 0.593409
O O3 0.420247 0.276694 0.630310
O O4 0.351132 0.132133 0.594776
O O5 0.744100 0.466330 0.750000
O O6 0.802213 0.278802 0.843009
O O7 0.638518 0.107041 0.250000
O O8 0.500000 0.765301 0.113217
O O9 0.458043 0.500000 0.000000
O O10 0.453816 0.000000 0.000000
#
# Coordination Sequence:
#
# PCOD9468132 Si02
#       4
#    16   8  16  16
#     4  10  17  32  50  69  99 133 160 206 246 288
#     4  10  16  26  44  70 107 134 149 188 254 298
#     4   8  17  27  43  70  98 130 151 199 238 290
#     4  10  21  35  50  71  99 130 169 213 248 286
#
# _framework density 21.780166000000001
#
# number of rings (size 3 to 8) (size 9 to 14) (size 15 to 20)
#    0.857    1.714    0.000    3.429    0.000    0.571 
#    0.000    0.000    0.000   10.286    0.000    0.000 
#    0.000   80.000    0.000    0.000    0.000    0.000 
#
# Total GULP energy -155974.006752 kJ/mol
# GULP energy per Si atom -5570.500241 kJ/mol
# Density = 2.173059 g / cm^3
# Si number density = 21.780166 Si / 1000 Ang^3
#
#
#
# Elastic Constant Matrix: (Units=GPa)
#
#
# Indices 1 2 3 4 5 6 
#
# 1 87.0328 3.7090 -7.7660 0.0000 0.0000 0.0000
# 2 3.7090 150.0799 14.1128 0.0000 0.0000 0.0000
# 3 -7.7660 14.1128 33.5176 0.0000 0.0000 0.0000
# 4 0.0000 0.0000 0.0000 30.8228 0.0000 0.0000
# 5 0.0000 0.0000 0.0000 0.0000 2.3709 0.0000
# 6 0.0000 0.0000 0.0000 0.0000 0.0000 47.6799
#
#
#
# Elastic Compliance Matrix: (Units=1/GPa)
#
#
# Indices 1 2 3 4 5 6 
#
# 1 0.011779 -0.000570 0.002969 0.000000 0.000000 0.000000
# 2 -0.000570 0.006965 -0.003065 0.000000 0.000000 0.000000
# 3 0.002969 -0.003065 0.031814 0.000000 0.000000 0.000000
# 4 0.000000 0.000000 0.000000 0.032444 0.000000 0.000000
# 5 0.000000 0.000000 0.000000 0.000000 0.421783 0.000000
# 6 0.000000 0.000000 0.000000 0.000000 0.000000 0.020973
#
#
# Mechanical properties :
#
#
# Convention : Reuss Voigt Hill
#
# Bulk Modulus (GPa) = 20.31434 32.30467 26.30951
# Shear Modulus (GPa) = 9.19965 33.54635 21.37300
#
# Velocity S-wave (km/s) = 2.05743 3.92883 3.13598
# Velocity P-wave (km/s) = 3.87186 5.95359 5.02178
#
# Compressibility (1/GPa) = 0.04922631
#
# Stress axis : x y z
#
# Youngs Moduli (GPa) = 84.89552 143.56617 31.43308
#
# Poissons Ratio (x) = 0.08188 -0.09334
# Poissons Ratio (y) = 0.04842 0.09634
# Poissons Ratio (z) = -0.25209 0.44003
#
# Static dielectric constant tensor:
#      x y z
#    x 1.779410 0.000000 0.000000 
#    y 0.000000 1.848200 0.000000 
#    z 0.000000 0.000000 1.837770 
# 
# From -- ./inp_files/38237.got.cif
#   From: 2010.05.17/outbox.cif.g08.bks.cpg/sg63_20_cif.got.tgz:38237.got - 2010.06.03 15:47:04.
