data_PCOD9468287
_publ_section_title
;
Structure prediction by ZEFSAII (Michael W. Deem and Ramdas Pophale) SiO2 
 PCOD9468287
Probable space group: C M C M
;
_chemical_formula_sum "Si O2"
_cell_formula_units_Z 80
_cell_length_a 27.275858
_cell_length_b 18.620264
_cell_length_c 8.571392
_cell_angle_alpha 90.000000
_cell_angle_beta 90.000000
_cell_angle_gamma 90.000000
_cell_volume 4353.270084
_symmetry_space_group_name_H-M "C M C M"
_symmetry_group_IT_number 63
_symmetry_cell_setting 'orthorhombic'
loop_
_space_group_symop_operation_xyz
x,y,z
-x,-y,1/2+z
x,-y,-z
-x,y,1/2-z
-x,-y,-z
x,y,1/2-z
-x,y,z
x,-y,1/2+z
1/2+x,1/2+y,z
1/2-x,1/2-y,1/2+z
1/2+x,1/2-y,-z
1/2-x,1/2+y,1/2-z
1/2-x,1/2-y,-z
1/2+x,1/2+y,1/2-z
1/2-x,1/2+y,z
1/2+x,1/2-y,1/2+z
loop_
_atom_site_type_symbol
_atom_site_label
_atom_site_fract_x
_atom_site_fract_y
_atom_site_fract_z
Si Si1 0.297672 0.581885 0.062925
Si Si2 0.905509 0.581459 0.436241
Si Si3 0.500000 0.669874 0.440265
Si Si4 0.905511 0.918818 0.561636
Si Si5 0.196897 0.582017 0.564134
Si Si6 0.000000 0.335940 0.437883
O O1 0.293126 0.580713 0.250000
O O2 0.351451 0.611334 0.019352
O O3 0.299255 0.500000 0.000000
O O4 0.248264 0.615507 0.992610
O O5 0.909732 0.500000 0.500000
O O6 0.904747 0.579128 0.250000
O O7 0.853800 0.612884 0.498055
O O8 0.951693 0.625496 0.497560
O O9 0.500000 0.667981 0.250000
O O10 0.451015 0.628825 0.493006
O O11 0.500000 0.752713 0.485905
O O12 0.906784 0.922004 0.750000
O O13 0.910268 0.000000 0.500000
O O14 0.197477 0.500000 0.500000
O O15 0.195370 0.580377 0.750000
O O16 0.000000 0.340436 0.250000
#
# Coordination Sequence:
#
# PCOD9468287 Si02
#       6
#    16  16   8  16  16   8
#     4   9  15  24  41  68 101 131 161 199 244 290
#     4  11  21  35  54  77 103 129 163 204 247 295
#     4   9  19  35  53  72  99 135 172 209 252 300
#     4   9  17  30  50  76 103 134 170 208 249 293
#     4  10  17  27  45  71 101 130 161 197 243 293
#     4  11  22  37  54  72  98 133 170 207 250 298
#
# _framework density 18.376991
#
# number of rings (size 3 to 8) (size 9 to 14) (size 15 to 20)
#    0.000    2.200    0.000    7.500    0.000    0.800 
#    0.000    2.000    0.000    1.200    0.000    0.000 
#    0.000    0.000    0.000    0.000    0.000    0.000 
#
# Total GULP energy -223027.640389 kJ/mol
# GULP energy per Si atom -5575.691010 kJ/mol
# Density = 1.833516 g / cm^3
# Si number density = 18.376991 Si / 1000 Ang^3
#
#
#
# Elastic Constant Matrix: (Units=GPa)
#
#
# Indices 1 2 3 4 5 6 
#
# 1 242.7997 68.8395 67.1998 0.0000 0.0000 0.0000
# 2 68.8395 53.9120 23.3476 0.0000 0.0000 0.0000
# 3 67.1998 23.3476 110.1739 0.0000 0.0000 0.0000
# 4 0.0000 0.0000 0.0000 11.1960 0.0000 0.0000
# 5 0.0000 0.0000 0.0000 0.0000 29.2191 0.0000
# 6 0.0000 0.0000 0.0000 0.0000 0.0000 -5.4742
#
#
#
# Elastic Compliance Matrix: (Units=1/GPa)
#
#
# Indices 1 2 3 4 5 6 
#
# 1 0.007096 -0.007912 -0.002651 0.000000 0.000000 0.000000
# 2 -0.007912 0.029246 -0.001372 0.000000 0.000000 0.000000
# 3 -0.002651 -0.001372 0.010984 0.000000 0.000000 0.000000
# 4 0.000000 0.000000 0.000000 0.089318 0.000000 0.000000
# 5 0.000000 0.000000 0.000000 0.000000 0.034224 0.000000
# 6 0.000000 0.000000 0.000000 0.000000 0.000000 -0.182674
#
#
# Mechanical properties :
#
#
# Convention : Reuss Voigt Hill
#
# Bulk Modulus (GPa) = 42.63375 80.62884 61.63130
# Shear Modulus (GPa) = 251.47100 23.48809 137.47954
#
# Velocity S-wave (km/s) = 11.71056 3.57897 8.65870
# Velocity P-wave (km/s) = 14.35617 7.81337 11.55743
#
# Compressibility (1/GPa) = 0.02345560
#
# Stress axis : x y z
#
# Youngs Moduli (GPa) = 140.92989 34.19292 91.03869
#
# Poissons Ratio (x) = 0.27054 0.24137
# Poissons Ratio (y) = 1.11507 0.12487
# Poissons Ratio (z) = 0.37364 0.04690
#
# Static dielectric constant tensor:
#      x y z
#    x 1.703590 0.000000 0.000000 
#    y 0.000000 1.591400 0.000000 
#    z 0.000000 0.000000 1.615090 
# 
# From -- ./inp_files/14084.got.cif
#   From: 2010.05.17/outbox.cif.g08.bks.cpg/sg63_8_cif.got.tgz:14084.got - 2010.06.03 15:47:04.
