data_PCOD9468126
_publ_section_title
;
Structure prediction by ZEFSAII (Michael W. Deem and Ramdas Pophale) SiO2 
 PCOD9468126
Probable space group: C M C M
;
_chemical_formula_sum "Si O2"
_cell_formula_units_Z 96
_cell_length_a 13.481621
_cell_length_b 23.992706
_cell_length_c 17.147947
_cell_angle_alpha 90.000000
_cell_angle_beta 90.000000
_cell_angle_gamma 90.000000
_cell_volume 5546.684695
_symmetry_space_group_name_H-M "C M C M"
_symmetry_group_IT_number 63
_symmetry_cell_setting 'orthorhombic'
loop_
_space_group_symop_operation_xyz
x,y,z
-x,-y,1/2+z
x,-y,-z
-x,y,1/2-z
-x,-y,-z
x,y,1/2-z
-x,y,z
x,-y,1/2+z
1/2+x,1/2+y,z
1/2-x,1/2-y,1/2+z
1/2+x,1/2-y,-z
1/2-x,1/2+y,1/2-z
1/2-x,1/2-y,-z
1/2+x,1/2+y,1/2-z
1/2-x,1/2+y,z
1/2+x,1/2-y,1/2+z
loop_
_atom_site_type_symbol
_atom_site_label
_atom_site_fract_x
_atom_site_fract_y
_atom_site_fract_z
Si Si1 0.299303 0.825169 0.502141
Si Si2 0.120250 0.767852 0.750000
Si Si3 0.880169 0.423587 0.089986
Si Si4 0.380089 0.140240 0.750000
Si Si5 0.119613 0.336934 0.663968
Si Si6 0.881913 0.218392 0.423525
Si Si7 0.879975 0.465247 0.661613
O O1 0.332230 0.886484 0.477139
O O2 0.344458 0.807714 0.585978
O O3 0.182448 0.817935 0.516340
O O4 0.345547 0.781562 0.440906
O O5 0.157289 0.703795 0.750000
O O6 0.144026 0.795347 0.833290
O O7 0.000000 0.764395 0.750000
O O8 0.854276 0.392779 0.171425
O O9 0.848272 0.487749 0.100579
O O10 0.000000 0.422090 0.079807
O O11 0.500000 0.142689 0.750000
O O12 0.150363 0.316201 0.750000
O O13 0.153441 0.401515 0.655498
O O14 0.000000 0.336845 0.663428
O O15 0.000000 0.214770 0.433779
O O16 0.856344 0.484039 0.750000
O O17 0.000000 0.463720 0.656658
#
# Coordination Sequence:
#
# PCOD9468126 Si02
#       7
#    16   8  16   8  16  16  16
#     4  11  21  30  47  71  92 121 151 191 235 276
#     4   9  16  30  50  65  82 114 150 193 236 264
#     4  10  16  25  44  71  98 122 152 187 228 273
#     4   9  14  22  42  67  92 118 144 187 234 268
#     4   9  18  31  44  63  98 136 159 176 213 278
#     4  10  21  35  49  68  92 117 153 199 239 271
#     4   8  14  25  42  65  96 130 155 182 221 266
#
# _framework density 17.307635999999999
#
# number of rings (size 3 to 8) (size 9 to 14) (size 15 to 20)
#    0.000    2.500    2.500    2.500    1.167    0.667 
#    0.000    2.500    0.000    0.000    0.000    2.333 
#    0.000    1.333    0.000    0.000    0.000    0.000 
#
# Total GULP energy -267352.027283 kJ/mol
# GULP energy per Si atom -5569.833902 kJ/mol
# Density = 1.726824 g / cm^3
# Si number density = 17.307636 Si / 1000 Ang^3
#
#
#
# Elastic Constant Matrix: (Units=GPa)
#
#
# Indices 1 2 3 4 5 6 
#
# 1 53.1391 -0.4735 20.3342 0.0000 0.0000 0.0000
# 2 -0.4735 20.0669 -1.5863 0.0000 0.0000 0.0000
# 3 20.3342 -1.5863 84.2904 0.0000 0.0000 0.0000
# 4 0.0000 0.0000 0.0000 26.2947 0.0000 0.0000
# 5 0.0000 0.0000 0.0000 0.0000 23.1972 0.0000
# 6 0.0000 0.0000 0.0000 0.0000 0.0000 5.6610
#
#
#
# Elastic Compliance Matrix: (Units=1/GPa)
#
#
# Indices 1 2 3 4 5 6 
#
# 1 0.020733 0.000094 -0.005000 0.000000 0.000000 0.000000
# 2 0.000094 0.049908 0.000917 0.000000 0.000000 0.000000
# 3 -0.005000 0.000917 0.013087 0.000000 0.000000 0.000000
# 4 0.000000 0.000000 0.000000 0.038030 0.000000 0.000000
# 5 0.000000 0.000000 0.000000 0.000000 0.043109 0.000000
# 6 0.000000 0.000000 0.000000 0.000000 0.000000 0.176649
#
#
# Mechanical properties :
#
#
# Convention : Reuss Voigt Hill
#
# Bulk Modulus (GPa) = 13.20147 21.56061 17.38104
# Shear Modulus (GPa) = 13.34245 20.31202 16.82724
#
# Velocity S-wave (km/s) = 2.77952 3.42948 3.12146
# Velocity P-wave (km/s) = 4.23616 5.30718 4.80162
#
# Compressibility (1/GPa) = 0.07574913
#
# Stress axis : x y z
#
# Youngs Moduli (GPa) = 48.23325 20.03690 76.41092
#
# Poissons Ratio (x) = -0.00188 0.38204
# Poissons Ratio (y) = -0.00453 -0.07003
# Poissons Ratio (z) = 0.24115 -0.01836
#
# Static dielectric constant tensor:
#      x y z
#    x 1.590150 0.000000 0.000000 
#    y 0.000000 1.617460 0.000000 
#    z 0.000000 0.000000 1.656040 
# 
# From -- ./inp_files/32457.got.cif
#   From: 2010.05.17/outbox.cif.g08.bks.cpg/sg63_17_cif.got.tgz:32457.got - 2010.06.03 15:47:04.
