data_PCOD9468999
_publ_section_title
;
Structure prediction by ZEFSAII (Michael W. Deem and Ramdas Pophale) SiO2 
 PCOD9468999
Probable space group: C M C M
;
_chemical_formula_sum "Si O2"
_cell_formula_units_Z 104
_cell_length_a 10.077736
_cell_length_b 21.063246
_cell_length_c 27.067547
_cell_angle_alpha 90.000000
_cell_angle_beta 90.000000
_cell_angle_gamma 90.000000
_cell_volume 5745.623668
_symmetry_space_group_name_H-M "C M C M"
_symmetry_group_IT_number 63
_symmetry_cell_setting 'orthorhombic'
loop_
_space_group_symop_operation_xyz
x,y,z
-x,-y,1/2+z
x,-y,-z
-x,y,1/2-z
-x,-y,-z
x,y,1/2-z
-x,y,z
x,-y,1/2+z
1/2+x,1/2+y,z
1/2-x,1/2-y,1/2+z
1/2+x,1/2-y,-z
1/2-x,1/2+y,1/2-z
1/2-x,1/2-y,-z
1/2+x,1/2+y,1/2-z
1/2-x,1/2+y,z
1/2+x,1/2-y,1/2+z
loop_
_atom_site_type_symbol
_atom_site_label
_atom_site_fract_x
_atom_site_fract_y
_atom_site_fract_z
Si Si1 0.346399 0.743165 0.307950
Si Si2 0.259833 0.000000 0.500000
Si Si3 0.844742 0.921964 0.589469
Si Si4 0.853179 0.682981 0.448430
Si Si5 0.346746 0.690829 0.884614
Si Si6 0.340808 0.591745 0.195913
Si Si7 0.353800 0.125234 0.949054
O O1 0.339622 0.759839 0.250000
O O2 0.500000 0.752292 0.324526
O O3 0.240535 0.782181 0.339517
O O4 0.317657 0.667434 0.310905
O O5 0.177682 0.972601 0.546178
O O6 0.341404 0.941199 0.477936
O O7 0.760868 0.860556 0.574000
O O8 0.798592 0.941209 0.644797
O O9 0.000000 0.906154 0.592043
O O10 0.848997 0.751912 0.424527
O O11 0.842940 0.678071 0.507548
O O12 0.000000 0.655914 0.436106
O O13 0.500000 0.675621 0.872396
O O14 0.264599 0.634801 0.910679
O O15 0.286137 0.572805 0.250000
O O16 0.500000 0.583807 0.198875
O O17 0.500000 0.130725 0.926203
#
# Coordination Sequence:
#
# PCOD9468999 Si02
#       7
#    16   8  16  16  16  16  16
#     4   9  17  31  52  77 106 140 177 210 249 316
#     4  10  22  36  52  78 102 132 180 232 282 316
#     4  10  18  30  52  76 103 136 172 219 267 320
#     4   9  19  33  48  73 106 137 168 207 258 316
#     4  11  21  32  50  79 111 137 166 214 267 313
#     4   8  14  26  47  75 102 131 169 210 253 307
#     4  10  21  37  55  71  96 138 181 216 257 317
#
# _framework density 18.100733000000002
#
# number of rings (size 3 to 8) (size 9 to 14) (size 15 to 20)
#    0.000    2.462    1.538    2.308    0.000    4.615 
#    0.000    0.000    0.000    1.385    0.000    2.154 
#    0.000    0.000    0.000    0.000    0.000    0.000 
#
# Total GULP energy -289570.734341 kJ/mol
# GULP energy per Si atom -5568.667968 kJ/mol
# Density = 1.805953 g / cm^3
# Si number density = 18.100733 Si / 1000 Ang^3
#
#
#
# Elastic Constant Matrix: (Units=GPa)
#
#
# Indices 1 2 3 4 5 6 
#
# 1 110.5130 21.1949 51.6058 0.0000 0.0000 0.0000
# 2 21.1949 32.1782 23.1752 0.0000 0.0000 0.0000
# 3 51.6058 23.1752 103.0413 0.0000 0.0000 0.0000
# 4 0.0000 0.0000 0.0000 25.1157 0.0000 0.0000
# 5 0.0000 0.0000 0.0000 0.0000 22.8640 0.0000
# 6 0.0000 0.0000 0.0000 0.0000 0.0000 7.4078
#
#
#
# Elastic Compliance Matrix: (Units=1/GPa)
#
#
# Indices 1 2 3 4 5 6 
#
# 1 0.012306 -0.004376 -0.005179 0.000000 0.000000 0.000000
# 2 -0.004376 0.038640 -0.006499 0.000000 0.000000 0.000000
# 3 -0.005179 -0.006499 0.013760 0.000000 0.000000 0.000000
# 4 0.000000 0.000000 0.000000 0.039816 0.000000 0.000000
# 5 0.000000 0.000000 0.000000 0.000000 0.043737 0.000000
# 6 0.000000 0.000000 0.000000 0.000000 0.000000 0.134994
#
#
# Mechanical properties :
#
#
# Convention : Reuss Voigt Hill
#
# Bulk Modulus (GPa) = 30.67610 48.63159 39.65385
# Shear Modulus (GPa) = 15.32674 21.06126 18.19400
#
# Velocity S-wave (km/s) = 2.91305 3.41480 3.17385
# Velocity P-wave (km/s) = 5.31965 6.51716 5.94861
#
# Compressibility (1/GPa) = 0.03259867
#
# Stress axis : x y z
#
# Youngs Moduli (GPa) = 81.25817 25.87998 72.67199
#
# Poissons Ratio (x) = 0.11325 0.37639
# Poissons Ratio (y) = 0.35557 0.47230
# Poissons Ratio (z) = 0.42086 0.16820
#
# Static dielectric constant tensor:
#      x y z
#    x 1.628630 0.000000 0.000000 
#    y 0.000000 1.617770 0.000000 
#    z 0.000000 0.000000 1.659700 
# 
# From -- ./inp_files/71907.got.cif
#   From: 2010.05.17/outbox.cif.g08.bks.cpg/sg63_36_cif.got.tgz:71907.got - 2010.06.03 15:47:04.
