data_PCOD9468597
_publ_section_title
;
Structure prediction by ZEFSAII (Michael W. Deem and Ramdas Pophale) SiO2 
 PCOD9468597
Probable space group: C M C M
;
_chemical_formula_sum "Si O2"
_cell_formula_units_Z 96
_cell_length_a 9.489398
_cell_length_b 28.739018
_cell_length_c 21.015720
_cell_angle_alpha 90.000000
_cell_angle_beta 90.000000
_cell_angle_gamma 90.000000
_cell_volume 5731.322674
_symmetry_space_group_name_H-M "C M C M"
_symmetry_group_IT_number 63
_symmetry_cell_setting 'orthorhombic'
loop_
_space_group_symop_operation_xyz
x,y,z
-x,-y,1/2+z
x,-y,-z
-x,y,1/2-z
-x,-y,-z
x,y,1/2-z
-x,y,z
x,-y,1/2+z
1/2+x,1/2+y,z
1/2-x,1/2-y,1/2+z
1/2+x,1/2-y,-z
1/2-x,1/2+y,1/2-z
1/2-x,1/2-y,-z
1/2+x,1/2+y,1/2-z
1/2-x,1/2+y,z
1/2+x,1/2-y,1/2+z
loop_
_atom_site_type_symbol
_atom_site_label
_atom_site_fract_x
_atom_site_fract_y
_atom_site_fract_z
Si Si1 0.160968 0.562763 0.113157
Si Si2 0.828977 0.753173 0.677466
Si Si3 0.338666 0.105150 0.970894
Si Si4 0.338321 0.521573 0.928181
Si Si5 0.841128 0.142660 0.325964
Si Si6 0.170165 0.287442 0.043961
O O1 0.246607 0.514765 0.112028
O O2 0.240995 0.601632 0.153001
O O3 0.000000 0.555864 0.133289
O O4 0.159571 0.583331 0.041452
O O5 0.779914 0.742747 0.750000
O O6 0.786683 0.805722 0.657895
O O7 0.791143 0.720600 0.618355
O O8 0.000000 0.754055 0.680742
O O9 0.500000 0.102947 0.946257
O O10 0.235609 0.071724 0.931622
O O11 0.296546 0.159173 0.973723
O O12 0.500000 0.524149 0.907153
O O13 0.338659 0.500000 0.000000
O O14 0.851769 0.142779 0.250000
O O15 0.000000 0.136474 0.352589
O O16 0.000000 0.281088 0.037605
O O17 0.250000 0.250000 0.000000
#
# Coordination Sequence:
#
# PCOD9468597 Si02
#       6
#    16  16  16  16  16  16
#     4  10  18  28  44  65  92 120 145 181 230 282
#     4   8  15  29  48  68  91 124 163 195 225 269
#     4   9  18  30  43  65  95 122 148 185 235 278
#     4   9  17  29  46  66  86 114 152 186 220 272
#     4   9  17  29  45  65  89 117 151 189 225 265
#     4  10  19  30  47  71  98 125 156 197 240 282
#
# _framework density 16.750060000000001
#
# number of rings (size 3 to 8) (size 9 to 14) (size 15 to 20)
#    0.000    2.833    0.000    3.000    0.000    3.667 
#    0.000    0.000    0.000    2.500    0.000    2.333 
#    0.000    0.000    0.000    0.000    0.000    0.000 
#
# Total GULP energy -267291.553421 kJ/mol
# GULP energy per Si atom -5568.574030 kJ/mol
# Density = 1.671194 g / cm^3
# Si number density = 16.750060 Si / 1000 Ang^3
#
#
#
# Elastic Constant Matrix: (Units=GPa)
#
#
# Indices 1 2 3 4 5 6 
#
# 1 77.3270 57.3920 8.6212 0.0000 0.0000 0.0000
# 2 57.3920 117.2029 19.7544 0.0000 0.0000 0.0000
# 3 8.6212 19.7544 24.5277 0.0000 0.0000 0.0000
# 4 0.0000 0.0000 0.0000 24.9377 0.0000 0.0000
# 5 0.0000 0.0000 0.0000 0.0000 13.8239 0.0000
# 6 0.0000 0.0000 0.0000 0.0000 0.0000 25.5859
#
#
#
# Elastic Compliance Matrix: (Units=1/GPa)
#
#
# Indices 1 2 3 4 5 6 
#
# 1 0.020337 -0.010129 0.001009 0.000000 0.000000 0.000000
# 2 -0.010129 0.014917 -0.008454 0.000000 0.000000 0.000000
# 3 0.001009 -0.008454 0.047224 0.000000 0.000000 0.000000
# 4 0.000000 0.000000 0.000000 0.040100 0.000000 0.000000
# 5 0.000000 0.000000 0.000000 0.000000 0.072338 0.000000
# 6 0.000000 0.000000 0.000000 0.000000 0.000000 0.039084
#
#
# Mechanical properties :
#
#
# Convention : Reuss Voigt Hill
#
# Bulk Modulus (GPa) = 21.12749 43.39920 32.26335
# Shear Modulus (GPa) = 17.54851 21.75551 19.65201
#
# Velocity S-wave (km/s) = 3.24028 3.60784 3.42899
# Velocity P-wave (km/s) = 5.16140 6.58191 5.91445
#
# Compressibility (1/GPa) = 0.04733169
#
# Stress axis : x y z
#
# Youngs Moduli (GPa) = 49.17104 67.03756 21.17562
#
# Poissons Ratio (x) = 0.67901 -0.02137
# Poissons Ratio (y) = 0.49805 0.17902
# Poissons Ratio (z) = -0.04963 0.56673
#
# Static dielectric constant tensor:
#      x y z
#    x 1.579110 0.000000 0.000000 
#    y 0.000000 1.571640 0.000000 
#    z 0.000000 0.000000 1.574410 
# 
# From -- ./inp_files/51355.got.cif
#   From: 2010.05.17/outbox.cif.g08.bks.cpg/sg63_26_cif.got.tgz:51355.got - 2010.06.03 15:47:04.
