data_PCOD9468140
_publ_section_title
;
Structure prediction by ZEFSAII (Michael W. Deem and Ramdas Pophale) SiO2 
 PCOD9468140
Probable space group: C M C M
;
_chemical_formula_sum "Si O2"
_cell_formula_units_Z 80
_cell_length_a 11.418568
_cell_length_b 14.491876
_cell_length_c 22.638730
_cell_angle_alpha 90.000000
_cell_angle_beta 90.000000
_cell_angle_gamma 90.000000
_cell_volume 3746.177161
_symmetry_space_group_name_H-M "C M C M"
_symmetry_group_IT_number 63
_symmetry_cell_setting 'orthorhombic'
loop_
_space_group_symop_operation_xyz
x,y,z
-x,-y,1/2+z
x,-y,-z
-x,y,1/2-z
-x,-y,-z
x,y,1/2-z
-x,y,z
x,-y,1/2+z
1/2+x,1/2+y,z
1/2-x,1/2-y,1/2+z
1/2+x,1/2-y,-z
1/2-x,1/2+y,1/2-z
1/2-x,1/2-y,-z
1/2+x,1/2+y,1/2-z
1/2-x,1/2+y,z
1/2+x,1/2-y,1/2+z
loop_
_atom_site_type_symbol
_atom_site_label
_atom_site_fract_x
_atom_site_fract_y
_atom_site_fract_z
Si Si1 0.136498 0.022189 0.680852
Si Si2 0.246900 0.165324 0.903826
Si Si3 0.125200 0.889919 0.514128
Si Si4 0.135977 0.197391 0.319101
Si Si5 0.124708 0.609280 0.013385
O O1 0.160855 0.042510 0.750000
O O2 0.219523 0.076118 0.636166
O O3 0.000000 0.047484 0.669314
O O4 0.145605 0.912542 0.672538
O O5 0.275273 0.245146 0.858541
O O6 0.355835 0.154647 0.948966
O O7 0.141934 0.165104 0.952291
O O8 0.250497 0.871789 0.544588
O O9 0.000000 0.867857 0.541916
O O10 0.123728 0.000000 0.500000
O O11 0.158442 0.215835 0.250000
O O12 0.000000 0.223490 0.330490
O O13 0.000000 0.634512 0.040281
O O14 0.123193 0.500000 0.000000
#
# Coordination Sequence:
#
# PCOD9468140 Si02
#       5
#    16  16  16  16  16
#     4   9  18  31  46  68  98 129 164 204 242 287
#     4  10  16  26  50  72  92 122 162 202 234 286
#     4   8  15  26  43  69  98 124 154 195 242 289
#     4   9  18  31  46  68  98 129 164 204 242 287
#     4   8  15  26  43  69  98 124 154 195 242 289
#
# _framework density 21.355104000000001
#
# number of rings (size 3 to 8) (size 9 to 14) (size 15 to 20)
#    1.200    2.000    0.000    3.000    0.000    0.000 
#    0.000    0.000    0.000    9.600    0.000   19.600 
#    0.000    0.000    0.000    0.000    0.000    0.000 
#
# Total GULP energy -222844.247099 kJ/mol
# GULP energy per Si atom -5571.106177 kJ/mol
# Density = 2.130650 g / cm^3
# Si number density = 21.355104 Si / 1000 Ang^3
#
#
#
# Elastic Constant Matrix: (Units=GPa)
#
#
# Indices 1 2 3 4 5 6 
#
# 1 156.4022 22.0219 27.2089 0.0000 0.0000 0.0000
# 2 22.0219 59.5418 31.1219 0.0000 0.0000 0.0000
# 3 27.2089 31.1219 86.9566 0.0000 0.0000 0.0000
# 4 0.0000 0.0000 0.0000 42.3486 0.0000 0.0000
# 5 0.0000 0.0000 0.0000 0.0000 15.7695 0.0000
# 6 0.0000 0.0000 0.0000 0.0000 0.0000 226.1064
#
#
#
# Elastic Compliance Matrix: (Units=1/GPa)
#
#
# Indices 1 2 3 4 5 6 
#
# 1 0.006907 -0.001753 -0.001534 0.000000 0.000000 0.000000
# 2 -0.001753 0.021105 -0.007005 0.000000 0.000000 0.000000
# 3 -0.001534 -0.007005 0.014487 0.000000 0.000000 0.000000
# 4 0.000000 0.000000 0.000000 0.023614 0.000000 0.000000
# 5 0.000000 0.000000 0.000000 0.000000 0.063413 0.000000
# 6 0.000000 0.000000 0.000000 0.000000 0.000000 0.004423
#
#
# Mechanical properties :
#
#
# Convention : Reuss Voigt Hill
#
# Bulk Modulus (GPa) = 45.62981 51.51178 48.57080
# Shear Modulus (GPa) = 30.89517 71.68143 51.28830
#
# Velocity S-wave (km/s) = 3.80772 5.79994 4.90602
# Velocity P-wave (km/s) = 6.38320 8.30821 7.40849
#
# Compressibility (1/GPa) = 0.02191550
#
# Stress axis : x y z
#
# Youngs Moduli (GPa) = 144.77110 47.38288 69.02723
#
# Poissons Ratio (x) = 0.08306 0.10589
# Poissons Ratio (y) = 0.25378 0.48353
# Poissons Ratio (z) = 0.22207 0.33191
#
# Static dielectric constant tensor:
#      x y z
#    x 1.814990 0.000000 0.000000 
#    y 0.000000 1.809140 0.000000 
#    z 0.000000 0.000000 1.754830 
# 
# From -- ./inp_files/61135.got.cif
#   From: 2010.05.17/outbox.cif.g08.bks.cpg/sg63_31_cif.got.tgz:61135.got - 2010.06.03 15:47:04.
