data_PCOD9468782
_publ_section_title
;
Structure prediction by ZEFSAII (Michael W. Deem and Ramdas Pophale) SiO2 
 PCOD9468782
Probable space group: C M C M
;
_chemical_formula_sum "Si O2"
_cell_formula_units_Z 96
_cell_length_a 17.590536
_cell_length_b 11.698143
_cell_length_c 21.952814
_cell_angle_alpha 90.000000
_cell_angle_beta 90.000000
_cell_angle_gamma 90.000000
_cell_volume 4517.375548
_symmetry_space_group_name_H-M "C M C M"
_symmetry_group_IT_number 63
_symmetry_cell_setting 'orthorhombic'
loop_
_space_group_symop_operation_xyz
x,y,z
-x,-y,1/2+z
x,-y,-z
-x,y,1/2-z
-x,-y,-z
x,y,1/2-z
-x,y,z
x,-y,1/2+z
1/2+x,1/2+y,z
1/2-x,1/2-y,1/2+z
1/2+x,1/2-y,-z
1/2-x,1/2+y,1/2-z
1/2-x,1/2-y,-z
1/2+x,1/2+y,1/2-z
1/2-x,1/2+y,z
1/2+x,1/2-y,1/2+z
loop_
_atom_site_type_symbol
_atom_site_label
_atom_site_fract_x
_atom_site_fract_y
_atom_site_fract_z
Si Si1 0.911704 0.081711 0.440021
Si Si2 0.683347 0.405993 0.386483
Si Si3 0.839170 0.733232 0.013800
Si Si4 0.239021 0.220644 0.318688
Si Si5 0.912169 0.359417 0.177852
Si Si6 0.326401 0.036620 0.095891
O O1 0.882740 0.206966 0.458725
O O2 0.000000 0.084175 0.428614
O O3 0.897484 0.000000 0.500000
O O4 0.868985 0.016889 0.385503
O O5 0.642244 0.311982 0.427635
O O6 0.713350 0.339195 0.327852
O O7 0.760072 0.447296 0.420756
O O8 0.856070 0.607312 0.038166
O O9 0.750000 0.750000 0.000000
O O10 0.244376 0.178259 0.250000
O O11 0.152285 0.261418 0.330497
O O12 0.279154 0.129027 0.362916
O O13 0.907351 0.390639 0.250000
O O14 0.886749 0.466349 0.135695
O O15 0.000000 0.326608 0.165547
#
# Coordination Sequence:
#
# PCOD9468782 Si02
#       6
#    16  16  16  16  16  16
#     4   9  17  30  47  69  97 131 167 205 250 296
#     4   9  18  31  49  72  96 131 167 209 250 299
#     4  10  18  29  49  73 100 133 173 213 249 298
#     4   9  18  32  51  75  98 126 169 211 252 311
#     4   9  18  33  52  75 104 134 168 217 269 312
#     4  10  18  30  51  74  99 134 172 207 254 307
#
# _framework density 21.251277999999999
#
# number of rings (size 3 to 8) (size 9 to 14) (size 15 to 20)
#    0.000    2.667    1.667    0.500    0.000    1.333 
#    0.000    3.333    0.000    1.500    0.000    4.667 
#    0.000    0.000    0.000    0.000    0.000    0.000 
#
# Total GULP energy -267565.584824 kJ/mol
# GULP energy per Si atom -5574.283017 kJ/mol
# Density = 2.120291 g / cm^3
# Si number density = 21.251278 Si / 1000 Ang^3
#
#
#
# Elastic Constant Matrix: (Units=GPa)
#
#
# Indices 1 2 3 4 5 6 
#
# 1 88.6128 15.7056 18.3503 0.0000 0.0000 0.0000
# 2 15.7056 100.0835 37.2986 0.0000 0.0000 0.0000
# 3 18.3503 37.2986 60.0995 0.0000 0.0000 0.0000
# 4 0.0000 0.0000 0.0000 38.7182 0.0000 0.0000
# 5 0.0000 0.0000 0.0000 0.0000 25.7293 0.0000
# 6 0.0000 0.0000 0.0000 0.0000 0.0000 22.7195
#
#
#
# Elastic Compliance Matrix: (Units=1/GPa)
#
#
# Indices 1 2 3 4 5 6 
#
# 1 0.012082 -0.000678 -0.003268 0.000000 0.000000 0.000000
# 2 -0.000678 0.013036 -0.007883 0.000000 0.000000 0.000000
# 3 -0.003268 -0.007883 0.022529 0.000000 0.000000 0.000000
# 4 0.000000 0.000000 0.000000 0.025828 0.000000 0.000000
# 5 0.000000 0.000000 0.000000 0.000000 0.038866 0.000000
# 6 0.000000 0.000000 0.000000 0.000000 0.000000 0.044015
#
#
# Mechanical properties :
#
#
# Convention : Reuss Voigt Hill
#
# Bulk Modulus (GPa) = 41.68683 43.50051 42.59367
# Shear Modulus (GPa) = 26.59411 29.26282 27.92847
#
# Velocity S-wave (km/s) = 3.54137 3.71481 3.62912
# Velocity P-wave (km/s) = 6.03162 6.23809 6.13572
#
# Compressibility (1/GPa) = 0.02398839
#
# Stress axis : x y z
#
# Youngs Moduli (GPa) = 82.76765 76.71099 44.38632
#
# Poissons Ratio (x) = 0.05201 0.14507
# Poissons Ratio (y) = 0.05611 0.34991
# Poissons Ratio (z) = 0.27051 0.60473
#
# Static dielectric constant tensor:
#      x y z
#    x 1.728910 0.000000 0.000000 
#    y 0.000000 1.861040 0.000000 
#    z 0.000000 0.000000 1.788580 
# 
# From -- ./inp_files/69872.got.cif
#   From: 2010.05.17/outbox.cif.g08.bks.cpg/sg63_35_cif.got.tgz:69872.got - 2010.06.03 15:47:04.
