data_PCOD9468218
_publ_section_title
;
Structure prediction by ZEFSAII (Michael W. Deem and Ramdas Pophale) SiO2 
 PCOD9468218
Probable space group: C M C M
;
_chemical_formula_sum "Si O2"
_cell_formula_units_Z 80
_cell_length_a 26.278860
_cell_length_b 9.512581
_cell_length_c 17.249522
_cell_angle_alpha 90.000000
_cell_angle_beta 90.000000
_cell_angle_gamma 90.000000
_cell_volume 4312.031789
_symmetry_space_group_name_H-M "C M C M"
_symmetry_group_IT_number 63
_symmetry_cell_setting 'orthorhombic'
loop_
_space_group_symop_operation_xyz
x,y,z
-x,-y,1/2+z
x,-y,-z
-x,y,1/2-z
-x,-y,-z
x,y,1/2-z
-x,y,z
x,-y,1/2+z
1/2+x,1/2+y,z
1/2-x,1/2-y,1/2+z
1/2+x,1/2-y,-z
1/2-x,1/2+y,1/2-z
1/2-x,1/2-y,-z
1/2+x,1/2+y,1/2-z
1/2-x,1/2+y,z
1/2+x,1/2-y,1/2+z
loop_
_atom_site_type_symbol
_atom_site_label
_atom_site_fract_x
_atom_site_fract_y
_atom_site_fract_z
Si Si1 0.500000 0.824822 0.839982
Si Si2 0.198076 0.845784 0.656184
Si Si3 0.000000 0.397305 0.421318
Si Si4 0.794140 0.835136 0.342346
Si Si5 0.388928 0.166057 0.916487
Si Si6 0.111846 0.661816 0.098775
O O1 0.500000 0.783723 0.750000
O O2 0.554279 0.787456 0.880122
O O3 0.500000 0.993436 0.850710
O O4 0.198767 0.847720 0.750000
O O5 0.245774 0.752587 0.627864
O O6 0.146468 0.772382 0.628729
O O7 0.203085 0.005730 0.627425
O O8 0.000000 0.500000 0.500000
O O9 0.050701 0.308160 0.416402
O O10 0.787305 0.845502 0.250000
O O11 0.845895 0.751408 0.357927
O O12 0.383408 0.005777 0.884965
O O13 0.376618 0.171873 0.007556
#
# Coordination Sequence:
#
# PCOD9468218 Si02
#       6
#     8  16   8  16  16  16
#     4  10  18  30  55  87 111 145 191 229 271 332
#     4  10  22  38  56  80 109 146 192 237 287 342
#     4  10  16  36  55  81 118 151 179 230 277 327
#     4  10  21  38  57  79 112 148 188 242 289 335
#     4  10  19  34  58  82 112 149 183 233 280 335
#     4  10  19  34  56  83 113 146 185 229 283 336
#
# _framework density 18.552738999999999
#
# number of rings (size 3 to 8) (size 9 to 14) (size 15 to 20)
#    0.000    2.000    4.000    1.800    0.000    7.200 
#    0.000    1.000    0.000    4.800    0.000    0.000 
#    0.000    0.000    0.000    0.000    0.000    0.000 
#
# Total GULP energy -222894.721770 kJ/mol
# GULP energy per Si atom -5572.368044 kJ/mol
# Density = 1.851051 g / cm^3
# Si number density = 18.552739 Si / 1000 Ang^3
#
#
#
# Elastic Constant Matrix: (Units=GPa)
#
#
# Indices 1 2 3 4 5 6 
#
# 1 124.7425 63.1660 20.6632 0.0000 0.0000 0.0000
# 2 63.1660 106.2493 27.0174 0.0000 0.0000 0.0000
# 3 20.6632 27.0174 23.8556 0.0000 0.0000 0.0000
# 4 0.0000 0.0000 0.0000 23.6097 0.0000 0.0000
# 5 0.0000 0.0000 0.0000 0.0000 76.6958 0.0000
# 6 0.0000 0.0000 0.0000 0.0000 0.0000 23.4090
#
#
#
# Elastic Compliance Matrix: (Units=1/GPa)
#
#
# Indices 1 2 3 4 5 6 
#
# 1 0.011636 -0.006116 -0.003152 0.000000 0.000000 0.000000
# 2 -0.006116 0.016433 -0.013314 0.000000 0.000000 0.000000
# 3 -0.003152 -0.013314 0.059727 0.000000 0.000000 0.000000
# 4 0.000000 0.000000 0.000000 0.042355 0.000000 0.000000
# 5 0.000000 0.000000 0.000000 0.000000 0.013039 0.000000
# 6 0.000000 0.000000 0.000000 0.000000 0.000000 0.042719
#
#
# Mechanical properties :
#
#
# Convention : Reuss Voigt Hill
#
# Bulk Modulus (GPa) = 23.45613 52.94895 38.20254
# Shear Modulus (GPa) = 20.38463 34.34295 27.36379
#
# Velocity S-wave (km/s) = 3.31832 4.30711 3.84463
# Velocity P-wave (km/s) = 5.22992 7.30319 6.35172
#
# Compressibility (1/GPa) = 0.04263277
#
# Stress axis : x y z
#
# Youngs Moduli (GPa) = 85.94345 60.85225 16.74278
#
# Poissons Ratio (x) = 0.37217 0.05277
# Poissons Ratio (y) = 0.52562 0.22291
# Poissons Ratio (z) = 0.27089 0.81017
#
# Static dielectric constant tensor:
#      x y z
#    x 1.657280 0.000000 0.000000 
#    y 0.000000 1.632200 0.000000 
#    z 0.000000 0.000000 1.675370 
# 
# From -- ./inp_files/57266.got.cif
#   From: 2010.05.17/outbox.cif.g08.bks.cpg/sg63_29_cif.got.tgz:57266.got - 2010.06.03 15:47:04.
