data_PCOD9468540
_publ_section_title
;
Structure prediction by ZEFSAII (Michael W. Deem and Ramdas Pophale) SiO2 
 PCOD9468540
Probable space group: C M C M
;
_chemical_formula_sum "Si O2"
_cell_formula_units_Z 80
_cell_length_a 16.658016
_cell_length_b 30.001020
_cell_length_c 7.381838
_cell_angle_alpha 90.000000
_cell_angle_beta 90.000000
_cell_angle_gamma 90.000000
_cell_volume 3689.128692
_symmetry_space_group_name_H-M "C M C M"
_symmetry_group_IT_number 63
_symmetry_cell_setting 'orthorhombic'
loop_
_space_group_symop_operation_xyz
x,y,z
-x,-y,1/2+z
x,-y,-z
-x,y,1/2-z
-x,-y,-z
x,y,1/2-z
-x,y,z
x,-y,1/2+z
1/2+x,1/2+y,z
1/2-x,1/2-y,1/2+z
1/2+x,1/2-y,-z
1/2-x,1/2+y,1/2-z
1/2-x,1/2-y,-z
1/2+x,1/2+y,1/2-z
1/2-x,1/2+y,z
1/2+x,1/2-y,1/2+z
loop_
_atom_site_type_symbol
_atom_site_label
_atom_site_fract_x
_atom_site_fract_y
_atom_site_fract_z
Si Si1 0.716228 0.631311 0.044019
Si Si2 0.662927 0.209152 0.532804
Si Si3 0.500000 0.841653 0.035012
Si Si4 0.678480 0.950790 0.533426
Si Si5 0.406841 0.301640 0.527804
Si Si6 0.000000 0.441412 0.952170
O O1 0.697585 0.617715 0.250000
O O2 0.766860 0.590082 0.963375
O O3 0.634381 0.652260 0.966372
O O4 0.773443 0.674827 0.046886
O O5 0.675452 0.209869 0.750000
O O6 0.577934 0.186419 0.493882
O O7 0.649127 0.259835 0.469938
O O8 0.500000 0.850917 0.250000
O O9 0.500000 0.888365 0.938841
O O10 0.670555 0.943608 0.750000
O O11 0.586659 0.951319 0.460970
O O12 0.713053 0.000000 0.500000
O O13 0.406260 0.300784 0.750000
O O14 0.500000 0.296536 0.474067
O O15 0.000000 0.461840 0.750000
#
# Coordination Sequence:
#
# PCOD9468540 Si02
#       6
#    16  16   8  16  16   8
#     4  10  20  33  51  74  99 127 162 203 246 286
#     4  10  18  30  49  73 102 135 167 194 228 278
#     4  10  18  27  45  72 101 136 167 189 225 277
#     4  10  21  34  49  70  94 125 161 200 245 290
#     4   9  17  31  51  74 100 130 164 200 235 282
#     4  10  19  33  49  68 100 130 158 199 241 281
#
# _framework density 21.685336
#
# number of rings (size 3 to 8) (size 9 to 14) (size 15 to 20)
#    0.000    2.200    3.000    0.900    0.000    1.600 
#    0.000    0.000    0.000    2.400    0.000    0.000 
#    0.000    0.000    0.000    0.000    0.000    0.000 
#
# Total GULP energy -223188.787363 kJ/mol
# GULP energy per Si atom -5579.719684 kJ/mol
# Density = 2.163598 g / cm^3
# Si number density = 21.685336 Si / 1000 Ang^3
#
#
#
# Elastic Constant Matrix: (Units=GPa)
#
#
# Indices 1 2 3 4 5 6 
#
# 1 52.6000 56.1163 -1.7661 0.0000 0.0000 0.0000
# 2 56.1163 167.9197 6.0319 0.0000 0.0000 0.0000
# 3 -1.7661 6.0319 60.2752 0.0000 0.0000 0.0000
# 4 0.0000 0.0000 0.0000 5.6005 0.0000 0.0000
# 5 0.0000 0.0000 0.0000 0.0000 3.2971 0.0000
# 6 0.0000 0.0000 0.0000 0.0000 0.0000 32.0657
#
#
#
# Elastic Compliance Matrix: (Units=1/GPa)
#
#
# Indices 1 2 3 4 5 6 
#
# 1 0.029754 -0.010011 0.001874 0.000000 0.000000 0.000000
# 2 -0.010011 0.009345 -0.001228 0.000000 0.000000 0.000000
# 3 0.001874 -0.001228 0.016768 0.000000 0.000000 0.000000
# 4 0.000000 0.000000 0.000000 0.178555 0.000000 0.000000
# 5 0.000000 0.000000 0.000000 0.000000 0.303295 0.000000
# 6 0.000000 0.000000 0.000000 0.000000 0.000000 0.031186
#
#
# Mechanical properties :
#
#
# Convention : Reuss Voigt Hill
#
# Bulk Modulus (GPa) = 26.92781 44.61767 35.77274
# Shear Modulus (GPa) = 8.33315 22.88684 15.61000
#
# Velocity S-wave (km/s) = 1.96242 3.25223 2.68590
# Velocity P-wave (km/s) = 4.19277 5.89257 5.11379
#
# Compressibility (1/GPa) = 0.03713632
#
# Stress axis : x y z
#
# Youngs Moduli (GPa) = 33.60856 107.01122 59.63594
#
# Poissons Ratio (x) = 1.07127 -0.11174
# Poissons Ratio (y) = 0.33645 0.07326
# Poissons Ratio (z) = -0.06297 0.13146
#
# Static dielectric constant tensor:
#      x y z
#    x 1.795030 0.000000 0.000000 
#    y 0.000000 1.785230 0.000000 
#    z 0.000000 0.000000 1.822220 
# 
# From -- ./inp_files/6469.got.cif
#   From: 2010.05.17/outbox.cif.g08.bks.cpg/sg63_4_cif.got.tgz:6469.got - 2010.06.03 15:47:04.
