data_PCOD9468510
_publ_section_title
;
Structure prediction by ZEFSAII (Michael W. Deem and Ramdas Pophale) SiO2 
 PCOD9468510
Probable space group: C M C M
;
_chemical_formula_sum "Si O2"
_cell_formula_units_Z 96
_cell_length_a 8.616769
_cell_length_b 27.726630
_cell_length_c 23.620183
_cell_angle_alpha 90.000000
_cell_angle_beta 90.000000
_cell_angle_gamma 90.000000
_cell_volume 5643.191595
_symmetry_space_group_name_H-M "C M C M"
_symmetry_group_IT_number 63
_symmetry_cell_setting 'orthorhombic'
loop_
_space_group_symop_operation_xyz
x,y,z
-x,-y,1/2+z
x,-y,-z
-x,y,1/2-z
-x,-y,-z
x,y,1/2-z
-x,y,z
x,-y,1/2+z
1/2+x,1/2+y,z
1/2-x,1/2-y,1/2+z
1/2+x,1/2-y,-z
1/2-x,1/2+y,1/2-z
1/2-x,1/2-y,-z
1/2+x,1/2+y,1/2-z
1/2-x,1/2+y,z
1/2+x,1/2-y,1/2+z
loop_
_atom_site_type_symbol
_atom_site_label
_atom_site_fract_x
_atom_site_fract_y
_atom_site_fract_z
Si Si1 0.312652 0.444480 0.501126
Si Si2 0.176610 0.300738 0.487859
Si Si3 0.815029 0.694938 0.684756
Si Si4 0.676262 0.126804 0.407963
Si Si5 0.187626 0.298971 0.683559
Si Si6 0.819519 0.126906 0.904505
O O1 0.262818 0.500000 0.500000
O O2 0.500000 0.442542 0.500023
O O3 0.259363 0.416179 0.557689
O O4 0.257875 0.417094 0.443592
O O5 0.250000 0.250000 0.500000
O O6 0.168776 0.331017 0.545319
O O7 0.292032 0.328555 0.446696
O O8 0.000000 0.298275 0.464605
O O9 0.763060 0.691148 0.750000
O O10 0.748321 0.746519 0.663156
O O11 0.763218 0.647249 0.651114
O O12 0.000000 0.698400 0.682938
O O13 0.500000 0.111030 0.394694
O O14 0.743067 0.155003 0.353321
O O15 0.229630 0.303820 0.750000
O O16 0.000000 0.298115 0.679114
O O17 0.000000 0.118605 0.892461
#
# Coordination Sequence:
#
# PCOD9468510 Si02
#       6
#    16  16  16  16  16  16
#     4   9  19  35  53  72  92 116 151 198 248 291
#     4  10  18  27  41  64  95 125 155 192 232 279
#     4  10  20  32  47  70 100 131 162 195 230 271
#     4   9  18  30  45  68  94 122 156 191 231 279
#     4   9  17  30  48  70  99 133 165 194 224 268
#     4  10  19  31  48  68  91 122 158 194 237 287
#
# _framework density 17.011649999999999
#
# number of rings (size 3 to 8) (size 9 to 14) (size 15 to 20)
#    0.000    2.500    0.000    2.500    0.000    4.667 
#    0.000    0.000    0.000    1.000    0.000    4.667 
#    0.000    0.000    0.000    0.000    0.000    0.000 
#
# Total GULP energy -267209.566496 kJ/mol
# GULP energy per Si atom -5566.865969 kJ/mol
# Density = 1.697293 g / cm^3
# Si number density = 17.011650 Si / 1000 Ang^3
#
#
#
# Elastic Constant Matrix: (Units=GPa)
#
#
# Indices 1 2 3 4 5 6 
#
# 1 19.2335 18.7189 9.0824 0.0000 0.0000 0.0000
# 2 18.7189 129.4143 46.2287 0.0000 0.0000 0.0000
# 3 9.0824 46.2287 77.1987 0.0000 0.0000 0.0000
# 4 0.0000 0.0000 0.0000 23.7029 0.0000 0.0000
# 5 0.0000 0.0000 0.0000 0.0000 21.2351 0.0000
# 6 0.0000 0.0000 0.0000 0.0000 0.0000 12.7362
#
#
#
# Elastic Compliance Matrix: (Units=1/GPa)
#
#
# Indices 1 2 3 4 5 6 
#
# 1 0.060859 -0.007945 -0.002403 0.000000 0.000000 0.000000
# 2 -0.007945 0.010867 -0.005573 0.000000 0.000000 0.000000
# 3 -0.002403 -0.005573 0.016573 0.000000 0.000000 0.000000
# 4 0.000000 0.000000 0.000000 0.042189 0.000000 0.000000
# 5 0.000000 0.000000 0.000000 0.000000 0.047092 0.000000
# 6 0.000000 0.000000 0.000000 0.000000 0.000000 0.078516
#
#
# Mechanical properties :
#
#
# Convention : Reuss Voigt Hill
#
# Bulk Modulus (GPa) = 17.71178 41.54518 29.62848
# Shear Modulus (GPa) = 16.29957 21.65593 18.97775
#
# Velocity S-wave (km/s) = 3.09874 3.57179 3.34364
# Velocity P-wave (km/s) = 4.82049 6.44088 5.68867
#
# Compressibility (1/GPa) = 0.05645958
#
# Stress axis : x y z
#
# Youngs Moduli (GPa) = 16.43135 92.02233 60.33782
#
# Poissons Ratio (x) = 0.73109 0.14497
# Poissons Ratio (y) = 0.13054 0.33625
# Poissons Ratio (z) = 0.03948 0.51282
#
# Static dielectric constant tensor:
#      x y z
#    x 1.603270 0.000000 0.000000 
#    y 0.000000 1.553770 0.000000 
#    z 0.000000 0.000000 1.619880 
# 
# From -- ./inp_files/60177.got.cif
#   From: 2010.05.17/outbox.cif.g08.bks.cpg/sg63_31_cif.got.tgz:60177.got - 2010.06.03 15:47:04.
