data_PCOD9468045
_publ_section_title
;
Structure prediction by ZEFSAII (Michael W. Deem and Ramdas Pophale) SiO2 
 PCOD9468045
Probable space group: P N M A
;
_chemical_formula_sum "Si O2"
_cell_formula_units_Z 60
_cell_length_a 18.000000
_cell_length_b 9.000000
_cell_length_c 18.000000
_cell_angle_alpha 90.000000
_cell_angle_beta 90.000000
_cell_angle_gamma 90.000000
_cell_volume 2916.000000
_symmetry_space_group_name_H-M "P N M A"
_symmetry_group_IT_number 62
_symmetry_cell_setting 'orthorhombic'
loop_
_space_group_symop_operation_xyz
x,y,z
1/2-x,-y,1/2+z
1/2+x,1/2-y,1/2-z
-x,1/2+y,-z
-x,-y,-z
1/2+x,y,1/2-z
1/2-x,1/2+y,1/2+z
x,1/2-y,z
loop_
_atom_site_type_symbol
_atom_site_label
_atom_site_fract_x
_atom_site_fract_y
_atom_site_fract_z
Si Si1 0.676375 0.426751 0.288967
Si Si2 0.475453 0.750000 0.527515
Si Si3 0.660493 0.928232 0.726674
Si Si4 0.689145 0.582732 0.444949
Si Si5 0.403473 0.420637 0.838777
Si Si6 0.078449 0.517228 0.924669
Si Si7 0.344245 0.571407 0.985630
Si Si8 0.578450 0.077988 0.863148
O O1 0.671542 0.250000 0.290207
O O2 0.754451 0.467576 0.248006
O O3 0.672682 0.484609 0.373224
O O4 0.613784 0.496832 0.237541
O O5 0.449544 0.626409 0.466271
O O6 0.507303 0.621473 0.584484
O O7 0.657103 0.750000 0.717284
O O8 0.626105 0.996051 0.650832
O O9 0.614647 0.980556 0.798619
O O10 0.702697 0.750000 0.417225
O O11 0.628361 0.590145 0.509709
O O12 0.763298 0.526982 0.485107
O O13 0.379629 0.250000 0.832433
O O14 0.490605 0.425791 0.855195
O O15 0.363337 0.496834 0.908264
O O16 0.345656 0.750000 0.975658
O O17 0.398555 0.531107 0.053742
O O18 0.603951 0.250000 0.854162
#
# Coordination Sequence:
#
# PCOD9468045 Si02
#       8
#     8   4   8   8   8   8   8   8
#     4  11  25  43  64  95 131 167 218 269 318 385
#     4  10  24  42  62  90 130 160 220 266 322 380
#     4  11  23  43  67  92 128 169 216 263 322 386
#     4  11  22  42  68  92 128 170 211 271 326 378
#     4  11  24  41  63  97 130 168 211 260 317 384
#     4  11  23  44  65  96 126 175 215 270 322 391
#     4  10  21  41  68  93 126 166 212 264 320 379
#     4  10  23  42  64  95 132 170 210 257 324 380
#
# _framework density 20.576132000000001
#
# number of rings (size 3 to 8) (size 9 to 14) (size 15 to 20)
#    0.000    1.333    2.667    2.000    1.867    6.933 
#    4.800    0.000    0.000    0.000    0.000    0.000 
#    0.000    0.000    0.000    0.000    0.000    0.000 
#
# Total GULP energy -334060.004043 kJ/mol
# GULP energy per Si atom -5567.666734 kJ/mol
# Density = 2.052930 g / cm^3
# Si number density = 20.576132 Si / 1000 Ang^3
#
#
#
# Elastic Constant Matrix: (Units=GPa)
#
#
# Indices 1 2 3 4 5 6 
#
# 1 27.5382 18.7283 0.6850 0.0000 0.0000 0.0000
# 2 18.7283 42.0496 9.5256 0.0000 0.0000 0.0000
# 3 0.6850 9.5256 64.0483 0.0000 0.0000 0.0000
# 4 0.0000 0.0000 0.0000 24.2946 0.0000 0.0000
# 5 0.0000 0.0000 0.0000 0.0000 17.5762 0.0000
# 6 0.0000 0.0000 0.0000 0.0000 0.0000 17.8351
#
#
#
# Elastic Compliance Matrix: (Units=1/GPa)
#
#
# Indices 1 2 3 4 5 6 
#
# 1 0.052653 -0.024136 0.003027 0.000000 0.000000 0.000000
# 2 -0.024136 0.035675 -0.005048 0.000000 0.000000 0.000000
# 3 0.003027 -0.005048 0.016332 0.000000 0.000000 0.000000
# 4 0.000000 0.000000 0.000000 0.041161 0.000000 0.000000
# 5 0.000000 0.000000 0.000000 0.000000 0.056895 0.000000
# 6 0.000000 0.000000 0.000000 0.000000 0.000000 0.056069
#
#
# Mechanical properties :
#
#
# Convention : Reuss Voigt Hill
#
# Bulk Modulus (GPa) = 19.10429 21.27932 20.19180
# Shear Modulus (GPa) = 15.21850 18.92099 17.06974
#
# Velocity S-wave (km/s) = 2.72254 3.03571 2.88338
# Velocity P-wave (km/s) = 4.38039 4.75937 4.57381
#
# Compressibility (1/GPa) = 0.05234427
#
# Stress axis : x y z
#
# Youngs Moduli (GPa) = 18.99244 28.03102 61.23115
#
# Poissons Ratio (x) = 0.67656 -0.18532
# Poissons Ratio (y) = 0.45841 0.30907
# Poissons Ratio (z) = -0.05748 0.14149
#
# Static dielectric constant tensor:
#      x y z
#    x 1.799740 0.000000 0.000000 
#    y 0.000000 1.636070 0.000000 
#    z 0.000000 0.000000 1.733680 
# 
# From -- ./inp_files/24357.got.cif
#   From: 2010.05.17/outbox.ucp.g08.bks.cvg/sg62_13_cif.got.tgz:24357.got - 2010.06.11 16:29:25.
