data_PCOD9468848
_publ_section_title
;
Structure prediction by ZEFSAII (Michael W. Deem and Ramdas Pophale) SiO2 
 PCOD9468848
Probable space group: C M C M
;
_chemical_formula_sum "Si O2"
_cell_formula_units_Z 128
_cell_length_a 26.166809
_cell_length_b 18.202979
_cell_length_c 17.353848
_cell_angle_alpha 90.000000
_cell_angle_beta 90.000000
_cell_angle_gamma 90.000000
_cell_volume 8265.878582
_symmetry_space_group_name_H-M "C M C M"
_symmetry_group_IT_number 63
_symmetry_cell_setting 'orthorhombic'
loop_
_space_group_symop_operation_xyz
x,y,z
-x,-y,1/2+z
x,-y,-z
-x,y,1/2-z
-x,-y,-z
x,y,1/2-z
-x,y,z
x,-y,1/2+z
1/2+x,1/2+y,z
1/2-x,1/2-y,1/2+z
1/2+x,1/2-y,-z
1/2-x,1/2+y,1/2-z
1/2-x,1/2-y,-z
1/2+x,1/2+y,1/2-z
1/2-x,1/2+y,z
1/2+x,1/2-y,1/2+z
loop_
_atom_site_type_symbol
_atom_site_label
_atom_site_fract_x
_atom_site_fract_y
_atom_site_fract_z
Si Si1 0.745294 0.468511 0.605943
Si Si2 0.058761 0.517971 0.409948
Si Si3 0.287245 0.389493 0.052485
Si Si4 0.184368 0.302263 0.410284
Si Si5 0.849337 0.251437 0.929963
Si Si6 0.752509 0.313248 0.836053
Si Si7 0.842946 0.547857 0.660991
Si Si8 0.059323 0.680713 0.158476
O O1 0.713212 0.543836 0.614023
O O2 0.724431 0.429098 0.528561
O O3 0.744840 0.400597 0.663531
O O4 0.803128 0.501343 0.607849
O O5 0.068354 0.500000 0.500000
O O6 0.100290 0.476201 0.359598
O O7 0.064277 0.603388 0.386781
O O8 0.000000 0.497160 0.393428
O O9 0.238022 0.337699 0.062674
O O10 0.334147 0.334048 0.059776
O O11 0.149940 0.285962 0.484472
O O12 0.202772 0.227682 0.369799
O O13 0.162203 0.365716 0.356445
O O14 0.802260 0.292148 0.886187
O O15 0.900074 0.265617 0.881224
O O16 0.761403 0.285519 0.750000
O O17 0.830199 0.532796 0.750000
O O18 0.070237 0.670465 0.250000
O O19 0.000000 0.704170 0.151877
#
# Coordination Sequence:
#
# PCOD9468848 Si02
#       8
#    16  16  16  16  16  16  16  16
#     4  10  18  30  46  70  97 126 159 200 237 290
#     4  10  21  35  51  71  93 127 172 214 246 283
#     4   9  18  30  48  69  94 125 163 199 235 276
#     4  10  19  32  45  66  97 129 169 202 233 281
#     4  11  18  33  51  72  92 135 168 196 244 294
#     4  11  19  29  46  69  99 130 162 197 239 294
#     4  11  22  31  45  68  97 134 164 201 252 291
#     4  10  21  35  51  74 102 127 161 211 256 295
#
# _framework density 15.485348
#
# number of rings (size 3 to 8) (size 9 to 14) (size 15 to 20)
#    0.000    1.750    2.500    3.750    3.500    0.750 
#    0.000    1.875    0.000    0.000    0.000    1.750 
#    0.000    0.000    0.000    0.125    0.000    0.000 
#
# Total GULP energy -356412.426018 kJ/mol
# GULP energy per Si atom -5568.944157 kJ/mol
# Density = 1.545010 g / cm^3
# Si number density = 15.485348 Si / 1000 Ang^3
#
#
#
# Elastic Constant Matrix: (Units=GPa)
#
#
# Indices 1 2 3 4 5 6 
#
# 1 64.8540 39.1931 31.1731 0.0000 0.0000 0.0000
# 2 39.1931 93.4087 29.2756 0.0000 0.0000 0.0000
# 3 31.1731 29.2756 71.7817 0.0000 0.0000 0.0000
# 4 0.0000 0.0000 0.0000 15.5750 0.0000 0.0000
# 5 0.0000 0.0000 0.0000 0.0000 16.5344 0.0000
# 6 0.0000 0.0000 0.0000 0.0000 0.0000 14.0692
#
#
#
# Elastic Compliance Matrix: (Units=1/GPa)
#
#
# Indices 1 2 3 4 5 6 
#
# 1 0.023414 -0.007610 -0.007064 0.000000 0.000000 0.000000
# 2 -0.007610 0.014748 -0.002710 0.000000 0.000000 0.000000
# 3 -0.007064 -0.002710 0.018104 0.000000 0.000000 0.000000
# 4 0.000000 0.000000 0.000000 0.064205 0.000000 0.000000
# 5 0.000000 0.000000 0.000000 0.000000 0.060480 0.000000
# 6 0.000000 0.000000 0.000000 0.000000 0.000000 0.071077
#
#
# Mechanical properties :
#
#
# Convention : Reuss Voigt Hill
#
# Bulk Modulus (GPa) = 46.51751 47.70312 47.11031
# Shear Modulus (GPa) = 17.00892 17.92924 17.46908
#
# Velocity S-wave (km/s) = 3.31779 3.40637 3.36237
# Velocity P-wave (km/s) = 6.69193 6.80759 6.75001
#
# Compressibility (1/GPa) = 0.02149728
#
# Stress axis : x y z
#
# Youngs Moduli (GPa) = 42.70979 67.80542 55.23556
#
# Poissons Ratio (x) = 0.51600 0.39020
# Poissons Ratio (y) = 0.32502 0.14969
# Poissons Ratio (z) = 0.30172 0.18375
#
# Static dielectric constant tensor:
#      x y z
#    x 1.499490 0.000000 0.000000 
#    y 0.000000 1.540260 0.000000 
#    z 0.000000 0.000000 1.582480 
# 
# From -- ./inp_files/48411.got.cif
#   From: 2010.05.17/outbox.cif.g08.bks.cpg/sg63_25_cif.got.tgz:48411.got - 2010.06.03 15:47:04.
