data_PCOD9468477
_publ_section_title
;
Structure prediction by ZEFSAII (Michael W. Deem and Ramdas Pophale) SiO2 
 PCOD9468477
Probable space group: C M C M
;
_chemical_formula_sum "Si O2"
_cell_formula_units_Z 96
_cell_length_a 23.550932
_cell_length_b 18.647032
_cell_length_c 9.544321
_cell_angle_alpha 90.000000
_cell_angle_beta 90.000000
_cell_angle_gamma 90.000000
_cell_volume 4191.436123
_symmetry_space_group_name_H-M "C M C M"
_symmetry_group_IT_number 63
_symmetry_cell_setting 'orthorhombic'
loop_
_space_group_symop_operation_xyz
x,y,z
-x,-y,1/2+z
x,-y,-z
-x,y,1/2-z
-x,-y,-z
x,y,1/2-z
-x,y,z
x,-y,1/2+z
1/2+x,1/2+y,z
1/2-x,1/2-y,1/2+z
1/2+x,1/2-y,-z
1/2-x,1/2+y,1/2-z
1/2-x,1/2-y,-z
1/2+x,1/2+y,1/2-z
1/2-x,1/2+y,z
1/2+x,1/2-y,1/2+z
loop_
_atom_site_type_symbol
_atom_site_label
_atom_site_fract_x
_atom_site_fract_y
_atom_site_fract_z
Si Si1 0.820756 0.735246 0.099217
Si Si2 0.937251 0.876405 0.582914
Si Si3 0.772720 0.592288 0.095323
Si Si4 0.090782 0.570828 0.084999
Si Si5 0.171669 0.095296 0.904986
Si Si6 0.581826 0.790775 0.413122
O O1 0.851808 0.715675 0.250000
O O2 0.769483 0.679780 0.101260
O O3 0.817074 0.819457 0.107718
O O4 0.852442 0.717630 0.955127
O O5 0.928334 0.883559 0.750000
O O6 0.884879 0.910244 0.499096
O O7 0.939127 0.789879 0.554309
O O8 0.000000 0.904910 0.546873
O O9 0.757179 0.565549 0.250000
O O10 0.839557 0.575594 0.073115
O O11 0.729080 0.569615 0.977662
O O12 0.077161 0.566227 0.250000
O O13 0.073420 0.500000 0.000000
O O14 0.065575 0.641995 0.010488
O O15 0.162081 0.065636 0.750000
O O16 0.571648 0.805691 0.250000
#
# Coordination Sequence:
#
# PCOD9468477 Si02
#       6
#    16  16  16  16  16  16
#     4   8  15  26  38  57  86 116 144 173 207 253
#     4   9  18  32  48  65  88 120 154 186 223 267
#     4   9  17  28  41  59  86 117 145 174 211 259
#     4  10  20  33  48  66  89 117 149 185 225 267
#     4  10  18  26  40  63  89 116 146 180 216 256
#     4   9  16  27  45  66  86 112 147 185 224 266
#
# _framework density 22.903843999999999
#
# number of rings (size 3 to 8) (size 9 to 14) (size 15 to 20)
#    0.000    2.833    0.000    3.000    0.000    5.000 
#    0.000    3.333    0.000    0.500    0.000    0.000 
#    0.000    0.667    0.000    2.167    0.000    2.667 
#
# Total GULP energy -267381.443615 kJ/mol
# GULP energy per Si atom -5570.446742 kJ/mol
# Density = 2.285171 g / cm^3
# Si number density = 22.903844 Si / 1000 Ang^3
#
#
#
# Elastic Constant Matrix: (Units=GPa)
#
#
# Indices 1 2 3 4 5 6 
#
# 1 95.1123 -2.9524 60.2330 0.0000 0.0000 0.0000
# 2 -2.9524 82.7908 14.9856 0.0000 0.0000 0.0000
# 3 60.2330 14.9856 113.3219 0.0000 0.0000 0.0000
# 4 0.0000 0.0000 0.0000 13.6257 0.0000 0.0000
# 5 0.0000 0.0000 0.0000 0.0000 -3.4731 0.0000
# 6 0.0000 0.0000 0.0000 0.0000 0.0000 -4.9257
#
#
#
# Elastic Compliance Matrix: (Units=1/GPa)
#
#
# Indices 1 2 3 4 5 6 
#
# 1 0.016228 0.002192 -0.008915 0.000000 0.000000 0.000000
# 2 0.002192 0.012671 -0.002841 0.000000 0.000000 0.000000
# 3 -0.008915 -0.002841 0.013939 0.000000 0.000000 0.000000
# 4 0.000000 0.000000 0.000000 0.073391 0.000000 0.000000
# 5 0.000000 0.000000 0.000000 0.000000 -0.287930 0.000000
# 6 0.000000 0.000000 0.000000 0.000000 0.000000 -0.203017
#
#
# Mechanical properties :
#
#
# Convention : Reuss Voigt Hill
#
# Bulk Modulus (GPa) = 42.17632 48.41750 45.29691
# Shear Modulus (GPa) = -14.38075 15.64264 0.63094
#
# Velocity S-wave (km/s) = -2.50846 2.61620 0.52543
# Velocity P-wave (km/s) = 3.17248 5.50558 4.49311
#
# Compressibility (1/GPa) = 0.02370999
#
# Stress axis : x y z
#
# Youngs Moduli (GPa) = 61.62214 78.92006 71.74195
#
# Poissons Ratio (x) = -0.17303 0.63961
# Poissons Ratio (y) = -0.13510 0.20382
# Poissons Ratio (z) = 0.54939 0.22421
#
# Static dielectric constant tensor:
#      x y z
#    x 1.877260 0.000000 0.000000 
#    y 0.000000 1.917720 0.000000 
#    z 0.000000 0.000000 1.849870 
# 
# From -- ./inp_files/10692.got.cif
#   From: 2010.05.17/outbox.cif.g08.bks.cpg/sg63_6_cif.got.tgz:10692.got - 2010.06.03 15:47:04.
