data_PCOD9468286
_publ_section_title
;
Structure prediction by ZEFSAII (Michael W. Deem and Ramdas Pophale) SiO2 
 PCOD9468286
Probable space group: C M C M
;
_chemical_formula_sum "Si O2"
_cell_formula_units_Z 80
_cell_length_a 17.921767
_cell_length_b 27.042859
_cell_length_c 8.387353
_cell_angle_alpha 90.000000
_cell_angle_beta 90.000000
_cell_angle_gamma 90.000000
_cell_volume 4064.979429
_symmetry_space_group_name_H-M "C M C M"
_symmetry_group_IT_number 63
_symmetry_cell_setting 'orthorhombic'
loop_
_space_group_symop_operation_xyz
x,y,z
-x,-y,1/2+z
x,-y,-z
-x,y,1/2-z
-x,-y,-z
x,y,1/2-z
-x,y,z
x,-y,1/2+z
1/2+x,1/2+y,z
1/2-x,1/2-y,1/2+z
1/2+x,1/2-y,-z
1/2-x,1/2+y,1/2-z
1/2-x,1/2-y,-z
1/2+x,1/2+y,1/2-z
1/2-x,1/2+y,z
1/2+x,1/2-y,1/2+z
loop_
_atom_site_type_symbol
_atom_site_label
_atom_site_fract_x
_atom_site_fract_y
_atom_site_fract_z
Si Si1 0.285388 0.550161 0.938218
Si Si2 0.917669 0.767699 0.442780
Si Si3 0.616164 0.947557 0.562701
Si Si4 0.199419 0.846835 0.560050
Si Si5 0.373405 0.840595 0.555748
O O1 0.271659 0.546827 0.750000
O O2 0.323293 0.500000 0.000000
O O3 0.205417 0.552091 0.028738
O O4 0.324752 0.601539 0.980049
O O5 0.911941 0.768112 0.250000
O O6 0.852875 0.801866 0.510649
O O7 0.909816 0.710615 0.495556
O O8 0.000000 0.786085 0.487478
O O9 0.602398 0.947685 0.750000
O O10 0.593432 0.893266 0.498685
O O11 0.587018 0.000000 0.500000
O O12 0.198374 0.852899 0.750000
O O13 0.285720 0.837886 0.511886
O O14 0.377554 0.842006 0.750000
#
# Coordination Sequence:
#
# PCOD9468286 Si02
#       5
#    16  16  16  16  16
#     4  10  17  27  45  71 101 128 157 193 237 285
#     4  10  20  34  51  70  94 126 164 204 246 291
#     4   9  15  25  42  67  98 127 157 195 240 286
#     4  10  19  32  50  72  99 128 161 200 240 285
#     4   8  16  30  48  71  97 126 161 200 240 284
#
# _framework density 19.680295000000001
#
# number of rings (size 3 to 8) (size 9 to 14) (size 15 to 20)
#    0.000    2.600    0.000    6.000    0.000    0.400 
#    0.000    5.000    0.000    1.200    0.000    0.000 
#    0.000    0.000    0.000    0.000    0.000    7.200 
#
# Total GULP energy -222988.076182 kJ/mol
# GULP energy per Si atom -5574.701905 kJ/mol
# Density = 1.963550 g / cm^3
# Si number density = 19.680295 Si / 1000 Ang^3
#
#
#
# Elastic Constant Matrix: (Units=GPa)
#
#
# Indices 1 2 3 4 5 6 
#
# 1 57.4223 39.1860 13.5428 0.0000 0.0000 0.0000
# 2 39.1860 147.6421 16.0753 0.0000 0.0000 0.0000
# 3 13.5428 16.0753 31.9837 0.0000 0.0000 0.0000
# 4 0.0000 0.0000 0.0000 26.2835 0.0000 0.0000
# 5 0.0000 0.0000 0.0000 0.0000 -4.4927 0.0000
# 6 0.0000 0.0000 0.0000 0.0000 0.0000 -21.1304
#
#
#
# Elastic Compliance Matrix: (Units=1/GPa)
#
#
# Indices 1 2 3 4 5 6 
#
# 1 0.022637 -0.005252 -0.006945 0.000000 0.000000 0.000000
# 2 -0.005252 0.008384 -0.001990 0.000000 0.000000 0.000000
# 3 -0.006945 -0.001990 0.035207 0.000000 0.000000 0.000000
# 4 0.000000 0.000000 0.000000 0.038047 0.000000 0.000000
# 5 0.000000 0.000000 0.000000 0.000000 -0.222583 0.000000
# 6 0.000000 0.000000 0.000000 0.000000 0.000000 -0.047325
#
#
# Mechanical properties :
#
#
# Convention : Reuss Voigt Hill
#
# Bulk Modulus (GPa) = 26.41795 41.62847 34.02321
# Shear Modulus (GPa) = -40.11509 11.34835 -14.38337
#
# Velocity S-wave (km/s) = -4.51969 2.40393 -2.70636
# Velocity P-wave (km/s) = 3.71270 5.37619 2.74948
#
# Compressibility (1/GPa) = 0.03785305
#
# Stress axis : x y z
#
# Youngs Moduli (GPa) = 44.17579 119.27897 28.40348
#
# Poissons Ratio (x) = 0.62644 0.19727
# Poissons Ratio (y) = 0.23201 0.05652
# Poissons Ratio (z) = 0.30682 0.23736
#
# Static dielectric constant tensor:
#      x y z
#    x 1.660890 0.000000 0.000000 
#    y 0.000000 1.755210 0.000000 
#    z 0.000000 0.000000 1.682850 
# 
# From -- ./inp_files/6374.got.cif
#   From: 2010.05.17/outbox.cif.g08.bks.cpg/sg63_4_cif.got.tgz:6374.got - 2010.06.03 15:47:04.
