data_PCOD9468194
_publ_section_title
;
Structure prediction by ZEFSAII (Michael W. Deem and Ramdas Pophale) SiO2 
 PCOD9468194
Probable space group: C M C M
;
_chemical_formula_sum "Si O2"
_cell_formula_units_Z 96
_cell_length_a 20.318178
_cell_length_b 15.075797
_cell_length_c 18.107724
_cell_angle_alpha 90.000000
_cell_angle_beta 90.000000
_cell_angle_gamma 90.000000
_cell_volume 5546.626317
_symmetry_space_group_name_H-M "C M C M"
_symmetry_group_IT_number 63
_symmetry_cell_setting 'orthorhombic'
loop_
_space_group_symop_operation_xyz
x,y,z
-x,-y,1/2+z
x,-y,-z
-x,y,1/2-z
-x,-y,-z
x,y,1/2-z
-x,y,z
x,-y,1/2+z
1/2+x,1/2+y,z
1/2-x,1/2-y,1/2+z
1/2+x,1/2-y,-z
1/2-x,1/2+y,1/2-z
1/2-x,1/2-y,-z
1/2+x,1/2+y,1/2-z
1/2-x,1/2+y,z
1/2+x,1/2-y,1/2+z
loop_
_atom_site_type_symbol
_atom_site_label
_atom_site_fract_x
_atom_site_fract_y
_atom_site_fract_z
Si Si1 0.359042 0.259914 0.966526
Si Si2 0.818935 0.376247 0.834293
Si Si3 0.268519 0.299782 0.108903
Si Si4 0.287674 0.499442 0.409289
Si Si5 0.427287 0.559101 0.425597
Si Si6 0.921746 0.409362 0.958231
O O1 0.306036 0.231985 0.905109
O O2 0.406689 0.340289 0.945142
O O3 0.312447 0.291397 0.034146
O O4 0.398738 0.174132 0.992961
O O5 0.822478 0.405473 0.750000
O O6 0.802929 0.271261 0.838128
O O7 0.760671 0.425939 0.878337
O O8 0.883975 0.398576 0.880961
O O9 0.268326 0.404156 0.123254
O O10 0.283600 0.500000 0.500000
O O11 0.362724 0.520414 0.386217
O O12 0.431087 0.500000 0.500000
O O13 0.500000 0.555637 0.390799
O O14 0.000000 0.409505 0.948790
O O15 0.901967 0.500000 0.000000
#
# Coordination Sequence:
#
# PCOD9468194 Si02
#       6
#    16  16  16  16  16  16
#     4  10  16  30  52  80 103 136 170 225 279 326
#     4  11  23  36  53  79 111 152 189 223 279 342
#     4  10  18  30  52  76 109 136 177 225 273 324
#     4  11  18  35  57  83 108 142 186 240 286 320
#     4  10  18  28  48  82 112 134 170 222 282 334
#     4  10  21  36  56  83 111 141 183 235 287 333
#
# _framework density 17.307818999999999
#
# number of rings (size 3 to 8) (size 9 to 14) (size 15 to 20)
#    0.000    1.667    5.000    4.000    0.000    1.000 
#    0.000    0.000    0.000    0.500    0.000    0.000 
#    0.000    0.000    0.000    0.000    0.000    0.000 
#
# Total GULP energy -267541.426884 kJ/mol
# GULP energy per Si atom -5573.779727 kJ/mol
# Density = 1.726843 g / cm^3
# Si number density = 17.307819 Si / 1000 Ang^3
#
#
#
# Elastic Constant Matrix: (Units=GPa)
#
#
# Indices 1 2 3 4 5 6 
#
# 1 97.1053 30.5066 27.5315 0.0000 0.0000 0.0000
# 2 30.5066 125.1437 17.9042 0.0000 0.0000 0.0000
# 3 27.5315 17.9042 57.7536 0.0000 0.0000 0.0000
# 4 0.0000 0.0000 0.0000 8.4334 0.0000 0.0000
# 5 0.0000 0.0000 0.0000 0.0000 -16.9086 0.0000
# 6 0.0000 0.0000 0.0000 0.0000 0.0000 -42.4663
#
#
#
# Elastic Compliance Matrix: (Units=1/GPa)
#
#
# Indices 1 2 3 4 5 6 
#
# 1 0.012509 -0.002298 -0.005251 0.000000 0.000000 0.000000
# 2 -0.002298 0.008784 -0.001628 0.000000 0.000000 0.000000
# 3 -0.005251 -0.001628 0.020322 0.000000 0.000000 0.000000
# 4 0.000000 0.000000 0.000000 0.118576 0.000000 0.000000
# 5 0.000000 0.000000 0.000000 0.000000 -0.059141 0.000000
# 6 0.000000 0.000000 0.000000 0.000000 0.000000 -0.023548
#
#
# Mechanical properties :
#
#
# Convention : Reuss Voigt Hill
#
# Bulk Modulus (GPa) = 42.98741 47.98747 45.48744
# Shear Modulus (GPa) = 48.25878 3.41571 25.83725
#
# Velocity S-wave (km/s) = 5.28613 1.40634 3.86788
# Velocity P-wave (km/s) = 7.88343 5.51572 6.80337
#
# Compressibility (1/GPa) = 0.02326262
#
# Stress axis : x y z
#
# Youngs Moduli (GPa) = 79.94429 113.84489 49.20665
#
# Poissons Ratio (x) = 0.26163 0.25836
# Poissons Ratio (y) = 0.18372 0.08009
# Poissons Ratio (z) = 0.41975 0.18529
#
# Static dielectric constant tensor:
#      x y z
#    x 1.589460 0.000000 0.000000 
#    y 0.000000 1.610820 0.000000 
#    z 0.000000 0.000000 1.582640 
# 
# From -- ./inp_files/56710.got.cif
#   From: 2010.05.17/outbox.cif.g08.bks.cpg/sg63_29_cif.got.tgz:56710.got - 2010.06.03 15:47:04.
