data_PCOD9468561
_publ_section_title
;
Structure prediction by ZEFSAII (Michael W. Deem and Ramdas Pophale) SiO2 
 PCOD9468561
Probable space group: C M C M
;
_chemical_formula_sum "Si O2"
_cell_formula_units_Z 96
_cell_length_a 27.367275
_cell_length_b 29.538677
_cell_length_c 8.840467
_cell_angle_alpha 90.000000
_cell_angle_beta 90.000000
_cell_angle_gamma 90.000000
_cell_volume 7146.572493
_symmetry_space_group_name_H-M "C M C M"
_symmetry_group_IT_number 63
_symmetry_cell_setting 'orthorhombic'
loop_
_space_group_symop_operation_xyz
x,y,z
-x,-y,1/2+z
x,-y,-z
-x,y,1/2-z
-x,-y,-z
x,y,1/2-z
-x,y,z
x,-y,1/2+z
1/2+x,1/2+y,z
1/2-x,1/2-y,1/2+z
1/2+x,1/2-y,-z
1/2-x,1/2+y,1/2-z
1/2-x,1/2-y,-z
1/2+x,1/2+y,1/2-z
1/2-x,1/2+y,z
1/2+x,1/2-y,1/2+z
loop_
_atom_site_type_symbol
_atom_site_label
_atom_site_fract_x
_atom_site_fract_y
_atom_site_fract_z
Si Si1 0.287796 0.451986 0.931178
Si Si2 0.757319 0.859396 0.431325
Si Si3 0.644326 0.303234 0.068813
Si Si4 0.096824 0.952521 0.568770
Si Si5 0.794423 0.720666 0.431635
Si Si6 0.944950 0.856423 0.932672
O O1 0.283462 0.452244 0.750000
O O2 0.345657 0.446810 0.969545
O O3 0.272017 0.500000 0.000000
O O4 0.259931 0.409456 0.001525
O O5 0.754410 0.860003 0.250000
O O6 0.808716 0.834414 0.473484
O O7 0.713878 0.828682 0.498730
O O8 0.639642 0.306174 0.250000
O O9 0.658429 0.251327 0.030563
O O10 0.596138 0.322729 0.993234
O O11 0.093085 0.955535 0.750000
O O12 0.068661 0.907617 0.517864
O O13 0.079673 0.000000 0.500000
O O14 0.790113 0.718872 0.250000
O O15 0.750000 0.750000 0.500000
O O16 0.943109 0.856167 0.750000
O O17 0.000000 0.845085 0.980417
#
# Coordination Sequence:
#
# PCOD9468561 Si02
#       6
#    16  16  16  16  16  16
#     4  10  18  28  42  59  80 108 135 168 206 243
#     4  10  18  28  43  63  82 103 131 163 198 244
#     4   9  18  30  43  59  79 100 127 163 201 244
#     4   9  18  30  42  56  72  96 129 168 211 250
#     4   9  17  28  42  62  82 101 125 158 199 242
#     4  10  20  32  44  58  76 100 132 169 211 254
#
# _framework density 13.433013000000001
#
# number of rings (size 3 to 8) (size 9 to 14) (size 15 to 20)
#    0.000    2.500    1.667    2.500    0.000    5.333 
#    0.000    0.000    0.000    0.000    0.000    0.000 
#    0.000    0.000    0.000    0.000    0.000    0.833 
#
# Total GULP energy -267448.525324 kJ/mol
# GULP energy per Si atom -5571.844278 kJ/mol
# Density = 1.340244 g / cm^3
# Si number density = 13.433013 Si / 1000 Ang^3
#
#
#
# Elastic Constant Matrix: (Units=GPa)
#
#
# Indices 1 2 3 4 5 6 
#
# 1 59.4309 58.2908 23.8554 0.0000 0.0000 0.0000
# 2 58.2908 113.6756 40.2809 0.0000 0.0000 0.0000
# 3 23.8554 40.2809 30.0452 0.0000 0.0000 0.0000
# 4 0.0000 0.0000 0.0000 25.7761 0.0000 0.0000
# 5 0.0000 0.0000 0.0000 0.0000 15.1014 0.0000
# 6 0.0000 0.0000 0.0000 0.0000 0.0000 17.4223
#
#
#
# Elastic Compliance Matrix: (Units=1/GPa)
#
#
# Indices 1 2 3 4 5 6 
#
# 1 0.034613 -0.015260 -0.007023 0.000000 0.000000 0.000000
# 2 -0.015260 0.023486 -0.019371 0.000000 0.000000 0.000000
# 3 -0.007023 -0.019371 0.064830 0.000000 0.000000 0.000000
# 4 0.000000 0.000000 0.000000 0.038796 0.000000 0.000000
# 5 0.000000 0.000000 0.000000 0.000000 0.066219 0.000000
# 6 0.000000 0.000000 0.000000 0.000000 0.000000 0.057398
#
#
# Mechanical properties :
#
#
# Convention : Reuss Voigt Hill
#
# Bulk Modulus (GPa) = 25.23960 49.77842 37.50901
# Shear Modulus (GPa) = 13.09391 17.04159 15.06775
#
# Velocity S-wave (km/s) = 3.12550 3.56565 3.35281
# Velocity P-wave (km/s) = 5.64402 7.35453 6.55531
#
# Compressibility (1/GPa) = 0.03962028
#
# Stress axis : x y z
#
# Youngs Moduli (GPa) = 28.89106 42.57788 15.42498
#
# Poissons Ratio (x) = 0.64975 0.10833
# Poissons Ratio (y) = 0.44089 0.29880
# Poissons Ratio (z) = 0.20290 0.82479
#
# Static dielectric constant tensor:
#      x y z
#    x 1.421860 0.000000 0.000000 
#    y 0.000000 1.462590 0.000000 
#    z 0.000000 0.000000 1.448130 
# 
# From -- ./inp_files/10736.got.cif
#   From: 2010.05.17/outbox.cif.g08.bks.cpg/sg63_6_cif.got.tgz:10736.got - 2010.06.03 15:47:04.
