data_PCOD9468125
_publ_section_title
;
Structure prediction by ZEFSAII (Michael W. Deem and Ramdas Pophale) SiO2 
 PCOD9468125
Probable space group: C M C M
;
_chemical_formula_sum "Si O2"
_cell_formula_units_Z 96
_cell_length_a 7.302221
_cell_length_b 20.544364
_cell_length_c 25.809144
_cell_angle_alpha 90.000000
_cell_angle_beta 90.000000
_cell_angle_gamma 90.000000
_cell_volume 3871.874523
_symmetry_space_group_name_H-M "C M C M"
_symmetry_group_IT_number 63
_symmetry_cell_setting 'orthorhombic'
loop_
_space_group_symop_operation_xyz
x,y,z
-x,-y,1/2+z
x,-y,-z
-x,y,1/2-z
-x,-y,-z
x,y,1/2-z
-x,y,z
x,-y,1/2+z
1/2+x,1/2+y,z
1/2-x,1/2-y,1/2+z
1/2+x,1/2-y,-z
1/2-x,1/2+y,1/2-z
1/2-x,1/2-y,-z
1/2+x,1/2+y,1/2-z
1/2-x,1/2+y,z
1/2+x,1/2-y,1/2+z
loop_
_atom_site_type_symbol
_atom_site_label
_atom_site_fract_x
_atom_site_fract_y
_atom_site_fract_z
Si Si1 0.211882 0.118503 0.140516
Si Si2 0.221828 0.584464 0.028922
Si Si3 0.276548 0.892283 0.305553
Si Si4 0.223501 0.257113 0.154492
Si Si5 0.293666 0.983064 0.106521
Si Si6 0.217943 0.694733 0.542760
O O1 0.227081 0.130419 0.078196
O O2 0.285679 0.183819 0.166284
O O3 0.301152 0.047602 0.143487
O O4 0.000000 0.109760 0.154415
O O5 0.284661 0.514872 0.053520
O O6 0.000000 0.579531 0.027097
O O7 0.285055 0.624780 0.979102
O O8 0.218738 0.919780 0.250000
O O9 0.500000 0.896564 0.307628
O O10 0.228428 0.816439 0.308657
O O11 0.209230 0.928744 0.357059
O O12 0.286784 0.280827 0.097829
O O13 0.000000 0.252822 0.153373
O O14 0.500000 0.962201 0.093483
O O15 0.250000 0.750000 0.500000
O O16 0.000000 0.687247 0.548413
#
# Coordination Sequence:
#
# PCOD9468125 Si02
#       6
#    16  16  16  16  16  16
#     4   9  15  26  46  68  93 120 149 191 231 267
#     4   8  15  25  41  66  92 118 151 187 222 265
#     4   9  17  31  50  68  90 122 157 197 242 282
#     4   9  17  27  43  71  98 121 157 197 232 276
#     4   8  15  29  47  67  89 116 155 192 223 273
#     4  10  16  25  42  67  99 129 156 187 229 280
#
# _framework density 24.794191999999999
#
# number of rings (size 3 to 8) (size 9 to 14) (size 15 to 20)
#    1.000    2.167    1.667    0.000    0.000    0.000 
#    0.000    1.667    0.000    9.500    0.000    1.167 
#    0.000    0.000    0.000    0.000    0.000    0.000 
#
# Total GULP energy -267407.583294 kJ/mol
# GULP energy per Si atom -5570.991319 kJ/mol
# Density = 2.473776 g / cm^3
# Si number density = 24.794192 Si / 1000 Ang^3
#
#
#
# Elastic Constant Matrix: (Units=GPa)
#
#
# Indices 1 2 3 4 5 6 
#
# 1 108.0896 2.9213 -4.4913 0.0000 0.0000 0.0000
# 2 2.9213 139.9997 25.9425 0.0000 0.0000 0.0000
# 3 -4.4913 25.9425 83.5722 0.0000 0.0000 0.0000
# 4 0.0000 0.0000 0.0000 24.4485 0.0000 0.0000
# 5 0.0000 0.0000 0.0000 0.0000 -2.6294 0.0000
# 6 0.0000 0.0000 0.0000 0.0000 0.0000 -3.0382
#
#
#
# Elastic Compliance Matrix: (Units=1/GPa)
#
#
# Indices 1 2 3 4 5 6 
#
# 1 0.009284 -0.000304 0.000593 0.000000 0.000000 0.000000
# 2 -0.000304 0.007589 -0.002372 0.000000 0.000000 0.000000
# 3 0.000593 -0.002372 0.012734 0.000000 0.000000 0.000000
# 4 0.000000 0.000000 0.000000 0.040902 0.000000 0.000000
# 5 0.000000 0.000000 0.000000 0.000000 -0.380309 0.000000
# 6 0.000000 0.000000 0.000000 0.000000 0.000000 -0.329142
#
#
# Mechanical properties :
#
#
# Convention : Reuss Voigt Hill
#
# Bulk Modulus (GPa) = 39.30479 42.26738 40.78608
# Shear Modulus (GPa) = -7.98345 24.24210 8.12933
#
# Velocity S-wave (km/s) = -1.79635 3.13026 1.81269
# Velocity P-wave (km/s) = 3.40358 5.49081 4.56801
#
# Compressibility (1/GPa) = 0.02544219
#
# Stress axis : x y z
#
# Youngs Moduli (GPa) = 107.70705 131.77393 78.53050
#
# Poissons Ratio (x) = 0.04001 -0.04659
# Poissons Ratio (y) = 0.03271 0.18628
# Poissons Ratio (z) = -0.06389 0.31257
#
# Static dielectric constant tensor:
#      x y z
#    x 1.729940 0.000000 0.000000 
#    y 0.000000 2.022800 0.000000 
#    z 0.000000 0.000000 2.024690 
# 
# From -- ./inp_files/67238.got.cif
#   From: 2010.05.17/outbox.cif.g08.bks.cpg/sg63_34_cif.got.tgz:67238.got - 2010.06.03 15:47:04.
