data_PCOD9468502
_publ_section_title
;
Structure prediction by ZEFSAII (Michael W. Deem and Ramdas Pophale) SiO2 
 PCOD9468502
Probable space group: C M C M
;
_chemical_formula_sum "Si O2"
_cell_formula_units_Z 80
_cell_length_a 24.395365
_cell_length_b 27.757839
_cell_length_c 7.730581
_cell_angle_alpha 90.000000
_cell_angle_beta 90.000000
_cell_angle_gamma 90.000000
_cell_volume 5234.860438
_symmetry_space_group_name_H-M "C M C M"
_symmetry_group_IT_number 63
_symmetry_cell_setting 'orthorhombic'
loop_
_space_group_symop_operation_xyz
x,y,z
-x,-y,1/2+z
x,-y,-z
-x,y,1/2-z
-x,-y,-z
x,y,1/2-z
-x,y,z
x,-y,1/2+z
1/2+x,1/2+y,z
1/2-x,1/2-y,1/2+z
1/2+x,1/2-y,-z
1/2-x,1/2+y,1/2-z
1/2-x,1/2-y,-z
1/2+x,1/2+y,1/2-z
1/2-x,1/2+y,z
1/2+x,1/2-y,1/2+z
loop_
_atom_site_type_symbol
_atom_site_label
_atom_site_fract_x
_atom_site_fract_y
_atom_site_fract_z
Si Si1 0.379537 0.233293 0.544873
Si Si2 0.000000 0.403576 0.538286
Si Si3 0.500000 0.792394 0.543816
Si Si4 0.616236 0.944882 0.541750
Si Si5 0.190671 0.640307 0.453526
Si Si6 0.213982 0.202800 0.457674
O O1 0.370378 0.229662 0.750000
O O2 0.443907 0.232845 0.511520
O O3 0.351803 0.185147 0.467162
O O4 0.346190 0.280550 0.481633
O O5 0.055509 0.429708 0.479865
O O6 0.000000 0.403673 0.750000
O O7 0.000000 0.347904 0.480576
O O8 0.500000 0.794647 0.750000
O O9 0.615106 0.939898 0.750000
O O10 0.660859 0.906712 0.473129
O O11 0.628164 0.000000 0.500000
O O12 0.199512 0.631283 0.250000
O O13 0.248954 0.658890 0.527152
O O14 0.211468 0.196770 0.250000
O O15 0.250000 0.250000 0.500000
#
# Coordination Sequence:
#
# PCOD9468502 Si02
#       6
#    16   8   8  16  16  16
#     4  10  18  27  40  62  83  98 127 169 203 230
#     4   9  17  30  42  52  69 101 139 170 196 232
#     4  11  19  30  44  56  77 110 141 163 195 244
#     4  10  19  30  42  56  75 101 138 174 205 236
#     4   9  16  29  45  57  75 106 134 159 198 249
#     4   8  15  26  41  59  78  99 125 158 197 239
#
# _framework density 15.282165000000001
#
# number of rings (size 3 to 8) (size 9 to 14) (size 15 to 20)
#    0.000    2.600    2.000    1.200    0.000    1.600 
#    0.000    0.000    0.000    0.000    0.000    0.000 
#    0.000    0.000    0.000    0.900    0.000    8.400 
#
# Total GULP energy -222739.937494 kJ/mol
# GULP energy per Si atom -5568.498437 kJ/mol
# Density = 1.524738 g / cm^3
# Si number density = 15.282165 Si / 1000 Ang^3
#
#
#
# Elastic Constant Matrix: (Units=GPa)
#
#
# Indices 1 2 3 4 5 6 
#
# 1 113.7425 80.3225 -5.2059 0.0000 0.0000 0.0000
# 2 80.3225 99.0572 3.7369 0.0000 0.0000 0.0000
# 3 -5.2059 3.7369 22.6561 0.0000 0.0000 0.0000
# 4 0.0000 0.0000 0.0000 11.4460 0.0000 0.0000
# 5 0.0000 0.0000 0.0000 0.0000 5.3535 0.0000
# 6 0.0000 0.0000 0.0000 0.0000 0.0000 13.7597
#
#
#
# Elastic Compliance Matrix: (Units=1/GPa)
#
#
# Indices 1 2 3 4 5 6 
#
# 1 0.021930 -0.018085 0.008022 0.000000 0.000000 0.000000
# 2 -0.018085 0.025073 -0.008291 0.000000 0.000000 0.000000
# 3 0.008022 -0.008291 0.047349 0.000000 0.000000 0.000000
# 4 0.000000 0.000000 0.000000 0.087367 0.000000 0.000000
# 5 0.000000 0.000000 0.000000 0.000000 0.186795 0.000000
# 6 0.000000 0.000000 0.000000 0.000000 0.000000 0.072676
#
#
# Mechanical properties :
#
#
# Convention : Reuss Voigt Hill
#
# Bulk Modulus (GPa) = 17.34799 43.68476 30.51637
# Shear Modulus (GPa) = 10.05807 16.55199 13.30503
#
# Velocity S-wave (km/s) = 2.56824 3.29461 2.95384
# Velocity P-wave (km/s) = 4.49120 6.56659 5.62543
#
# Compressibility (1/GPa) = 0.05764357
#
# Stress axis : x y z
#
# Youngs Moduli (GPa) = 45.59870 39.88380 21.11977
#
# Poissons Ratio (x) = 0.72131 -0.16943
# Poissons Ratio (y) = 0.82467 0.17511
# Poissons Ratio (z) = -0.36580 0.33068
#
# Static dielectric constant tensor:
#      x y z
#    x 1.553800 0.000000 0.000000 
#    y 0.000000 1.503100 0.000000 
#    z 0.000000 0.000000 1.559320 
# 
# From -- ./inp_files/8922.got.cif
#   From: 2010.05.17/outbox.cif.g08.bks.cpg/sg63_5_cif.got.tgz:8922.got - 2010.06.03 15:47:04.
