data_PCOD9468353
_publ_section_title
;
Structure prediction by ZEFSAII (Michael W. Deem and Ramdas Pophale) SiO2 
 PCOD9468353
Probable space group: C M C M
;
_chemical_formula_sum "Si O2"
_cell_formula_units_Z 112
_cell_length_a 27.895062
_cell_length_b 12.438109
_cell_length_c 14.121345
_cell_angle_alpha 90.000000
_cell_angle_beta 90.000000
_cell_angle_gamma 90.000000
_cell_volume 4899.567586
_symmetry_space_group_name_H-M "C M C M"
_symmetry_group_IT_number 63
_symmetry_cell_setting 'orthorhombic'
loop_
_space_group_symop_operation_xyz
x,y,z
-x,-y,1/2+z
x,-y,-z
-x,y,1/2-z
-x,-y,-z
x,y,1/2-z
-x,y,z
x,-y,1/2+z
1/2+x,1/2+y,z
1/2-x,1/2-y,1/2+z
1/2+x,1/2-y,-z
1/2-x,1/2+y,1/2-z
1/2-x,1/2-y,-z
1/2+x,1/2+y,1/2-z
1/2-x,1/2+y,z
1/2+x,1/2-y,1/2+z
loop_
_atom_site_type_symbol
_atom_site_label
_atom_site_fract_x
_atom_site_fract_y
_atom_site_fract_z
Si Si1 0.426623 0.061009 0.643355
Si Si2 0.551810 0.397614 0.136145
Si Si3 0.927295 0.336323 0.554981
Si Si4 0.315495 0.120596 0.644206
Si Si5 0.746219 0.578594 0.362645
Si Si6 0.319753 0.767506 0.541755
Si Si7 0.344363 0.456022 0.363905
O O1 0.442185 0.090338 0.750000
O O2 0.441986 0.939769 0.616775
O O3 0.440363 0.136237 0.554161
O O4 0.368441 0.068051 0.643627
O O5 0.553629 0.381940 0.250000
O O6 0.500000 0.446776 0.112884
O O7 0.599397 0.465249 0.111576
O O8 0.554941 0.279485 0.089318
O O9 0.869603 0.328438 0.565371
O O10 0.304973 0.158673 0.750000
O O11 0.316181 0.216221 0.570161
O O12 0.276856 0.030367 0.617791
O O13 0.751178 0.096330 0.250000
O O14 0.774858 0.671660 0.413987
O O15 0.691725 0.551086 0.389178
O O16 0.325536 0.651078 0.585924
O O17 0.340774 0.441947 0.250000
#
# Coordination Sequence:
#
# PCOD9468353 Si02
#       7
#    16  16  16  16  16  16  16
#     4   9  15  24  38  60  89 120 154 191 228 275
#     4   9  17  30  47  64  87 120 156 200 247 286
#     4   9  16  25  42  65  83 115 162 194 230 282
#     4   9  17  27  42  64  92 130 170 201 232 278
#     4  10  18  28  44  67  96 128 162 201 241 289
#     4  10  17  29  47  65  93 132 164 199 244 289
#     4   9  19  31  45  71  99 126 166 203 242 299
#
# _framework density 22.859159999999999
#
# number of rings (size 3 to 8) (size 9 to 14) (size 15 to 20)
#    0.000    2.714    1.429    1.286    0.000    1.714 
#    0.000    1.429    0.000    2.143    0.000    0.000 
#    0.000    2.286    0.000    5.714    0.000   88.857 
#
# Total GULP energy -313086.795261 kJ/mol
# GULP energy per Si atom -5590.835630 kJ/mol
# Density = 2.280713 g / cm^3
# Si number density = 22.859160 Si / 1000 Ang^3
#
#
#
# Elastic Constant Matrix: (Units=GPa)
#
#
# Indices 1 2 3 4 5 6 
#
# 1 176.4328 41.4643 32.5342 0.0000 0.0000 0.0000
# 2 41.4643 46.8733 28.9379 0.0000 0.0000 0.0000
# 3 32.5342 28.9379 106.8610 0.0000 0.0000 0.0000
# 4 0.0000 0.0000 0.0000 3.8726 0.0000 0.0000
# 5 0.0000 0.0000 0.0000 0.0000 -5.6659 0.0000
# 6 0.0000 0.0000 0.0000 0.0000 0.0000 -30.8637
#
#
#
# Elastic Compliance Matrix: (Units=1/GPa)
#
#
# Indices 1 2 3 4 5 6 
#
# 1 0.007183 -0.006009 -0.000560 0.000000 0.000000 0.000000
# 2 -0.006009 0.030643 -0.006469 0.000000 0.000000 0.000000
# 3 -0.000560 -0.006469 0.011280 0.000000 0.000000 0.000000
# 4 0.000000 0.000000 0.000000 0.258222 0.000000 0.000000
# 5 0.000000 0.000000 0.000000 0.000000 -0.176493 0.000000
# 6 0.000000 0.000000 0.000000 0.000000 0.000000 -0.032401
#
#
# Mechanical properties :
#
#
# Convention : Reuss Voigt Hill
#
# Bulk Modulus (GPa) = 43.41813 59.55998 51.48906
# Shear Modulus (GPa) = 37.82549 8.61732 23.22140
#
# Velocity S-wave (km/s) = 4.07224 1.94369 3.19069
# Velocity P-wave (km/s) = 6.41450 5.58113 6.01227
#
# Compressibility (1/GPa) = 0.02303185
#
# Stress axis : x y z
#
# Youngs Moduli (GPa) = 139.21283 32.63386 88.65156
#
# Poissons Ratio (x) = 0.19609 0.04963
# Poissons Ratio (y) = 0.83649 0.57346
# Poissons Ratio (z) = 0.07793 0.21110
#
# Static dielectric constant tensor:
#      x y z
#    x 1.894090 0.000000 0.000000 
#    y 0.000000 1.793230 0.000000 
#    z 0.000000 0.000000 1.846120 
# 
# From -- ./inp_files/38546.got.cif
#   From: 2010.05.17/outbox.cif.g08.bks.cpg/sg63_20_cif.got.tgz:38546.got - 2010.06.03 15:47:04.
