data_PCOD9468413
_publ_section_title
;
Structure prediction by ZEFSAII (Michael W. Deem and Ramdas Pophale) SiO2 
 PCOD9468413
Probable space group: C M C M
;
_chemical_formula_sum "Si O2"
_cell_formula_units_Z 88
_cell_length_a 12.783498
_cell_length_b 27.088688
_cell_length_c 11.371522
_cell_angle_alpha 90.000000
_cell_angle_beta 90.000000
_cell_angle_gamma 90.000000
_cell_volume 3937.823758
_symmetry_space_group_name_H-M "C M C M"
_symmetry_group_IT_number 63
_symmetry_cell_setting 'orthorhombic'
loop_
_space_group_symop_operation_xyz
x,y,z
-x,-y,1/2+z
x,-y,-z
-x,y,1/2-z
-x,-y,-z
x,y,1/2-z
-x,y,z
x,-y,1/2+z
1/2+x,1/2+y,z
1/2-x,1/2-y,1/2+z
1/2+x,1/2-y,-z
1/2-x,1/2+y,1/2-z
1/2-x,1/2-y,-z
1/2+x,1/2+y,1/2-z
1/2-x,1/2+y,z
1/2+x,1/2-y,1/2+z
loop_
_atom_site_type_symbol
_atom_site_label
_atom_site_fract_x
_atom_site_fract_y
_atom_site_fract_z
Si Si1 0.618645 0.524893 0.750000
Si Si2 0.830695 0.912673 0.018222
Si Si3 0.376075 0.691364 0.879417
Si Si4 0.122040 0.815918 0.750000
Si Si5 0.835790 0.924133 0.750000
Si Si6 0.376324 0.120395 0.610542
Si Si7 0.374514 0.233271 0.947927
O O1 0.500000 0.503151 0.750000
O O2 0.629006 0.556397 0.630369
O O3 0.704459 0.481195 0.750000
O O4 0.863071 0.856478 0.041408
O O5 0.703869 0.911571 0.032433
O O6 0.871310 0.926293 0.888860
O O7 0.335446 0.680850 0.750000
O O8 0.500000 0.698139 0.870615
O O9 0.334279 0.742766 0.930766
O O10 0.193279 0.865138 0.750000
O O11 0.135627 0.778235 0.642976
O O12 0.000000 0.834224 0.750000
O O13 0.362320 0.109879 0.750000
O O14 0.500000 0.114152 0.584097
O O15 0.344513 0.177997 0.588561
O O16 0.500000 0.227202 0.959225
#
# Coordination Sequence:
#
# PCOD9468413 Si02
#       7
#     8  16  16   8   8  16  16
#     4  12  27  47  72  98 130 168 208 260 327 394
#     4  12  24  43  65  95 129 173 215 268 320 387
#     4  10  19  33  54  84 128 174 214 256 313 380
#     4  10  17  31  55  82 119 165 208 252 300 363
#     4  12  27  42  61  96 133 167 214 264 321 385
#     4  10  20  39  68  95 124 169 222 272 320 371
#     4   9  17  31  55  88 125 165 213 260 305 368
#
# _framework density 22.347369
#
# number of rings (size 3 to 8) (size 9 to 14) (size 15 to 20)
#    0.000    1.455    4.545    1.364    0.000    3.636 
#    1.636    0.455    0.000    3.273    0.000    0.000 
#    0.000    0.000    0.000    0.000    0.000    0.000 
#
# Total GULP energy -245004.097576 kJ/mol
# GULP energy per Si atom -5568.274945 kJ/mol
# Density = 2.229651 g / cm^3
# Si number density = 22.347369 Si / 1000 Ang^3
#
#
#
# Elastic Constant Matrix: (Units=GPa)
#
#
# Indices 1 2 3 4 5 6 
#
# 1 93.1788 22.0342 20.6648 0.0000 0.0000 0.0000
# 2 22.0342 63.7464 32.4197 0.0000 0.0000 0.0000
# 3 20.6648 32.4197 150.1476 0.0000 0.0000 0.0000
# 4 0.0000 0.0000 0.0000 7.8057 0.0000 0.0000
# 5 0.0000 0.0000 0.0000 0.0000 18.3986 0.0000
# 6 0.0000 0.0000 0.0000 0.0000 0.0000 10.5025
#
#
#
# Elastic Compliance Matrix: (Units=1/GPa)
#
#
# Indices 1 2 3 4 5 6 
#
# 1 0.011780 -0.003648 -0.000834 0.000000 0.000000 0.000000
# 2 -0.003648 0.018752 -0.003547 0.000000 0.000000 0.000000
# 3 -0.000834 -0.003547 0.007541 0.000000 0.000000 0.000000
# 4 0.000000 0.000000 0.000000 0.128112 0.000000 0.000000
# 5 0.000000 0.000000 0.000000 0.000000 0.054352 0.000000
# 6 0.000000 0.000000 0.000000 0.000000 0.000000 0.095215
#
#
# Mechanical properties :
#
#
# Convention : Reuss Voigt Hill
#
# Bulk Modulus (GPa) = 45.42203 50.81222 48.11713
# Shear Modulus (GPa) = 14.74290 22.80497 18.77394
#
# Velocity S-wave (km/s) = 2.57128 3.19796 2.90159
# Velocity P-wave (km/s) = 5.40230 6.03512 5.72746
#
# Compressibility (1/GPa) = 0.02201575
#
# Stress axis : x y z
#
# Youngs Moduli (GPa) = 84.89324 53.32814 132.61419
#
# Poissons Ratio (x) = 0.19452 0.11055
# Poissons Ratio (y) = 0.30966 0.47036
# Poissons Ratio (z) = 0.07077 0.18915
#
# Static dielectric constant tensor:
#      x y z
#    x 1.975660 0.000000 0.000000 
#    y 0.000000 1.781240 0.000000 
#    z 0.000000 0.000000 1.897340 
# 
# From -- ./inp_files/19564.got.cif
#   From: 2010.05.17/outbox.cif.g08.bks.cpg/sg63_10_cif.got.tgz:19564.got - 2010.06.03 15:47:04.
