data_PCOD9468566
_publ_section_title
;
Structure prediction by ZEFSAII (Michael W. Deem and Ramdas Pophale) SiO2 
 PCOD9468566
Probable space group: C M C M
;
_chemical_formula_sum "Si O2"
_cell_formula_units_Z 56
_cell_length_a 14.385954
_cell_length_b 25.021319
_cell_length_c 8.444480
_cell_angle_alpha 90.000000
_cell_angle_beta 90.000000
_cell_angle_gamma 90.000000
_cell_volume 3039.637393
_symmetry_space_group_name_H-M "C M C M"
_symmetry_group_IT_number 63
_symmetry_cell_setting 'orthorhombic'
loop_
_space_group_symop_operation_xyz
x,y,z
-x,-y,1/2+z
x,-y,-z
-x,y,1/2-z
-x,-y,-z
x,y,1/2-z
-x,y,z
x,-y,1/2+z
1/2+x,1/2+y,z
1/2-x,1/2-y,1/2+z
1/2+x,1/2-y,-z
1/2-x,1/2+y,1/2-z
1/2-x,1/2-y,-z
1/2+x,1/2+y,1/2-z
1/2-x,1/2+y,z
1/2+x,1/2-y,1/2+z
loop_
_atom_site_type_symbol
_atom_site_label
_atom_site_fract_x
_atom_site_fract_y
_atom_site_fract_z
Si Si1 0.801208 0.939663 0.060537
Si Si2 0.604759 0.264940 0.941920
Si Si3 0.000000 0.939023 0.561042
Si Si4 0.721480 0.833423 0.059491
O O1 0.803311 0.942418 0.250000
O O2 0.727358 0.894983 0.006510
O O3 0.902132 0.918340 0.003062
O O4 0.786745 0.000000 0.000000
O O5 0.606329 0.267895 0.750000
O O6 0.500000 0.277117 0.994536
O O7 0.637290 0.205095 0.990626
O O8 0.684169 0.303874 0.006166
O O9 0.000000 0.936635 0.750000
O O10 0.000000 0.000000 0.500000
O O11 0.720185 0.834274 0.250000
#
# Coordination Sequence:
#
# PCOD9468566 Si02
#       4
#    16  16   8  16
#     4  10  19  31  46  66  94 127 158 192 233 280
#     4   9  18  33  52  73  95 122 158 198 238 282
#     4  10  18  28  42  62  90 122 156 190 227 272
#     4   9  19  33  49  71  98 126 157 193 238 285
#
# _framework density 18.423249999999999
#
# number of rings (size 3 to 8) (size 9 to 14) (size 15 to 20)
#    0.000    2.571    0.000    3.857    2.000    2.857 
#    0.000    0.000    0.000    0.857    0.000    0.000 
#    0.000    0.000    0.000    0.000    0.000    1.143 
#
# Total GULP energy -155999.347444 kJ/mol
# GULP energy per Si atom -5571.405266 kJ/mol
# Density = 1.838132 g / cm^3
# Si number density = 18.423250 Si / 1000 Ang^3
#
#
#
# Elastic Constant Matrix: (Units=GPa)
#
#
# Indices 1 2 3 4 5 6 
#
# 1 30.9639 -4.6092 -9.9363 0.0000 0.0000 0.0000
# 2 -4.6092 80.8352 6.9722 0.0000 0.0000 0.0000
# 3 -9.9363 6.9722 23.1142 0.0000 0.0000 0.0000
# 4 0.0000 0.0000 0.0000 17.8783 0.0000 0.0000
# 5 0.0000 0.0000 0.0000 0.0000 15.0320 0.0000
# 6 0.0000 0.0000 0.0000 0.0000 0.0000 24.5777
#
#
#
# Elastic Compliance Matrix: (Units=1/GPa)
#
#
# Indices 1 2 3 4 5 6 
#
# 1 0.037510 0.000768 0.015893 0.000000 0.000000 0.000000
# 2 0.000768 0.012717 -0.003506 0.000000 0.000000 0.000000
# 3 0.015893 -0.003506 0.051153 0.000000 0.000000 0.000000
# 4 0.000000 0.000000 0.000000 0.055934 0.000000 0.000000
# 5 0.000000 0.000000 0.000000 0.000000 0.066525 0.000000
# 6 0.000000 0.000000 0.000000 0.000000 0.000000 0.040687
#
#
# Mechanical properties :
#
#
# Convention : Reuss Voigt Hill
#
# Bulk Modulus (GPa) = 7.83142 13.30740 10.56941
# Shear Modulus (GPa) = 17.80759 20.99669 19.40214
#
# Velocity S-wave (km/s) = 3.11236 3.37958 3.24872
# Velocity P-wave (km/s) = 4.14437 4.74000 4.45216
#
# Compressibility (1/GPa) = 0.12769082
#
# Stress axis : x y z
#
# Youngs Moduli (GPa) = 26.65946 78.63472 19.54917
#
# Poissons Ratio (x) = -0.06039 -0.31070
# Poissons Ratio (y) = -0.02047 0.06854
# Poissons Ratio (z) = -0.42370 0.27568
#
# Static dielectric constant tensor:
#      x y z
#    x 1.639190 0.000000 0.000000 
#    y 0.000000 1.685040 0.000000 
#    z 0.000000 0.000000 1.626580 
# 
# From -- ./inp_files/4159.got.cif
#   From: 2010.05.17/outbox.cif.g08.bks.cpg/sg63_3_cif.got.tgz:4159.got - 2010.06.03 15:47:04.
