data_PCOD9468034
_publ_section_title
;
Structure prediction by ZEFSAII (Michael W. Deem and Ramdas Pophale) SiO2 
 PCOD9468034
Probable space group: P N M A
;
_chemical_formula_sum "Si O2"
_cell_formula_units_Z 56
_cell_length_a 21.000000
_cell_length_b 9.000000
_cell_length_c 15.000000
_cell_angle_alpha 90.000000
_cell_angle_beta 90.000000
_cell_angle_gamma 90.000000
_cell_volume 2835.000000
_symmetry_space_group_name_H-M "P N M A"
_symmetry_group_IT_number 62
_symmetry_cell_setting 'orthorhombic'
loop_
_space_group_symop_operation_xyz
x,y,z
1/2-x,-y,1/2+z
1/2+x,1/2-y,1/2-z
-x,1/2+y,-z
-x,-y,-z
1/2+x,y,1/2-z
1/2-x,1/2+y,1/2+z
x,1/2-y,z
loop_
_atom_site_type_symbol
_atom_site_label
_atom_site_fract_x
_atom_site_fract_y
_atom_site_fract_z
Si Si1 0.015835 0.574453 0.273262
Si Si2 0.153334 0.928846 0.349293
Si Si3 0.608778 0.573869 0.734291
Si Si4 0.238630 0.426461 0.701354
Si Si5 0.049732 0.925985 0.067376
Si Si6 0.763580 0.925245 0.512049
Si Si7 0.138801 0.075184 0.946462
O O1 0.002382 0.750000 0.284022
O O2 0.079993 0.537665 0.326094
O O3 0.034070 0.549100 0.169735
O O4 0.951431 0.484100 0.290700
O O5 0.158672 0.750000 0.363215
O O6 0.200167 0.964183 0.264069
O O7 0.173459 0.019604 0.437278
O O8 0.607518 0.750000 0.726621
O O9 0.676474 0.517714 0.770018
O O10 0.603694 0.499707 0.636640
O O11 0.226855 0.250000 0.715951
O O12 0.242901 0.447539 0.594276
O O13 0.052598 0.750000 0.051857
O O14 0.114786 0.002578 0.037758
O O15 0.000000 0.000000 0.000000
O O16 0.752429 0.750000 0.529335
O O17 0.711579 0.028535 0.560082
O O18 0.128533 0.250000 0.944917
#
# Coordination Sequence:
#
# PCOD9468034 Si02
#       7
#     8   8   8   8   8   8   8
#     4  10  22  40  61  86 124 168 205 250 316 378
#     4  10  21  40  65  91 122 165 207 251 310 376
#     4  12  24  38  61  91 122 159 208 257 303 364
#     4  10  22  42  66  91 125 165 204 252 317 375
#     4  11  21  34  55  85 119 158 200 246 302 368
#     4  11  23  40  64  94 123 158 206 261 312 366
#     4  12  23  37  58  85 122 165 202 248 308 368
#
# _framework density 19.753086
#
# number of rings (size 3 to 8) (size 9 to 14) (size 15 to 20)
#    0.000    1.143    2.857    4.286    0.000    4.571 
#    0.000    2.143    0.000    0.000    0.000    0.000 
#    0.000    0.000    0.000    0.000    0.000    0.000 
#
# Total GULP energy -312702.867557 kJ/mol
# GULP energy per Si atom -5583.979778 kJ/mol
# Density = 1.970813 g / cm^3
# Si number density = 19.753086 Si / 1000 Ang^3
#
#
#
# Elastic Constant Matrix: (Units=GPa)
#
#
# Indices 1 2 3 4 5 6 
#
# 1 69.7992 10.6631 -6.8661 0.0000 0.0000 0.0000
# 2 10.6631 20.3918 14.2086 0.0000 0.0000 0.0000
# 3 -6.8661 14.2086 33.4559 0.0000 0.0000 0.0000
# 4 0.0000 0.0000 0.0000 27.3318 0.0000 0.0000
# 5 0.0000 0.0000 0.0000 0.0000 26.4983 0.0000
# 6 0.0000 0.0000 0.0000 0.0000 0.0000 31.1215
#
#
#
# Elastic Compliance Matrix: (Units=1/GPa)
#
#
# Indices 1 2 3 4 5 6 
#
# 1 0.018003 -0.017027 0.010926 0.000000 0.000000 0.000000
# 2 -0.017027 0.085754 -0.039913 0.000000 0.000000 0.000000
# 3 0.010926 -0.039913 0.049083 0.000000 0.000000 0.000000
# 4 0.000000 0.000000 0.000000 0.036587 0.000000 0.000000
# 5 0.000000 0.000000 0.000000 0.000000 0.037738 0.000000
# 6 0.000000 0.000000 0.000000 0.000000 0.000000 0.032132
#
#
# Mechanical properties :
#
#
# Convention : Reuss Voigt Hill
#
# Bulk Modulus (GPa) = 16.44438 17.73978 17.09208
# Shear Modulus (GPa) = 13.45546 24.03307 18.74427
#
# Velocity S-wave (km/s) = 2.61278 3.49187 3.08381
# Velocity P-wave (km/s) = 4.17674 5.02571 4.62077
#
# Compressibility (1/GPa) = 0.06081104
#
# Stress axis : x y z
#
# Youngs Moduli (GPa) = 55.54730 11.66133 20.37347
#
# Poissons Ratio (x) = 0.19855 -0.22260
# Poissons Ratio (y) = 0.94578 0.81318
# Poissons Ratio (z) = -0.60690 0.46544
#
# Static dielectric constant tensor:
#      x y z
#    x 1.744410 0.000000 0.000000 
#    y 0.000000 1.648390 0.000000 
#    z 0.000000 0.000000 1.696180 
# 
# From -- ./inp_files/20387.got.cif
#   From: 2010.05.17/outbox.ucp.g08.bks.cvg/sg62_11_cif.got.tgz:20387.got - 2010.06.11 16:29:25.
