data_PCOD9468129
_publ_section_title
;
Structure prediction by ZEFSAII (Michael W. Deem and Ramdas Pophale) SiO2 
 PCOD9468129
Probable space group: C M C M
;
_chemical_formula_sum "Si O2"
_cell_formula_units_Z 84
_cell_length_a 25.926102
_cell_length_b 7.790955
_cell_length_c 20.921018
_cell_angle_alpha 90.000000
_cell_angle_beta 90.000000
_cell_angle_gamma 90.000000
_cell_volume 4225.817472
_symmetry_space_group_name_H-M "C M C M"
_symmetry_group_IT_number 63
_symmetry_cell_setting 'orthorhombic'
loop_
_space_group_symop_operation_xyz
x,y,z
-x,-y,1/2+z
x,-y,-z
-x,y,1/2-z
-x,-y,-z
x,y,1/2-z
-x,y,z
x,-y,1/2+z
1/2+x,1/2+y,z
1/2-x,1/2-y,1/2+z
1/2+x,1/2-y,-z
1/2-x,1/2+y,1/2-z
1/2-x,1/2-y,-z
1/2+x,1/2+y,1/2-z
1/2-x,1/2+y,z
1/2+x,1/2-y,1/2+z
loop_
_atom_site_type_symbol
_atom_site_label
_atom_site_fract_x
_atom_site_fract_y
_atom_site_fract_z
Si Si1 0.500000 0.270428 0.958663
Si Si2 0.500000 0.502798 0.750000
Si Si3 0.908853 0.519256 0.324108
Si Si4 0.923580 0.128733 0.356299
Si Si5 0.500000 0.875221 0.592383
Si Si6 0.687310 0.521704 0.323821
Si Si7 0.798592 0.615346 0.176563
O O1 0.548963 0.357645 0.924808
O O2 0.500000 0.069761 0.936264
O O3 0.500000 0.258626 0.034690
O O4 0.544846 0.486628 0.806476
O O5 0.908951 0.575255 0.250000
O O6 0.926961 0.322449 0.327694
O O7 0.850377 0.529375 0.350048
O O8 0.949056 0.630898 0.364191
O O9 0.864099 0.078154 0.359223
O O10 0.682485 0.585952 0.250000
O O11 0.742007 0.584656 0.351536
O O12 0.690410 0.316736 0.322176
O O13 0.794121 0.549647 0.250000
#
# Coordination Sequence:
#
# PCOD9468129 Si02
#       7
#     8   4  16  16   8  16  16
#     4   8  18  30  45  74  91 133 162 199 229 284
#     4  10  16  26  42  72  90 126 154 194 220 278
#     4  10  17  28  48  75  96 127 157 199 234 286
#     4  10  17  27  50  68 101 123 166 193 233 278
#     4   9  17  30  49  67 102 124 163 197 239 276
#     4  10  17  30  46  69  99 132 152 199 240 291
#     4   9  19  29  45  70 102 125 161 189 248 292
#
# _framework density 19.877811000000001
#
# number of rings (size 3 to 8) (size 9 to 14) (size 15 to 20)
#    0.000    2.476    1.905    2.000    0.000    3.048 
#    0.000    1.905    0.000    3.429    0.000    0.000 
#    0.000    0.000    0.000    0.000    0.000    0.000 
#
# Total GULP energy -233864.315801 kJ/mol
# GULP energy per Si atom -5568.197995 kJ/mol
# Density = 1.983257 g / cm^3
# Si number density = 19.877811 Si / 1000 Ang^3
#
#
#
# Elastic Constant Matrix: (Units=GPa)
#
#
# Indices 1 2 3 4 5 6 
#
# 1 174.4652 12.6116 35.4704 0.0000 0.0000 0.0000
# 2 12.6116 46.4884 15.9813 0.0000 0.0000 0.0000
# 3 35.4704 15.9813 42.9975 0.0000 0.0000 0.0000
# 4 0.0000 0.0000 0.0000 6.6881 0.0000 0.0000
# 5 0.0000 0.0000 0.0000 0.0000 10.7053 0.0000
# 6 0.0000 0.0000 0.0000 0.0000 0.0000 15.8143
#
#
#
# Elastic Compliance Matrix: (Units=1/GPa)
#
#
# Indices 1 2 3 4 5 6 
#
# 1 0.006887 0.000097 -0.005718 0.000000 0.000000 0.000000
# 2 0.000097 0.024663 -0.009247 0.000000 0.000000 0.000000
# 3 -0.005718 -0.009247 0.031411 0.000000 0.000000 0.000000
# 4 0.000000 0.000000 0.000000 0.149519 0.000000 0.000000
# 5 0.000000 0.000000 0.000000 0.000000 0.093412 0.000000
# 6 0.000000 0.000000 0.000000 0.000000 0.000000 0.063234
#
#
# Mechanical properties :
#
#
# Convention : Reuss Voigt Hill
#
# Bulk Modulus (GPa) = 30.09665 43.56420 36.83043
# Shear Modulus (GPa) = 12.19699 19.96737 16.08218
#
# Velocity S-wave (km/s) = 2.47978 3.17283 2.84747
# Velocity P-wave (km/s) = 4.83454 5.94862 5.42028
#
# Compressibility (1/GPa) = 0.03322629
#
# Stress axis : x y z
#
# Youngs Moduli (GPa) = 145.19602 40.54616 31.83611
#
# Poissons Ratio (x) = -0.00394 0.18203
# Poissons Ratio (y) = -0.01411 0.29439
# Poissons Ratio (z) = 0.83019 0.37493
#
# Static dielectric constant tensor:
#      x y z
#    x 1.731370 0.000000 0.000000 
#    y 0.000000 1.753140 0.000000 
#    z 0.000000 0.000000 1.679590 
# 
# From -- ./inp_files/56506.got.cif
#   From: 2010.05.17/outbox.cif.g08.bks.cpg/sg63_29_cif.got.tgz:56506.got - 2010.06.03 15:47:04.
