data_PCOD9468810
_publ_section_title
;
Structure prediction by ZEFSAII (Michael W. Deem and Ramdas Pophale) SiO2 
 PCOD9468810
Probable space group: C M C M
;
_chemical_formula_sum "Si O2"
_cell_formula_units_Z 80
_cell_length_a 7.752547
_cell_length_b 23.633719
_cell_length_c 25.232492
_cell_angle_alpha 90.000000
_cell_angle_beta 90.000000
_cell_angle_gamma 90.000000
_cell_volume 4623.135470
_symmetry_space_group_name_H-M "C M C M"
_symmetry_group_IT_number 63
_symmetry_cell_setting 'orthorhombic'
loop_
_space_group_symop_operation_xyz
x,y,z
-x,-y,1/2+z
x,-y,-z
-x,y,1/2-z
-x,-y,-z
x,y,1/2-z
-x,y,z
x,-y,1/2+z
1/2+x,1/2+y,z
1/2-x,1/2-y,1/2+z
1/2+x,1/2-y,-z
1/2-x,1/2+y,1/2-z
1/2-x,1/2-y,-z
1/2+x,1/2+y,1/2-z
1/2-x,1/2+y,z
1/2+x,1/2-y,1/2+z
loop_
_atom_site_type_symbol
_atom_site_label
_atom_site_fract_x
_atom_site_fract_y
_atom_site_fract_z
Si Si1 0.707867 0.934868 0.502590
Si Si2 0.698021 0.937108 0.619762
Si Si3 0.000000 0.754674 0.814110
Si Si4 0.703143 0.331305 0.186671
Si Si5 0.000000 0.114850 0.313539
Si Si6 0.298054 0.433875 0.388313
O O1 0.500000 0.935022 0.500927
O O2 0.754674 0.914560 0.561335
O O3 0.771786 0.909112 0.447599
O O4 0.769707 0.000000 0.500000
O O5 0.500000 0.920276 0.629676
O O6 0.831292 0.915311 0.662873
O O7 0.704466 0.005709 0.616336
O O8 0.170403 0.719531 0.829582
O O9 0.000000 0.819551 0.831275
O O10 0.000000 0.756054 0.750000
O O11 0.721006 0.339982 0.250000
O O12 0.500000 0.319964 0.176004
O O13 0.754633 0.387727 0.154941
O O14 0.000000 0.112049 0.250000
O O15 0.500000 0.445857 0.380711
#
# Coordination Sequence:
#
# PCOD9468810 Si02
#       6
#    16  16   8  16   8  16
#     4   8  16  29  48  76 108 143 182 213 253 319
#     4  10  21  36  53  80 114 146 175 216 271 319
#     4   9  20  38  58  75  96 140 191 221 256 312
#     4   9  19  34  52  79 108 135 172 223 271 312
#     4  11  24  40  57  79 105 140 187 225 259 320
#     4  10  18  29  53  86 114 143 177 216 268 324
#
# _framework density 17.304272999999998
#
# number of rings (size 3 to 8) (size 9 to 14) (size 15 to 20)
#    0.000    2.600    1.000    1.800    4.200    3.200 
#    0.000    2.000    0.000    1.200    0.000    0.000 
#    0.000    0.000    0.000    0.000    0.000    0.000 
#
# Total GULP energy -222815.924002 kJ/mol
# GULP energy per Si atom -5570.398100 kJ/mol
# Density = 1.726489 g / cm^3
# Si number density = 17.304273 Si / 1000 Ang^3
#
#
#
# Elastic Constant Matrix: (Units=GPa)
#
#
# Indices 1 2 3 4 5 6 
#
# 1 74.7793 36.4974 43.7423 0.0000 0.0000 0.0000
# 2 36.4974 66.8869 42.1983 0.0000 0.0000 0.0000
# 3 43.7423 42.1983 90.2817 0.0000 0.0000 0.0000
# 4 0.0000 0.0000 0.0000 -5.2977 0.0000 0.0000
# 5 0.0000 0.0000 0.0000 0.0000 16.7679 0.0000
# 6 0.0000 0.0000 0.0000 0.0000 0.0000 10.1074
#
#
#
# Elastic Compliance Matrix: (Units=1/GPa)
#
#
# Indices 1 2 3 4 5 6 
#
# 1 0.020780 -0.007073 -0.006762 0.000000 0.000000 0.000000
# 2 -0.007073 0.023610 -0.007609 0.000000 0.000000 0.000000
# 3 -0.006762 -0.007609 0.017909 0.000000 0.000000 0.000000
# 4 0.000000 0.000000 0.000000 -0.188762 0.000000 0.000000
# 5 0.000000 0.000000 0.000000 0.000000 0.059638 0.000000
# 6 0.000000 0.000000 0.000000 0.000000 0.000000 0.098938
#
#
# Mechanical properties :
#
#
# Convention : Reuss Voigt Hill
#
# Bulk Modulus (GPa) = 51.51436 52.98041 52.24739
# Shear Modulus (GPa) = 61.37165 11.61620 36.49392
#
# Velocity S-wave (km/s) = 5.96181 2.59374 4.59732
# Velocity P-wave (km/s) = 8.78779 6.29709 7.64456
#
# Compressibility (1/GPa) = 0.01941206
#
# Stress axis : x y z
#
# Youngs Moduli (GPa) = 48.12249 42.35472 55.83677
#
# Poissons Ratio (x) = 0.29956 0.37760
# Poissons Ratio (y) = 0.34035 0.42485
# Poissons Ratio (z) = 0.32543 0.32227
#
# Static dielectric constant tensor:
#      x y z
#    x 1.601180 0.000000 0.000000 
#    y 0.000000 1.564420 0.000000 
#    z 0.000000 0.000000 1.607880 
# 
# From -- ./inp_files/59488.got.cif
#   From: 2010.05.17/outbox.cif.g08.bks.cpg/sg63_30_cif.got.tgz:59488.got - 2010.06.03 15:47:04.
