data_PCOD9468626
_publ_section_title
;
Structure prediction by ZEFSAII (Michael W. Deem and Ramdas Pophale) SiO2 
 PCOD9468626
Probable space group: C M C M
;
_chemical_formula_sum "Si O2"
_cell_formula_units_Z 80
_cell_length_a 7.688966
_cell_length_b 20.112249
_cell_length_c 26.947186
_cell_angle_alpha 90.000000
_cell_angle_beta 90.000000
_cell_angle_gamma 90.000000
_cell_volume 4167.177482
_symmetry_space_group_name_H-M "C M C M"
_symmetry_group_IT_number 63
_symmetry_cell_setting 'orthorhombic'
loop_
_space_group_symop_operation_xyz
x,y,z
-x,-y,1/2+z
x,-y,-z
-x,y,1/2-z
-x,-y,-z
x,y,1/2-z
-x,y,z
x,-y,1/2+z
1/2+x,1/2+y,z
1/2-x,1/2-y,1/2+z
1/2+x,1/2-y,-z
1/2-x,1/2+y,1/2-z
1/2-x,1/2-y,-z
1/2+x,1/2+y,1/2-z
1/2-x,1/2+y,z
1/2+x,1/2-y,1/2+z
loop_
_atom_site_type_symbol
_atom_site_label
_atom_site_fract_x
_atom_site_fract_y
_atom_site_fract_z
Si Si1 0.209426 0.325650 0.357540
Si Si2 0.287148 0.075528 0.557143
Si Si3 0.708277 0.326094 0.643782
Si Si4 0.202196 0.811017 0.250000
Si Si5 0.790892 0.576372 0.054576
Si Si6 0.197172 0.839760 0.750000
O O1 0.274183 0.374597 0.400321
O O2 0.273209 0.249476 0.363672
O O3 0.256093 0.346977 0.301542
O O4 0.000000 0.324497 0.360945
O O5 0.500000 0.076265 0.557849
O O6 0.232368 0.094640 0.501213
O O7 0.232309 0.999131 0.565498
O O8 0.500000 0.321065 0.650291
O O9 0.740840 0.372343 0.596987
O O10 0.778081 0.355064 0.696255
O O11 0.305850 0.741261 0.250000
O O12 0.000000 0.793322 0.250000
O O13 0.000000 0.574458 0.052995
O O14 0.000000 0.866437 0.750000
#
# Coordination Sequence:
#
# PCOD9468626 Si02
#       6
#    16  16  16   8  16   8
#     4   9  17  32  51  67  90 127 161 183 217 280
#     4   8  16  32  51  67  88 124 162 189 222 274
#     4   9  17  29  47  70  93 121 155 187 225 276
#     4  10  18  28  45  72  99 117 145 195 241 266
#     4   9  17  31  50  70  92 119 154 196 234 266
#     4   8  16  32  49  64  91 131 161 179 217 282
#
# _framework density 19.197647
#
# number of rings (size 3 to 8) (size 9 to 14) (size 15 to 20)
#    0.000    3.200    0.000    3.300    0.000    4.000 
#    0.000    5.000    0.000    3.600    0.000    0.000 
#    0.000    0.000    0.000    0.000    0.000    0.000 
#
# Total GULP energy -222808.755463 kJ/mol
# GULP energy per Si atom -5570.218887 kJ/mol
# Density = 1.915395 g / cm^3
# Si number density = 19.197647 Si / 1000 Ang^3
#
#
#
# Elastic Constant Matrix: (Units=GPa)
#
#
# Indices 1 2 3 4 5 6 
#
# 1 36.1403 3.8409 1.5098 0.0000 0.0000 0.0000
# 2 3.8409 81.9504 111.1023 0.0000 0.0000 0.0000
# 3 1.5098 111.1023 223.6331 0.0000 0.0000 0.0000
# 4 0.0000 0.0000 0.0000 -36.4330 0.0000 0.0000
# 5 0.0000 0.0000 0.0000 0.0000 18.7770 0.0000
# 6 0.0000 0.0000 0.0000 0.0000 0.0000 4.0319
#
#
#
# Elastic Compliance Matrix: (Units=1/GPa)
#
#
# Indices 1 2 3 4 5 6 
#
# 1 0.027954 -0.003229 0.001416 0.000000 0.000000 0.000000
# 2 -0.003229 0.037751 -0.018733 0.000000 0.000000 0.000000
# 3 0.001416 -0.018733 0.013769 0.000000 0.000000 0.000000
# 4 0.000000 0.000000 0.000000 -0.027448 0.000000 0.000000
# 5 0.000000 0.000000 0.000000 0.000000 0.053257 0.000000
# 6 0.000000 0.000000 0.000000 0.000000 0.000000 0.248021
#
#
# Mechanical properties :
#
#
# Convention : Reuss Voigt Hill
#
# Bulk Modulus (GPa) = 26.05530 63.84778 44.95154
# Shear Modulus (GPa) = 12.27926 12.29322 12.28624
#
# Velocity S-wave (km/s) = 2.53182 2.53326 2.53254
# Velocity P-wave (km/s) = 4.70621 6.47201 5.65841
#
# Compressibility (1/GPa) = 0.03837991
#
# Stress axis : x y z
#
# Youngs Moduli (GPa) = 35.77299 26.48961 72.62848
#
# Poissons Ratio (x) = 0.08555 -0.10282
# Poissons Ratio (y) = 0.11553 1.36055
# Poissons Ratio (z) = -0.05064 0.49623
#
# Static dielectric constant tensor:
#      x y z
#    x 1.724790 0.000000 0.000000 
#    y 0.000000 1.636900 0.000000 
#    z 0.000000 0.000000 1.703860 
# 
# From -- ./inp_files/59474.got.cif
#   From: 2010.05.17/outbox.cif.g08.bks.cpg/sg63_30_cif.got.tgz:59474.got - 2010.06.03 15:47:04.
