data_PCOD9468610
_publ_section_title
;
Structure prediction by ZEFSAII (Michael W. Deem and Ramdas Pophale) SiO2 
 PCOD9468610
Probable space group: C M C M
;
_chemical_formula_sum "Si O2"
_cell_formula_units_Z 80
_cell_length_a 25.784310
_cell_length_b 21.210163
_cell_length_c 8.126524
_cell_angle_alpha 90.000000
_cell_angle_beta 90.000000
_cell_angle_gamma 90.000000
_cell_volume 4444.309980
_symmetry_space_group_name_H-M "C M C M"
_symmetry_group_IT_number 63
_symmetry_cell_setting 'orthorhombic'
loop_
_space_group_symop_operation_xyz
x,y,z
-x,-y,1/2+z
x,-y,-z
-x,y,1/2-z
-x,-y,-z
x,y,1/2-z
-x,y,z
x,-y,1/2+z
1/2+x,1/2+y,z
1/2-x,1/2-y,1/2+z
1/2+x,1/2-y,-z
1/2-x,1/2+y,1/2-z
1/2-x,1/2-y,-z
1/2+x,1/2+y,1/2-z
1/2-x,1/2+y,z
1/2+x,1/2-y,1/2+z
loop_
_atom_site_type_symbol
_atom_site_label
_atom_site_fract_x
_atom_site_fract_y
_atom_site_fract_z
Si Si1 0.000000 0.737267 0.061703
Si Si2 0.107522 0.755045 0.945682
Si Si3 0.275631 0.932209 0.448373
Si Si4 0.612049 0.107592 0.951020
Si Si5 0.500000 0.097416 0.559697
Si Si6 0.214878 0.808937 0.053203
O O1 0.000000 0.715495 0.250000
O O2 0.947153 0.773741 0.024945
O O3 0.000000 0.674231 0.949167
O O4 0.101965 0.755531 0.750000
O O5 0.116547 0.681704 0.996138
O O6 0.156778 0.796167 0.993695
O O7 0.277258 0.928905 0.250000
O O8 0.335218 0.924917 0.508102
O O9 0.241379 0.873409 0.507761
O O10 0.255062 0.000000 0.500000
O O11 0.610290 0.105110 0.750000
O O12 0.556560 0.080903 0.012630
O O13 0.500000 0.077123 0.750000
O O14 0.214667 0.810908 0.250000
O O15 0.250000 0.750000 0.000000
#
# Coordination Sequence:
#
# PCOD9468610 Si02
#       6
#     8  16  16  16   8  16
#     4  10  18  28  44  75 110 135 165 208 259 309
#     4  10  18  32  52  75 103 137 173 212 262 312
#     4  10  21  36  50  70 102 138 176 217 264 313
#     4   8  14  28  47  68  95 130 170 212 255 302
#     4   8  14  26  47  67  91 133 175 212 261 305
#     4  11  21  34  53  78 106 135 174 223 268 314
#
# _framework density 18.000544000000001
#
# number of rings (size 3 to 8) (size 9 to 14) (size 15 to 20)
#    0.000    2.400    2.000    3.300    0.000    1.600 
#    0.000    1.500    0.000    0.000    0.000    0.700 
#    0.000    0.000    0.000    0.000    0.000    0.000 
#
# Total GULP energy -223069.721443 kJ/mol
# GULP energy per Si atom -5576.743036 kJ/mol
# Density = 1.795957 g / cm^3
# Si number density = 18.000544 Si / 1000 Ang^3
#
#
#
# Elastic Constant Matrix: (Units=GPa)
#
#
# Indices 1 2 3 4 5 6 
#
# 1 134.0757 55.9822 11.1557 0.0000 0.0000 0.0000
# 2 55.9822 95.1128 6.0785 0.0000 0.0000 0.0000
# 3 11.1557 6.0785 29.4982 0.0000 0.0000 0.0000
# 4 0.0000 0.0000 0.0000 13.6437 0.0000 0.0000
# 5 0.0000 0.0000 0.0000 0.0000 23.9664 0.0000
# 6 0.0000 0.0000 0.0000 0.0000 0.0000 11.2542
#
#
#
# Elastic Compliance Matrix: (Units=1/GPa)
#
#
# Indices 1 2 3 4 5 6 
#
# 1 0.010085 -0.005768 -0.002626 0.000000 0.000000 0.000000
# 2 -0.005768 0.013953 -0.000694 0.000000 0.000000 0.000000
# 3 -0.002626 -0.000694 0.035036 0.000000 0.000000 0.000000
# 4 0.000000 0.000000 0.000000 0.073294 0.000000 0.000000
# 5 0.000000 0.000000 0.000000 0.000000 0.041725 0.000000
# 6 0.000000 0.000000 0.000000 0.000000 0.000000 0.088856
#
#
# Mechanical properties :
#
#
# Convention : Reuss Voigt Hill
#
# Bulk Modulus (GPa) = 24.45003 45.01329 34.73166
# Shear Modulus (GPa) = 16.96302 22.13753 19.55027
#
# Velocity S-wave (km/s) = 3.07312 3.51069 3.29917
# Velocity P-wave (km/s) = 5.11904 6.44160 5.81802
#
# Compressibility (1/GPa) = 0.04089975
#
# Stress axis : x y z
#
# Youngs Moduli (GPa) = 99.15246 71.66720 28.54189
#
# Poissons Ratio (x) = 0.41341 0.07494
# Poissons Ratio (y) = 0.57195 0.01980
# Poissons Ratio (z) = 0.26033 0.04972
#
# Static dielectric constant tensor:
#      x y z
#    x 1.662210 0.000000 0.000000 
#    y 0.000000 1.598860 0.000000 
#    z 0.000000 0.000000 1.644070 
# 
# From -- ./inp_files/10062.got.cif
#   From: 2010.05.17/outbox.cif.g08.bks.cpg/sg63_6_cif.got.tgz:10062.got - 2010.06.03 15:47:04.
