data_PCOD9468916
_publ_section_title
;
Structure prediction by ZEFSAII (Michael W. Deem and Ramdas Pophale) SiO2 
 PCOD9468916
Probable space group: C M C M
;
_chemical_formula_sum "Si O2"
_cell_formula_units_Z 112
_cell_length_a 12.959183
_cell_length_b 28.977316
_cell_length_c 19.211728
_cell_angle_alpha 90.000000
_cell_angle_beta 90.000000
_cell_angle_gamma 90.000000
_cell_volume 7214.433071
_symmetry_space_group_name_H-M "C M C M"
_symmetry_group_IT_number 63
_symmetry_cell_setting 'orthorhombic'
loop_
_space_group_symop_operation_xyz
x,y,z
-x,-y,1/2+z
x,-y,-z
-x,y,1/2-z
-x,-y,-z
x,y,1/2-z
-x,y,z
x,-y,1/2+z
1/2+x,1/2+y,z
1/2-x,1/2-y,1/2+z
1/2+x,1/2-y,-z
1/2-x,1/2+y,1/2-z
1/2-x,1/2-y,-z
1/2+x,1/2+y,1/2-z
1/2-x,1/2+y,z
1/2+x,1/2-y,1/2+z
loop_
_atom_site_type_symbol
_atom_site_label
_atom_site_fract_x
_atom_site_fract_y
_atom_site_fract_z
Si Si1 0.125331 0.483789 0.329196
Si Si2 0.878882 0.786269 0.938945
Si Si3 0.768706 0.328077 0.666844
Si Si4 0.115890 0.233752 0.832938
Si Si5 0.123472 0.591348 0.557237
Si Si6 0.376423 0.081771 0.395015
Si Si7 0.230468 0.310364 0.066461
O O1 0.160133 0.475092 0.250000
O O2 0.159166 0.445945 0.385726
O O3 0.152892 0.535106 0.354707
O O4 0.000000 0.482493 0.328975
O O5 0.836687 0.811364 0.869570
O O6 0.851202 0.731760 0.936406
O O7 0.000000 0.793090 0.949699
O O8 0.806561 0.805831 0.000412
O O9 0.759523 0.332340 0.750000
O O10 0.847705 0.285924 0.650887
O O11 0.814175 0.374574 0.634024
O O12 0.116737 0.228957 0.750000
O O13 0.197228 0.199839 0.867664
O O14 0.000000 0.226331 0.859176
O O15 0.141936 0.575839 0.477550
O O16 0.176402 0.640577 0.567907
O O17 0.000000 0.596508 0.564687
O O18 0.500000 0.089568 0.385295
#
# Coordination Sequence:
#
# PCOD9468916 Si02
#       7
#    16  16  16  16  16  16  16
#     4   9  18  31  47  70 100 131 161 195 239 290
#     4  10  20  33  48  69  98 130 165 202 239 283
#     4  10  19  31  48  72  98 127 163 200 244 294
#     4   9  18  31  47  70  99 128 161 203 242 278
#     4  10  19  31  48  72 101 131 163 198 239 289
#     4  10  18  30  49  73 101 130 159 197 243 291
#     4  10  19  32  49  71  95 132 166 198 235 287
#
# _framework density 15.524435
#
# number of rings (size 3 to 8) (size 9 to 14) (size 15 to 20)
#    0.000    2.286    1.429    2.143    0.000    4.000 
#    0.000    0.000    0.000    2.571    0.000    3.000 
#    0.000    2.286    0.000    0.000    0.000    0.000 
#
# Total GULP energy -312228.151359 kJ/mol
# GULP energy per Si atom -5575.502703 kJ/mol
# Density = 1.548910 g / cm^3
# Si number density = 15.524435 Si / 1000 Ang^3
#
#
#
# Elastic Constant Matrix: (Units=GPa)
#
#
# Indices 1 2 3 4 5 6 
#
# 1 51.7129 25.9668 33.0849 0.0000 0.0000 0.0000
# 2 25.9668 73.8450 46.0665 0.0000 0.0000 0.0000
# 3 33.0849 46.0665 85.4602 0.0000 0.0000 0.0000
# 4 0.0000 0.0000 0.0000 25.8841 0.0000 0.0000
# 5 0.0000 0.0000 0.0000 0.0000 17.1799 0.0000
# 6 0.0000 0.0000 0.0000 0.0000 0.0000 21.4558
#
#
#
# Elastic Compliance Matrix: (Units=1/GPa)
#
#
# Indices 1 2 3 4 5 6 
#
# 1 0.026628 -0.004418 -0.007927 0.000000 0.000000 0.000000
# 2 -0.004418 0.021136 -0.009683 0.000000 0.000000 0.000000
# 3 -0.007927 -0.009683 0.019989 0.000000 0.000000 0.000000
# 4 0.000000 0.000000 0.000000 0.038634 0.000000 0.000000
# 5 0.000000 0.000000 0.000000 0.000000 0.058207 0.000000
# 6 0.000000 0.000000 0.000000 0.000000 0.000000 0.046608
#
#
# Mechanical properties :
#
#
# Convention : Reuss Voigt Hill
#
# Bulk Modulus (GPa) = 42.19890 46.80605 44.50248
# Shear Modulus (GPa) = 19.00014 19.96396 19.48205
#
# Velocity S-wave (km/s) = 3.50220 3.58993 3.54634
# Velocity P-wave (km/s) = 6.60266 6.88468 6.74515
#
# Compressibility (1/GPa) = 0.02369730
#
# Stress axis : x y z
#
# Youngs Moduli (GPa) = 37.55510 47.31318 50.02643
#
# Poissons Ratio (x) = 0.20904 0.39655
# Poissons Ratio (y) = 0.16593 0.48438
# Poissons Ratio (z) = 0.29770 0.45811
#
# Static dielectric constant tensor:
#      x y z
#    x 1.491110 0.000000 0.000000 
#    y 0.000000 1.493250 0.000000 
#    z 0.000000 0.000000 1.548320 
# 
# From -- ./inp_files/53145.got.cif
#   From: 2010.05.17/outbox.cif.g08.bks.cpg/sg63_27_cif.got.tgz:53145.got - 2010.06.03 15:47:04.
