data_PCOD9468047
_publ_section_title
;
Structure prediction by ZEFSAII (Michael W. Deem and Ramdas Pophale) SiO2 
 PCOD9468047
Probable space group: P N M A
;
_chemical_formula_sum "Si O2"
_cell_formula_units_Z 44
_cell_length_a 9.000000
_cell_length_b 12.000000
_cell_length_c 24.000000
_cell_angle_alpha 90.000000
_cell_angle_beta 90.000000
_cell_angle_gamma 90.000000
_cell_volume 2592.000000
_symmetry_space_group_name_H-M "P N M A"
_symmetry_group_IT_number 62
_symmetry_cell_setting 'orthorhombic'
loop_
_space_group_symop_operation_xyz
x,y,z
1/2-x,-y,1/2+z
1/2+x,1/2-y,1/2-z
-x,1/2+y,-z
-x,-y,-z
1/2+x,y,1/2-z
1/2-x,1/2+y,1/2+z
x,1/2-y,z
loop_
_atom_site_type_symbol
_atom_site_label
_atom_site_fract_x
_atom_site_fract_y
_atom_site_fract_z
Si Si1 0.011658 0.750000 0.845107
Si Si2 0.210917 0.381851 0.727312
Si Si3 0.656434 0.250000 0.111568
Si Si4 0.892959 0.381156 0.669309
Si Si5 0.568574 0.750000 0.787941
Si Si6 0.997302 0.530858 0.566443
Si Si7 0.764710 0.569807 0.851486
O O1 0.168789 0.750000 0.876333
O O2 0.035963 0.750000 0.777679
O O3 0.911232 0.642794 0.860848
O O4 0.246352 0.250000 0.723417
O O5 0.257983 0.418116 0.789880
O O6 0.295651 0.455456 0.681185
O O7 0.039195 0.395216 0.708734
O O8 0.577044 0.250000 0.172716
O O9 0.596078 0.356806 0.077908
O O10 0.875797 0.250000 0.657602
O O11 0.923392 0.443454 0.610865
O O12 0.663827 0.643545 0.808609
O O13 0.162389 0.550592 0.593635
O O14 0.000000 0.500000 0.500000
#
# Coordination Sequence:
#
# PCOD9468047 Si02
#       7
#     4   8   4   8   4   8   8
#     4  11  21  33  57  85 119 143 174 238 286 337
#     4   9  18  32  50  79 114 137 176 221 274 334
#     4  10  22  36  56  88 106 144 193 221 281 331
#     4   9  19  33  54  82 107 140 176 222 279 324
#     4   9  19  33  53  85 119 147 173 217 279 342
#     4  10  22  39  58  78 108 149 194 230 262 334
#     4   9  20  34  54  83 114 148 180 227 286 323
#
# _framework density 16.975308999999999
#
# number of rings (size 3 to 8) (size 9 to 14) (size 15 to 20)
#    0.000    2.545    0.000    1.636   11.455    0.000 
#    0.000    0.909    0.000    0.000    0.000    0.000 
#    0.000    0.000    0.000    0.000    0.000    0.000 
#
# Total GULP energy -245226.928937 kJ/mol
# GULP energy per Si atom -5573.339294 kJ/mol
# Density = 1.693667 g / cm^3
# Si number density = 16.975309 Si / 1000 Ang^3
#
#
#
# Elastic Constant Matrix: (Units=GPa)
#
#
# Indices 1 2 3 4 5 6 
#
# 1 77.1697 31.8486 48.4626 0.0000 0.0000 0.0000
# 2 31.8486 81.5450 53.8378 0.0000 0.0000 0.0000
# 3 48.4626 53.8378 162.9077 0.0000 0.0000 0.0000
# 4 0.0000 0.0000 0.0000 26.0339 0.0000 0.0000
# 5 0.0000 0.0000 0.0000 0.0000 23.1667 0.0000
# 6 0.0000 0.0000 0.0000 0.0000 0.0000 15.8698
#
#
#
# Elastic Compliance Matrix: (Units=1/GPa)
#
#
# Indices 1 2 3 4 5 6 
#
# 1 0.017001 -0.004222 -0.003662 0.000000 0.000000 0.000000
# 2 -0.004222 0.016734 -0.004274 0.000000 0.000000 0.000000
# 3 -0.003662 -0.004274 0.008640 0.000000 0.000000 0.000000
# 4 0.000000 0.000000 0.000000 0.038411 0.000000 0.000000
# 5 0.000000 0.000000 0.000000 0.000000 0.043165 0.000000
# 6 0.000000 0.000000 0.000000 0.000000 0.000000 0.063013
#
#
# Mechanical properties :
#
#
# Convention : Reuss Voigt Hill
#
# Bulk Modulus (GPa) = 55.37616 65.54671 60.46144
# Shear Modulus (GPa) = 23.00947 25.51228 24.26088
#
# Velocity S-wave (km/s) = 3.68566 3.88094 3.78456
# Velocity P-wave (km/s) = 7.12773 7.66675 7.40215
#
# Compressibility (1/GPa) = 0.01805831
#
# Stress axis : x y z
#
# Youngs Moduli (GPa) = 58.82078 59.75797 115.73456
#
# Poissons Ratio (x) = 0.25230 0.42384
# Poissons Ratio (y) = 0.24835 0.49469
# Poissons Ratio (z) = 0.21541 0.25542
#
# Static dielectric constant tensor:
#      x y z
#    x 1.602840 0.000000 0.000000 
#    y 0.000000 1.628600 0.000000 
#    z 0.000000 0.000000 1.534230 
# 
# From -- ./inp_files/28839.got.cif
#   From: 2010.05.17/outbox.ucp.g08.bks.cvg/sg62_15_cif.got.tgz:28839.got - 2010.06.11 16:29:25.
