data_PCOD9468741
_publ_section_title
;
Structure prediction by ZEFSAII (Michael W. Deem and Ramdas Pophale) SiO2 
 PCOD9468741
Probable space group: C M C M
;
_chemical_formula_sum "Si O2"
_cell_formula_units_Z 96
_cell_length_a 8.531148
_cell_length_b 23.753762
_cell_length_c 26.438803
_cell_angle_alpha 90.000000
_cell_angle_beta 90.000000
_cell_angle_gamma 90.000000
_cell_volume 5357.740388
_symmetry_space_group_name_H-M "C M C M"
_symmetry_group_IT_number 63
_symmetry_cell_setting 'orthorhombic'
loop_
_space_group_symop_operation_xyz
x,y,z
-x,-y,1/2+z
x,-y,-z
-x,y,1/2-z
-x,-y,-z
x,y,1/2-z
-x,y,z
x,-y,1/2+z
1/2+x,1/2+y,z
1/2-x,1/2-y,1/2+z
1/2+x,1/2-y,-z
1/2-x,1/2+y,1/2-z
1/2-x,1/2-y,-z
1/2+x,1/2+y,1/2-z
1/2-x,1/2+y,z
1/2+x,1/2-y,1/2+z
loop_
_atom_site_type_symbol
_atom_site_label
_atom_site_fract_x
_atom_site_fract_y
_atom_site_fract_z
Si Si1 0.188978 0.688550 0.750000
Si Si2 0.325316 0.987596 0.809635
Si Si3 0.315184 0.885086 0.156235
Si Si4 0.811701 0.063218 0.558415
Si Si5 0.308462 0.566352 0.056723
Si Si6 0.184875 0.686109 0.250000
Si Si7 0.820391 0.880721 0.845195
O O1 0.247069 0.658316 0.698374
O O2 0.231844 0.753619 0.750000
O O3 0.000000 0.681336 0.750000
O O4 0.331459 0.979291 0.750000
O O5 0.500000 0.972545 0.829972
O O6 0.193295 0.946280 0.829693
O O7 0.297385 0.052717 0.820112
O O8 0.500000 0.873905 0.149691
O O9 0.241881 0.893011 0.100922
O O10 0.762005 0.077690 0.501190
O O11 0.000000 0.061189 0.558890
O O12 0.757002 0.998367 0.568599
O O13 0.500000 0.566113 0.058715
O O14 0.257105 0.613286 0.097416
O O15 0.232567 0.652800 0.198870
O O16 0.000000 0.693610 0.250000
O O17 0.000000 0.861392 0.845608
#
# Coordination Sequence:
#
# PCOD9468741 Si02
#       7
#     8  16  16  16  16   8  16
#     4  10  22  41  58  73  99 138 178 218 263 316
#     4  10  18  29  46  74 110 141 164 202 260 310
#     4  10  19  32  52  78 108 139 171 211 261 309
#     4   9  16  30  49  74 110 146 175 208 248 299
#     4   8  16  29  48  75 109 144 176 208 246 297
#     4  12  26  41  54  75 103 132 170 224 275 310
#     4  11  20  33  54  78 103 139 179 211 248 309
#
# _framework density 17.918001
#
# number of rings (size 3 to 8) (size 9 to 14) (size 15 to 20)
#    0.000    2.167    3.333    2.250    0.000    0.667 
#    0.000    3.333    0.000    1.000    0.000    0.000 
#    0.000    0.000    0.000    0.000    0.000    0.000 
#
# Total GULP energy -267292.376630 kJ/mol
# GULP energy per Si atom -5568.591180 kJ/mol
# Density = 1.787722 g / cm^3
# Si number density = 17.918001 Si / 1000 Ang^3
#
#
#
# Elastic Constant Matrix: (Units=GPa)
#
#
# Indices 1 2 3 4 5 6 
#
# 1 9.7040 3.8246 13.5808 0.0000 0.0000 0.0000
# 2 3.8246 48.1270 45.8694 0.0000 0.0000 0.0000
# 3 13.5808 45.8694 149.3964 0.0000 0.0000 0.0000
# 4 0.0000 0.0000 0.0000 11.1973 0.0000 0.0000
# 5 0.0000 0.0000 0.0000 0.0000 18.3008 0.0000
# 6 0.0000 0.0000 0.0000 0.0000 0.0000 20.7992
#
#
#
# Elastic Compliance Matrix: (Units=1/GPa)
#
#
# Indices 1 2 3 4 5 6 
#
# 1 0.118120 0.001197 -0.011105 0.000000 0.000000 0.000000
# 2 0.001197 0.029386 -0.009131 0.000000 0.000000 0.000000
# 3 -0.011105 -0.009131 0.010507 0.000000 0.000000 0.000000
# 4 0.000000 0.000000 0.000000 0.089308 0.000000 0.000000
# 5 0.000000 0.000000 0.000000 0.000000 0.054642 0.000000
# 6 0.000000 0.000000 0.000000 0.000000 0.000000 0.048079
#
#
# Mechanical properties :
#
#
# Convention : Reuss Voigt Hill
#
# Bulk Modulus (GPa) = 8.33786 37.08634 22.71210
# Shear Modulus (GPa) = 11.67954 19.65629 15.66792
#
# Velocity S-wave (km/s) = 2.55587 3.31571 2.96027
# Velocity P-wave (km/s) = 3.65697 5.94990 4.93836
#
# Compressibility (1/GPa) = 0.11993482
#
# Stress axis : x y z
#
# Youngs Moduli (GPa) = 8.46593 34.02958 95.17705
#
# Poissons Ratio (x) = -0.04075 1.05697
# Poissons Ratio (y) = -0.01014 0.86909
# Poissons Ratio (z) = 0.09402 0.31074
#
# Static dielectric constant tensor:
#      x y z
#    x 1.637450 0.000000 0.000000 
#    y 0.000000 1.583470 0.000000 
#    z 0.000000 0.000000 1.685760 
# 
# From -- ./inp_files/67279.got.cif
#   From: 2010.05.17/outbox.cif.g08.bks.cpg/sg63_34_cif.got.tgz:67279.got - 2010.06.03 15:47:04.
