data_PCOD9468236
_publ_section_title
;
Structure prediction by ZEFSAII (Michael W. Deem and Ramdas Pophale) SiO2 
 PCOD9468236
Probable space group: C M C M
;
_chemical_formula_sum "Si O2"
_cell_formula_units_Z 96
_cell_length_a 8.120118
_cell_length_b 19.750273
_cell_length_c 32.700889
_cell_angle_alpha 90.000000
_cell_angle_beta 90.000000
_cell_angle_gamma 90.000000
_cell_volume 5244.390269
_symmetry_space_group_name_H-M "C M C M"
_symmetry_group_IT_number 63
_symmetry_cell_setting 'orthorhombic'
loop_
_space_group_symop_operation_xyz
x,y,z
-x,-y,1/2+z
x,-y,-z
-x,y,1/2-z
-x,-y,-z
x,y,1/2-z
-x,y,z
x,-y,1/2+z
1/2+x,1/2+y,z
1/2-x,1/2-y,1/2+z
1/2+x,1/2-y,-z
1/2-x,1/2+y,1/2-z
1/2-x,1/2-y,-z
1/2+x,1/2+y,1/2-z
1/2-x,1/2+y,z
1/2+x,1/2-y,1/2+z
loop_
_atom_site_type_symbol
_atom_site_label
_atom_site_fract_x
_atom_site_fract_y
_atom_site_fract_z
Si Si1 0.799035 0.674776 0.795929
Si Si2 0.809458 0.932189 0.043928
Si Si3 0.198623 0.830709 0.704223
Si Si4 0.301890 0.075617 0.370104
Si Si5 0.800567 0.419508 0.130096
Si Si6 0.809629 0.416048 0.958512
O O1 0.747615 0.654225 0.750000
O O2 0.748821 0.752779 0.802470
O O3 0.742851 0.626070 0.832179
O O4 0.000000 0.673681 0.796171
O O5 0.761508 0.895162 0.085720
O O6 0.000000 0.952090 0.045563
O O7 0.704574 0.001730 0.043587
O O8 0.777588 0.896014 0.000689
O O9 0.253901 0.851202 0.750000
O O10 0.256482 0.879278 0.668388
O O11 0.000000 0.831022 0.704349
O O12 0.500000 0.073160 0.373418
O O13 0.241483 0.104553 0.413985
O O14 0.245301 0.997755 0.365017
O O15 0.000000 0.418614 0.129586
O O16 0.000000 0.396545 0.961888
#
# Coordination Sequence:
#
# PCOD9468236 Si02
#       6
#    16  16  16  16  16  16
#     4   8  15  30  51  70  87 116 160 197 224 266
#     4  10  17  25  41  67  96 122 149 184 229 276
#     4   9  18  32  49  68  91 121 154 188 229 276
#     4   9  18  29  45  71  96 119 149 188 231 269
#     4   9  17  30  48  69  93 121 154 192 229 265
#     4   9  16  28  44  63  90 123 158 189 220 265
#
# _framework density 18.305273
#
# number of rings (size 3 to 8) (size 9 to 14) (size 15 to 20)
#    0.000    3.000    0.000    5.000    0.000    4.333 
#    0.000    2.500    0.000    2.500    0.000    0.000 
#    0.000    0.000    0.000    0.000    0.000    0.000 
#
# Total GULP energy -267275.453926 kJ/mol
# GULP energy per Si atom -5568.238623 kJ/mol
# Density = 1.826361 g / cm^3
# Si number density = 18.305273 Si / 1000 Ang^3
#
#
#
# Elastic Constant Matrix: (Units=GPa)
#
#
# Indices 1 2 3 4 5 6 
#
# 1 18.5671 7.1017 14.6476 0.0000 0.0000 0.0000
# 2 7.1017 44.6914 77.9651 0.0000 0.0000 0.0000
# 3 14.6476 77.9651 224.1295 0.0000 0.0000 0.0000
# 4 0.0000 0.0000 0.0000 -10.1445 0.0000 0.0000
# 5 0.0000 0.0000 0.0000 0.0000 19.0691 0.0000
# 6 0.0000 0.0000 0.0000 0.0000 0.0000 7.3218
#
#
#
# Elastic Compliance Matrix: (Units=1/GPa)
#
#
# Indices 1 2 3 4 5 6 
#
# 1 0.057535 -0.006570 -0.001475 0.000000 0.000000 0.000000
# 2 -0.006570 0.057663 -0.019629 0.000000 0.000000 0.000000
# 3 -0.001475 -0.019629 0.011386 0.000000 0.000000 0.000000
# 4 0.000000 0.000000 0.000000 -0.098575 0.000000 0.000000
# 5 0.000000 0.000000 0.000000 0.000000 0.052441 0.000000
# 6 0.000000 0.000000 0.000000 0.000000 0.000000 0.136579
#
#
# Mechanical properties :
#
#
# Convention : Reuss Voigt Hill
#
# Bulk Modulus (GPa) = 14.03770 54.09074 34.06422
# Shear Modulus (GPa) = 16.88490 15.76085 16.32287
#
# Velocity S-wave (km/s) = 3.04041 2.93746 2.98938
# Velocity P-wave (km/s) = 4.47334 6.41236 5.52852
#
# Compressibility (1/GPa) = 0.07123675
#
# Stress axis : x y z
#
# Youngs Moduli (GPa) = 17.38070 17.34206 87.82525
#
# Poissons Ratio (x) = 0.11394 0.12951
# Poissons Ratio (y) = 0.11419 1.72394
# Poissons Ratio (z) = 0.02563 0.34041
#
# Static dielectric constant tensor:
#      x y z
#    x 1.646420 0.000000 0.000000 
#    y 0.000000 1.598310 0.000000 
#    z 0.000000 0.000000 1.685660 
# 
# From -- ./inp_files/67224.got.cif
#   From: 2010.05.17/outbox.cif.g08.bks.cpg/sg63_34_cif.got.tgz:67224.got - 2010.06.03 15:47:04.
