data_PCOD9468001
_publ_section_title
;
Structure prediction by ZEFSAII (Michael W. Deem and Ramdas Pophale) SiO2 
 PCOD9468001
Probable space group: P N M A
;
_chemical_formula_sum "Si O2"
_cell_formula_units_Z 64
_cell_length_a 21.000000
_cell_length_b 9.000000
_cell_length_c 18.000000
_cell_angle_alpha 90.000000
_cell_angle_beta 90.000000
_cell_angle_gamma 90.000000
_cell_volume 3402.000000
_symmetry_space_group_name_H-M "P N M A"
_symmetry_group_IT_number 62
_symmetry_cell_setting 'orthorhombic'
loop_
_space_group_symop_operation_xyz
x,y,z
1/2-x,-y,1/2+z
1/2+x,1/2-y,1/2-z
-x,1/2+y,-z
-x,-y,-z
1/2+x,y,1/2-z
1/2-x,1/2+y,1/2+z
x,1/2-y,z
loop_
_atom_site_type_symbol
_atom_site_label
_atom_site_fract_x
_atom_site_fract_y
_atom_site_fract_z
Si Si1 0.563031 0.926871 0.032969
Si Si2 0.318282 0.575506 0.043972
Si Si3 0.176665 0.927079 0.039260
Si Si4 0.835684 0.573388 0.800638
Si Si5 0.071284 0.428678 0.789226
Si Si6 0.704054 0.426134 0.779844
Si Si7 0.948338 0.073350 0.053844
Si Si8 0.945622 0.072090 0.704414
O O1 0.557328 0.750000 0.028000
O O2 0.567495 0.967899 0.119560
O O3 0.500000 0.000000 0.000000
O O4 0.625202 0.981906 0.990109
O O5 0.330171 0.750000 0.029515
O O6 0.248136 0.535096 0.013539
O O7 0.313048 0.556466 0.132922
O O8 0.177218 0.750000 0.056595
O O9 0.162453 0.013326 0.115065
O O10 0.121657 0.955215 0.980226
O O11 0.835791 0.750000 0.799926
O O12 0.769577 0.511978 0.766249
O O13 0.895982 0.509410 0.757280
O O14 0.072557 0.250000 0.797999
O O15 0.142307 0.476059 0.766086
O O16 0.049022 0.503350 0.864991
O O17 0.018325 0.462788 0.727035
O O18 0.714408 0.250000 0.767128
O O19 0.958471 0.250000 0.056642
O O20 0.000000 0.000000 0.000000
O O21 0.937447 0.250000 0.713347
#
# Coordination Sequence:
#
# PCOD9468001 Si02
#       8
#     8   8   8   8   8   8   8   8
#     4  11  23  38  58  83 111 145 186 231 277 330
#     4   9  18  36  60  83 110 146 186 225 271 329
#     4   9  20  39  59  78 110 154 186 216 272 340
#     4  11  22  35  57  88 115 142 184 234 274 316
#     4  10  21  38  60  82 107 145 190 231 274 330
#     4   9  19  38  61  83 113 152 185 218 274 342
#     4  11  23  38  57  83 114 147 185 230 280 331
#     4  10  22  40  58  78 110 151 188 223 275 338
#
# _framework density 18.812463000000001
#
# number of rings (size 3 to 8) (size 9 to 14) (size 15 to 20)
#    0.000    2.000    0.000    4.125    0.000   11.000 
#    0.000    3.750    0.000    0.000    0.000    0.000 
#    0.000    0.000    0.000    0.000    0.000    0.000 
#
# Total GULP energy -357502.925915 kJ/mol
# GULP energy per Si atom -5585.983217 kJ/mol
# Density = 1.876965 g / cm^3
# Si number density = 18.812463 Si / 1000 Ang^3
#
#
#
# Elastic Constant Matrix: (Units=GPa)
#
#
# Indices 1 2 3 4 5 6 
#
# 1 62.7578 20.6051 -1.5814 0.0000 0.0000 0.0000
# 2 20.6051 21.1736 12.1635 0.0000 0.0000 0.0000
# 3 -1.5814 12.1635 17.8256 0.0000 0.0000 0.0000
# 4 0.0000 0.0000 0.0000 24.8717 0.0000 0.0000
# 5 0.0000 0.0000 0.0000 0.0000 32.6151 0.0000
# 6 0.0000 0.0000 0.0000 0.0000 0.0000 28.8714
#
#
#
# Elastic Compliance Matrix: (Units=1/GPa)
#
#
# Indices 1 2 3 4 5 6 
#
# 1 0.038324 -0.064552 0.047448 0.000000 0.000000 0.000000
# 2 -0.064552 0.186408 -0.132924 0.000000 0.000000 0.000000
# 3 0.047448 -0.132924 0.151010 0.000000 0.000000 0.000000
# 4 0.000000 0.000000 0.000000 0.040206 0.000000 0.000000
# 5 0.000000 0.000000 0.000000 0.000000 0.030661 0.000000
# 6 0.000000 0.000000 0.000000 0.000000 0.000000 0.034636
#
#
# Mechanical properties :
#
#
# Convention : Reuss Voigt Hill
#
# Bulk Modulus (GPa) = 13.21258 18.23684 15.72471
# Shear Modulus (GPa) = 6.19939 21.97629 14.08784
#
# Velocity S-wave (km/s) = 1.81728 3.42157 2.73949
# Velocity P-wave (km/s) = 3.38259 5.03235 4.28757
#
# Compressibility (1/GPa) = 0.07568544
#
# Stress axis : x y z
#
# Youngs Moduli (GPa) = 26.09322 5.36458 6.62206
#
# Poissons Ratio (x) = 0.34630 -0.31420
# Poissons Ratio (y) = 1.68438 0.88023
# Poissons Ratio (z) = -1.23806 0.71308
#
# Static dielectric constant tensor:
#      x y z
#    x 1.650320 0.000000 0.000000 
#    y 0.000000 1.630000 0.000000 
#    z 0.000000 0.000000 1.627140 
# 
# From -- ./inp_files/24774.got.cif
#   From: 2010.05.17/outbox.ucp.g08.bks.cvg/sg62_13_cif.got.tgz:24774.got - 2010.06.11 16:29:25.
