data_PCOD9468142
_publ_section_title
;
Structure prediction by ZEFSAII (Michael W. Deem and Ramdas Pophale) SiO2 
 PCOD9468142
Probable space group: C M C M
;
_chemical_formula_sum "Si O2"
_cell_formula_units_Z 80
_cell_length_a 17.956110
_cell_length_b 15.016765
_cell_length_c 15.803524
_cell_angle_alpha 90.000000
_cell_angle_beta 90.000000
_cell_angle_gamma 90.000000
_cell_volume 4261.304631
_symmetry_space_group_name_H-M "C M C M"
_symmetry_group_IT_number 63
_symmetry_cell_setting 'orthorhombic'
loop_
_space_group_symop_operation_xyz
x,y,z
-x,-y,1/2+z
x,-y,-z
-x,y,1/2-z
-x,-y,-z
x,y,1/2-z
-x,y,z
x,-y,1/2+z
1/2+x,1/2+y,z
1/2-x,1/2-y,1/2+z
1/2+x,1/2-y,-z
1/2-x,1/2+y,1/2-z
1/2-x,1/2-y,-z
1/2+x,1/2+y,1/2-z
1/2-x,1/2+y,z
1/2+x,1/2-y,1/2+z
loop_
_atom_site_type_symbol
_atom_site_label
_atom_site_fract_x
_atom_site_fract_y
_atom_site_fract_z
Si Si1 0.916623 0.729625 0.482712
Si Si2 0.335194 0.241244 0.657137
Si Si3 0.417799 0.566412 0.919503
Si Si4 0.743728 0.571616 0.613452
Si Si5 0.721491 0.118905 0.419437
O O1 0.893612 0.729949 0.581276
O O2 0.915601 0.831504 0.451201
O O3 0.854679 0.672648 0.433360
O O4 0.000000 0.694356 0.471221
O O5 0.367429 0.256454 0.750000
O O6 0.284406 0.152547 0.658107
O O7 0.280205 0.321104 0.630385
O O8 0.500000 0.550960 0.880715
O O9 0.342855 0.555330 0.865359
O O10 0.412290 0.500000 0.000000
O O11 0.786202 0.478128 0.621497
O O12 0.746657 0.600399 0.513949
#
# Coordination Sequence:
#
# PCOD9468142 Si02
#       5
#    16  16  16  16  16
#     4  10  19  34  55  78 104 136 180 225 263 305
#     4  11  21  33  50  77 113 144 172 210 268 331
#     4  10  16  26  51  82 104 126 162 219 273 303
#     4  10  17  33  54  76 103 135 184 228 250 308
#     4  10  18  34  55  76 101 136 184 226 259 300
#
# _framework density 18.773593000000002
#
# number of rings (size 3 to 8) (size 9 to 14) (size 15 to 20)
#    0.000    1.800    6.000    1.200    0.000    1.200 
#    0.000    8.000    0.000    2.400    0.000    0.000 
#    0.000    0.000    0.000    0.000    0.000    0.000 
#
# Total GULP energy -223090.701878 kJ/mol
# GULP energy per Si atom -5577.267547 kJ/mol
# Density = 1.873086 g / cm^3
# Si number density = 18.773593 Si / 1000 Ang^3
#
#
#
# Elastic Constant Matrix: (Units=GPa)
#
#
# Indices 1 2 3 4 5 6 
#
# 1 90.6912 12.0703 -15.0625 0.0000 0.0000 0.0000
# 2 12.0703 104.9939 5.5579 0.0000 0.0000 0.0000
# 3 -15.0625 5.5579 28.5700 0.0000 0.0000 0.0000
# 4 0.0000 0.0000 0.0000 -4.0963 0.0000 0.0000
# 5 0.0000 0.0000 0.0000 0.0000 1.9987 0.0000
# 6 0.0000 0.0000 0.0000 0.0000 0.0000 22.3433
#
#
#
# Elastic Compliance Matrix: (Units=1/GPa)
#
#
# Indices 1 2 3 4 5 6 
#
# 1 0.012409 -0.001791 0.006891 0.000000 0.000000 0.000000
# 2 -0.001791 0.009882 -0.002867 0.000000 0.000000 0.000000
# 3 0.006891 -0.002867 0.039192 0.000000 0.000000 0.000000
# 4 0.000000 0.000000 0.000000 -0.244122 0.000000 0.000000
# 5 0.000000 0.000000 0.000000 0.000000 0.500318 0.000000
# 6 0.000000 0.000000 0.000000 0.000000 0.000000 0.044756
#
#
# Mechanical properties :
#
#
# Convention : Reuss Voigt Hill
#
# Bulk Modulus (GPa) = 15.16320 25.48737 20.32529
# Shear Modulus (GPa) = 13.15948 18.82844 15.99396
#
# Velocity S-wave (km/s) = 2.65043 3.17033 2.92197
# Velocity P-wave (km/s) = 4.17861 5.19682 4.71528
#
# Compressibility (1/GPa) = 0.06594912
#
# Stress axis : x y z
#
# Youngs Moduli (GPa) = 80.58460 101.19354 25.51512
#
# Poissons Ratio (x) = 0.18127 -0.17582
# Poissons Ratio (y) = 0.14436 0.07315
# Poissons Ratio (z) = -0.55530 0.29011
#
# Static dielectric constant tensor:
#      x y z
#    x 1.665890 0.000000 0.000000 
#    y 0.000000 1.644750 0.000000 
#    z 0.000000 0.000000 1.663730 
# 
# From -- ./inp_files/45428.got.cif
#   From: 2010.05.17/outbox.cif.g08.bks.cpg/sg63_23_cif.got.tgz:45428.got - 2010.06.03 15:47:04.
