data_PCOD9468796
_publ_section_title
;
Structure prediction by ZEFSAII (Michael W. Deem and Ramdas Pophale) SiO2 
 PCOD9468796
Probable space group: C M C M
;
_chemical_formula_sum "Si O2"
_cell_formula_units_Z 80
_cell_length_a 19.562053
_cell_length_b 13.386274
_cell_length_c 18.444664
_cell_angle_alpha 90.000000
_cell_angle_beta 90.000000
_cell_angle_gamma 90.000000
_cell_volume 4829.975076
_symmetry_space_group_name_H-M "C M C M"
_symmetry_group_IT_number 63
_symmetry_cell_setting 'orthorhombic'
loop_
_space_group_symop_operation_xyz
x,y,z
-x,-y,1/2+z
x,-y,-z
-x,y,1/2-z
-x,-y,-z
x,y,1/2-z
-x,y,z
x,-y,1/2+z
1/2+x,1/2+y,z
1/2-x,1/2-y,1/2+z
1/2+x,1/2-y,-z
1/2-x,1/2+y,1/2-z
1/2-x,1/2-y,-z
1/2+x,1/2+y,1/2-z
1/2-x,1/2+y,z
1/2+x,1/2-y,1/2+z
loop_
_atom_site_type_symbol
_atom_site_label
_atom_site_fract_x
_atom_site_fract_y
_atom_site_fract_z
Si Si1 0.418354 0.725964 0.668324
Si Si2 0.924308 0.083487 0.436801
Si Si3 0.739403 0.097874 0.951098
Si Si4 0.639061 0.756100 0.517877
Si Si5 0.828430 0.024510 0.832399
O O1 0.404466 0.766286 0.750000
O O2 0.500000 0.715619 0.660639
O O3 0.388446 0.783005 0.598122
O O4 0.381868 0.617486 0.665411
O O5 0.915709 0.190596 0.474328
O O6 0.000000 0.073017 0.404258
O O7 0.918340 0.000000 0.500000
O O8 0.864672 0.060855 0.379841
O O9 0.799136 0.176718 0.970624
O O10 0.759059 0.062262 0.870549
O O11 0.669391 0.153443 0.971144
O O12 0.745425 0.000000 0.000000
O O13 0.817720 0.994571 0.750000
#
# Coordination Sequence:
#
# PCOD9468796 Si02
#       5
#    16  16  16  16  16
#     4   9  16  27  45  72 101 125 157 204 254 299
#     4  11  18  29  49  73 100 128 160 202 258 308
#     4  10  18  33  49  66  98 135 167 206 241 291
#     4  10  18  29  50  70  97 132 167 203 244 300
#     4  10  18  30  46  70  99 128 163 204 259 308
#
# _framework density 16.563233
#
# number of rings (size 3 to 8) (size 9 to 14) (size 15 to 20)
#    0.000    2.000    6.000    1.200    0.000    1.200 
#    0.000    2.000    0.000    2.400    0.000    0.000 
#    0.000    0.000    0.000    0.000    0.000    0.000 
#
# Total GULP energy -222705.564449 kJ/mol
# GULP energy per Si atom -5567.639111 kJ/mol
# Density = 1.652553 g / cm^3
# Si number density = 16.563233 Si / 1000 Ang^3
#
#
#
# Elastic Constant Matrix: (Units=GPa)
#
#
# Indices 1 2 3 4 5 6 
#
# 1 58.3575 25.2146 45.5008 0.0000 0.0000 0.0000
# 2 25.2146 27.3783 37.6519 0.0000 0.0000 0.0000
# 3 45.5008 37.6519 128.0145 0.0000 0.0000 0.0000
# 4 0.0000 0.0000 0.0000 11.1967 0.0000 0.0000
# 5 0.0000 0.0000 0.0000 0.0000 19.7502 0.0000
# 6 0.0000 0.0000 0.0000 0.0000 0.0000 9.9148
#
#
#
# Elastic Compliance Matrix: (Units=1/GPa)
#
#
# Indices 1 2 3 4 5 6 
#
# 1 0.029763 -0.021599 -0.004226 0.000000 0.000000 0.000000
# 2 -0.021599 0.077009 -0.014973 0.000000 0.000000 0.000000
# 3 -0.004226 -0.014973 0.013718 0.000000 0.000000 0.000000
# 4 0.000000 0.000000 0.000000 0.089312 0.000000 0.000000
# 5 0.000000 0.000000 0.000000 0.000000 0.050632 0.000000
# 6 0.000000 0.000000 0.000000 0.000000 0.000000 0.100859
#
#
# Mechanical properties :
#
#
# Convention : Reuss Voigt Hill
#
# Bulk Modulus (GPa) = 25.71131 47.83165 36.77148
# Shear Modulus (GPa) = 10.96845 15.19789 13.08317
#
# Velocity S-wave (km/s) = 2.57615 3.03242 2.81355
# Velocity P-wave (km/s) = 4.94020 6.41885 5.72744
#
# Compressibility (1/GPa) = 0.03889339
#
# Stress axis : x y z
#
# Youngs Moduli (GPa) = 33.59864 12.98555 72.89916
#
# Poissons Ratio (x) = 0.28047 0.30808
# Poissons Ratio (y) = 0.72570 1.09151
# Poissons Ratio (z) = 0.14199 0.19443
#
# Static dielectric constant tensor:
#      x y z
#    x 1.572120 0.000000 0.000000 
#    y 0.000000 1.540420 0.000000 
#    z 0.000000 0.000000 1.587010 
# 
# From -- ./inp_files/45404.got.cif
#   From: 2010.05.17/outbox.cif.g08.bks.cpg/sg63_23_cif.got.tgz:45404.got - 2010.06.03 15:47:04.
