data_PCOD9468197
_publ_section_title
;
Structure prediction by ZEFSAII (Michael W. Deem and Ramdas Pophale) SiO2 
 PCOD9468197
Probable space group: C M C M
;
_chemical_formula_sum "Si O2"
_cell_formula_units_Z 80
_cell_length_a 10.990333
_cell_length_b 22.733795
_cell_length_c 17.177396
_cell_angle_alpha 90.000000
_cell_angle_beta 90.000000
_cell_angle_gamma 90.000000
_cell_volume 4291.806357
_symmetry_space_group_name_H-M "C M C M"
_symmetry_group_IT_number 63
_symmetry_cell_setting 'orthorhombic'
loop_
_space_group_symop_operation_xyz
x,y,z
-x,-y,1/2+z
x,-y,-z
-x,y,1/2-z
-x,-y,-z
x,y,1/2-z
-x,y,z
x,-y,1/2+z
1/2+x,1/2+y,z
1/2-x,1/2-y,1/2+z
1/2+x,1/2-y,-z
1/2-x,1/2+y,1/2-z
1/2-x,1/2-y,-z
1/2+x,1/2+y,1/2-z
1/2-x,1/2+y,z
1/2+x,1/2-y,1/2+z
loop_
_atom_site_type_symbol
_atom_site_label
_atom_site_fract_x
_atom_site_fract_y
_atom_site_fract_z
Si Si1 0.000000 0.922903 0.339971
Si Si2 0.730361 0.915714 0.342255
Si Si3 0.000000 0.217338 0.659795
Si Si4 0.856289 0.294336 0.098179
Si Si5 0.500000 0.983565 0.409545
Si Si6 0.810485 0.699064 0.415479
Si Si7 0.500000 0.112500 0.158332
O O1 0.135466 0.936467 0.371733
O O2 0.000000 0.943314 0.250000
O O3 0.000000 0.852092 0.339779
O O4 0.723448 0.928634 0.250000
O O5 0.709320 0.845508 0.352432
O O6 0.620072 0.947015 0.386638
O O7 0.889176 0.245225 0.613263
O O8 0.000000 0.237183 0.750000
O O9 0.819727 0.225421 0.109343
O O10 0.000000 0.301278 0.109012
O O11 0.822344 0.307613 0.007917
O O12 0.500000 0.000000 0.500000
O O13 0.500000 0.044519 0.362822
O O14 0.879644 0.644386 0.376681
O O15 0.500000 0.121010 0.250000
#
# Coordination Sequence:
#
# PCOD9468197 Si02
#       7
#     8  16   8  16   8  16   8
#     4   9  19  34  57  88 117 143 184 243 304 352
#     4  11  22  38  62  91 118 152 198 255 310 354
#     4  10  16  30  53  79 108 145 188 233 284 342
#     4  11  20  32  54  85 123 155 190 243 305 351
#     4  12  25  43  64  88 120 154 202 259 306 361
#     4  10  20  33  51  81 118 155 194 232 285 353
#     4  11  22  39  61  81 109 158 206 235 280 359
#
# _framework density 18.640170000000001
#
# number of rings (size 3 to 8) (size 9 to 14) (size 15 to 20)
#    0.000    1.400    5.000    3.300    0.000    0.800 
#    0.000    0.500    2.200    0.000    0.000    0.000 
#    0.000    0.000    0.000    0.000    0.000    0.000 
#
# Total GULP energy -222773.559599 kJ/mol
# GULP energy per Si atom -5569.338990 kJ/mol
# Density = 1.859774 g / cm^3
# Si number density = 18.640170 Si / 1000 Ang^3
#
#
#
# Elastic Constant Matrix: (Units=GPa)
#
#
# Indices 1 2 3 4 5 6 
#
# 1 138.3205 20.1734 10.5955 0.0000 0.0000 0.0000
# 2 20.1734 57.1847 -5.0405 0.0000 0.0000 0.0000
# 3 10.5955 -5.0405 70.5169 0.0000 0.0000 0.0000
# 4 0.0000 0.0000 0.0000 31.1002 0.0000 0.0000
# 5 0.0000 0.0000 0.0000 0.0000 9.9324 0.0000
# 6 0.0000 0.0000 0.0000 0.0000 0.0000 40.5202
#
#
#
# Elastic Compliance Matrix: (Units=1/GPa)
#
#
# Indices 1 2 3 4 5 6 
#
# 1 0.007751 -0.002855 -0.001369 0.000000 0.000000 0.000000
# 2 -0.002855 0.018650 0.001762 0.000000 0.000000 0.000000
# 3 -0.001369 0.001762 0.014513 0.000000 0.000000 0.000000
# 4 0.000000 0.000000 0.000000 0.032154 0.000000 0.000000
# 5 0.000000 0.000000 0.000000 0.000000 0.100680 0.000000
# 6 0.000000 0.000000 0.000000 0.000000 0.000000 0.024679
#
#
# Mechanical properties :
#
#
# Convention : Reuss Voigt Hill
#
# Bulk Modulus (GPa) = 27.78554 35.27541 31.53048
# Shear Modulus (GPa) = 23.21840 32.33014 27.77427
#
# Velocity S-wave (km/s) = 3.53315 4.16917 3.86427
# Velocity P-wave (km/s) = 5.61986 6.49165 6.07142
#
# Compressibility (1/GPa) = 0.03598994
#
# Stress axis : x y z
#
# Youngs Moduli (GPa) = 129.01888 53.62030 68.90567
#
# Poissons Ratio (x) = 0.15308 0.09431
# Poissons Ratio (y) = 0.36834 -0.12141
# Poissons Ratio (z) = 0.17658 -0.09448
#
# Static dielectric constant tensor:
#      x y z
#    x 1.819560 0.000000 0.000000 
#    y 0.000000 1.668900 0.000000 
#    z 0.000000 0.000000 1.595000 
# 
# From -- ./inp_files/29814.got.cif
#   From: 2010.05.17/outbox.cif.g08.bks.cpg/sg63_15_cif.got.tgz:29814.got - 2010.06.03 15:47:04.
