data_PCOD9468110
_publ_section_title
;
Structure prediction by ZEFSAII (Michael W. Deem and Ramdas Pophale) SiO2 
 PCOD9468110
Probable space group: C M C M
;
_chemical_formula_sum "Si O2"
_cell_formula_units_Z 60
_cell_length_a 32.329980
_cell_length_b 5.274152
_cell_length_c 14.103748
_cell_angle_alpha 90.000000
_cell_angle_beta 90.000000
_cell_angle_gamma 90.000000
_cell_volume 2404.875608
_symmetry_space_group_name_H-M "C M C M"
_symmetry_group_IT_number 63
_symmetry_cell_setting 'orthorhombic'
loop_
_space_group_symop_operation_xyz
x,y,z
-x,-y,1/2+z
x,-y,-z
-x,y,1/2-z
-x,-y,-z
x,y,1/2-z
-x,y,z
x,-y,1/2+z
1/2+x,1/2+y,z
1/2-x,1/2-y,1/2+z
1/2+x,1/2-y,-z
1/2-x,1/2+y,1/2-z
1/2-x,1/2-y,-z
1/2+x,1/2+y,1/2-z
1/2-x,1/2+y,z
1/2+x,1/2-y,1/2+z
loop_
_atom_site_type_symbol
_atom_site_label
_atom_site_fract_x
_atom_site_fract_y
_atom_site_fract_z
Si Si1 0.765436 0.429877 0.104483
Si Si2 0.858583 0.319234 0.136208
Si Si3 0.000000 0.789223 0.115561
Si Si4 0.089625 0.179283 0.632812
Si Si5 0.000000 0.289674 0.250000
O O1 0.738173 0.208376 0.149546
O O2 0.812223 0.334183 0.098397
O O3 0.749137 0.500000 0.000000
O O4 0.854380 0.307774 0.250000
O O5 0.882484 0.576954 0.113666
O O6 0.885384 0.074863 0.109754
O O7 0.046654 0.793021 0.077189
O O8 0.000000 0.518428 0.170217
O O9 0.000000 0.061697 0.170001
O O10 0.081241 0.176148 0.750000
#
# Coordination Sequence:
#
# PCOD9468110 Si02
#       5
#    16  16   8  16   4
#     4  10  21  38  58  76  97 129 171 210 252 309
#     4  10  21  32  49  78 106 132 162 210 258 300
#     4  11  18  26  44  68 101 146 175 204 241 290
#     4  10  18  29  45  70 108 137 171 201 249 295
#     4  10  16  22  40  62  92 134 178 206 228 286
#
# _framework density 24.949313
#
# number of rings (size 3 to 8) (size 9 to 14) (size 15 to 20)
#    0.000    1.867    2.667    3.200    3.733    1.067 
#    0.000    0.000    0.000    0.000    0.000    5.600 
#    0.000    0.000    0.000    0.000    0.000    0.000 
#
# Total GULP energy -167036.034799 kJ/mol
# GULP energy per Si atom -5567.867827 kJ/mol
# Density = 2.489253 g / cm^3
# Si number density = 24.949313 Si / 1000 Ang^3
#
#
#
# Elastic Constant Matrix: (Units=GPa)
#
#
# Indices 1 2 3 4 5 6 
#
# 1 197.0315 64.2344 0.3468 0.0000 0.0000 0.0000
# 2 64.2344 232.3949 14.8276 0.0000 0.0000 0.0000
# 3 0.3468 14.8276 43.5845 0.0000 0.0000 0.0000
# 4 0.0000 0.0000 0.0000 2.0533 0.0000 0.0000
# 5 0.0000 0.0000 0.0000 0.0000 3.9432 0.0000
# 6 0.0000 0.0000 0.0000 0.0000 0.0000 -2.2279
#
#
#
# Elastic Compliance Matrix: (Units=1/GPa)
#
#
# Indices 1 2 3 4 5 6 
#
# 1 0.005588 -0.001576 0.000492 0.000000 0.000000 0.000000
# 2 -0.001576 0.004843 -0.001635 0.000000 0.000000 0.000000
# 3 0.000492 -0.001635 0.023496 0.000000 0.000000 0.000000
# 4 0.000000 0.000000 0.000000 0.487019 0.000000 0.000000
# 5 0.000000 0.000000 0.000000 0.000000 0.253602 0.000000
# 6 0.000000 0.000000 0.000000 0.000000 0.000000 -0.448844
#
#
# Mechanical properties :
#
#
# Convention : Reuss Voigt Hill
#
# Bulk Modulus (GPa) = 35.10147 70.20314 52.65231
# Shear Modulus (GPa) = 14.67828 26.99385 20.83606
#
# Velocity S-wave (km/s) = 2.42817 3.29287 2.89301
# Velocity P-wave (km/s) = 4.68626 6.53121 5.68409
#
# Compressibility (1/GPa) = 0.02848883
#
# Stress axis : x y z
#
# Youngs Moduli (GPa) = 178.94689 206.48593 42.55990
#
# Poissons Ratio (x) = 0.32542 -0.02093
# Poissons Ratio (y) = 0.28202 0.06959
# Poissons Ratio (z) = -0.08799 0.33761
#
# Static dielectric constant tensor:
#      x y z
#    x 1.947470 0.000000 0.000000 
#    y 0.000000 1.974900 0.000000 
#    z 0.000000 0.000000 2.087280 
# 
# From -- ./inp_files/58405.got.cif
#   From: 2010.05.17/outbox.cif.g08.bks.cpg/sg63_30_cif.got.tgz:58405.got - 2010.06.03 15:47:04.
