data_PCOD9468607
_publ_section_title
;
Structure prediction by ZEFSAII (Michael W. Deem and Ramdas Pophale) SiO2 
 PCOD9468607
Probable space group: C M C M
;
_chemical_formula_sum "Si O2"
_cell_formula_units_Z 128
_cell_length_a 25.545777
_cell_length_b 12.845885
_cell_length_c 23.809650
_cell_angle_alpha 90.000000
_cell_angle_beta 90.000000
_cell_angle_gamma 90.000000
_cell_volume 7813.329829
_symmetry_space_group_name_H-M "C M C M"
_symmetry_group_IT_number 63
_symmetry_cell_setting 'orthorhombic'
loop_
_space_group_symop_operation_xyz
x,y,z
-x,-y,1/2+z
x,-y,-z
-x,y,1/2-z
-x,-y,-z
x,y,1/2-z
-x,y,z
x,-y,1/2+z
1/2+x,1/2+y,z
1/2-x,1/2-y,1/2+z
1/2+x,1/2-y,-z
1/2-x,1/2+y,1/2-z
1/2-x,1/2-y,-z
1/2+x,1/2+y,1/2-z
1/2-x,1/2+y,z
1/2+x,1/2-y,1/2+z
loop_
_atom_site_type_symbol
_atom_site_label
_atom_site_fract_x
_atom_site_fract_y
_atom_site_fract_z
Si Si1 0.223103 0.190396 0.902381
Si Si2 0.674296 0.072478 0.923854
Si Si3 0.057281 0.897483 0.183173
Si Si4 0.251377 0.645718 0.187094
Si Si5 0.146647 0.341681 0.535070
Si Si6 0.642065 0.982167 0.685966
Si Si7 0.832182 0.958443 0.314979
Si Si8 0.061545 0.671325 0.127080
O O1 0.266536 0.113623 0.927197
O O2 0.252820 0.274039 0.863511
O O3 0.186553 0.250933 0.946445
O O4 0.188116 0.126730 0.858364
O O5 0.652928 0.071170 0.860246
O O6 0.669871 0.951745 0.942316
O O7 0.642444 0.141310 0.968602
O O8 0.056149 0.878497 0.250000
O O9 0.106385 0.972074 0.172905
O O10 0.065999 0.785964 0.154099
O O11 0.000000 0.937323 0.166071
O O12 0.256263 0.692157 0.250000
O O13 0.194849 0.588476 0.184861
O O14 0.296250 0.559575 0.180254
O O15 0.092237 0.327401 0.567907
O O16 0.634764 0.017571 0.750000
O O17 0.593861 0.910658 0.665221
O O18 0.826985 0.921896 0.250000
O O19 0.000000 0.645796 0.122723
#
# Coordination Sequence:
#
# PCOD9468607 Si02
#       8
#    16  16  16  16  16  16  16  16
#     4  12  17  30  48  70  94 135 162 203 240 293
#     4  10  21  33  48  67  98 130 167 198 241 293
#     4   9  16  26  43  69  98 125 156 196 242 291
#     4  10  19  29  45  71 104 133 162 198 243 296
#     4  10  20  35  46  70 100 130 163 204 244 289
#     4  10  18  32  46  65  96 128 155 196 245 292
#     4  10  18  28  44  71 102 130 160 197 243 296
#     4  10  18  30  49  72  95 125 161 197 243 298
#
# _framework density 16.382261
#
# number of rings (size 3 to 8) (size 9 to 14) (size 15 to 20)
#    0.000    1.875    5.000    1.125    0.000    3.250 
#    0.000    5.000    0.000    0.000    0.000    4.375 
#    0.000    6.000    0.000    0.000    0.000    0.000 
#
# Total GULP energy -356597.233623 kJ/mol
# GULP energy per Si atom -5571.831775 kJ/mol
# Density = 1.634497 g / cm^3
# Si number density = 16.382261 Si / 1000 Ang^3
#
#
#
# Elastic Constant Matrix: (Units=GPa)
#
#
# Indices 1 2 3 4 5 6 
#
# 1 128.7482 27.2133 17.3262 0.0000 0.0000 0.0000
# 2 27.2133 20.8854 -1.6618 0.0000 0.0000 0.0000
# 3 17.3262 -1.6618 56.9363 0.0000 0.0000 0.0000
# 4 0.0000 0.0000 0.0000 11.2072 0.0000 0.0000
# 5 0.0000 0.0000 0.0000 0.0000 17.1736 0.0000
# 6 0.0000 0.0000 0.0000 0.0000 0.0000 21.8027
#
#
#
# Elastic Compliance Matrix: (Units=1/GPa)
#
#
# Indices 1 2 3 4 5 6 
#
# 1 0.011547 -0.015361 -0.003962 0.000000 0.000000 0.000000
# 2 -0.015361 0.068426 0.006672 0.000000 0.000000 0.000000
# 3 -0.003962 0.006672 0.018964 0.000000 0.000000 0.000000
# 4 0.000000 0.000000 0.000000 0.089228 0.000000 0.000000
# 5 0.000000 0.000000 0.000000 0.000000 0.058229 0.000000
# 6 0.000000 0.000000 0.000000 0.000000 0.000000 0.045866
#
#
# Mechanical properties :
#
#
# Convention : Reuss Voigt Hill
#
# Bulk Modulus (GPa) = 13.58063 32.48060 23.03061
# Shear Modulus (GPa) = 14.61524 20.94951 17.78237
#
# Velocity S-wave (km/s) = 2.99011 3.57990 3.29821
# Velocity P-wave (km/s) = 4.49765 6.07925 5.34725
#
# Compressibility (1/GPa) = 0.07363429
#
# Stress axis : x y z
#
# Youngs Moduli (GPa) = 86.60147 14.61422 52.73166
#
# Poissons Ratio (x) = 0.22449 0.20893
# Poissons Ratio (y) = 1.33029 -0.35181
# Poissons Ratio (z) = 0.34313 -0.09750
#
# Static dielectric constant tensor:
#      x y z
#    x 1.561170 0.000000 0.000000 
#    y 0.000000 1.536820 0.000000 
#    z 0.000000 0.000000 1.596020 
# 
# From -- ./inp_files/70800.got.cif
#   From: 2010.05.17/outbox.cif.g08.bks.cpg/sg63_36_cif.got.tgz:70800.got - 2010.06.03 15:47:04.
