data_PCOD9468342
_publ_section_title
;
Structure prediction by ZEFSAII (Michael W. Deem and Ramdas Pophale) SiO2 
 PCOD9468342
Probable space group: C M C M
;
_chemical_formula_sum "Si O2"
_cell_formula_units_Z 96
_cell_length_a 7.390372
_cell_length_b 25.858521
_cell_length_c 24.522573
_cell_angle_alpha 90.000000
_cell_angle_beta 90.000000
_cell_angle_gamma 90.000000
_cell_volume 4686.363987
_symmetry_space_group_name_H-M "C M C M"
_symmetry_group_IT_number 63
_symmetry_cell_setting 'orthorhombic'
loop_
_space_group_symop_operation_xyz
x,y,z
-x,-y,1/2+z
x,-y,-z
-x,y,1/2-z
-x,-y,-z
x,y,1/2-z
-x,y,z
x,-y,1/2+z
1/2+x,1/2+y,z
1/2-x,1/2-y,1/2+z
1/2+x,1/2-y,-z
1/2-x,1/2+y,1/2-z
1/2-x,1/2-y,-z
1/2+x,1/2+y,1/2-z
1/2-x,1/2+y,z
1/2+x,1/2-y,1/2+z
loop_
_atom_site_type_symbol
_atom_site_label
_atom_site_fract_x
_atom_site_fract_y
_atom_site_fract_z
Si Si1 0.278506 0.611945 0.560345
Si Si2 0.783938 0.770615 0.439096
Si Si3 0.780627 0.324665 0.868070
Si Si4 0.711783 0.424318 0.557435
Si Si5 0.283466 0.519609 0.250000
Si Si6 0.221437 0.017826 0.867346
Si Si7 0.215597 0.642266 0.250000
O O1 0.500000 0.613188 0.558564
O O2 0.215854 0.670901 0.566629
O O3 0.215386 0.588654 0.502403
O O4 0.226516 0.573148 0.608451
O O5 0.750000 0.750000 0.500000
O O6 0.715841 0.727979 0.396424
O O7 0.000000 0.772966 0.431920
O O8 0.728200 0.373414 0.905358
O O9 0.715361 0.333917 0.806529
O O10 0.000000 0.323822 0.867331
O O11 0.500000 0.435788 0.549090
O O12 0.784644 0.472921 0.591198
O O13 0.500000 0.513278 0.250000
O O14 0.216186 0.494873 0.306309
O O15 0.247293 0.580827 0.250000
O O16 0.000000 0.015903 0.866609
O O17 0.000000 0.650309 0.250000
#
# Coordination Sequence:
#
# PCOD9468342 Si02
#       7
#    16  16  16  16   8  16   8
#     4   9  17  29  46  71 100 130 156 190 246 297
#     4  10  19  32  51  72  96 127 164 201 239 286
#     4  10  20  32  48  72 100 128 161 200 239 283
#     4  10  17  28  50  74  97 126 158 197 243 291
#     4  10  18  30  51  75  95 121 162 209 240 276
#     4   9  17  28  45  73 102 122 155 202 245 286
#     4  10  20  34  49  67  99 135 160 191 242 292
#
# _framework density 20.484963
#
# number of rings (size 3 to 8) (size 9 to 14) (size 15 to 20)
#    0.000    2.333    3.333    0.500    0.000    2.000 
#    0.000    0.833    0.000   10.000    0.000    0.000 
#    0.000    1.333    0.000    0.000    0.000    0.000 
#
# Total GULP energy -268097.105146 kJ/mol
# GULP energy per Si atom -5585.356357 kJ/mol
# Density = 2.043834 g / cm^3
# Si number density = 20.484963 Si / 1000 Ang^3
#
#
#
# Elastic Constant Matrix: (Units=GPa)
#
#
# Indices 1 2 3 4 5 6 
#
# 1 67.0128 -7.6073 -8.7599 0.0000 0.0000 0.0000
# 2 -7.6073 184.8266 100.1638 0.0000 0.0000 0.0000
# 3 -8.7599 100.1638 170.9247 0.0000 0.0000 0.0000
# 4 0.0000 0.0000 0.0000 40.4999 0.0000 0.0000
# 5 0.0000 0.0000 0.0000 0.0000 3.7644 0.0000
# 6 0.0000 0.0000 0.0000 0.0000 0.0000 12.4304
#
#
#
# Elastic Compliance Matrix: (Units=1/GPa)
#
#
# Indices 1 2 3 4 5 6 
#
# 1 0.015034 0.000295 0.000598 0.000000 0.000000 0.000000
# 2 0.000295 0.007934 -0.004634 0.000000 0.000000 0.000000
# 3 0.000598 -0.004634 0.008597 0.000000 0.000000 0.000000
# 4 0.000000 0.000000 0.000000 0.024691 0.000000 0.000000
# 5 0.000000 0.000000 0.000000 0.000000 0.265644 0.000000
# 6 0.000000 0.000000 0.000000 0.000000 0.000000 0.080448
#
#
# Mechanical properties :
#
#
# Convention : Reuss Voigt Hill
#
# Bulk Modulus (GPa) = 41.52545 65.59525 53.56035
# Shear Modulus (GPa) = 11.96574 33.93678 22.95126
#
# Velocity S-wave (km/s) = 2.41949 4.07463 3.35086
# Velocity P-wave (km/s) = 5.30287 7.36394 6.41670
#
# Compressibility (1/GPa) = 0.02408162
#
# Stress axis : x y z
#
# Youngs Moduli (GPa) = 66.51536 126.03757 116.32013
#
# Poissons Ratio (x) = -0.03717 -0.06952
# Poissons Ratio (y) = -0.01961 0.53907
# Poissons Ratio (z) = -0.03976 0.58411
#
# Static dielectric constant tensor:
#      x y z
#    x 1.796530 0.000000 0.000000 
#    y 0.000000 1.693290 0.000000 
#    z 0.000000 0.000000 1.706530 
# 
# From -- ./inp_files/59979.got.cif
#   From: 2010.05.17/outbox.cif.g08.bks.cpg/sg63_30_cif.got.tgz:59979.got - 2010.06.03 15:47:04.
