data_PCOD9468012
_publ_section_title
;
Structure prediction by ZEFSAII (Michael W. Deem and Ramdas Pophale) SiO2 
 PCOD9468012
Probable space group: P N M A
;
_chemical_formula_sum "Si O2"
_cell_formula_units_Z 40
_cell_length_a 9.000000
_cell_length_b 9.000000
_cell_length_c 24.000000
_cell_angle_alpha 90.000000
_cell_angle_beta 90.000000
_cell_angle_gamma 90.000000
_cell_volume 1944.000000
_symmetry_space_group_name_H-M "P N M A"
_symmetry_group_IT_number 62
_symmetry_cell_setting 'orthorhombic'
loop_
_space_group_symop_operation_xyz
x,y,z
1/2-x,-y,1/2+z
1/2+x,1/2-y,1/2-z
-x,1/2+y,-z
-x,-y,-z
1/2+x,y,1/2-z
1/2-x,1/2+y,1/2+z
x,1/2-y,z
loop_
_atom_site_type_symbol
_atom_site_label
_atom_site_fract_x
_atom_site_fract_y
_atom_site_fract_z
Si Si1 0.841546 0.577388 0.565972
Si Si2 0.850927 0.573384 0.976209
Si Si3 0.658250 0.927732 0.874952
Si Si4 0.287084 0.425434 0.314257
Si Si5 0.516175 0.427232 0.771147
O O1 0.835190 0.750000 0.548063
O O2 0.782573 0.473529 0.517427
O O3 0.733810 0.559494 0.619495
O O4 0.007235 0.548298 0.588822
O O5 0.869278 0.750000 0.976334
O O6 0.797136 0.530669 0.913945
O O7 0.000000 0.500000 0.000000
O O8 0.664237 0.750000 0.862642
O O9 0.633536 0.018666 0.818500
O O10 0.295605 0.250000 0.301510
O O11 0.424152 0.510977 0.287266
O O12 0.138001 0.495115 0.287767
O O13 0.502125 0.250000 0.771391
#
# Coordination Sequence:
#
# PCOD9468012 Si02
#       5
#     8   8   8   8   8
#     4   9  19  37  60  82 106 141 186 228 272 330
#     4  11  23  37  56  82 113 146 182 227 278 329
#     4   9  20  39  59  80 109 149 188 222 274 343
#     4  10  21  39  60  82 114 155 188 222 278 345
#     4  11  22  36  58  88 115 143 187 241 281 319
#
# _framework density 20.576132000000001
#
# number of rings (size 3 to 8) (size 9 to 14) (size 15 to 20)
#    0.000    2.000    0.000    4.800    0.000    7.200 
#    0.000    2.000    0.000    0.000    0.000    0.000 
#    0.000    0.000    0.000    0.000    0.000    0.000 
#
# Total GULP energy -223624.056232 kJ/mol
# GULP energy per Si atom -5590.601406 kJ/mol
# Density = 2.052930 g / cm^3
# Si number density = 20.576132 Si / 1000 Ang^3
#
#
#
# Elastic Constant Matrix: (Units=GPa)
#
#
# Indices 1 2 3 4 5 6 
#
# 1 0.4055 -4.3948 -7.7900 0.0000 0.0000 0.0000
# 2 -4.3948 62.6445 13.9042 0.0000 0.0000 0.0000
# 3 -7.7900 13.9042 32.4846 0.0000 0.0000 0.0000
# 4 0.0000 0.0000 0.0000 32.6441 0.0000 0.0000
# 5 0.0000 0.0000 0.0000 0.0000 34.3169 0.0000
# 6 0.0000 0.0000 0.0000 0.0000 0.0000 28.5121
#
#
#
# Elastic Compliance Matrix: (Units=1/GPa)
#
#
# Indices 1 2 3 4 5 6 
#
# 1 -0.674563 -0.012618 -0.156364 0.000000 0.000000 0.000000
# 2 -0.012618 0.017403 -0.010475 0.000000 0.000000 0.000000
# 3 -0.156364 -0.010475 -0.002230 0.000000 0.000000 0.000000
# 4 0.000000 0.000000 0.000000 0.030633 0.000000 0.000000
# 5 0.000000 0.000000 0.000000 0.000000 0.029140 0.000000
# 6 0.000000 0.000000 0.000000 0.000000 0.000000 0.035073
#
#
# Mechanical properties :
#
#
# Convention : Reuss Voigt Hill
#
# Bulk Modulus (GPa) = -0.98203 10.99704 5.00751
# Shear Modulus (GPa) = -9.17322 25.34895 8.08787
#
# Velocity S-wave (km/s) = -2.11373 3.51374 1.98475
# Velocity P-wave (km/s) = 2.53682 4.67097 2.77331
#
# Compressibility (1/GPa) = -1.01830357
#
# Stress axis : x y z
#
# Youngs Moduli (GPa) = -1.48244 57.46204 -448.48477
#
# Poissons Ratio (x) = 0.72507 -70.12671
# Poissons Ratio (y) = -0.01871 -4.69777
# Poissons Ratio (z) = -0.23180 0.60190
#
# Static dielectric constant tensor:
#      x y z
#    x 1.764970 0.000000 0.000000 
#    y 0.000000 1.679780 0.000000 
#    z 0.000000 0.000000 1.745630 
# 
# From -- ./inp_files/28565.got.cif
#   From: 2010.05.17/outbox.ucp.g08.bks.cvg/sg62_15_cif.got.tgz:28565.got - 2010.06.11 16:29:25.
