data_PCOD9468379
_publ_section_title
;
Structure prediction by ZEFSAII (Michael W. Deem and Ramdas Pophale) SiO2 
 PCOD9468379
Probable space group: C M C M
;
_chemical_formula_sum "Si O2"
_cell_formula_units_Z 72
_cell_length_a 18.255325
_cell_length_b 11.872637
_cell_length_c 14.940229
_cell_angle_alpha 90.000000
_cell_angle_beta 90.000000
_cell_angle_gamma 90.000000
_cell_volume 3238.128008
_symmetry_space_group_name_H-M "C M C M"
_symmetry_group_IT_number 63
_symmetry_cell_setting 'orthorhombic'
loop_
_space_group_symop_operation_xyz
x,y,z
-x,-y,1/2+z
x,-y,-z
-x,y,1/2-z
-x,-y,-z
x,y,1/2-z
-x,y,z
x,-y,1/2+z
1/2+x,1/2+y,z
1/2-x,1/2-y,1/2+z
1/2+x,1/2-y,-z
1/2-x,1/2+y,1/2-z
1/2-x,1/2-y,-z
1/2+x,1/2+y,1/2-z
1/2-x,1/2+y,z
1/2+x,1/2-y,1/2+z
loop_
_atom_site_type_symbol
_atom_site_label
_atom_site_fract_x
_atom_site_fract_y
_atom_site_fract_z
Si Si1 0.414756 0.967412 0.149277
Si Si2 0.082543 0.131276 0.473633
Si Si3 0.185552 0.500000 0.500000
Si Si4 0.618964 0.764769 0.654143
Si Si5 0.768897 0.815233 0.908944
O O1 0.391301 0.932909 0.250000
O O2 0.500000 0.939671 0.137806
O O3 0.406157 0.104378 0.146201
O O4 0.367148 0.926981 0.064678
O O5 0.093077 0.198711 0.566943
O O6 0.144411 0.171447 0.403227
O O7 0.000000 0.147713 0.440635
O O8 0.092650 0.000000 0.500000
O O9 0.237808 0.439046 0.569824
O O10 0.591800 0.721347 0.750000
O O11 0.708100 0.764208 0.655954
O O12 0.750000 0.750000 0.000000
#
# Coordination Sequence:
#
# PCOD9468379 Si02
#       5
#    16  16   8  16  16
#     4   9  17  29  48  76 106 135 174 223 274 329
#     4  10  19  32  52  78 110 145 182 225 271 326
#     4  10  17  30  49  70 102 140 176 220 267 318
#     4   9  18  33  54  78 105 139 183 232 273 321
#     4   9  18  33  52  74 103 137 178 216 264 323
#
# _framework density 22.23507
#
# number of rings (size 3 to 8) (size 9 to 14) (size 15 to 20)
#    0.000    2.667    1.111    1.000    0.000    1.333 
#    0.000    6.667    0.000    2.000    0.000    1.556 
#    0.000    3.556    0.000    0.000    0.000    0.000 
#
# Total GULP energy -200540.894692 kJ/mol
# GULP energy per Si atom -5570.580408 kJ/mol
# Density = 2.218446 g / cm^3
# Si number density = 22.235070 Si / 1000 Ang^3
#
#
#
# Elastic Constant Matrix: (Units=GPa)
#
#
# Indices 1 2 3 4 5 6 
#
# 1 169.6500 -0.0752 13.4292 0.0000 0.0000 0.0000
# 2 -0.0752 40.0642 -4.5613 0.0000 0.0000 0.0000
# 3 13.4292 -4.5613 67.5568 0.0000 0.0000 0.0000
# 4 0.0000 0.0000 0.0000 10.9837 0.0000 0.0000
# 5 0.0000 0.0000 0.0000 0.0000 -1.6923 0.0000
# 6 0.0000 0.0000 0.0000 0.0000 0.0000 14.8013
#
#
#
# Elastic Compliance Matrix: (Units=1/GPa)
#
#
# Indices 1 2 3 4 5 6 
#
# 1 0.005989 -0.000125 -0.001199 0.000000 0.000000 0.000000
# 2 -0.000125 0.025156 0.001723 0.000000 0.000000 0.000000
# 3 -0.001199 0.001723 0.015157 0.000000 0.000000 0.000000
# 4 0.000000 0.000000 0.000000 0.091044 0.000000 0.000000
# 5 0.000000 0.000000 0.000000 0.000000 -0.590920 0.000000
# 6 0.000000 0.000000 0.000000 0.000000 0.000000 0.067562
#
#
# Mechanical properties :
#
#
# Convention : Reuss Voigt Hill
#
# Bulk Modulus (GPa) = 21.23122 32.76184 26.99653
# Shear Modulus (GPa) = -13.47311 22.71711 4.62200
#
# Velocity S-wave (km/s) = -2.46425 3.19984 1.44333
# Velocity P-wave (km/s) = 1.21348 5.33088 3.86593
#
# Compressibility (1/GPa) = 0.04710045
#
# Stress axis : x y z
#
# Youngs Moduli (GPa) = 166.96314 39.75212 65.97585
#
# Poissons Ratio (x) = 0.00498 0.07911
# Poissons Ratio (y) = 0.02092 -0.11370
# Poissons Ratio (z) = 0.20020 -0.06851
#
# Static dielectric constant tensor:
#      x y z
#    x 1.916150 0.000000 0.000000 
#    y 0.000000 2.154420 0.000000 
#    z 0.000000 0.000000 1.790550 
# 
# From -- ./inp_files/45221.got.cif
#   From: 2010.05.17/outbox.cif.g08.bks.cpg/sg63_23_cif.got.tgz:45221.got - 2010.06.03 15:47:04.
