data_PCOD9468857
_publ_section_title
;
Structure prediction by ZEFSAII (Michael W. Deem and Ramdas Pophale) SiO2 
 PCOD9468857
Probable space group: C M C M
;
_chemical_formula_sum "Si O2"
_cell_formula_units_Z 96
_cell_length_a 23.590167
_cell_length_b 27.823626
_cell_length_c 8.741110
_cell_angle_alpha 90.000000
_cell_angle_beta 90.000000
_cell_angle_gamma 90.000000
_cell_volume 5737.349783
_symmetry_space_group_name_H-M "C M C M"
_symmetry_group_IT_number 63
_symmetry_cell_setting 'orthorhombic'
loop_
_space_group_symop_operation_xyz
x,y,z
-x,-y,1/2+z
x,-y,-z
-x,y,1/2-z
-x,-y,-z
x,y,1/2-z
-x,y,z
x,-y,1/2+z
1/2+x,1/2+y,z
1/2-x,1/2-y,1/2+z
1/2+x,1/2-y,-z
1/2-x,1/2+y,1/2-z
1/2-x,1/2-y,-z
1/2+x,1/2+y,1/2-z
1/2-x,1/2+y,z
1/2+x,1/2-y,1/2+z
loop_
_atom_site_type_symbol
_atom_site_label
_atom_site_fract_x
_atom_site_fract_y
_atom_site_fract_z
Si Si1 0.000000 0.258744 0.937376
Si Si2 0.793956 0.859338 0.435278
Si Si3 0.815290 0.701488 0.572595
Si Si4 0.617301 0.286648 0.432525
Si Si5 0.000000 0.371645 0.566561
Si Si6 0.272470 0.947791 0.567827
Si Si7 0.617988 0.898148 0.428456
O O1 0.056299 0.230922 0.991172
O O2 0.000000 0.258866 0.750000
O O3 0.000000 0.315043 0.982850
O O4 0.793004 0.864690 0.250000
O O5 0.745264 0.820121 0.473412
O O6 0.853543 0.836210 0.485623
O O7 0.773016 0.908679 0.508652
O O8 0.812388 0.716939 0.750000
O O9 0.839318 0.743923 0.471244
O O10 0.857787 0.656219 0.562685
O O11 0.612419 0.290707 0.250000
O O12 0.056526 0.396952 0.504482
O O13 0.000000 0.372274 0.750000
O O14 0.272467 0.948946 0.750000
O O15 0.334334 0.930474 0.508937
O O16 0.260308 0.000000 0.500000
O O17 0.614440 0.911434 0.250000
#
# Coordination Sequence:
#
# PCOD9468857 Si02
#       7
#     8  16  16  16   8  16  16
#     4   9  18  29  45  72 105 142 181 215 244 288
#     4   9  19  33  49  72 101 133 168 209 257 308
#     4   9  17  28  43  67  99 132 170 212 251 295
#     4  10  18  30  47  69 102 140 175 210 249 295
#     4  11  19  31  50  74 105 142 188 221 250 296
#     4  11  22  38  59  79 100 126 161 210 267 318
#     4  10  20  34  51  74 104 138 177 216 257 301
#
# _framework density 16.732464
#
# number of rings (size 3 to 8) (size 9 to 14) (size 15 to 20)
#    0.000    2.167    1.667    3.750    0.000    3.333 
#    0.000    0.833    0.000    0.000    0.000    0.583 
#    0.000    0.000    0.000    0.000    0.000    0.000 
#
# Total GULP energy -267725.265395 kJ/mol
# GULP energy per Si atom -5577.609696 kJ/mol
# Density = 1.669438 g / cm^3
# Si number density = 16.732464 Si / 1000 Ang^3
#
#
#
# Elastic Constant Matrix: (Units=GPa)
#
#
# Indices 1 2 3 4 5 6 
#
# 1 43.6261 54.1623 22.3083 0.0000 0.0000 0.0000
# 2 54.1623 95.3326 31.1201 0.0000 0.0000 0.0000
# 3 22.3083 31.1201 45.3935 0.0000 0.0000 0.0000
# 4 0.0000 0.0000 0.0000 20.5541 0.0000 0.0000
# 5 0.0000 0.0000 0.0000 0.0000 15.3191 0.0000
# 6 0.0000 0.0000 0.0000 0.0000 0.0000 5.8698
#
#
#
# Elastic Compliance Matrix: (Units=1/GPa)
#
#
# Indices 1 2 3 4 5 6 
#
# 1 0.081656 -0.042891 -0.010725 0.000000 0.000000 0.000000
# 2 -0.042891 0.036043 -0.003631 0.000000 0.000000 0.000000
# 3 -0.010725 -0.003631 0.029790 0.000000 0.000000 0.000000
# 4 0.000000 0.000000 0.000000 0.048652 0.000000 0.000000
# 5 0.000000 0.000000 0.000000 0.000000 0.065278 0.000000
# 6 0.000000 0.000000 0.000000 0.000000 0.000000 0.170363
#
#
# Mechanical properties :
#
#
# Convention : Reuss Voigt Hill
#
# Bulk Modulus (GPa) = 30.30808 44.39262 37.35035
# Shear Modulus (GPa) = 8.97224 13.46603 11.21914
#
# Velocity S-wave (km/s) = 2.31815 2.83995 2.59221
# Velocity P-wave (km/s) = 5.03168 6.11083 5.59732
#
# Compressibility (1/GPa) = 0.03299450
#
# Stress axis : x y z
#
# Youngs Moduli (GPa) = 12.24653 27.74457 33.56870
#
# Poissons Ratio (x) = 1.18999 0.36001
# Poissons Ratio (y) = 0.52527 0.12190
# Poissons Ratio (z) = 0.13134 0.10075
#
# Static dielectric constant tensor:
#      x y z
#    x 1.582010 0.000000 0.000000 
#    y 0.000000 1.553430 0.000000 
#    z 0.000000 0.000000 1.563810 
# 
# From -- ./inp_files/10757.got.cif
#   From: 2010.05.17/outbox.cif.g08.bks.cpg/sg63_6_cif.got.tgz:10757.got - 2010.06.03 15:47:04.
