data_PCOD9468296
_publ_section_title
;
Structure prediction by ZEFSAII (Michael W. Deem and Ramdas Pophale) SiO2 
 PCOD9468296
Probable space group: C M C M
;
_chemical_formula_sum "Si O2"
_cell_formula_units_Z 112
_cell_length_a 31.772937
_cell_length_b 13.669961
_cell_length_c 14.488377
_cell_angle_alpha 90.000000
_cell_angle_beta 90.000000
_cell_angle_gamma 90.000000
_cell_volume 6292.806466
_symmetry_space_group_name_H-M "C M C M"
_symmetry_group_IT_number 63
_symmetry_cell_setting 'orthorhombic'
loop_
_space_group_symop_operation_xyz
x,y,z
-x,-y,1/2+z
x,-y,-z
-x,y,1/2-z
-x,-y,-z
x,y,1/2-z
-x,y,z
x,-y,1/2+z
1/2+x,1/2+y,z
1/2-x,1/2-y,1/2+z
1/2+x,1/2-y,-z
1/2-x,1/2+y,1/2-z
1/2-x,1/2-y,-z
1/2+x,1/2+y,1/2-z
1/2-x,1/2+y,z
1/2+x,1/2-y,1/2+z
loop_
_atom_site_type_symbol
_atom_site_label
_atom_site_fract_x
_atom_site_fract_y
_atom_site_fract_z
Si Si1 0.368830 0.827467 0.854592
Si Si2 0.547582 0.260810 0.362695
Si Si3 0.205636 0.814536 0.546395
Si Si4 0.210519 0.392036 0.537811
Si Si5 0.047328 0.011888 0.637394
Si Si6 0.818882 0.124197 0.649422
Si Si7 0.368756 0.579714 0.356791
O O1 0.372708 0.864380 0.750000
O O2 0.415228 0.810176 0.895863
O O3 0.333317 0.888049 0.907063
O O4 0.349717 0.717483 0.850418
O O5 0.549577 0.259482 0.250000
O O6 0.500000 0.233554 0.389319
O O7 0.554322 0.374645 0.389005
O O8 0.206484 0.698044 0.534701
O O9 0.247542 0.857785 0.594307
O O10 0.207499 0.861227 0.443131
O O11 0.161902 0.848738 0.588995
O O12 0.216849 0.500000 0.500000
O O13 0.049077 0.010794 0.750000
O O14 0.084657 0.941426 0.605132
O O15 0.000000 0.983130 0.610268
O O16 0.796915 0.123257 0.750000
O O17 0.845540 0.025485 0.641766
O O18 0.371764 0.610975 0.250000
#
# Coordination Sequence:
#
# PCOD9468296 Si02
#       7
#    16  16  16  16  16  16  16
#     4   9  16  28  48  73  95 124 165 204 245 293
#     4   8  12  21  41  71 104 131 161 205 250 288
#     4  10  21  35  52  71  95 129 167 207 249 304
#     4  10  21  37  51  67  94 126 160 203 258 303
#     4   8  13  22  40  70 108 143 169 197 239 289
#     4   9  16  28  48  72  96 127 166 203 242 289
#     4  10  17  27  47  75 107 139 167 194 238 299
#
# _framework density 17.798100000000002
#
# number of rings (size 3 to 8) (size 9 to 14) (size 15 to 20)
#    0.000    2.857    1.429    2.143    0.000    0.571 
#    0.000    3.571    0.000    5.571    0.000    0.000 
#    0.000    4.571    0.000    0.000    0.000    0.000 
#
# Total GULP energy -311804.156351 kJ/mol
# GULP energy per Si atom -5567.931363 kJ/mol
# Density = 1.775759 g / cm^3
# Si number density = 17.798100 Si / 1000 Ang^3
#
#
#
# Elastic Constant Matrix: (Units=GPa)
#
#
# Indices 1 2 3 4 5 6 
#
# 1 145.8599 37.5251 29.3877 0.0000 0.0000 0.0000
# 2 37.5251 74.5991 13.7126 0.0000 0.0000 0.0000
# 3 29.3877 13.7126 40.6809 0.0000 0.0000 0.0000
# 4 0.0000 0.0000 0.0000 6.6723 0.0000 0.0000
# 5 0.0000 0.0000 0.0000 0.0000 33.6924 0.0000
# 6 0.0000 0.0000 0.0000 0.0000 0.0000 30.9395
#
#
#
# Elastic Compliance Matrix: (Units=1/GPa)
#
#
# Indices 1 2 3 4 5 6 
#
# 1 0.008793 -0.003470 -0.005182 0.000000 0.000000 0.000000
# 2 -0.003470 0.015660 -0.002772 0.000000 0.000000 0.000000
# 3 -0.005182 -0.002772 0.029259 0.000000 0.000000 0.000000
# 4 0.000000 0.000000 0.000000 0.149874 0.000000 0.000000
# 5 0.000000 0.000000 0.000000 0.000000 0.029680 0.000000
# 6 0.000000 0.000000 0.000000 0.000000 0.000000 0.032321
#
#
# Mechanical properties :
#
#
# Convention : Reuss Voigt Hill
#
# Bulk Modulus (GPa) = 32.40021 46.93230 39.66625
# Shear Modulus (GPa) = 16.73784 26.29513 21.51649
#
# Velocity S-wave (km/s) = 3.06997 3.84788 3.48073
# Velocity P-wave (km/s) = 5.55068 6.79471 6.20396
#
# Compressibility (1/GPa) = 0.03086400
#
# Stress axis : x y z
#
# Youngs Moduli (GPa) = 113.72926 63.85622 34.17708
#
# Poissons Ratio (x) = 0.22161 0.17711
# Poissons Ratio (y) = 0.39469 0.09473
# Poissons Ratio (z) = 0.58936 0.17699
#
# Static dielectric constant tensor:
#      x y z
#    x 1.678490 0.000000 0.000000 
#    y 0.000000 1.570420 0.000000 
#    z 0.000000 0.000000 1.675210 
# 
# From -- ./inp_files/38700.got.cif
#   From: 2010.05.17/outbox.cif.g08.bks.cpg/sg63_20_cif.got.tgz:38700.got - 2010.06.03 15:47:04.
