data_PCOD9468529
_publ_section_title
;
Structure prediction by ZEFSAII (Michael W. Deem and Ramdas Pophale) SiO2 
 PCOD9468529
Probable space group: C M C M
;
_chemical_formula_sum "Si O2"
_cell_formula_units_Z 80
_cell_length_a 22.471615
_cell_length_b 9.894248
_cell_length_c 13.960915
_cell_angle_alpha 90.000000
_cell_angle_beta 90.000000
_cell_angle_gamma 90.000000
_cell_volume 3104.066096
_symmetry_space_group_name_H-M "C M C M"
_symmetry_group_IT_number 63
_symmetry_cell_setting 'orthorhombic'
loop_
_space_group_symop_operation_xyz
x,y,z
-x,-y,1/2+z
x,-y,-z
-x,y,1/2-z
-x,-y,-z
x,y,1/2-z
-x,y,z
x,-y,1/2+z
1/2+x,1/2+y,z
1/2-x,1/2-y,1/2+z
1/2+x,1/2-y,-z
1/2-x,1/2+y,1/2-z
1/2-x,1/2-y,-z
1/2+x,1/2+y,1/2-z
1/2-x,1/2+y,z
1/2+x,1/2-y,1/2+z
loop_
_atom_site_type_symbol
_atom_site_label
_atom_site_fract_x
_atom_site_fract_y
_atom_site_fract_z
Si Si1 0.745355 0.274207 0.365662
Si Si2 0.434137 0.164576 0.447121
Si Si3 0.568786 0.698888 0.140898
Si Si4 0.623376 0.418995 0.365368
Si Si5 0.820692 0.487308 0.865467
O O1 0.747995 0.275078 0.250000
O O2 0.686915 0.358787 0.394973
O O3 0.801620 0.362626 0.397191
O O4 0.732206 0.119515 0.391347
O O5 0.500000 0.114341 0.421834
O O6 0.430075 0.186798 0.560999
O O7 0.425153 0.314949 0.404648
O O8 0.380616 0.076570 0.406080
O O9 0.584147 0.741037 0.250000
O O10 0.500000 0.649631 0.143213
O O11 0.609936 0.573577 0.110174
O O12 0.621722 0.413744 0.250000
O O13 0.825269 0.485365 0.750000
#
# Coordination Sequence:
#
# PCOD9468529 Si02
#       5
#    16  16  16  16  16
#     4   8  15  28  46  70 102 138 177 218 259 309
#     4  10  18  27  43  71 103 133 169 217 272 324
#     4   9  17  28  42  63  95 135 175 216 266 321
#     4   9  16  26  42  66  98 133 167 209 261 313
#     4   9  17  30  49  75 106 141 179 218 262 314
#
# _framework density 25.772646000000002
#
# number of rings (size 3 to 8) (size 9 to 14) (size 15 to 20)
#    0.000    3.000    0.000    3.000    0.000    4.000 
#    0.000    1.000    0.000    0.000    0.000   12.600 
#    0.000   43.200    0.000    0.200    0.000   72.200 
#
# Total GULP energy -224036.021215 kJ/mol
# GULP energy per Si atom -5600.900530 kJ/mol
# Density = 2.571399 g / cm^3
# Si number density = 25.772646 Si / 1000 Ang^3
#
#
#
# Elastic Constant Matrix: (Units=GPa)
#
#
# Indices 1 2 3 4 5 6 
#
# 1 102.6457 26.9728 -7.4607 0.0000 0.0000 0.0000
# 2 26.9728 105.1559 3.4042 0.0000 0.0000 0.0000
# 3 -7.4607 3.4042 65.7914 0.0000 0.0000 0.0000
# 4 0.0000 0.0000 0.0000 26.7671 0.0000 0.0000
# 5 0.0000 0.0000 0.0000 0.0000 25.4943 0.0000
# 6 0.0000 0.0000 0.0000 0.0000 0.0000 39.2978
#
#
#
# Elastic Compliance Matrix: (Units=1/GPa)
#
#
# Indices 1 2 3 4 5 6 
#
# 1 0.010563 -0.002753 0.001340 0.000000 0.000000 0.000000
# 2 -0.002753 0.010243 -0.000842 0.000000 0.000000 0.000000
# 3 0.001340 -0.000842 0.015395 0.000000 0.000000 0.000000
# 4 0.000000 0.000000 0.000000 0.037359 0.000000 0.000000
# 5 0.000000 0.000000 0.000000 0.000000 0.039224 0.000000
# 6 0.000000 0.000000 0.000000 0.000000 0.000000 0.025447
#
#
# Mechanical properties :
#
#
# Convention : Reuss Voigt Hill
#
# Bulk Modulus (GPa) = 31.55395 35.49175 33.52285
# Shear Modulus (GPa) = 32.61470 35.02361 33.81916
#
# Velocity S-wave (km/s) = 3.56121 3.69039 3.62638
# Velocity P-wave (km/s) = 5.40180 5.65328 5.52897
#
# Compressibility (1/GPa) = 0.03169175
#
# Stress axis : x y z
#
# Youngs Moduli (GPa) = 94.66972 97.62707 64.95564
#
# Poissons Ratio (x) = 0.26875 -0.08706
# Poissons Ratio (y) = 0.26061 0.05470
# Poissons Ratio (z) = -0.12688 0.08222
#
# Static dielectric constant tensor:
#      x y z
#    x 2.018150 0.000000 0.000000 
#    y 0.000000 2.002640 0.000000 
#    z 0.000000 0.000000 2.022190 
# 
# From -- ./inp_files/36459.got.cif
#   From: 2010.05.17/outbox.cif.g08.bks.cpg/sg63_19_cif.got.tgz:36459.got - 2010.06.03 15:47:04.
