data_PCOD9468997
_publ_section_title
;
Structure prediction by ZEFSAII (Michael W. Deem and Ramdas Pophale) SiO2 
 PCOD9468997
Probable space group: C M C M
;
_chemical_formula_sum "Si O2"
_cell_formula_units_Z 96
_cell_length_a 12.281258
_cell_length_b 26.265558
_cell_length_c 15.276636
_cell_angle_alpha 90.000000
_cell_angle_beta 90.000000
_cell_angle_gamma 90.000000
_cell_volume 4927.847022
_symmetry_space_group_name_H-M "C M C M"
_symmetry_group_IT_number 63
_symmetry_cell_setting 'orthorhombic'
loop_
_space_group_symop_operation_xyz
x,y,z
-x,-y,1/2+z
x,-y,-z
-x,y,1/2-z
-x,-y,-z
x,y,1/2-z
-x,y,z
x,-y,1/2+z
1/2+x,1/2+y,z
1/2-x,1/2-y,1/2+z
1/2+x,1/2-y,-z
1/2-x,1/2+y,1/2-z
1/2-x,1/2-y,-z
1/2+x,1/2+y,1/2-z
1/2-x,1/2+y,z
1/2+x,1/2-y,1/2+z
loop_
_atom_site_type_symbol
_atom_site_label
_atom_site_fract_x
_atom_site_fract_y
_atom_site_fract_z
Si Si1 0.124632 0.793536 0.853603
Si Si2 0.500000 0.022840 0.596784
Si Si3 0.773384 0.306818 0.354160
Si Si4 0.500000 0.865256 0.352442
Si Si5 0.238961 0.495519 0.392432
Si Si6 0.376382 0.602340 0.905512
Si Si7 0.876410 0.091878 0.385907
O O1 0.115006 0.782716 0.750000
O O2 0.207129 0.750646 0.887834
O O3 0.162581 0.851536 0.862592
O O4 0.000000 0.790235 0.889870
O O5 0.500000 0.083860 0.591512
O O6 0.614503 0.007025 0.638375
O O7 0.500000 0.000000 0.500000
O O8 0.751144 0.305823 0.250000
O O9 0.891077 0.333232 0.367583
O O10 0.682192 0.343415 0.393959
O O11 0.500000 0.880474 0.250000
O O12 0.237434 0.500000 0.500000
O O13 0.302495 0.443597 0.368413
O O14 0.301778 0.545045 0.358809
O O15 0.500000 0.602095 0.870990
O O16 0.382090 0.591271 0.008875
O O17 0.000000 0.086185 0.352568
#
# Coordination Sequence:
#
# PCOD9468997 Si02
#       7
#    16   8  16   8  16  16  16
#     4   9  17  32  53  74  95 125 166 208 247 289
#     4  10  18  30  52  76 100 128 164 200 248 298
#     4  10  19  32  52  74  97 125 161 207 256 293
#     4  10  18  32  52  78 100 122 159 210 260 295
#     4   9  17  30  49  73  99 129 160 198 242 291
#     4  10  19  31  49  72 103 133 163 197 243 296
#     4   9  18  32  50  72 100 132 167 200 240 292
#
# _framework density 19.481123
#
# number of rings (size 3 to 8) (size 9 to 14) (size 15 to 20)
#    0.000    2.500    2.500    0.500    0.000    3.000 
#    0.000    1.667    1.833    2.000    0.000    0.000 
#    0.000    0.000    0.000    0.000    0.000    0.000 
#
# Total GULP energy -267633.555782 kJ/mol
# GULP energy per Si atom -5575.699079 kJ/mol
# Density = 1.943678 g / cm^3
# Si number density = 19.481123 Si / 1000 Ang^3
#
#
#
# Elastic Constant Matrix: (Units=GPa)
#
#
# Indices 1 2 3 4 5 6 
#
# 1 141.6473 76.7877 6.6185 0.0000 0.0000 0.0000
# 2 76.7877 154.4306 1.7786 0.0000 0.0000 0.0000
# 3 6.6185 1.7786 26.4500 0.0000 0.0000 0.0000
# 4 0.0000 0.0000 0.0000 28.1294 0.0000 0.0000
# 5 0.0000 0.0000 0.0000 0.0000 -1.2565 0.0000
# 6 0.0000 0.0000 0.0000 0.0000 0.0000 17.5191
#
#
#
# Elastic Compliance Matrix: (Units=1/GPa)
#
#
# Indices 1 2 3 4 5 6 
#
# 1 0.009783 -0.004840 -0.002122 0.000000 0.000000 0.000000
# 2 -0.004840 0.008875 0.000614 0.000000 0.000000 0.000000
# 3 -0.002122 0.000614 0.038297 0.000000 0.000000 0.000000
# 4 0.000000 0.000000 0.000000 0.035550 0.000000 0.000000
# 5 0.000000 0.000000 0.000000 0.000000 -0.795886 0.000000
# 6 0.000000 0.000000 0.000000 0.000000 0.000000 0.057081
#
#
# Mechanical properties :
#
#
# Convention : Reuss Voigt Hill
#
# Bulk Modulus (GPa) = 22.59449 54.76636 38.68042
# Shear Modulus (GPa) = -8.07948 24.70128 8.31090
#
# Velocity S-wave (km/s) = -2.03871 3.56471 2.06770
# Velocity P-wave (km/s) = 2.46608 6.71687 5.05954
#
# Compressibility (1/GPa) = 0.04425858
#
# Stress axis : x y z
#
# Youngs Moduli (GPa) = 102.22201 112.67840 26.11169
#
# Poissons Ratio (x) = 0.54534 0.05542
# Poissons Ratio (y) = 0.49473 -0.01604
# Poissons Ratio (z) = 0.21696 -0.06922
#
# Static dielectric constant tensor:
#      x y z
#    x 1.689390 0.000000 0.000000 
#    y 0.000000 1.689590 0.000000 
#    z 0.000000 0.000000 1.710400 
# 
# From -- ./inp_files/42748.got.cif
#   From: 2010.05.17/outbox.cif.g08.bks.cpg/sg63_22_cif.got.tgz:42748.got - 2010.06.03 15:47:04.
