data_PCOD9468104
_publ_section_title
;
Structure prediction by ZEFSAII (Michael W. Deem and Ramdas Pophale) SiO2 
 PCOD9468104
Probable space group: C M C M
;
_chemical_formula_sum "Si O2"
_cell_formula_units_Z 84
_cell_length_a 32.222887
_cell_length_b 7.078515
_cell_length_c 15.256375
_cell_angle_alpha 90.000000
_cell_angle_beta 90.000000
_cell_angle_gamma 90.000000
_cell_volume 3479.829457
_symmetry_space_group_name_H-M "C M C M"
_symmetry_group_IT_number 63
_symmetry_cell_setting 'orthorhombic'
loop_
_space_group_symop_operation_xyz
x,y,z
-x,-y,1/2+z
x,-y,-z
-x,y,1/2-z
-x,-y,-z
x,y,1/2-z
-x,y,z
x,-y,1/2+z
1/2+x,1/2+y,z
1/2-x,1/2-y,1/2+z
1/2+x,1/2-y,-z
1/2-x,1/2+y,1/2-z
1/2-x,1/2-y,-z
1/2+x,1/2+y,1/2-z
1/2-x,1/2+y,z
1/2+x,1/2-y,1/2+z
loop_
_atom_site_type_symbol
_atom_site_label
_atom_site_fract_x
_atom_site_fract_y
_atom_site_fract_z
Si Si1 0.140071 0.751946 0.347336
Si Si2 0.943306 0.235754 0.405165
Si Si3 0.954598 0.217260 0.892450
Si Si4 0.700978 0.723814 0.002621
Si Si5 0.000000 0.380384 0.250000
Si Si6 0.854084 0.791102 0.651143
O O1 0.152671 0.688454 0.250000
O O2 0.090537 0.713717 0.359829
O O3 0.171456 0.694567 0.425535
O O4 0.143602 0.980942 0.346570
O O5 0.956598 0.268365 0.504892
O O6 0.894521 0.268590 0.401821
O O7 0.964625 0.351647 0.328304
O O8 0.952095 0.012505 0.385931
O O9 0.000000 0.270005 0.851357
O O10 0.693509 0.500000 0.000000
O O11 0.750000 0.750000 0.000000
O O12 0.685119 0.780421 0.098332
O O13 0.856286 0.725992 0.750000
#
# Coordination Sequence:
#
# PCOD9468104 Si02
#       6
#    16  16  16  16   4  16
#     4   9  18  28  43  63  91 123 159 193 234 283
#     4  10  16  21  31  53  83 119 160 185 217 271
#     4  10  16  23  33  53  87 125 155 184 221 277
#     4  10  20  35  52  70  94 123 158 201 245 286
#     4  12  16  18  32  56  82 120 166 190 216 272
#     4   9  16  27  43  62  87 123 156 188 233 284
#
# _framework density 24.139113999999999
#
# number of rings (size 3 to 8) (size 9 to 14) (size 15 to 20)
#    0.000    2.286    4.762    0.571    1.333    1.143 
#    0.000    0.000    0.000    0.000    0.000    0.000 
#    0.000    0.762    0.000    0.762    0.000    2.857 
#
# Total GULP energy -234159.089136 kJ/mol
# GULP energy per Si atom -5575.216408 kJ/mol
# Density = 2.408417 g / cm^3
# Si number density = 24.139114 Si / 1000 Ang^3
#
#
#
# Elastic Constant Matrix: (Units=GPa)
#
#
# Indices 1 2 3 4 5 6 
#
# 1 182.9517 -10.4854 67.3795 0.0000 0.0000 0.0000
# 2 -10.4854 108.5323 -17.5735 0.0000 0.0000 0.0000
# 3 67.3795 -17.5735 128.9479 0.0000 0.0000 0.0000
# 4 0.0000 0.0000 0.0000 -28.3888 0.0000 0.0000
# 5 0.0000 0.0000 0.0000 0.0000 40.1744 0.0000
# 6 0.0000 0.0000 0.0000 0.0000 0.0000 20.2148
#
#
#
# Elastic Compliance Matrix: (Units=1/GPa)
#
#
# Indices 1 2 3 4 5 6 
#
# 1 0.006769 0.000083 -0.003526 0.000000 0.000000 0.000000
# 2 0.000083 0.009423 0.001241 0.000000 0.000000 0.000000
# 3 -0.003526 0.001241 0.009767 0.000000 0.000000 0.000000
# 4 0.000000 0.000000 0.000000 -0.035225 0.000000 0.000000
# 5 0.000000 0.000000 0.000000 0.000000 0.024891 0.000000
# 6 0.000000 0.000000 0.000000 0.000000 0.000000 0.049469
#
#
# Mechanical properties :
#
#
# Convention : Reuss Voigt Hill
#
# Bulk Modulus (GPa) = 46.39389 55.45256 50.92322
# Shear Modulus (GPa) = 65.20417 31.80751 48.50584
#
# Velocity S-wave (km/s) = 5.20293 3.63392 4.48753
# Velocity P-wave (km/s) = 7.44010 6.37410 6.92763
#
# Compressibility (1/GPa) = 0.02155456
#
# Stress axis : x y z
#
# Youngs Moduli (GPa) = 147.72775 106.12586 102.39064
#
# Poissons Ratio (x) = -0.00882 0.36101
# Poissons Ratio (y) = -0.01227 -0.12704
# Poissons Ratio (z) = 0.52086 -0.13168
#
# Static dielectric constant tensor:
#      x y z
#    x 1.888720 0.000000 0.000000 
#    y 0.000000 2.076800 0.000000 
#    z 0.000000 0.000000 1.952160 
# 
# From -- ./inp_files/38407.got.cif
#   From: 2010.05.17/outbox.cif.g08.bks.cpg/sg63_20_cif.got.tgz:38407.got - 2010.06.03 15:47:04.
