data_PCOD9468440
_publ_section_title
;
Structure prediction by ZEFSAII (Michael W. Deem and Ramdas Pophale) SiO2 
 PCOD9468440
Probable space group: C M C M
;
_chemical_formula_sum "Si O2"
_cell_formula_units_Z 84
_cell_length_a 12.762054
_cell_length_b 14.716289
_cell_length_c 23.836804
_cell_angle_alpha 90.000000
_cell_angle_beta 90.000000
_cell_angle_gamma 90.000000
_cell_volume 4476.791945
_symmetry_space_group_name_H-M "C M C M"
_symmetry_group_IT_number 63
_symmetry_cell_setting 'orthorhombic'
loop_
_space_group_symop_operation_xyz
x,y,z
-x,-y,1/2+z
x,-y,-z
-x,y,1/2-z
-x,-y,-z
x,y,1/2-z
-x,y,z
x,-y,1/2+z
1/2+x,1/2+y,z
1/2-x,1/2-y,1/2+z
1/2+x,1/2-y,-z
1/2-x,1/2+y,1/2-z
1/2-x,1/2-y,-z
1/2+x,1/2+y,1/2-z
1/2-x,1/2+y,z
1/2+x,1/2-y,1/2+z
loop_
_atom_site_type_symbol
_atom_site_label
_atom_site_fract_x
_atom_site_fract_y
_atom_site_fract_z
Si Si1 0.874871 0.294587 0.250000
Si Si2 0.876307 0.627995 0.871840
Si Si3 0.767424 0.959370 0.626415
Si Si4 0.500000 0.531510 0.750000
Si Si5 0.500000 0.455365 0.371614
Si Si6 0.689300 0.296114 0.550659
Si Si7 0.000000 0.892876 0.489259
Si Si8 0.291697 0.591348 0.250000
O O1 0.850880 0.348798 0.193157
O O2 0.817638 0.197944 0.250000
O O3 0.000000 0.276324 0.250000
O O4 0.802099 0.545599 0.890869
O O5 0.853163 0.718221 0.907811
O O6 0.000000 0.606110 0.875972
O O7 0.751041 0.871827 0.587452
O O8 0.739966 0.934892 0.690918
O O9 0.891950 0.986367 0.623669
O O10 0.500000 0.584472 0.808615
O O11 0.600202 0.465817 0.750000
O O12 0.500000 0.383872 0.422034
O O13 0.750000 0.250000 0.500000
O O14 0.597918 0.349338 0.519286
O O15 0.000000 0.000000 0.500000
#
# Coordination Sequence:
#
# PCOD9468440 Si02
#       8
#     8  16  16   4   8  16   8   8
#     4  10  19  34  67  97 127 165 215 264 318 381
#     4  11  24  42  63  96 131 170 215 260 319 395
#     4  11  22  40  65  96 128 162 211 268 325 376
#     4   8  18  28  56 100 114 144 198 260 326 362
#     4  10  20  36  66  90 122 154 208 264 322 366
#     4  12  25  40  63  92 123 167 217 262 314 378
#     4  12  22  40  62  87 123 165 205 260 318 365
#     4  10  17  33  63  95 125 155 203 269 321 366
#
# _framework density 18.763435999999999
#
# number of rings (size 3 to 8) (size 9 to 14) (size 15 to 20)
#    0.000    1.143    5.238    1.714    0.000    0.000 
#    1.714    0.952    0.000    0.000    2.476    0.000 
#    0.000    0.000    0.000    0.000    0.000    0.000 
#
# Total GULP energy -234443.185620 kJ/mol
# GULP energy per Si atom -5581.980610 kJ/mol
# Density = 1.872073 g / cm^3
# Si number density = 18.763436 Si / 1000 Ang^3
#
#
#
# Elastic Constant Matrix: (Units=GPa)
#
#
# Indices 1 2 3 4 5 6 
#
# 1 62.0762 55.8126 31.4509 0.0000 0.0000 0.0000
# 2 55.8126 130.2676 58.0218 0.0000 0.0000 0.0000
# 3 31.4509 58.0218 154.3805 0.0000 0.0000 0.0000
# 4 0.0000 0.0000 0.0000 36.1499 0.0000 0.0000
# 5 0.0000 0.0000 0.0000 0.0000 21.4698 0.0000
# 6 0.0000 0.0000 0.0000 0.0000 0.0000 11.8975
#
#
#
# Elastic Compliance Matrix: (Units=1/GPa)
#
#
# Indices 1 2 3 4 5 6 
#
# 1 0.026437 -0.010723 -0.001356 0.000000 0.000000 0.000000
# 2 -0.010723 0.013569 -0.002915 0.000000 0.000000 0.000000
# 3 -0.001356 -0.002915 0.007849 0.000000 0.000000 0.000000
# 4 0.000000 0.000000 0.000000 0.027663 0.000000 0.000000
# 5 0.000000 0.000000 0.000000 0.000000 0.046577 0.000000
# 6 0.000000 0.000000 0.000000 0.000000 0.000000 0.084051
#
#
# Mechanical properties :
#
#
# Convention : Reuss Voigt Hill
#
# Bulk Modulus (GPa) = 55.96713 70.81053 63.38883
# Shear Modulus (GPa) = 20.65343 27.33272 23.99307
#
# Velocity S-wave (km/s) = 3.32132 3.82082 3.57979
# Velocity P-wave (km/s) = 6.67838 7.56871 7.13744
#
# Compressibility (1/GPa) = 0.01786763
#
# Stress axis : x y z
#
# Youngs Moduli (GPa) = 37.82552 73.69618 127.39877
#
# Poissons Ratio (x) = 0.79025 0.17272
# Poissons Ratio (y) = 0.40560 0.37140
# Poissons Ratio (z) = 0.05128 0.21484
#
# Static dielectric constant tensor:
#      x y z
#    x 2.251240 0.000000 0.000000 
#    y 0.000000 1.634000 0.000000 
#    z 0.000000 0.000000 1.697830 
# 
# From -- ./inp_files/62756.got.cif
#   From: 2010.05.17/outbox.cif.g08.bks.cpg/sg63_32_cif.got.tgz:62756.got - 2010.06.03 15:47:04.
