data_PCOD9468785
_publ_section_title
;
Structure prediction by ZEFSAII (Michael W. Deem and Ramdas Pophale) SiO2 
 PCOD9468785
Probable space group: C M C M
;
_chemical_formula_sum "Si O2"
_cell_formula_units_Z 104
_cell_length_a 9.063662
_cell_length_b 18.366731
_cell_length_c 28.231752
_cell_angle_alpha 90.000000
_cell_angle_beta 90.000000
_cell_angle_gamma 90.000000
_cell_volume 4699.735290
_symmetry_space_group_name_H-M "C M C M"
_symmetry_group_IT_number 63
_symmetry_cell_setting 'orthorhombic'
loop_
_space_group_symop_operation_xyz
x,y,z
-x,-y,1/2+z
x,-y,-z
-x,y,1/2-z
-x,-y,-z
x,y,1/2-z
-x,y,z
x,-y,1/2+z
1/2+x,1/2+y,z
1/2-x,1/2-y,1/2+z
1/2+x,1/2-y,-z
1/2-x,1/2+y,1/2-z
1/2-x,1/2-y,-z
1/2+x,1/2+y,1/2-z
1/2-x,1/2+y,z
1/2+x,1/2-y,1/2+z
loop_
_atom_site_type_symbol
_atom_site_label
_atom_site_fract_x
_atom_site_fract_y
_atom_site_fract_z
Si Si1 0.171409 0.056424 0.829561
Si Si2 0.822951 0.646637 0.750000
Si Si3 0.261755 0.294591 0.750000
Si Si4 0.177153 0.949727 0.908098
Si Si5 0.169500 0.214279 0.931757
Si Si6 0.329332 0.131501 0.010588
Si Si7 0.336464 0.435554 0.750000
Si Si8 0.665358 0.702502 0.358359
O O1 0.282059 0.105320 0.798699
O O2 0.000000 0.083483 0.832308
O O3 0.220112 0.023164 0.880033
O O4 0.164814 0.985511 0.795661
O O5 0.704649 0.713107 0.750000
O O6 0.000000 0.664236 0.750000
O O7 0.204824 0.377157 0.750000
O O8 0.334885 0.294245 0.802049
O O9 0.249859 0.930145 0.958231
O O10 0.212597 0.877893 0.875959
O O11 0.000000 0.952233 0.912861
O O12 0.180513 0.291891 0.959800
O O13 0.234886 0.234837 0.880967
O O14 0.000000 0.193739 0.928924
O O15 0.254663 0.153389 0.961298
O O16 0.500000 0.113628 0.004595
O O17 0.500000 0.399440 0.750000
O O18 0.500000 0.713587 0.377153
#
# Coordination Sequence:
#
# PCOD9468785 Si02
#       8
#    16   8   8  16  16  16   8  16
#     4   9  18  34  54  72  96 134 176 213 252 305
#     4  11  23  34  48  72 105 139 172 214 264 307
#     4  12  21  33  53  78 103 134 177 220 257 306
#     4   9  16  27  49  76  96 124 168 214 254 294
#     4   9  17  29  42  63 100 137 165 198 247 303
#     4   9  16  26  43  68 100 133 163 199 247 303
#     4   9  14  27  52  74  91 123 174 218 246 287
#     4  10  18  29  49  73  96 126 170 216 254 294
#
# _framework density 22.128906000000001
#
# number of rings (size 3 to 8) (size 9 to 14) (size 15 to 20)
#    0.000    2.462    1.538    3.000    0.000    4.308 
#    0.000    1.923    0.000    3.692    0.000    1.077 
#    0.000    7.385    0.000    0.000    0.000    0.000 
#
# Total GULP energy -289604.535014 kJ/mol
# GULP energy per Si atom -5569.317981 kJ/mol
# Density = 2.207854 g / cm^3
# Si number density = 22.128906 Si / 1000 Ang^3
#
#
#
# Elastic Constant Matrix: (Units=GPa)
#
#
# Indices 1 2 3 4 5 6 
#
# 1 33.4377 8.7495 27.4244 0.0000 0.0000 0.0000
# 2 8.7495 38.4159 23.4725 0.0000 0.0000 0.0000
# 3 27.4244 23.4725 87.9124 0.0000 0.0000 0.0000
# 4 0.0000 0.0000 0.0000 32.5516 0.0000 0.0000
# 5 0.0000 0.0000 0.0000 0.0000 10.3833 0.0000
# 6 0.0000 0.0000 0.0000 0.0000 0.0000 -3.9798
#
#
#
# Elastic Compliance Matrix: (Units=1/GPa)
#
#
# Indices 1 2 3 4 5 6 
#
# 1 0.040291 -0.001789 -0.012091 0.000000 0.000000 0.000000
# 2 -0.001789 0.031185 -0.007768 0.000000 0.000000 0.000000
# 3 -0.012091 -0.007768 0.017221 0.000000 0.000000 0.000000
# 4 0.000000 0.000000 0.000000 0.030720 0.000000 0.000000
# 5 0.000000 0.000000 0.000000 0.000000 0.096309 0.000000
# 6 0.000000 0.000000 0.000000 0.000000 0.000000 -0.251266
#
#
# Mechanical properties :
#
#
# Convention : Reuss Voigt Hill
#
# Bulk Modulus (GPa) = 22.02624 31.00653 26.51639
# Shear Modulus (GPa) = 218.43296 14.46565 116.44931
#
# Velocity S-wave (km/s) = 9.94604 2.55953 7.26205
# Velocity P-wave (km/s) = 11.91106 4.77254 9.07333
#
# Compressibility (1/GPa) = 0.04540039
#
# Stress axis : x y z
#
# Youngs Moduli (GPa) = 24.81929 32.06694 58.06867
#
# Poissons Ratio (x) = 0.05736 0.70213
# Poissons Ratio (y) = 0.04439 0.45110
# Poissons Ratio (z) = 0.30010 0.24911
#
# Static dielectric constant tensor:
#      x y z
#    x 1.801020 0.000000 0.000000 
#    y 0.000000 1.885280 0.000000 
#    z 0.000000 0.000000 1.843950 
# 
# From -- ./inp_files/71953.got.cif
#   From: 2010.05.17/outbox.cif.g08.bks.cpg/sg63_36_cif.got.tgz:71953.got - 2010.06.03 15:47:04.
