data_PCOD9468767
_publ_section_title
;
Structure prediction by ZEFSAII (Michael W. Deem and Ramdas Pophale) SiO2 
 PCOD9468767
Probable space group: C M C M
;
_chemical_formula_sum "Si O2"
_cell_formula_units_Z 96
_cell_length_a 27.039824
_cell_length_b 14.235486
_cell_length_c 14.188945
_cell_angle_alpha 90.000000
_cell_angle_beta 90.000000
_cell_angle_gamma 90.000000
_cell_volume 5461.680165
_symmetry_space_group_name_H-M "C M C M"
_symmetry_group_IT_number 63
_symmetry_cell_setting 'orthorhombic'
loop_
_space_group_symop_operation_xyz
x,y,z
-x,-y,1/2+z
x,-y,-z
-x,y,1/2-z
-x,-y,-z
x,y,1/2-z
-x,y,z
x,-y,1/2+z
1/2+x,1/2+y,z
1/2-x,1/2-y,1/2+z
1/2+x,1/2-y,-z
1/2-x,1/2+y,1/2-z
1/2-x,1/2-y,-z
1/2+x,1/2+y,1/2-z
1/2-x,1/2+y,z
1/2+x,1/2-y,1/2+z
loop_
_atom_site_type_symbol
_atom_site_label
_atom_site_fract_x
_atom_site_fract_y
_atom_site_fract_z
Si Si1 0.000000 0.108887 0.028704
Si Si2 0.175716 0.732275 0.965324
Si Si3 0.899220 0.140588 0.363293
Si Si4 0.739427 0.400334 0.451071
Si Si5 0.359767 0.558339 0.858902
Si Si6 0.500000 0.750929 0.640542
Si Si7 0.110029 0.263364 0.861991
O O1 0.952725 0.136087 0.090670
O O2 0.000000 0.166726 0.932490
O O3 0.000000 0.000000 0.000000
O O4 0.132324 0.771570 0.900061
O O5 0.209919 0.650625 0.923424
O O6 0.211342 0.822574 0.984104
O O7 0.150746 0.698818 0.064533
O O8 0.901307 0.142351 0.250000
O O9 0.873327 0.043257 0.398740
O O10 0.748712 0.500000 0.500000
O O11 0.697996 0.420416 0.372709
O O12 0.372053 0.550778 0.750000
O O13 0.388914 0.651747 0.889835
O O14 0.500000 0.719190 0.750000
O O15 0.446289 0.799779 0.626631
O O16 0.123037 0.270968 0.750000
#
# Coordination Sequence:
#
# PCOD9468767 Si02
#       7
#     8  16  16  16  16   8  16
#     4  12  23  31  52  77 109 150 178 215 262 329
#     4  10  20  33  53  76 100 147 174 218 278 315
#     4  11  22  35  50  77 112 147 183 219 265 324
#     4  10  19  33  53  74 102 133 185 224 267 322
#     4   9  18  31  48  67 100 139 174 215 257 308
#     4  10  18  29  48  71  96 130 172 211 256 313
#     4   9  17  30  48  72  99 128 169 213 260 317
#
# _framework density 17.577009
#
# number of rings (size 3 to 8) (size 9 to 14) (size 15 to 20)
#    0.000    2.000    3.333    1.250    2.333    2.667 
#    0.000    3.333    0.000    0.000    0.000    2.333 
#    0.000    2.667    0.000    0.000    0.000    0.000 
#
# Total GULP energy -267262.890574 kJ/mol
# GULP energy per Si atom -5567.976887 kJ/mol
# Density = 1.753700 g / cm^3
# Si number density = 17.577009 Si / 1000 Ang^3
#
#
#
# Elastic Constant Matrix: (Units=GPa)
#
#
# Indices 1 2 3 4 5 6 
#
# 1 130.1676 28.5996 26.3483 0.0000 0.0000 0.0000
# 2 28.5996 21.5953 4.0137 0.0000 0.0000 0.0000
# 3 26.3483 4.0137 55.2984 0.0000 0.0000 0.0000
# 4 0.0000 0.0000 0.0000 10.1700 0.0000 0.0000
# 5 0.0000 0.0000 0.0000 0.0000 21.0318 0.0000
# 6 0.0000 0.0000 0.0000 0.0000 0.0000 19.4413
#
#
#
# Elastic Compliance Matrix: (Units=1/GPa)
#
#
# Indices 1 2 3 4 5 6 
#
# 1 0.011879 -0.014881 -0.004580 0.000000 0.000000 0.000000
# 2 -0.014881 0.065580 0.002330 0.000000 0.000000 0.000000
# 3 -0.004580 0.002330 0.020097 0.000000 0.000000 0.000000
# 4 0.000000 0.000000 0.000000 0.098329 0.000000 0.000000
# 5 0.000000 0.000000 0.000000 0.000000 0.047547 0.000000
# 6 0.000000 0.000000 0.000000 0.000000 0.000000 0.051437
#
#
# Mechanical properties :
#
#
# Convention : Reuss Voigt Hill
#
# Bulk Modulus (GPa) = 15.79896 36.10938 25.95417
# Shear Modulus (GPa) = 14.27644 20.00194 17.13919
#
# Velocity S-wave (km/s) = 2.85304 3.37703 3.12603
# Velocity P-wave (km/s) = 4.45658 5.98280 5.27518
#
# Compressibility (1/GPa) = 0.06329531
#
# Stress axis : x y z
#
# Youngs Moduli (GPa) = 84.18278 15.24851 49.75923
#
# Poissons Ratio (x) = 0.22691 0.22789
# Poissons Ratio (y) = 1.25268 -0.11595
# Poissons Ratio (z) = 0.38555 -0.03553
#
# Static dielectric constant tensor:
#      x y z
#    x 1.647500 0.000000 0.000000 
#    y 0.000000 1.598310 0.000000 
#    z 0.000000 0.000000 1.620160 
# 
# From -- ./inp_files/37893.got.cif
#   From: 2010.05.17/outbox.cif.g08.bks.cpg/sg63_19_cif.got.tgz:37893.got - 2010.06.03 15:47:04.
