data_PCOD9468591
_publ_section_title
;
Structure prediction by ZEFSAII (Michael W. Deem and Ramdas Pophale) SiO2 
 PCOD9468591
Probable space group: C M C M
;
_chemical_formula_sum "Si O2"
_cell_formula_units_Z 112
_cell_length_a 13.986841
_cell_length_b 26.969911
_cell_length_c 13.941419
_cell_angle_alpha 90.000000
_cell_angle_beta 90.000000
_cell_angle_gamma 90.000000
_cell_volume 5259.035846
_symmetry_space_group_name_H-M "C M C M"
_symmetry_group_IT_number 63
_symmetry_cell_setting 'orthorhombic'
loop_
_space_group_symop_operation_xyz
x,y,z
-x,-y,1/2+z
x,-y,-z
-x,y,1/2-z
-x,-y,-z
x,y,1/2-z
-x,y,z
x,-y,1/2+z
1/2+x,1/2+y,z
1/2-x,1/2-y,1/2+z
1/2+x,1/2-y,-z
1/2-x,1/2+y,1/2-z
1/2-x,1/2-y,-z
1/2+x,1/2+y,1/2-z
1/2-x,1/2+y,z
1/2+x,1/2-y,1/2+z
loop_
_atom_site_type_symbol
_atom_site_label
_atom_site_fract_x
_atom_site_fract_y
_atom_site_fract_z
Si Si1 0.112657 0.608265 0.433061
Si Si2 0.386520 0.095395 0.649217
Si Si3 0.297455 0.751217 0.136360
Si Si4 0.610219 0.779633 0.554393
Si Si5 0.813357 0.508052 0.107500
Si Si6 0.891802 0.148288 0.365664
Si Si7 0.892380 0.963489 0.865597
O O1 0.151677 0.608129 0.543148
O O2 0.119235 0.665083 0.401223
O O3 0.161484 0.565179 0.370375
O O4 0.000000 0.595585 0.436481
O O5 0.349179 0.118297 0.750000
O O6 0.500000 0.105191 0.646356
O O7 0.365697 0.036831 0.657493
O O8 0.315135 0.759232 0.250000
O O9 0.186295 0.755309 0.107861
O O10 0.324541 0.693963 0.110989
O O11 0.360433 0.781070 0.058839
O O12 0.500000 0.764471 0.562107
O O13 0.698613 0.503070 0.110697
O O14 0.847738 0.500000 0.000000
O O15 0.890614 0.144865 0.250000
O O16 0.872582 0.092739 0.401997
O O17 0.000000 0.161462 0.394462
O O18 0.894605 0.961586 0.750000
O O19 0.000000 0.977949 0.896011
#
# Coordination Sequence:
#
# PCOD9468591 Si02
#       7
#    16  16  16  16  16  16  16
#     4   9  18  32  48  69  99 129 156 194 245 297
#     4   9  17  29  46  68  93 124 163 201 237 285
#     4  10  20  34  53  76 102 132 167 207 251 303
#     4  10  21  35  52  76 104 134 169 208 256 311
#     4  10  18  28  44  63  88 123 158 194 238 285
#     4   8  14  26  45  67  89 115 149 191 239 289
#     4   9  17  28  42  61  85 113 147 189 234 276
#
# _framework density 21.296679000000001
#
# number of rings (size 3 to 8) (size 9 to 14) (size 15 to 20)
#    0.000    2.714    0.000    3.000    0.000    3.714 
#    0.000    2.143    0.000    1.714    0.000    0.000 
#    0.000    0.000    0.000    0.000    0.000    0.000 
#
# Total GULP energy -311752.669313 kJ/mol
# GULP energy per Si atom -5567.011952 kJ/mol
# Density = 2.124821 g / cm^3
# Si number density = 21.296679 Si / 1000 Ang^3
#
#
#
# Elastic Constant Matrix: (Units=GPa)
#
#
# Indices 1 2 3 4 5 6 
#
# 1 73.6672 0.5531 -18.5102 0.0000 0.0000 0.0000
# 2 0.5531 12.3704 -3.6112 0.0000 0.0000 0.0000
# 3 -18.5102 -3.6112 39.2557 0.0000 0.0000 0.0000
# 4 0.0000 0.0000 0.0000 1352.7751 0.0000 0.0000
# 5 0.0000 0.0000 0.0000 0.0000 20.3215 0.0000
# 6 0.0000 0.0000 0.0000 0.0000 0.0000 12.9501
#
#
#
# Elastic Compliance Matrix: (Units=1/GPa)
#
#
# Indices 1 2 3 4 5 6 
#
# 1 0.015425 0.001473 0.007409 0.000000 0.000000 0.000000
# 2 0.001473 0.083210 0.008349 0.000000 0.000000 0.000000
# 3 0.007409 0.008349 0.029736 0.000000 0.000000 0.000000
# 4 0.000000 0.000000 0.000000 0.000739 0.000000 0.000000
# 5 0.000000 0.000000 0.000000 0.000000 0.049209 0.000000
# 6 0.000000 0.000000 0.000000 0.000000 0.000000 0.077219
#
#
# Mechanical properties :
#
#
# Convention : Reuss Voigt Hill
#
# Bulk Modulus (GPa) = 6.14126 9.12852 7.63489
# Shear Modulus (GPa) = 18.15851 287.00012 152.57932
#
# Velocity S-wave (km/s) = 2.92318 11.62133 8.47350
# Velocity P-wave (km/s) = 3.77931 13.57827 9.96626
#
# Compressibility (1/GPa) = 0.16283315
#
# Stress axis : x y z
#
# Youngs Moduli (GPa) = 64.82931 12.01782 33.62970
#
# Poissons Ratio (x) = -0.01770 -0.24916
# Poissons Ratio (y) = -0.09550 -0.28078
# Poissons Ratio (z) = -0.48032 -0.10034
#
# Static dielectric constant tensor:
#      x y z
#    x 1.790470 0.000000 0.000000 
#    y 0.000000 1.841860 0.000000 
#    z 0.000000 0.000000 1.801250 
# 
# From -- ./inp_files/32524.got.cif
#   From: 2010.05.17/outbox.cif.g08.bks.cpg/sg63_17_cif.got.tgz:32524.got - 2010.06.03 15:47:04.
