data_PCOD9468832
_publ_section_title
;
Structure prediction by ZEFSAII (Michael W. Deem and Ramdas Pophale) SiO2 
 PCOD9468832
Probable space group: C M C M
;
_chemical_formula_sum "Si O2"
_cell_formula_units_Z 80
_cell_length_a 24.396118
_cell_length_b 27.134982
_cell_length_c 8.571251
_cell_angle_alpha 90.000000
_cell_angle_beta 90.000000
_cell_angle_gamma 90.000000
_cell_volume 5674.067217
_symmetry_space_group_name_H-M "C M C M"
_symmetry_group_IT_number 63
_symmetry_cell_setting 'orthorhombic'
loop_
_space_group_symop_operation_xyz
x,y,z
-x,-y,1/2+z
x,-y,-z
-x,y,1/2-z
-x,-y,-z
x,y,1/2-z
-x,y,z
x,-y,1/2+z
1/2+x,1/2+y,z
1/2-x,1/2-y,1/2+z
1/2+x,1/2-y,-z
1/2-x,1/2+y,1/2-z
1/2-x,1/2-y,-z
1/2+x,1/2+y,1/2-z
1/2-x,1/2+y,z
1/2+x,1/2-y,1/2+z
loop_
_atom_site_type_symbol
_atom_site_label
_atom_site_fract_x
_atom_site_fract_y
_atom_site_fract_z
Si Si1 0.000000 0.399220 0.062335
Si Si2 0.500000 0.783907 0.063380
Si Si3 0.685123 0.144995 0.060595
Si Si4 0.112501 0.445409 0.937674
Si Si5 0.116415 0.741995 0.063265
Si Si6 0.214550 0.796095 0.937314
O O1 0.000000 0.341651 0.014159
O O2 0.000000 0.401699 0.250000
O O3 0.945902 0.425557 0.997772
O O4 0.500000 0.782664 0.250000
O O5 0.555156 0.759108 0.000403
O O6 0.684085 0.145158 0.250000
O O7 0.658341 0.094023 0.008714
O O8 0.646384 0.190877 0.010940
O O9 0.747693 0.157429 0.014965
O O10 0.111455 0.446123 0.750000
O O11 0.122446 0.500000 0.000000
O O12 0.115989 0.742082 0.250000
O O13 0.154325 0.786789 0.004287
O O14 0.212252 0.794250 0.750000
O O15 0.250000 0.750000 0.000000
#
# Coordination Sequence:
#
# PCOD9468832 Si02
#       6
#     8   8  16  16  16  16
#     4  11  22  34  45  61  80 108 148 189 227 257
#     4  11  21  30  44  65  87 112 145 185 216 253
#     4   8  16  29  45  60  80 108 138 172 218 260
#     4  11  21  34  47  61  81 111 146 185 224 261
#     4  10  18  30  45  63  84 112 141 172 215 261
#     4   9  16  28  44  64  83 106 137 173 213 258
#
# _framework density 14.099233
#
# number of rings (size 3 to 8) (size 9 to 14) (size 15 to 20)
#    0.000    2.200    2.000    3.900    0.000    0.800 
#    0.000    3.000    0.000    0.000    0.000    0.000 
#    0.000    0.000    0.000    0.900    0.000   10.800 
#
# Total GULP energy -222933.954315 kJ/mol
# GULP energy per Si atom -5573.348858 kJ/mol
# Density = 1.406714 g / cm^3
# Si number density = 14.099233 Si / 1000 Ang^3
#
#
#
# Elastic Constant Matrix: (Units=GPa)
#
#
# Indices 1 2 3 4 5 6 
#
# 1 131.5604 71.5969 32.7042 0.0000 0.0000 0.0000
# 2 71.5969 76.0462 21.7661 0.0000 0.0000 0.0000
# 3 32.7042 21.7661 43.4032 0.0000 0.0000 0.0000
# 4 0.0000 0.0000 0.0000 13.6067 0.0000 0.0000
# 5 0.0000 0.0000 0.0000 0.0000 20.1027 0.0000
# 6 0.0000 0.0000 0.0000 0.0000 0.0000 12.4894
#
#
#
# Elastic Compliance Matrix: (Units=1/GPa)
#
#
# Indices 1 2 3 4 5 6 
#
# 1 0.016628 -0.014091 -0.005462 0.000000 0.000000 0.000000
# 2 -0.014091 0.027296 -0.003071 0.000000 0.000000 0.000000
# 3 -0.005462 -0.003071 0.028695 0.000000 0.000000 0.000000
# 4 0.000000 0.000000 0.000000 0.073493 0.000000 0.000000
# 5 0.000000 0.000000 0.000000 0.000000 0.049744 0.000000
# 6 0.000000 0.000000 0.000000 0.000000 0.000000 0.080068
#
#
# Mechanical properties :
#
#
# Convention : Reuss Voigt Hill
#
# Bulk Modulus (GPa) = 36.53594 55.90491 46.22042
# Shear Modulus (GPa) = 15.13792 17.56926 16.35359
#
# Velocity S-wave (km/s) = 3.28024 3.53386 3.40941
# Velocity P-wave (km/s) = 6.34952 7.50920 6.95357
#
# Compressibility (1/GPa) = 0.02737031
#
# Stress axis : x y z
#
# Youngs Moduli (GPa) = 60.14091 36.63582 34.84872
#
# Poissons Ratio (x) = 0.51625 0.19035
# Poissons Ratio (y) = 0.84747 0.10701
# Poissons Ratio (z) = 0.32850 0.11250
#
# Static dielectric constant tensor:
#      x y z
#    x 1.468370 0.000000 0.000000 
#    y 0.000000 1.456980 0.000000 
#    z 0.000000 0.000000 1.473640 
# 
# From -- ./inp_files/8456.got.cif
#   From: 2010.05.17/outbox.cif.g08.bks.cpg/sg63_5_cif.got.tgz:8456.got - 2010.06.03 15:47:04.
