data_PCOD9468356
_publ_section_title
;
Structure prediction by ZEFSAII (Michael W. Deem and Ramdas Pophale) SiO2 
 PCOD9468356
Probable space group: C M C M
;
_chemical_formula_sum "Si O2"
_cell_formula_units_Z 64
_cell_length_a 22.107739
_cell_length_b 14.284165
_cell_length_c 13.133896
_cell_angle_alpha 90.000000
_cell_angle_beta 90.000000
_cell_angle_gamma 90.000000
_cell_volume 4147.560789
_symmetry_space_group_name_H-M "C M C M"
_symmetry_group_IT_number 63
_symmetry_cell_setting 'orthorhombic'
loop_
_space_group_symop_operation_xyz
x,y,z
-x,-y,1/2+z
x,-y,-z
-x,y,1/2-z
-x,-y,-z
x,y,1/2-z
-x,y,z
x,-y,1/2+z
1/2+x,1/2+y,z
1/2-x,1/2-y,1/2+z
1/2+x,1/2-y,-z
1/2-x,1/2+y,1/2-z
1/2-x,1/2-y,-z
1/2+x,1/2+y,1/2-z
1/2-x,1/2+y,z
1/2+x,1/2-y,1/2+z
loop_
_atom_site_type_symbol
_atom_site_label
_atom_site_fract_x
_atom_site_fract_y
_atom_site_fract_z
Si Si1 0.569387 0.140354 0.073397
Si Si2 0.612425 0.067081 0.633724
Si Si3 0.312519 0.233815 0.367710
Si Si4 0.743529 0.098727 0.537710
O O1 0.500000 0.156984 0.099701
O O2 0.616564 0.217092 0.111905
O O3 0.591251 0.040337 0.119085
O O4 0.577256 0.126526 0.951614
O O5 0.602779 0.095521 0.750000
O O6 0.683001 0.076147 0.602964
O O7 0.299045 0.216098 0.250000
O O8 0.278876 0.159165 0.440609
O O9 0.288800 0.335541 0.400379
O O10 0.769023 0.000000 0.500000
#
# Coordination Sequence:
#
# PCOD9468356 Si02
#       4
#    16  16  16  16
#     4  10  20  31  44  71 103 131 167 206 239 294
#     4  10  17  29  48  71  98 132 162 199 256 304
#     4  10  20  32  49  72  98 133 168 202 251 300
#     4  10  19  33  49  73 103 127 163 212 250 303
#
# _framework density 15.430756000000001
#
# number of rings (size 3 to 8) (size 9 to 14) (size 15 to 20)
#    0.000    2.000    5.000    3.000    0.000    4.500 
#    0.000    0.000    0.000    0.750    0.000    0.000 
#    0.000    0.000    0.000    0.000    0.000    0.000 
#
# Total GULP energy -178455.859123 kJ/mol
# GULP energy per Si atom -5576.745598 kJ/mol
# Density = 1.539563 g / cm^3
# Si number density = 15.430756 Si / 1000 Ang^3
#
#
#
# Elastic Constant Matrix: (Units=GPa)
#
#
# Indices 1 2 3 4 5 6 
#
# 1 101.2136 40.5059 17.2268 0.0000 0.0000 0.0000
# 2 40.5059 59.7358 14.6279 0.0000 0.0000 0.0000
# 3 17.2268 14.6279 105.1187 0.0000 0.0000 0.0000
# 4 0.0000 0.0000 0.0000 7.8188 0.0000 0.0000
# 5 0.0000 0.0000 0.0000 0.0000 1.3402 0.0000
# 6 0.0000 0.0000 0.0000 0.0000 0.0000 18.6556
#
#
#
# Elastic Compliance Matrix: (Units=1/GPa)
#
#
# Indices 1 2 3 4 5 6 
#
# 1 0.013657 -0.009020 -0.000983 0.000000 0.000000 0.000000
# 2 -0.009020 0.023288 -0.001763 0.000000 0.000000 0.000000
# 3 -0.000983 -0.001763 0.009919 0.000000 0.000000 0.000000
# 4 0.000000 0.000000 0.000000 0.127897 0.000000 0.000000
# 5 0.000000 0.000000 0.000000 0.000000 0.746140 0.000000
# 6 0.000000 0.000000 0.000000 0.000000 0.000000 0.053603
#
#
# Mechanical properties :
#
#
# Convention : Reuss Voigt Hill
#
# Bulk Modulus (GPa) = 42.85602 45.64325 44.24963
# Shear Modulus (GPa) = 4.97110 18.47677 11.72393
#
# Velocity S-wave (km/s) = 1.79682 3.46410 2.75940
# Velocity P-wave (km/s) = 5.66905 6.75600 6.23625
#
# Compressibility (1/GPa) = 0.02333395
#
# Stress axis : x y z
#
# Youngs Moduli (GPa) = 73.22129 42.94000 100.81254
#
# Poissons Ratio (x) = 0.38732 0.09909
# Poissons Ratio (y) = 0.66046 0.17768
# Poissons Ratio (z) = 0.07197 0.07568
#
# Static dielectric constant tensor:
#      x y z
#    x 1.517480 0.000000 0.000000 
#    y 0.000000 1.497400 0.000000 
#    z 0.000000 0.000000 1.536520 
# 
# From -- ./inp_files/22247.got.cif
#   From: 2010.05.17/outbox.cif.g08.bks.cpg/sg63_12_cif.got.tgz:22247.got - 2010.06.03 15:47:04.
