data_PCOD9468618
_publ_section_title
;
Structure prediction by ZEFSAII (Michael W. Deem and Ramdas Pophale) SiO2 
 PCOD9468618
Probable space group: C M C M
;
_chemical_formula_sum "Si O2"
_cell_formula_units_Z 80
_cell_length_a 7.306097
_cell_length_b 29.567128
_cell_length_c 17.563410
_cell_angle_alpha 90.000000
_cell_angle_beta 90.000000
_cell_angle_gamma 90.000000
_cell_volume 3794.053188
_symmetry_space_group_name_H-M "C M C M"
_symmetry_group_IT_number 63
_symmetry_cell_setting 'orthorhombic'
loop_
_space_group_symop_operation_xyz
x,y,z
-x,-y,1/2+z
x,-y,-z
-x,y,1/2-z
-x,-y,-z
x,y,1/2-z
-x,y,z
x,-y,1/2+z
1/2+x,1/2+y,z
1/2-x,1/2-y,1/2+z
1/2+x,1/2-y,-z
1/2-x,1/2+y,1/2-z
1/2-x,1/2-y,-z
1/2+x,1/2+y,1/2-z
1/2-x,1/2+y,z
1/2+x,1/2-y,1/2+z
loop_
_atom_site_type_symbol
_atom_site_label
_atom_site_fract_x
_atom_site_fract_y
_atom_site_fract_z
Si Si1 0.777994 0.567068 0.333152
Si Si2 0.278293 0.017841 0.750000
Si Si3 0.276513 0.820665 0.395539
Si Si4 0.776890 0.620579 0.750000
Si Si5 0.210896 0.360519 0.946368
Si Si6 0.778574 0.777071 0.838087
O O1 0.726758 0.587744 0.250000
O O2 0.726095 0.514431 0.321463
O O3 0.708368 0.595811 0.403653
O O4 0.000000 0.568492 0.336307
O O5 0.500000 0.019845 0.750000
O O6 0.212825 0.068775 0.750000
O O7 0.500000 0.819560 0.397118
O O8 0.221879 0.852135 0.325042
O O9 0.210903 0.841257 0.475207
O O10 0.218949 0.769303 0.378905
O O11 0.000000 0.620016 0.750000
O O12 0.214890 0.320357 0.884825
O O13 0.000000 0.371953 0.963990
O O14 0.720189 0.777319 0.750000
O O15 0.000000 0.777682 0.838419
#
# Coordination Sequence:
#
# PCOD9468618 Si02
#       6
#    16   8  16   8  16  16
#     4   7  12  23  37  57  86 113 135 170 219 258
#     4   7  12  22  39  58  83 119 145 171 216 265
#     4   9  17  28  42  61  87 119 153 183 215 258
#     4   9  14  26  43  58  83 123 155 175 214 269
#     4  10  18  28  45  68  92 118 145 179 223 263
#     4  10  19  31  45  63  90 120 150 182 216 256
#
# _framework density 21.085630999999999
#
# number of rings (size 3 to 8) (size 9 to 14) (size 15 to 20)
#    0.600    2.600    1.000    1.200    0.000    1.200 
#    0.000    1.000    0.000    6.000    0.000    0.000 
#    0.000    8.000    0.000    0.000    0.000    0.000 
#
# Total GULP energy -222932.334579 kJ/mol
# GULP energy per Si atom -5573.308364 kJ/mol
# Density = 2.103764 g / cm^3
# Si number density = 21.085631 Si / 1000 Ang^3
#
#
#
# Elastic Constant Matrix: (Units=GPa)
#
#
# Indices 1 2 3 4 5 6 
#
# 1 85.2668 -10.2790 -5.5978 0.0000 0.0000 0.0000
# 2 -10.2790 80.3363 -22.4123 0.0000 0.0000 0.0000
# 3 -5.5978 -22.4123 30.1854 0.0000 0.0000 0.0000
# 4 0.0000 0.0000 0.0000 -7.2479 0.0000 0.0000
# 5 0.0000 0.0000 0.0000 0.0000 -2.0191 0.0000
# 6 0.0000 0.0000 0.0000 0.0000 0.0000 1.8412
#
#
#
# Elastic Compliance Matrix: (Units=1/GPa)
#
#
# Indices 1 2 3 4 5 6 
#
# 1 0.012352 0.002799 0.004369 0.000000 0.000000 0.000000
# 2 0.002799 0.016334 0.012647 0.000000 0.000000 0.000000
# 3 0.004369 0.012647 0.043329 0.000000 0.000000 0.000000
# 4 0.000000 0.000000 0.000000 -0.137971 0.000000 0.000000
# 5 0.000000 0.000000 0.000000 0.000000 -0.495269 0.000000
# 6 0.000000 0.000000 0.000000 0.000000 0.000000 0.543133
#
#
# Mechanical properties :
#
#
# Convention : Reuss Voigt Hill
#
# Bulk Modulus (GPa) = 8.95685 13.24559 11.10122
# Shear Modulus (GPa) = -243.81531 14.12000 -114.84765
#
# Velocity S-wave (km/s) = -10.76485 2.59057 -7.38820
# Velocity P-wave (km/s) = 12.25775 3.90429 8.21611
#
# Compressibility (1/GPa) = 0.11164645
#
# Stress axis : x y z
#
# Youngs Moduli (GPa) = 80.95722 61.22151 23.07922
#
# Poissons Ratio (x) = -0.17138 -0.10084
# Poissons Ratio (y) = -0.22663 -0.29188
# Poissons Ratio (z) = -0.35372 -0.77427
#
# Static dielectric constant tensor:
#      x y z
#    x 1.873770 0.000000 0.000000 
#    y 0.000000 1.731230 0.000000 
#    z 0.000000 0.000000 1.734830 
# 
# From -- ./inp_files/40751.got.cif
#   From: 2010.05.17/outbox.cif.g08.bks.cpg/sg63_21_cif.got.tgz:40751.got - 2010.06.03 15:47:04.
