data_PCOD9468373
_publ_section_title
;
Structure prediction by ZEFSAII (Michael W. Deem and Ramdas Pophale) SiO2 
 PCOD9468373
Probable space group: C M C M
;
_chemical_formula_sum "Si O2"
_cell_formula_units_Z 60
_cell_length_a 16.358844
_cell_length_b 10.902720
_cell_length_c 12.934352
_cell_angle_alpha 90.000000
_cell_angle_beta 90.000000
_cell_angle_gamma 90.000000
_cell_volume 2306.917936
_symmetry_space_group_name_H-M "C M C M"
_symmetry_group_IT_number 63
_symmetry_cell_setting 'orthorhombic'
loop_
_space_group_symop_operation_xyz
x,y,z
-x,-y,1/2+z
x,-y,-z
-x,y,1/2-z
-x,-y,-z
x,y,1/2-z
-x,y,z
x,-y,1/2+z
1/2+x,1/2+y,z
1/2-x,1/2-y,1/2+z
1/2+x,1/2-y,-z
1/2-x,1/2+y,1/2-z
1/2-x,1/2-y,-z
1/2+x,1/2+y,1/2-z
1/2-x,1/2+y,z
1/2+x,1/2-y,1/2+z
loop_
_atom_site_type_symbol
_atom_site_label
_atom_site_fract_x
_atom_site_fract_y
_atom_site_fract_z
Si Si1 0.000000 0.858541 0.958787
Si Si2 0.500000 0.492810 0.250000
Si Si3 0.822360 0.622611 0.627218
Si Si4 0.664474 0.323000 0.449258
Si Si5 0.906581 0.750005 0.250000
Si Si6 0.000000 0.589828 0.628056
O O1 0.000000 0.919938 0.848236
O O2 0.000000 0.713047 0.938209
O O3 0.921970 0.882725 0.027985
O O4 0.425027 0.396526 0.250000
O O5 0.819866 0.647569 0.750000
O O6 0.732706 0.581257 0.590479
O O7 0.821941 0.746007 0.555549
O O8 0.906177 0.545388 0.609204
O O9 0.645272 0.229816 0.353424
O O10 0.000000 0.693889 0.250000
O O11 0.000000 0.615906 0.750000
#
# Coordination Sequence:
#
# PCOD9468373 Si02
#       6
#     8   4  16  16   8   8
#     4  10  17  30  46  65  92 128 165 188 230 271
#     4  10  22  32  48  66  94 138 172 202 222 280
#     4   9  17  28  45  67  89 118 158 191 234 293
#     4  10  18  28  45  64  91 124 153 193 237 285
#     4  10  20  32  41  62  95 130 154 196 233 271
#     4   8  14  25  43  65  87 115 146 191 220 267
#
# _framework density 26.008725999999999
#
# number of rings (size 3 to 8) (size 9 to 14) (size 15 to 20)
#    0.400    2.133    3.333    0.000    1.867    2.133 
#    0.000    0.000    0.000    0.000    0.000    0.000 
#    0.000    6.400    0.000    0.267    0.000    0.000 
#
# Total GULP energy -167079.417171 kJ/mol
# GULP energy per Si atom -5569.313906 kJ/mol
# Density = 2.594953 g / cm^3
# Si number density = 26.008726 Si / 1000 Ang^3
#
#
#
# Elastic Constant Matrix: (Units=GPa)
#
#
# Indices 1 2 3 4 5 6 
#
# 1 236.5814 0.9120 64.1980 0.0000 0.0000 0.0000
# 2 0.9120 29.3952 22.6833 0.0000 0.0000 0.0000
# 3 64.1980 22.6833 231.8150 0.0000 0.0000 0.0000
# 4 0.0000 0.0000 0.0000 33.0620 0.0000 0.0000
# 5 0.0000 0.0000 0.0000 0.0000 47.5639 0.0000
# 6 0.0000 0.0000 0.0000 0.0000 0.0000 -30.5955
#
#
#
# Elastic Compliance Matrix: (Units=1/GPa)
#
#
# Indices 1 2 3 4 5 6 
#
# 1 0.004593 0.000907 -0.001361 0.000000 0.000000 0.000000
# 2 0.000907 0.036977 -0.003870 0.000000 0.000000 0.000000
# 3 -0.001361 -0.003870 0.005069 0.000000 0.000000 0.000000
# 4 0.000000 0.000000 0.000000 0.030246 0.000000 0.000000
# 5 0.000000 0.000000 0.000000 0.000000 0.021024 0.000000
# 6 0.000000 0.000000 0.000000 0.000000 0.000000 -0.032685
#
#
# Mechanical properties :
#
#
# Convention : Reuss Voigt Hill
#
# Bulk Modulus (GPa) = 26.32040 74.81981 50.57010
# Shear Modulus (GPa) = 57.78025 37.33928 47.55977
#
# Velocity S-wave (km/s) = 4.71847 3.79310 4.28086
# Velocity P-wave (km/s) = 6.31087 6.92915 6.62722
#
# Compressibility (1/GPa) = 0.03799335
#
# Stress axis : x y z
#
# Youngs Moduli (GPa) = 217.74159 27.04388 197.26828
#
# Poissons Ratio (x) = -0.02454 0.26841
# Poissons Ratio (y) = -0.19760 0.76334
# Poissons Ratio (z) = 0.29627 0.10465
#
# Static dielectric constant tensor:
#      x y z
#    x 2.420600 0.000000 0.000000 
#    y 0.000000 2.021400 0.000000 
#    z 0.000000 0.000000 2.095330 
# 
# From -- ./inp_files/20747.got.cif
#   From: 2010.05.17/outbox.cif.g08.bks.cpg/sg63_11_cif.got.tgz:20747.got - 2010.06.03 15:47:04.
