data_PCOD9468020
_publ_section_title
;
Structure prediction by ZEFSAII (Michael W. Deem and Ramdas Pophale) SiO2 
 PCOD9468020
Probable space group: P N M A
;
_chemical_formula_sum "Si O2"
_cell_formula_units_Z 48
_cell_length_a 9.000000
_cell_length_b 15.000000
_cell_length_c 18.000000
_cell_angle_alpha 90.000000
_cell_angle_beta 90.000000
_cell_angle_gamma 90.000000
_cell_volume 2430.000000
_symmetry_space_group_name_H-M "P N M A"
_symmetry_group_IT_number 62
_symmetry_cell_setting 'orthorhombic'
loop_
_space_group_symop_operation_xyz
x,y,z
1/2-x,-y,1/2+z
1/2+x,1/2-y,1/2-z
-x,1/2+y,-z
-x,-y,-z
1/2+x,y,1/2-z
1/2-x,1/2+y,1/2+z
x,1/2-y,z
loop_
_atom_site_type_symbol
_atom_site_label
_atom_site_fract_x
_atom_site_fract_y
_atom_site_fract_z
Si Si1 0.174863 0.514231 0.835480
Si Si2 0.087964 0.909597 0.986924
Si Si3 0.909310 0.353070 0.452814
Si Si4 0.025773 0.511032 0.677359
Si Si5 0.831202 0.651960 0.065892
Si Si6 0.854381 0.852965 0.419186
O O1 0.142796 0.584034 0.902433
O O2 0.089794 0.528269 0.758879
O O3 0.349063 0.515338 0.820059
O O4 0.136400 0.416063 0.868204
O O5 0.205151 0.898108 0.052507
O O6 0.965250 0.838538 0.008491
O O7 0.000000 0.000000 0.000000
O O8 0.871049 0.250000 0.434863
O O9 0.919728 0.415010 0.381763
O O10 0.795175 0.390306 0.513996
O O11 0.056071 0.351912 0.502939
O O12 0.072820 0.415262 0.643056
O O13 0.782476 0.750000 0.092030
O O14 0.837418 0.750000 0.395383
#
# Coordination Sequence:
#
# PCOD9468020 Si02
#       6
#     8   8   8   8   8   8
#     4  11  25  38  61  89 126 165 204 249 318 380
#     4  10  21  39  62  90 120 162 207 261 304 360
#     4  10  21  41  68  89 114 163 217 263 310 364
#     4  12  24  41  60  90 129 165 201 260 315 378
#     4  10  21  40  64  92 122 155 206 262 310 369
#     4  11  22  40  68  93 118 164 218 259 307 370
#
# _framework density 19.753086
#
# number of rings (size 3 to 8) (size 9 to 14) (size 15 to 20)
#    0.000    1.333    3.333    3.000    7.000    0.667 
#    0.000    2.500    0.000    0.000    0.000    0.000 
#    0.000    0.000    0.000    0.000    0.000    0.000 
#
# Total GULP energy -267358.252809 kJ/mol
# GULP energy per Si atom -5569.963600 kJ/mol
# Density = 1.970813 g / cm^3
# Si number density = 19.753086 Si / 1000 Ang^3
#
#
#
# Elastic Constant Matrix: (Units=GPa)
#
#
# Indices 1 2 3 4 5 6 
#
# 1 69.7015 4.0260 17.3985 0.0000 0.0000 0.0000
# 2 4.0260 57.4352 -3.0440 0.0000 0.0000 0.0000
# 3 17.3985 -3.0440 68.7947 0.0000 0.0000 0.0000
# 4 0.0000 0.0000 0.0000 9.9938 0.0000 0.0000
# 5 0.0000 0.0000 0.0000 0.0000 24.1888 0.0000
# 6 0.0000 0.0000 0.0000 0.0000 0.0000 18.4189
#
#
#
# Elastic Compliance Matrix: (Units=1/GPa)
#
#
# Indices 1 2 3 4 5 6 
#
# 1 0.015408 -0.001290 -0.003954 0.000000 0.000000 0.000000
# 2 -0.001290 0.017560 0.001103 0.000000 0.000000 0.000000
# 3 -0.003954 0.001103 0.015585 0.000000 0.000000 0.000000
# 4 0.000000 0.000000 0.000000 0.100062 0.000000 0.000000
# 5 0.000000 0.000000 0.000000 0.000000 0.041341 0.000000
# 6 0.000000 0.000000 0.000000 0.000000 0.000000 0.054292
#
#
# Mechanical properties :
#
#
# Convention : Reuss Voigt Hill
#
# Bulk Modulus (GPa) = 24.83109 25.85472 25.34291
# Shear Modulus (GPa) = 18.80026 22.35701 20.57863
#
# Velocity S-wave (km/s) = 3.08841 3.36791 3.23118
# Velocity P-wave (km/s) = 5.03148 5.31424 5.17479
#
# Compressibility (1/GPa) = 0.04027209
#
# Stress axis : x y z
#
# Youngs Moduli (GPa) = 64.89995 56.94829 64.16522
#
# Poissons Ratio (x) = 0.07344 0.25370
# Poissons Ratio (y) = 0.08370 -0.07078
# Poissons Ratio (z) = 0.25661 -0.06282
#
# Static dielectric constant tensor:
#      x y z
#    x 2.011430 0.000000 0.000000 
#    y 0.000000 1.752310 0.000000 
#    z 0.000000 0.000000 1.677110 
# 
# From -- ./inp_files/22209.got.cif
#   From: 2010.05.17/outbox.ucp.g08.bks.cvg/sg62_12_cif.got.tgz:22209.got - 2010.06.11 16:29:25.
