data_PCOD9468548
_publ_section_title
;
Structure prediction by ZEFSAII (Michael W. Deem and Ramdas Pophale) SiO2 
 PCOD9468548
Probable space group: C M C M
;
_chemical_formula_sum "Si O2"
_cell_formula_units_Z 96
_cell_length_a 30.590714
_cell_length_b 25.089400
_cell_length_c 8.905477
_cell_angle_alpha 90.000000
_cell_angle_beta 90.000000
_cell_angle_gamma 90.000000
_cell_volume 6834.977285
_symmetry_space_group_name_H-M "C M C M"
_symmetry_group_IT_number 63
_symmetry_cell_setting 'orthorhombic'
loop_
_space_group_symop_operation_xyz
x,y,z
-x,-y,1/2+z
x,-y,-z
-x,y,1/2-z
-x,-y,-z
x,y,1/2-z
-x,y,z
x,-y,1/2+z
1/2+x,1/2+y,z
1/2-x,1/2-y,1/2+z
1/2+x,1/2-y,-z
1/2-x,1/2+y,1/2-z
1/2-x,1/2-y,-z
1/2+x,1/2+y,1/2-z
1/2-x,1/2+y,z
1/2+x,1/2-y,1/2+z
loop_
_atom_site_type_symbol
_atom_site_label
_atom_site_fract_x
_atom_site_fract_y
_atom_site_fract_z
Si Si1 0.316112 0.722210 0.429641
Si Si2 0.623940 0.359157 0.072156
Si Si3 0.721456 0.172712 0.068069
Si Si4 0.784959 0.554520 0.421093
Si Si5 0.820382 0.054019 0.077723
Si Si6 0.550997 0.442556 0.069582
O O1 0.317899 0.724679 0.250000
O O2 0.359816 0.694455 0.492020
O O3 0.307337 0.780064 0.499701
O O4 0.272077 0.687822 0.468711
O O5 0.621224 0.350550 0.250000
O O6 0.581079 0.392579 0.021987
O O7 0.662412 0.399713 0.027504
O O8 0.718932 0.172788 0.250000
O O9 0.707048 0.113818 0.014377
O O10 0.799731 0.500000 0.500000
O O11 0.800958 0.553493 0.250000
O O12 0.732000 0.552750 0.417102
O O13 0.835849 0.060219 0.250000
O O14 0.835560 0.000000 0.000000
O O15 0.555335 0.447016 0.250000
O O16 0.500000 0.433201 0.033100
O O17 0.563164 0.500000 0.000000
#
# Coordination Sequence:
#
# PCOD9468548 Si02
#       6
#    16  16  16  16  16  16
#     4  10  19  30  43  59  79 104 134 170 207 247
#     4  11  20  29  43  61  78 102 133 168 210 254
#     4   9  17  31  43  56  79 106 135 168 205 245
#     4   9  17  28  40  55  76 101 130 164 200 238
#     4  10  18  28  38  54  77 100 127 164 206 244
#     4   9  19  34  48  62  81 106 137 173 216 263
#
# _framework density 14.045401
#
# number of rings (size 3 to 8) (size 9 to 14) (size 15 to 20)
#    0.000    2.333    1.667    2.000    0.000    4.667 
#    0.000    0.000    0.000    0.000    0.000    0.000 
#    0.000    0.000    0.000    0.000    0.000    0.833 
#
# Total GULP energy -267235.657685 kJ/mol
# GULP energy per Si atom -5567.409535 kJ/mol
# Density = 1.401343 g / cm^3
# Si number density = 14.045401 Si / 1000 Ang^3
#
#
#
# Elastic Constant Matrix: (Units=GPa)
#
#
# Indices 1 2 3 4 5 6 
#
# 1 48.8643 35.6380 15.6486 0.0000 0.0000 0.0000
# 2 35.6380 131.5279 31.4529 0.0000 0.0000 0.0000
# 3 15.6486 31.4529 21.4841 0.0000 0.0000 0.0000
# 4 0.0000 0.0000 0.0000 23.2614 0.0000 0.0000
# 5 0.0000 0.0000 0.0000 0.0000 10.8949 0.0000
# 6 0.0000 0.0000 0.0000 0.0000 0.0000 26.8955
#
#
#
# Elastic Compliance Matrix: (Units=1/GPa)
#
#
# Indices 1 2 3 4 5 6 
#
# 1 0.028113 -0.004186 -0.014348 0.000000 0.000000 0.000000
# 2 -0.004186 0.012322 -0.014990 0.000000 0.000000 0.000000
# 3 -0.014348 -0.014990 0.078943 0.000000 0.000000 0.000000
# 4 0.000000 0.000000 0.000000 0.042990 0.000000 0.000000
# 5 0.000000 0.000000 0.000000 0.000000 0.091786 0.000000
# 6 0.000000 0.000000 0.000000 0.000000 0.000000 0.037181
#
#
# Mechanical properties :
#
#
# Convention : Reuss Voigt Hill
#
# Bulk Modulus (GPa) = 19.11014 40.81726 29.96370
# Shear Modulus (GPa) = 13.30401 20.15280 16.72841
#
# Velocity S-wave (km/s) = 3.08102 3.79203 3.45487
# Velocity P-wave (km/s) = 5.12762 6.94958 6.10693
#
# Compressibility (1/GPa) = 0.05232825
#
# Stress axis : x y z
#
# Youngs Moduli (GPa) = 35.57096 81.15638 12.66739
#
# Poissons Ratio (x) = 0.33973 0.18176
# Poissons Ratio (y) = 0.14890 0.18989
# Poissons Ratio (z) = 0.51038 1.21656
#
# Static dielectric constant tensor:
#      x y z
#    x 1.456280 0.000000 0.000000 
#    y 0.000000 1.459710 0.000000 
#    z 0.000000 0.000000 1.476390 
# 
# From -- ./inp_files/12740.got.cif
#   From: 2010.05.17/outbox.cif.g08.bks.cpg/sg63_7_cif.got.tgz:12740.got - 2010.06.03 15:47:04.
