data_PCOD9468816
_publ_section_title
;
Structure prediction by ZEFSAII (Michael W. Deem and Ramdas Pophale) SiO2 
 PCOD9468816
Probable space group: C M C M
;
_chemical_formula_sum "Si O2"
_cell_formula_units_Z 88
_cell_length_a 20.736630
_cell_length_b 33.129881
_cell_length_c 8.788616
_cell_angle_alpha 90.000000
_cell_angle_beta 90.000000
_cell_angle_gamma 90.000000
_cell_volume 6037.797510
_symmetry_space_group_name_H-M "C M C M"
_symmetry_group_IT_number 63
_symmetry_cell_setting 'orthorhombic'
loop_
_space_group_symop_operation_xyz
x,y,z
-x,-y,1/2+z
x,-y,-z
-x,y,1/2-z
-x,-y,-z
x,y,1/2-z
-x,y,z
x,-y,1/2+z
1/2+x,1/2+y,z
1/2-x,1/2-y,1/2+z
1/2+x,1/2-y,-z
1/2-x,1/2+y,1/2-z
1/2-x,1/2-y,-z
1/2+x,1/2+y,1/2-z
1/2-x,1/2+y,z
1/2+x,1/2-y,1/2+z
loop_
_atom_site_type_symbol
_atom_site_label
_atom_site_fract_x
_atom_site_fract_y
_atom_site_fract_z
Si Si1 0.307000 0.880704 0.068066
Si Si2 0.352491 0.754537 0.574029
Si Si3 0.134519 0.544857 0.068235
Si Si4 0.500000 0.045323 0.567048
Si Si5 0.726445 0.313041 0.925924
Si Si6 0.427864 0.824774 0.066828
O O1 0.308134 0.885919 0.250000
O O2 0.371298 0.855507 0.020456
O O3 0.311616 0.923566 0.984996
O O4 0.247564 0.852574 0.018362
O O5 0.368121 0.747908 0.750000
O O6 0.331856 0.712987 0.494597
O O7 0.288695 0.783153 0.567524
O O8 0.407404 0.780769 0.493093
O O9 0.128972 0.542318 0.250000
O O10 0.144523 0.500000 0.000000
O O11 0.067231 0.561582 0.996760
O O12 0.500000 0.046141 0.750000
O O13 0.500000 0.000000 0.500000
O O14 0.715109 0.322894 0.750000
O O15 0.427418 0.824222 0.250000
O O16 0.500000 0.835951 0.015911
#
# Coordination Sequence:
#
# PCOD9468816 Si02
#       6
#    16  16  16   8  16  16
#     4  10  19  30  44  61  80 103 132 170 208 245
#     4   9  16  26  41  59  78 101 128 161 197 236
#     4  11  21  33  45  59  76 100 131 166 206 249
#     4  10  18  30  44  56  70  92 124 160 198 240
#     4   9  16  27  42  59  78 100 128 162 198 239
#     4   9  18  30  42  58  80 107 134 163 202 245
#
# _framework density 14.574851000000001
#
# number of rings (size 3 to 8) (size 9 to 14) (size 15 to 20)
#    0.000    2.364    0.000    5.182    1.273    5.455 
#    0.000    0.000    0.000    0.000    0.000    0.000 
#    0.000    0.000    0.000    0.000    0.000    0.909 
#
# Total GULP energy -245210.443411 kJ/mol
# GULP energy per Si atom -5572.964623 kJ/mol
# Density = 1.454168 g / cm^3
# Si number density = 14.574851 Si / 1000 Ang^3
#
#
#
# Elastic Constant Matrix: (Units=GPa)
#
#
# Indices 1 2 3 4 5 6 
#
# 1 12.5846 19.0229 5.3280 0.0000 0.0000 0.0000
# 2 19.0229 82.0147 34.7650 0.0000 0.0000 0.0000
# 3 5.3280 34.7650 75.7968 0.0000 0.0000 0.0000
# 4 0.0000 0.0000 0.0000 21.9511 0.0000 0.0000
# 5 0.0000 0.0000 0.0000 0.0000 15.8160 0.0000
# 6 0.0000 0.0000 0.0000 0.0000 0.0000 22.5027
#
#
#
# Elastic Compliance Matrix: (Units=1/GPa)
#
#
# Indices 1 2 3 4 5 6 
#
# 1 0.124226 -0.031173 0.005565 0.000000 0.000000 0.000000
# 2 -0.031173 0.022958 -0.008339 0.000000 0.000000 0.000000
# 3 0.005565 -0.008339 0.016627 0.000000 0.000000 0.000000
# 4 0.000000 0.000000 0.000000 0.045556 0.000000 0.000000
# 5 0.000000 0.000000 0.000000 0.000000 0.063227 0.000000
# 6 0.000000 0.000000 0.000000 0.000000 0.000000 0.044439
#
#
# Mechanical properties :
#
#
# Convention : Reuss Voigt Hill
#
# Bulk Modulus (GPa) = 10.42547 32.06977 21.24762
# Shear Modulus (GPa) = 11.99334 19.47263 15.73299
#
# Velocity S-wave (km/s) = 2.87170 3.65916 3.28908
# Velocity P-wave (km/s) = 4.26194 6.31695 5.38832
#
# Compressibility (1/GPa) = 0.09591890
#
# Stress axis : x y z
#
# Youngs Moduli (GPa) = 8.04981 43.55791 60.14469
#
# Poissons Ratio (x) = 1.35782 -0.33473
# Poissons Ratio (y) = 0.25093 0.50153
# Poissons Ratio (z) = -0.04480 0.36321
#
# Static dielectric constant tensor:
#      x y z
#    x 1.482250 0.000000 0.000000 
#    y 0.000000 1.464500 0.000000 
#    z 0.000000 0.000000 1.491210 
# 
# From -- ./inp_files/8966.got.cif
#   From: 2010.05.17/outbox.cif.g08.bks.cpg/sg63_5_cif.got.tgz:8966.got - 2010.06.03 15:47:04.
