data_PCOD9468389
_publ_section_title
;
Structure prediction by ZEFSAII (Michael W. Deem and Ramdas Pophale) SiO2 
 PCOD9468389
Probable space group: C M C M
;
_chemical_formula_sum "Si O2"
_cell_formula_units_Z 88
_cell_length_a 13.459190
_cell_length_b 19.330024
_cell_length_c 19.746130
_cell_angle_alpha 90.000000
_cell_angle_beta 90.000000
_cell_angle_gamma 90.000000
_cell_volume 5137.280854
_symmetry_space_group_name_H-M "C M C M"
_symmetry_group_IT_number 63
_symmetry_cell_setting 'orthorhombic'
loop_
_space_group_symop_operation_xyz
x,y,z
-x,-y,1/2+z
x,-y,-z
-x,y,1/2-z
-x,-y,-z
x,y,1/2-z
-x,y,z
x,-y,1/2+z
1/2+x,1/2+y,z
1/2-x,1/2-y,1/2+z
1/2+x,1/2-y,-z
1/2-x,1/2+y,1/2-z
1/2-x,1/2-y,-z
1/2+x,1/2+y,1/2-z
1/2-x,1/2+y,z
1/2+x,1/2-y,1/2+z
loop_
_atom_site_type_symbol
_atom_site_label
_atom_site_fract_x
_atom_site_fract_y
_atom_site_fract_z
Si Si1 0.699039 0.107596 0.108064
Si Si2 0.881029 0.323899 0.479042
Si Si3 0.882589 0.195352 0.112208
Si Si4 0.118366 0.660258 0.250000
Si Si5 0.117045 0.460618 0.101259
Si Si6 0.200551 0.740788 0.750000
Si Si7 0.386094 0.904679 0.250000
O O1 0.814815 0.127346 0.108760
O O2 0.651070 0.119778 0.181985
O O3 0.674519 0.030440 0.084051
O O4 0.650836 0.161532 0.055384
O O5 0.851688 0.251431 0.445057
O O6 0.847131 0.390526 0.435143
O O7 0.000000 0.324733 0.475143
O O8 0.855135 0.230801 0.183612
O O9 0.000000 0.182630 0.107590
O O10 0.187822 0.728874 0.250000
O O11 0.000000 0.671591 0.250000
O O12 0.124507 0.447893 0.181687
O O13 0.000000 0.470845 0.084757
O O14 0.189655 0.658705 0.750000
O O15 0.500000 0.876092 0.250000
#
# Coordination Sequence:
#
# PCOD9468389 Si02
#       7
#    16  16  16   8  16   8   8
#     4  11  21  33  50  76 106 134 161 203 255 304
#     4  10  19  32  52  76 102 131 165 207 252 297
#     4  10  20  34  53  76  99 131 172 209 245 288
#     4  10  21  34  49  72 105 136 163 197 247 304
#     4  10  19  30  51  78 103 130 161 208 258 299
#     4  10  18  32  55  75  97 128 167 210 248 289
#     4  10  17  30  52  77 102 126 162 209 251 295
#
# _framework density 17.129684000000001
#
# number of rings (size 3 to 8) (size 9 to 14) (size 15 to 20)
#    0.000    1.818    1.818    4.091    0.000    2.182 
#    0.000    0.000    0.000    3.273    0.000    0.000 
#    0.000    0.000    0.000    0.000    0.000    0.000 
#
# Total GULP energy -245468.997808 kJ/mol
# GULP energy per Si atom -5578.840859 kJ/mol
# Density = 1.709070 g / cm^3
# Si number density = 17.129684 Si / 1000 Ang^3
#
#
#
# Elastic Constant Matrix: (Units=GPa)
#
#
# Indices 1 2 3 4 5 6 
#
# 1 74.5609 51.4363 2.9741 0.0000 0.0000 0.0000
# 2 51.4363 68.9007 -4.5613 0.0000 0.0000 0.0000
# 3 2.9741 -4.5613 72.0562 0.0000 0.0000 0.0000
# 4 0.0000 0.0000 0.0000 11.7971 0.0000 0.0000
# 5 0.0000 0.0000 0.0000 0.0000 16.2247 0.0000
# 6 0.0000 0.0000 0.0000 0.0000 0.0000 26.4477
#
#
#
# Elastic Compliance Matrix: (Units=1/GPa)
#
#
# Indices 1 2 3 4 5 6 
#
# 1 0.028094 -0.021138 -0.002498 0.000000 0.000000 0.000000
# 2 -0.021138 0.030479 0.002802 0.000000 0.000000 0.000000
# 3 -0.002498 0.002802 0.014159 0.000000 0.000000 0.000000
# 4 0.000000 0.000000 0.000000 0.084766 0.000000 0.000000
# 5 0.000000 0.000000 0.000000 0.000000 0.061635 0.000000
# 6 0.000000 0.000000 0.000000 0.000000 0.000000 0.037810
#
#
# Mechanical properties :
#
#
# Convention : Reuss Voigt Hill
#
# Bulk Modulus (GPa) = 32.19179 35.02399 33.60789
# Shear Modulus (GPa) = 16.18304 21.93848 19.06076
#
# Velocity S-wave (km/s) = 3.07699 3.58261 3.33938
# Velocity P-wave (km/s) = 5.60871 6.13223 5.87630
#
# Compressibility (1/GPa) = 0.03106382
#
# Stress axis : x y z
#
# Youngs Moduli (GPa) = 35.59506 32.80908 70.62885
#
# Poissons Ratio (x) = 0.69352 0.17641
# Poissons Ratio (y) = 0.75241 -0.19789
# Poissons Ratio (z) = 0.08890 -0.09193
#
# Static dielectric constant tensor:
#      x y z
#    x 1.564850 0.000000 0.000000 
#    y 0.000000 1.579880 0.000000 
#    z 0.000000 0.000000 1.609150 
# 
# From -- ./inp_files/52601.got.cif
#   From: 2010.05.17/outbox.cif.g08.bks.cpg/sg63_27_cif.got.tgz:52601.got - 2010.06.03 15:47:04.
