data_PCOD9468329
_publ_section_title
;
Structure prediction by ZEFSAII (Michael W. Deem and Ramdas Pophale) SiO2 
 PCOD9468329
Probable space group: C M C M
;
_chemical_formula_sum "Si O2"
_cell_formula_units_Z 128
_cell_length_a 22.255588
_cell_length_b 20.773919
_cell_length_c 18.425224
_cell_angle_alpha 90.000000
_cell_angle_beta 90.000000
_cell_angle_gamma 90.000000
_cell_volume 8518.640354
_symmetry_space_group_name_H-M "C M C M"
_symmetry_group_IT_number 63
_symmetry_cell_setting 'orthorhombic'
loop_
_space_group_symop_operation_xyz
x,y,z
-x,-y,1/2+z
x,-y,-z
-x,y,1/2-z
-x,-y,-z
x,y,1/2-z
-x,y,z
x,-y,1/2+z
1/2+x,1/2+y,z
1/2-x,1/2-y,1/2+z
1/2+x,1/2-y,-z
1/2-x,1/2+y,1/2-z
1/2-x,1/2-y,-z
1/2+x,1/2+y,1/2-z
1/2-x,1/2+y,z
1/2+x,1/2-y,1/2+z
loop_
_atom_site_type_symbol
_atom_site_label
_atom_site_fract_x
_atom_site_fract_y
_atom_site_fract_z
Si Si1 0.069912 0.026561 0.663092
Si Si2 0.348260 0.626113 0.576176
Si Si3 0.568160 0.292448 0.532417
Si Si4 0.742320 0.374292 0.671302
Si Si5 0.401970 0.377522 0.667054
Si Si6 0.832338 0.694142 0.969266
Si Si7 0.276727 0.742062 0.884780
Si Si8 0.267739 0.925317 0.513683
O O1 0.078088 0.035124 0.750000
O O2 0.116007 0.071056 0.618956
O O3 0.000000 0.041296 0.645723
O O4 0.082013 0.951231 0.647337
O O5 0.394193 0.663100 0.523137
O O6 0.318277 0.680043 0.628947
O O7 0.293537 0.599059 0.526436
O O8 0.500000 0.285406 0.508179
O O9 0.571052 0.328764 0.609315
O O10 0.602403 0.224408 0.538290
O O11 0.756472 0.403816 0.750000
O O12 0.670158 0.369852 0.665359
O O13 0.770375 0.302669 0.667439
O O14 0.762846 0.411538 0.599530
O O15 0.422143 0.366822 0.750000
O O16 0.803510 0.727498 0.040908
O O17 0.820961 0.618963 0.981488
O O18 0.790004 0.717361 0.903594
O O19 0.275546 0.000000 0.500000
#
# Coordination Sequence:
#
# PCOD9468329 Si02
#       8
#    16  16  16  16  16  16  16  16
#     4  10  21  34  43  57  89 128 159 191 228 268
#     4  10  19  30  47  69  91 115 156 190 227 275
#     4  11  19  29  47  67  89 118 153 191 227 266
#     4  10  17  28  48  70  93 119 152 191 232 275
#     4  10  19  31  44  60  88 123 158 190 226 267
#     4   8  15  29  44  64  87 111 148 183 226 270
#     4   8  14  28  45  62  87 114 141 186 229 270
#     4  10  18  31  51  69  93 124 150 187 235 282
#
# _framework density 15.025872
#
# number of rings (size 3 to 8) (size 9 to 14) (size 15 to 20)
#    0.000    2.375    2.500    3.000    0.000    1.250 
#    0.000    1.250    0.000    1.875    0.000    0.000 
#    0.000    0.000    0.000    0.000    0.000    0.250 
#
# Total GULP energy -356471.954166 kJ/mol
# GULP energy per Si atom -5569.874284 kJ/mol
# Density = 1.499167 g / cm^3
# Si number density = 15.025872 Si / 1000 Ang^3
#
#
#
# Elastic Constant Matrix: (Units=GPa)
#
#
# Indices 1 2 3 4 5 6 
#
# 1 62.1761 52.0122 19.7878 0.0000 0.0000 0.0000
# 2 52.0122 106.2086 37.4067 0.0000 0.0000 0.0000
# 3 19.7878 37.4067 60.6253 0.0000 0.0000 0.0000
# 4 0.0000 0.0000 0.0000 16.9278 0.0000 0.0000
# 5 0.0000 0.0000 0.0000 0.0000 10.8716 0.0000
# 6 0.0000 0.0000 0.0000 0.0000 0.0000 8.4631
#
#
#
# Elastic Compliance Matrix: (Units=1/GPa)
#
#
# Indices 1 2 3 4 5 6 
#
# 1 0.027278 -0.013061 -0.000845 0.000000 0.000000 0.000000
# 2 -0.013061 0.018283 -0.007018 0.000000 0.000000 0.000000
# 3 -0.000845 -0.007018 0.021101 0.000000 0.000000 0.000000
# 4 0.000000 0.000000 0.000000 0.059075 0.000000 0.000000
# 5 0.000000 0.000000 0.000000 0.000000 0.091983 0.000000
# 6 0.000000 0.000000 0.000000 0.000000 0.000000 0.118160
#
#
# Mechanical properties :
#
#
# Convention : Reuss Voigt Hill
#
# Bulk Modulus (GPa) = 40.29859 49.71372 45.00615
# Shear Modulus (GPa) = 12.95339 15.23937 14.09638
#
# Velocity S-wave (km/s) = 2.93929 3.18812 3.06623
# Velocity P-wave (km/s) = 6.19653 6.83443 6.52328
#
# Compressibility (1/GPa) = 0.02481477
#
# Stress axis : x y z
#
# Youngs Moduli (GPa) = 36.65933 54.69417 47.39189
#
# Poissons Ratio (x) = 0.71437 0.04003
# Poissons Ratio (y) = 0.47881 0.33260
# Poissons Ratio (z) = 0.03096 0.38385
#
# Static dielectric constant tensor:
#      x y z
#    x 1.490890 0.000000 0.000000 
#    y 0.000000 1.502390 0.000000 
#    z 0.000000 0.000000 1.510290 
# 
# From -- ./inp_files/47547.got.cif
#   From: 2010.05.17/outbox.cif.g08.bks.cpg/sg63_24_cif.got.tgz:47547.got - 2010.06.03 15:47:04.
