data_PCOD9468730
_publ_section_title
;
Structure prediction by ZEFSAII (Michael W. Deem and Ramdas Pophale) SiO2 
 PCOD9468730
Probable space group: C M C M
;
_chemical_formula_sum "Si O2"
_cell_formula_units_Z 88
_cell_length_a 21.446185
_cell_length_b 24.698776
_cell_length_c 8.809692
_cell_angle_alpha 90.000000
_cell_angle_beta 90.000000
_cell_angle_gamma 90.000000
_cell_volume 4666.445570
_symmetry_space_group_name_H-M "C M C M"
_symmetry_group_IT_number 63
_symmetry_cell_setting 'orthorhombic'
loop_
_space_group_symop_operation_xyz
x,y,z
-x,-y,1/2+z
x,-y,-z
-x,y,1/2-z
-x,-y,-z
x,y,1/2-z
-x,y,z
x,-y,1/2+z
1/2+x,1/2+y,z
1/2-x,1/2-y,1/2+z
1/2+x,1/2-y,-z
1/2-x,1/2+y,1/2-z
1/2-x,1/2-y,-z
1/2+x,1/2+y,1/2-z
1/2-x,1/2+y,z
1/2+x,1/2-y,1/2+z
loop_
_atom_site_type_symbol
_atom_site_label
_atom_site_fract_x
_atom_site_fract_y
_atom_site_fract_z
Si Si1 0.570199 0.829746 0.566119
Si Si2 0.500000 0.439555 0.432254
Si Si3 0.864923 0.939379 0.067579
Si Si4 0.386943 0.943590 0.430345
Si Si5 0.304755 0.217085 0.421060
Si Si6 0.737972 0.907401 0.922696
O O1 0.576558 0.833973 0.750000
O O2 0.500000 0.811793 0.531168
O O3 0.581174 0.889705 0.498524
O O4 0.625303 0.789369 0.512278
O O5 0.500000 0.500000 0.500000
O O6 0.500000 0.444305 0.250000
O O7 0.567062 0.414831 0.473986
O O8 0.859546 0.941075 0.250000
O O9 0.805709 0.910640 0.995799
O O10 0.863775 0.000000 0.000000
O O11 0.393268 0.944191 0.250000
O O12 0.314340 0.937671 0.479196
O O13 0.410837 0.000000 0.500000
O O14 0.310748 0.238629 0.250000
O O15 0.250000 0.250000 0.500000
O O16 0.282643 0.154862 0.416267
O O17 0.738285 0.929072 0.750000
#
# Coordination Sequence:
#
# PCOD9468730 Si02
#       6
#    16   8  16  16  16  16
#     4   9  19  37  58  80 108 141 177 217 262 313
#     4   8  16  28  42  62  90 124 164 202 242 292
#     4  10  18  29  46  69  97 131 168 208 252 303
#     4  11  21  33  50  75 108 144 180 216 255 302
#     4   9  19  35  57  80 101 129 166 212 262 312
#     4  10  20  34  50  72 100 132 170 213 260 308
#
# _framework density 18.858036999999999
#
# number of rings (size 3 to 8) (size 9 to 14) (size 15 to 20)
#    0.000    2.364    0.000    4.364    0.000    5.091 
#    0.000    0.000    2.000    0.000    0.000    0.000 
#    0.000    0.000    0.000    0.000    0.000    0.000 
#
# Total GULP energy -245234.584271 kJ/mol
# GULP energy per Si atom -5573.513279 kJ/mol
# Density = 1.881512 g / cm^3
# Si number density = 18.858037 Si / 1000 Ang^3
#
#
#
# Elastic Constant Matrix: (Units=GPa)
#
#
# Indices 1 2 3 4 5 6 
#
# 1 165.0414 19.9646 29.3939 0.0000 0.0000 0.0000
# 2 19.9646 33.4841 11.2115 0.0000 0.0000 0.0000
# 3 29.3939 11.2115 59.6386 0.0000 0.0000 0.0000
# 4 0.0000 0.0000 0.0000 24.5887 0.0000 0.0000
# 5 0.0000 0.0000 0.0000 0.0000 25.6002 0.0000
# 6 0.0000 0.0000 0.0000 0.0000 0.0000 13.1070
#
#
#
# Elastic Compliance Matrix: (Units=1/GPa)
#
#
# Indices 1 2 3 4 5 6 
#
# 1 0.006949 -0.003198 -0.002824 0.000000 0.000000 0.000000
# 2 -0.003198 0.033343 -0.004692 0.000000 0.000000 0.000000
# 3 -0.002824 -0.004692 0.019041 0.000000 0.000000 0.000000
# 4 0.000000 0.000000 0.000000 0.040669 0.000000 0.000000
# 5 0.000000 0.000000 0.000000 0.000000 0.039062 0.000000
# 6 0.000000 0.000000 0.000000 0.000000 0.000000 0.076295
#
#
# Mechanical properties :
#
#
# Convention : Reuss Voigt Hill
#
# Bulk Modulus (GPa) = 26.38111 42.14489 34.26300
# Shear Modulus (GPa) = 20.04638 25.83211 22.93925
#
# Velocity S-wave (km/s) = 3.26393 3.70512 3.49150
# Velocity P-wave (km/s) = 5.31263 6.37973 5.87047
#
# Compressibility (1/GPa) = 0.03790591
#
# Stress axis : x y z
#
# Youngs Moduli (GPa) = 143.90964 29.99172 52.51706
#
# Poissons Ratio (x) = 0.09590 0.14829
# Poissons Ratio (y) = 0.46018 0.24641
# Poissons Ratio (z) = 0.40636 0.14072
#
# Static dielectric constant tensor:
#      x y z
#    x 1.726840 0.000000 0.000000 
#    y 0.000000 1.628590 0.000000 
#    z 0.000000 0.000000 1.650660 
# 
# From -- ./inp_files/8156.got.cif
#   From: 2010.05.17/outbox.cif.g08.bks.cpg/sg63_5_cif.got.tgz:8156.got - 2010.06.03 15:47:04.
