data_PCOD9468517
_publ_section_title
;
Structure prediction by ZEFSAII (Michael W. Deem and Ramdas Pophale) SiO2 
 PCOD9468517
Probable space group: C M C M
;
_chemical_formula_sum "Si O2"
_cell_formula_units_Z 112
_cell_length_a 23.761232
_cell_length_b 16.905109
_cell_length_c 16.425252
_cell_angle_alpha 90.000000
_cell_angle_beta 90.000000
_cell_angle_gamma 90.000000
_cell_volume 6597.797338
_symmetry_space_group_name_H-M "C M C M"
_symmetry_group_IT_number 63
_symmetry_cell_setting 'orthorhombic'
loop_
_space_group_symop_operation_xyz
x,y,z
-x,-y,1/2+z
x,-y,-z
-x,y,1/2-z
-x,-y,-z
x,y,1/2-z
-x,y,z
x,-y,1/2+z
1/2+x,1/2+y,z
1/2-x,1/2-y,1/2+z
1/2+x,1/2-y,-z
1/2-x,1/2+y,1/2-z
1/2-x,1/2-y,-z
1/2+x,1/2+y,1/2-z
1/2-x,1/2+y,z
1/2+x,1/2-y,1/2+z
loop_
_atom_site_type_symbol
_atom_site_label
_atom_site_fract_x
_atom_site_fract_y
_atom_site_fract_z
Si Si1 0.433621 0.911891 0.094004
Si Si2 0.066024 0.758356 0.654332
Si Si3 0.340222 0.796113 0.596893
Si Si4 0.066636 0.413149 0.603019
Si Si5 0.737963 0.797964 0.342789
Si Si6 0.843877 0.184176 0.053635
Si Si7 0.242579 0.591387 0.993701
O O1 0.500000 0.913831 0.113742
O O2 0.411675 0.829905 0.130520
O O3 0.412712 0.997649 0.123864
O O4 0.429280 0.908568 0.996012
O O5 0.072764 0.768865 0.750000
O O6 0.099703 0.824169 0.604692
O O7 0.000000 0.759960 0.634038
O O8 0.392266 0.844456 0.634015
O O9 0.298609 0.745914 0.653669
O O10 0.358624 0.734702 0.526683
O O11 0.301071 0.859383 0.548910
O O12 0.000000 0.404648 0.623531
O O13 0.722092 0.814186 0.250000
O O14 0.696160 0.737216 0.388073
O O15 0.739302 0.873513 0.402483
O O16 0.805084 0.111571 0.026793
O O17 0.229531 0.500000 0.000000
#
# Coordination Sequence:
#
# PCOD9468517 Si02
#       7
#    16  16  16  16  16  16  16
#     4   8  15  24  36  60  92 123 152 178 212 259
#     4  10  18  27  42  65  92 120 149 185 230 278
#     4   9  17  28  47  67  89 122 157 188 216 265
#     4   9  15  24  41  65  91 122 155 187 218 254
#     4   9  18  33  48  65  92 123 153 189 233 271
#     4   9  17  31  47  65  90 119 148 186 228 273
#     4   9  19  32  49  71  90 118 158 195 232 272
#
# _framework density 16.975362000000001
#
# number of rings (size 3 to 8) (size 9 to 14) (size 15 to 20)
#    0.000    3.000    1.429    3.000    2.000    0.000 
#    0.000    4.286    0.000    1.714    0.000    0.000 
#    0.000    0.000    0.000    0.000    0.000    0.000 
#
# Total GULP energy -311860.675761 kJ/mol
# GULP energy per Si atom -5568.940639 kJ/mol
# Density = 1.693673 g / cm^3
# Si number density = 16.975362 Si / 1000 Ang^3
#
#
#
# Elastic Constant Matrix: (Units=GPa)
#
#
# Indices 1 2 3 4 5 6 
#
# 1 36.4558 -4.6421 2.4103 0.0000 0.0000 0.0000
# 2 -4.6421 32.8655 4.7183 0.0000 0.0000 0.0000
# 3 2.4103 4.7183 52.8331 0.0000 0.0000 0.0000
# 4 0.0000 0.0000 0.0000 9.5431 0.0000 0.0000
# 5 0.0000 0.0000 0.0000 0.0000 15.5812 0.0000
# 6 0.0000 0.0000 0.0000 0.0000 0.0000 22.4304
#
#
#
# Elastic Compliance Matrix: (Units=1/GPa)
#
#
# Indices 1 2 3 4 5 6 
#
# 1 0.028075 0.004203 -0.001656 0.000000 0.000000 0.000000
# 2 0.004203 0.031452 -0.003001 0.000000 0.000000 0.000000
# 3 -0.001656 -0.003001 0.019271 0.000000 0.000000 0.000000
# 4 0.000000 0.000000 0.000000 0.104788 0.000000 0.000000
# 5 0.000000 0.000000 0.000000 0.000000 0.064180 0.000000
# 6 0.000000 0.000000 0.000000 0.000000 0.000000 0.044582
#
#
# Mechanical properties :
#
#
# Convention : Reuss Voigt Hill
#
# Bulk Modulus (GPa) = 12.83848 14.12526 13.48187
# Shear Modulus (GPa) = 15.66324 17.48879 16.57601
#
# Velocity S-wave (km/s) = 3.04090 3.21323 3.12825
# Velocity P-wave (km/s) = 4.46193 4.70165 4.58336
#
# Compressibility (1/GPa) = 0.07789083
#
# Stress axis : x y z
#
# Youngs Moduli (GPa) = 35.61859 31.79494 51.89127
#
# Poissons Ratio (x) = -0.13364 0.08594
# Poissons Ratio (y) = -0.14971 0.15570
# Poissons Ratio (z) = 0.05899 0.09540
#
# Static dielectric constant tensor:
#      x y z
#    x 1.635480 0.000000 0.000000 
#    y 0.000000 1.569050 0.000000 
#    z 0.000000 0.000000 1.580860 
# 
# From -- ./inp_files/48332.got.cif
#   From: 2010.05.17/outbox.cif.g08.bks.cpg/sg63_25_cif.got.tgz:48332.got - 2010.06.03 15:47:04.
