data_PCOD9468134
_publ_section_title
;
Structure prediction by ZEFSAII (Michael W. Deem and Ramdas Pophale) SiO2 
 PCOD9468134
Probable space group: C M C M
;
_chemical_formula_sum "Si O2"
_cell_formula_units_Z 88
_cell_length_a 20.574787
_cell_length_b 10.212762
_cell_length_c 17.175226
_cell_angle_alpha 90.000000
_cell_angle_beta 90.000000
_cell_angle_gamma 90.000000
_cell_volume 3608.951282
_symmetry_space_group_name_H-M "C M C M"
_symmetry_group_IT_number 63
_symmetry_cell_setting 'orthorhombic'
loop_
_space_group_symop_operation_xyz
x,y,z
-x,-y,1/2+z
x,-y,-z
-x,y,1/2-z
-x,-y,-z
x,y,1/2-z
-x,y,z
x,-y,1/2+z
1/2+x,1/2+y,z
1/2-x,1/2-y,1/2+z
1/2+x,1/2-y,-z
1/2-x,1/2+y,1/2-z
1/2-x,1/2-y,-z
1/2+x,1/2+y,1/2-z
1/2-x,1/2+y,z
1/2+x,1/2-y,1/2+z
loop_
_atom_site_type_symbol
_atom_site_label
_atom_site_fract_x
_atom_site_fract_y
_atom_site_fract_z
Si Si1 0.714164 0.404087 0.662883
Si Si2 0.859521 0.536935 0.157579
Si Si3 0.858806 0.291970 0.449641
Si Si4 0.500000 0.756452 0.110747
Si Si5 0.500000 0.944930 0.662734
Si Si6 0.134797 0.898708 0.073423
Si Si7 0.000000 0.957620 0.159473
O O1 0.688551 0.388477 0.750000
O O2 0.791351 0.391215 0.663945
O O3 0.681289 0.298896 0.608460
O O4 0.689834 0.543879 0.630311
O O5 0.869388 0.487909 0.250000
O O6 0.848710 0.433357 0.087639
O O7 0.929332 0.597128 0.133500
O O8 0.935174 0.261868 0.439701
O O9 0.843970 0.238813 0.535277
O O10 0.500000 0.894968 0.157082
O O11 0.500000 0.617495 0.154395
O O12 0.500000 0.897608 0.750000
O O13 0.065387 0.907543 0.116709
O O14 0.130631 0.000000 0.000000
O O15 0.000000 0.920505 0.250000
#
# Coordination Sequence:
#
# PCOD9468134 Si02
#       7
#    16  16  16   8   8  16   8
#     4  10  19  30  45  68  96 125 160 199 243 292
#     4   9  18  31  48  71  95 121 159 202 246 296
#     4  10  19  31  49  68  99 132 161 199 240 291
#     4  10  16  26  46  69  95 121 156 188 236 288
#     4   8  15  27  43  66  90 113 146 196 243 279
#     4  10  19  29  42  65  97 130 165 194 229 285
#     4  12  19  26  44  70 101 133 163 194 239 296
#
# _framework density 24.383814999999998
#
# number of rings (size 3 to 8) (size 9 to 14) (size 15 to 20)
#    0.000    2.182    3.636    2.182    0.000    2.182 
#    0.000    0.000    0.000    0.000    0.000    8.273 
#    0.000    7.273    0.000    0.000    0.000    0.000 
#
# Total GULP energy -245673.336748 kJ/mol
# GULP energy per Si atom -5583.484926 kJ/mol
# Density = 2.432832 g / cm^3
# Si number density = 24.383815 Si / 1000 Ang^3
#
#
#
# Elastic Constant Matrix: (Units=GPa)
#
#
# Indices 1 2 3 4 5 6 
#
# 1 136.4568 1.7310 36.1464 0.0000 0.0000 0.0000
# 2 1.7310 58.0319 32.0991 0.0000 0.0000 0.0000
# 3 36.1464 32.0991 130.8634 0.0000 0.0000 0.0000
# 4 0.0000 0.0000 0.0000 14.8415 0.0000 0.0000
# 5 0.0000 0.0000 0.0000 0.0000 16.3421 0.0000
# 6 0.0000 0.0000 0.0000 0.0000 0.0000 2.1051
#
#
#
# Elastic Compliance Matrix: (Units=1/GPa)
#
#
# Indices 1 2 3 4 5 6 
#
# 1 0.007971 0.001134 -0.002480 0.000000 0.000000 0.000000
# 2 0.001134 0.020098 -0.005243 0.000000 0.000000 0.000000
# 3 -0.002480 -0.005243 0.009613 0.000000 0.000000 0.000000
# 4 0.000000 0.000000 0.000000 0.067379 0.000000 0.000000
# 5 0.000000 0.000000 0.000000 0.000000 0.061191 0.000000
# 6 0.000000 0.000000 0.000000 0.000000 0.000000 0.475044
#
#
# Mechanical properties :
#
#
# Convention : Reuss Voigt Hill
#
# Bulk Modulus (GPa) = 40.81021 51.70057 46.25539
# Shear Modulus (GPa) = 7.54556 23.68278 15.61417
#
# Velocity S-wave (km/s) = 1.76103 3.11987 2.53326
# Velocity P-wave (km/s) = 4.57251 5.85038 5.25047
#
# Compressibility (1/GPa) = 0.02450367
#
# Stress axis : x y z
#
# Youngs Moduli (GPa) = 125.45763 49.75590 104.03064
#
# Poissons Ratio (x) = -0.05642 0.25797
# Poissons Ratio (y) = -0.14225 0.54543
# Poissons Ratio (z) = 0.31111 0.26087
#
# Static dielectric constant tensor:
#      x y z
#    x 1.902810 0.000000 0.000000 
#    y 0.000000 2.060580 0.000000 
#    z 0.000000 0.000000 1.934060 
# 
# From -- ./inp_files/46954.got.cif
#   From: 2010.05.17/outbox.cif.g08.bks.cpg/sg63_24_cif.got.tgz:46954.got - 2010.06.03 15:47:04.
