data_PCOD9468265
_publ_section_title
;
Structure prediction by ZEFSAII (Michael W. Deem and Ramdas Pophale) SiO2 
 PCOD9468265
Probable space group: C M C M
;
_chemical_formula_sum "Si O2"
_cell_formula_units_Z 96
_cell_length_a 7.441302
_cell_length_b 28.235875
_cell_length_c 23.705287
_cell_angle_alpha 90.000000
_cell_angle_beta 90.000000
_cell_angle_gamma 90.000000
_cell_volume 4980.757513
_symmetry_space_group_name_H-M "C M C M"
_symmetry_group_IT_number 63
_symmetry_cell_setting 'orthorhombic'
loop_
_space_group_symop_operation_xyz
x,y,z
-x,-y,1/2+z
x,-y,-z
-x,y,1/2-z
-x,-y,-z
x,y,1/2-z
-x,y,z
x,-y,1/2+z
1/2+x,1/2+y,z
1/2-x,1/2-y,1/2+z
1/2+x,1/2-y,-z
1/2-x,1/2+y,1/2-z
1/2-x,1/2-y,-z
1/2+x,1/2+y,1/2-z
1/2-x,1/2+y,z
1/2+x,1/2-y,1/2+z
loop_
_atom_site_type_symbol
_atom_site_label
_atom_site_fract_x
_atom_site_fract_y
_atom_site_fract_z
Si Si1 0.288709 0.372602 0.750000
Si Si2 0.280531 0.146535 0.544882
Si Si3 0.721298 0.263661 0.750000
Si Si4 0.282241 0.799828 0.567255
Si Si5 0.795274 0.710649 0.861509
Si Si6 0.787173 0.394557 0.626830
Si Si7 0.280334 0.051804 0.481921
O O1 0.500000 0.366828 0.750000
O O2 0.214709 0.318443 0.750000
O O3 0.242366 0.400052 0.807143
O O4 0.500000 0.146951 0.546015
O O5 0.227968 0.182740 0.494764
O O6 0.215814 0.165808 0.605141
O O7 0.226859 0.094338 0.524150
O O8 0.500000 0.264970 0.750000
O O9 0.782136 0.235263 0.694274
O O10 0.500000 0.795923 0.568486
O O11 0.204727 0.751718 0.591178
O O12 0.222184 0.842448 0.608519
O O13 0.000000 0.698065 0.846507
O O14 0.720582 0.432252 0.580849
O O15 0.000000 0.393016 0.617905
O O16 0.500000 0.050831 0.482407
O O17 0.218520 0.000000 0.500000
#
# Coordination Sequence:
#
# PCOD9468265 Si02
#       7
#     8  16   8  16  16  16  16
#     4  11  19  29  43  62  91 123 155 177 208 263
#     4   8  15  25  40  61  83 110 140 174 217 259
#     4   9  18  27  37  56  83 119 151 173 200 245
#     4   9  16  26  39  60  86 110 141 175 211 253
#     4  10  17  27  40  56  84 117 146 172 204 249
#     4   9  17  28  44  66  91 117 146 182 222 261
#     4   8  14  27  47  69  90 112 142 184 234 278
#
# _framework density 19.274177000000002
#
# number of rings (size 3 to 8) (size 9 to 14) (size 15 to 20)
#    0.000    3.000    1.667    2.750    0.000    0.000 
#    0.000    0.417    0.000    1.500    0.000    5.833 
#    0.000    0.000    0.000    0.000    0.000    0.000 
#
# Total GULP energy -267537.342224 kJ/mol
# GULP energy per Si atom -5573.694630 kJ/mol
# Density = 1.923031 g / cm^3
# Si number density = 19.274177 Si / 1000 Ang^3
#
#
#
# Elastic Constant Matrix: (Units=GPa)
#
#
# Indices 1 2 3 4 5 6 
#
# 1 57.9042 -1.6785 -1.0317 0.0000 0.0000 0.0000
# 2 -1.6785 114.1874 87.8529 0.0000 0.0000 0.0000
# 3 -1.0317 87.8529 112.2467 0.0000 0.0000 0.0000
# 4 0.0000 0.0000 0.0000 38.8806 0.0000 0.0000
# 5 0.0000 0.0000 0.0000 0.0000 -0.0594 0.0000
# 6 0.0000 0.0000 0.0000 0.0000 0.0000 -4.5202
#
#
#
# Elastic Compliance Matrix: (Units=1/GPa)
#
#
# Indices 1 2 3 4 5 6 
#
# 1 0.017278 0.000331 -0.000100 0.000000 0.000000 0.000000
# 2 0.000331 0.022020 -0.017231 0.000000 0.000000 0.000000
# 3 -0.000100 -0.017231 0.022395 0.000000 0.000000 0.000000
# 4 0.000000 0.000000 0.000000 0.025720 0.000000 0.000000
# 5 0.000000 0.000000 0.000000 0.000000-16.833806 0.000000
# 6 0.000000 0.000000 0.000000 0.000000 0.000000 -0.221230
#
#
# Mechanical properties :
#
#
# Convention : Reuss Voigt Hill
#
# Bulk Modulus (GPa) = 36.11277 50.51374 43.31325
# Shear Modulus (GPa) = -0.29543 20.13990 9.92223
#
# Velocity S-wave (km/s) = -0.39193 3.23602 2.27137
# Velocity P-wave (km/s) = 4.30955 6.34250 5.42216
#
# Compressibility (1/GPa) = 0.02769104
#
# Stress axis : x y z
#
# Youngs Moduli (GPa) = 57.87798 45.41381 44.65366
#
# Poissons Ratio (x) = -0.01504 0.00449
# Poissons Ratio (y) = -0.01917 0.76944
# Poissons Ratio (z) = 0.00581 0.78254
#
# Static dielectric constant tensor:
#      x y z
#    x 1.744570 0.000000 0.000000 
#    y 0.000000 1.652920 0.000000 
#    z 0.000000 0.000000 1.651220 
# 
# From -- ./inp_files/60293.got.cif
#   From: 2010.05.17/outbox.cif.g08.bks.cpg/sg63_31_cif.got.tgz:60293.got - 2010.06.03 15:47:04.
