data_PCOD9468846
_publ_section_title
;
Structure prediction by ZEFSAII (Michael W. Deem and Ramdas Pophale) SiO2 
 PCOD9468846
Probable space group: C M C M
;
_chemical_formula_sum "Si O2"
_cell_formula_units_Z 56
_cell_length_a 14.075397
_cell_length_b 24.286038
_cell_length_c 8.708046
_cell_angle_alpha 90.000000
_cell_angle_beta 90.000000
_cell_angle_gamma 90.000000
_cell_volume 2976.720359
_symmetry_space_group_name_H-M "C M C M"
_symmetry_group_IT_number 63
_symmetry_cell_setting 'orthorhombic'
loop_
_space_group_symop_operation_xyz
x,y,z
-x,-y,1/2+z
x,-y,-z
-x,y,1/2-z
-x,-y,-z
x,y,1/2-z
-x,y,z
x,-y,1/2+z
1/2+x,1/2+y,z
1/2-x,1/2-y,1/2+z
1/2+x,1/2-y,-z
1/2-x,1/2+y,1/2-z
1/2-x,1/2-y,-z
1/2+x,1/2+y,1/2-z
1/2-x,1/2+y,z
1/2+x,1/2-y,1/2+z
loop_
_atom_site_type_symbol
_atom_site_label
_atom_site_fract_x
_atom_site_fract_y
_atom_site_fract_z
Si Si1 0.608090 0.268644 0.433959
Si Si2 0.301551 0.439125 0.068492
Si Si3 0.219292 0.662010 0.069549
Si Si4 0.500000 0.437899 0.566242
O O1 0.618780 0.278577 0.250000
O O2 0.500000 0.281164 0.477931
O O3 0.686857 0.303571 0.522241
O O4 0.633486 0.204369 0.460504
O O5 0.312500 0.443810 0.250000
O O6 0.285131 0.500000 0.000000
O O7 0.222422 0.394802 0.022818
O O8 0.400775 0.415873 0.998278
O O9 0.222034 0.649560 0.250000
O O10 0.500000 0.500000 0.500000
O O11 0.500000 0.437399 0.750000
#
# Coordination Sequence:
#
# PCOD9468846 Si02
#       4
#    16  16  16   8
#     4   9  19  36  56  77 104 138 176 218 263 308
#     4  11  21  34  51  73 104 139 173 213 258 311
#     4  10  20  34  53  79 107 137 175 217 260 311
#     4  10  18  30  46  68  98 132 170 206 247 300
#
# _framework density 18.812650999999999
#
# number of rings (size 3 to 8) (size 9 to 14) (size 15 to 20)
#    0.000    2.000    0.000    6.429    2.000    1.714 
#    0.000    0.000    0.000    0.857    0.000    0.000 
#    0.000    0.000    0.000    0.000    0.000    0.000 
#
# Total GULP energy -156291.794979 kJ/mol
# GULP energy per Si atom -5581.849821 kJ/mol
# Density = 1.876983 g / cm^3
# Si number density = 18.812651 Si / 1000 Ang^3
#
#
#
# Elastic Constant Matrix: (Units=GPa)
#
#
# Indices 1 2 3 4 5 6 
#
# 1 30.5943 -4.6370 -0.6585 0.0000 0.0000 0.0000
# 2 -4.6370 73.1842 27.9940 0.0000 0.0000 0.0000
# 3 -0.6585 27.9940 107.0689 0.0000 0.0000 0.0000
# 4 0.0000 0.0000 0.0000 32.1916 0.0000 0.0000
# 5 0.0000 0.0000 0.0000 0.0000 18.0233 0.0000
# 6 0.0000 0.0000 0.0000 0.0000 0.0000 23.8278
#
#
#
# Elastic Compliance Matrix: (Units=1/GPa)
#
#
# Indices 1 2 3 4 5 6 
#
# 1 0.033017 0.002238 -0.000382 0.000000 0.000000 0.000000
# 2 0.002238 0.015334 -0.003995 0.000000 0.000000 0.000000
# 3 -0.000382 -0.003995 0.010382 0.000000 0.000000 0.000000
# 4 0.000000 0.000000 0.000000 0.031064 0.000000 0.000000
# 5 0.000000 0.000000 0.000000 0.000000 0.055484 0.000000
# 6 0.000000 0.000000 0.000000 0.000000 0.000000 0.041968
#
#
# Mechanical properties :
#
#
# Convention : Reuss Voigt Hill
#
# Bulk Modulus (GPa) = 18.36403 28.47158 23.41781
# Shear Modulus (GPa) = 23.84596 27.35181 25.59888
#
# Velocity S-wave (km/s) = 3.56413 3.81715 3.69281
# Velocity P-wave (km/s) = 5.16915 5.88172 5.53691
#
# Compressibility (1/GPa) = 0.05445428
#
# Stress axis : x y z
#
# Youngs Moduli (GPa) = 30.28757 65.21333 96.31979
#
# Poissons Ratio (x) = -0.14596 0.03680
# Poissons Ratio (y) = -0.06779 0.38485
# Poissons Ratio (z) = 0.01157 0.26056
#
# Static dielectric constant tensor:
#      x y z
#    x 1.664850 0.000000 0.000000 
#    y 0.000000 1.643230 0.000000 
#    z 0.000000 0.000000 1.626060 
# 
# From -- ./inp_files/4152.got.cif
#   From: 2010.05.17/outbox.cif.g08.bks.cpg/sg63_3_cif.got.tgz:4152.got - 2010.06.03 15:47:04.
