data_PCOD9468684
_publ_section_title
;
Structure prediction by ZEFSAII (Michael W. Deem and Ramdas Pophale) SiO2 
 PCOD9468684
Probable space group: C M C M
;
_chemical_formula_sum "Si O2"
_cell_formula_units_Z 88
_cell_length_a 24.402976
_cell_length_b 10.689640
_cell_length_c 13.516337
_cell_angle_alpha 90.000000
_cell_angle_beta 90.000000
_cell_angle_gamma 90.000000
_cell_volume 3525.858537
_symmetry_space_group_name_H-M "C M C M"
_symmetry_group_IT_number 63
_symmetry_cell_setting 'orthorhombic'
loop_
_space_group_symop_operation_xyz
x,y,z
-x,-y,1/2+z
x,-y,-z
-x,y,1/2-z
-x,-y,-z
x,y,1/2-z
-x,y,z
x,-y,1/2+z
1/2+x,1/2+y,z
1/2-x,1/2-y,1/2+z
1/2+x,1/2-y,-z
1/2-x,1/2+y,1/2-z
1/2-x,1/2-y,-z
1/2+x,1/2+y,1/2-z
1/2-x,1/2+y,z
1/2+x,1/2-y,1/2+z
loop_
_atom_site_type_symbol
_atom_site_label
_atom_site_fract_x
_atom_site_fract_y
_atom_site_fract_z
Si Si1 0.000000 0.468383 0.629478
Si Si2 0.385192 0.069445 0.629804
Si Si3 0.179632 0.673420 0.133561
Si Si4 0.500000 0.671083 0.629122
Si Si5 0.778186 0.316808 0.369559
Si Si6 0.116475 0.937089 0.366393
Si Si7 0.704955 0.500000 0.500000
O O1 0.947307 0.549819 0.599114
O O2 0.000000 0.462053 0.750000
O O3 0.000000 0.319906 0.600483
O O4 0.387057 0.075000 0.750000
O O5 0.355603 0.941112 0.597302
O O6 0.341592 0.175816 0.600940
O O7 0.183691 0.649176 0.250000
O O8 0.242166 0.696547 0.101578
O O9 0.147562 0.803294 0.122025
O O10 0.500000 0.673327 0.750000
O O11 0.554871 0.595986 0.598886
O O12 0.773998 0.332660 0.250000
O O13 0.745695 0.426453 0.425394
O O14 0.113991 0.967181 0.250000
O O15 0.156103 0.036414 0.419675
#
# Coordination Sequence:
#
# PCOD9468684 Si02
#       7
#     8  16  16   8  16  16   8
#     4   9  14  22  43  70  90 112 146 192 245 280
#     4   9  15  25  44  69  93 116 148 190 236 282
#     4   8  13  24  41  60  86 119 146 177 223 271
#     4   9  14  23  41  63  85 113 148 186 234 279
#     4   9  18  30  44  64  93 124 154 188 227 276
#     4   9  16  26  41  61  87 118 151 185 226 274
#     4  10  18  29  42  59  92 126 154 186 220 274
#
# _framework density 24.958459999999999
#
# number of rings (size 3 to 8) (size 9 to 14) (size 15 to 20)
#    0.000    3.091    1.818    1.636    0.000    0.364 
#    0.000    3.636    0.000    0.545    0.000    0.000 
#    0.000    3.273    0.000   54.182    0.000    0.000 
#
# Total GULP energy -245302.007043 kJ/mol
# GULP energy per Si atom -5575.045615 kJ/mol
# Density = 2.490165 g / cm^3
# Si number density = 24.958460 Si / 1000 Ang^3
#
#
#
# Elastic Constant Matrix: (Units=GPa)
#
#
# Indices 1 2 3 4 5 6 
#
# 1 273.6460 51.2246 24.8513 0.0000 0.0000 0.0000
# 2 51.2246 78.4973 4.6200 0.0000 0.0000 0.0000
# 3 24.8513 4.6200 103.4167 0.0000 0.0000 0.0000
# 4 0.0000 0.0000 0.0000 25.3609 0.0000 0.0000
# 5 0.0000 0.0000 0.0000 0.0000 16.6736 0.0000
# 6 0.0000 0.0000 0.0000 0.0000 0.0000 16.3310
#
#
#
# Elastic Compliance Matrix: (Units=1/GPa)
#
#
# Indices 1 2 3 4 5 6 
#
# 1 0.004245 -0.002717 -0.000899 0.000000 0.000000 0.000000
# 2 -0.002717 0.014512 0.000005 0.000000 0.000000 0.000000
# 3 -0.000899 0.000005 0.009885 0.000000 0.000000 0.000000
# 4 0.000000 0.000000 0.000000 0.039431 0.000000 0.000000
# 5 0.000000 0.000000 0.000000 0.000000 0.059975 0.000000
# 6 0.000000 0.000000 0.000000 0.000000 0.000000 0.061233
#
#
# Mechanical properties :
#
#
# Convention : Reuss Voigt Hill
#
# Bulk Modulus (GPa) = 46.68539 68.55019 57.61779
# Shear Modulus (GPa) = 24.55278 36.66404 30.60841
#
# Velocity S-wave (km/s) = 3.13988 3.83692 3.50576
# Velocity P-wave (km/s) = 5.64721 6.86692 6.28671
#
# Compressibility (1/GPa) = 0.02141998
#
# Stress axis : x y z
#
# Youngs Moduli (GPa) = 235.59570 68.90839 101.15979
#
# Poissons Ratio (x) = 0.18722 0.09090
# Poissons Ratio (y) = 0.64011 -0.00046
# Poissons Ratio (z) = 0.21171 -0.00032
#
# Static dielectric constant tensor:
#      x y z
#    x 2.002440 0.000000 0.000000 
#    y 0.000000 2.087230 0.000000 
#    z 0.000000 0.000000 2.016290 
# 
# From -- ./inp_files/36785.got.cif
#   From: 2010.05.17/outbox.cif.g08.bks.cpg/sg63_19_cif.got.tgz:36785.got - 2010.06.03 15:47:04.
