data_PCOD9468575
_publ_section_title
;
Structure prediction by ZEFSAII (Michael W. Deem and Ramdas Pophale) SiO2 
 PCOD9468575
Probable space group: C M C M
;
_chemical_formula_sum "Si O2"
_cell_formula_units_Z 80
_cell_length_a 24.906456
_cell_length_b 13.100882
_cell_length_c 14.228997
_cell_angle_alpha 90.000000
_cell_angle_beta 90.000000
_cell_angle_gamma 90.000000
_cell_volume 4642.872504
_symmetry_space_group_name_H-M "C M C M"
_symmetry_group_IT_number 63
_symmetry_cell_setting 'orthorhombic'
loop_
_space_group_symop_operation_xyz
x,y,z
-x,-y,1/2+z
x,-y,-z
-x,y,1/2-z
-x,-y,-z
x,y,1/2-z
-x,y,z
x,-y,1/2+z
1/2+x,1/2+y,z
1/2-x,1/2-y,1/2+z
1/2+x,1/2-y,-z
1/2-x,1/2+y,1/2-z
1/2-x,1/2-y,-z
1/2+x,1/2+y,1/2-z
1/2-x,1/2+y,z
1/2+x,1/2-y,1/2+z
loop_
_atom_site_type_symbol
_atom_site_label
_atom_site_fract_x
_atom_site_fract_y
_atom_site_fract_z
Si Si1 0.439602 0.253764 0.357874
Si Si2 0.827330 0.020222 0.645865
Si Si3 0.557355 0.503852 0.887681
Si Si4 0.227025 0.812496 0.859235
Si Si5 0.668178 0.268860 0.041612
O O1 0.428486 0.221859 0.250000
O O2 0.500000 0.219267 0.384283
O O3 0.441982 0.377646 0.357658
O O4 0.390567 0.230097 0.427659
O O5 0.821572 0.067003 0.750000
O O6 0.885230 0.963080 0.643997
O O7 0.783118 0.934003 0.633156
O O8 0.828669 0.110872 0.570914
O O9 0.500000 0.458801 0.856785
O O10 0.557613 0.500000 0.000000
O O11 0.219722 0.784105 0.750000
O O12 0.285902 0.784494 0.896354
O O13 0.185695 0.760977 0.933167
#
# Coordination Sequence:
#
# PCOD9468575 Si02
#       5
#    16  16  16  16  16
#     4   9  16  26  42  62  81 106 141 175 213 260
#     4  10  18  28  43  62  86 114 144 176 210 252
#     4   9  15  22  34  53  79 111 142 169 201 243
#     4  10  20  30  43  64  86 115 153 180 206 256
#     4  10  18  31  47  61  89 120 140 177 224 255
#
# _framework density 17.230712
#
# number of rings (size 3 to 8) (size 9 to 14) (size 15 to 20)
#    0.000    2.400    0.000    6.600    0.000    1.200 
#    0.000    0.000    0.000    1.800    0.000    0.000 
#    0.000   14.400    0.000   23.200    0.000    0.800 
#
# Total GULP energy -222672.341244 kJ/mol
# GULP energy per Si atom -5566.808531 kJ/mol
# Density = 1.719149 g / cm^3
# Si number density = 17.230712 Si / 1000 Ang^3
#
#
#
# Elastic Constant Matrix: (Units=GPa)
#
#
# Indices 1 2 3 4 5 6 
#
# 1 137.0476 26.7425 46.7308 0.0000 0.0000 0.0000
# 2 26.7425 18.9870 4.0484 0.0000 0.0000 0.0000
# 3 46.7308 4.0484 138.4340 0.0000 0.0000 0.0000
# 4 0.0000 0.0000 0.0000 13.9110 0.0000 0.0000
# 5 0.0000 0.0000 0.0000 0.0000 19.9092 0.0000
# 6 0.0000 0.0000 0.0000 0.0000 0.0000 18.2785
#
#
#
# Elastic Compliance Matrix: (Units=1/GPa)
#
#
# Indices 1 2 3 4 5 6 
#
# 1 0.011475 -0.015433 -0.003422 0.000000 0.000000 0.000000
# 2 -0.015433 0.073753 0.003053 0.000000 0.000000 0.000000
# 3 -0.003422 0.003053 0.008290 0.000000 0.000000 0.000000
# 4 0.000000 0.000000 0.000000 0.071885 0.000000 0.000000
# 5 0.000000 0.000000 0.000000 0.000000 0.050228 0.000000
# 6 0.000000 0.000000 0.000000 0.000000 0.000000 0.054709
#
#
# Mechanical properties :
#
#
# Convention : Reuss Voigt Hill
#
# Bulk Modulus (GPa) = 16.15164 49.94579 33.04872
# Shear Modulus (GPa) = 15.49992 24.88285 20.19139
#
# Velocity S-wave (km/s) = 3.00251 3.80425 3.42691
# Velocity P-wave (km/s) = 4.62754 6.95312 5.90593
#
# Compressibility (1/GPa) = 0.06191320
#
# Stress axis : x y z
#
# Youngs Moduli (GPa) = 87.14544 13.55880 120.63250
#
# Poissons Ratio (x) = 0.20925 0.41284
# Poissons Ratio (y) = 1.34487 -0.36825
# Poissons Ratio (z) = 0.29824 -0.04139
#
# Static dielectric constant tensor:
#      x y z
#    x 1.644590 0.000000 0.000000 
#    y 0.000000 1.564120 0.000000 
#    z 0.000000 0.000000 1.722620 
# 
# From -- ./inp_files/35485.got.cif
#   From: 2010.05.17/outbox.cif.g08.bks.cpg/sg63_18_cif.got.tgz:35485.got - 2010.06.03 15:47:04.
