data_PCOD9468530
_publ_section_title
;
Structure prediction by ZEFSAII (Michael W. Deem and Ramdas Pophale) SiO2 
 PCOD9468530
Probable space group: C M C M
;
_chemical_formula_sum "Si O2"
_cell_formula_units_Z 112
_cell_length_a 7.299208
_cell_length_b 26.486719
_cell_length_c 27.822189
_cell_angle_alpha 90.000000
_cell_angle_beta 90.000000
_cell_angle_gamma 90.000000
_cell_volume 5378.921425
_symmetry_space_group_name_H-M "C M C M"
_symmetry_group_IT_number 63
_symmetry_cell_setting 'orthorhombic'
loop_
_space_group_symop_operation_xyz
x,y,z
-x,-y,1/2+z
x,-y,-z
-x,y,1/2-z
-x,-y,-z
x,y,1/2-z
-x,y,z
x,-y,1/2+z
1/2+x,1/2+y,z
1/2-x,1/2-y,1/2+z
1/2+x,1/2-y,-z
1/2-x,1/2+y,1/2-z
1/2-x,1/2-y,-z
1/2+x,1/2+y,1/2-z
1/2-x,1/2+y,z
1/2+x,1/2-y,1/2+z
loop_
_atom_site_type_symbol
_atom_site_label
_atom_site_fract_x
_atom_site_fract_y
_atom_site_fract_z
Si Si1 0.722623 0.581277 0.126290
Si Si2 0.276957 0.663088 0.990340
Si Si3 0.222209 0.053476 0.481602
Si Si4 0.214403 0.802110 0.112816
Si Si5 0.776552 0.878629 0.305693
Si Si6 0.720241 0.310381 0.902277
Si Si7 0.722705 0.492216 0.194608
O O1 0.500000 0.582060 0.129304
O O2 0.772190 0.561554 0.073556
O O3 0.782451 0.639684 0.126373
O O4 0.787200 0.540037 0.164267
O O5 0.500000 0.665972 0.991374
O O6 0.211067 0.687925 0.940992
O O7 0.223849 0.604056 0.990466
O O8 0.216149 0.686024 0.041752
O O9 0.000000 0.052512 0.483701
O O10 0.289244 0.000000 0.500000
O O11 0.287069 0.837159 0.155762
O O12 0.229728 0.742516 0.121248
O O13 0.000000 0.815104 0.109807
O O14 0.719689 0.870317 0.250000
O O15 0.722437 0.935632 0.320917
O O16 0.000000 0.877625 0.304812
O O17 0.500000 0.312780 0.904155
O O18 0.775327 0.497655 0.250000
O O19 0.500000 0.492463 0.192473
#
# Coordination Sequence:
#
# PCOD9468530 Si02
#       7
#    16  16  16  16  16  16  16
#     4   8  14  23  36  53  77 107 132 160 202 245
#     4   8  15  25  37  58  85 111 139 170 203 245
#     4   8  13  19  30  51  80 106 125 156 205 248
#     4  10  18  27  44  64  82 110 148 176 200 244
#     4   8  15  26  39  59  86 109 131 170 218 251
#     4   9  17  30  42  58  89 117 137 170 211 243
#     4   8  13  22  37  57  81 107 132 162 207 257
#
# _framework density 20.822018
#
# number of rings (size 3 to 8) (size 9 to 14) (size 15 to 20)
#    0.000    3.571    0.000    3.000    2.000    0.000 
#    0.000    0.714    0.000    1.286    0.000    1.000 
#    0.000    4.571    0.000    0.000    0.000    0.000 
#
# Total GULP energy -312226.902474 kJ/mol
# GULP energy per Si atom -5575.480401 kJ/mol
# Density = 2.077463 g / cm^3
# Si number density = 20.822018 Si / 1000 Ang^3
#
#
#
# Elastic Constant Matrix: (Units=GPa)
#
#
# Indices 1 2 3 4 5 6 
#
# 1 83.6396 -5.4238 2.7817 0.0000 0.0000 0.0000
# 2 -5.4238 197.5333 107.5213 0.0000 0.0000 0.0000
# 3 2.7817 107.5213 85.5946 0.0000 0.0000 0.0000
# 4 0.0000 0.0000 0.0000 37.8766 0.0000 0.0000
# 5 0.0000 0.0000 0.0000 0.0000 -16.8549 0.0000
# 6 0.0000 0.0000 0.0000 0.0000 0.0000 5.7234
#
#
#
# Elastic Compliance Matrix: (Units=1/GPa)
#
#
# Indices 1 2 3 4 5 6 
#
# 1 0.012154 0.001735 -0.002575 0.000000 0.000000 0.000000
# 2 0.001735 0.016256 -0.020476 0.000000 0.000000 0.000000
# 3 -0.002575 -0.020476 0.037489 0.000000 0.000000 0.000000
# 4 0.000000 0.000000 0.000000 0.026402 0.000000 0.000000
# 5 0.000000 0.000000 0.000000 0.000000 -0.059330 0.000000
# 6 0.000000 0.000000 0.000000 0.000000 0.000000 0.174721
#
#
# Mechanical properties :
#
#
# Convention : Reuss Voigt Hill
#
# Bulk Modulus (GPa) = 42.97990 64.05844 53.51917
# Shear Modulus (GPa) = 19.37395 22.80824 21.09110
#
# Velocity S-wave (km/s) = 3.05365 3.31326 3.18610
# Velocity P-wave (km/s) = 5.75494 6.74303 6.26849
#
# Compressibility (1/GPa) = 0.02326669
#
# Stress axis : x y z
#
# Youngs Moduli (GPa) = 82.27601 61.51639 26.67482
#
# Poissons Ratio (x) = -0.10674 0.06868
# Poissons Ratio (y) = -0.14276 0.54621
# Poissons Ratio (z) = 0.21183 1.25964
#
# Static dielectric constant tensor:
#      x y z
#    x 1.865040 0.000000 0.000000 
#    y 0.000000 1.741870 0.000000 
#    z 0.000000 0.000000 1.710780 
# 
# From -- ./inp_files/68625.got.cif
#   From: 2010.05.17/outbox.cif.g08.bks.cpg/sg63_35_cif.got.tgz:68625.got - 2010.06.03 15:47:04.
