data_PCOD9468533
_publ_section_title
;
Structure prediction by ZEFSAII (Michael W. Deem and Ramdas Pophale) SiO2 
 PCOD9468533
Probable space group: C M C M
;
_chemical_formula_sum "Si O2"
_cell_formula_units_Z 80
_cell_length_a 7.501926
_cell_length_b 27.684737
_cell_length_c 18.661937
_cell_angle_alpha 90.000000
_cell_angle_beta 90.000000
_cell_angle_gamma 90.000000
_cell_volume 3875.876203
_symmetry_space_group_name_H-M "C M C M"
_symmetry_group_IT_number 63
_symmetry_cell_setting 'orthorhombic'
loop_
_space_group_symop_operation_xyz
x,y,z
-x,-y,1/2+z
x,-y,-z
-x,y,1/2-z
-x,-y,-z
x,y,1/2-z
-x,y,z
x,-y,1/2+z
1/2+x,1/2+y,z
1/2-x,1/2-y,1/2+z
1/2+x,1/2-y,-z
1/2-x,1/2+y,1/2-z
1/2-x,1/2-y,-z
1/2+x,1/2+y,1/2-z
1/2-x,1/2+y,z
1/2+x,1/2-y,1/2+z
loop_
_atom_site_type_symbol
_atom_site_label
_atom_site_fract_x
_atom_site_fract_y
_atom_site_fract_z
Si Si1 0.783509 0.198474 0.165948
Si Si2 0.215223 0.001276 0.916916
Si Si3 0.717776 0.194717 0.833033
Si Si4 0.205265 0.102082 0.405588
Si Si5 0.290417 0.106209 0.570997
O O1 0.741445 0.194045 0.250000
O O2 0.724207 0.251865 0.141835
O O3 0.714802 0.151471 0.124669
O O4 0.000000 0.199188 0.159664
O O5 0.280988 0.950598 0.884268
O O6 0.000000 0.999560 0.916620
O O7 0.267012 0.054288 0.890443
O O8 0.275609 0.000000 0.000000
O O9 0.770935 0.188782 0.750000
O O10 0.500000 0.194104 0.833571
O O11 0.778637 0.150698 0.882230
O O12 0.206203 0.104003 0.492045
O O13 0.000000 0.101584 0.380773
O O14 0.500000 0.113322 0.559064
#
# Coordination Sequence:
#
# PCOD9468533 Si02
#       5
#    16  16  16  16  16
#     4   8  14  27  47  66  84 112 148 179 210 254
#     4   8  15  28  43  61  88 117 141 172 216 256
#     4   8  15  28  44  63  88 115 144 179 214 250
#     4   9  17  29  46  67  89 112 141 180 220 253
#     4  10  18  27  44  68  89 113 146 178 210 254
#
# _framework density 20.640492999999999
#
# number of rings (size 3 to 8) (size 9 to 14) (size 15 to 20)
#    0.000    3.400    0.000    3.000    0.000    4.400 
#    0.000    1.000    0.000    5.400    0.000    5.600 
#    0.000    0.000    0.000    0.000    0.000    0.000 
#
# Total GULP energy -222749.048676 kJ/mol
# GULP energy per Si atom -5568.726217 kJ/mol
# Density = 2.059351 g / cm^3
# Si number density = 20.640493 Si / 1000 Ang^3
#
#
#
# Elastic Constant Matrix: (Units=GPa)
#
#
# Indices 1 2 3 4 5 6 
#
# 1 55.2236 -0.0190 -7.4039 0.0000 0.0000 0.0000
# 2 -0.0190 258.4927 65.7121 0.0000 0.0000 0.0000
# 3 -7.4039 65.7121 23.8416 0.0000 0.0000 0.0000
# 4 0.0000 0.0000 0.0000 -108.4068 0.0000 0.0000
# 5 0.0000 0.0000 0.0000 0.0000 0.0045 0.0000
# 6 0.0000 0.0000 0.0000 0.0000 0.0000 9.8522
#
#
#
# Elastic Compliance Matrix: (Units=1/GPa)
#
#
# Indices 1 2 3 4 5 6 
#
# 1 0.021029 -0.005541 0.021803 0.000000 0.000000 0.000000
# 2 -0.005541 0.014384 -0.041365 0.000000 0.000000 0.000000
# 3 0.021803 -0.041365 0.162725 0.000000 0.000000 0.000000
# 4 0.000000 0.000000 0.000000 -0.009225 0.000000 0.000000
# 5 0.000000 0.000000 0.000000 0.000000221.832182 0.000000
# 6 0.000000 0.000000 0.000000 0.000000 0.000000 0.101500
#
#
# Mechanical properties :
#
#
# Convention : Reuss Voigt Hill
#
# Bulk Modulus (GPa) = 6.75991 50.45959 28.60975
# Shear Modulus (GPa) = 0.02250 -1.09210 -0.53480
#
# Velocity S-wave (km/s) = 0.10452 -0.72818 -0.50957
# Velocity P-wave (km/s) = 1.81570 4.87780 3.68033
#
# Compressibility (1/GPa) = 0.14793088
#
# Stress axis : x y z
#
# Youngs Moduli (GPa) = 47.55253 69.52305 6.14534
#
# Poissons Ratio (x) = 0.38522 -0.13398
# Poissons Ratio (y) = 0.26349 0.25420
# Poissons Ratio (z) = -1.03676 2.87583
#
# Static dielectric constant tensor:
#      x y z
#    x 1.785110 0.000000 0.000000 
#    y 0.000000 1.805700 0.000000 
#    z 0.000000 0.000000 1.684920 
# 
# From -- ./inp_files/40507.got.cif
#   From: 2010.05.17/outbox.cif.g08.bks.cpg/sg63_21_cif.got.tgz:40507.got - 2010.06.03 15:47:04.
