data_PCOD9468883
_publ_section_title
;
Structure prediction by ZEFSAII (Michael W. Deem and Ramdas Pophale) SiO2 
 PCOD9468883
Probable space group: C M C M
;
_chemical_formula_sum "Si O2"
_cell_formula_units_Z 96
_cell_length_a 8.218212
_cell_length_b 28.308983
_cell_length_c 23.759400
_cell_angle_alpha 90.000000
_cell_angle_beta 90.000000
_cell_angle_gamma 90.000000
_cell_volume 5527.605968
_symmetry_space_group_name_H-M "C M C M"
_symmetry_group_IT_number 63
_symmetry_cell_setting 'orthorhombic'
loop_
_space_group_symop_operation_xyz
x,y,z
-x,-y,1/2+z
x,-y,-z
-x,y,1/2-z
-x,-y,-z
x,y,1/2-z
-x,y,z
x,-y,1/2+z
1/2+x,1/2+y,z
1/2-x,1/2-y,1/2+z
1/2+x,1/2-y,-z
1/2-x,1/2+y,1/2-z
1/2-x,1/2-y,-z
1/2+x,1/2+y,1/2-z
1/2-x,1/2+y,z
1/2+x,1/2-y,1/2+z
loop_
_atom_site_type_symbol
_atom_site_label
_atom_site_fract_x
_atom_site_fract_y
_atom_site_fract_z
Si Si1 0.301374 0.393269 0.953123
Si Si2 0.194092 0.198720 0.980795
Si Si3 0.199079 0.620052 0.750000
Si Si4 0.805422 0.353385 0.371932
Si Si5 0.803050 0.964557 0.866147
Si Si6 0.195931 0.053714 0.936422
Si Si7 0.193696 0.490146 0.250000
O O1 0.500000 0.391702 0.952681
O O2 0.249847 0.414573 0.893127
O O3 0.244751 0.342575 0.976524
O O4 0.252000 0.430852 0.001401
O O5 0.245478 0.184775 0.917366
O O6 0.000000 0.197020 0.982389
O O7 0.250000 0.250000 0.000000
O O8 0.250975 0.646509 0.807116
O O9 0.254174 0.564751 0.750000
O O10 0.000000 0.618972 0.750000
O O11 0.748296 0.403644 0.396304
O O12 0.000000 0.351635 0.372018
O O13 0.747119 0.981194 0.805153
O O14 0.000000 0.964593 0.865511
O O15 0.746141 0.005274 0.909431
O O16 0.000000 0.051414 0.938162
O O17 0.000000 0.486899 0.250000
#
# Coordination Sequence:
#
# PCOD9468883 Si02
#       7
#    16  16   8  16  16  16   8
#     4   8  16  30  49  72  98 125 159 203 249 294
#     4  10  20  36  56  79 101 127 162 211 267 317
#     4   9  18  31  47  68 103 142 171 198 241 292
#     4  10  18  31  50  73 102 138 171 205 247 299
#     4  10  18  30  48  70  96 133 175 206 236 287
#     4   9  16  27  45  71 100 130 163 202 245 289
#     4  11  21  33  45  66 103 144 175 208 247 286
#
# _framework density 17.367374000000002
#
# number of rings (size 3 to 8) (size 9 to 14) (size 15 to 20)
#    0.000    2.500    1.667    2.750    0.000    2.000 
#    0.000    5.833    0.000    6.000    0.000    3.500 
#    0.000    0.000    0.000    0.000    0.000    0.000 
#
# Total GULP energy -267393.297613 kJ/mol
# GULP energy per Si atom -5570.693700 kJ/mol
# Density = 1.732785 g / cm^3
# Si number density = 17.367374 Si / 1000 Ang^3
#
#
#
# Elastic Constant Matrix: (Units=GPa)
#
#
# Indices 1 2 3 4 5 6 
#
# 1 35.1199 26.6842 19.0006 0.0000 0.0000 0.0000
# 2 26.6842 116.8356 99.2479 0.0000 0.0000 0.0000
# 3 19.0006 99.2479 131.1727 0.0000 0.0000 0.0000
# 4 0.0000 0.0000 0.0000 17.4744 0.0000 0.0000
# 5 0.0000 0.0000 0.0000 0.0000 13.9953 0.0000
# 6 0.0000 0.0000 0.0000 0.0000 0.0000 17.2351
#
#
#
# Elastic Compliance Matrix: (Units=1/GPa)
#
#
# Indices 1 2 3 4 5 6 
#
# 1 0.034796 -0.010260 0.002723 0.000000 0.000000 0.000000
# 2 -0.010260 0.026981 -0.018929 0.000000 0.000000 0.000000
# 3 0.002723 -0.018929 0.021551 0.000000 0.000000 0.000000
# 4 0.000000 0.000000 0.000000 0.057226 0.000000 0.000000
# 5 0.000000 0.000000 0.000000 0.000000 0.071453 0.000000
# 6 0.000000 0.000000 0.000000 0.000000 0.000000 0.058021
#
#
# Mechanical properties :
#
#
# Convention : Reuss Voigt Hill
#
# Bulk Modulus (GPa) = 32.89800 63.66595 48.28198
# Shear Modulus (GPa) = 15.01081 18.95399 16.98240
#
# Velocity S-wave (km/s) = 2.94311 3.30715 3.13043
# Velocity P-wave (km/s) = 5.52564 7.16386 6.39741
#
# Compressibility (1/GPa) = 0.03039698
#
# Stress axis : x y z
#
# Youngs Moduli (GPa) = 28.73853 37.06250 46.40182
#
# Poissons Ratio (x) = 0.38026 -0.12633
# Poissons Ratio (y) = 0.29485 0.87832
# Poissons Ratio (z) = -0.07824 0.70154
#
# Static dielectric constant tensor:
#      x y z
#    x 1.611350 0.000000 0.000000 
#    y 0.000000 1.585410 0.000000 
#    z 0.000000 0.000000 1.616410 
# 
# From -- ./inp_files/60309.got.cif
#   From: 2010.05.17/outbox.cif.g08.bks.cpg/sg63_31_cif.got.tgz:60309.got - 2010.06.03 15:47:04.
