data_PCOD9468084
_publ_section_title
;
Structure prediction by ZEFSAII (Michael W. Deem and Ramdas Pophale) SiO2 
 PCOD9468084
Probable space group: C M C M
;
_chemical_formula_sum "Si O2"
_cell_formula_units_Z 88
_cell_length_a 24.982361
_cell_length_b 7.079381
_cell_length_c 21.510516
_cell_angle_alpha 90.000000
_cell_angle_beta 90.000000
_cell_angle_gamma 90.000000
_cell_volume 3804.342370
_symmetry_space_group_name_H-M "C M C M"
_symmetry_group_IT_number 63
_symmetry_cell_setting 'orthorhombic'
loop_
_space_group_symop_operation_xyz
x,y,z
-x,-y,1/2+z
x,-y,-z
-x,y,1/2-z
-x,-y,-z
x,y,1/2-z
-x,y,z
x,-y,1/2+z
1/2+x,1/2+y,z
1/2-x,1/2-y,1/2+z
1/2+x,1/2-y,-z
1/2-x,1/2+y,1/2-z
1/2-x,1/2-y,-z
1/2+x,1/2+y,1/2-z
1/2-x,1/2+y,z
1/2+x,1/2-y,1/2+z
loop_
_atom_site_type_symbol
_atom_site_label
_atom_site_fract_x
_atom_site_fract_y
_atom_site_fract_z
Si Si1 0.321521 0.189562 0.750000
Si Si2 0.618060 0.313436 0.145764
Si Si3 0.615495 0.772775 0.128903
Si Si4 0.000000 0.781136 0.482831
Si Si5 0.196352 0.133213 0.750000
Si Si6 0.382875 0.728728 0.503966
Si Si7 0.500000 0.221981 0.677740
Si Si8 0.500000 0.674316 0.836448
O O1 0.351457 0.141340 0.686062
O O2 0.259881 0.132673 0.750000
O O3 0.321593 0.416798 0.750000
O O4 0.613949 0.542367 0.135646
O O5 0.668360 0.277893 0.189842
O O6 0.560989 0.259926 0.178277
O O7 0.627407 0.229412 0.076575
O O8 0.641501 0.805511 0.060537
O O9 0.554044 0.833801 0.141868
O O10 0.055747 0.708571 0.506375
O O11 0.000000 0.784059 0.409356
O O12 0.000000 0.000000 0.500000
O O13 0.378727 0.500000 0.500000
O O14 0.500000 0.158059 0.750000
O O15 0.500000 0.451567 0.678792
#
# Coordination Sequence:
#
# PCOD9468084 Si02
#       8
#     8  16  16   8   8  16   8   8
#     4  10  20  33  45  63  83 118 147 184 216 252
#     4   8  15  24  39  62  85 112 138 173 217 260
#     4   9  15  24  38  60  88 112 141 173 214 260
#     4   8  10  16  26  49  81 114 132 149 202 263
#     4  10  20  33  47  61  87 112 151 182 218 256
#     4   8  12  20  34  54  83 113 137 165 208 261
#     4  10  14  18  32  59  89 113 137 169 214 262
#     4   8  14  18  32  57  87 108 132 167 211 258
#
# _framework density 23.131461000000002
#
# number of rings (size 3 to 8) (size 9 to 14) (size 15 to 20)
#    0.000    3.273    0.909    3.818    3.818    0.000 
#    0.000    0.909    0.000    0.000    0.000    2.545 
#    0.000    0.000    0.000    8.364    0.000    5.455 
#
# Total GULP energy -245126.950826 kJ/mol
# GULP energy per Si atom -5571.067064 kJ/mol
# Density = 2.307881 g / cm^3
# Si number density = 23.131461 Si / 1000 Ang^3
#
#
#
# Elastic Constant Matrix: (Units=GPa)
#
#
# Indices 1 2 3 4 5 6 
#
# 1 121.0040 -20.7549 64.3488 0.0000 0.0000 0.0000
# 2 -20.7549 86.3403 -33.4099 0.0000 0.0000 0.0000
# 3 64.3488 -33.4099 183.8850 0.0000 0.0000 0.0000
# 4 0.0000 0.0000 0.0000 -10.4083 0.0000 0.0000
# 5 0.0000 0.0000 0.0000 0.0000 82.4294 0.0000
# 6 0.0000 0.0000 0.0000 0.0000 0.0000 -42.8602
#
#
#
# Elastic Compliance Matrix: (Units=1/GPa)
#
#
# Indices 1 2 3 4 5 6 
#
# 1 0.010260 0.001159 -0.003380 0.000000 0.000000 0.000000
# 2 0.001159 0.012589 0.001882 0.000000 0.000000 0.000000
# 3 -0.003380 0.001882 0.006963 0.000000 0.000000 0.000000
# 4 0.000000 0.000000 0.000000 -0.096077 0.000000 0.000000
# 5 0.000000 0.000000 0.000000 0.000000 0.012132 0.000000
# 6 0.000000 0.000000 0.000000 0.000000 0.000000 -0.023332
#
#
# Mechanical properties :
#
#
# Convention : Reuss Voigt Hill
#
# Bulk Modulus (GPa) = 34.32573 45.73300 40.02937
# Shear Modulus (GPa) = -74.54334 31.23520 -21.65407
#
# Velocity S-wave (km/s) = -5.68295 3.67868 -3.06294
# Velocity P-wave (km/s) = 5.30939 6.15283 2.19861
#
# Compressibility (1/GPa) = 0.02913267
#
# Stress axis : x y z
#
# Youngs Moduli (GPa) = 97.46238 79.43596 143.61837
#
# Poissons Ratio (x) = -0.09203 0.48543
# Poissons Ratio (y) = -0.11291 -0.27026
# Poissons Ratio (z) = 0.32943 -0.14948
#
# Static dielectric constant tensor:
#      x y z
#    x 1.840210 0.000000 0.000000 
#    y 0.000000 1.982560 0.000000 
#    z 0.000000 0.000000 1.897430 
# 
# From -- ./inp_files/64495.got.cif
#   From: 2010.05.17/outbox.cif.g08.bks.cpg/sg63_33_cif.got.tgz:64495.got - 2010.06.03 15:47:04.
