data_PCOD9468290
_publ_section_title
;
Structure prediction by ZEFSAII (Michael W. Deem and Ramdas Pophale) SiO2 
 PCOD9468290
Probable space group: C M C M
;
_chemical_formula_sum "Si O2"
_cell_formula_units_Z 96
_cell_length_a 8.131308
_cell_length_b 24.869994
_cell_length_c 26.854092
_cell_angle_alpha 90.000000
_cell_angle_beta 90.000000
_cell_angle_gamma 90.000000
_cell_volume 5430.584362
_symmetry_space_group_name_H-M "C M C M"
_symmetry_group_IT_number 63
_symmetry_cell_setting 'orthorhombic'
loop_
_space_group_symop_operation_xyz
x,y,z
-x,-y,1/2+z
x,-y,-z
-x,y,1/2-z
-x,-y,-z
x,y,1/2-z
-x,y,z
x,-y,1/2+z
1/2+x,1/2+y,z
1/2-x,1/2-y,1/2+z
1/2+x,1/2-y,-z
1/2-x,1/2+y,1/2-z
1/2-x,1/2-y,-z
1/2+x,1/2+y,1/2-z
1/2-x,1/2+y,z
1/2+x,1/2-y,1/2+z
loop_
_atom_site_type_symbol
_atom_site_label
_atom_site_fract_x
_atom_site_fract_y
_atom_site_fract_z
Si Si1 0.698574 0.322373 0.964911
Si Si2 0.298540 0.482760 0.443749
Si Si3 0.803290 0.914911 0.885250
Si Si4 0.304279 0.759004 0.383710
Si Si5 0.695501 0.169718 0.306381
Si Si6 0.197777 0.139133 0.570601
O O1 0.500000 0.316284 0.968400
O O2 0.728978 0.374895 0.931464
O O3 0.764389 0.272767 0.932520
O O4 0.763803 0.333626 0.019698
O O5 0.249015 0.500000 0.500000
O O6 0.500000 0.483564 0.444205
O O7 0.243770 0.526927 0.403308
O O8 0.245231 0.422585 0.429478
O O9 0.735155 0.884512 0.837083
O O10 0.000000 0.917519 0.878932
O O11 0.500000 0.760195 0.387453
O O12 0.261181 0.720783 0.337443
O O13 0.242328 0.819976 0.385393
O O14 0.760295 0.168027 0.250000
O O15 0.500000 0.175113 0.304709
O O16 0.000000 0.136993 0.567419
#
# Coordination Sequence:
#
# PCOD9468290 Si02
#       6
#    16  16  16  16  16  16
#     4   8  14  25  43  67  96 131 165 198 233 278
#     4   9  15  26  48  74 103 139 175 204 233 279
#     4   9  16  29  50  77 103 129 166 206 243 286
#     4  10  20  32  47  71 100 128 163 205 250 297
#     4  10  21  37  56  75  94 120 158 208 263 310
#     4  10  17  27  46  70 101 140 173 198 234 281
#
# _framework density 17.677655000000001
#
# number of rings (size 3 to 8) (size 9 to 14) (size 15 to 20)
#    0.000    2.667    1.667    2.500    0.000    1.333 
#    0.000    4.167    0.000    2.000    0.000    2.333 
#    0.000    0.000    0.000    0.000    0.000    0.000 
#
# Total GULP energy -267439.328722 kJ/mol
# GULP energy per Si atom -5571.652682 kJ/mol
# Density = 1.763742 g / cm^3
# Si number density = 17.677655 Si / 1000 Ang^3
#
#
#
# Elastic Constant Matrix: (Units=GPa)
#
#
# Indices 1 2 3 4 5 6 
#
# 1 13.5753 19.3318 6.5693 0.0000 0.0000 0.0000
# 2 19.3318 158.1954 69.8198 0.0000 0.0000 0.0000
# 3 6.5693 69.8198 83.2420 0.0000 0.0000 0.0000
# 4 0.0000 0.0000 0.0000 7.9948 0.0000 0.0000
# 5 0.0000 0.0000 0.0000 0.0000 -6.7802 0.0000
# 6 0.0000 0.0000 0.0000 0.0000 0.0000 18.8380
#
#
#
# Elastic Compliance Matrix: (Units=1/GPa)
#
#
# Indices 1 2 3 4 5 6 
#
# 1 0.089771 -0.012454 0.003361 0.000000 0.000000 0.000000
# 2 -0.012454 0.011764 -0.008885 0.000000 0.000000 0.000000
# 3 0.003361 -0.008885 0.019200 0.000000 0.000000 0.000000
# 4 0.000000 0.000000 0.000000 0.125081 0.000000 0.000000
# 5 0.000000 0.000000 0.000000 0.000000 -0.147487 0.000000
# 6 0.000000 0.000000 0.000000 0.000000 0.000000 0.053084
#
#
# Mechanical properties :
#
#
# Convention : Reuss Voigt Hill
#
# Bulk Modulus (GPa) = 11.79507 49.60605 30.70056
# Shear Modulus (GPa) = 23.18805 14.62997 18.90901
#
# Velocity S-wave (km/s) = 3.62569 2.87992 3.27411
# Velocity P-wave (km/s) = 4.92080 6.25947 5.63006
#
# Compressibility (1/GPa) = 0.08478120
#
# Stress axis : x y z
#
# Youngs Moduli (GPa) = 11.13941 85.00202 52.08330
#
# Poissons Ratio (x) = 1.05858 -0.17505
# Poissons Ratio (y) = 0.13873 0.46274
# Poissons Ratio (z) = -0.03744 0.75522
#
# Static dielectric constant tensor:
#      x y z
#    x 1.626160 0.000000 0.000000 
#    y 0.000000 1.639470 0.000000 
#    z 0.000000 0.000000 1.601520 
# 
# From -- ./inp_files/67196.got.cif
#   From: 2010.05.17/outbox.cif.g08.bks.cpg/sg63_34_cif.got.tgz:67196.got - 2010.06.03 15:47:04.
