data_PCOD9468524
_publ_section_title
;
Structure prediction by ZEFSAII (Michael W. Deem and Ramdas Pophale) SiO2 
 PCOD9468524
Probable space group: C M C M
;
_chemical_formula_sum "Si O2"
_cell_formula_units_Z 80
_cell_length_a 14.889573
_cell_length_b 23.882479
_cell_length_c 14.186394
_cell_angle_alpha 90.000000
_cell_angle_beta 90.000000
_cell_angle_gamma 90.000000
_cell_volume 5044.680493
_symmetry_space_group_name_H-M "C M C M"
_symmetry_group_IT_number 63
_symmetry_cell_setting 'orthorhombic'
loop_
_space_group_symop_operation_xyz
x,y,z
-x,-y,1/2+z
x,-y,-z
-x,y,1/2-z
-x,-y,-z
x,y,1/2-z
-x,y,z
x,-y,1/2+z
1/2+x,1/2+y,z
1/2-x,1/2-y,1/2+z
1/2+x,1/2-y,-z
1/2-x,1/2+y,1/2-z
1/2-x,1/2-y,-z
1/2+x,1/2+y,1/2-z
1/2-x,1/2+y,z
1/2+x,1/2-y,1/2+z
loop_
_atom_site_type_symbol
_atom_site_label
_atom_site_fract_x
_atom_site_fract_y
_atom_site_fract_z
Si Si1 0.212039 0.142846 0.138465
Si Si2 0.608952 0.591278 0.642099
Si Si3 0.897951 0.691813 0.361016
Si Si4 0.606412 0.303047 0.016352
Si Si5 0.602880 0.532477 0.135051
O O1 0.196395 0.150233 0.250000
O O2 0.318439 0.147882 0.121727
O O3 0.167114 0.083787 0.110914
O O4 0.162549 0.190777 0.078773
O O5 0.640472 0.597240 0.750000
O O6 0.500000 0.590986 0.644803
O O7 0.635643 0.644435 0.581032
O O8 0.633126 0.529519 0.604457
O O9 0.893077 0.708085 0.250000
O O10 0.881888 0.746035 0.425719
O O11 0.000000 0.671771 0.377990
O O12 0.500000 0.309024 0.996532
O O13 0.599631 0.529499 0.250000
O O14 0.500000 0.543280 0.102773
#
# Coordination Sequence:
#
# PCOD9468524 Si02
#       5
#    16  16  16  16  16
#     4  10  19  29  41  59  86 115 139 165 200 244
#     4   8  14  25  41  62  88 114 137 163 197 239
#     4   9  18  32  47  61  78 103 140 183 214 234
#     4  10  18  27  43  65  87 111 136 163 201 249
#     4   8  14  25  40  60  88 115 135 159 194 241
#
# _framework density 15.858288999999999
#
# number of rings (size 3 to 8) (size 9 to 14) (size 15 to 20)
#    0.000    3.000    0.000    3.000    0.000    4.400 
#    0.000    3.000    0.000    0.000    0.000    2.800 
#    0.000    1.600    0.000    2.000    0.000    0.000 
#
# Total GULP energy -222848.675201 kJ/mol
# GULP energy per Si atom -5571.216880 kJ/mol
# Density = 1.582219 g / cm^3
# Si number density = 15.858289 Si / 1000 Ang^3
#
#
#
# Elastic Constant Matrix: (Units=GPa)
#
#
# Indices 1 2 3 4 5 6 
#
# 1 78.6114 46.7402 28.7072 0.0000 0.0000 0.0000
# 2 46.7402 57.5549 19.0270 0.0000 0.0000 0.0000
# 3 28.7072 19.0270 45.2388 0.0000 0.0000 0.0000
# 4 0.0000 0.0000 0.0000 16.7697 0.0000 0.0000
# 5 0.0000 0.0000 0.0000 0.0000 15.7861 0.0000
# 6 0.0000 0.0000 0.0000 0.0000 0.0000 8.3972
#
#
#
# Elastic Compliance Matrix: (Units=1/GPa)
#
#
# Indices 1 2 3 4 5 6 
#
# 1 0.027668 -0.019356 -0.009416 0.000000 0.000000 0.000000
# 2 -0.019356 0.033722 -0.001900 0.000000 0.000000 0.000000
# 3 -0.009416 -0.001900 0.028879 0.000000 0.000000 0.000000
# 4 0.000000 0.000000 0.000000 0.059631 0.000000 0.000000
# 5 0.000000 0.000000 0.000000 0.000000 0.063347 0.000000
# 6 0.000000 0.000000 0.000000 0.000000 0.000000 0.119087
#
#
# Mechanical properties :
#
#
# Convention : Reuss Voigt Hill
#
# Bulk Modulus (GPa) = 34.57340 41.15043 37.86191
# Shear Modulus (GPa) = 12.39703 13.98598 13.19150
#
# Velocity S-wave (km/s) = 2.79899 2.97296 2.88729
# Velocity P-wave (km/s) = 5.68283 6.14734 5.91965
#
# Compressibility (1/GPa) = 0.02892397
#
# Stress axis : x y z
#
# Youngs Moduli (GPa) = 36.14260 29.65406 34.62668
#
# Poissons Ratio (x) = 0.57399 0.32605
# Poissons Ratio (y) = 0.69959 0.06580
# Poissons Ratio (z) = 0.34033 0.05635
#
# Static dielectric constant tensor:
#      x y z
#    x 1.516920 0.000000 0.000000 
#    y 0.000000 1.532390 0.000000 
#    z 0.000000 0.000000 1.576920 
# 
# From -- ./inp_files/29724.got.cif
#   From: 2010.05.17/outbox.cif.g08.bks.cpg/sg63_15_cif.got.tgz:29724.got - 2010.06.03 15:47:04.
