data_PCOD9468355
_publ_section_title
;
Structure prediction by ZEFSAII (Michael W. Deem and Ramdas Pophale) SiO2 
 PCOD9468355
Probable space group: C M C M
;
_chemical_formula_sum "Si O2"
_cell_formula_units_Z 80
_cell_length_a 20.112375
_cell_length_b 17.346411
_cell_length_c 13.998558
_cell_angle_alpha 90.000000
_cell_angle_beta 90.000000
_cell_angle_gamma 90.000000
_cell_volume 4883.782240
_symmetry_space_group_name_H-M "C M C M"
_symmetry_group_IT_number 63
_symmetry_cell_setting 'orthorhombic'
loop_
_space_group_symop_operation_xyz
x,y,z
-x,-y,1/2+z
x,-y,-z
-x,y,1/2-z
-x,-y,-z
x,y,1/2-z
-x,y,z
x,-y,1/2+z
1/2+x,1/2+y,z
1/2-x,1/2-y,1/2+z
1/2+x,1/2-y,-z
1/2-x,1/2+y,1/2-z
1/2-x,1/2-y,-z
1/2+x,1/2+y,1/2-z
1/2-x,1/2+y,z
1/2+x,1/2-y,1/2+z
loop_
_atom_site_type_symbol
_atom_site_label
_atom_site_fract_x
_atom_site_fract_y
_atom_site_fract_z
Si Si1 0.376758 0.303945 0.359503
Si Si2 0.571806 0.590935 0.479018
Si Si3 0.258120 0.095346 0.641944
Si Si4 0.704198 0.574719 0.137802
Si Si5 0.198644 0.683181 0.468497
O O1 0.398946 0.292207 0.250000
O O2 0.420965 0.360578 0.423671
O O3 0.305370 0.347686 0.354478
O O4 0.363174 0.225916 0.419394
O O5 0.571582 0.500000 0.500000
O O6 0.500000 0.610174 0.433841
O O7 0.638142 0.602304 0.417061
O O8 0.285296 0.089777 0.750000
O O9 0.307805 0.129605 0.562637
O O10 0.227715 0.012277 0.613509
O O11 0.690892 0.575688 0.250000
O O12 0.763467 0.631342 0.109034
O O13 0.250000 0.750000 0.500000
#
# Coordination Sequence:
#
# PCOD9468355 Si02
#       5
#    16  16  16  16  16
#     4  10  19  32  46  67  91 121 157 196 240 284
#     4  11  21  33  47  64  90 129 170 200 226 265
#     4   9  17  28  46  67  93 121 151 189 235 280
#     4  11  19  31  47  68  96 127 159 196 235 277
#     4  10  17  29  47  66  92 121 155 192 240 289
#
# _framework density 16.380747
#
# number of rings (size 3 to 8) (size 9 to 14) (size 15 to 20)
#    0.000    1.800    6.000    1.200    0.000    1.600 
#    0.000    2.000    0.000    0.000    0.000    0.000 
#    0.000    3.200    0.000    4.800    0.800    0.400 
#
# Total GULP energy -222715.767432 kJ/mol
# GULP energy per Si atom -5567.894186 kJ/mol
# Density = 1.634346 g / cm^3
# Si number density = 16.380747 Si / 1000 Ang^3
#
#
#
# Elastic Constant Matrix: (Units=GPa)
#
#
# Indices 1 2 3 4 5 6 
#
# 1 37.2491 27.5899 28.5998 0.0000 0.0000 0.0000
# 2 27.5899 58.8346 40.9472 0.0000 0.0000 0.0000
# 3 28.5998 40.9472 118.7489 0.0000 0.0000 0.0000
# 4 0.0000 0.0000 0.0000 28.9457 0.0000 0.0000
# 5 0.0000 0.0000 0.0000 0.0000 7.8852 0.0000
# 6 0.0000 0.0000 0.0000 0.0000 0.0000 -37.6229
#
#
#
# Elastic Compliance Matrix: (Units=1/GPa)
#
#
# Indices 1 2 3 4 5 6 
#
# 1 0.042859 -0.016992 -0.004463 0.000000 0.000000 0.000000
# 2 -0.016992 0.029101 -0.005942 0.000000 0.000000 0.000000
# 3 -0.004463 -0.005942 0.011545 0.000000 0.000000 0.000000
# 4 0.000000 0.000000 0.000000 0.034547 0.000000 0.000000
# 5 0.000000 0.000000 0.000000 0.000000 0.126821 0.000000
# 6 0.000000 0.000000 0.000000 0.000000 0.000000 -0.026580
#
#
# Mechanical properties :
#
#
# Convention : Reuss Voigt Hill
#
# Bulk Modulus (GPa) = 34.83104 45.45626 40.14365
# Shear Modulus (GPa) = 17.68928 7.68797 12.68862
#
# Velocity S-wave (km/s) = 3.28972 2.16875 2.78619
# Velocity P-wave (km/s) = 5.97823 5.83792 5.90849
#
# Compressibility (1/GPa) = 0.02871003
#
# Stress axis : x y z
#
# Youngs Moduli (GPa) = 23.33247 34.36354 86.61774
#
# Poissons Ratio (x) = 0.58391 0.38657
# Poissons Ratio (y) = 0.39647 0.51469
# Poissons Ratio (z) = 0.10413 0.20419
#
# Static dielectric constant tensor:
#      x y z
#    x 1.520620 0.000000 0.000000 
#    y 0.000000 1.569130 0.000000 
#    z 0.000000 0.000000 1.598230 
# 
# From -- ./inp_files/33854.got.cif
#   From: 2010.05.17/outbox.cif.g08.bks.cpg/sg63_17_cif.got.tgz:33854.got - 2010.06.03 15:47:04.
