data_PCOD9468189
_publ_section_title
;
Structure prediction by ZEFSAII (Michael W. Deem and Ramdas Pophale) SiO2 
 PCOD9468189
Probable space group: C M C M
;
_chemical_formula_sum "Si O2"
_cell_formula_units_Z 80
_cell_length_a 22.978958
_cell_length_b 9.164545
_cell_length_c 22.191658
_cell_angle_alpha 90.000000
_cell_angle_beta 90.000000
_cell_angle_gamma 90.000000
_cell_volume 4673.378865
_symmetry_space_group_name_H-M "C M C M"
_symmetry_group_IT_number 63
_symmetry_cell_setting 'orthorhombic'
loop_
_space_group_symop_operation_xyz
x,y,z
-x,-y,1/2+z
x,-y,-z
-x,y,1/2-z
-x,-y,-z
x,y,1/2-z
-x,y,z
x,-y,1/2+z
1/2+x,1/2+y,z
1/2-x,1/2-y,1/2+z
1/2+x,1/2-y,-z
1/2-x,1/2+y,1/2-z
1/2-x,1/2-y,-z
1/2+x,1/2+y,1/2-z
1/2-x,1/2+y,z
1/2+x,1/2-y,1/2+z
loop_
_atom_site_type_symbol
_atom_site_label
_atom_site_fract_x
_atom_site_fract_y
_atom_site_fract_z
Si Si1 0.063587 0.781894 0.930960
Si Si2 0.594970 0.000000 0.500000
Si Si3 0.147464 0.000000 0.500000
Si Si4 0.431834 0.909537 0.320869
Si Si5 0.671232 0.952021 0.609517
Si Si6 0.237391 0.187319 0.932441
O O1 0.062068 0.625684 0.964783
O O2 0.076945 0.733794 0.862509
O O3 0.000000 0.851478 0.933111
O O4 0.108913 0.880996 0.965654
O O5 0.635569 0.921887 0.548501
O O6 0.187295 0.071807 0.551535
O O7 0.427279 0.881922 0.250000
O O8 0.500000 0.957574 0.332428
O O9 0.379426 0.017496 0.341653
O O10 0.714713 0.814683 0.611866
O O11 0.708564 0.098215 0.595475
O O12 0.250000 0.250000 0.000000
#
# Coordination Sequence:
#
# PCOD9468189 Si02
#       6
#    16   8   8  16  16  16
#     4  10  20  32  52  84 115 145 185 235 286 340
#     4  10  16  30  50  78 110 138 184 222 276 332
#     4  12  20  32  52  84 121 156 175 228 292 348
#     4   9  20  40  62  80 105 148 198 240 279 329
#     4  11  20  32  55  82 108 145 184 225 270 333
#     4  12  19  32  51  80 117 148 180 212 278 345
#
# _framework density 17.118234999999999
#
# number of rings (size 3 to 8) (size 9 to 14) (size 15 to 20)
#    0.000    1.400    6.000    1.800    0.000    0.800 
#    0.000    1.000    0.000    1.200    0.000    2.800 
#    0.000    0.000    0.000    0.000    0.000    0.000 
#
# Total GULP energy -222680.303194 kJ/mol
# GULP energy per Si atom -5567.007580 kJ/mol
# Density = 1.707927 g / cm^3
# Si number density = 17.118235 Si / 1000 Ang^3
#
#
#
# Elastic Constant Matrix: (Units=GPa)
#
#
# Indices 1 2 3 4 5 6 
#
# 1 107.8734 43.0442 43.2006 0.0000 0.0000 0.0000
# 2 43.0442 69.0632 26.4606 0.0000 0.0000 0.0000
# 3 43.2006 26.4606 93.0784 0.0000 0.0000 0.0000
# 4 0.0000 0.0000 0.0000 13.6651 0.0000 0.0000
# 5 0.0000 0.0000 0.0000 0.0000 24.0017 0.0000
# 6 0.0000 0.0000 0.0000 0.0000 0.0000 4.1082
#
#
#
# Elastic Compliance Matrix: (Units=1/GPa)
#
#
# Indices 1 2 3 4 5 6 
#
# 1 0.013804 -0.006900 -0.004445 0.000000 0.000000 0.000000
# 2 -0.006900 0.019699 -0.002397 0.000000 0.000000 0.000000
# 3 -0.004445 -0.002397 0.013488 0.000000 0.000000 0.000000
# 4 0.000000 0.000000 0.000000 0.073179 0.000000 0.000000
# 5 0.000000 0.000000 0.000000 0.000000 0.041664 0.000000
# 6 0.000000 0.000000 0.000000 0.000000 0.000000 0.243415
#
#
# Mechanical properties :
#
#
# Convention : Reuss Voigt Hill
#
# Bulk Modulus (GPa) = 51.26834 55.04730 53.15782
# Shear Modulus (GPa) = 11.38343 18.84232 15.11288
#
# Velocity S-wave (km/s) = 2.58153 3.32130 2.97451
# Velocity P-wave (km/s) = 6.23701 6.85091 6.55116
#
# Compressibility (1/GPa) = 0.01950521
#
# Stress axis : x y z
#
# Youngs Moduli (GPa) = 72.44483 50.76508 74.13841
#
# Poissons Ratio (x) = 0.35029 0.32955
# Poissons Ratio (y) = 0.49988 0.17774
# Poissons Ratio (z) = 0.32202 0.12170
#
# Static dielectric constant tensor:
#      x y z
#    x 1.663120 0.000000 0.000000 
#    y 0.000000 1.611230 0.000000 
#    z 0.000000 0.000000 1.556670 
# 
# From -- ./inp_files/58001.got.cif
#   From: 2010.05.17/outbox.cif.g08.bks.cpg/sg63_30_cif.got.tgz:58001.got - 2010.06.03 15:47:04.
