data_PCOD9468186
_publ_section_title
;
Structure prediction by ZEFSAII (Michael W. Deem and Ramdas Pophale) SiO2 
 PCOD9468186
Probable space group: C M C M
;
_chemical_formula_sum "Si O2"
_cell_formula_units_Z 104
_cell_length_a 11.981708
_cell_length_b 25.020871
_cell_length_c 18.745008
_cell_angle_alpha 90.000000
_cell_angle_beta 90.000000
_cell_angle_gamma 90.000000
_cell_volume 5619.617876
_symmetry_space_group_name_H-M "C M C M"
_symmetry_group_IT_number 63
_symmetry_cell_setting 'orthorhombic'
loop_
_space_group_symop_operation_xyz
x,y,z
-x,-y,1/2+z
x,-y,-z
-x,y,1/2-z
-x,-y,-z
x,y,1/2-z
-x,y,z
x,-y,1/2+z
1/2+x,1/2+y,z
1/2-x,1/2-y,1/2+z
1/2+x,1/2-y,-z
1/2-x,1/2+y,1/2-z
1/2-x,1/2-y,-z
1/2+x,1/2+y,1/2-z
1/2-x,1/2+y,z
1/2+x,1/2-y,1/2+z
loop_
_atom_site_type_symbol
_atom_site_label
_atom_site_fract_x
_atom_site_fract_y
_atom_site_fract_z
Si Si1 0.000000 0.960624 0.121302
Si Si2 0.000000 0.869804 0.012315
Si Si3 0.256041 0.446748 0.330597
Si Si4 0.869599 0.760594 0.166903
Si Si5 0.260267 0.654218 0.924695
Si Si6 0.746947 0.072359 0.329791
Si Si7 0.369815 0.156255 0.431700
Si Si8 0.500000 0.582757 0.365234
O O1 0.109285 0.946062 0.165627
O O2 0.000000 0.927972 0.048726
O O3 0.000000 0.022705 0.104232
O O4 0.883826 0.846234 0.039549
O O5 0.000000 0.874326 0.927867
O O6 0.218961 0.433669 0.250000
O O7 0.225051 0.402424 0.389222
O O8 0.227737 0.509081 0.344955
O O9 0.851449 0.748178 0.250000
O O10 0.780886 0.803783 0.138669
O O11 0.858319 0.708559 0.117688
O O12 0.000000 0.779473 0.160928
O O13 0.178301 0.667103 0.989600
O O14 0.701603 0.083678 0.250000
O O15 0.694640 0.108535 0.391383
O O16 0.880121 0.084293 0.327406
O O17 0.500000 0.142758 0.436291
#
# Coordination Sequence:
#
# PCOD9468186 Si02
#       8
#     8   8  16  16  16  16  16   8
#     4   8  16  24  45  77 117 149 173 215 274 347
#     4  10  17  28  50  84 114 142 172 216 291 342
#     4   9  18  31  52  83 115 148 182 227 287 344
#     4  10  21  38  62  89 112 140 182 234 289 342
#     4  11  20  36  58  87 116 143 179 234 288 345
#     4  10  20  35  55  80 114 151 189 232 281 336
#     4  11  24  40  58  80 111 156 200 238 269 314
#     4  10  16  30  49  79 115 145 179 220 280 345
#
# _framework density 18.506596999999999
#
# number of rings (size 3 to 8) (size 9 to 14) (size 15 to 20)
#    0.000    2.000    2.308    2.077    0.000    3.385 
#    0.000    1.538    0.000    2.769    0.000    0.000 
#    0.000    0.000    0.000    0.000    0.000    0.000 
#
# Total GULP energy -289730.074496 kJ/mol
# GULP energy per Si atom -5571.732202 kJ/mol
# Density = 1.846447 g / cm^3
# Si number density = 18.506597 Si / 1000 Ang^3
#
#
#
# Elastic Constant Matrix: (Units=GPa)
#
#
# Indices 1 2 3 4 5 6 
#
# 1 55.4233 18.6140 23.1454 0.0000 0.0000 0.0000
# 2 18.6140 40.5184 29.9603 0.0000 0.0000 0.0000
# 3 23.1454 29.9603 102.7306 0.0000 0.0000 0.0000
# 4 0.0000 0.0000 0.0000 48.0088 0.0000 0.0000
# 5 0.0000 0.0000 0.0000 0.0000 15.6242 0.0000
# 6 0.0000 0.0000 0.0000 0.0000 0.0000 16.4081
#
#
#
# Elastic Compliance Matrix: (Units=1/GPa)
#
#
# Indices 1 2 3 4 5 6 
#
# 1 0.021844 -0.008154 -0.002543 0.000000 0.000000 0.000000
# 2 -0.008154 0.034510 -0.008227 0.000000 0.000000 0.000000
# 3 -0.002543 -0.008227 0.012707 0.000000 0.000000 0.000000
# 4 0.000000 0.000000 0.000000 0.020830 0.000000 0.000000
# 5 0.000000 0.000000 0.000000 0.000000 0.064003 0.000000
# 6 0.000000 0.000000 0.000000 0.000000 0.000000 0.060946
#
#
# Mechanical properties :
#
#
# Convention : Reuss Voigt Hill
#
# Bulk Modulus (GPa) = 32.04075 38.01241 35.02658
# Shear Modulus (GPa) = 19.00482 24.47173 21.73827
#
# Velocity S-wave (km/s) = 3.20804 3.64032 3.43100
# Velocity P-wave (km/s) = 5.57429 6.18496 5.88755
#
# Compressibility (1/GPa) = 0.03121026
#
# Stress axis : x y z
#
# Youngs Moduli (GPa) = 45.77972 28.97745 78.69946
#
# Poissons Ratio (x) = 0.23629 0.20016
# Poissons Ratio (y) = 0.37330 0.64747
# Poissons Ratio (z) = 0.11643 0.23840
#
# Static dielectric constant tensor:
#      x y z
#    x 1.628620 0.000000 0.000000 
#    y 0.000000 1.654920 0.000000 
#    z 0.000000 0.000000 1.650250 
# 
# From -- ./inp_files/42843.got.cif
#   From: 2010.05.17/outbox.cif.g08.bks.cpg/sg63_22_cif.got.tgz:42843.got - 2010.06.03 15:47:04.
