data_PCOD9468657
_publ_section_title
;
Structure prediction by ZEFSAII (Michael W. Deem and Ramdas Pophale) SiO2 
 PCOD9468657
Probable space group: C M C M
;
_chemical_formula_sum "Si O2"
_cell_formula_units_Z 80
_cell_length_a 26.021575
_cell_length_b 20.946453
_cell_length_c 7.584615
_cell_angle_alpha 90.000000
_cell_angle_beta 90.000000
_cell_angle_gamma 90.000000
_cell_volume 4134.067959
_symmetry_space_group_name_H-M "C M C M"
_symmetry_group_IT_number 63
_symmetry_cell_setting 'orthorhombic'
loop_
_space_group_symop_operation_xyz
x,y,z
-x,-y,1/2+z
x,-y,-z
-x,y,1/2-z
-x,-y,-z
x,y,1/2-z
-x,y,z
x,-y,1/2+z
1/2+x,1/2+y,z
1/2-x,1/2-y,1/2+z
1/2+x,1/2-y,-z
1/2-x,1/2+y,1/2-z
1/2-x,1/2-y,-z
1/2+x,1/2+y,1/2-z
1/2-x,1/2+y,z
1/2+x,1/2-y,1/2+z
loop_
_atom_site_type_symbol
_atom_site_label
_atom_site_fract_x
_atom_site_fract_y
_atom_site_fract_z
Si Si1 0.287107 0.309297 0.961247
Si Si2 0.000000 0.598912 0.034057
Si Si3 0.000000 0.251830 0.539917
Si Si4 0.889207 0.403694 0.953496
Si Si5 0.611058 0.244126 0.543359
Si Si6 0.276526 0.070297 0.461781
O O1 0.291391 0.316798 0.750000
O O2 0.343403 0.288777 0.026499
O O3 0.259772 0.373149 0.030057
O O4 0.250000 0.250000 0.000000
O O5 0.944439 0.574708 0.969997
O O6 0.000000 0.595849 0.250000
O O7 0.000000 0.673747 0.983485
O O8 0.945420 0.225813 0.477234
O O9 0.000000 0.250360 0.750000
O O10 0.889546 0.424673 0.750000
O O11 0.835026 0.424825 0.033737
O O12 0.888444 0.326055 0.956138
O O13 0.620293 0.232072 0.750000
O O14 0.280343 0.078711 0.250000
O O15 0.256231 0.000000 0.500000
#
# Coordination Sequence:
#
# PCOD9468657 Si02
#       6
#    16   8   8  16  16  16
#     4  10  20  33  51  75 102 131 167 211 256 300
#     4   7  12  23  42  64  84 118 161 197 232 274
#     4   9  17  29  45  68 101 134 159 193 246 302
#     4   9  16  29  47  66  94 130 168 205 246 295
#     4  10  18  28  47  75 101 126 161 207 251 294
#     4  10  21  35  49  68  98 135 172 211 254 301
#
# _framework density 19.351399000000001
#
# number of rings (size 3 to 8) (size 9 to 14) (size 15 to 20)
#    0.000    2.600    2.000    2.100    0.000    2.400 
#    0.000    0.500    0.000    0.000    0.000    0.700 
#    0.000    0.000    0.000    0.000    0.000    0.000 
#
# Total GULP energy -223033.325689 kJ/mol
# GULP energy per Si atom -5575.833142 kJ/mol
# Density = 1.930735 g / cm^3
# Si number density = 19.351399 Si / 1000 Ang^3
#
#
#
# Elastic Constant Matrix: (Units=GPa)
#
#
# Indices 1 2 3 4 5 6 
#
# 1 161.9800 71.5772 -1.8176 0.0000 0.0000 0.0000
# 2 71.5772 105.3457 -8.1377 0.0000 0.0000 0.0000
# 3 -1.8176 -8.1377 44.5477 0.0000 0.0000 0.0000
# 4 0.0000 0.0000 0.0000 11.1779 0.0000 0.0000
# 5 0.0000 0.0000 0.0000 0.0000 8.4230 0.0000
# 6 0.0000 0.0000 0.0000 0.0000 0.0000 8.6438
#
#
#
# Elastic Compliance Matrix: (Units=1/GPa)
#
#
# Indices 1 2 3 4 5 6 
#
# 1 0.008847 -0.006069 -0.000748 0.000000 0.000000 0.000000
# 2 -0.006069 0.013792 0.002272 0.000000 0.000000 0.000000
# 3 -0.000748 0.002272 0.022832 0.000000 0.000000 0.000000
# 4 0.000000 0.000000 0.000000 0.089462 0.000000 0.000000
# 5 0.000000 0.000000 0.000000 0.000000 0.118722 0.000000
# 6 0.000000 0.000000 0.000000 0.000000 0.000000 0.115690
#
#
# Mechanical properties :
#
#
# Convention : Reuss Voigt Hill
#
# Bulk Modulus (GPa) = 27.48662 48.34633 37.91648
# Shear Modulus (GPa) = 12.80207 22.33237 17.56722
#
# Velocity S-wave (km/s) = 2.57487 3.40081 3.01624
# Velocity P-wave (km/s) = 4.80361 6.36068 5.63618
#
# Compressibility (1/GPa) = 0.03638133
#
# Stress axis : x y z
#
# Youngs Moduli (GPa) = 113.03312 72.50832 43.79754
#
# Poissons Ratio (x) = 0.44004 0.03275
# Poissons Ratio (y) = 0.68598 -0.09950
# Poissons Ratio (z) = 0.08451 -0.16472
#
# Static dielectric constant tensor:
#      x y z
#    x 1.745580 0.000000 0.000000 
#    y 0.000000 1.654690 0.000000 
#    z 0.000000 0.000000 1.731610 
# 
# From -- ./inp_files/12259.got.cif
#   From: 2010.05.17/outbox.cif.g08.bks.cpg/sg63_7_cif.got.tgz:12259.got - 2010.06.03 15:47:04.
