data_PCOD9468432
_publ_section_title
;
Structure prediction by ZEFSAII (Michael W. Deem and Ramdas Pophale) SiO2 
 PCOD9468432
Probable space group: C M C M
;
_chemical_formula_sum "Si O2"
_cell_formula_units_Z 96
_cell_length_a 26.677183
_cell_length_b 7.916229
_cell_length_c 22.112355
_cell_angle_alpha 90.000000
_cell_angle_beta 90.000000
_cell_angle_gamma 90.000000
_cell_volume 4669.746605
_symmetry_space_group_name_H-M "C M C M"
_symmetry_group_IT_number 63
_symmetry_cell_setting 'orthorhombic'
loop_
_space_group_symop_operation_xyz
x,y,z
-x,-y,1/2+z
x,-y,-z
-x,y,1/2-z
-x,-y,-z
x,y,1/2-z
-x,y,z
x,-y,1/2+z
1/2+x,1/2+y,z
1/2-x,1/2-y,1/2+z
1/2+x,1/2-y,-z
1/2-x,1/2+y,1/2-z
1/2-x,1/2-y,-z
1/2+x,1/2+y,1/2-z
1/2-x,1/2+y,z
1/2+x,1/2-y,1/2+z
loop_
_atom_site_type_symbol
_atom_site_label
_atom_site_fract_x
_atom_site_fract_y
_atom_site_fract_z
Si Si1 0.891940 0.081881 0.320887
Si Si2 0.500000 0.526184 0.819846
Si Si3 0.108846 0.475702 0.352351
Si Si4 0.500000 0.930101 0.678826
Si Si5 0.267228 0.790404 0.250000
Si Si6 0.300906 0.923302 0.434673
Si Si7 0.292757 0.588910 0.126991
Si Si8 0.831278 0.363855 0.750000
O O1 0.889194 0.033110 0.250000
O O2 0.947025 0.036436 0.345363
O O3 0.885977 0.285375 0.325848
O O4 0.846177 0.003700 0.359102
O O5 0.500000 0.464466 0.750000
O O6 0.500000 0.727839 0.819845
O O7 0.144927 0.481230 0.410065
O O8 0.132798 0.611962 0.306830
O O9 0.050040 0.509277 0.354491
O O10 0.500000 0.988156 0.750000
O O11 0.281830 0.689402 0.189403
O O12 0.206752 0.791965 0.250000
O O13 0.294902 0.969756 0.250000
O O14 0.255575 0.981917 0.390755
O O15 0.292085 0.000000 0.500000
O O16 0.300273 0.721804 0.427479
#
# Coordination Sequence:
#
# PCOD9468432 Si02
#       8
#    16   8  16   8   8  16  16   8
#     4  10  17  33  53  79 112 147 182 221 282 353
#     4   9  21  33  47  83 122 144 170 221 283 358
#     4  11  20  36  58  79 111 156 187 232 282 345
#     4  11  21  35  54  85 115 140 182 234 299 350
#     4  12  18  36  54  89 117 139 187 231 295 344
#     4  11  24  39  55  81 115 156 199 234 279 341
#     4  11  20  35  58  82 114 147 188 239 285 344
#     4  12  20  35  54  87 125 148 187 235 293 350
#
# _framework density 20.557862
#
# number of rings (size 3 to 8) (size 9 to 14) (size 15 to 20)
#    0.000    1.167    7.500    1.000    0.000    2.000 
#    3.000    0.417    0.000    0.000    0.000    5.250 
#    0.000    0.000    0.000    0.000    0.000    0.000 
#
# Total GULP energy -268170.617648 kJ/mol
# GULP energy per Si atom -5586.887868 kJ/mol
# Density = 2.051107 g / cm^3
# Si number density = 20.557862 Si / 1000 Ang^3
#
#
#
# Elastic Constant Matrix: (Units=GPa)
#
#
# Indices 1 2 3 4 5 6 
#
# 1 223.8533 34.7118 37.9975 0.0000 0.0000 0.0000
# 2 34.7118 35.2059 6.5630 0.0000 0.0000 0.0000
# 3 37.9975 6.5630 46.5410 0.0000 0.0000 0.0000
# 4 0.0000 0.0000 0.0000 14.8447 0.0000 0.0000
# 5 0.0000 0.0000 0.0000 0.0000 16.3803 0.0000
# 6 0.0000 0.0000 0.0000 0.0000 0.0000 33.4043
#
#
#
# Elastic Compliance Matrix: (Units=1/GPa)
#
#
# Indices 1 2 3 4 5 6 
#
# 1 0.005963 -0.005106 -0.004148 0.000000 0.000000 0.000000
# 2 -0.005106 0.033543 -0.000561 0.000000 0.000000 0.000000
# 3 -0.004148 -0.000561 0.024953 0.000000 0.000000 0.000000
# 4 0.000000 0.000000 0.000000 0.067364 0.000000 0.000000
# 5 0.000000 0.000000 0.000000 0.000000 0.061049 0.000000
# 6 0.000000 0.000000 0.000000 0.000000 0.000000 0.029936
#
#
# Mechanical properties :
#
#
# Convention : Reuss Voigt Hill
#
# Bulk Modulus (GPa) = 22.30785 51.57164 36.93974
# Shear Modulus (GPa) = 19.42633 28.01439 23.72036
#
# Velocity S-wave (km/s) = 3.07735 3.69549 3.40050
# Velocity P-wave (km/s) = 4.84785 6.58403 5.78148
#
# Compressibility (1/GPa) = 0.04482728
#
# Stress axis : x y z
#
# Youngs Moduli (GPa) = 167.69610 29.81213 40.07605
#
# Poissons Ratio (x) = 0.15222 0.16625
# Poissons Ratio (y) = 0.85628 0.02250
# Poissons Ratio (z) = 0.69568 0.01673
#
# Static dielectric constant tensor:
#      x y z
#    x 1.805920 0.000000 0.000000 
#    y 0.000000 1.785690 0.000000 
#    z 0.000000 0.000000 1.712180 
# 
# From -- ./inp_files/65407.got.cif
#   From: 2010.05.17/outbox.cif.g08.bks.cpg/sg63_33_cif.got.tgz:65407.got - 2010.06.03 15:47:04.
