data_PCOD9468648
_publ_section_title
;
Structure prediction by ZEFSAII (Michael W. Deem and Ramdas Pophale) SiO2 
 PCOD9468648
Probable space group: C M C M
;
_chemical_formula_sum "Si O2"
_cell_formula_units_Z 80
_cell_length_a 8.901075
_cell_length_b 20.485243
_cell_length_c 25.277100
_cell_angle_alpha 90.000000
_cell_angle_beta 90.000000
_cell_angle_gamma 90.000000
_cell_volume 4609.043712
_symmetry_space_group_name_H-M "C M C M"
_symmetry_group_IT_number 63
_symmetry_cell_setting 'orthorhombic'
loop_
_space_group_symop_operation_xyz
x,y,z
-x,-y,1/2+z
x,-y,-z
-x,y,1/2-z
-x,-y,-z
x,y,1/2-z
-x,y,z
x,-y,1/2+z
1/2+x,1/2+y,z
1/2-x,1/2-y,1/2+z
1/2+x,1/2-y,-z
1/2-x,1/2+y,1/2-z
1/2-x,1/2-y,-z
1/2+x,1/2+y,1/2-z
1/2-x,1/2+y,z
1/2+x,1/2-y,1/2+z
loop_
_atom_site_type_symbol
_atom_site_label
_atom_site_fract_x
_atom_site_fract_y
_atom_site_fract_z
Si Si1 0.321118 0.190756 0.533130
Si Si2 0.323175 0.429812 0.526386
Si Si3 0.822062 0.739696 0.750000
Si Si4 0.822834 0.607983 0.367101
Si Si5 0.820924 0.764689 0.139816
Si Si6 0.679038 0.118707 0.250000
O O1 0.500000 0.196479 0.533037
O O2 0.250000 0.250000 0.500000
O O3 0.269777 0.124519 0.505130
O O4 0.256376 0.197532 0.592006
O O5 0.298207 0.500000 0.500000
O O6 0.500000 0.414169 0.522915
O O7 0.271813 0.426233 0.587392
O O8 0.747244 0.714608 0.696079
O O9 0.779743 0.816607 0.750000
O O10 0.000000 0.730334 0.750000
O O11 0.793089 0.686448 0.367890
O O12 0.794398 0.585156 0.306582
O O13 0.000000 0.599393 0.378190
O O14 0.000000 0.773465 0.139286
O O15 0.500000 0.138221 0.250000
#
# Coordination Sequence:
#
# PCOD9468648 Si02
#       6
#    16  16   8  16  16   8
#     4  12  23  36  57  83 110 144 183 228 278 334
#     4  11  24  39  55  78 112 150 187 231 280 332
#     4  10  18  28  46  77 112 145 180 223 273 329
#     4   9  17  31  53  78 106 141 179 224 274 327
#     4  10  19  33  53  79 111 145 181 228 278 328
#     4   8  16  30  48  73 106 139 176 221 275 325
#
# _framework density 17.35718
#
# number of rings (size 3 to 8) (size 9 to 14) (size 15 to 20)
#    0.000    1.800    2.000    5.100    0.000    4.800 
#    0.000    0.000    0.000    1.200    0.000    2.800 
#    0.000    0.000    0.000    0.000    0.000    0.000 
#
# Total GULP energy -223231.669156 kJ/mol
# GULP energy per Si atom -5580.791729 kJ/mol
# Density = 1.731767 g / cm^3
# Si number density = 17.357180 Si / 1000 Ang^3
#
#
#
# Elastic Constant Matrix: (Units=GPa)
#
#
# Indices 1 2 3 4 5 6 
#
# 1 116.5292 41.6438 80.4047 0.0000 0.0000 0.0000
# 2 41.6438 31.7428 37.5194 0.0000 0.0000 0.0000
# 3 80.4047 37.5194 171.2215 0.0000 0.0000 0.0000
# 4 0.0000 0.0000 0.0000 16.7985 0.0000 0.0000
# 5 0.0000 0.0000 0.0000 0.0000 35.5402 0.0000
# 6 0.0000 0.0000 0.0000 0.0000 0.0000 20.4708
#
#
#
# Elastic Compliance Matrix: (Units=1/GPa)
#
#
# Indices 1 2 3 4 5 6 
#
# 1 0.018439 -0.018834 -0.004532 0.000000 0.000000 0.000000
# 2 -0.018834 0.061752 -0.004687 0.000000 0.000000 0.000000
# 3 -0.004532 -0.004687 0.008996 0.000000 0.000000 0.000000
# 4 0.000000 0.000000 0.000000 0.059529 0.000000 0.000000
# 5 0.000000 0.000000 0.000000 0.000000 0.028137 0.000000
# 6 0.000000 0.000000 0.000000 0.000000 0.000000 0.048850
#
#
# Mechanical properties :
#
#
# Convention : Reuss Voigt Hill
#
# Bulk Modulus (GPa) = 30.22917 70.95883 50.59400
# Shear Modulus (GPa) = 17.07437 25.22361 21.14899
#
# Velocity S-wave (km/s) = 3.13981 3.81623 3.49443
# Velocity P-wave (km/s) = 5.53157 7.77100 6.74488
#
# Compressibility (1/GPa) = 0.03308063
#
# Stress axis : x y z
#
# Youngs Moduli (GPa) = 54.23213 16.19375 111.16487
#
# Poissons Ratio (x) = 0.30499 0.50379
# Poissons Ratio (y) = 1.02141 0.52106
# Poissons Ratio (z) = 0.24577 0.07590
#
# Static dielectric constant tensor:
#      x y z
#    x 1.573710 0.000000 0.000000 
#    y 0.000000 1.559460 0.000000 
#    z 0.000000 0.000000 1.628400 
# 
# From -- ./inp_files/59493.got.cif
#   From: 2010.05.17/outbox.cif.g08.bks.cpg/sg63_30_cif.got.tgz:59493.got - 2010.06.03 15:47:04.
