data_PCOD9468912
_publ_section_title
;
Structure prediction by ZEFSAII (Michael W. Deem and Ramdas Pophale) SiO2 
 PCOD9468912
Probable space group: C M C M
;
_chemical_formula_sum "Si O2"
_cell_formula_units_Z 72
_cell_length_a 16.283037
_cell_length_b 26.676618
_cell_length_c 9.025281
_cell_angle_alpha 90.000000
_cell_angle_beta 90.000000
_cell_angle_gamma 90.000000
_cell_volume 3920.368690
_symmetry_space_group_name_H-M "C M C M"
_symmetry_group_IT_number 63
_symmetry_cell_setting 'orthorhombic'
loop_
_space_group_symop_operation_xyz
x,y,z
-x,-y,1/2+z
x,-y,-z
-x,y,1/2-z
-x,-y,-z
x,y,1/2-z
-x,y,z
x,-y,1/2+z
1/2+x,1/2+y,z
1/2-x,1/2-y,1/2+z
1/2+x,1/2-y,-z
1/2-x,1/2+y,1/2-z
1/2-x,1/2-y,-z
1/2+x,1/2+y,1/2-z
1/2-x,1/2+y,z
1/2+x,1/2-y,1/2+z
loop_
_atom_site_type_symbol
_atom_site_label
_atom_site_fract_x
_atom_site_fract_y
_atom_site_fract_z
Si Si1 0.665592 0.608630 0.423099
Si Si2 0.668702 0.728852 0.075919
Si Si3 0.000000 0.770435 0.077758
Si Si4 0.000000 0.556299 0.570819
Si Si5 0.500000 0.607320 0.920001
Si Si6 0.165129 0.555263 0.070411
O O1 0.653961 0.597902 0.250000
O O2 0.670916 0.668569 0.440525
O O3 0.584590 0.590066 0.506319
O O4 0.751953 0.584714 0.467697
O O5 0.667994 0.740772 0.250000
O O6 0.750000 0.750000 0.000000
O O7 0.583818 0.746623 0.000872
O O8 0.000000 0.756399 0.250000
O O9 0.000000 0.831552 0.069378
O O10 0.000000 0.500000 0.500000
O O11 0.916135 0.578885 0.504798
O O12 0.000000 0.554441 0.750000
O O13 0.500000 0.593166 0.750000
O O14 0.155567 0.552783 0.250000
O O15 0.173346 0.500000 0.000000
#
# Coordination Sequence:
#
# PCOD9468912 Si02
#       6
#    16  16   8   8   8  16
#     4   9  19  34  52  72  99 132 164 197 242 294
#     4  10  19  33  52  75 100 130 165 203 244 291
#     4   9  17  31  50  73  98 129 165 202 243 292
#     4  10  18  30  49  72  97 128 162 199 239 288
#     4   9  17  29  50  75  98 125 163 205 241 282
#     4  10  19  33  52  74  98 128 163 201 241 287
#
# _framework density 18.36562
#
# number of rings (size 3 to 8) (size 9 to 14) (size 15 to 20)
#    0.000    2.444    0.000    4.333    0.000    5.333 
#    0.000    1.667    0.000    2.667    0.000    0.000 
#    0.000    0.000    0.000    0.000    0.000    0.000 
#
# Total GULP energy -200717.105938 kJ/mol
# GULP energy per Si atom -5575.475165 kJ/mol
# Density = 1.832382 g / cm^3
# Si number density = 18.365620 Si / 1000 Ang^3
#
#
#
# Elastic Constant Matrix: (Units=GPa)
#
#
# Indices 1 2 3 4 5 6 
#
# 1 247.4072 30.3730 125.8590 0.0000 0.0000 0.0000
# 2 30.3730 -6.3372 33.9407 0.0000 0.0000 0.0000
# 3 125.8590 33.9407 125.8180 0.0000 0.0000 0.0000
# 4 0.0000 0.0000 0.0000 17.3237 0.0000 0.0000
# 5 0.0000 0.0000 0.0000 0.0000 39.9103 0.0000
# 6 0.0000 0.0000 0.0000 0.0000 0.0000 36.1744
#
#
#
# Elastic Compliance Matrix: (Units=1/GPa)
#
#
# Indices 1 2 3 4 5 6 
#
# 1 0.008174 -0.001888 -0.007668 0.000000 0.000000 0.000000
# 2 -0.001888 -0.064109 0.019183 0.000000 0.000000 0.000000
# 3 -0.007668 0.019183 0.010443 0.000000 0.000000 0.000000
# 4 0.000000 0.000000 0.000000 0.057724 0.000000 0.000000
# 5 0.000000 0.000000 0.000000 0.000000 0.025056 0.000000
# 6 0.000000 0.000000 0.000000 0.000000 0.000000 0.027644
#
#
# Mechanical properties :
#
#
# Convention : Reuss Voigt Hill
#
# Bulk Modulus (GPa) = -38.11381 83.02593 22.45606
# Shear Modulus (GPa) = 135.37804 30.46270 82.92037
#
# Velocity S-wave (km/s) = 8.59493 4.07711 6.72665
# Velocity P-wave (km/s) = 8.81471 8.21396 8.51963
#
# Compressibility (1/GPa) = -0.02623721
#
# Stress axis : x y z
#
# Youngs Moduli (GPa) = 122.33387 -15.59846 95.75463
#
# Poissons Ratio (x) = -0.02945 0.73421
# Poissons Ratio (y) = 0.23099 -1.83685
# Poissons Ratio (z) = 0.93801 0.29922
#
# Static dielectric constant tensor:
#      x y z
#    x 1.664240 0.000000 0.000000 
#    y 0.000000 1.666290 0.000000 
#    z 0.000000 0.000000 1.618970 
# 
# From -- ./inp_files/4992.got.cif
#   From: 2010.05.17/outbox.cif.g08.bks.cpg/sg63_3_cif.got.tgz:4992.got - 2010.06.03 15:47:04.
