data_PCOD9468589
_publ_section_title
;
Structure prediction by ZEFSAII (Michael W. Deem and Ramdas Pophale) SiO2 
 PCOD9468589
Probable space group: C M C M
;
_chemical_formula_sum "Si O2"
_cell_formula_units_Z 96
_cell_length_a 7.693334
_cell_length_b 26.578370
_cell_length_c 24.358171
_cell_angle_alpha 90.000000
_cell_angle_beta 90.000000
_cell_angle_gamma 90.000000
_cell_volume 4980.668135
_symmetry_space_group_name_H-M "C M C M"
_symmetry_group_IT_number 63
_symmetry_cell_setting 'orthorhombic'
loop_
_space_group_symop_operation_xyz
x,y,z
-x,-y,1/2+z
x,-y,-z
-x,y,1/2-z
-x,-y,-z
x,y,1/2-z
-x,y,z
x,-y,1/2+z
1/2+x,1/2+y,z
1/2-x,1/2-y,1/2+z
1/2+x,1/2-y,-z
1/2-x,1/2+y,1/2-z
1/2-x,1/2-y,-z
1/2+x,1/2+y,1/2-z
1/2-x,1/2+y,z
1/2+x,1/2-y,1/2+z
loop_
_atom_site_type_symbol
_atom_site_label
_atom_site_fract_x
_atom_site_fract_y
_atom_site_fract_z
Si Si1 0.789797 0.191216 0.437635
Si Si2 0.696983 0.405313 0.881445
Si Si3 0.291478 0.500069 0.687622
Si Si4 0.790174 0.595623 0.614049
Si Si5 0.301201 0.059417 0.496491
Si Si6 0.791013 0.304891 0.434937
O O1 0.723579 0.149834 0.393908
O O2 0.725031 0.248003 0.427519
O O3 0.749278 0.179494 0.501792
O O4 0.000000 0.190811 0.433666
O O5 0.500000 0.397400 0.860932
O O6 0.776610 0.450806 0.845521
O O7 0.694378 0.426206 0.943414
O O8 0.226436 0.500385 0.750000
O O9 0.500000 0.494787 0.688505
O O10 0.259040 0.553724 0.658400
O O11 0.729556 0.576197 0.554727
O O12 0.732385 0.653992 0.610153
O O13 0.000000 0.595678 0.614160
O O14 0.500000 0.078967 0.489757
O O15 0.312292 0.000000 0.500000
O O16 0.000000 0.302736 0.431620
#
# Coordination Sequence:
#
# PCOD9468589 Si02
#       6
#    16  16  16  16  16  16
#     4   9  17  28  44  69  99 128 156 185 222 275
#     4  10  19  30  47  69  95 125 156 192 231 278
#     4  10  22  37  50  66  90 123 162 202 242 280
#     4  10  19  31  49  71  97 127 155 191 234 281
#     4  10  18  28  43  68  99 126 151 182 231 285
#     4   9  17  29  45  68 100 130 153 183 225 276
#
# _framework density 19.274521
#
# number of rings (size 3 to 8) (size 9 to 14) (size 15 to 20)
#    0.000    2.333    3.333    0.000    0.000    2.000 
#    0.000    0.000    0.000    1.000    0.000    4.667 
#    0.000    0.000    0.000    0.000    0.000    0.000 
#
# Total GULP energy -267209.074963 kJ/mol
# GULP energy per Si atom -5566.855728 kJ/mol
# Density = 1.923065 g / cm^3
# Si number density = 19.274521 Si / 1000 Ang^3
#
#
#
# Elastic Constant Matrix: (Units=GPa)
#
#
# Indices 1 2 3 4 5 6 
#
# 1 35.4346 6.8282 2.8958 0.0000 0.0000 0.0000
# 2 6.8282 178.5905 75.2895 0.0000 0.0000 0.0000
# 3 2.8958 75.2895 104.0260 0.0000 0.0000 0.0000
# 4 0.0000 0.0000 0.0000 12.0643 0.0000 0.0000
# 5 0.0000 0.0000 0.0000 0.0000 8.6461 0.0000
# 6 0.0000 0.0000 0.0000 0.0000 0.0000 15.9791
#
#
#
# Elastic Compliance Matrix: (Units=1/GPa)
#
#
# Indices 1 2 3 4 5 6 
#
# 1 0.028430 -0.001084 -0.000007 0.000000 0.000000 0.000000
# 2 -0.001084 0.008099 -0.005832 0.000000 0.000000 0.000000
# 3 -0.000007 -0.005832 0.013834 0.000000 0.000000 0.000000
# 4 0.000000 0.000000 0.000000 0.082889 0.000000 0.000000
# 5 0.000000 0.000000 0.000000 0.000000 0.115658 0.000000
# 6 0.000000 0.000000 0.000000 0.000000 0.000000 0.062582
#
#
# Mechanical properties :
#
#
# Convention : Reuss Voigt Hill
#
# Bulk Modulus (GPa) = 27.38348 54.23092 40.80720
# Shear Modulus (GPa) = 14.81430 22.87374 18.84402
#
# Velocity S-wave (km/s) = 2.77536 3.44864 3.13016
# Velocity P-wave (km/s) = 4.95057 6.63737 5.85503
#
# Compressibility (1/GPa) = 0.03651837
#
# Stress axis : x y z
#
# Youngs Moduli (GPa) = 35.17355 123.46575 72.28571
#
# Poissons Ratio (x) = 0.13386 0.00049
# Poissons Ratio (y) = 0.03813 0.42156
# Poissons Ratio (z) = 0.00024 0.72003
#
# Static dielectric constant tensor:
#      x y z
#    x 1.759700 0.000000 0.000000 
#    y 0.000000 1.774280 0.000000 
#    z 0.000000 0.000000 1.636130 
# 
# From -- ./inp_files/51268.got.cif
#   From: 2010.05.17/outbox.cif.g08.bks.cpg/sg63_26_cif.got.tgz:51268.got - 2010.06.03 15:47:04.
