data_PCOD9468813
_publ_section_title
;
Structure prediction by ZEFSAII (Michael W. Deem and Ramdas Pophale) SiO2 
 PCOD9468813
Probable space group: C M C M
;
_chemical_formula_sum "Si O2"
_cell_formula_units_Z 56
_cell_length_a 28.264027
_cell_length_b 17.935144
_cell_length_c 5.457234
_cell_angle_alpha 90.000000
_cell_angle_beta 90.000000
_cell_angle_gamma 90.000000
_cell_volume 2766.377754
_symmetry_space_group_name_H-M "C M C M"
_symmetry_group_IT_number 63
_symmetry_cell_setting 'orthorhombic'
loop_
_space_group_symop_operation_xyz
x,y,z
-x,-y,1/2+z
x,-y,-z
-x,y,1/2-z
-x,-y,-z
x,y,1/2-z
-x,y,z
x,-y,1/2+z
1/2+x,1/2+y,z
1/2-x,1/2-y,1/2+z
1/2+x,1/2-y,-z
1/2-x,1/2+y,1/2-z
1/2-x,1/2-y,-z
1/2+x,1/2+y,1/2-z
1/2-x,1/2+y,z
1/2+x,1/2-y,1/2+z
loop_
_atom_site_type_symbol
_atom_site_label
_atom_site_fract_x
_atom_site_fract_y
_atom_site_fract_z
Si Si1 0.893016 0.769193 0.750000
Si Si2 0.564710 0.963873 0.750000
Si Si3 0.000000 0.327018 0.750000
Si Si4 0.293086 0.669931 0.250000
Si Si5 0.500000 0.266466 0.750000
Si Si6 0.854490 0.706636 0.250000
Si Si7 0.734010 0.680741 0.750000
Si Si8 0.177067 0.538493 0.250000
O O1 0.849896 0.829183 0.750000
O O2 0.946575 0.801253 0.750000
O O3 0.883406 0.720996 0.502301
O O4 0.545647 0.880472 0.750000
O O5 0.620507 0.976150 0.750000
O O6 0.547746 0.000000 0.500000
O O7 0.000000 0.280478 0.500954
O O8 0.270336 0.637776 0.496279
O O9 0.276313 0.758444 0.250000
O O10 0.813802 0.769622 0.250000
O O11 0.826712 0.628463 0.250000
O O12 0.195368 0.500000 0.500000
#
# Coordination Sequence:
#
# PCOD9468813 Si02
#       8
#     8   8   4   8   4   8   8   8
#     4  10  19  29  41  54  72  91 114 142 173 208
#     4  10  19  30  40  48  58  77 107 144 183 211
#     4  12  22  31  40  48  62  80 114 152 178 203
#     4   8  14  25  39  57  73  86 102 132 170 206
#     4  12  22  29  38  52  68  92 114 136 168 207
#     4  10  18  30  43  55  69  89 114 145 177 206
#     4   8  14  24  41  58  71  84 104 132 171 209
#     4  10  19  28  38  50  66  87 111 139 172 210
#
# _framework density 20.243078000000001
#
# number of rings (size 3 to 8) (size 9 to 14) (size 15 to 20)
#    0.000    2.286    0.000    4.714    0.000    2.286 
#    0.000    0.000    0.000    0.000    0.000    0.000 
#    0.000    0.000    0.000    0.000    0.000    0.000 
#
# Total GULP energy -156016.673787 kJ/mol
# GULP energy per Si atom -5572.024064 kJ/mol
# Density = 2.019700 g / cm^3
# Si number density = 20.243078 Si / 1000 Ang^3
#
#
#
# Elastic Constant Matrix: (Units=GPa)
#
#
# Indices 1 2 3 4 5 6 
#
# 1 122.5158 0.8354 28.9093 0.0000 0.0000 0.0000
# 2 0.8354 13.7052 8.7928 0.0000 0.0000 0.0000
# 3 28.9093 8.7928 183.2545 0.0000 0.0000 0.0000
# 4 0.0000 0.0000 0.0000 7.3747 0.0000 0.0000
# 5 0.0000 0.0000 0.0000 0.0000 11.2688 0.0000
# 6 0.0000 0.0000 0.0000 0.0000 0.0000 20.2664
#
#
#
# Elastic Compliance Matrix: (Units=1/GPa)
#
#
# Indices 1 2 3 4 5 6 
#
# 1 0.008479 0.000352 -0.001355 0.000000 0.000000 0.000000
# 2 0.000352 0.075297 -0.003668 0.000000 0.000000 0.000000
# 3 -0.001355 -0.003668 0.005847 0.000000 0.000000 0.000000
# 4 0.000000 0.000000 0.000000 0.135598 0.000000 0.000000
# 5 0.000000 0.000000 0.000000 0.000000 0.088740 0.000000
# 6 0.000000 0.000000 0.000000 0.000000 0.000000 0.049343
#
#
# Mechanical properties :
#
#
# Convention : Reuss Voigt Hill
#
# Bulk Modulus (GPa) = 12.45619 44.06118 28.25868
# Shear Modulus (GPa) = 12.51858 26.51119 19.51488
#
# Velocity S-wave (km/s) = 2.48949 3.62282 3.10825
# Velocity P-wave (km/s) = 3.79869 6.27002 5.18378
#
# Compressibility (1/GPa) = 0.08028137
#
# Stress axis : x y z
#
# Youngs Moduli (GPa) = 117.93228 13.28075 171.03961
#
# Poissons Ratio (x) = -0.00468 0.23169
# Poissons Ratio (y) = -0.04153 0.62744
# Poissons Ratio (z) = 0.15975 0.04872
#
# Static dielectric constant tensor:
#      x y z
#    x 1.761150 0.000000 0.000000 
#    y 0.000000 1.669740 0.000000 
#    z 0.000000 0.000000 1.839930 
# 
# From -- ./inp_files/1265.got.cif
#   From: 2010.05.17/outbox.cif.g08.bks.cpg/sg63_1_cif.got.tgz:1265.got - 2010.06.03 15:47:04.
