data_PCOD9468593
_publ_section_title
;
Structure prediction by ZEFSAII (Michael W. Deem and Ramdas Pophale) SiO2 
 PCOD9468593
Probable space group: C M C M
;
_chemical_formula_sum "Si O2"
_cell_formula_units_Z 96
_cell_length_a 29.292466
_cell_length_b 27.176465
_cell_length_c 8.704860
_cell_angle_alpha 90.000000
_cell_angle_beta 90.000000
_cell_angle_gamma 90.000000
_cell_volume 6929.640269
_symmetry_space_group_name_H-M "C M C M"
_symmetry_group_IT_number 63
_symmetry_cell_setting 'orthorhombic'
loop_
_space_group_symop_operation_xyz
x,y,z
-x,-y,1/2+z
x,-y,-z
-x,y,1/2-z
-x,-y,-z
x,y,1/2-z
-x,y,z
x,-y,1/2+z
1/2+x,1/2+y,z
1/2-x,1/2-y,1/2+z
1/2+x,1/2-y,-z
1/2-x,1/2+y,1/2-z
1/2-x,1/2-y,-z
1/2+x,1/2+y,1/2-z
1/2-x,1/2+y,z
1/2+x,1/2-y,1/2+z
loop_
_atom_site_type_symbol
_atom_site_label
_atom_site_fract_x
_atom_site_fract_y
_atom_site_fract_z
Si Si1 0.142488 0.743863 0.066922
Si Si2 0.696701 0.850352 0.065464
Si Si3 0.358677 0.051841 0.933463
Si Si4 0.447599 0.208387 0.933122
Si Si5 0.051747 0.401847 0.566030
Si Si6 0.277184 0.702614 0.433724
O O1 0.146356 0.744398 0.250000
O O2 0.165272 0.693259 0.003393
O O3 0.090345 0.741814 0.012779
O O4 0.171951 0.788401 0.995687
O O5 0.697550 0.844775 0.250000
O O6 0.674135 0.902456 0.025819
O O7 0.747377 0.842349 0.998352
O O8 0.361332 0.049282 0.750000
O O9 0.408725 0.064245 0.999256
O O10 0.342723 0.000000 0.000000
O O11 0.440067 0.207519 0.750000
O O12 0.500000 0.223310 0.963001
O O13 0.442402 0.152849 0.996787
O O14 0.055886 0.399052 0.750000
O O15 0.000000 0.418177 0.528266
O O16 0.276292 0.703384 0.250000
O O17 0.250000 0.750000 0.500000
#
# Coordination Sequence:
#
# PCOD9468593 Si02
#       6
#    16  16  16  16  16  16
#     4  11  19  28  45  65  86 110 136 170 206 249
#     4  10  19  32  46  62  83 106 134 171 213 255
#     4  11  23  35  49  63  81 107 138 177 219 263
#     4  10  19  30  44  62  85 112 141 173 211 253
#     4  10  20  33  48  63  79 102 136 177 220 264
#     4  10  18  28  44  64  85 107 132 165 205 250
#
# _framework density 13.853534
#
# number of rings (size 3 to 8) (size 9 to 14) (size 15 to 20)
#    0.000    1.667    1.667    7.000    0.000    4.333 
#    0.000    0.000    0.000    0.000    0.000    0.000 
#    0.000    0.000    0.000    0.000    0.000    0.833 
#
# Total GULP energy -267850.811930 kJ/mol
# GULP energy per Si atom -5580.225249 kJ/mol
# Density = 1.382200 g / cm^3
# Si number density = 13.853534 Si / 1000 Ang^3
#
#
#
# Elastic Constant Matrix: (Units=GPa)
#
#
# Indices 1 2 3 4 5 6 
#
# 1 81.9781 48.5549 45.4341 0.0000 0.0000 0.0000
# 2 48.5549 53.4570 35.5151 0.0000 0.0000 0.0000
# 3 45.4341 35.5151 87.4464 0.0000 0.0000 0.0000
# 4 0.0000 0.0000 0.0000 17.7552 0.0000 0.0000
# 5 0.0000 0.0000 0.0000 0.0000 24.2879 0.0000
# 6 0.0000 0.0000 0.0000 0.0000 0.0000 18.4992
#
#
#
# Elastic Compliance Matrix: (Units=1/GPa)
#
#
# Indices 1 2 3 4 5 6 
#
# 1 0.028444 -0.021936 -0.005869 0.000000 0.000000 0.000000
# 2 -0.021936 0.042537 -0.005878 0.000000 0.000000 0.000000
# 3 -0.005869 -0.005878 0.016873 0.000000 0.000000 0.000000
# 4 0.000000 0.000000 0.000000 0.056321 0.000000 0.000000
# 5 0.000000 0.000000 0.000000 0.000000 0.041173 0.000000
# 6 0.000000 0.000000 0.000000 0.000000 0.000000 0.054056
#
#
# Mechanical properties :
#
#
# Convention : Reuss Voigt Hill
#
# Bulk Modulus (GPa) = 48.81576 53.54332 51.17954
# Shear Modulus (GPa) = 15.94388 18.33362 17.13875
#
# Velocity S-wave (km/s) = 3.39616 3.64179 3.52111
# Velocity P-wave (km/s) = 7.11983 7.51112 7.31809
#
# Compressibility (1/GPa) = 0.02048519
#
# Stress axis : x y z
#
# Youngs Moduli (GPa) = 35.15688 23.50919 59.26789
#
# Poissons Ratio (x) = 0.51570 0.34787
# Poissons Ratio (y) = 0.77121 0.34840
# Poissons Ratio (z) = 0.20635 0.13820
#
# Static dielectric constant tensor:
#      x y z
#    x 1.491300 0.000000 0.000000 
#    y 0.000000 1.435600 0.000000 
#    z 0.000000 0.000000 1.460630 
# 
# From -- ./inp_files/12994.got.cif
#   From: 2010.05.17/outbox.cif.g08.bks.cpg/sg63_7_cif.got.tgz:12994.got - 2010.06.03 15:47:04.
