data_PCOD9468777
_publ_section_title
;
Structure prediction by ZEFSAII (Michael W. Deem and Ramdas Pophale) SiO2 
 PCOD9468777
Probable space group: C M C M
;
_chemical_formula_sum "Si O2"
_cell_formula_units_Z 80
_cell_length_a 14.380653
_cell_length_b 27.632029
_cell_length_c 11.091238
_cell_angle_alpha 90.000000
_cell_angle_beta 90.000000
_cell_angle_gamma 90.000000
_cell_volume 4407.287764
_symmetry_space_group_name_H-M "C M C M"
_symmetry_group_IT_number 63
_symmetry_cell_setting 'orthorhombic'
loop_
_space_group_symop_operation_xyz
x,y,z
-x,-y,1/2+z
x,-y,-z
-x,y,1/2-z
-x,-y,-z
x,y,1/2-z
-x,y,z
x,-y,1/2+z
1/2+x,1/2+y,z
1/2-x,1/2-y,1/2+z
1/2+x,1/2-y,-z
1/2-x,1/2+y,1/2-z
1/2-x,1/2-y,-z
1/2+x,1/2+y,1/2-z
1/2-x,1/2+y,z
1/2+x,1/2-y,1/2+z
loop_
_atom_site_type_symbol
_atom_site_label
_atom_site_fract_x
_atom_site_fract_y
_atom_site_fract_z
Si Si1 0.387920 0.209052 0.250000
Si Si2 0.391990 0.370911 0.109633
Si Si3 0.739273 0.119636 0.250000
Si Si4 0.387852 0.731780 0.512730
Si Si5 0.303524 0.554209 0.043743
Si Si6 0.387438 0.707775 0.250000
Si Si7 0.000000 0.972311 0.875476
O O1 0.500000 0.210058 0.250000
O O2 0.347654 0.155517 0.250000
O O3 0.355962 0.235231 0.375029
O O4 0.390208 0.359831 0.250000
O O5 0.500000 0.381304 0.077355
O O6 0.359955 0.323381 0.039961
O O7 0.328076 0.415432 0.074850
O O8 0.739212 0.084736 0.133009
O O9 0.827556 0.157735 0.250000
O O10 0.500000 0.733091 0.520266
O O11 0.365430 0.738246 0.371602
O O12 0.401741 0.554128 0.117249
O O13 0.278990 0.500000 0.000000
O O14 0.500000 0.697183 0.250000
O O15 0.000000 0.001710 0.750000
O O16 0.000000 0.000000 0.000000
#
# Coordination Sequence:
#
# PCOD9468777 Si02
#       7
#     8  16   8  16  16   8   8
#     4  10  22  42  63  80 107 142 198 250 293 341
#     4  10  18  29  48  75 109 156 197 220 260 318
#     4  12  24  36  59  82 107 155 192 233 289 333
#     4   9  17  33  55  80 112 150 182 230 275 325
#     4  11  23  34  48  75 115 152 191 231 268 324
#     4  10  20  32  54  84 124 153 180 213 270 340
#     4  10  20  32  50  72 110 154 186 214 248 316
#
# _framework density 18.151754
#
# number of rings (size 3 to 8) (size 9 to 14) (size 15 to 20)
#    0.000    1.800    5.000    0.000    2.800    1.600 
#    0.000    0.000    0.000    0.600    0.000    0.000 
#    0.000    0.000    0.000    0.000    0.000    0.000 
#
# Total GULP energy -222782.675308 kJ/mol
# GULP energy per Si atom -5569.566883 kJ/mol
# Density = 1.811044 g / cm^3
# Si number density = 18.151754 Si / 1000 Ang^3
#
#
#
# Elastic Constant Matrix: (Units=GPa)
#
#
# Indices 1 2 3 4 5 6 
#
# 1 35.9252 12.2354 9.8172 0.0000 0.0000 0.0000
# 2 12.2354 81.7529 47.9097 0.0000 0.0000 0.0000
# 3 9.8172 47.9097 140.4399 0.0000 0.0000 0.0000
# 4 0.0000 0.0000 0.0000 12.5049 0.0000 0.0000
# 5 0.0000 0.0000 0.0000 0.0000 3.5438 0.0000
# 6 0.0000 0.0000 0.0000 0.0000 0.0000 27.5400
#
#
#
# Elastic Compliance Matrix: (Units=1/GPa)
#
#
# Indices 1 2 3 4 5 6 
#
# 1 0.029384 -0.003992 -0.000692 0.000000 0.000000 0.000000
# 2 -0.003992 0.015831 -0.005121 0.000000 0.000000 0.000000
# 3 -0.000692 -0.005121 0.008916 0.000000 0.000000 0.000000
# 4 0.000000 0.000000 0.000000 0.079969 0.000000 0.000000
# 5 0.000000 0.000000 0.000000 0.000000 0.282180 0.000000
# 6 0.000000 0.000000 0.000000 0.000000 0.000000 0.036311
#
#
# Mechanical properties :
#
#
# Convention : Reuss Voigt Hill
#
# Bulk Modulus (GPa) = 28.96899 44.22695 36.59797
# Shear Modulus (GPa) = 10.33681 21.26145 15.79913
#
# Velocity S-wave (km/s) = 2.38894 3.42616 2.95344
# Velocity P-wave (km/s) = 4.85833 6.33004 5.64238
#
# Compressibility (1/GPa) = 0.03451967
#
# Stress axis : x y z
#
# Youngs Moduli (GPa) = 34.03164 63.16804 112.15785
#
# Poissons Ratio (x) = 0.25217 0.07764
# Poissons Ratio (y) = 0.13586 0.57441
# Poissons Ratio (z) = 0.02356 0.32351
#
# Static dielectric constant tensor:
#      x y z
#    x 1.652740 0.000000 0.000000 
#    y 0.000000 1.642320 0.000000 
#    z 0.000000 0.000000 1.705730 
# 
# From -- ./inp_files/19735.got.cif
#   From: 2010.05.17/outbox.cif.g08.bks.cpg/sg63_10_cif.got.tgz:19735.got - 2010.06.03 15:47:04.
