data_PCOD9468239
_publ_section_title
;
Structure prediction by ZEFSAII (Michael W. Deem and Ramdas Pophale) SiO2 
 PCOD9468239
Probable space group: C M C M
;
_chemical_formula_sum "Si O2"
_cell_formula_units_Z 128
_cell_length_a 23.206303
_cell_length_b 16.643787
_cell_length_c 22.050745
_cell_angle_alpha 90.000000
_cell_angle_beta 90.000000
_cell_angle_gamma 90.000000
_cell_volume 8516.896600
_symmetry_space_group_name_H-M "C M C M"
_symmetry_group_IT_number 63
_symmetry_cell_setting 'orthorhombic'
loop_
_space_group_symop_operation_xyz
x,y,z
-x,-y,1/2+z
x,-y,-z
-x,y,1/2-z
-x,-y,-z
x,y,1/2-z
-x,y,z
x,-y,1/2+z
1/2+x,1/2+y,z
1/2-x,1/2-y,1/2+z
1/2+x,1/2-y,-z
1/2-x,1/2+y,1/2-z
1/2-x,1/2-y,-z
1/2+x,1/2+y,1/2-z
1/2-x,1/2+y,z
1/2+x,1/2-y,1/2+z
loop_
_atom_site_type_symbol
_atom_site_label
_atom_site_fract_x
_atom_site_fract_y
_atom_site_fract_z
Si Si1 0.737812 0.282495 0.180044
Si Si2 0.763086 0.609542 0.134947
Si Si3 0.801670 0.808062 0.523369
Si Si4 0.686482 0.591075 0.590203
Si Si5 0.641587 0.191525 0.887575
Si Si6 0.850937 0.038218 0.320157
Si Si7 0.934382 0.189508 0.322174
Si Si8 0.316165 0.975354 0.069015
O O1 0.734630 0.302760 0.250000
O O2 0.719286 0.191469 0.167130
O O3 0.700200 0.341596 0.139908
O O4 0.803440 0.292152 0.156400
O O5 0.727950 0.636168 0.074297
O O6 0.715922 0.565517 0.176530
O O7 0.814319 0.551973 0.113443
O O8 0.750000 0.750000 0.500000
O O9 0.829839 0.862515 0.471255
O O10 0.846060 0.747681 0.554464
O O11 0.646662 0.527077 0.625377
O O12 0.749031 0.553398 0.572732
O O13 0.586974 0.229692 0.854782
O O14 0.645701 0.098941 0.907412
O O15 0.863473 0.012605 0.250000
O O16 0.890914 0.115271 0.334625
O O17 0.931642 0.202175 0.250000
O O18 0.000000 0.169134 0.338670
O O19 0.329256 0.000000 0.000000
#
# Coordination Sequence:
#
# PCOD9468239 Si02
#       8
#    16  16  16  16  16  16  16  16
#     4  10  17  27  41  62  96 130 156 184 226 281
#     4  10  17  25  43  63  95 127 152 187 218 284
#     4  11  15  28  42  67  93 127 163 181 223 276
#     4  10  19  26  43  65  95 128 156 187 222 284
#     4  10  19  29  47  67  92 123 154 206 231 278
#     4  10  19  31  44  65  90 119 156 196 242 278
#     4  10  20  36  55  70  88 121 166 207 243 280
#     4  10  17  26  41  65  95 122 154 182 224 279
#
# _framework density 15.028949000000001
#
# number of rings (size 3 to 8) (size 9 to 14) (size 15 to 20)
#    0.000    1.875    7.500    1.125    0.000    0.000 
#    0.000    1.875    0.000    1.875    0.000    0.000 
#    0.000    0.000    0.000    3.625    0.000    0.000 
#
# Total GULP energy -356357.203370 kJ/mol
# GULP energy per Si atom -5568.081303 kJ/mol
# Density = 1.499474 g / cm^3
# Si number density = 15.028949 Si / 1000 Ang^3
#
#
#
# Elastic Constant Matrix: (Units=GPa)
#
#
# Indices 1 2 3 4 5 6 
#
# 1 30.1183 7.4403 6.3686 0.0000 0.0000 0.0000
# 2 7.4403 44.1366 7.7750 0.0000 0.0000 0.0000
# 3 6.3686 7.7750 62.6440 0.0000 0.0000 0.0000
# 4 0.0000 0.0000 0.0000 23.9977 0.0000 0.0000
# 5 0.0000 0.0000 0.0000 0.0000 10.5554 0.0000
# 6 0.0000 0.0000 0.0000 0.0000 0.0000 7.4411
#
#
#
# Elastic Compliance Matrix: (Units=1/GPa)
#
#
# Indices 1 2 3 4 5 6 
#
# 1 0.035154 -0.005415 -0.002902 0.000000 0.000000 0.000000
# 2 -0.005415 0.023997 -0.002428 0.000000 0.000000 0.000000
# 3 -0.002902 -0.002428 0.016560 0.000000 0.000000 0.000000
# 4 0.000000 0.000000 0.000000 0.041671 0.000000 0.000000
# 5 0.000000 0.000000 0.000000 0.000000 0.094738 0.000000
# 6 0.000000 0.000000 0.000000 0.000000 0.000000 0.134389
#
#
# Mechanical properties :
#
#
# Convention : Reuss Voigt Hill
#
# Bulk Modulus (GPa) = 18.44283 20.00739 19.22511
# Shear Modulus (GPa) = 12.95099 16.08652 14.51875
#
# Velocity S-wave (km/s) = 2.93872 3.27520 3.11151
# Velocity P-wave (km/s) = 4.87985 5.25776 5.07233
#
# Compressibility (1/GPa) = 0.05422163
#
# Stress axis : x y z
#
# Youngs Moduli (GPa) = 28.44652 41.67111 60.38803
#
# Poissons Ratio (x) = 0.22564 0.17523
# Poissons Ratio (y) = 0.15403 0.14662
# Poissons Ratio (z) = 0.08255 0.10117
#
# Static dielectric constant tensor:
#      x y z
#    x 1.459380 0.000000 0.000000 
#    y 0.000000 1.553980 0.000000 
#    z 0.000000 0.000000 1.533930 
# 
# From -- ./inp_files/57768.got.cif
#   From: 2010.05.17/outbox.cif.g08.bks.cpg/sg63_29_cif.got.tgz:57768.got - 2010.06.03 15:47:04.
