data_PCOD9468464
_publ_section_title
;
Structure prediction by ZEFSAII (Michael W. Deem and Ramdas Pophale) SiO2 
 PCOD9468464
Probable space group: C M C M
;
_chemical_formula_sum "Si O2"
_cell_formula_units_Z 112
_cell_length_a 30.427213
_cell_length_b 14.402022
_cell_length_c 13.858718
_cell_angle_alpha 90.000000
_cell_angle_beta 90.000000
_cell_angle_gamma 90.000000
_cell_volume 6073.075810
_symmetry_space_group_name_H-M "C M C M"
_symmetry_group_IT_number 63
_symmetry_cell_setting 'orthorhombic'
loop_
_space_group_symop_operation_xyz
x,y,z
-x,-y,1/2+z
x,-y,-z
-x,y,1/2-z
-x,-y,-z
x,y,1/2-z
-x,y,z
x,-y,1/2+z
1/2+x,1/2+y,z
1/2-x,1/2-y,1/2+z
1/2+x,1/2-y,-z
1/2-x,1/2+y,1/2-z
1/2-x,1/2-y,-z
1/2+x,1/2+y,1/2-z
1/2-x,1/2+y,z
1/2+x,1/2-y,1/2+z
loop_
_atom_site_type_symbol
_atom_site_label
_atom_site_fract_x
_atom_site_fract_y
_atom_site_fract_z
Si Si1 0.180449 0.161281 0.132372
Si Si2 0.000000 0.032736 0.391632
Si Si3 0.500000 0.319185 0.143652
Si Si4 0.183080 0.263868 0.632565
Si Si5 0.096756 0.051357 0.136040
Si Si6 0.228761 0.656830 0.867562
Si Si7 0.094816 0.837649 0.131200
Si Si8 0.768502 0.553189 0.132261
O O1 0.180144 0.164751 0.250000
O O2 0.193898 0.264958 0.100597
O O3 0.134131 0.120204 0.098892
O O4 0.220190 0.091696 0.105915
O O5 0.046048 0.082320 0.372684
O O6 0.000000 0.931325 0.342726
O O7 0.000000 0.000000 0.500000
O O8 0.500000 0.274922 0.250000
O O9 0.547269 0.300507 0.096854
O O10 0.182653 0.263831 0.750000
O O11 0.223160 0.195692 0.605338
O O12 0.136272 0.223794 0.602503
O O13 0.196815 0.367612 0.603165
O O14 0.105678 0.042912 0.250000
O O15 0.099554 0.945101 0.099058
O O16 0.227539 0.655448 0.750000
O O17 0.223069 0.551485 0.900972
O O18 0.092834 0.838561 0.250000
O O19 0.768962 0.550875 0.250000
#
# Coordination Sequence:
#
# PCOD9468464 Si02
#       8
#    16   8   8  16  16  16  16  16
#     4   8  13  19  29  45  64  91 122 142 164 204
#     4  10  18  26  36  52  73  92 112 142 179 212
#     4   8  14  24  36  50  69  92 115 138 169 208
#     4   8  12  16  24  40  62  90 119 141 169 206
#     4   9  15  24  37  51  69  94 120 142 168 206
#     4   8  12  17  24  38  63  91 116 142 169 199
#     4   8  12  18  29  44  62  85 112 139 165 201
#     4   8  12  17  25  41  68  95 116 144 177 203
#
# _framework density 18.442055
#
# number of rings (size 3 to 8) (size 9 to 14) (size 15 to 20)
#    0.000    3.714    0.000    4.071    0.000    3.429 
#    0.000    0.000    0.000    0.000    0.000    1.000 
#    0.000   35.429    0.000    6.286    0.000    5.714 
#
# Total GULP energy -312228.936071 kJ/mol
# GULP energy per Si atom -5575.516716 kJ/mol
# Density = 1.840008 g / cm^3
# Si number density = 18.442055 Si / 1000 Ang^3
#
#
#
# Elastic Constant Matrix: (Units=GPa)
#
#
# Indices 1 2 3 4 5 6 
#
# 1 191.3655 99.5405 1.0226 0.0000 0.0000 0.0000
# 2 99.5405 144.6851 13.8494 0.0000 0.0000 0.0000
# 3 1.0226 13.8494 50.7902 0.0000 0.0000 0.0000
# 4 0.0000 0.0000 0.0000 18.8589 0.0000 0.0000
# 5 0.0000 0.0000 0.0000 0.0000 -1.5089 0.0000
# 6 0.0000 0.0000 0.0000 0.0000 0.0000 21.2446
#
#
#
# Elastic Compliance Matrix: (Units=1/GPa)
#
#
# Indices 1 2 3 4 5 6 
#
# 1 0.008236 -0.005802 0.001416 0.000000 0.000000 0.000000
# 2 -0.005802 0.011184 -0.002933 0.000000 0.000000 0.000000
# 3 0.001416 -0.002933 0.020460 0.000000 0.000000 0.000000
# 4 0.000000 0.000000 0.000000 0.053025 0.000000 0.000000
# 5 0.000000 0.000000 0.000000 0.000000 -0.662723 0.000000
# 6 0.000000 0.000000 0.000000 0.000000 0.000000 0.047071
#
#
# Mechanical properties :
#
#
# Convention : Reuss Voigt Hill
#
# Bulk Modulus (GPa) = 39.61480 68.40732 54.01106
# Shear Modulus (GPa) = -10.00607 25.88079 7.93736
#
# Velocity S-wave (km/s) = -2.33184 3.75020 2.07685
# Velocity P-wave (km/s) = 3.77854 7.47835 5.92465
#
# Compressibility (1/GPa) = 0.02524309
#
# Stress axis : x y z
#
# Youngs Moduli (GPa) = 121.42105 89.41595 48.87582
#
# Poissons Ratio (x) = 0.51876 -0.06922
# Poissons Ratio (y) = 0.70444 0.14334
# Poissons Ratio (z) = -0.17195 0.26223
#
# Static dielectric constant tensor:
#      x y z
#    x 1.646210 0.000000 0.000000 
#    y 0.000000 1.609890 0.000000 
#    z 0.000000 0.000000 1.709960 
# 
# From -- ./inp_files/49652.got.cif
#   From: 2010.05.17/outbox.cif.g08.bks.cpg/sg63_25_cif.got.tgz:49652.got - 2010.06.03 15:47:04.
