data_PCOD9468338
_publ_section_title
;
Structure prediction by ZEFSAII (Michael W. Deem and Ramdas Pophale) SiO2 
 PCOD9468338
Probable space group: C M C M
;
_chemical_formula_sum "Si O2"
_cell_formula_units_Z 64
_cell_length_a 10.891290
_cell_length_b 16.984382
_cell_length_c 14.878574
_cell_angle_alpha 90.000000
_cell_angle_beta 90.000000
_cell_angle_gamma 90.000000
_cell_volume 2752.265844
_symmetry_space_group_name_H-M "C M C M"
_symmetry_group_IT_number 63
_symmetry_cell_setting 'orthorhombic'
loop_
_space_group_symop_operation_xyz
x,y,z
-x,-y,1/2+z
x,-y,-z
-x,y,1/2-z
-x,-y,-z
x,y,1/2-z
-x,y,z
x,-y,1/2+z
1/2+x,1/2+y,z
1/2-x,1/2-y,1/2+z
1/2+x,1/2-y,-z
1/2-x,1/2+y,1/2-z
1/2-x,1/2-y,-z
1/2+x,1/2+y,1/2-z
1/2-x,1/2+y,z
1/2+x,1/2-y,1/2+z
loop_
_atom_site_type_symbol
_atom_site_label
_atom_site_fract_x
_atom_site_fract_y
_atom_site_fract_z
Si Si1 0.000000 0.301066 0.610434
Si Si2 0.733442 0.532165 0.898275
Si Si3 0.500000 0.739558 0.094715
Si Si4 0.760901 0.217311 0.602526
Si Si5 0.500000 0.985813 0.891874
Si Si6 0.000000 0.070626 0.151517
O O1 0.125120 0.262775 0.644934
O O2 0.000000 0.283016 0.502518
O O3 0.000000 0.393217 0.624866
O O4 0.710849 0.625101 0.897622
O O5 0.620817 0.483164 0.857365
O O6 0.869798 0.518934 0.858570
O O7 0.738793 0.500000 0.000000
O O8 0.373455 0.764786 0.140942
O O9 0.500000 0.644571 0.083674
O O10 0.750000 0.250000 0.500000
O O11 0.500000 0.000000 0.000000
O O12 0.000000 0.107981 0.250000
#
# Coordination Sequence:
#
# PCOD9468338 Si02
#       6
#     8  16   8  16   8   8
#     4  10  17  28  48  82 114 136 170 222 280 336
#     4  11  20  36  61  88 117 148 186 239 297 347
#     4  10  18  34  53  75 110 147 184 227 277 328
#     4  10  18  30  53  85 112 137 178 228 285 344
#     4  10  18  31  56  91 118 137 176 235 294 346
#     4  12  26  41  55  80 118 162 205 238 275 338
#
# _framework density 23.253567
#
# number of rings (size 3 to 8) (size 9 to 14) (size 15 to 20)
#    0.000    1.500    0.000   12.375    0.000    0.000 
#    0.000    1.875    0.000    0.000    0.000    0.000 
#    0.000    0.000    0.000    0.000    0.000    0.000 
#
# Total GULP energy -178897.505384 kJ/mol
# GULP energy per Si atom -5590.547043 kJ/mol
# Density = 2.320064 g / cm^3
# Si number density = 23.253567 Si / 1000 Ang^3
#
#
#
# Elastic Constant Matrix: (Units=GPa)
#
#
# Indices 1 2 3 4 5 6 
#
# 1 128.7098 -24.0635 2.9700 0.0000 0.0000 0.0000
# 2 -24.0635 133.0104 -11.5642 0.0000 0.0000 0.0000
# 3 2.9700 -11.5642 62.9331 0.0000 0.0000 0.0000
# 4 0.0000 0.0000 0.0000 -5.1585 0.0000 0.0000
# 5 0.0000 0.0000 0.0000 0.0000 -39.0933 0.0000
# 6 0.0000 0.0000 0.0000 0.0000 0.0000 51.1446
#
#
#
# Elastic Compliance Matrix: (Units=1/GPa)
#
#
# Indices 1 2 3 4 5 6 
#
# 1 0.008042 0.001445 -0.000114 0.000000 0.000000 0.000000
# 2 0.001445 0.007900 0.001383 0.000000 0.000000 0.000000
# 3 -0.000114 0.001383 0.016149 0.000000 0.000000 0.000000
# 4 0.000000 0.000000 0.000000 -0.193854 0.000000 0.000000
# 5 0.000000 0.000000 0.000000 0.000000 -0.025580 0.000000
# 6 0.000000 0.000000 0.000000 0.000000 0.000000 0.019552
#
#
# Mechanical properties :
#
#
# Convention : Reuss Voigt Hill
#
# Bulk Modulus (GPa) = 26.65204 28.81531 27.73367
# Shear Modulus (GPa) = -31.11164 25.19931 -2.95617
#
# Velocity S-wave (km/s) = -3.66174 3.29549 -1.12873
# Velocity P-wave (km/s) = 2.52813 5.18643 3.20216
#
# Compressibility (1/GPa) = 0.03752058
#
# Stress axis : x y z
#
# Youngs Moduli (GPa) = 124.34391 126.58360 61.92150
#
# Poissons Ratio (x) = -0.18292 0.00706
# Poissons Ratio (y) = -0.17968 -0.08567
# Poissons Ratio (z) = 0.01418 -0.17512
#
# Static dielectric constant tensor:
#      x y z
#    x 2.233800 0.000000 0.000000 
#    y 0.000000 1.808400 0.000000 
#    z 0.000000 0.000000 1.812530 
# 
# From -- ./inp_files/41593.got.cif
#   From: 2010.05.17/outbox.cif.g08.bks.cpg/sg63_21_cif.got.tgz:41593.got - 2010.06.03 15:47:04.
