data_PCOD9468617
_publ_section_title
;
Structure prediction by ZEFSAII (Michael W. Deem and Ramdas Pophale) SiO2 
 PCOD9468617
Probable space group: C M C M
;
_chemical_formula_sum "Si O2"
_cell_formula_units_Z 96
_cell_length_a 7.547388
_cell_length_b 19.084512
_cell_length_c 33.331034
_cell_angle_alpha 90.000000
_cell_angle_beta 90.000000
_cell_angle_gamma 90.000000
_cell_volume 4800.942703
_symmetry_space_group_name_H-M "C M C M"
_symmetry_group_IT_number 63
_symmetry_cell_setting 'orthorhombic'
loop_
_space_group_symop_operation_xyz
x,y,z
-x,-y,1/2+z
x,-y,-z
-x,y,1/2-z
-x,-y,-z
x,y,1/2-z
-x,y,z
x,-y,1/2+z
1/2+x,1/2+y,z
1/2-x,1/2-y,1/2+z
1/2+x,1/2-y,-z
1/2-x,1/2+y,1/2-z
1/2-x,1/2-y,-z
1/2+x,1/2+y,1/2-z
1/2-x,1/2+y,z
1/2+x,1/2-y,1/2+z
loop_
_atom_site_type_symbol
_atom_site_label
_atom_site_fract_x
_atom_site_fract_y
_atom_site_fract_z
Si Si1 0.282149 0.922151 0.163177
Si Si2 0.296946 0.568738 0.250000
Si Si3 0.300114 0.090066 0.750000
Si Si4 0.212266 0.666729 0.498975
Si Si5 0.711627 0.162237 0.586019
Si Si6 0.713972 0.172576 0.088200
Si Si7 0.712872 0.084151 0.336525
O O1 0.500000 0.920941 0.164302
O O2 0.220380 0.893191 0.206503
O O3 0.220790 0.879044 0.124659
O O4 0.228162 0.003371 0.159650
O O5 0.500000 0.546755 0.250000
O O6 0.190861 0.495443 0.250000
O O7 0.260667 0.607994 0.291548
O O8 0.500000 0.118492 0.750000
O O9 0.250000 0.750000 0.500000
O O10 0.280763 0.639574 0.541898
O O11 0.278228 0.643640 0.455121
O O12 0.000000 0.656631 0.499082
O O13 0.500000 0.151108 0.585202
O O14 0.742411 0.245213 0.590678
O O15 0.500000 0.167329 0.087746
O O16 0.780355 0.131011 0.126930
O O17 0.500000 0.083926 0.338738
#
# Coordination Sequence:
#
# PCOD9468617 Si02
#       7
#    16   8   8  16  16  16  16
#     4   8  14  26  45  65  83 111 147 176 209 255
#     4  10  18  28  45  68  89 109 141 181 215 252
#     4   8  14  28  47  62  83 117 149 171 203 260
#     4   8  14  25  41  61  84 112 145 178 213 255
#     4   9  16  27  44  65  89 114 144 184 223 256
#     4   9  17  29  45  64  86 115 149 179 212 258
#     4   9  17  31  48  63  85 117 147 174 210 261
#
# _framework density 19.996072999999999
#
# number of rings (size 3 to 8) (size 9 to 14) (size 15 to 20)
#    0.000    3.333    0.000    1.750    0.000    0.667 
#    0.000    5.000    0.000    6.000    0.000    0.000 
#    0.000   18.667    0.000    0.000    0.000    0.000 
#
# Total GULP energy -267209.946518 kJ/mol
# GULP energy per Si atom -5566.873886 kJ/mol
# Density = 1.995056 g / cm^3
# Si number density = 19.996073 Si / 1000 Ang^3
#
#
#
# Elastic Constant Matrix: (Units=GPa)
#
#
# Indices 1 2 3 4 5 6 
#
# 1 54.0298 -2.2025 5.0104 0.0000 0.0000 0.0000
# 2 -2.2025 34.7111 69.4301 0.0000 0.0000 0.0000
# 3 5.0104 69.4301 274.0944 0.0000 0.0000 0.0000
# 4 0.0000 0.0000 0.0000 36.3768 0.0000 0.0000
# 5 0.0000 0.0000 0.0000 0.0000 1.5604 0.0000
# 6 0.0000 0.0000 0.0000 0.0000 0.0000 7.5968
#
#
#
# Elastic Compliance Matrix: (Units=1/GPa)
#
#
# Indices 1 2 3 4 5 6 
#
# 1 0.018785 0.003808 -0.001308 0.000000 0.000000 0.000000
# 2 0.003808 0.059170 -0.015058 0.000000 0.000000 0.000000
# 3 -0.001308 -0.015058 0.007487 0.000000 0.000000 0.000000
# 4 0.000000 0.000000 0.000000 0.027490 0.000000 0.000000
# 5 0.000000 0.000000 0.000000 0.000000 0.640847 0.000000
# 6 0.000000 0.000000 0.000000 0.000000 0.000000 0.131635
#
#
# Mechanical properties :
#
#
# Convention : Reuss Voigt Hill
#
# Bulk Modulus (GPa) = 16.57646 56.36792 36.47219
# Shear Modulus (GPa) = 5.37266 28.47994 16.92630
#
# Velocity S-wave (km/s) = 1.64094 3.77805 2.91259
# Velocity P-wave (km/s) = 3.44936 6.87621 5.43969
#
# Compressibility (1/GPa) = 0.06032652
#
# Stress axis : x y z
#
# Youngs Moduli (GPa) = 53.23432 16.90044 133.57292
#
# Poissons Ratio (x) = -0.06436 0.17473
# Poissons Ratio (y) = -0.20274 2.01132
# Poissons Ratio (z) = 0.06964 0.25448
#
# Static dielectric constant tensor:
#      x y z
#    x 1.745130 0.000000 0.000000 
#    y 0.000000 1.647610 0.000000 
#    z 0.000000 0.000000 1.789470 
# 
# From -- ./inp_files/67302.got.cif
#   From: 2010.05.17/outbox.cif.g08.bks.cpg/sg63_34_cif.got.tgz:67302.got - 2010.06.03 15:47:04.
