data_PCOD9468928
_publ_section_title
;
Structure prediction by ZEFSAII (Michael W. Deem and Ramdas Pophale) SiO2 
 PCOD9468928
Probable space group: C M C M
;
_chemical_formula_sum "Si O2"
_cell_formula_units_Z 80
_cell_length_a 26.575965
_cell_length_b 19.509564
_cell_length_c 8.680015
_cell_angle_alpha 90.000000
_cell_angle_beta 90.000000
_cell_angle_gamma 90.000000
_cell_volume 4500.461831
_symmetry_space_group_name_H-M "C M C M"
_symmetry_group_IT_number 63
_symmetry_cell_setting 'orthorhombic'
loop_
_space_group_symop_operation_xyz
x,y,z
-x,-y,1/2+z
x,-y,-z
-x,y,1/2-z
-x,-y,-z
x,y,1/2-z
-x,y,z
x,-y,1/2+z
1/2+x,1/2+y,z
1/2-x,1/2-y,1/2+z
1/2+x,1/2-y,-z
1/2-x,1/2+y,1/2-z
1/2-x,1/2-y,-z
1/2+x,1/2+y,1/2-z
1/2-x,1/2+y,z
1/2+x,1/2-y,1/2+z
loop_
_atom_site_type_symbol
_atom_site_label
_atom_site_fract_x
_atom_site_fract_y
_atom_site_fract_z
Si Si1 0.500000 0.922370 0.565913
Si Si2 0.808813 0.670377 0.066856
Si Si3 0.000000 0.922354 0.066164
Si Si4 0.104323 0.576797 0.566840
Si Si5 0.603928 0.423350 0.934455
Si Si6 0.806112 0.821246 0.565008
O O1 0.500000 0.923475 0.750000
O O2 0.552471 0.892798 0.503551
O O3 0.500000 0.000000 0.500000
O O4 0.815349 0.662182 0.250000
O O5 0.750503 0.654403 0.027179
O O6 0.848425 0.622676 0.980671
O O7 0.815927 0.749505 0.019081
O O8 0.000000 0.923862 0.250000
O O9 0.052263 0.892609 0.003435
O O10 0.000000 0.000000 0.000000
O O11 0.110765 0.500000 0.500000
O O12 0.099183 0.572414 0.750000
O O13 0.598976 0.427518 0.750000
O O14 0.651654 0.376721 0.973564
O O15 0.610382 0.500000 0.000000
O O16 0.807465 0.809317 0.750000
#
# Coordination Sequence:
#
# PCOD9468928 Si02
#       6
#     8  16   8  16  16  16
#     4  10  18  32  53  78 107 138 173 213 261 311
#     4  10  20  36  56  78 105 138 176 217 263 314
#     4  10  18  30  49  74 103 134 169 207 255 307
#     4  11  21  35  55  80 109 140 176 216 260 310
#     4  10  19  33  53  77 105 135 171 212 256 305
#     4   9  20  37  55  76 104 139 176 216 264 315
#
# _framework density 17.775953999999999
#
# number of rings (size 3 to 8) (size 9 to 14) (size 15 to 20)
#    0.000    2.000    0.000    7.200    0.000    3.200 
#    0.000    3.000    0.000    3.600    0.000    0.000 
#    0.000    0.000    0.000    0.000    0.000    0.000 
#
# Total GULP energy -223221.425478 kJ/mol
# GULP energy per Si atom -5580.535637 kJ/mol
# Density = 1.773549 g / cm^3
# Si number density = 17.775954 Si / 1000 Ang^3
#
#
#
# Elastic Constant Matrix: (Units=GPa)
#
#
# Indices 1 2 3 4 5 6 
#
# 1 173.2439 73.5766 79.2137 0.0000 0.0000 0.0000
# 2 73.5766 49.1699 41.1692 0.0000 0.0000 0.0000
# 3 79.2137 41.1692 122.7247 0.0000 0.0000 0.0000
# 4 0.0000 0.0000 0.0000 27.6348 0.0000 0.0000
# 5 0.0000 0.0000 0.0000 0.0000 6.6747 0.0000
# 6 0.0000 0.0000 0.0000 0.0000 0.0000 -53.5917
#
#
#
# Elastic Compliance Matrix: (Units=1/GPa)
#
#
# Indices 1 2 3 4 5 6 
#
# 1 0.016769 -0.022292 -0.003346 0.000000 0.000000 0.000000
# 2 -0.022292 0.057914 -0.005039 0.000000 0.000000 0.000000
# 3 -0.003346 -0.005039 0.011999 0.000000 0.000000 0.000000
# 4 0.000000 0.000000 0.000000 0.036186 0.000000 0.000000
# 5 0.000000 0.000000 0.000000 0.000000 0.149820 0.000000
# 6 0.000000 0.000000 0.000000 0.000000 0.000000 -0.018660
#
#
# Mechanical properties :
#
#
# Convention : Reuss Voigt Hill
#
# Bulk Modulus (GPa) = 39.48261 81.45084 60.46673
# Shear Modulus (GPa) = 15.44043 6.22215 10.83129
#
# Velocity S-wave (km/s) = 2.95042 1.87294 2.47112
# Velocity P-wave (km/s) = 5.81946 7.11319 6.49860
#
# Compressibility (1/GPa) = 0.02532761
#
# Stress axis : x y z
#
# Youngs Moduli (GPa) = 59.63225 17.26697 83.34374
#
# Poissons Ratio (x) = 0.38491 0.27886
# Poissons Ratio (y) = 1.32931 0.42000
# Poissons Ratio (z) = 0.19953 0.08701
#
# Static dielectric constant tensor:
#      x y z
#    x 1.642500 0.000000 0.000000 
#    y 0.000000 1.577050 0.000000 
#    z 0.000000 0.000000 1.599880 
# 
# From -- ./inp_files/12143.got.cif
#   From: 2010.05.17/outbox.cif.g08.bks.cpg/sg63_7_cif.got.tgz:12143.got - 2010.06.03 15:47:04.
