data_PCOD9468128
_publ_section_title
;
Structure prediction by ZEFSAII (Michael W. Deem and Ramdas Pophale) SiO2 
 PCOD9468128
Probable space group: C M C M
;
_chemical_formula_sum "Si O2"
_cell_formula_units_Z 88
_cell_length_a 14.301607
_cell_length_b 13.098357
_cell_length_c 21.635185
_cell_angle_alpha 90.000000
_cell_angle_beta 90.000000
_cell_angle_gamma 90.000000
_cell_volume 4052.866290
_symmetry_space_group_name_H-M "C M C M"
_symmetry_group_IT_number 63
_symmetry_cell_setting 'orthorhombic'
loop_
_space_group_symop_operation_xyz
x,y,z
-x,-y,1/2+z
x,-y,-z
-x,y,1/2-z
-x,-y,-z
x,y,1/2-z
-x,y,z
x,-y,1/2+z
1/2+x,1/2+y,z
1/2-x,1/2-y,1/2+z
1/2+x,1/2-y,-z
1/2-x,1/2+y,1/2-z
1/2-x,1/2-y,-z
1/2+x,1/2+y,1/2-z
1/2-x,1/2+y,z
1/2+x,1/2-y,1/2+z
loop_
_atom_site_type_symbol
_atom_site_label
_atom_site_fract_x
_atom_site_fract_y
_atom_site_fract_z
Si Si1 0.896646 0.595309 0.675721
Si Si2 0.000000 0.661306 0.177740
Si Si3 0.100535 0.822578 0.875975
Si Si4 0.500000 0.621808 0.491535
Si Si5 0.296816 0.168474 0.322553
Si Si6 0.690850 0.416759 0.178376
Si Si7 0.000000 0.880637 0.370850
O O1 0.892378 0.615231 0.750000
O O2 0.898310 0.702270 0.639540
O O3 0.795661 0.546146 0.661255
O O4 0.000000 0.547224 0.664835
O O5 0.897895 0.636354 0.150673
O O6 0.000000 0.786032 0.176230
O O7 0.000000 0.630589 0.250000
O O8 0.197667 0.863764 0.850587
O O9 0.000000 0.858307 0.848138
O O10 0.086637 0.843751 0.948734
O O11 0.500000 0.500000 0.500000
O O12 0.500000 0.664606 0.560159
O O13 0.297011 0.142354 0.250000
O O14 0.298134 0.292858 0.325747
O O15 0.672184 0.442505 0.250000
O O16 0.597620 0.439610 0.139151
#
# Coordination Sequence:
#
# PCOD9468128 Si02
#       7
#    16   8  16   8  16  16   8
#     4   8  12  21  40  64  88 107 118 141 189 251
#     4   8  14  24  42  68  94 109 115 132 186 265
#     4   8  15  25  39  53  75 103 140 168 196 228
#     4  10  22  34  39  47  68 110 159 189 208 212
#     4   8  12  21  39  64  88 105 117 142 190 252
#     4   8  13  21  38  62  83 103 123 144 187 250
#     4  10  16  26  40  53  75 113 136 161 197 229
#
# _framework density 21.713028999999999
#
# number of rings (size 3 to 8) (size 9 to 14) (size 15 to 20)
#    0.545    3.091    0.000    3.545    0.000    1.091 
#    0.000    8.182    0.000    6.545    0.000    0.636 
#    0.000    0.000    3.273    0.000    0.000    0.000 
#
# Total GULP energy -245043.355073 kJ/mol
# GULP energy per Si atom -5569.167161 kJ/mol
# Density = 2.166361 g / cm^3
# Si number density = 21.713029 Si / 1000 Ang^3
#
#
#
# Elastic Constant Matrix: (Units=GPa)
#
#
# Indices 1 2 3 4 5 6 
#
# 1 255.3392 27.5953 49.3644 0.0000 0.0000 0.0000
# 2 27.5953 57.0978 3.2306 0.0000 0.0000 0.0000
# 3 49.3644 3.2306 49.5510 0.0000 0.0000 0.0000
# 4 0.0000 0.0000 0.0000 10.7315 0.0000 0.0000
# 5 0.0000 0.0000 0.0000 0.0000 13.1839 0.0000
# 6 0.0000 0.0000 0.0000 0.0000 0.0000 54.8767
#
#
#
# Elastic Compliance Matrix: (Units=1/GPa)
#
#
# Indices 1 2 3 4 5 6 
#
# 1 0.005109 -0.002189 -0.004947 0.000000 0.000000 0.000000
# 2 -0.002189 0.018517 0.000974 0.000000 0.000000 0.000000
# 3 -0.004947 0.000974 0.025047 0.000000 0.000000 0.000000
# 4 0.000000 0.000000 0.000000 0.093183 0.000000 0.000000
# 5 0.000000 0.000000 0.000000 0.000000 0.075850 0.000000
# 6 0.000000 0.000000 0.000000 0.000000 0.000000 0.018223
#
#
# Mechanical properties :
#
#
# Convention : Reuss Voigt Hill
#
# Bulk Modulus (GPa) = 27.51258 58.04093 42.77676
# Shear Modulus (GPa) = 19.20339 34.54494 26.87417
#
# Velocity S-wave (km/s) = 2.97714 3.99303 3.52191
# Velocity P-wave (km/s) = 4.95140 6.93167 6.02347
#
# Compressibility (1/GPa) = 0.03634700
#
# Stress axis : x y z
#
# Youngs Moduli (GPa) = 195.71486 54.00481 39.92558
#
# Poissons Ratio (x) = 0.11824 0.19753
# Poissons Ratio (y) = 0.42851 -0.03889
# Poissons Ratio (z) = 0.96830 -0.05260
#
# Static dielectric constant tensor:
#      x y z
#    x 1.869890 0.000000 0.000000 
#    y 0.000000 1.948650 0.000000 
#    z 0.000000 0.000000 1.729180 
# 
# From -- ./inp_files/54453.got.cif
#   From: 2010.05.17/outbox.cif.g08.bks.cpg/sg63_28_cif.got.tgz:54453.got - 2010.06.03 15:47:04.
