data_PCOD9468480
_publ_section_title
;
Structure prediction by ZEFSAII (Michael W. Deem and Ramdas Pophale) SiO2 
 PCOD9468480
Probable space group: C M C M
;
_chemical_formula_sum "Si O2"
_cell_formula_units_Z 80
_cell_length_a 19.224557
_cell_length_b 23.465239
_cell_length_c 9.517429
_cell_angle_alpha 90.000000
_cell_angle_beta 90.000000
_cell_angle_gamma 90.000000
_cell_volume 4293.396210
_symmetry_space_group_name_H-M "C M C M"
_symmetry_group_IT_number 63
_symmetry_cell_setting 'orthorhombic'
loop_
_space_group_symop_operation_xyz
x,y,z
-x,-y,1/2+z
x,-y,-z
-x,y,1/2-z
-x,-y,-z
x,y,1/2-z
-x,y,z
x,-y,1/2+z
1/2+x,1/2+y,z
1/2-x,1/2-y,1/2+z
1/2+x,1/2-y,-z
1/2-x,1/2+y,1/2-z
1/2-x,1/2-y,-z
1/2+x,1/2+y,1/2-z
1/2-x,1/2+y,z
1/2+x,1/2-y,1/2+z
loop_
_atom_site_type_symbol
_atom_site_label
_atom_site_fract_x
_atom_site_fract_y
_atom_site_fract_z
Si Si1 0.866833 0.763160 0.413252
Si Si2 0.922973 0.059468 0.918411
Si Si3 0.000000 0.633462 0.080997
Si Si4 0.785473 0.870960 0.083940
Si Si5 0.152609 0.626639 0.088102
Si Si6 0.000000 0.753192 0.917964
O O1 0.887703 0.773887 0.250000
O O2 0.802015 0.804219 0.442520
O O3 0.852263 0.695849 0.425117
O O4 0.929928 0.778701 0.516141
O O5 0.919674 0.050350 0.750000
O O6 0.856451 0.097063 0.957499
O O7 0.000000 0.084615 0.948264
O O8 0.918953 0.000000 0.000000
O O9 0.074625 0.604482 0.054599
O O10 0.000000 0.649015 0.250000
O O11 0.000000 0.689165 0.983004
O O12 0.775444 0.878156 0.250000
O O13 0.716917 0.891823 0.005762
O O14 0.167222 0.613373 0.250000
O O15 0.000000 0.753517 0.750000
#
# Coordination Sequence:
#
# PCOD9468480 Si02
#       6
#    16  16   8  16  16   8
#     4   9  18  31  45  62  94 137 166 193 238 295
#     4   9  19  36  55  74  96 126 164 205 250 298
#     4   8  16  32  48  62  89 132 167 188 229 288
#     4  10  20  31  49  73  95 125 164 201 244 297
#     4   9  17  30  47  69  98 131 165 198 234 282
#     4  10  18  26  40  64  89 120 165 210 237 266
#
# _framework density 18.633268000000001
#
# number of rings (size 3 to 8) (size 9 to 14) (size 15 to 20)
#    0.000    2.800    0.000    2.700    1.400    4.800 
#    0.000    0.000    0.000    0.000    0.000    0.700 
#    0.000    0.000    0.000    0.000    0.000    0.000 
#
# Total GULP energy -222794.406925 kJ/mol
# GULP energy per Si atom -5569.860173 kJ/mol
# Density = 1.859086 g / cm^3
# Si number density = 18.633268 Si / 1000 Ang^3
#
#
#
# Elastic Constant Matrix: (Units=GPa)
#
#
# Indices 1 2 3 4 5 6 
#
# 1 167.9188 13.9974 70.0562 0.0000 0.0000 0.0000
# 2 13.9974 13.8290 7.1758 0.0000 0.0000 0.0000
# 3 70.0562 7.1758 54.3489 0.0000 0.0000 0.0000
# 4 0.0000 0.0000 0.0000 13.2554 0.0000 0.0000
# 5 0.0000 0.0000 0.0000 0.0000 36.4498 0.0000
# 6 0.0000 0.0000 0.0000 0.0000 0.0000 16.0142
#
#
#
# Elastic Compliance Matrix: (Units=1/GPa)
#
#
# Indices 1 2 3 4 5 6 
#
# 1 0.013181 -0.004858 -0.016349 0.000000 0.000000 0.000000
# 2 -0.004858 0.079421 -0.004224 0.000000 0.000000 0.000000
# 3 -0.016349 -0.004224 0.040032 0.000000 0.000000 0.000000
# 4 0.000000 0.000000 0.000000 0.075441 0.000000 0.000000
# 5 0.000000 0.000000 0.000000 0.000000 0.027435 0.000000
# 6 0.000000 0.000000 0.000000 0.000000 0.000000 0.062445
#
#
# Mechanical properties :
#
#
# Convention : Reuss Voigt Hill
#
# Bulk Modulus (GPa) = 12.22925 46.50618 29.36772
# Shear Modulus (GPa) = 13.29525 22.80168 18.04847
#
# Velocity S-wave (km/s) = 2.67408 3.50195 3.11563
# Velocity P-wave (km/s) = 4.01393 6.43152 5.36079
#
# Compressibility (1/GPa) = 0.08177114
#
# Stress axis : x y z
#
# Youngs Moduli (GPa) = 75.86596 12.59113 24.98033
#
# Poissons Ratio (x) = 0.06117 0.40841
# Poissons Ratio (y) = 0.36857 0.10551
# Poissons Ratio (z) = 1.24034 0.05318
#
# Static dielectric constant tensor:
#      x y z
#    x 1.686540 0.000000 0.000000 
#    y 0.000000 1.641830 0.000000 
#    z 0.000000 0.000000 1.619090 
# 
# From -- ./inp_files/6703.got.cif
#   From: 2010.05.17/outbox.cif.g08.bks.cpg/sg63_4_cif.got.tgz:6703.got - 2010.06.03 15:47:04.
