data_PCOD9468334
_publ_section_title
;
Structure prediction by ZEFSAII (Michael W. Deem and Ramdas Pophale) SiO2 
 PCOD9468334
Probable space group: C M C M
;
_chemical_formula_sum "Si O2"
_cell_formula_units_Z 128
_cell_length_a 23.777370
_cell_length_b 19.836585
_cell_length_c 15.527728
_cell_angle_alpha 90.000000
_cell_angle_beta 90.000000
_cell_angle_gamma 90.000000
_cell_volume 7323.836466
_symmetry_space_group_name_H-M "C M C M"
_symmetry_group_IT_number 63
_symmetry_cell_setting 'orthorhombic'
loop_
_space_group_symop_operation_xyz
x,y,z
-x,-y,1/2+z
x,-y,-z
-x,y,1/2-z
-x,-y,-z
x,y,1/2-z
-x,y,z
x,-y,1/2+z
1/2+x,1/2+y,z
1/2-x,1/2-y,1/2+z
1/2+x,1/2-y,-z
1/2-x,1/2+y,1/2-z
1/2-x,1/2-y,-z
1/2+x,1/2+y,1/2-z
1/2-x,1/2+y,z
1/2+x,1/2-y,1/2+z
loop_
_atom_site_type_symbol
_atom_site_label
_atom_site_fract_x
_atom_site_fract_y
_atom_site_fract_z
Si Si1 0.878610 0.441925 0.145267
Si Si2 0.065285 0.698670 0.645338
Si Si3 0.226894 0.092620 0.353576
Si Si4 0.837905 0.666836 0.348271
Si Si5 0.326925 0.721484 0.411544
Si Si6 0.284981 0.702757 0.894349
Si Si7 0.063086 0.581272 0.355554
Si Si8 0.249143 0.056383 0.854140
O O1 0.876805 0.443226 0.250000
O O2 0.915006 0.376930 0.121369
O O3 0.907500 0.511492 0.118423
O O4 0.813980 0.437972 0.115453
O O5 0.069522 0.704346 0.750000
O O6 0.112112 0.747563 0.604381
O O7 0.000000 0.710491 0.622179
O O8 0.229852 0.090460 0.250000
O O9 0.284170 0.128480 0.388462
O O10 0.178685 0.145792 0.375883
O O11 0.224675 0.015626 0.384079
O O12 0.838591 0.642308 0.250000
O O13 0.826192 0.745898 0.345928
O O14 0.896448 0.641671 0.385669
O O15 0.305639 0.716671 0.509054
O O16 0.278013 0.769890 0.371610
O O17 0.284360 0.623352 0.879314
O O18 0.059553 0.581231 0.250000
O O19 0.000000 0.586492 0.388374
O O20 0.250397 0.055124 0.750000
#
# Coordination Sequence:
#
# PCOD9468334 Si02
#       8
#    16  16  16  16  16  16  16  16
#     4   9  15  25  42  70 102 127 157 194 235 285
#     4  10  19  31  51  76 100 129 164 203 249 297
#     4   9  17  29  48  70  94 121 154 199 249 294
#     4   9  16  28  44  66  92 123 164 206 240 279
#     4  10  20  33  46  68  98 129 162 198 240 293
#     4  10  20  31  46  66  95 133 165 196 241 290
#     4   9  15  24  41  66  96 128 162 198 233 273
#     4  10  17  28  48  74  98 126 160 198 247 296
#
# _framework density 17.477179
#
# number of rings (size 3 to 8) (size 9 to 14) (size 15 to 20)
#    0.000    2.500    2.500    1.125    0.000    3.000 
#    0.000    0.625    0.000    0.750    0.000    4.375 
#    0.000    4.000    0.000    0.000    0.000    0.000 
#
# Total GULP energy -356561.809858 kJ/mol
# GULP energy per Si atom -5571.278279 kJ/mol
# Density = 1.743740 g / cm^3
# Si number density = 17.477179 Si / 1000 Ang^3
#
#
#
# Elastic Constant Matrix: (Units=GPa)
#
#
# Indices 1 2 3 4 5 6 
#
# 1 112.4690 75.4638 12.0912 0.0000 0.0000 0.0000
# 2 75.4638 138.8699 6.9795 0.0000 0.0000 0.0000
# 3 12.0912 6.9795 19.0519 0.0000 0.0000 0.0000
# 4 0.0000 0.0000 0.0000 -7.5671 0.0000 0.0000
# 5 0.0000 0.0000 0.0000 0.0000 10.4854 0.0000
# 6 0.0000 0.0000 0.0000 0.0000 0.0000 19.1535
#
#
#
# Elastic Compliance Matrix: (Units=1/GPa)
#
#
# Indices 1 2 3 4 5 6 
#
# 1 0.014754 -0.007688 -0.006547 0.000000 0.000000 0.000000
# 2 -0.007688 0.011343 0.000724 0.000000 0.000000 0.000000
# 3 -0.006547 0.000724 0.056378 0.000000 0.000000 0.000000
# 4 0.000000 0.000000 0.000000 -0.132151 0.000000 0.000000
# 5 0.000000 0.000000 0.000000 0.000000 0.095371 0.000000
# 6 0.000000 0.000000 0.000000 0.000000 0.000000 0.052210
#
#
# Mechanical properties :
#
#
# Convention : Reuss Voigt Hill
#
# Bulk Modulus (GPa) = 18.03361 51.05109 34.54235
# Shear Modulus (GPa) = 34.86503 16.13812 25.50157
#
# Velocity S-wave (km/s) = 4.47126 3.04202 3.82401
# Velocity P-wave (km/s) = 6.08252 6.45074 6.26933
#
# Compressibility (1/GPa) = 0.05545202
#
# Stress axis : x y z
#
# Youngs Moduli (GPa) = 67.77854 88.16323 17.73746
#
# Poissons Ratio (x) = 0.67784 0.11613
# Poissons Ratio (y) = 0.52111 -0.01285
# Poissons Ratio (z) = 0.44374 -0.06385
#
# Static dielectric constant tensor:
#      x y z
#    x 1.586130 0.000000 0.000000 
#    y 0.000000 1.611080 0.000000 
#    z 0.000000 0.000000 1.777310 
# 
# From -- ./inp_files/57765.got.cif
#   From: 2010.05.17/outbox.cif.g08.bks.cpg/sg63_29_cif.got.tgz:57765.got - 2010.06.03 15:47:04.
