data_PCOD9468738
_publ_section_title
;
Structure prediction by ZEFSAII (Michael W. Deem and Ramdas Pophale) SiO2 
 PCOD9468738
Probable space group: C M C M
;
_chemical_formula_sum "Si O2"
_cell_formula_units_Z 96
_cell_length_a 15.027913
_cell_length_b 18.492031
_cell_length_c 19.429960
_cell_angle_alpha 90.000000
_cell_angle_beta 90.000000
_cell_angle_gamma 90.000000
_cell_volume 5399.520465
_symmetry_space_group_name_H-M "C M C M"
_symmetry_group_IT_number 63
_symmetry_cell_setting 'orthorhombic'
loop_
_space_group_symop_operation_xyz
x,y,z
-x,-y,1/2+z
x,-y,-z
-x,y,1/2-z
-x,-y,-z
x,y,1/2-z
-x,y,z
x,-y,1/2+z
1/2+x,1/2+y,z
1/2-x,1/2-y,1/2+z
1/2+x,1/2-y,-z
1/2-x,1/2+y,1/2-z
1/2-x,1/2-y,-z
1/2+x,1/2+y,1/2-z
1/2-x,1/2+y,z
1/2+x,1/2-y,1/2+z
loop_
_atom_site_type_symbol
_atom_site_label
_atom_site_fract_x
_atom_site_fract_y
_atom_site_fract_z
Si Si1 0.393555 0.223416 0.172195
Si Si2 0.282575 0.076298 0.172214
Si Si3 0.712148 0.578245 0.029096
Si Si4 0.844710 0.222836 0.971657
Si Si5 0.896108 0.569328 0.673301
Si Si6 0.401785 0.131118 0.972807
O O1 0.374862 0.249669 0.250000
O O2 0.500000 0.218324 0.164262
O O3 0.349733 0.144124 0.165710
O O4 0.354446 0.270979 0.110393
O O5 0.246616 0.077809 0.250000
O O6 0.211572 0.081333 0.111520
O O7 0.336602 0.001725 0.163217
O O8 0.689574 0.500000 0.000000
O O9 0.651167 0.640959 0.997099
O O10 0.816522 0.594414 0.009074
O O11 0.750000 0.250000 0.000000
O O12 0.905176 0.285670 0.003669
O O13 0.877211 0.599251 0.750000
O O14 0.884425 0.622337 0.608808
O O15 0.000000 0.547458 0.672757
O O16 0.500000 0.098793 0.988114
#
# Coordination Sequence:
#
# PCOD9468738 Si02
#       6
#    16  16  16  16  16  16
#     4  10  19  32  53  78 103 134 174 222 271 311
#     4  10  18  29  46  73 107 136 167 205 256 309
#     4  11  21  35  50  72 105 140 175 210 256 315
#     4  10  20  34  48  72 106 137 170 211 258 319
#     4   9  17  28  43  70 105 134 164 205 254 306
#     4  10  19  31  51  74  97 132 172 213 258 302
#
# _framework density 17.779357000000001
#
# number of rings (size 3 to 8) (size 9 to 14) (size 15 to 20)
#    0.000    2.000    5.000    1.000    0.000    3.000 
#    0.000    5.000    0.000    2.000    0.000    0.000 
#    0.000    2.667    0.000    0.000    0.000    0.000 
#
# Total GULP energy -267403.024241 kJ/mol
# GULP energy per Si atom -5570.896338 kJ/mol
# Density = 1.773889 g / cm^3
# Si number density = 17.779357 Si / 1000 Ang^3
#
#
#
# Elastic Constant Matrix: (Units=GPa)
#
#
# Indices 1 2 3 4 5 6 
#
# 1 15.1202 -0.5994 17.0008 0.0000 0.0000 0.0000
# 2 -0.5994 93.9678 53.9954 0.0000 0.0000 0.0000
# 3 17.0008 53.9954 171.1062 0.0000 0.0000 0.0000
# 4 0.0000 0.0000 0.0000 25.5549 0.0000 0.0000
# 5 0.0000 0.0000 0.0000 0.0000 23.0823 0.0000
# 6 0.0000 0.0000 0.0000 0.0000 0.0000 13.0596
#
#
#
# Elastic Compliance Matrix: (Units=1/GPa)
#
#
# Indices 1 2 3 4 5 6 
#
# 1 0.077109 0.005978 -0.009548 0.000000 0.000000 0.000000
# 2 0.005978 0.013463 -0.004842 0.000000 0.000000 0.000000
# 3 -0.009548 -0.004842 0.008321 0.000000 0.000000 0.000000
# 4 0.000000 0.000000 0.000000 0.039132 0.000000 0.000000
# 5 0.000000 0.000000 0.000000 0.000000 0.043323 0.000000
# 6 0.000000 0.000000 0.000000 0.000000 0.000000 0.076572
#
#
# Mechanical properties :
#
#
# Convention : Reuss Voigt Hill
#
# Bulk Modulus (GPa) = 12.18489 46.77645 29.48067
# Shear Modulus (GPa) = 16.55081 26.32585 21.43833
#
# Velocity S-wave (km/s) = 3.05438 3.85216 3.47623
# Velocity P-wave (km/s) = 4.39400 6.79353 5.72098
#
# Compressibility (1/GPa) = 0.08206886
#
# Stress axis : x y z
#
# Youngs Moduli (GPa) = 12.96860 74.28008 120.17675
#
# Poissons Ratio (x) = -0.44407 1.14745
# Poissons Ratio (y) = -0.07753 0.58194
# Poissons Ratio (z) = 0.12382 0.35969
#
# Static dielectric constant tensor:
#      x y z
#    x 1.611740 0.000000 0.000000 
#    y 0.000000 1.608620 0.000000 
#    z 0.000000 0.000000 1.665200 
# 
# From -- ./inp_files/45750.got.cif
#   From: 2010.05.17/outbox.cif.g08.bks.cpg/sg63_23_cif.got.tgz:45750.got - 2010.06.03 15:47:04.
