data_PCOD9468100
_publ_section_title
;
Structure prediction by ZEFSAII (Michael W. Deem and Ramdas Pophale) SiO2 
 PCOD9468100
Probable space group: C M C M
;
_chemical_formula_sum "Si O2"
_cell_formula_units_Z 64
_cell_length_a 13.510586
_cell_length_b 11.872471
_cell_length_c 17.980521
_cell_angle_alpha 90.000000
_cell_angle_beta 90.000000
_cell_angle_gamma 90.000000
_cell_volume 2884.148218
_symmetry_space_group_name_H-M "C M C M"
_symmetry_group_IT_number 63
_symmetry_cell_setting 'orthorhombic'
loop_
_space_group_symop_operation_xyz
x,y,z
-x,-y,1/2+z
x,-y,-z
-x,y,1/2-z
-x,-y,-z
x,y,1/2-z
-x,y,z
x,-y,1/2+z
1/2+x,1/2+y,z
1/2-x,1/2-y,1/2+z
1/2+x,1/2-y,-z
1/2-x,1/2+y,1/2-z
1/2-x,1/2-y,-z
1/2+x,1/2+y,1/2-z
1/2-x,1/2+y,z
1/2+x,1/2-y,1/2+z
loop_
_atom_site_type_symbol
_atom_site_label
_atom_site_fract_x
_atom_site_fract_y
_atom_site_fract_z
Si Si1 0.330682 0.336109 0.963003
Si Si2 0.605287 0.699737 0.618079
Si Si3 0.168070 0.323746 0.334250
Si Si4 0.646413 0.043407 0.419017
O O1 0.372760 0.265928 0.894161
O O2 0.264418 0.435168 0.929590
O O3 0.250000 0.250000 0.000000
O O4 0.393955 0.357329 0.035887
O O5 0.500000 0.669956 0.654718
O O6 0.710862 0.676073 0.657035
O O7 0.605858 0.835400 0.604191
O O8 0.142613 0.297178 0.250000
O O9 0.130979 0.445955 0.359761
O O10 0.612061 0.000000 0.500000
#
# Coordination Sequence:
#
# PCOD9468100 Si02
#       4
#    16  16  16  16
#     4   8  16  31  51  72 101 137 175 208 246 316
#     4  10  20  33  55  82 106 132 169 223 269 305
#     4  10  19  33  52  75 107 142 174 215 264 311
#     4  10  15  32  55  77  98 135 186 210 241 313
#
# _framework density 22.190261
#
# number of rings (size 3 to 8) (size 9 to 14) (size 15 to 20)
#    0.000    3.000    7.500    0.000    0.000    5.000 
#    0.000    2.500    0.000    2.250    0.000    0.000 
#    0.000    0.000    0.000    0.000    0.000    0.000 
#
# Total GULP energy -178239.065714 kJ/mol
# GULP energy per Si atom -5569.970804 kJ/mol
# Density = 2.213975 g / cm^3
# Si number density = 22.190261 Si / 1000 Ang^3
#
#
#
# Elastic Constant Matrix: (Units=GPa)
#
#
# Indices 1 2 3 4 5 6 
#
# 1 73.1143 -2.8337 -17.6006 0.0000 0.0000 0.0000
# 2 -2.8337 54.5448 16.7170 0.0000 0.0000 0.0000
# 3 -17.6006 16.7170 123.8037 0.0000 0.0000 0.0000
# 4 0.0000 0.0000 0.0000 23.7382 0.0000 0.0000
# 5 0.0000 0.0000 0.0000 0.0000 -5.0885 0.0000
# 6 0.0000 0.0000 0.0000 0.0000 0.0000 -54.3349
#
#
#
# Elastic Compliance Matrix: (Units=1/GPa)
#
#
# Indices 1 2 3 4 5 6 
#
# 1 0.014163 0.000124 0.001997 0.000000 0.000000 0.000000
# 2 0.000124 0.019126 -0.002565 0.000000 0.000000 0.000000
# 3 0.001997 -0.002565 0.008708 0.000000 0.000000 0.000000
# 4 0.000000 0.000000 0.000000 0.042126 0.000000 0.000000
# 5 0.000000 0.000000 0.000000 0.000000 -0.196520 0.000000
# 6 0.000000 0.000000 0.000000 0.000000 0.000000 -0.018404
#
#
# Mechanical properties :
#
#
# Convention : Reuss Voigt Hill
#
# Bulk Modulus (GPa) = 24.32649 27.11424 25.72036
# Shear Modulus (GPa) = -43.02524 9.87495 -16.57514
#
# Velocity S-wave (km/s) = -4.40810 2.11182 -2.73601
# Velocity P-wave (km/s) = 3.86290 4.26520 1.27866
#
# Compressibility (1/GPa) = 0.04110746
#
# Stress axis : x y z
#
# Youngs Moduli (GPa) = 70.60809 52.28455 114.84338
#
# Poissons Ratio (x) = -0.00647 -0.22931
# Poissons Ratio (y) = -0.00874 0.29457
# Poissons Ratio (z) = -0.14098 0.13411
#
# Static dielectric constant tensor:
#      x y z
#    x 1.941660 0.000000 0.000000 
#    y 0.000000 1.831330 0.000000 
#    z 0.000000 0.000000 1.953820 
# 
# From -- ./inp_files/43641.got.cif
#   From: 2010.05.17/outbox.cif.g08.bks.cpg/sg63_22_cif.got.tgz:43641.got - 2010.06.03 15:47:04.
