data_PCOD9468944
_publ_section_title
;
Structure prediction by ZEFSAII (Michael W. Deem and Ramdas Pophale) SiO2 
 PCOD9468944
Probable space group: C M C M
;
_chemical_formula_sum "Si O2"
_cell_formula_units_Z 80
_cell_length_a 7.444911
_cell_length_b 14.861494
_cell_length_c 34.928836
_cell_angle_alpha 90.000000
_cell_angle_beta 90.000000
_cell_angle_gamma 90.000000
_cell_volume 3864.613743
_symmetry_space_group_name_H-M "C M C M"
_symmetry_group_IT_number 63
_symmetry_cell_setting 'orthorhombic'
loop_
_space_group_symop_operation_xyz
x,y,z
-x,-y,1/2+z
x,-y,-z
-x,y,1/2-z
-x,-y,-z
x,y,1/2-z
-x,y,z
x,-y,1/2+z
1/2+x,1/2+y,z
1/2-x,1/2-y,1/2+z
1/2+x,1/2-y,-z
1/2-x,1/2+y,1/2-z
1/2-x,1/2-y,-z
1/2+x,1/2+y,1/2-z
1/2-x,1/2+y,z
1/2+x,1/2-y,1/2+z
loop_
_atom_site_type_symbol
_atom_site_label
_atom_site_fract_x
_atom_site_fract_y
_atom_site_fract_z
Si Si1 0.285792 0.355927 0.998704
Si Si2 0.780029 0.000941 0.561405
Si Si3 0.708354 0.473292 0.353025
Si Si4 0.216871 0.376524 0.707363
Si Si5 0.719289 0.668428 0.707382
O O1 0.500000 0.364959 0.998638
O O2 0.224031 0.413534 0.035551
O O3 0.250000 0.250000 0.000000
O O4 0.221534 0.410851 0.961234
O O5 0.000000 0.998855 0.562115
O O6 0.715517 0.009543 0.604881
O O7 0.500000 0.448984 0.359206
O O8 0.716117 0.561070 0.326447
O O9 0.786952 0.394277 0.326622
O O10 0.276104 0.406092 0.750000
O O11 0.269681 0.272511 0.702499
O O12 0.000000 0.379793 0.706906
O O13 0.776804 0.638739 0.750000
O O14 0.500000 0.664959 0.707437
#
# Coordination Sequence:
#
# PCOD9468944 Si02
#       5
#    16  16  16  16  16
#     4   9  17  33  53  70  93 126 158 188 231 283
#     4   8  17  32  48  69  98 126 151 188 240 288
#     4  10  18  30  50  72  92 120 161 200 231 272
#     4   9  18  32  47  66  96 129 156 189 237 280
#     4   8  15  28  45  64  88 120 155 187 223 273
#
# _framework density 20.700645999999999
#
# number of rings (size 3 to 8) (size 9 to 14) (size 15 to 20)
#    0.000    3.200    0.000    3.000    0.000    2.800 
#    0.000    7.000    0.000    1.200    0.000    0.000 
#    0.000    0.000    0.000    0.000    0.000    0.000 
#
# Total GULP energy -223104.693049 kJ/mol
# GULP energy per Si atom -5577.617326 kJ/mol
# Density = 2.065353 g / cm^3
# Si number density = 20.700646 Si / 1000 Ang^3
#
#
#
# Elastic Constant Matrix: (Units=GPa)
#
#
# Indices 1 2 3 4 5 6 
#
# 1 59.2068 -8.7672 0.3111 0.0000 0.0000 0.0000
# 2 -8.7672 133.9032 90.5589 0.0000 0.0000 0.0000
# 3 0.3111 90.5589 200.8802 0.0000 0.0000 0.0000
# 4 0.0000 0.0000 0.0000 105.5113 0.0000 0.0000
# 5 0.0000 0.0000 0.0000 0.0000 5.3711 0.0000
# 6 0.0000 0.0000 0.0000 0.0000 0.0000 18.8715
#
#
#
# Elastic Compliance Matrix: (Units=1/GPa)
#
#
# Indices 1 2 3 4 5 6 
#
# 1 0.017137 0.001640 -0.000766 0.000000 0.000000 0.000000
# 2 0.001640 0.010901 -0.004917 0.000000 0.000000 0.000000
# 3 -0.000766 -0.004917 0.007196 0.000000 0.000000 0.000000
# 4 0.000000 0.000000 0.000000 0.009478 0.000000 0.000000
# 5 0.000000 0.000000 0.000000 0.000000 0.186180 0.000000
# 6 0.000000 0.000000 0.000000 0.000000 0.000000 0.052990
#
#
# Mechanical properties :
#
#
# Convention : Reuss Voigt Hill
#
# Bulk Modulus (GPa) = 36.83497 62.02175 49.42836
# Shear Modulus (GPa) = 16.61046 46.74327 31.67686
#
# Velocity S-wave (km/s) = 2.83576 4.75706 3.91607
# Velocity P-wave (km/s) = 5.34367 7.75881 6.66160
#
# Compressibility (1/GPa) = 0.02714811
#
# Stress axis : x y z
#
# Youngs Moduli (GPa) = 58.35386 91.73822 138.97097
#
# Poissons Ratio (x) = -0.15045 0.10643
# Poissons Ratio (y) = -0.09570 0.68327
# Poissons Ratio (z) = 0.04469 0.45104
#
# Static dielectric constant tensor:
#      x y z
#    x 1.799100 0.000000 0.000000 
#    y 0.000000 1.719760 0.000000 
#    z 0.000000 0.000000 1.730400 
# 
# From -- ./inp_files/72508.got.cif
#   From: 2010.05.17/outbox.cif.g08.bks.cpg/sg63_37_cif.got.tgz:72508.got - 2010.06.03 15:47:04.
