data_PCOD9468680
_publ_section_title
;
Structure prediction by ZEFSAII (Michael W. Deem and Ramdas Pophale) SiO2 
 PCOD9468680
Probable space group: C M C M
;
_chemical_formula_sum "Si O2"
_cell_formula_units_Z 88
_cell_length_a 18.377055
_cell_length_b 14.115120
_cell_length_c 16.902256
_cell_angle_alpha 90.000000
_cell_angle_beta 90.000000
_cell_angle_gamma 90.000000
_cell_volume 4384.349482
_symmetry_space_group_name_H-M "C M C M"
_symmetry_group_IT_number 63
_symmetry_cell_setting 'orthorhombic'
loop_
_space_group_symop_operation_xyz
x,y,z
-x,-y,1/2+z
x,-y,-z
-x,y,1/2-z
-x,-y,-z
x,y,1/2-z
-x,y,z
x,-y,1/2+z
1/2+x,1/2+y,z
1/2-x,1/2-y,1/2+z
1/2+x,1/2-y,-z
1/2-x,1/2+y,1/2-z
1/2-x,1/2-y,-z
1/2+x,1/2+y,1/2-z
1/2-x,1/2+y,z
1/2+x,1/2-y,1/2+z
loop_
_atom_site_type_symbol
_atom_site_label
_atom_site_fract_x
_atom_site_fract_y
_atom_site_fract_z
Si Si1 0.391048 0.146262 0.337975
Si Si2 0.719842 0.594929 0.338612
Si Si3 0.147419 0.195551 0.558064
Si Si4 0.418807 0.043905 0.916337
Si Si5 0.159143 0.000000 0.500000
Si Si6 0.190392 0.706700 0.894689
O O1 0.409944 0.172579 0.250000
O O2 0.304864 0.121571 0.343103
O O3 0.404149 0.236375 0.392750
O O4 0.425350 0.047931 0.362468
O O5 0.706020 0.552907 0.250000
O O6 0.701118 0.538281 0.420151
O O7 0.681145 0.698165 0.343637
O O8 0.170083 0.258047 0.482580
O O9 0.224390 0.178141 0.604001
O O10 0.118718 0.094054 0.530229
O O11 0.500000 0.085128 0.929451
O O12 0.362652 0.118839 0.880141
O O13 0.391775 0.000000 0.000000
#
# Coordination Sequence:
#
# PCOD9468680 Si02
#       6
#    16  16  16  16   8  16
#     4  10  20  33  49  73 109 144 185 232 274 330
#     4   9  19  32  50  81 110 143 185 232 287 331
#     4   9  17  29  49  75 101 138 182 221 285 332
#     4  11  22  34  53  80 113 152 191 222 264 335
#     4  10  18  28  52  78 104 142 164 226 280 338
#     4   9  17  30  51  70 105 142 178 228 271 328
#
# _framework density 20.071391999999999
#
# number of rings (size 3 to 8) (size 9 to 14) (size 15 to 20)
#    0.000    2.364    1.818    2.182    2.545    1.818 
#    0.000    3.636    0.000    0.000    0.000   15.909 
#    0.000    0.000    0.000    0.000    0.000    0.000 
#
# Total GULP energy -245005.604220 kJ/mol
# GULP energy per Si atom -5568.309187 kJ/mol
# Density = 2.002571 g / cm^3
# Si number density = 20.071392 Si / 1000 Ang^3
#
#
#
# Elastic Constant Matrix: (Units=GPa)
#
#
# Indices 1 2 3 4 5 6 
#
# 1 48.6748 30.1962 5.3921 0.0000 0.0000 0.0000
# 2 30.1962 128.9626 23.1456 0.0000 0.0000 0.0000
# 3 5.3921 23.1456 99.4180 0.0000 0.0000 0.0000
# 4 0.0000 0.0000 0.0000 29.1957 0.0000 0.0000
# 5 0.0000 0.0000 0.0000 0.0000 -122.5241 0.0000
# 6 0.0000 0.0000 0.0000 0.0000 0.0000 -7.9639
#
#
#
# Elastic Compliance Matrix: (Units=1/GPa)
#
#
# Indices 1 2 3 4 5 6 
#
# 1 0.024036 -0.005629 0.000007 0.000000 0.000000 0.000000
# 2 -0.005629 0.009411 -0.001886 0.000000 0.000000 0.000000
# 3 0.000007 -0.001886 0.010497 0.000000 0.000000 0.000000
# 4 0.000000 0.000000 0.000000 0.034252 0.000000 0.000000
# 5 0.000000 0.000000 0.000000 0.000000 -0.008162 0.000000
# 6 0.000000 0.000000 0.000000 0.000000 0.000000 -0.125566
#
#
# Mechanical properties :
#
#
# Convention : Reuss Voigt Hill
#
# Bulk Modulus (GPa) = 34.56862 43.83591 39.20226
# Shear Modulus (GPa) = -161.94721 -5.70371 -83.82546
#
# Velocity S-wave (km/s) = -8.99226 -1.68757 -6.46949
# Velocity P-wave (km/s) = 9.51599 4.25326 6.01930
#
# Compressibility (1/GPa) = 0.02892797
#
# Stress axis : x y z
#
# Youngs Moduli (GPa) = 41.60447 106.26255 95.26390
#
# Poissons Ratio (x) = 0.59817 -0.00066
# Poissons Ratio (y) = 0.23420 0.17963
# Poissons Ratio (z) = -0.00029 0.20037
#
# Static dielectric constant tensor:
#      x y z
#    x 1.744460 0.000000 0.000000 
#    y 0.000000 1.750910 0.000000 
#    z 0.000000 0.000000 1.750330 
# 
# From -- ./inp_files/47069.got.cif
#   From: 2010.05.17/outbox.cif.g08.bks.cpg/sg63_24_cif.got.tgz:47069.got - 2010.06.03 15:47:04.
