data_PCOD9468067
_publ_section_title
;
Structure prediction by ZEFSAII (Michael W. Deem and Ramdas Pophale) SiO2 
 PCOD9468067
Probable space group: P N M A
;
_chemical_formula_sum "Si O2"
_cell_formula_units_Z 64
_cell_length_a 18.000000
_cell_length_b 21.000000
_cell_length_c 9.000000
_cell_angle_alpha 90.000000
_cell_angle_beta 90.000000
_cell_angle_gamma 90.000000
_cell_volume 3402.000000
_symmetry_space_group_name_H-M "P N M A"
_symmetry_group_IT_number 62
_symmetry_cell_setting 'orthorhombic'
loop_
_space_group_symop_operation_xyz
x,y,z
1/2-x,-y,1/2+z
1/2+x,1/2-y,1/2-z
-x,1/2+y,-z
-x,-y,-z
1/2+x,y,1/2-z
1/2-x,1/2+y,1/2+z
x,1/2-y,z
loop_
_atom_site_type_symbol
_atom_site_label
_atom_site_fract_x
_atom_site_fract_y
_atom_site_fract_z
Si Si1 0.478867 0.175581 0.276263
Si Si2 0.488675 0.038475 0.846260
Si Si3 0.738911 0.822501 0.224955
Si Si4 0.901374 0.932727 0.835139
Si Si5 0.334904 0.175374 0.454343
Si Si6 0.141573 0.065136 0.820946
Si Si7 0.374796 0.127433 0.006433
Si Si8 0.727322 0.935460 0.753665
O O1 0.499904 0.250000 0.272734
O O2 0.549788 0.129054 0.286665
O O3 0.422163 0.164963 0.415531
O O4 0.427275 0.159566 0.132213
O O5 0.569405 0.060329 0.786583
O O6 0.449103 0.992128 0.726940
O O7 0.430636 0.093261 0.891893
O O8 0.500000 0.000000 0.000000
O O9 0.768160 0.750000 0.228653
O O10 0.691876 0.833043 0.376648
O O11 0.804739 0.874447 0.210710
O O12 0.681604 0.829478 0.087853
O O13 0.816371 0.936940 0.774711
O O14 0.890879 0.932253 0.012425
O O15 0.320000 0.250000 0.413132
O O16 0.291941 0.123451 0.355318
O O17 0.192629 0.001689 0.804832
O O18 0.319432 0.079689 0.095754
#
# Coordination Sequence:
#
# PCOD9468067 Si02
#       8
#     8   8   8   8   8   8   8   8
#     4  10  22  43  66  94 131 174 225 265 323 403
#     4  12  24  43  69  97 137 164 218 277 329 403
#     4  11  25  44  67  99 135 173 222 276 336 396
#     4  12  26  42  63  99 130 175 217 274 338 384
#     4   9  22  42  68  95 131 176 217 269 328 397
#     4  12  27  44  67  99 133 176 219 281 337 395
#     4  11  22  44  68 101 128 176 214 272 335 396
#     4  11  24  42  67  98 130 171 227 268 336 394
#
# _framework density 18.812463000000001
#
# number of rings (size 3 to 8) (size 9 to 14) (size 15 to 20)
#    0.000    1.000    3.750    2.250    7.000    1.500 
#    0.000    2.500    0.000    0.000    0.000    0.000 
#    0.000    0.000    0.000    0.000    0.000    0.000 
#
# Total GULP energy -357572.646195 kJ/mol
# GULP energy per Si atom -5587.072597 kJ/mol
# Density = 1.876965 g / cm^3
# Si number density = 18.812463 Si / 1000 Ang^3
#
#
#
# Elastic Constant Matrix: (Units=GPa)
#
#
# Indices 1 2 3 4 5 6 
#
# 1 159.5994 71.9208 52.5011 0.0000 0.0000 0.0000
# 2 71.9208 122.9348 50.5528 0.0000 0.0000 0.0000
# 3 52.5011 50.5528 100.4846 0.0000 0.0000 0.0000
# 4 0.0000 0.0000 0.0000 29.2531 0.0000 0.0000
# 5 0.0000 0.0000 0.0000 0.0000 36.2021 0.0000
# 6 0.0000 0.0000 0.0000 0.0000 0.0000 38.6375
#
#
#
# Elastic Compliance Matrix: (Units=1/GPa)
#
#
# Indices 1 2 3 4 5 6 
#
# 1 0.009015 -0.004208 -0.002593 0.000000 0.000000 0.000000
# 2 -0.004208 0.012220 -0.003949 0.000000 0.000000 0.000000
# 3 -0.002593 -0.003949 0.013294 0.000000 0.000000 0.000000
# 4 0.000000 0.000000 0.000000 0.034184 0.000000 0.000000
# 5 0.000000 0.000000 0.000000 0.000000 0.027623 0.000000
# 6 0.000000 0.000000 0.000000 0.000000 0.000000 0.025882
#
#
# Mechanical properties :
#
#
# Convention : Reuss Voigt Hill
#
# Bulk Modulus (GPa) = 76.75796 81.44092 79.09944
# Shear Modulus (GPa) = 33.77004 34.68816 34.22910
#
# Velocity S-wave (km/s) = 4.24145 4.29872 4.27018
# Velocity P-wave (km/s) = 8.05461 8.24764 8.15169
#
# Compressibility (1/GPa) = 0.01302796
#
# Stress axis : x y z
#
# Youngs Moduli (GPa) = 110.92836 81.83299 75.22416
#
# Poissons Ratio (x) = 0.34432 0.19508
# Poissons Ratio (y) = 0.46674 0.29709
# Poissons Ratio (z) = 0.28767 0.32319
#
# Static dielectric constant tensor:
#      x y z
#    x 1.626020 0.000000 0.000000 
#    y 0.000000 1.660170 0.000000 
#    z 0.000000 0.000000 1.668940 
# 
# From -- ./inp_files/8125.got.cif
#   From: 2010.05.17/outbox.ucp.g08.bks.cvg/sg62_5_cif.got.tgz:8125.got - 2010.06.11 16:29:25.
