data_PCOD9468721
_publ_section_title
;
Structure prediction by ZEFSAII (Michael W. Deem and Ramdas Pophale) SiO2 
 PCOD9468721
Probable space group: C M C M
;
_chemical_formula_sum "Si O2"
_cell_formula_units_Z 80
_cell_length_a 7.483133
_cell_length_b 21.229315
_cell_length_c 25.877562
_cell_angle_alpha 90.000000
_cell_angle_beta 90.000000
_cell_angle_gamma 90.000000
_cell_volume 4110.955759
_symmetry_space_group_name_H-M "C M C M"
_symmetry_group_IT_number 63
_symmetry_cell_setting 'orthorhombic'
loop_
_space_group_symop_operation_xyz
x,y,z
-x,-y,1/2+z
x,-y,-z
-x,y,1/2-z
-x,-y,-z
x,y,1/2-z
-x,y,z
x,-y,1/2+z
1/2+x,1/2+y,z
1/2-x,1/2-y,1/2+z
1/2+x,1/2-y,-z
1/2-x,1/2+y,1/2-z
1/2-x,1/2-y,-z
1/2+x,1/2+y,1/2-z
1/2-x,1/2+y,z
1/2+x,1/2-y,1/2+z
loop_
_atom_site_type_symbol
_atom_site_label
_atom_site_fract_x
_atom_site_fract_y
_atom_site_fract_z
Si Si1 0.713872 0.312955 0.532299
Si Si2 0.792308 0.241912 0.250000
Si Si3 0.214421 0.611308 0.862253
Si Si4 0.286062 0.563640 0.526313
Si Si5 0.292472 0.104845 0.750000
Si Si6 0.219443 0.756666 0.637488
O O1 0.500000 0.319770 0.535597
O O2 0.750000 0.250000 0.500000
O O3 0.784805 0.374083 0.502707
O O4 0.779388 0.299834 0.590298
O O5 0.789652 0.318495 0.250000
O O6 0.717522 0.222913 0.194415
O O7 0.000000 0.222579 0.250000
O O8 0.253761 0.570547 0.912604
O O9 0.283914 0.587670 0.806357
O O10 0.275099 0.683739 0.871319
O O11 0.000000 0.614826 0.857139
O O12 0.217054 0.500000 0.500000
O O13 0.500000 0.563683 0.519867
O O14 0.500000 0.084328 0.750000
O O15 0.000000 0.756417 0.638218
#
# Coordination Sequence:
#
# PCOD9468721 Si02
#       6
#    16   8  16  16   8  16
#     4  10  18  29  46  66  88 116 150 187 224 263
#     4   7  10  18  34  60  89 107 125 170 234 271
#     4   9  15  27  47  69  90 112 148 191 228 268
#     4  10  21  33  43  61  96 133 155 180 226 276
#     4   7  12  22  41  68  91 109 135 186 238 265
#     4   8  13  22  40  65  87 106 136 183 227 262
#
# _framework density 19.460194000000001
#
# number of rings (size 3 to 8) (size 9 to 14) (size 15 to 20)
#    0.000    3.200    2.000    2.400    0.000    0.400 
#    0.000    0.500    0.000    1.200    0.000    4.900 
#    0.000    0.000    0.000    0.000    0.000    0.000 
#
# Total GULP energy -222807.781822 kJ/mol
# GULP energy per Si atom -5570.194546 kJ/mol
# Density = 1.941590 g / cm^3
# Si number density = 19.460194 Si / 1000 Ang^3
#
#
#
# Elastic Constant Matrix: (Units=GPa)
#
#
# Indices 1 2 3 4 5 6 
#
# 1 54.5164 4.9526 4.5366 0.0000 0.0000 0.0000
# 2 4.9526 90.4338 81.5425 0.0000 0.0000 0.0000
# 3 4.5366 81.5425 231.8875 0.0000 0.0000 0.0000
# 4 0.0000 0.0000 0.0000 22.4297 0.0000 0.0000
# 5 0.0000 0.0000 0.0000 0.0000 7.0408 0.0000
# 6 0.0000 0.0000 0.0000 0.0000 0.0000 -5.4577
#
#
#
# Elastic Compliance Matrix: (Units=1/GPa)
#
#
# Indices 1 2 3 4 5 6 
#
# 1 0.018435 -0.001002 -0.000008 0.000000 0.000000 0.000000
# 2 -0.001002 0.016246 -0.005693 0.000000 0.000000 0.000000
# 3 -0.000008 -0.005693 0.006315 0.000000 0.000000 0.000000
# 4 0.000000 0.000000 0.000000 0.044584 0.000000 0.000000
# 5 0.000000 0.000000 0.000000 0.000000 0.142028 0.000000
# 6 0.000000 0.000000 0.000000 0.000000 0.000000 -0.183226
#
#
# Mechanical properties :
#
#
# Convention : Reuss Voigt Hill
#
# Bulk Modulus (GPa) = 36.24727 62.10012 49.17370
# Shear Modulus (GPa) = 74.64312 23.85629 49.24970
#
# Velocity S-wave (km/s) = 6.20001 3.50509 5.03616
# Velocity P-wave (km/s) = 8.36183 6.95424 7.69031
#
# Compressibility (1/GPa) = 0.02758828
#
# Stress axis : x y z
#
# Youngs Moduli (GPa) = 54.24512 61.55256 158.36204
#
# Poissons Ratio (x) = 0.06168 0.00131
# Poissons Ratio (y) = 0.05436 0.90161
# Poissons Ratio (z) = 0.00045 0.35044
#
# Static dielectric constant tensor:
#      x y z
#    x 1.751670 0.000000 0.000000 
#    y 0.000000 1.736680 0.000000 
#    z 0.000000 0.000000 1.740140 
# 
# From -- ./inp_files/61184.got.cif
#   From: 2010.05.17/outbox.cif.g08.bks.cpg/sg63_31_cif.got.tgz:61184.got - 2010.06.03 15:47:04.
