data_PCOD9468515
_publ_section_title
;
Structure prediction by ZEFSAII (Michael W. Deem and Ramdas Pophale) SiO2 
 PCOD9468515
Probable space group: C M C M
;
_chemical_formula_sum "Si O2"
_cell_formula_units_Z 96
_cell_length_a 7.403692
_cell_length_b 34.300497
_cell_length_c 18.876037
_cell_angle_alpha 90.000000
_cell_angle_beta 90.000000
_cell_angle_gamma 90.000000
_cell_volume 4793.575547
_symmetry_space_group_name_H-M "C M C M"
_symmetry_group_IT_number 63
_symmetry_cell_setting 'orthorhombic'
loop_
_space_group_symop_operation_xyz
x,y,z
-x,-y,1/2+z
x,-y,-z
-x,y,1/2-z
-x,-y,-z
x,y,1/2-z
-x,y,z
x,-y,1/2+z
1/2+x,1/2+y,z
1/2-x,1/2-y,1/2+z
1/2+x,1/2-y,-z
1/2-x,1/2+y,1/2-z
1/2-x,1/2-y,-z
1/2+x,1/2+y,1/2-z
1/2-x,1/2+y,z
1/2+x,1/2-y,1/2+z
loop_
_atom_site_type_symbol
_atom_site_label
_atom_site_fract_x
_atom_site_fract_y
_atom_site_fract_z
Si Si1 0.217451 0.917731 0.829286
Si Si2 0.279382 0.675914 0.668262
Si Si3 0.212597 0.660566 0.088888
Si Si4 0.778695 0.042211 0.027390
Si Si5 0.279863 0.236687 0.168051
Si Si6 0.794185 0.117496 0.947411
O O1 0.283997 0.925945 0.750000
O O2 0.263198 0.873796 0.853555
O O3 0.278858 0.945974 0.893050
O O4 0.000000 0.920264 0.827819
O O5 0.228132 0.670032 0.750000
O O6 0.500000 0.675829 0.665705
O O7 0.223837 0.719712 0.646527
O O8 0.212439 0.642285 0.616298
O O9 0.282563 0.701346 0.119138
O O10 0.000000 0.664619 0.074939
O O11 0.297426 0.645204 0.016440
O O12 0.000000 0.043099 0.027607
O O13 0.715277 0.076879 0.975418
O O14 0.723002 0.000000 0.000000
O O15 0.226217 0.230586 0.250000
O O16 0.500000 0.235892 0.167353
O O17 0.000000 0.108456 0.926237
#
# Coordination Sequence:
#
# PCOD9468515 Si02
#       6
#    16  16  16  16  16  16
#     4   9  17  29  45  65  89 116 144 176 216 256
#     4   8  14  26  43  61  82 109 142 179 215 252
#     4  10  18  27  42  64  88 115 145 174 208 254
#     4   8  14  26  43  62  86 113 137 166 208 256
#     4   8  14  24  38  58  84 112 141 174 212 250
#     4   9  17  29  45  64  85 111 143 178 217 256
#
# _framework density 20.026803999999998
#
# number of rings (size 3 to 8) (size 9 to 14) (size 15 to 20)
#    0.000    3.333    0.000    3.000    0.000    1.667 
#    0.000    0.833    0.000   14.500    0.000    4.667 
#    0.000    0.000    0.000    0.000    0.000    0.000 
#
# Total GULP energy -267638.300172 kJ/mol
# GULP energy per Si atom -5575.797920 kJ/mol
# Density = 1.998122 g / cm^3
# Si number density = 20.026804 Si / 1000 Ang^3
#
#
#
# Elastic Constant Matrix: (Units=GPa)
#
#
# Indices 1 2 3 4 5 6 
#
# 1 69.0980 2.4427 -1.8778 0.0000 0.0000 0.0000
# 2 2.4427 176.1310 111.2119 0.0000 0.0000 0.0000
# 3 -1.8778 111.2119 109.9210 0.0000 0.0000 0.0000
# 4 0.0000 0.0000 0.0000 24.1948 0.0000 0.0000
# 5 0.0000 0.0000 0.0000 0.0000 -2.0409 0.0000
# 6 0.0000 0.0000 0.0000 0.0000 0.0000 12.4837
#
#
#
# Elastic Compliance Matrix: (Units=1/GPa)
#
#
# Indices 1 2 3 4 5 6 
#
# 1 0.014541 -0.000993 0.001253 0.000000 0.000000 0.000000
# 2 -0.000993 0.015788 -0.015990 0.000000 0.000000 0.000000
# 3 0.001253 -0.015990 0.025297 0.000000 0.000000 0.000000
# 4 0.000000 0.000000 0.000000 0.041331 0.000000 0.000000
# 5 0.000000 0.000000 0.000000 0.000000 -0.489971 0.000000
# 6 0.000000 0.000000 0.000000 0.000000 0.000000 0.080104
#
#
# Mechanical properties :
#
#
# Convention : Reuss Voigt Hill
#
# Bulk Modulus (GPa) = 41.38094 64.30040 52.84067
# Shear Modulus (GPa) = -18.28863 23.15241 2.43189
#
# Velocity S-wave (km/s) = -3.02521 3.40379 1.10316
# Velocity P-wave (km/s) = 2.91635 6.90106 5.29763
#
# Compressibility (1/GPa) = 0.02416572
#
# Stress axis : x y z
#
# Youngs Moduli (GPa) = 68.76953 63.34007 39.53074
#
# Poissons Ratio (x) = 0.06287 -0.04952
# Poissons Ratio (y) = 0.06826 0.63210
# Poissons Ratio (z) = -0.08615 1.01282
#
# Static dielectric constant tensor:
#      x y z
#    x 1.774650 0.000000 0.000000 
#    y 0.000000 1.684230 0.000000 
#    z 0.000000 0.000000 1.688060 
# 
# From -- ./inp_files/51386.got.cif
#   From: 2010.05.17/outbox.cif.g08.bks.cpg/sg63_26_cif.got.tgz:51386.got - 2010.06.03 15:47:04.
