data_PCOD9468156
_publ_section_title
;
Structure prediction by ZEFSAII (Michael W. Deem and Ramdas Pophale) SiO2 
 PCOD9468156
Probable space group: C M C M
;
_chemical_formula_sum "Si O2"
_cell_formula_units_Z 128
_cell_length_a 26.093193
_cell_length_b 18.114332
_cell_length_c 17.916442
_cell_angle_alpha 90.000000
_cell_angle_beta 90.000000
_cell_angle_gamma 90.000000
_cell_volume 8468.399109
_symmetry_space_group_name_H-M "C M C M"
_symmetry_group_IT_number 63
_symmetry_cell_setting 'orthorhombic'
loop_
_space_group_symop_operation_xyz
x,y,z
-x,-y,1/2+z
x,-y,-z
-x,y,1/2-z
-x,-y,-z
x,y,1/2-z
-x,y,z
x,-y,1/2+z
1/2+x,1/2+y,z
1/2-x,1/2-y,1/2+z
1/2+x,1/2-y,-z
1/2-x,1/2+y,1/2-z
1/2-x,1/2-y,-z
1/2+x,1/2+y,1/2-z
1/2-x,1/2+y,z
1/2+x,1/2-y,1/2+z
loop_
_atom_site_type_symbol
_atom_site_label
_atom_site_fract_x
_atom_site_fract_y
_atom_site_fract_z
Si Si1 0.347090 0.720908 0.515857
Si Si2 0.940554 0.677624 0.467394
Si Si3 0.895079 0.422890 0.838189
Si Si4 0.794785 0.076840 0.470682
Si Si5 0.213302 0.772711 0.166043
Si Si6 0.292851 0.146856 0.573546
Si Si7 0.274604 0.097237 0.165199
Si Si8 0.606623 0.944363 0.068374
O O1 0.404177 0.752891 0.515635
O O2 0.334682 0.644324 0.474735
O O3 0.327894 0.713277 0.601130
O O4 0.312406 0.784554 0.476994
O O5 0.920550 0.638657 0.391031
O O6 0.930473 0.616723 0.532311
O O7 0.000000 0.695235 0.461929
O O8 0.902588 0.410725 0.750000
O O9 0.833657 0.421832 0.853734
O O10 0.914058 0.502845 0.866580
O O11 0.747875 0.101474 0.524645
O O12 0.767387 0.066983 0.391191
O O13 0.816554 0.000000 0.500000
O O14 0.195433 0.787838 0.250000
O O15 0.262731 0.820547 0.143838
O O16 0.227609 0.686284 0.161675
O O17 0.341753 0.097425 0.591929
O O18 0.265442 0.073183 0.250000
O O19 0.619008 0.000000 0.000000
#
# Coordination Sequence:
#
# PCOD9468156 Si02
#       8
#    16  16  16  16  16  16  16  16
#     4  10  18  32  46  64  90 117 157 193 230 272
#     4  10  20  34  51  65  81 115 162 203 237 274
#     4  10  19  30  45  68  99 127 149 180 227 278
#     4  11  18  28  46  69  93 125 155 186 225 274
#     4  10  17  26  43  65  92 123 151 182 217 256
#     4  10  16  28  44  65  92 122 157 179 211 269
#     4  10  17  28  44  67  98 127 152 179 216 263
#     4   9  18  30  46  66  92 122 152 187 224 267
#
# _framework density 15.115017
#
# number of rings (size 3 to 8) (size 9 to 14) (size 15 to 20)
#    0.000    2.000    3.750    3.375    0.000    3.000 
#    0.000    3.750    0.000    0.375    0.000    0.000 
#    0.000    0.000    0.000    0.125    0.000    0.000 
#
# Total GULP energy -356804.957459 kJ/mol
# GULP energy per Si atom -5575.077460 kJ/mol
# Density = 1.508061 g / cm^3
# Si number density = 15.115017 Si / 1000 Ang^3
#
#
#
# Elastic Constant Matrix: (Units=GPa)
#
#
# Indices 1 2 3 4 5 6 
#
# 1 70.8452 30.9444 21.1610 0.0000 0.0000 0.0000
# 2 30.9444 60.6240 9.4249 0.0000 0.0000 0.0000
# 3 21.1610 9.4249 45.0424 0.0000 0.0000 0.0000
# 4 0.0000 0.0000 0.0000 11.2782 0.0000 0.0000
# 5 0.0000 0.0000 0.0000 0.0000 11.8661 0.0000
# 6 0.0000 0.0000 0.0000 0.0000 0.0000 4.7982
#
#
#
# Elastic Compliance Matrix: (Units=1/GPa)
#
#
# Indices 1 2 3 4 5 6 
#
# 1 0.020443 -0.009242 -0.007670 0.000000 0.000000 0.000000
# 2 -0.009242 0.021228 -0.000100 0.000000 0.000000 0.000000
# 3 -0.007670 -0.000100 0.025826 0.000000 0.000000 0.000000
# 4 0.000000 0.000000 0.000000 0.088666 0.000000 0.000000
# 5 0.000000 0.000000 0.000000 0.000000 0.084274 0.000000
# 6 0.000000 0.000000 0.000000 0.000000 0.000000 0.208413
#
#
# Mechanical properties :
#
#
# Convention : Reuss Voigt Hill
#
# Bulk Modulus (GPa) = 29.87564 33.28581 31.58073
# Shear Modulus (GPa) = 10.12078 13.25392 11.68735
#
# Velocity S-wave (km/s) = 2.59044 2.96441 2.78371
# Velocity P-wave (km/s) = 5.36243 5.81261 5.59205
#
# Compressibility (1/GPa) = 0.03347209
#
# Stress axis : x y z
#
# Youngs Moduli (GPa) = 48.91557 47.10694 38.72110
#
# Poissons Ratio (x) = 0.43539 0.29701
# Poissons Ratio (y) = 0.45210 0.00386
# Poissons Ratio (z) = 0.37520 0.00470
#
# Static dielectric constant tensor:
#      x y z
#    x 1.483580 0.000000 0.000000 
#    y 0.000000 1.519630 0.000000 
#    z 0.000000 0.000000 1.523800 
# 
# From -- ./inp_files/48430.got.cif
#   From: 2010.05.17/outbox.cif.g08.bks.cpg/sg63_25_cif.got.tgz:48430.got - 2010.06.03 15:47:04.
