data_PCOD9468853
_publ_section_title
;
Structure prediction by ZEFSAII (Michael W. Deem and Ramdas Pophale) SiO2 
 PCOD9468853
Probable space group: C M C M
;
_chemical_formula_sum "Si O2"
_cell_formula_units_Z 80
_cell_length_a 15.428125
_cell_length_b 33.491835
_cell_length_c 7.363200
_cell_angle_alpha 90.000000
_cell_angle_beta 90.000000
_cell_angle_gamma 90.000000
_cell_volume 3804.684848
_symmetry_space_group_name_H-M "C M C M"
_symmetry_group_IT_number 63
_symmetry_cell_setting 'orthorhombic'
loop_
_space_group_symop_operation_xyz
x,y,z
-x,-y,1/2+z
x,-y,-z
-x,y,1/2-z
-x,-y,-z
x,y,1/2-z
-x,y,z
x,-y,1/2+z
1/2+x,1/2+y,z
1/2-x,1/2-y,1/2+z
1/2+x,1/2-y,-z
1/2-x,1/2+y,1/2-z
1/2-x,1/2-y,-z
1/2+x,1/2+y,1/2-z
1/2-x,1/2+y,z
1/2+x,1/2-y,1/2+z
loop_
_atom_site_type_symbol
_atom_site_label
_atom_site_fract_x
_atom_site_fract_y
_atom_site_fract_z
Si Si1 0.093991 0.826949 0.970175
Si Si2 0.149172 0.741398 0.534094
Si Si3 0.901845 0.346997 0.027562
Si Si4 0.235466 0.108523 0.542077
Si Si5 0.903080 0.046835 0.967248
O O1 0.099237 0.827690 0.750000
O O2 0.101099 0.781091 0.031413
O O3 0.000000 0.843478 0.023667
O O4 0.173435 0.852665 0.041202
O O5 0.134254 0.739994 0.750000
O O6 0.250000 0.750000 0.500000
O O7 0.120548 0.698136 0.465428
O O8 0.897912 0.346629 0.250000
O O9 0.827082 0.377207 0.963644
O O10 0.000000 0.357133 0.976275
O O11 0.253301 0.096515 0.750000
O O12 0.174675 0.074120 0.459653
O O13 0.905690 0.053232 0.750000
O O14 0.000000 0.056567 0.037424
O O15 0.888316 0.000000 0.000000
#
# Coordination Sequence:
#
# PCOD9468853 Si02
#       5
#    16  16  16  16  16
#     4  10  20  31  45  68  98 130 161 196 240 287
#     4  10  18  30  47  66  92 127 166 203 238 278
#     4   9  17  30  49  70  93 126 166 203 238 278
#     4  10  19  32  51  74  97 123 159 202 240 279
#     4   9  18  32  50  73  99 124 151 186 232 289
#
# _framework density 21.026709
#
# number of rings (size 3 to 8) (size 9 to 14) (size 15 to 20)
#    0.000    2.400    2.000    1.200    0.000    4.400 
#    0.000    2.000    0.000    4.200    0.000    0.000 
#    0.000    0.000    0.000    0.000    0.000    0.000 
#
# Total GULP energy -223338.690111 kJ/mol
# GULP energy per Si atom -5583.467253 kJ/mol
# Density = 2.097885 g / cm^3
# Si number density = 21.026709 Si / 1000 Ang^3
#
#
#
# Elastic Constant Matrix: (Units=GPa)
#
#
# Indices 1 2 3 4 5 6 
#
# 1 199.0952 84.3486 -2.7753 0.0000 0.0000 0.0000
# 2 84.3486 120.1471 -0.7292 0.0000 0.0000 0.0000
# 3 -2.7753 -0.7292 78.5831 0.0000 0.0000 0.0000
# 4 0.0000 0.0000 0.0000 9.4100 0.0000 0.0000
# 5 0.0000 0.0000 0.0000 0.0000 -20.0824 0.0000
# 6 0.0000 0.0000 0.0000 0.0000 0.0000 1146.6452
#
#
#
# Elastic Compliance Matrix: (Units=1/GPa)
#
#
# Indices 1 2 3 4 5 6 
#
# 1 0.007152 -0.005020 0.000206 0.000000 0.000000 0.000000
# 2 -0.005020 0.011847 -0.000067 0.000000 0.000000 0.000000
# 3 0.000206 -0.000067 0.012732 0.000000 0.000000 0.000000
# 4 0.000000 0.000000 0.000000 0.106270 0.000000 0.000000
# 5 0.000000 0.000000 0.000000 0.000000 -0.049795 0.000000
# 6 0.000000 0.000000 0.000000 0.000000 0.000000 0.000872
#
#
# Mechanical properties :
#
#
# Convention : Reuss Voigt Hill
#
# Bulk Modulus (GPa) = 45.51938 62.16818 53.84378
# Shear Modulus (GPa) = 47.09688 248.32663 147.71175
#
# Velocity S-wave (km/s) = 4.73785 10.87920 8.39060
# Velocity P-wave (km/s) = 7.18505 13.69086 10.93309
#
# Compressibility (1/GPa) = 0.02196866
#
# Stress axis : x y z
#
# Youngs Moduli (GPa) = 139.81348 84.40941 78.54200
#
# Poissons Ratio (x) = 0.42374 -0.01618
# Poissons Ratio (y) = 0.70187 0.00529
# Poissons Ratio (z) = -0.02880 0.00569
#
# Static dielectric constant tensor:
#      x y z
#    x 1.756650 0.000000 0.000000 
#    y 0.000000 1.735670 0.000000 
#    z 0.000000 0.000000 1.804120 
# 
# From -- ./inp_files/6692.got.cif
#   From: 2010.05.17/outbox.cif.g08.bks.cpg/sg63_4_cif.got.tgz:6692.got - 2010.06.03 15:47:04.
