data_PCOD9468934
_publ_section_title
;
Structure prediction by ZEFSAII (Michael W. Deem and Ramdas Pophale) SiO2 
 PCOD9468934
Probable space group: C M C M
;
_chemical_formula_sum "Si O2"
_cell_formula_units_Z 96
_cell_length_a 8.661763
_cell_length_b 30.428213
_cell_length_c 21.214606
_cell_angle_alpha 90.000000
_cell_angle_beta 90.000000
_cell_angle_gamma 90.000000
_cell_volume 5591.363340
_symmetry_space_group_name_H-M "C M C M"
_symmetry_group_IT_number 63
_symmetry_cell_setting 'orthorhombic'
loop_
_space_group_symop_operation_xyz
x,y,z
-x,-y,1/2+z
x,-y,-z
-x,y,1/2-z
-x,-y,-z
x,y,1/2-z
-x,y,z
x,-y,1/2+z
1/2+x,1/2+y,z
1/2-x,1/2-y,1/2+z
1/2+x,1/2-y,-z
1/2-x,1/2+y,1/2-z
1/2-x,1/2-y,-z
1/2+x,1/2+y,1/2-z
1/2-x,1/2+y,z
1/2+x,1/2-y,1/2+z
loop_
_atom_site_type_symbol
_atom_site_label
_atom_site_fract_x
_atom_site_fract_y
_atom_site_fract_z
Si Si1 0.183443 0.112453 0.479445
Si Si2 0.816109 0.463608 0.447195
Si Si3 0.181858 0.592774 0.346786
Si Si4 0.182747 0.998981 0.819237
Si Si5 0.814019 0.693342 0.319310
Si Si6 0.683575 0.287041 0.545587
O O1 0.231292 0.082089 0.537464
O O2 0.281527 0.093953 0.420956
O O3 0.219845 0.164276 0.481943
O O4 0.000000 0.108108 0.466874
O O5 0.768916 0.500000 0.500000
O O6 0.771458 0.480507 0.378169
O O7 0.000000 0.458067 0.452171
O O8 0.277606 0.552733 0.319531
O O9 0.224633 0.641285 0.322738
O O10 0.000000 0.585825 0.335199
O O11 0.226179 0.016677 0.750000
O O12 0.000000 0.004894 0.828178
O O13 0.764692 0.710026 0.250000
O O14 0.746520 0.714540 0.382665
O O15 0.000000 0.696446 0.322690
O O16 0.500000 0.282964 0.548079
O O17 0.750000 0.250000 0.500000
#
# Coordination Sequence:
#
# PCOD9468934 Si02
#       6
#    16  16  16  16  16  16
#     4  10  20  34  54  79 106 138 176 219 265 312
#     4  11  22  35  54  79 104 139 183 220 261 312
#     4  10  18  30  49  75 106 140 176 212 257 313
#     4  11  23  35  49  72 104 143 182 222 268 314
#     4   9  18  32  51  76 108 143 174 211 263 319
#     4  10  21  36  56  82 109 140 177 219 269 320
#
# _framework density 17.169336000000001
#
# number of rings (size 3 to 8) (size 9 to 14) (size 15 to 20)
#    0.000    1.833    1.667    3.000    0.000    5.667 
#    0.000    0.000    0.000    1.000    0.000    7.000 
#    0.000    0.000    0.000    0.000    0.000    0.000 
#
# Total GULP energy -267834.456138 kJ/mol
# GULP energy per Si atom -5579.884503 kJ/mol
# Density = 1.713026 g / cm^3
# Si number density = 17.169336 Si / 1000 Ang^3
#
#
#
# Elastic Constant Matrix: (Units=GPa)
#
#
# Indices 1 2 3 4 5 6 
#
# 1 33.6288 24.8638 29.4967 0.0000 0.0000 0.0000
# 2 24.8638 68.7862 57.6398 0.0000 0.0000 0.0000
# 3 29.4967 57.6398 130.0409 0.0000 0.0000 0.0000
# 4 0.0000 0.0000 0.0000 18.2675 0.0000 0.0000
# 5 0.0000 0.0000 0.0000 0.0000 16.5293 0.0000
# 6 0.0000 0.0000 0.0000 0.0000 0.0000 26.6582
#
#
#
# Elastic Compliance Matrix: (Units=1/GPa)
#
#
# Indices 1 2 3 4 5 6 
#
# 1 0.042152 -0.011494 -0.004467 0.000000 0.000000 0.000000
# 2 -0.011494 0.026262 -0.009033 0.000000 0.000000 0.000000
# 3 -0.004467 -0.009033 0.012707 0.000000 0.000000 0.000000
# 4 0.000000 0.000000 0.000000 0.054742 0.000000 0.000000
# 5 0.000000 0.000000 0.000000 0.000000 0.060499 0.000000
# 6 0.000000 0.000000 0.000000 0.000000 0.000000 0.037512
#
#
# Mechanical properties :
#
#
# Convention : Reuss Voigt Hill
#
# Bulk Modulus (GPa) = 32.11952 50.71738 41.41845
# Shear Modulus (GPa) = 16.99298 20.32137 18.65718
#
# Velocity S-wave (km/s) = 3.14941 3.44406 3.30002
# Velocity P-wave (km/s) = 5.65448 6.73936 6.22062
#
# Compressibility (1/GPa) = 0.03113372
#
# Stress axis : x y z
#
# Youngs Moduli (GPa) = 23.72356 38.07805 78.69652
#
# Poissons Ratio (x) = 0.43765 0.35152
# Poissons Ratio (y) = 0.27267 0.71089
# Poissons Ratio (z) = 0.10597 0.34397
#
# Static dielectric constant tensor:
#      x y z
#    x 1.568880 0.000000 0.000000 
#    y 0.000000 1.576330 0.000000 
#    z 0.000000 0.000000 1.622360 
# 
# From -- ./inp_files/51378.got.cif
#   From: 2010.05.17/outbox.cif.g08.bks.cpg/sg63_26_cif.got.tgz:51378.got - 2010.06.03 15:47:04.
