data_PCOD9468962
_publ_section_title
;
Structure prediction by ZEFSAII (Michael W. Deem and Ramdas Pophale) SiO2 
 PCOD9468962
Probable space group: C M C M
;
_chemical_formula_sum "Si O2"
_cell_formula_units_Z 120
_cell_length_a 24.852935
_cell_length_b 30.522966
_cell_length_c 7.459524
_cell_angle_alpha 90.000000
_cell_angle_beta 90.000000
_cell_angle_gamma 90.000000
_cell_volume 5658.685177
_symmetry_space_group_name_H-M "C M C M"
_symmetry_group_IT_number 63
_symmetry_cell_setting 'orthorhombic'
loop_
_space_group_symop_operation_xyz
x,y,z
-x,-y,1/2+z
x,-y,-z
-x,y,1/2-z
-x,-y,-z
x,y,1/2-z
-x,y,z
x,-y,1/2+z
1/2+x,1/2+y,z
1/2-x,1/2-y,1/2+z
1/2+x,1/2-y,-z
1/2-x,1/2+y,1/2-z
1/2-x,1/2-y,-z
1/2+x,1/2+y,1/2-z
1/2-x,1/2+y,z
1/2+x,1/2-y,1/2+z
loop_
_atom_site_type_symbol
_atom_site_label
_atom_site_fract_x
_atom_site_fract_y
_atom_site_fract_z
Si Si1 0.560967 0.707231 0.960546
Si Si2 0.738109 0.199148 0.536200
Si Si3 0.181271 0.048792 0.535585
Si Si4 0.099718 0.605728 0.530635
Si Si5 0.843229 0.145105 0.969986
Si Si6 0.196454 0.548668 0.535861
Si Si7 0.000000 0.550730 0.963972
Si Si8 0.884240 0.700340 0.533479
O O1 0.556574 0.697148 0.750000
O O2 0.500000 0.705726 0.034975
O O3 0.605626 0.673385 0.033018
O O4 0.586655 0.755605 0.974273
O O5 0.736056 0.191625 0.750000
O O6 0.750000 0.250000 0.500000
O O7 0.787135 0.168449 0.471286
O O8 0.677235 0.193938 0.468958
O O9 0.183574 0.051935 0.750000
O O10 0.154309 0.094141 0.474526
O O11 0.242779 0.049755 0.464439
O O12 0.158700 0.000000 0.500000
O O13 0.101471 0.605119 0.750000
O O14 0.156917 0.586367 0.469963
O O15 0.053404 0.573715 0.467065
O O16 0.087457 0.655365 0.479319
O O17 0.842773 0.146633 0.750000
O O18 0.173975 0.500000 0.500000
O O19 0.200326 0.553762 0.750000
O O20 0.000000 0.557238 0.750000
O O21 0.000000 0.500000 0.000000
O O22 0.882699 0.702827 0.750000
#
# Coordination Sequence:
#
# PCOD9468962 Si02
#       8
#    16  16  16  16  16  16   8  16
#     4  10  21  36  53  73  99 133 170 207 247 296
#     4  10  18  30  50  76 104 135 170 207 250 299
#     4   9  17  30  50  74  98 126 158 196 242 291
#     4   9  18  31  47  67  91 123 162 201 243 294
#     4   9  17  32  53  73 101 138 168 198 246 303
#     4   9  16  28  46  67  92 121 155 195 239 290
#     4  10  20  34  50  66  88 122 164 210 253 292
#     4  10  20  33  52  76 100 130 169 209 251 299
#
# _framework density 21.206340000000001
#
# number of rings (size 3 to 8) (size 9 to 14) (size 15 to 20)
#    0.000    2.533    1.333    1.200    0.933    3.467 
#    0.000    2.667    0.000    3.600    0.000    0.000 
#    0.000    0.000    0.000    0.000    0.000    0.000 
#
# Total GULP energy -334788.907254 kJ/mol
# GULP energy per Si atom -5579.815121 kJ/mol
# Density = 2.115807 g / cm^3
# Si number density = 21.206340 Si / 1000 Ang^3
#
#
#
# Elastic Constant Matrix: (Units=GPa)
#
#
# Indices 1 2 3 4 5 6 
#
# 1 118.8275 77.3137 4.8714 0.0000 0.0000 0.0000
# 2 77.3137 193.9511 -7.2798 0.0000 0.0000 0.0000
# 3 4.8714 -7.2798 61.3939 0.0000 0.0000 0.0000
# 4 0.0000 0.0000 0.0000 10.9297 0.0000 0.0000
# 5 0.0000 0.0000 0.0000 0.0000 1.3036 0.0000
# 6 0.0000 0.0000 0.0000 0.0000 0.0000 25.4814
#
#
#
# Elastic Compliance Matrix: (Units=1/GPa)
#
#
# Indices 1 2 3 4 5 6 
#
# 1 0.011492 -0.004636 -0.001462 0.000000 0.000000 0.000000
# 2 -0.004636 0.007049 0.001204 0.000000 0.000000 0.000000
# 3 -0.001462 0.001204 0.016547 0.000000 0.000000 0.000000
# 4 0.000000 0.000000 0.000000 0.091494 0.000000 0.000000
# 5 0.000000 0.000000 0.000000 0.000000 0.767106 0.000000
# 6 0.000000 0.000000 0.000000 0.000000 0.000000 0.039244
#
#
# Mechanical properties :
#
#
# Convention : Reuss Voigt Hill
#
# Bulk Modulus (GPa) = 39.52487 58.22035 48.87261
# Shear Modulus (GPa) = 5.25678 27.49410 16.37544
#
# Velocity S-wave (km/s) = 1.57615 3.60461 2.78186
# Velocity P-wave (km/s) = 4.68946 6.69612 5.78053
#
# Compressibility (1/GPa) = 0.02530052
#
# Stress axis : x y z
#
# Youngs Moduli (GPa) = 87.01981 141.86367 60.43411
#
# Poissons Ratio (x) = 0.65764 0.08832
# Poissons Ratio (y) = 0.40340 -0.07274
# Poissons Ratio (z) = 0.12718 -0.17076
#
# Static dielectric constant tensor:
#      x y z
#    x 1.776920 0.000000 0.000000 
#    y 0.000000 1.751540 0.000000 
#    z 0.000000 0.000000 1.565460 
# 
# From -- ./inp_files/13177.got.cif
#   From: 2010.05.17/outbox.cif.g08.bks.cpg/sg63_7_cif.got.tgz:13177.got - 2010.06.03 15:47:04.
