data_PCOD9468488
_publ_section_title
;
Structure prediction by ZEFSAII (Michael W. Deem and Ramdas Pophale) SiO2 
 PCOD9468488
Probable space group: C M C M
;
_chemical_formula_sum "Si O2"
_cell_formula_units_Z 80
_cell_length_a 7.685768
_cell_length_b 20.724249
_cell_length_c 25.897423
_cell_angle_alpha 90.000000
_cell_angle_beta 90.000000
_cell_angle_gamma 90.000000
_cell_volume 4124.987368
_symmetry_space_group_name_H-M "C M C M"
_symmetry_group_IT_number 63
_symmetry_cell_setting 'orthorhombic'
loop_
_space_group_symop_operation_xyz
x,y,z
-x,-y,1/2+z
x,-y,-z
-x,y,1/2-z
-x,-y,-z
x,y,1/2-z
-x,y,z
x,-y,1/2+z
1/2+x,1/2+y,z
1/2-x,1/2-y,1/2+z
1/2+x,1/2-y,-z
1/2-x,1/2+y,1/2-z
1/2-x,1/2-y,-z
1/2+x,1/2+y,1/2-z
1/2-x,1/2+y,z
1/2+x,1/2-y,1/2+z
loop_
_atom_site_type_symbol
_atom_site_label
_atom_site_fract_x
_atom_site_fract_y
_atom_site_fract_z
Si Si1 0.790638 0.234663 0.138819
Si Si2 0.703029 0.941163 0.032360
Si Si3 0.214168 0.615287 0.861822
Si Si4 0.802565 0.606153 0.750000
Si Si5 0.291873 0.684457 0.030697
Si Si6 0.800250 0.748511 0.250000
O O1 0.733476 0.309522 0.132482
O O2 0.729623 0.194065 0.089641
O O3 0.736324 0.213227 0.196117
O O4 0.000000 0.234917 0.137274
O O5 0.500000 0.957097 0.041281
O O6 0.776011 0.924628 0.088865
O O7 0.713369 0.876300 0.998687
O O8 0.781981 0.000000 0.000000
O O9 0.275160 0.590243 0.805863
O O10 0.000000 0.615376 0.861182
O O11 0.807788 0.684824 0.750000
O O12 0.000000 0.581302 0.750000
O O13 0.500000 0.676225 0.031049
O O14 0.250000 0.750000 0.000000
O O15 0.000000 0.768885 0.250000
#
# Coordination Sequence:
#
# PCOD9468488 Si02
#       6
#    16  16  16   8  16   8
#     4   9  17  31  49  68  97 135 170 204 251 315
#     4  10  20  34  51  73 105 140 176 217 263 312
#     4   8  13  26  46  68  92 126 168 205 247 302
#     4   8  14  26  44  63  92 127 165 205 247 311
#     4  11  21  34  54  77 103 135 175 216 258 310
#     4  10  18  26  42  73 104 125 157 209 261 301
#
# _framework density 19.393999000000001
#
# number of rings (size 3 to 8) (size 9 to 14) (size 15 to 20)
#    0.000    2.600    2.000    2.700    0.000    2.000 
#    0.000    0.000    0.000    1.200    0.000    2.800 
#    0.000    0.000    0.000    0.000    0.000    0.000 
#
# Total GULP energy -222944.478041 kJ/mol
# GULP energy per Si atom -5573.611951 kJ/mol
# Density = 1.934986 g / cm^3
# Si number density = 19.393999 Si / 1000 Ang^3
#
#
#
# Elastic Constant Matrix: (Units=GPa)
#
#
# Indices 1 2 3 4 5 6 
#
# 1 39.9342 -11.2193 -3.5582 0.0000 0.0000 0.0000
# 2 -11.2193 57.1121 48.7647 0.0000 0.0000 0.0000
# 3 -3.5582 48.7647 223.2860 0.0000 0.0000 0.0000
# 4 0.0000 0.0000 0.0000 19.6639 0.0000 0.0000
# 5 0.0000 0.0000 0.0000 0.0000 12.1978 0.0000
# 6 0.0000 0.0000 0.0000 0.0000 0.0000 7.4275
#
#
#
# Elastic Compliance Matrix: (Units=1/GPa)
#
#
# Indices 1 2 3 4 5 6 
#
# 1 0.026645 0.005988 -0.000883 0.000000 0.000000 0.000000
# 2 0.005988 0.022869 -0.004899 0.000000 0.000000 0.000000
# 3 -0.000883 -0.004899 0.005534 0.000000 0.000000 0.000000
# 4 0.000000 0.000000 0.000000 0.050855 0.000000 0.000000
# 5 0.000000 0.000000 0.000000 0.000000 0.081982 0.000000
# 6 0.000000 0.000000 0.000000 0.000000 0.000000 0.134634
#
#
# Mechanical properties :
#
#
# Convention : Reuss Voigt Hill
#
# Bulk Modulus (GPa) = 18.03090 43.14519 30.58804
# Shear Modulus (GPa) = 14.68026 26.94752 20.81389
#
# Velocity S-wave (km/s) = 2.75425 3.73161 3.27955
# Velocity P-wave (km/s) = 4.40816 6.39230 5.49060
#
# Compressibility (1/GPa) = 0.05546035
#
# Stress axis : x y z
#
# Youngs Moduli (GPa) = 37.53067 43.72766 180.68768
#
# Poissons Ratio (x) = -0.26186 0.15959
# Poissons Ratio (y) = -0.22475 0.88519
# Poissons Ratio (z) = 0.03315 0.21422
#
# Static dielectric constant tensor:
#      x y z
#    x 1.732170 0.000000 0.000000 
#    y 0.000000 1.637000 0.000000 
#    z 0.000000 0.000000 1.746940 
# 
# From -- ./inp_files/66688.got.cif
#   From: 2010.05.17/outbox.cif.g08.bks.cpg/sg63_34_cif.got.tgz:66688.got - 2010.06.03 15:47:04.
