data_PCOD9468267
_publ_section_title
;
Structure prediction by ZEFSAII (Michael W. Deem and Ramdas Pophale) SiO2 
 PCOD9468267
Probable space group: C M C M
;
_chemical_formula_sum "Si O2"
_cell_formula_units_Z 112
_cell_length_a 22.648962
_cell_length_b 17.723120
_cell_length_c 18.954512
_cell_angle_alpha 90.000000
_cell_angle_beta 90.000000
_cell_angle_gamma 90.000000
_cell_volume 7608.535806
_symmetry_space_group_name_H-M "C M C M"
_symmetry_group_IT_number 63
_symmetry_cell_setting 'orthorhombic'
loop_
_space_group_symop_operation_xyz
x,y,z
-x,-y,1/2+z
x,-y,-z
-x,y,1/2-z
-x,-y,-z
x,y,1/2-z
-x,y,z
x,-y,1/2+z
1/2+x,1/2+y,z
1/2-x,1/2-y,1/2+z
1/2+x,1/2-y,-z
1/2-x,1/2+y,1/2-z
1/2-x,1/2-y,-z
1/2+x,1/2+y,1/2-z
1/2-x,1/2+y,z
1/2+x,1/2-y,1/2+z
loop_
_atom_site_type_symbol
_atom_site_label
_atom_site_fract_x
_atom_site_fract_y
_atom_site_fract_z
Si Si1 0.810582 0.077836 0.594075
Si Si2 0.188991 0.613306 0.832826
Si Si3 0.570130 0.859323 0.833097
Si Si4 0.643474 0.019761 0.078509
Si Si5 0.359943 0.711286 0.666796
Si Si6 0.772560 0.223960 0.166880
Si Si7 0.777847 0.083259 0.066374
O O1 0.755946 0.089665 0.647599
O O2 0.860298 0.134496 0.621961
O O3 0.790291 0.101659 0.515380
O O4 0.818683 0.987930 0.588333
O O5 0.178910 0.602820 0.750000
O O6 0.148603 0.557902 0.877868
O O7 0.187608 0.702470 0.848903
O O8 0.585440 0.871095 0.750000
O O9 0.500000 0.865535 0.840714
O O10 0.603820 0.920183 0.880486
O O11 0.592539 0.775156 0.851309
O O12 0.710079 0.053869 0.071909
O O13 0.622709 0.000000 0.000000
O O14 0.364740 0.693534 0.750000
O O15 0.295536 0.750157 0.655852
O O16 0.778536 0.205486 0.250000
O O17 0.785773 0.153938 0.117094
#
# Coordination Sequence:
#
# PCOD9468267 Si02
#       7
#    16  16  16  16  16  16  16
#     4   9  17  27  39  64  91 120 144 176 211 265
#     4   9  17  28  41  61  88 120 154 179 209 262
#     4  10  21  35  50  66  84 113 154 193 226 261
#     4  11  19  31  45  64  90 120 149 182 224 262
#     4   9  17  29  44  62  87 117 148 181 221 260
#     4   9  17  26  40  62  87 118 150 176 211 257
#     4  10  17  27  41  65  95 121 149 174 207 266
#
# _framework density 14.720309
#
# number of rings (size 3 to 8) (size 9 to 14) (size 15 to 20)
#    0.000    2.429    4.286    1.714    0.000    6.571 
#    0.000    0.000    0.000    0.000    0.000    2.000 
#    0.000    1.143    0.000    5.143    0.000    0.000 
#
# Total GULP energy -311829.671940 kJ/mol
# GULP energy per Si atom -5568.386999 kJ/mol
# Density = 1.468680 g / cm^3
# Si number density = 14.720309 Si / 1000 Ang^3
#
#
#
# Elastic Constant Matrix: (Units=GPa)
#
#
# Indices 1 2 3 4 5 6 
#
# 1 31.8980 28.5130 25.2839 0.0000 0.0000 0.0000
# 2 28.5130 82.3187 64.7365 0.0000 0.0000 0.0000
# 3 25.2839 64.7365 81.6334 0.0000 0.0000 0.0000
# 4 0.0000 0.0000 0.0000 15.4921 0.0000 0.0000
# 5 0.0000 0.0000 0.0000 0.0000 9.1409 0.0000
# 6 0.0000 0.0000 0.0000 0.0000 0.0000 9.6295
#
#
#
# Elastic Compliance Matrix: (Units=1/GPa)
#
#
# Indices 1 2 3 4 5 6 
#
# 1 0.045965 -0.012555 -0.004280 0.000000 0.000000 0.000000
# 2 -0.012555 0.035707 -0.024427 0.000000 0.000000 0.000000
# 3 -0.004280 -0.024427 0.032947 0.000000 0.000000 0.000000
# 4 0.000000 0.000000 0.000000 0.064549 0.000000 0.000000
# 5 0.000000 0.000000 0.000000 0.000000 0.109399 0.000000
# 6 0.000000 0.000000 0.000000 0.000000 0.000000 0.103848
#
#
# Mechanical properties :
#
#
# Convention : Reuss Voigt Hill
#
# Bulk Modulus (GPa) = 31.15891 48.10189 39.63040
# Shear Modulus (GPa) = 10.29576 12.00695 11.15135
#
# Velocity S-wave (km/s) = 2.64753 2.85910 2.75535
# Velocity P-wave (km/s) = 5.52803 6.60662 6.09125
#
# Compressibility (1/GPa) = 0.03209355
#
# Stress axis : x y z
#
# Youngs Moduli (GPa) = 21.75547 28.00608 30.35204
#
# Poissons Ratio (x) = 0.35162 0.12991
# Poissons Ratio (y) = 0.27314 0.74141
# Poissons Ratio (z) = 0.09312 0.68411
#
# Static dielectric constant tensor:
#      x y z
#    x 1.460950 0.000000 0.000000 
#    y 0.000000 1.510720 0.000000 
#    z 0.000000 0.000000 1.488050 
# 
# From -- ./inp_files/47317.got.cif
#   From: 2010.05.17/outbox.cif.g08.bks.cpg/sg63_24_cif.got.tgz:47317.got - 2010.06.03 15:47:04.
