data_PCOD9468599
_publ_section_title
;
Structure prediction by ZEFSAII (Michael W. Deem and Ramdas Pophale) SiO2 
 PCOD9468599
Probable space group: C M C M
;
_chemical_formula_sum "Si O2"
_cell_formula_units_Z 96
_cell_length_a 7.350954
_cell_length_b 26.121044
_cell_length_c 24.634064
_cell_angle_alpha 90.000000
_cell_angle_beta 90.000000
_cell_angle_gamma 90.000000
_cell_volume 4730.099770
_symmetry_space_group_name_H-M "C M C M"
_symmetry_group_IT_number 63
_symmetry_cell_setting 'orthorhombic'
loop_
_space_group_symop_operation_xyz
x,y,z
-x,-y,1/2+z
x,-y,-z
-x,y,1/2-z
-x,-y,-z
x,y,1/2-z
-x,y,z
x,-y,1/2+z
1/2+x,1/2+y,z
1/2-x,1/2-y,1/2+z
1/2+x,1/2-y,-z
1/2-x,1/2+y,1/2-z
1/2-x,1/2-y,-z
1/2+x,1/2+y,1/2-z
1/2-x,1/2+y,z
1/2+x,1/2-y,1/2+z
loop_
_atom_site_type_symbol
_atom_site_label
_atom_site_fract_x
_atom_site_fract_y
_atom_site_fract_z
Si Si1 0.281690 0.810458 0.310992
Si Si2 0.785449 0.093409 0.615410
Si Si3 0.221573 0.805881 0.811968
Si Si4 0.721890 0.400834 0.617606
Si Si5 0.777810 0.000819 0.187851
Si Si6 0.278090 0.559854 0.498819
O O1 0.217856 0.825039 0.250000
O O2 0.500000 0.808668 0.308665
O O3 0.235325 0.852135 0.355875
O O4 0.219636 0.752495 0.322701
O O5 0.715690 0.086899 0.554237
O O6 0.000000 0.083423 0.611077
O O7 0.714098 0.048973 0.654995
O O8 0.274213 0.819300 0.750000
O O9 0.282362 0.847910 0.855140
O O10 0.000000 0.806008 0.812696
O O11 0.500000 0.400047 0.617083
O O12 0.775656 0.448186 0.655838
O O13 0.781838 0.412713 0.556419
O O14 0.717641 0.000524 0.250000
O O15 0.000000 0.000204 0.188646
O O16 0.225183 0.500000 0.500000
O O17 0.500000 0.560327 0.497431
#
# Coordination Sequence:
#
# PCOD9468599 Si02
#       6
#    16  16  16  16  16  16
#     4   9  18  32  47  63  87 118 149 183 224 266
#     4  10  18  28  44  67  94 119 146 179 217 266
#     4   8  14  25  41  60  82 111 148 188 226 261
#     4   9  14  22  38  60  86 114 145 181 223 265
#     4   9  15  21  34  61  91 111 134 179 229 263
#     4   9  15  25  39  60  91 124 148 173 219 269
#
# _framework density 20.295555
#
# number of rings (size 3 to 8) (size 9 to 14) (size 15 to 20)
#    0.000    3.000    1.667    2.000    0.000    3.000 
#    0.000    0.833    0.000    0.500    0.000    1.167 
#    0.000    2.667    0.000    0.000    0.000    0.000 
#
# Total GULP energy -267925.745188 kJ/mol
# GULP energy per Si atom -5581.786358 kJ/mol
# Density = 2.024936 g / cm^3
# Si number density = 20.295555 Si / 1000 Ang^3
#
#
#
# Elastic Constant Matrix: (Units=GPa)
#
#
# Indices 1 2 3 4 5 6 
#
# 1 72.6315 -3.1537 5.8280 0.0000 0.0000 0.0000
# 2 -3.1537 151.9045 135.1422 0.0000 0.0000 0.0000
# 3 5.8280 135.1422 238.7200 0.0000 0.0000 0.0000
# 4 0.0000 0.0000 0.0000 26.3339 0.0000 0.0000
# 5 0.0000 0.0000 0.0000 0.0000 -6.2869 0.0000
# 6 0.0000 0.0000 0.0000 0.0000 0.0000 1.1374
#
#
#
# Elastic Compliance Matrix: (Units=1/GPa)
#
#
# Indices 1 2 3 4 5 6 
#
# 1 0.013901 0.001190 -0.001013 0.000000 0.000000 0.000000
# 2 0.001190 0.013365 -0.007595 0.000000 0.000000 0.000000
# 3 -0.001013 -0.007595 0.008513 0.000000 0.000000 0.000000
# 4 0.000000 0.000000 0.000000 0.037974 0.000000 0.000000
# 5 0.000000 0.000000 0.000000 0.000000 -0.159060 0.000000
# 6 0.000000 0.000000 0.000000 0.000000 0.000000 0.879179
#
#
# Mechanical properties :
#
#
# Convention : Reuss Voigt Hill
#
# Bulk Modulus (GPa) = 47.74902 82.09878 64.92390
# Shear Modulus (GPa) = 6.12978 25.93284 16.03131
#
# Velocity S-wave (km/s) = 1.73977 3.57845 2.81355
# Velocity P-wave (km/s) = 5.25487 7.59034 6.52790
#
# Compressibility (1/GPa) = 0.02094284
#
# Stress axis : x y z
#
# Youngs Moduli (GPa) = 71.93690 74.82436 117.46308
#
# Poissons Ratio (x) = -0.08902 0.11898
# Poissons Ratio (y) = -0.08559 0.89212
# Poissons Ratio (z) = 0.07286 0.56829
#
# Static dielectric constant tensor:
#      x y z
#    x 1.809790 0.000000 0.000000 
#    y 0.000000 1.681350 0.000000 
#    z 0.000000 0.000000 1.699120 
# 
# From -- ./inp_files/53042.got.cif
#   From: 2010.05.17/outbox.cif.g08.bks.cpg/sg63_27_cif.got.tgz:53042.got - 2010.06.03 15:47:04.
