data_PCOD9468152
_publ_section_title
;
Structure prediction by ZEFSAII (Michael W. Deem and Ramdas Pophale) SiO2 
 PCOD9468152
Probable space group: C M C M
;
_chemical_formula_sum "Si O2"
_cell_formula_units_Z 100
_cell_length_a 9.385193
_cell_length_b 29.533684
_cell_length_c 19.633156
_cell_angle_alpha 90.000000
_cell_angle_beta 90.000000
_cell_angle_gamma 90.000000
_cell_volume 5441.904915
_symmetry_space_group_name_H-M "C M C M"
_symmetry_group_IT_number 63
_symmetry_cell_setting 'orthorhombic'
loop_
_space_group_symop_operation_xyz
x,y,z
-x,-y,1/2+z
x,-y,-z
-x,y,1/2-z
-x,-y,-z
x,y,1/2-z
-x,y,z
x,-y,1/2+z
1/2+x,1/2+y,z
1/2-x,1/2-y,1/2+z
1/2+x,1/2-y,-z
1/2-x,1/2+y,1/2-z
1/2-x,1/2-y,-z
1/2+x,1/2+y,1/2-z
1/2-x,1/2+y,z
1/2+x,1/2-y,1/2+z
loop_
_atom_site_type_symbol
_atom_site_label
_atom_site_fract_x
_atom_site_fract_y
_atom_site_fract_z
Si Si1 0.170578 0.037859 0.669238
Si Si2 0.329939 0.775763 0.561615
Si Si3 0.229191 0.133823 0.629222
Si Si4 0.172446 0.966546 0.559944
Si Si5 0.500000 0.648014 0.750000
Si Si6 0.334111 0.635273 0.029607
Si Si7 0.344786 0.223894 0.668691
O O1 0.186461 0.034739 0.750000
O O2 0.257900 0.080628 0.641047
O O3 0.000000 0.047345 0.656046
O O4 0.206845 0.991919 0.630138
O O5 0.500000 0.774278 0.553401
O O6 0.250000 0.750000 0.500000
O O7 0.266978 0.826273 0.559882
O O8 0.279401 0.750489 0.630060
O O9 0.171780 0.138232 0.552612
O O10 0.344717 0.172689 0.640262
O O11 0.120863 0.145665 0.689848
O O12 0.217326 0.914892 0.550802
O O13 0.000000 0.964878 0.554547
O O14 0.222782 0.000000 0.500000
O O15 0.500000 0.641485 0.050126
O O16 0.326395 0.224010 0.750000
O O17 0.500000 0.244596 0.652872
#
# Coordination Sequence:
#
# PCOD9468152 Si02
#       7
#    16  16  16  16   4  16  16
#     4  10  16  27  46  79 115 149 192 242 289 342
#     4  12  26  41  63  87 117 157 200 244 293 354
#     4  12  19  29  55  82 122 150 189 242 298 356
#     4   9  17  28  48  76 110 148 192 236 289 339
#     4  12  20  28  46  98 116 156 188 240 318 360
#     4  11  21  35  56  84 118 154 196 245 292 344
#     4  11  25  42  61  89 122 154 192 244 301 360
#
# _framework density 18.375919
#
# number of rings (size 3 to 8) (size 9 to 14) (size 15 to 20)
#    0.000    1.120    6.400    1.440    1.120    0.320 
#    0.000    0.800    0.000    4.320    0.000    0.000 
#    0.000    0.000    0.000    0.000    0.000    0.000 
#
# Total GULP energy -278370.426293 kJ/mol
# GULP energy per Si atom -5567.408526 kJ/mol
# Density = 1.833409 g / cm^3
# Si number density = 18.375919 Si / 1000 Ang^3
#
#
#
# Elastic Constant Matrix: (Units=GPa)
#
#
# Indices 1 2 3 4 5 6 
#
# 1 87.4948 53.2285 25.9762 0.0000 0.0000 0.0000
# 2 53.2285 146.1767 45.8127 0.0000 0.0000 0.0000
# 3 25.9762 45.8127 65.5665 0.0000 0.0000 0.0000
# 4 0.0000 0.0000 0.0000 25.5643 0.0000 0.0000
# 5 0.0000 0.0000 0.0000 0.0000 12.2414 0.0000
# 6 0.0000 0.0000 0.0000 0.0000 0.0000 19.3955
#
#
#
# Elastic Compliance Matrix: (Units=1/GPa)
#
#
# Indices 1 2 3 4 5 6 
#
# 1 0.015054 -0.004626 -0.002732 0.000000 0.000000 0.000000
# 2 -0.004626 0.010180 -0.005281 0.000000 0.000000 0.000000
# 3 -0.002732 -0.005281 0.020024 0.000000 0.000000 0.000000
# 4 0.000000 0.000000 0.000000 0.039117 0.000000 0.000000
# 5 0.000000 0.000000 0.000000 0.000000 0.081690 0.000000
# 6 0.000000 0.000000 0.000000 0.000000 0.000000 0.051558
#
#
# Mechanical properties :
#
#
# Convention : Reuss Voigt Hill
#
# Bulk Modulus (GPa) = 50.04600 61.03032 55.53816
# Shear Modulus (GPa) = 20.03511 23.05495 21.54503
#
# Velocity S-wave (km/s) = 3.30554 3.54592 3.42783
# Velocity P-wave (km/s) = 6.47012 7.07453 6.77906
#
# Compressibility (1/GPa) = 0.01998162
#
# Stress axis : x y z
#
# Youngs Moduli (GPa) = 66.42544 98.22805 49.94029
#
# Poissons Ratio (x) = 0.45436 0.13645
# Poissons Ratio (y) = 0.30726 0.26372
# Poissons Ratio (z) = 0.18149 0.51871
#
# Static dielectric constant tensor:
#      x y z
#    x 1.665770 0.000000 0.000000 
#    y 0.000000 1.669980 0.000000 
#    z 0.000000 0.000000 1.617200 
# 
# From -- ./inp_files/51519.got.cif
#   From: 2010.05.17/outbox.cif.g08.bks.cpg/sg63_26_cif.got.tgz:51519.got - 2010.06.03 15:47:04.
