data_PCOD9468320
_publ_section_title
;
Structure prediction by ZEFSAII (Michael W. Deem and Ramdas Pophale) SiO2 
 PCOD9468320
Probable space group: C M C M
;
_chemical_formula_sum "Si O2"
_cell_formula_units_Z 112
_cell_length_a 12.861970
_cell_length_b 29.040204
_cell_length_c 19.611191
_cell_angle_alpha 90.000000
_cell_angle_beta 90.000000
_cell_angle_gamma 90.000000
_cell_volume 7325.058958
_symmetry_space_group_name_H-M "C M C M"
_symmetry_group_IT_number 63
_symmetry_cell_setting 'orthorhombic'
loop_
_space_group_symop_operation_xyz
x,y,z
-x,-y,1/2+z
x,-y,-z
-x,y,1/2-z
-x,-y,-z
x,y,1/2-z
-x,y,z
x,-y,1/2+z
1/2+x,1/2+y,z
1/2-x,1/2-y,1/2+z
1/2+x,1/2-y,-z
1/2-x,1/2+y,1/2-z
1/2-x,1/2-y,-z
1/2+x,1/2+y,1/2-z
1/2-x,1/2+y,z
1/2+x,1/2-y,1/2+z
loop_
_atom_site_type_symbol
_atom_site_label
_atom_site_fract_x
_atom_site_fract_y
_atom_site_fract_z
Si Si1 0.749146 0.270137 0.110755
Si Si2 0.123187 0.699152 0.480171
Si Si3 0.626250 0.546759 0.671929
Si Si4 0.299993 0.368233 0.951042
Si Si5 0.621552 0.306881 0.674100
Si Si6 0.123045 0.031023 0.432144
Si Si7 0.122247 0.143152 0.603536
O O1 0.664861 0.238117 0.071844
O O2 0.808020 0.238281 0.164316
O O3 0.690092 0.315716 0.134689
O O4 0.833665 0.285035 0.053768
O O5 0.184670 0.652410 0.461059
O O6 0.000000 0.695127 0.478890
O O7 0.661665 0.546920 0.750000
O O8 0.500000 0.546377 0.671826
O O9 0.657039 0.501467 0.630111
O O10 0.655622 0.593558 0.632768
O O11 0.348959 0.341297 0.887003
O O12 0.312633 0.422343 0.939301
O O13 0.359006 0.356378 0.021876
O O14 0.638362 0.326623 0.750000
O O15 0.500000 0.295196 0.667837
O O16 0.000000 0.043245 0.424394
O O17 0.130570 0.000000 0.500000
O O18 0.000000 0.149342 0.617239
#
# Coordination Sequence:
#
# PCOD9468320 Si02
#       7
#    16  16  16  16  16  16  16
#     4   9  18  28  46  69  90 126 158 188 230 284
#     4   9  17  30  47  70  96 119 153 200 238 274
#     4   9  18  29  42  66  97 124 150 185 235 287
#     4  10  19  30  49  72  92 123 160 192 238 288
#     4  10  20  32  45  65  96 127 158 198 234 274
#     4  10  17  28  47  69  93 122 152 189 233 285
#     4  10  17  28  47  71  97 124 154 191 234 281
#
# _framework density 15.289979000000001
#
# number of rings (size 3 to 8) (size 9 to 14) (size 15 to 20)
#    0.000    2.429    1.429    3.000    0.000    1.143 
#    0.000    1.429    0.000   10.714    0.000    0.000 
#    0.000    5.714    0.000    0.000    0.000    0.000 
#
# Total GULP energy -312071.438901 kJ/mol
# GULP energy per Si atom -5572.704266 kJ/mol
# Density = 1.525518 g / cm^3
# Si number density = 15.289979 Si / 1000 Ang^3
#
#
#
# Elastic Constant Matrix: (Units=GPa)
#
#
# Indices 1 2 3 4 5 6 
#
# 1 85.7229 39.3753 17.6678 0.0000 0.0000 0.0000
# 2 39.3753 108.6240 25.2989 0.0000 0.0000 0.0000
# 3 17.6678 25.2989 75.7934 0.0000 0.0000 0.0000
# 4 0.0000 0.0000 0.0000 20.6713 0.0000 0.0000
# 5 0.0000 0.0000 0.0000 0.0000 12.1093 0.0000
# 6 0.0000 0.0000 0.0000 0.0000 0.0000 19.8186
#
#
#
# Elastic Compliance Matrix: (Units=1/GPa)
#
#
# Indices 1 2 3 4 5 6 
#
# 1 0.014201 -0.004746 -0.001726 0.000000 0.000000 0.000000
# 2 -0.004746 0.011568 -0.002755 0.000000 0.000000 0.000000
# 3 -0.001726 -0.002755 0.014516 0.000000 0.000000 0.000000
# 4 0.000000 0.000000 0.000000 0.048376 0.000000 0.000000
# 5 0.000000 0.000000 0.000000 0.000000 0.082581 0.000000
# 6 0.000000 0.000000 0.000000 0.000000 0.000000 0.050458
#
#
# Mechanical properties :
#
#
# Convention : Reuss Voigt Hill
#
# Bulk Modulus (GPa) = 45.80672 48.31381 47.06027
# Shear Modulus (GPa) = 20.20766 23.03972 21.62369
#
# Velocity S-wave (km/s) = 3.63936 3.88603 3.76472
# Velocity P-wave (km/s) = 6.90533 7.19735 7.05286
#
# Compressibility (1/GPa) = 0.02183086
#
# Stress axis : x y z
#
# Youngs Moduli (GPa) = 70.41681 86.44529 68.89063
#
# Poissons Ratio (x) = 0.41025 0.11893
# Poissons Ratio (y) = 0.33418 0.18979
# Poissons Ratio (z) = 0.12156 0.23816
#
# Static dielectric constant tensor:
#      x y z
#    x 1.480350 0.000000 0.000000 
#    y 0.000000 1.510590 0.000000 
#    z 0.000000 0.000000 1.525180 
# 
# From -- ./inp_files/53343.got.cif
#   From: 2010.05.17/outbox.cif.g08.bks.cpg/sg63_27_cif.got.tgz:53343.got - 2010.06.03 15:47:04.
