data_PCOD9468605
_publ_section_title
;
Structure prediction by ZEFSAII (Michael W. Deem and Ramdas Pophale) SiO2 
 PCOD9468605
Probable space group: C M C M
;
_chemical_formula_sum "Si O2"
_cell_formula_units_Z 96
_cell_length_a 7.924090
_cell_length_b 28.126025
_cell_length_c 23.500541
_cell_angle_alpha 90.000000
_cell_angle_beta 90.000000
_cell_angle_gamma 90.000000
_cell_volume 5237.639680
_symmetry_space_group_name_H-M "C M C M"
_symmetry_group_IT_number 63
_symmetry_cell_setting 'orthorhombic'
loop_
_space_group_symop_operation_xyz
x,y,z
-x,-y,1/2+z
x,-y,-z
-x,y,1/2-z
-x,-y,-z
x,y,1/2-z
-x,y,z
x,-y,1/2+z
1/2+x,1/2+y,z
1/2-x,1/2-y,1/2+z
1/2+x,1/2-y,-z
1/2-x,1/2+y,1/2-z
1/2-x,1/2-y,-z
1/2+x,1/2+y,1/2-z
1/2-x,1/2+y,z
1/2+x,1/2-y,1/2+z
loop_
_atom_site_type_symbol
_atom_site_label
_atom_site_fract_x
_atom_site_fract_y
_atom_site_fract_z
Si Si1 0.804289 0.702744 0.064286
Si Si2 0.295323 0.145066 0.545518
Si Si3 0.694630 0.787711 0.362743
Si Si4 0.293758 0.264089 0.750000
Si Si5 0.199932 0.889721 0.874119
Si Si6 0.300686 0.875708 0.750000
Si Si7 0.702367 0.551269 0.018520
O O1 0.702910 0.746463 0.089691
O O2 0.790501 0.659230 0.108622
O O3 0.000000 0.716591 0.058062
O O4 0.739220 0.680376 0.005422
O O5 0.500000 0.146582 0.545503
O O6 0.232790 0.166051 0.605479
O O7 0.243044 0.092541 0.526860
O O8 0.500000 0.798528 0.349151
O O9 0.768012 0.764127 0.305937
O O10 0.500000 0.264905 0.750000
O O11 0.242261 0.319258 0.750000
O O12 0.230613 0.898464 0.807934
O O13 0.259375 0.929167 0.919652
O O14 0.000000 0.882258 0.882985
O O15 0.500000 0.880716 0.750000
O O16 0.500000 0.547338 0.022044
O O17 0.770640 0.500000 0.000000
#
# Coordination Sequence:
#
# PCOD9468605 Si02
#       7
#    16  16  16   8  16   8  16
#     4  10  18  28  44  69 100 130 164 206 246 289
#     4   9  19  32  47  71  99 129 164 204 253 302
#     4  10  19  31  46  66  97 136 174 204 238 294
#     4  10  20  32  48  67  96 141 179 204 239 289
#     4  10  19  32  51  73 101 135 167 201 251 307
#     4  12  22  32  48  73 106 135 169 210 241 287
#     4   9  19  36  57  79  99 124 164 213 263 312
#
# _framework density 18.328866000000001
#
# number of rings (size 3 to 8) (size 9 to 14) (size 15 to 20)
#    0.000    2.167    1.667    2.250    0.000    2.333 
#    0.000    0.000    0.000    1.000    0.000    2.333 
#    0.000    0.000    0.000    0.000    0.000    0.000 
#
# Total GULP energy -267696.726828 kJ/mol
# GULP energy per Si atom -5577.015142 kJ/mol
# Density = 1.828715 g / cm^3
# Si number density = 18.328866 Si / 1000 Ang^3
#
#
#
# Elastic Constant Matrix: (Units=GPa)
#
#
# Indices 1 2 3 4 5 6 
#
# 1 26.2058 -4.4939 4.6557 0.0000 0.0000 0.0000
# 2 -4.4939 103.1511 73.4727 0.0000 0.0000 0.0000
# 3 4.6557 73.4727 87.7182 0.0000 0.0000 0.0000
# 4 0.0000 0.0000 0.0000 15.8905 0.0000 0.0000
# 5 0.0000 0.0000 0.0000 0.0000 11.7571 0.0000
# 6 0.0000 0.0000 0.0000 0.0000 0.0000 12.6384
#
#
#
# Elastic Compliance Matrix: (Units=1/GPa)
#
#
# Indices 1 2 3 4 5 6 
#
# 1 0.041211 0.008313 -0.009150 0.000000 0.000000 0.000000
# 2 0.008313 0.025709 -0.021975 0.000000 0.000000 0.000000
# 3 -0.009150 -0.021975 0.030292 0.000000 0.000000 0.000000
# 4 0.000000 0.000000 0.000000 0.062931 0.000000 0.000000
# 5 0.000000 0.000000 0.000000 0.000000 0.085055 0.000000
# 6 0.000000 0.000000 0.000000 0.000000 0.000000 0.079124
#
#
# Mechanical properties :
#
#
# Convention : Reuss Voigt Hill
#
# Bulk Modulus (GPa) = 19.38472 40.48267 29.93370
# Shear Modulus (GPa) = 12.91514 17.61990 15.26752
#
# Velocity S-wave (km/s) = 2.65737 3.10388 2.88926
# Velocity P-wave (km/s) = 4.47376 5.91441 5.24379
#
# Compressibility (1/GPa) = 0.05158702
#
# Stress axis : x y z
#
# Youngs Moduli (GPa) = 24.26563 38.89656 33.01178
#
# Poissons Ratio (x) = -0.32334 0.30206
# Poissons Ratio (y) = -0.20171 0.72544
# Poissons Ratio (z) = 0.22203 0.85476
#
# Static dielectric constant tensor:
#      x y z
#    x 1.653420 0.000000 0.000000 
#    y 0.000000 1.617610 0.000000 
#    z 0.000000 0.000000 1.680950 
# 
# From -- ./inp_files/60275.got.cif
#   From: 2010.05.17/outbox.cif.g08.bks.cpg/sg63_31_cif.got.tgz:60275.got - 2010.06.03 15:47:04.
