data_PCOD9468018
_publ_section_title
;
Structure prediction by ZEFSAII (Michael W. Deem and Ramdas Pophale) SiO2 
 PCOD9468018
Probable space group: P N M A
;
_chemical_formula_sum "Si O2"
_cell_formula_units_Z 48
_cell_length_a 21.000000
_cell_length_b 9.000000
_cell_length_c 15.000000
_cell_angle_alpha 90.000000
_cell_angle_beta 90.000000
_cell_angle_gamma 90.000000
_cell_volume 2835.000000
_symmetry_space_group_name_H-M "P N M A"
_symmetry_group_IT_number 62
_symmetry_cell_setting 'orthorhombic'
loop_
_space_group_symop_operation_xyz
x,y,z
1/2-x,-y,1/2+z
1/2+x,1/2-y,1/2-z
-x,1/2+y,-z
-x,-y,-z
1/2+x,y,1/2-z
1/2-x,1/2+y,1/2+z
x,1/2-y,z
loop_
_atom_site_type_symbol
_atom_site_label
_atom_site_fract_x
_atom_site_fract_y
_atom_site_fract_z
Si Si1 0.574428 0.931784 0.004505
Si Si2 0.675411 0.928493 0.642103
Si Si3 0.924502 0.566189 0.998363
Si Si4 0.826018 0.931531 0.650736
Si Si5 0.175969 0.567673 0.148777
Si Si6 0.816212 0.071872 0.354545
O O1 0.569037 0.750000 0.013143
O O2 0.618843 0.000896 0.085133
O O3 0.621794 0.960926 0.917889
O O4 0.500000 0.000000 0.000000
O O5 0.667585 0.750000 0.627739
O O6 0.751246 0.963040 0.621521
O O7 0.668960 0.957856 0.749200
O O8 0.620795 0.012329 0.582994
O O9 0.927700 0.750000 0.995417
O O10 0.880308 0.501218 0.915483
O O11 0.000000 0.500000 0.000000
O O12 0.831702 0.750000 0.654988
O O13 0.833057 0.003776 0.749957
O O14 0.173608 0.750000 0.146406
O O15 0.248767 0.512312 0.123015
O O16 0.803926 0.250000 0.362462
#
# Coordination Sequence:
#
# PCOD9468018 Si02
#       6
#     8   8   8   8   8   8
#     4  11  23  38  57  84 119 157 197 239 288 344
#     4   9  19  38  62  87 114 147 191 239 288 341
#     4  12  25  40  58  83 118 156 194 237 288 344
#     4  10  21  39  62  87 117 152 190 236 288 342
#     4  11  22  38  62  89 115 147 191 240 288 342
#     4   9  20  39  62  86 114 151 192 237 287 339
#
# _framework density 16.931217
#
# number of rings (size 3 to 8) (size 9 to 14) (size 15 to 20)
#    0.000    1.667    0.000    6.000    0.000    8.667 
#    0.000    5.000    0.000    0.000    0.000    0.000 
#    0.000    0.000    0.000    0.000    0.000    0.000 
#
# Total GULP energy -267274.908432 kJ/mol
# GULP energy per Si atom -5568.227259 kJ/mol
# Density = 1.689268 g / cm^3
# Si number density = 16.931217 Si / 1000 Ang^3
#
#
#
# Elastic Constant Matrix: (Units=GPa)
#
#
# Indices 1 2 3 4 5 6 
#
# 1 196.4009 69.8242 77.6612 0.0000 0.0000 0.0000
# 2 69.8242 142.8713 46.3043 0.0000 0.0000 0.0000
# 3 77.6612 46.3043 121.5602 0.0000 0.0000 0.0000
# 4 0.0000 0.0000 0.0000 35.5520 0.0000 0.0000
# 5 0.0000 0.0000 0.0000 0.0000 44.1075 0.0000
# 6 0.0000 0.0000 0.0000 0.0000 0.0000 47.6642
#
#
#
# Elastic Compliance Matrix: (Units=1/GPa)
#
#
# Indices 1 2 3 4 5 6 
#
# 1 0.007471 -0.002401 -0.003858 0.000000 0.000000 0.000000
# 2 -0.002401 0.008757 -0.001802 0.000000 0.000000 0.000000
# 3 -0.003858 -0.001802 0.011378 0.000000 0.000000 0.000000
# 4 0.000000 0.000000 0.000000 0.028128 0.000000 0.000000
# 5 0.000000 0.000000 0.000000 0.000000 0.022672 0.000000
# 6 0.000000 0.000000 0.000000 0.000000 0.000000 0.020980
#
#
# Mechanical properties :
#
#
# Convention : Reuss Voigt Hill
#
# Bulk Modulus (GPa) = 87.08283 94.26798 90.67541
# Shear Modulus (GPa) = 41.89909 43.26760 42.58334
#
# Velocity S-wave (km/s) = 4.98000 5.06067 5.02050
# Velocity P-wave (km/s) = 9.19848 9.48394 9.34230
#
# Compressibility (1/GPa) = 0.01148332
#
# Stress axis : x y z
#
# Youngs Moduli (GPa) = 133.85438 114.20080 87.89080
#
# Poissons Ratio (x) = 0.27415 0.33912
# Poissons Ratio (y) = 0.32133 0.15836
# Poissons Ratio (z) = 0.51647 0.20577
#
# Static dielectric constant tensor:
#      x y z
#    x 1.584190 0.000000 0.000000 
#    y 0.000000 1.589890 0.000000 
#    z 0.000000 0.000000 1.617160 
# 
# From -- ./inp_files/20036.got.cif
#   From: 2010.05.17/outbox.ucp.g08.bks.cvg/sg62_11_cif.got.tgz:20036.got - 2010.06.11 16:29:25.
