data_PCOD9468727
_publ_section_title
;
Structure prediction by ZEFSAII (Michael W. Deem and Ramdas Pophale) SiO2 
 PCOD9468727
Probable space group: C M C M
;
_chemical_formula_sum "Si O2"
_cell_formula_units_Z 64
_cell_length_a 14.889726
_cell_length_b 28.934834
_cell_length_c 8.589059
_cell_angle_alpha 90.000000
_cell_angle_beta 90.000000
_cell_angle_gamma 90.000000
_cell_volume 3700.439321
_symmetry_space_group_name_H-M "C M C M"
_symmetry_group_IT_number 63
_symmetry_cell_setting 'orthorhombic'
loop_
_space_group_symop_operation_xyz
x,y,z
-x,-y,1/2+z
x,-y,-z
-x,y,1/2-z
-x,-y,-z
x,y,1/2-z
-x,y,z
x,-y,1/2+z
1/2+x,1/2+y,z
1/2-x,1/2-y,1/2+z
1/2+x,1/2-y,-z
1/2-x,1/2+y,1/2-z
1/2-x,1/2-y,-z
1/2+x,1/2+y,1/2-z
1/2-x,1/2+y,z
1/2+x,1/2-y,1/2+z
loop_
_atom_site_type_symbol
_atom_site_label
_atom_site_fract_x
_atom_site_fract_y
_atom_site_fract_z
Si Si1 0.846643 0.234210 0.936108
Si Si2 0.896382 0.050245 0.062313
Si Si3 0.097508 0.671665 0.936333
Si Si4 0.710029 0.640800 0.437009
O O1 0.850015 0.234804 0.750000
O O2 0.750000 0.250000 0.000000
O O3 0.905508 0.275363 0.004636
O O4 0.852883 0.181998 0.996922
O O5 0.895604 0.048959 0.250000
O O6 0.831390 0.091827 0.013450
O O7 0.000000 0.058786 0.012724
O O8 0.869513 0.000000 0.000000
O O9 0.107219 0.671799 0.750000
O O10 0.000000 0.650226 0.976373
O O11 0.187404 0.648702 0.006387
O O12 0.709492 0.644078 0.250000
#
# Coordination Sequence:
#
# PCOD9468727 Si02
#       4
#    16  16  16  16
#     4  10  18  29  46  68  96 129 165 202 239 282
#     4   9  19  35  54  76 100 126 157 196 245 297
#     4  10  20  33  49  70  99 135 171 207 246 287
#     4  10  19  32  51  74 101 132 165 202 245 293
#
# _framework density 17.295244
#
# number of rings (size 3 to 8) (size 9 to 14) (size 15 to 20)
#    0.000    2.250    0.000    6.750    0.000    5.000 
#    0.000    2.500    0.000    0.750    0.000    0.000 
#    0.000    0.000    0.000    0.000    0.000    0.000 
#
# Total GULP energy -178280.473433 kJ/mol
# GULP energy per Si atom -5571.264795 kJ/mol
# Density = 1.725588 g / cm^3
# Si number density = 17.295244 Si / 1000 Ang^3
#
#
#
# Elastic Constant Matrix: (Units=GPa)
#
#
# Indices 1 2 3 4 5 6 
#
# 1 95.7591 65.5660 20.9859 0.0000 0.0000 0.0000
# 2 65.5660 142.2974 27.5129 0.0000 0.0000 0.0000
# 3 20.9859 27.5129 58.4096 0.0000 0.0000 0.0000
# 4 0.0000 0.0000 0.0000 28.3322 0.0000 0.0000
# 5 0.0000 0.0000 0.0000 0.0000 15.9246 0.0000
# 6 0.0000 0.0000 0.0000 0.0000 0.0000 24.6448
#
#
#
# Elastic Compliance Matrix: (Units=1/GPa)
#
#
# Indices 1 2 3 4 5 6 
#
# 1 0.015565 -0.006701 -0.002436 0.000000 0.000000 0.000000
# 2 -0.006701 0.010616 -0.002593 0.000000 0.000000 0.000000
# 3 -0.002436 -0.002593 0.019217 0.000000 0.000000 0.000000
# 4 0.000000 0.000000 0.000000 0.035295 0.000000 0.000000
# 5 0.000000 0.000000 0.000000 0.000000 0.062796 0.000000
# 6 0.000000 0.000000 0.000000 0.000000 0.000000 0.040577
#
#
# Mechanical properties :
#
#
# Convention : Reuss Voigt Hill
#
# Bulk Modulus (GPa) = 45.58191 58.28841 51.93516
# Shear Modulus (GPa) = 23.27330 25.94042 24.60686
#
# Velocity S-wave (km/s) = 3.67229 3.87700 3.77603
# Velocity P-wave (km/s) = 6.66283 7.33599 7.00750
#
# Compressibility (1/GPa) = 0.02193853
#
# Stress axis : x y z
#
# Youngs Moduli (GPa) = 64.24800 94.19394 52.03684
#
# Poissons Ratio (x) = 0.63117 0.12676
# Poissons Ratio (y) = 0.43051 0.13494
# Poissons Ratio (z) = 0.15650 0.24426
#
# Static dielectric constant tensor:
#      x y z
#    x 1.608900 0.000000 0.000000 
#    y 0.000000 1.593310 0.000000 
#    z 0.000000 0.000000 1.580510 
# 
# From -- ./inp_files/6211.got.cif
#   From: 2010.05.17/outbox.cif.g08.bks.cpg/sg63_4_cif.got.tgz:6211.got - 2010.06.03 15:47:04.
