data_PCOD9468779
_publ_section_title
;
Structure prediction by ZEFSAII (Michael W. Deem and Ramdas Pophale) SiO2 
 PCOD9468779
Probable space group: C M C M
;
_chemical_formula_sum "Si O2"
_cell_formula_units_Z 60
_cell_length_a 15.282781
_cell_length_b 12.946294
_cell_length_c 12.806657
_cell_angle_alpha 90.000000
_cell_angle_beta 90.000000
_cell_angle_gamma 90.000000
_cell_volume 2533.865936
_symmetry_space_group_name_H-M "C M C M"
_symmetry_group_IT_number 63
_symmetry_cell_setting 'orthorhombic'
loop_
_space_group_symop_operation_xyz
x,y,z
-x,-y,1/2+z
x,-y,-z
-x,y,1/2-z
-x,-y,-z
x,y,1/2-z
-x,y,z
x,-y,1/2+z
1/2+x,1/2+y,z
1/2-x,1/2-y,1/2+z
1/2+x,1/2-y,-z
1/2-x,1/2+y,1/2-z
1/2-x,1/2-y,-z
1/2+x,1/2+y,1/2-z
1/2-x,1/2+y,z
1/2+x,1/2-y,1/2+z
loop_
_atom_site_type_symbol
_atom_site_label
_atom_site_fract_x
_atom_site_fract_y
_atom_site_fract_z
Si Si1 0.308165 0.368475 0.127951
Si Si2 0.500000 0.384607 0.131136
Si Si3 0.500000 0.809343 0.250000
Si Si4 0.500000 0.797959 0.030325
Si Si5 0.897932 0.510638 0.250000
Si Si6 0.327068 0.869614 0.557136
O O1 0.280483 0.384945 0.250000
O O2 0.401943 0.428466 0.117549
O O3 0.317752 0.243265 0.112258
O O4 0.249142 0.390532 0.026134
O O5 0.500000 0.346000 0.250000
O O6 0.500000 0.290482 0.053092
O O7 0.500000 0.748219 0.144148
O O8 0.418460 0.888750 0.250000
O O9 0.585267 0.864702 0.011857
O O10 0.846233 0.551235 0.350205
O O11 0.000000 0.554115 0.250000
#
# Coordination Sequence:
#
# PCOD9468779 Si02
#       6
#    16   8   4   8   8  16
#     4   9  17  28  47  73  93 124 164 199 243 307
#     4   8  16  31  53  73 103 135 164 201 247 299
#     4  10  24  34  46  70  98 144 184 204 234 280
#     4  10  19  31  48  68 100 136 167 209 235 277
#     4  10  20  34  49  60  93 140 174 202 233 287
#     4  10  18  29  49  67  93 129 168 199 244 292
#
# _framework density 23.679233
#
# number of rings (size 3 to 8) (size 9 to 14) (size 15 to 20)
#    0.400    2.133    2.667    0.000    3.733    2.133 
#    0.000    0.000    0.000    0.000    0.000    0.000 
#    0.000    6.400    0.000    0.267    0.000    0.533 
#
# Total GULP energy -167263.697212 kJ/mol
# GULP energy per Si atom -5575.456574 kJ/mol
# Density = 2.362534 g / cm^3
# Si number density = 23.679233 Si / 1000 Ang^3
#
#
#
# Elastic Constant Matrix: (Units=GPa)
#
#
# Indices 1 2 3 4 5 6 
#
# 1 127.7970 -14.6878 73.0593 0.0000 0.0000 0.0000
# 2 -14.6878 32.3912 -1.8501 0.0000 0.0000 0.0000
# 3 73.0593 -1.8501 192.1977 0.0000 0.0000 0.0000
# 4 0.0000 0.0000 0.0000 82.8864 0.0000 0.0000
# 5 0.0000 0.0000 0.0000 0.0000 51.2394 0.0000
# 6 0.0000 0.0000 0.0000 0.0000 0.0000 1.0112
#
#
#
# Elastic Compliance Matrix: (Units=1/GPa)
#
#
# Indices 1 2 3 4 5 6 
#
# 1 0.010640 0.004596 -0.004000 0.000000 0.000000 0.000000
# 2 0.004596 0.032875 -0.001431 0.000000 0.000000 0.000000
# 3 -0.004000 -0.001431 0.006710 0.000000 0.000000 0.000000
# 4 0.000000 0.000000 0.000000 0.012065 0.000000 0.000000
# 5 0.000000 0.000000 0.000000 0.000000 0.019516 0.000000
# 6 0.000000 0.000000 0.000000 0.000000 0.000000 0.988877
#
#
# Mechanical properties :
#
#
# Convention : Reuss Voigt Hill
#
# Bulk Modulus (GPa) = 20.59501 51.71428 36.15464
# Shear Modulus (GPa) = 4.59332 46.75170 25.67251
#
# Velocity S-wave (km/s) = 1.39428 4.44822 3.29626
# Velocity P-wave (km/s) = 3.36280 6.94760 5.45791
#
# Compressibility (1/GPa) = 0.04855545
#
# Stress axis : x y z
#
# Youngs Moduli (GPa) = 93.98422 30.41821 149.03506
#
# Poissons Ratio (x) = -0.13981 0.59619
# Poissons Ratio (y) = -0.43198 0.21322
# Poissons Ratio (z) = 0.37597 0.04352
#
# Static dielectric constant tensor:
#      x y z
#    x 2.039420 0.000000 0.000000 
#    y 0.000000 1.919850 0.000000 
#    z 0.000000 0.000000 1.862870 
# 
# From -- ./inp_files/19139.got.cif
#   From: 2010.05.17/outbox.cif.g08.bks.cpg/sg63_10_cif.got.tgz:19139.got - 2010.06.03 15:47:04.
