data_PCOD9468915
_publ_section_title
;
Structure prediction by ZEFSAII (Michael W. Deem and Ramdas Pophale) SiO2 
 PCOD9468915
Probable space group: C M C M
;
_chemical_formula_sum "Si O2"
_cell_formula_units_Z 96
_cell_length_a 7.467130
_cell_length_b 26.118184
_cell_length_c 24.421423
_cell_angle_alpha 90.000000
_cell_angle_beta 90.000000
_cell_angle_gamma 90.000000
_cell_volume 4762.858239
_symmetry_space_group_name_H-M "C M C M"
_symmetry_group_IT_number 63
_symmetry_cell_setting 'orthorhombic'
loop_
_space_group_symop_operation_xyz
x,y,z
-x,-y,1/2+z
x,-y,-z
-x,y,1/2-z
-x,-y,-z
x,y,1/2-z
-x,y,z
x,-y,1/2+z
1/2+x,1/2+y,z
1/2-x,1/2-y,1/2+z
1/2+x,1/2-y,-z
1/2-x,1/2+y,1/2-z
1/2-x,1/2-y,-z
1/2+x,1/2+y,1/2-z
1/2-x,1/2+y,z
1/2+x,1/2-y,1/2+z
loop_
_atom_site_type_symbol
_atom_site_label
_atom_site_fract_x
_atom_site_fract_y
_atom_site_fract_z
Si Si1 0.780625 0.597765 0.633552
Si Si2 0.711152 0.308284 0.552891
Si Si3 0.718337 0.054980 0.750000
Si Si4 0.707000 0.194521 0.930920
Si Si5 0.718913 0.064508 0.250000
Si Si6 0.284449 0.098453 0.368519
Si Si7 0.281348 0.000101 0.562671
O O1 0.724795 0.583621 0.694884
O O2 0.715966 0.651457 0.608852
O O3 0.726333 0.551246 0.594157
O O4 0.000000 0.598649 0.633027
O O5 0.500000 0.302657 0.543043
O O6 0.784719 0.251923 0.568094
O O7 0.788300 0.324586 0.493964
O O8 0.737983 0.349624 0.600082
O O9 0.500000 0.054227 0.750000
O O10 0.773135 0.995313 0.750000
O O11 0.500000 0.200433 0.914496
O O12 0.500000 0.064587 0.250000
O O13 0.778017 0.091580 0.193926
O O14 0.500000 0.095792 0.367041
O O15 0.221886 0.050032 0.404341
O O16 0.500000 0.999411 0.562649
O O17 0.222317 0.000000 0.500000
#
# Coordination Sequence:
#
# PCOD9468915 Si02
#       7
#    16  16   8  16   8  16  16
#     4   9  15  25  44  71  99 121 150 198 250 289
#     4  10  20  33  49  71  99 130 164 200 241 292
#     4   9  14  24  43  73 103 121 147 200 255 284
#     4   9  18  33  52  73  96 126 163 201 245 293
#     4   9  16  28  46  73 101 127 161 200 239 282
#     4  10  18  30  49  72  99 128 162 200 239 287
#     4   9  15  22  39  69  97 118 147 193 244 288
#
# _framework density 20.155964999999998
#
# number of rings (size 3 to 8) (size 9 to 14) (size 15 to 20)
#    0.000    2.667    1.667    1.500    0.000    3.333 
#    0.000    1.250    0.000    6.500    0.000    0.583 
#    0.000    0.000    0.000    0.000    0.000    0.000 
#
# Total GULP energy -267940.606486 kJ/mol
# GULP energy per Si atom -5582.095968 kJ/mol
# Density = 2.011009 g / cm^3
# Si number density = 20.155965 Si / 1000 Ang^3
#
#
#
# Elastic Constant Matrix: (Units=GPa)
#
#
# Indices 1 2 3 4 5 6 
#
# 1 57.9074 -1.9855 -7.3793 0.0000 0.0000 0.0000
# 2 -1.9855 117.9554 75.4848 0.0000 0.0000 0.0000
# 3 -7.3793 75.4848 146.3108 0.0000 0.0000 0.0000
# 4 0.0000 0.0000 0.0000 25.2800 0.0000 0.0000
# 5 0.0000 0.0000 0.0000 0.0000 2.0600 0.0000
# 6 0.0000 0.0000 0.0000 0.0000 0.0000 3.6144
#
#
#
# Elastic Compliance Matrix: (Units=1/GPa)
#
#
# Indices 1 2 3 4 5 6 
#
# 1 0.017393 -0.000401 0.001084 0.000000 0.000000 0.000000
# 2 -0.000401 0.012666 -0.006555 0.000000 0.000000 0.000000
# 3 0.001084 -0.006555 0.010271 0.000000 0.000000 0.000000
# 4 0.000000 0.000000 0.000000 0.039557 0.000000 0.000000
# 5 0.000000 0.000000 0.000000 0.000000 0.485434 0.000000
# 6 0.000000 0.000000 0.000000 0.000000 0.000000 0.276669
#
#
# Mechanical properties :
#
#
# Convention : Reuss Voigt Hill
#
# Bulk Modulus (GPa) = 34.98092 50.49041 42.73567
# Shear Modulus (GPa) = 5.79198 23.26114 14.52656
#
# Velocity S-wave (km/s) = 1.69700 3.40083 2.68751
# Velocity P-wave (km/s) = 4.60788 6.36593 5.55687
#
# Compressibility (1/GPa) = 0.02858701
#
# Stress axis : x y z
#
# Youngs Moduli (GPa) = 57.49324 78.95349 97.35998
#
# Poissons Ratio (x) = 0.03166 -0.10555
# Poissons Ratio (y) = 0.02306 0.63817
# Poissons Ratio (z) = -0.06233 0.51752
#
# Static dielectric constant tensor:
#      x y z
#    x 1.794160 0.000000 0.000000 
#    y 0.000000 1.697230 0.000000 
#    z 0.000000 0.000000 1.681070 
# 
# From -- ./inp_files/59986.got.cif
#   From: 2010.05.17/outbox.cif.g08.bks.cpg/sg63_30_cif.got.tgz:59986.got - 2010.06.03 15:47:04.
