data_PCOD9468625
_publ_section_title
;
Structure prediction by ZEFSAII (Michael W. Deem and Ramdas Pophale) SiO2 
 PCOD9468625
Probable space group: C M C M
;
_chemical_formula_sum "Si O2"
_cell_formula_units_Z 96
_cell_length_a 33.106252
_cell_length_b 19.190415
_cell_length_c 8.125825
_cell_angle_alpha 90.000000
_cell_angle_beta 90.000000
_cell_angle_gamma 90.000000
_cell_volume 5162.521200
_symmetry_space_group_name_H-M "C M C M"
_symmetry_group_IT_number 63
_symmetry_cell_setting 'orthorhombic'
loop_
_space_group_symop_operation_xyz
x,y,z
-x,-y,1/2+z
x,-y,-z
-x,y,1/2-z
-x,-y,-z
x,y,1/2-z
-x,y,z
x,-y,1/2+z
1/2+x,1/2+y,z
1/2-x,1/2-y,1/2+z
1/2+x,1/2-y,-z
1/2-x,1/2+y,1/2-z
1/2-x,1/2-y,-z
1/2+x,1/2+y,1/2-z
1/2-x,1/2+y,z
1/2+x,1/2-y,1/2+z
loop_
_atom_site_type_symbol
_atom_site_label
_atom_site_fract_x
_atom_site_fract_y
_atom_site_fract_z
Si Si1 0.338905 0.580563 0.051020
Si Si2 0.500000 0.158197 0.941259
Si Si3 0.750764 0.918992 0.946367
Si Si4 0.000000 0.185270 0.557949
Si Si5 0.412455 0.166507 0.951851
Si Si6 0.085517 0.171303 0.050969
Si Si7 0.835638 0.419606 0.445612
O O1 0.338874 0.583131 0.250000
O O2 0.294585 0.607776 0.995362
O O3 0.376832 0.625486 0.992436
O O4 0.342765 0.500000 0.000000
O O5 0.500000 0.137569 0.750000
O O6 0.456155 0.138014 0.010960
O O7 0.500000 0.242745 0.953878
O O8 0.750015 0.915992 0.750000
O O9 0.708267 0.889138 0.007387
O O10 0.750387 0.000000 0.000000
O O11 0.958172 0.147720 0.514636
O O12 0.000000 0.203734 0.750000
O O13 0.413218 0.164763 0.750000
O O14 0.409060 0.247747 0.998367
O O15 0.373946 0.123252 0.010439
O O16 0.084360 0.168944 0.250000
O O17 0.837798 0.500000 0.500000
O O18 0.837801 0.418767 0.250000
#
# Coordination Sequence:
#
# PCOD9468625 Si02
#       7
#    16   8  16   8  16  16  16
#     4   9  18  31  50  71  92 117 151 189 226 266
#     4   8  14  30  51  66  84 120 159 186 216 270
#     4   9  16  28  45  66  89 118 151 184 221 269
#     4  10  18  28  45  72  97 118 147 188 227 264
#     4   8  15  28  49  69  86 114 157 192 217 260
#     4   9  17  33  52  68  88 122 157 184 218 270
#     4  10  18  29  45  67  91 119 152 189 226 268
#
# _framework density 18.595565000000001
#
# number of rings (size 3 to 8) (size 9 to 14) (size 15 to 20)
#    0.000    3.000    0.000    3.750    0.000    1.333 
#    0.000    8.333    0.000    0.000    0.000    0.000 
#    0.000    0.000    0.000    0.000    0.000    0.000 
#
# Total GULP energy -267208.255149 kJ/mol
# GULP energy per Si atom -5566.838649 kJ/mol
# Density = 1.855324 g / cm^3
# Si number density = 18.595565 Si / 1000 Ang^3
#
#
#
# Elastic Constant Matrix: (Units=GPa)
#
#
# Indices 1 2 3 4 5 6 
#
# 1 246.6592 66.3068 18.3521 0.0000 0.0000 0.0000
# 2 66.3068 37.2833 5.4723 0.0000 0.0000 0.0000
# 3 18.3521 5.4723 22.0766 0.0000 0.0000 0.0000
# 4 0.0000 0.0000 0.0000 5.8188 0.0000 0.0000
# 5 0.0000 0.0000 0.0000 0.0000 349.9876 0.0000
# 6 0.0000 0.0000 0.0000 0.0000 0.0000 34.9965
#
#
#
# Elastic Compliance Matrix: (Units=1/GPa)
#
#
# Indices 1 2 3 4 5 6 
#
# 1 0.007985 -0.013725 -0.003235 0.000000 0.000000 0.000000
# 2 -0.013725 0.051428 -0.001338 0.000000 0.000000 0.000000
# 3 -0.003235 -0.001338 0.048318 0.000000 0.000000 0.000000
# 4 0.000000 0.000000 0.000000 0.171857 0.000000 0.000000
# 5 0.000000 0.000000 0.000000 0.000000 0.002857 0.000000
# 6 0.000000 0.000000 0.000000 0.000000 0.000000 0.028574
#
#
# Mechanical properties :
#
#
# Convention : Reuss Voigt Hill
#
# Bulk Modulus (GPa) = 14.05813 54.03127 34.04470
# Shear Modulus (GPa) = 13.46522 92.55309 53.00916
#
# Velocity S-wave (km/s) = 2.69385 7.06255 5.34493
# Velocity P-wave (km/s) = 4.15356 9.77882 7.51257
#
# Compressibility (1/GPa) = 0.07113320
#
# Stress axis : x y z
#
# Youngs Moduli (GPa) = 125.24236 19.44467 20.69619
#
# Poissons Ratio (x) = 0.26688 0.06696
# Poissons Ratio (y) = 1.71899 0.02769
# Poissons Ratio (z) = 0.40519 0.02602
#
# Static dielectric constant tensor:
#      x y z
#    x 1.722740 0.000000 0.000000 
#    y 0.000000 1.609130 0.000000 
#    z 0.000000 0.000000 1.653420 
# 
# From -- ./inp_files/12785.got.cif
#   From: 2010.05.17/outbox.cif.g08.bks.cpg/sg63_7_cif.got.tgz:12785.got - 2010.06.03 15:47:04.
