data_PCOD9468804
_publ_section_title
;
Structure prediction by ZEFSAII (Michael W. Deem and Ramdas Pophale) SiO2 
 PCOD9468804
Probable space group: C M C M
;
_chemical_formula_sum "Si O2"
_cell_formula_units_Z 80
_cell_length_a 27.882201
_cell_length_b 7.915645
_cell_length_c 15.216416
_cell_angle_alpha 90.000000
_cell_angle_beta 90.000000
_cell_angle_gamma 90.000000
_cell_volume 3358.348298
_symmetry_space_group_name_H-M "C M C M"
_symmetry_group_IT_number 63
_symmetry_cell_setting 'orthorhombic'
loop_
_space_group_symop_operation_xyz
x,y,z
-x,-y,1/2+z
x,-y,-z
-x,y,1/2-z
-x,-y,-z
x,y,1/2-z
-x,y,z
x,-y,1/2+z
1/2+x,1/2+y,z
1/2-x,1/2-y,1/2+z
1/2+x,1/2-y,-z
1/2-x,1/2+y,1/2-z
1/2-x,1/2-y,-z
1/2+x,1/2+y,1/2-z
1/2-x,1/2+y,z
1/2+x,1/2-y,1/2+z
loop_
_atom_site_type_symbol
_atom_site_label
_atom_site_fract_x
_atom_site_fract_y
_atom_site_fract_z
Si Si1 0.103658 0.801347 0.374344
Si Si2 0.500000 0.741498 0.085794
Si Si3 0.171672 0.624981 0.250000
Si Si4 0.000000 0.838456 0.115803
Si Si5 0.825359 0.917449 0.597402
Si Si6 0.262833 0.539800 0.750000
Si Si7 0.398450 0.167501 0.941771
O O1 0.136800 0.655255 0.333305
O O2 0.097713 0.804098 0.479188
O O3 0.049968 0.790463 0.341287
O O4 0.132138 0.972782 0.356971
O O5 0.500000 0.542358 0.107026
O O6 0.448275 0.820665 0.112528
O O7 0.500000 0.752909 0.979482
O O8 0.205481 0.463898 0.250000
O O9 0.209721 0.781039 0.250000
O O10 0.780719 0.945691 0.661321
O O11 0.847773 0.729762 0.596310
O O12 0.815076 0.000000 0.500000
O O13 0.397188 0.000000 0.000000
#
# Coordination Sequence:
#
# PCOD9468804 Si02
#       7
#    16   8   8   8  16   8  16
#     4   9  18  33  53  79 109 145 188 228 284 347
#     4   9  15  26  48  79 113 145 183 220 277 344
#     4  10  22  39  56  78 108 143 192 248 294 358
#     4   9  14  27  54  79 103 148 182 220 274 341
#     4   9  18  36  58  82 113 152 201 251 292 362
#     4  10  22  40  60  80 110 154 196 254 316 354
#     4  10  18  29  50  83 115 148 186 233 286 347
#
# _framework density 23.821235999999999
#
# number of rings (size 3 to 8) (size 9 to 14) (size 15 to 20)
#    0.000    2.600    2.000    0.300    0.000    2.000 
#    0.000   10.000    0.000    0.600    0.000    2.800 
#    0.000    0.000    0.000    0.000    0.000    0.000 
#
# Total GULP energy -222821.773400 kJ/mol
# GULP energy per Si atom -5570.544335 kJ/mol
# Density = 2.376702 g / cm^3
# Si number density = 23.821236 Si / 1000 Ang^3
#
#
#
# Elastic Constant Matrix: (Units=GPa)
#
#
# Indices 1 2 3 4 5 6 
#
# 1 148.1555 15.2417 48.4046 0.0000 0.0000 0.0000
# 2 15.2417 60.9996 -2.7515 0.0000 0.0000 0.0000
# 3 48.4046 -2.7515 80.5179 0.0000 0.0000 0.0000
# 4 0.0000 0.0000 0.0000 8.1342 0.0000 0.0000
# 5 0.0000 0.0000 0.0000 0.0000-1179.4255 0.0000
# 6 0.0000 0.0000 0.0000 0.0000 0.0000 26.4959
#
#
#
# Elastic Compliance Matrix: (Units=1/GPa)
#
#
# Indices 1 2 3 4 5 6 
#
# 1 0.008744 -0.002426 -0.005339 0.000000 0.000000 0.000000
# 2 -0.002426 0.017092 0.002042 0.000000 0.000000 0.000000
# 3 -0.005339 0.002042 0.015699 0.000000 0.000000 0.000000
# 4 0.000000 0.000000 0.000000 0.122938 0.000000 0.000000
# 5 0.000000 0.000000 0.000000 0.000000 -0.000848 0.000000
# 6 0.000000 0.000000 0.000000 0.000000 0.000000 0.037742
#
#
# Mechanical properties :
#
#
# Convention : Reuss Voigt Hill
#
# Bulk Modulus (GPa) = 33.23435 45.71808 39.47621
# Shear Modulus (GPa) = 22.43746 -213.70719 -95.63486
#
# Velocity S-wave (km/s) = 3.07238 -9.48196 -6.34303
# Velocity P-wave (km/s) = 5.15441 10.03210 6.08585
#
# Compressibility (1/GPa) = 0.03008935
#
# Stress axis : x y z
#
# Youngs Moduli (GPa) = 114.36925 58.50781 63.69767
#
# Poissons Ratio (x) = 0.14191 0.34010
# Poissons Ratio (y) = 0.27741 -0.13009
# Poissons Ratio (z) = 0.61065 -0.11949
#
# Static dielectric constant tensor:
#      x y z
#    x 1.948710 0.000000 0.000000 
#    y 0.000000 1.964150 0.000000 
#    z 0.000000 0.000000 1.250250 
# 
# From -- ./inp_files/48896.got.cif
#   From: 2010.05.17/outbox.cif.g08.bks.cpg/sg63_25_cif.got.tgz:48896.got - 2010.06.03 15:47:04.
