data_PCOD9468335
_publ_section_title
;
Structure prediction by ZEFSAII (Michael W. Deem and Ramdas Pophale) SiO2 
 PCOD9468335
Probable space group: C M C M
;
_chemical_formula_sum "Si O2"
_cell_formula_units_Z 112
_cell_length_a 9.948642
_cell_length_b 24.843144
_cell_length_c 24.181484
_cell_angle_alpha 90.000000
_cell_angle_beta 90.000000
_cell_angle_gamma 90.000000
_cell_volume 5976.587877
_symmetry_space_group_name_H-M "C M C M"
_symmetry_group_IT_number 63
_symmetry_cell_setting 'orthorhombic'
loop_
_space_group_symop_operation_xyz
x,y,z
-x,-y,1/2+z
x,-y,-z
-x,y,1/2-z
-x,-y,-z
x,y,1/2-z
-x,y,z
x,-y,1/2+z
1/2+x,1/2+y,z
1/2-x,1/2-y,1/2+z
1/2+x,1/2-y,-z
1/2-x,1/2+y,1/2-z
1/2-x,1/2-y,-z
1/2+x,1/2+y,1/2-z
1/2-x,1/2+y,z
1/2+x,1/2-y,1/2+z
loop_
_atom_site_type_symbol
_atom_site_label
_atom_site_fract_x
_atom_site_fract_y
_atom_site_fract_z
Si Si1 0.655729 0.518918 0.314943
Si Si2 0.151419 0.763914 0.645870
Si Si3 0.836515 0.656914 0.689397
Si Si4 0.662427 0.941626 0.112093
Si Si5 0.343747 0.089334 0.008173
Si Si6 0.642056 0.212806 0.526575
Si Si7 0.342035 0.380944 0.890157
O O1 0.687146 0.515697 0.250000
O O2 0.500000 0.500985 0.322869
O O3 0.757535 0.484873 0.352161
O O4 0.662477 0.579697 0.337817
O O5 0.216026 0.718383 0.684478
O O6 0.139093 0.728687 0.590253
O O7 0.209680 0.821572 0.627772
O O8 0.000000 0.776599 0.666856
O O9 0.799929 0.634707 0.750000
O O10 0.799592 0.615520 0.640881
O O11 0.000000 0.660842 0.687522
O O12 0.500000 0.946966 0.116652
O O13 0.694386 0.944795 0.046481
O O14 0.500000 0.076888 0.023313
O O15 0.340784 0.150212 0.984219
O O16 0.245192 0.092486 0.060555
O O17 0.500000 0.228353 0.500812
O O18 0.750000 0.250000 0.500000
O O19 0.500000 0.375178 0.907503
#
# Coordination Sequence:
#
# PCOD9468335 Si02
#       7
#    16  16  16  16  16  16  16
#     4  10  23  42  59  77 105 142 184 229 271 315
#     4   9  16  28  47  74 106 137 170 212 261 312
#     4   9  16  27  48  79 108 133 172 226 274 315
#     4  10  20  36  58  83 108 139 179 224 274 325
#     4  10  20  33  53  83 117 142 171 223 277 322
#     4  10  17  28  48  75 109 143 173 209 256 315
#     4  10  21  36  56  80 109 145 183 218 262 326
#
# _framework density 18.739789999999999
#
# number of rings (size 3 to 8) (size 9 to 14) (size 15 to 20)
#    0.000    2.286    2.857    0.429    0.000    3.143 
#    0.000    5.714    0.000    0.857    0.000    0.000 
#    0.000    0.000    0.000    0.000    0.000    0.000 
#
# Total GULP energy -311750.099544 kJ/mol
# GULP energy per Si atom -5566.966063 kJ/mol
# Density = 1.869714 g / cm^3
# Si number density = 18.739790 Si / 1000 Ang^3
#
#
#
# Elastic Constant Matrix: (Units=GPa)
#
#
# Indices 1 2 3 4 5 6 
#
# 1 31.5977 16.5188 18.1154 0.0000 0.0000 0.0000
# 2 16.5188 62.7434 22.4099 0.0000 0.0000 0.0000
# 3 18.1154 22.4099 62.7818 0.0000 0.0000 0.0000
# 4 0.0000 0.0000 0.0000 30.1155 0.0000 0.0000
# 5 0.0000 0.0000 0.0000 0.0000 18.7819 0.0000
# 6 0.0000 0.0000 0.0000 0.0000 0.0000 22.5918
#
#
#
# Elastic Compliance Matrix: (Units=1/GPa)
#
#
# Indices 1 2 3 4 5 6 
#
# 1 0.040775 -0.007487 -0.009093 0.000000 0.000000 0.000000
# 2 -0.007487 0.019642 -0.004851 0.000000 0.000000 0.000000
# 3 -0.009093 -0.004851 0.020283 0.000000 0.000000 0.000000
# 4 0.000000 0.000000 0.000000 0.033205 0.000000 0.000000
# 5 0.000000 0.000000 0.000000 0.000000 0.053243 0.000000
# 6 0.000000 0.000000 0.000000 0.000000 0.000000 0.044264
#
#
# Mechanical properties :
#
#
# Convention : Reuss Voigt Hill
#
# Bulk Modulus (GPa) = 26.42817 30.13455 28.28136
# Shear Modulus (GPa) = 18.73454 20.96977 19.85215
#
# Velocity S-wave (km/s) = 3.16526 3.34877 3.25831
# Velocity P-wave (km/s) = 5.24327 5.57385 5.41108
#
# Compressibility (1/GPa) = 0.03783841
#
# Stress axis : x y z
#
# Youngs Moduli (GPa) = 24.52471 50.91221 49.30170
#
# Poissons Ratio (x) = 0.38120 0.44829
# Poissons Ratio (y) = 0.18363 0.23914
# Poissons Ratio (z) = 0.22300 0.24695
#
# Static dielectric constant tensor:
#      x y z
#    x 1.635230 0.000000 0.000000 
#    y 0.000000 1.700280 0.000000 
#    z 0.000000 0.000000 1.525690 
# 
# From -- ./inp_files/61911.got.cif
#   From: 2010.05.17/outbox.cif.g08.bks.cpg/sg63_31_cif.got.tgz:61911.got - 2010.06.03 15:47:04.
