data_PCOD9468613
_publ_section_title
;
Structure prediction by ZEFSAII (Michael W. Deem and Ramdas Pophale) SiO2 
 PCOD9468613
Probable space group: C M C M
;
_chemical_formula_sum "Si O2"
_cell_formula_units_Z 96
_cell_length_a 29.283061
_cell_length_b 26.827602
_cell_length_c 8.895393
_cell_angle_alpha 90.000000
_cell_angle_beta 90.000000
_cell_angle_gamma 90.000000
_cell_volume 6988.170089
_symmetry_space_group_name_H-M "C M C M"
_symmetry_group_IT_number 63
_symmetry_cell_setting 'orthorhombic'
loop_
_space_group_symop_operation_xyz
x,y,z
-x,-y,1/2+z
x,-y,-z
-x,y,1/2-z
-x,-y,-z
x,y,1/2-z
-x,y,z
x,-y,1/2+z
1/2+x,1/2+y,z
1/2-x,1/2-y,1/2+z
1/2+x,1/2-y,-z
1/2-x,1/2+y,1/2-z
1/2-x,1/2-y,-z
1/2+x,1/2+y,1/2-z
1/2-x,1/2+y,z
1/2+x,1/2-y,1/2+z
loop_
_atom_site_type_symbol
_atom_site_label
_atom_site_fract_x
_atom_site_fract_y
_atom_site_fract_z
Si Si1 0.052448 0.293730 0.571731
Si Si2 0.947741 0.596303 0.570438
Si Si3 0.306701 0.143301 0.571281
Si Si4 0.360552 0.247325 0.929060
Si Si5 0.221685 0.795885 0.070026
Si Si6 0.141176 0.448259 0.928519
O O1 0.060107 0.300223 0.750000
O O2 0.057374 0.347331 0.490881
O O3 0.089907 0.257121 0.502815
O O4 0.000000 0.277441 0.549159
O O5 0.940855 0.596247 0.750000
O O6 0.909397 0.563417 0.491972
O O7 0.000000 0.580567 0.538827
O O8 0.311030 0.133556 0.750000
O O9 0.335856 0.193719 0.540496
O O10 0.253864 0.156635 0.537587
O O11 0.327344 0.097656 0.480610
O O12 0.363089 0.252967 0.750000
O O13 0.328229 0.289773 0.999528
O O14 0.219581 0.790302 0.250000
O O15 0.250000 0.750000 0.000000
O O16 0.139802 0.451716 0.750000
O O17 0.157294 0.500000 0.000000
#
# Coordination Sequence:
#
# PCOD9468613 Si02
#       6
#    16  16  16  16  16  16
#     4  10  19  29  43  63  85 111 143 175 210 253
#     4  10  20  34  49  62  79 103 134 175 220 263
#     4   9  18  32  46  62  84 107 133 169 211 253
#     4  10  18  28  45  65  87 111 136 170 207 249
#     4   9  17  28  44  64  86 108 132 165 205 250
#     4  12  24  35  49  63  80 106 137 176 218 262
#
# _framework density 13.737501999999999
#
# number of rings (size 3 to 8) (size 9 to 14) (size 15 to 20)
#    0.000    2.000    1.667    4.500    0.000    5.667 
#    0.000    0.000    0.000    0.000    0.000    0.000 
#    0.000    0.000    0.000    0.000    0.000    0.833 
#
# Total GULP energy -267717.842452 kJ/mol
# GULP energy per Si atom -5577.455051 kJ/mol
# Density = 1.370623 g / cm^3
# Si number density = 13.737502 Si / 1000 Ang^3
#
#
#
# Elastic Constant Matrix: (Units=GPa)
#
#
# Indices 1 2 3 4 5 6 
#
# 1 72.9693 38.0381 49.2464 0.0000 0.0000 0.0000
# 2 38.0381 42.4267 39.7758 0.0000 0.0000 0.0000
# 3 49.2464 39.7758 83.6883 0.0000 0.0000 0.0000
# 4 0.0000 0.0000 0.0000 17.9370 0.0000 0.0000
# 5 0.0000 0.0000 0.0000 0.0000 24.7325 0.0000
# 6 0.0000 0.0000 0.0000 0.0000 0.0000 14.2859
#
#
#
# Elastic Compliance Matrix: (Units=1/GPa)
#
#
# Indices 1 2 3 4 5 6 
#
# 1 0.028663 -0.017830 -0.008392 0.000000 0.000000 0.000000
# 2 -0.017830 0.053605 -0.014986 0.000000 0.000000 0.000000
# 3 -0.008392 -0.014986 0.024010 0.000000 0.000000 0.000000
# 4 0.000000 0.000000 0.000000 0.055751 0.000000 0.000000
# 5 0.000000 0.000000 0.000000 0.000000 0.040433 0.000000
# 6 0.000000 0.000000 0.000000 0.000000 0.000000 0.069999
#
#
# Mechanical properties :
#
#
# Convention : Reuss Voigt Hill
#
# Bulk Modulus (GPa) = 41.90761 50.35612 46.13186
# Shear Modulus (GPa) = 13.78052 16.19267 14.98660
#
# Velocity S-wave (km/s) = 3.17066 3.43697 3.30650
# Velocity P-wave (km/s) = 6.63147 7.24472 6.94486
#
# Compressibility (1/GPa) = 0.02386202
#
# Stress axis : x y z
#
# Youngs Moduli (GPa) = 34.88813 18.65490 41.64935
#
# Poissons Ratio (x) = 0.33262 0.34954
# Poissons Ratio (y) = 0.62206 0.62414
# Poissons Ratio (z) = 0.29279 0.27955
#
# Static dielectric constant tensor:
#      x y z
#    x 1.487120 0.000000 0.000000 
#    y 0.000000 1.427100 0.000000 
#    z 0.000000 0.000000 1.453270 
# 
# From -- ./inp_files/12760.got.cif
#   From: 2010.05.17/outbox.cif.g08.bks.cpg/sg63_7_cif.got.tgz:12760.got - 2010.06.03 15:47:04.
