data_PCOD9468759
_publ_section_title
;
Structure prediction by ZEFSAII (Michael W. Deem and Ramdas Pophale) SiO2 
 PCOD9468759
Probable space group: C M C M
;
_chemical_formula_sum "Si O2"
_cell_formula_units_Z 104
_cell_length_a 8.914260
_cell_length_b 25.993736
_cell_length_c 25.803541
_cell_angle_alpha 90.000000
_cell_angle_beta 90.000000
_cell_angle_gamma 90.000000
_cell_volume 5979.065466
_symmetry_space_group_name_H-M "C M C M"
_symmetry_group_IT_number 63
_symmetry_cell_setting 'orthorhombic'
loop_
_space_group_symop_operation_xyz
x,y,z
-x,-y,1/2+z
x,-y,-z
-x,y,1/2-z
-x,-y,-z
x,y,1/2-z
-x,y,z
x,-y,1/2+z
1/2+x,1/2+y,z
1/2-x,1/2-y,1/2+z
1/2+x,1/2-y,-z
1/2-x,1/2+y,1/2-z
1/2-x,1/2-y,-z
1/2+x,1/2+y,1/2-z
1/2-x,1/2+y,z
1/2+x,1/2-y,1/2+z
loop_
_atom_site_type_symbol
_atom_site_label
_atom_site_fract_x
_atom_site_fract_y
_atom_site_fract_z
Si Si1 0.178302 0.694598 0.061483
Si Si2 0.181384 0.109384 0.135039
Si Si3 0.333218 0.385389 0.250000
Si Si4 0.181384 0.890616 0.364961
Si Si5 0.831515 0.500000 0.134139
Si Si6 0.321698 0.194598 0.561483
Si Si7 0.166782 0.885389 0.750000
Si Si8 0.749763 1.000000 0.750000
O O1 0.258060 0.650598 0.094578
O O2 0.250000 0.750000 0.073878
O O3 0.000000 0.695198 0.071539
O O4 0.200542 0.685663 1.000000
O O5 0.235494 0.125346 0.193482
O O6 0.000000 0.107597 0.136155
O O7 0.244290 0.052660 0.121610
O O8 0.500000 0.362489 0.250000
O O9 0.264506 0.374654 0.193482
O O10 0.342194 0.447551 0.250000
O O11 0.244290 0.947340 0.378390
O O12 0.241940 0.849402 0.405422
O O13 0.000000 0.892403 0.363845
O O14 0.839683 0.500000 0.196766
O O15 0.000000 0.500000 0.112572
O O16 0.500000 0.195198 0.571539
O O17 0.000000 0.862489 0.750000
O O18 0.157806 0.947551 0.750000
#
# Coordination Sequence:
#
# PCOD9468759 Si02
#       8
#    16  16   8  16  16  16   8   8
#     4  10  21  38  59  80 101 129 169 216 262 308
#     4  10  19  33  53  78 108 140 175 212 254 304
#     4   8  15  27  46  73 105 139 171 207 250 298
#     4  10  19  33  53  78 108 140 175 212 254 304
#     4  10  18  29  47  74 108 142 175 211 254 302
#     4  10  21  38  59  80 101 129 169 216 262 308
#     4   8  15  27  46  73 105 139 171 207 250 298
#     4   8  14  24  42  68  99 138 179 212 243 292
#
# _framework density 17.394022
#
# number of rings (size 3 to 8) (size 9 to 14) (size 15 to 20)
#    0.000    2.462    0.000    2.769    0.000    5.538 
#    0.000    3.846    0.000    4.615    0.000    0.000 
#    0.000    0.000    0.000    0.000    0.000    0.000 
#
# Total GULP energy -289568.378286 kJ/mol
# GULP energy per Si atom -5568.622659 kJ/mol
# Density = 1.735443 g / cm^3
# Si number density = 17.394022 Si / 1000 Ang^3
#
#
#
# Elastic Constant Matrix: (Units=GPa)
#
#
# Indices 1 2 3 4 5 6 
#
# 1 100.4055 63.4752 48.2967 0.0000 0.0000 0.0000
# 2 63.4752 135.2228 76.5191 0.0000 0.0000 0.0000
# 3 48.2967 76.5191 68.4566 0.0000 0.0000 0.0000
# 4 0.0000 0.0000 0.0000 39.1402 0.0000 0.0000
# 5 0.0000 0.0000 0.0000 0.0000 -4.0803 0.0000
# 6 0.0000 0.0000 0.0000 0.0000 0.0000 27.3381
#
#
#
# Elastic Compliance Matrix: (Units=1/GPa)
#
#
# Indices 1 2 3 4 5 6 
#
# 1 0.015499 -0.002960 -0.007626 0.000000 0.000000 0.000000
# 2 -0.002960 0.020689 -0.021038 0.000000 0.000000 0.000000
# 3 -0.007626 -0.021038 0.043504 0.000000 0.000000 0.000000
# 4 0.000000 0.000000 0.000000 0.025549 0.000000 0.000000
# 5 0.000000 0.000000 0.000000 0.000000 -0.245079 0.000000
# 6 0.000000 0.000000 0.000000 0.000000 0.000000 0.036579
#
#
# Mechanical properties :
#
#
# Convention : Reuss Voigt Hill
#
# Bulk Modulus (GPa) = 60.81134 75.62964 68.22049
# Shear Modulus (GPa) = -144.80372 20.19920 -62.30226
#
# Velocity S-wave (km/s) = -9.13399 3.41144 -5.99132
# Velocity P-wave (km/s) = 8.72942 7.68712 2.92498
#
# Compressibility (1/GPa) = 0.01644430
#
# Stress axis : x y z
#
# Youngs Moduli (GPa) = 64.51929 48.33384 22.98659
#
# Poissons Ratio (x) = 0.14307 0.17530
# Poissons Ratio (y) = 0.19098 0.48359
# Poissons Ratio (z) = 0.49203 1.01684
#
# Static dielectric constant tensor:
#      x y z
#    x 1.615630 0.000000 0.000000 
#    y 0.000000 1.555320 0.000000 
#    z 0.000000 0.000000 1.611040 
# 
# From -- ./inp_files/67414.got.cif
#   From: 2010.05.17/outbox.cif.g08.bks.cpg/sg63_34_cif.got.tgz:67414.got - 2010.06.03 15:47:04.
