data_PCOD9468604
_publ_section_title
;
Structure prediction by ZEFSAII (Michael W. Deem and Ramdas Pophale) SiO2 
 PCOD9468604
Probable space group: C M C M
;
_chemical_formula_sum "Si O2"
_cell_formula_units_Z 104
_cell_length_a 29.289132
_cell_length_b 24.807543
_cell_length_c 8.681301
_cell_angle_alpha 90.000000
_cell_angle_beta 90.000000
_cell_angle_gamma 90.000000
_cell_volume 6307.758661
_symmetry_space_group_name_H-M "C M C M"
_symmetry_group_IT_number 63
_symmetry_cell_setting 'orthorhombic'
loop_
_space_group_symop_operation_xyz
x,y,z
-x,-y,1/2+z
x,-y,-z
-x,y,1/2-z
-x,-y,-z
x,y,1/2-z
-x,y,z
x,-y,1/2+z
1/2+x,1/2+y,z
1/2-x,1/2-y,1/2+z
1/2+x,1/2-y,-z
1/2-x,1/2+y,1/2-z
1/2-x,1/2-y,-z
1/2+x,1/2+y,1/2-z
1/2-x,1/2+y,z
1/2+x,1/2-y,1/2+z
loop_
_atom_site_type_symbol
_atom_site_label
_atom_site_fract_x
_atom_site_fract_y
_atom_site_fract_z
Si Si1 0.589593 0.626466 0.437661
Si Si2 0.374413 0.939497 0.434273
Si Si3 0.000000 0.060129 0.436439
Si Si4 0.946148 0.759886 0.565473
Si Si5 0.321187 0.560856 0.435089
Si Si6 0.773204 0.560754 0.934528
Si Si7 0.947316 0.356794 0.934042
O O1 0.589266 0.627069 0.250000
O O2 0.545475 0.591886 0.485970
O O3 0.582430 0.688210 0.487041
O O4 0.636089 0.597252 0.485437
O O5 0.376840 0.942730 0.250000
O O6 0.323504 0.917418 0.474589
O O7 0.413442 0.900662 0.496533
O O8 0.378999 0.000000 0.500000
O O9 0.000000 0.058597 0.250000
O O10 0.000000 0.000000 0.500000
O O11 0.940976 0.753933 0.750000
O O12 0.934402 0.703448 0.487110
O O13 0.000000 0.771098 0.536593
O O14 0.326341 0.500000 0.500000
O O15 0.320421 0.557661 0.250000
O O16 0.272878 0.584432 0.493650
O O17 0.768773 0.559549 0.750000
O O18 0.774124 0.500000 0.000000
O O19 0.945979 0.359937 0.750000
O O20 0.000000 0.365730 0.984610
#
# Coordination Sequence:
#
# PCOD9468604 Si02
#       7
#    16  16   8  16  16  16  16
#     4   9  17  29  47  68  92 126 167 207 245 290
#     4  10  20  34  54  78 102 130 161 193 233 283
#     4  10  18  30  44  64  96 130 163 202 249 296
#     4   9  16  31  53  70  88 124 171 209 241 283
#     4  10  18  28  44  68  97 128 163 202 246 294
#     4   9  17  30  48  70  95 124 160 198 236 282
#     4  10  21  35  51  75 105 131 156 193 237 284
#
# _framework density 16.487631
#
# number of rings (size 3 to 8) (size 9 to 14) (size 15 to 20)
#    0.000    2.462    0.769    3.231    0.000    3.077 
#    0.000    3.077    0.000    0.923    0.000    0.000 
#    0.000    0.000    0.000    0.000    0.000    0.000 
#
# Total GULP energy -289830.924410 kJ/mol
# GULP energy per Si atom -5573.671623 kJ/mol
# Density = 1.645010 g / cm^3
# Si number density = 16.487631 Si / 1000 Ang^3
#
#
#
# Elastic Constant Matrix: (Units=GPa)
#
#
# Indices 1 2 3 4 5 6 
#
# 1 153.1360 90.7073 40.8655 0.0000 0.0000 0.0000
# 2 90.7073 103.8378 32.5444 0.0000 0.0000 0.0000
# 3 40.8655 32.5444 38.2603 0.0000 0.0000 0.0000
# 4 0.0000 0.0000 0.0000 22.5807 0.0000 0.0000
# 5 0.0000 0.0000 0.0000 0.0000 21.3190 0.0000
# 6 0.0000 0.0000 0.0000 0.0000 0.0000 9.5749
#
#
#
# Elastic Compliance Matrix: (Units=1/GPa)
#
#
# Indices 1 2 3 4 5 6 
#
# 1 0.014623 -0.010742 -0.006481 0.000000 0.000000 0.000000
# 2 -0.010742 0.021023 -0.006408 0.000000 0.000000 0.000000
# 3 -0.006481 -0.006408 0.038510 0.000000 0.000000 0.000000
# 4 0.000000 0.000000 0.000000 0.044286 0.000000 0.000000
# 5 0.000000 0.000000 0.000000 0.000000 0.046907 0.000000
# 6 0.000000 0.000000 0.000000 0.000000 0.000000 0.104440
#
#
# Mechanical properties :
#
#
# Convention : Reuss Voigt Hill
#
# Bulk Modulus (GPa) = 37.18533 69.27427 53.22980
# Shear Modulus (GPa) = 15.33675 19.43604 17.38639
#
# Velocity S-wave (km/s) = 3.05322 3.43713 3.25085
# Velocity P-wave (km/s) = 5.91878 7.60650 6.81509
#
# Compressibility (1/GPa) = 0.02689233
#
# Stress axis : x y z
#
# Youngs Moduli (GPa) = 68.38696 47.56718 25.96743
#
# Poissons Ratio (x) = 0.51099 0.16829
# Poissons Ratio (y) = 0.73464 0.16641
# Poissons Ratio (z) = 0.44320 0.30483
#
# Static dielectric constant tensor:
#      x y z
#    x 1.580930 0.000000 0.000000 
#    y 0.000000 1.519770 0.000000 
#    z 0.000000 0.000000 1.558450 
# 
# From -- ./inp_files/12840.got.cif
#   From: 2010.05.17/outbox.cif.g08.bks.cpg/sg63_7_cif.got.tgz:12840.got - 2010.06.03 15:47:04.
