data_PCOD9468542
_publ_section_title
;
Structure prediction by ZEFSAII (Michael W. Deem and Ramdas Pophale) SiO2 
 PCOD9468542
Probable space group: C M C M
;
_chemical_formula_sum "Si O2"
_cell_formula_units_Z 116
_cell_length_a 27.841763
_cell_length_b 28.309321
_cell_length_c 7.517032
_cell_angle_alpha 90.000000
_cell_angle_beta 90.000000
_cell_angle_gamma 90.000000
_cell_volume 5924.784851
_symmetry_space_group_name_H-M "C M C M"
_symmetry_group_IT_number 63
_symmetry_cell_setting 'orthorhombic'
loop_
_space_group_symop_operation_xyz
x,y,z
-x,-y,1/2+z
x,-y,-z
-x,y,1/2-z
-x,-y,-z
x,y,1/2-z
-x,y,z
x,-y,1/2+z
1/2+x,1/2+y,z
1/2-x,1/2-y,1/2+z
1/2+x,1/2-y,-z
1/2-x,1/2+y,1/2-z
1/2-x,1/2-y,-z
1/2+x,1/2+y,1/2-z
1/2-x,1/2+y,z
1/2+x,1/2-y,1/2+z
loop_
_atom_site_type_symbol
_atom_site_label
_atom_site_fract_x
_atom_site_fract_y
_atom_site_fract_z
Si Si1 0.157141 0.189644 0.962878
Si Si2 0.500000 0.960652 0.750000
Si Si3 0.185617 0.445625 0.038030
Si Si4 0.947948 0.780502 0.963719
Si Si5 0.574806 0.072865 0.534918
Si Si6 0.191021 0.291477 0.955511
Si Si7 0.238565 0.128676 0.952107
Si Si8 0.586196 0.178569 0.964156
O O1 0.163822 0.190716 0.750000
O O2 0.179000 0.239546 0.030315
O O3 0.188064 0.145708 0.033075
O O4 0.100147 0.190927 0.991926
O O5 0.541505 0.956386 0.593919
O O6 0.185025 0.437675 0.250000
O O7 0.130647 0.435375 0.985652
O O8 0.226300 0.410348 0.963897
O O9 0.196852 0.500000 0.000000
O O10 0.949564 0.778906 0.750000
O O11 0.939906 0.726245 0.025732
O O12 0.000000 0.797704 0.027570
O O13 0.568022 0.065012 0.750000
O O14 0.563467 0.128165 0.495558
O O15 0.205726 0.287242 0.750000
O O16 0.230136 0.323171 0.051386
O O17 0.140323 0.318653 0.965187
O O18 0.228587 0.112829 0.750000
O O19 0.589513 0.180709 0.750000
#
# Coordination Sequence:
#
# PCOD9468542 Si02
#       8
#    16   4  16  16  16  16  16  16
#     4   9  19  32  46  72 107 137 171 213 251 302
#     4  12  26  36  62  82 102 140 170 238 282 330
#     4  10  22  39  62  80 100 133 171 220 276 338
#     4   9  18  31  48  69  98 144 183 212 251 297
#     4  10  22  40  57  79 105 136 180 226 282 338
#     4  10  18  27  45  74 104 133 167 211 253 301
#     4  10  19  34  53  74 101 136 167 203 266 326
#     4   9  17  31  49  68  97 134 177 217 256 309
#
# _framework density 19.578769999999999
#
# number of rings (size 3 to 8) (size 9 to 14) (size 15 to 20)
#    0.000    2.345    1.379    1.034    2.897    1.931 
#    0.000    0.345    0.000    0.000    0.000    0.000 
#    0.000    0.552    0.000    1.241    0.000    2.207 
#
# Total GULP energy -323240.199656 kJ/mol
# GULP energy per Si atom -5573.106891 kJ/mol
# Density = 1.953421 g / cm^3
# Si number density = 19.578770 Si / 1000 Ang^3
#
#
#
# Elastic Constant Matrix: (Units=GPa)
#
#
# Indices 1 2 3 4 5 6 
#
# 1 150.5139 73.7319 19.5893 0.0000 0.0000 0.0000
# 2 73.7319 73.2244 18.8363 0.0000 0.0000 0.0000
# 3 19.5893 18.8363 64.8411 0.0000 0.0000 0.0000
# 4 0.0000 0.0000 0.0000 7.1835 0.0000 0.0000
# 5 0.0000 0.0000 0.0000 0.0000 2.6760 0.0000
# 6 0.0000 0.0000 0.0000 0.0000 0.0000 2.1159
#
#
#
# Elastic Compliance Matrix: (Units=1/GPa)
#
#
# Indices 1 2 3 4 5 6 
#
# 1 0.013112 -0.013168 -0.000136 0.000000 0.000000 0.000000
# 2 -0.013168 0.027984 -0.004151 0.000000 0.000000 0.000000
# 3 -0.000136 -0.004151 0.016669 0.000000 0.000000 0.000000
# 4 0.000000 0.000000 0.000000 0.139208 0.000000 0.000000
# 5 0.000000 0.000000 0.000000 0.000000 0.373686 0.000000
# 6 0.000000 0.000000 0.000000 0.000000 0.000000 0.472621
#
#
# Mechanical properties :
#
#
# Convention : Reuss Voigt Hill
#
# Bulk Modulus (GPa) = 43.75415 56.98827 50.37121
# Shear Modulus (GPa) = 4.60486 14.15654 9.38070
#
# Velocity S-wave (km/s) = 1.53528 2.69189 2.19127
# Velocity P-wave (km/s) = 5.05362 6.23154 5.67323
#
# Compressibility (1/GPa) = 0.02285498
#
# Stress axis : x y z
#
# Youngs Moduli (GPa) = 76.26458 35.73492 59.99057
#
# Poissons Ratio (x) = 0.47056 0.00816
# Poissons Ratio (y) = 1.00426 0.24902
# Poissons Ratio (z) = 0.01038 0.14834
#
# Static dielectric constant tensor:
#      x y z
#    x 1.723530 0.000000 0.000000 
#    y 0.000000 1.746220 0.000000 
#    z 0.000000 0.000000 1.737960 
# 
# From -- ./inp_files/13348.got.cif
#   From: 2010.05.17/outbox.cif.g08.bks.cpg/sg63_7_cif.got.tgz:13348.got - 2010.06.03 15:47:04.
