data_PCOD9468894
_publ_section_title
;
Structure prediction by ZEFSAII (Michael W. Deem and Ramdas Pophale) SiO2 
 PCOD9468894
Probable space group: C M C M
;
_chemical_formula_sum "Si O2"
_cell_formula_units_Z 80
_cell_length_a 7.705187
_cell_length_b 22.258187
_cell_length_c 27.368202
_cell_angle_alpha 90.000000
_cell_angle_beta 90.000000
_cell_angle_gamma 90.000000
_cell_volume 4693.742243
_symmetry_space_group_name_H-M "C M C M"
_symmetry_group_IT_number 63
_symmetry_cell_setting 'orthorhombic'
loop_
_space_group_symop_operation_xyz
x,y,z
-x,-y,1/2+z
x,-y,-z
-x,y,1/2-z
-x,-y,-z
x,y,1/2-z
-x,y,z
x,-y,1/2+z
1/2+x,1/2+y,z
1/2-x,1/2-y,1/2+z
1/2+x,1/2-y,-z
1/2-x,1/2+y,1/2-z
1/2-x,1/2-y,-z
1/2+x,1/2+y,1/2-z
1/2-x,1/2+y,z
1/2+x,1/2-y,1/2+z
loop_
_atom_site_type_symbol
_atom_site_label
_atom_site_fract_x
_atom_site_fract_y
_atom_site_fract_z
Si Si1 0.701790 0.965733 0.143569
Si Si2 0.500000 0.600564 0.993210
Si Si3 0.795838 0.178664 0.750000
Si Si4 0.207555 0.694255 0.535079
Si Si5 0.706345 0.174130 0.643780
Si Si6 0.789734 0.958678 0.250000
Si Si7 0.000000 0.986517 0.578648
O O1 0.500000 0.967180 0.128689
O O2 0.767686 0.895804 0.141926
O O3 0.721517 0.985466 0.199765
O O4 0.828197 0.005213 0.110923
O O5 0.670892 0.639844 0.982484
O O6 0.500000 0.543230 0.957899
O O7 0.500000 0.574130 0.047638
O O8 0.751740 0.203500 0.696143
O O9 0.722792 0.110591 0.750000
O O10 0.000000 0.173272 0.750000
O O11 0.250000 0.750000 0.500000
O O12 0.256165 0.704602 0.592450
O O13 0.000000 0.681696 0.532986
O O14 0.500000 0.170442 0.643861
O O15 0.000000 0.959440 0.250000
#
# Coordination Sequence:
#
# PCOD9468894 Si02
#       7
#    16   8   8  16  16   8   8
#     4  10  18  30  48  74 108 144 177 219 273 330
#     4  11  24  38  54  80 110 141 194 228 274 323
#     4   9  17  23  43  71 102 139 166 212 271 330
#     4  11  22  37  59  81 106 146 189 234 276 325
#     4   9  18  30  46  73 106 138 175 216 272 329
#     4   9  15  25  45  72 103 138 180 214 265 335
#     4  11  22  35  54  76 112 155 174 225 276 332
#
# _framework density 17.043969000000001
#
# number of rings (size 3 to 8) (size 9 to 14) (size 15 to 20)
#    0.000    2.000    4.000    0.600    2.800    3.200 
#    0.000    2.000    0.000    0.000    0.000    2.800 
#    0.000    0.000    0.000    0.000    0.000    0.000 
#
# Total GULP energy -222754.156381 kJ/mol
# GULP energy per Si atom -5568.853910 kJ/mol
# Density = 1.700518 g / cm^3
# Si number density = 17.043969 Si / 1000 Ang^3
#
#
#
# Elastic Constant Matrix: (Units=GPa)
#
#
# Indices 1 2 3 4 5 6 
#
# 1 92.1688 20.1195 42.9985 0.0000 0.0000 0.0000
# 2 20.1195 32.8528 42.0672 0.0000 0.0000 0.0000
# 3 42.9985 42.0672 170.8384 0.0000 0.0000 0.0000
# 4 0.0000 0.0000 0.0000 22.9360 0.0000 0.0000
# 5 0.0000 0.0000 0.0000 0.0000 26.9272 0.0000
# 6 0.0000 0.0000 0.0000 0.0000 0.0000 8.0869
#
#
#
# Elastic Compliance Matrix: (Units=1/GPa)
#
#
# Indices 1 2 3 4 5 6 
#
# 1 0.012935 -0.005481 -0.001906 0.000000 0.000000 0.000000
# 2 -0.005481 0.046778 -0.010139 0.000000 0.000000 0.000000
# 3 -0.001906 -0.010139 0.008830 0.000000 0.000000 0.000000
# 4 0.000000 0.000000 0.000000 0.043600 0.000000 0.000000
# 5 0.000000 0.000000 0.000000 0.000000 0.037137 0.000000
# 6 0.000000 0.000000 0.000000 0.000000 0.000000 0.123656
#
#
# Mechanical properties :
#
#
# Convention : Reuss Voigt Hill
#
# Bulk Modulus (GPa) = 29.85875 56.24781 43.05328
# Shear Modulus (GPa) = 15.66646 24.30167 19.98407
#
# Velocity S-wave (km/s) = 3.03509 3.78010 3.42789
# Velocity P-wave (km/s) = 5.46251 7.21980 6.40174
#
# Compressibility (1/GPa) = 0.03349102
#
# Stress axis : x y z
#
# Youngs Moduli (GPa) = 77.30762 21.37734 113.25182
#
# Poissons Ratio (x) = 0.11717 0.21586
# Poissons Ratio (y) = 0.42374 1.14828
# Poissons Ratio (z) = 0.14735 0.21675
#
# Static dielectric constant tensor:
#      x y z
#    x 1.594810 0.000000 0.000000 
#    y 0.000000 1.545280 0.000000 
#    z 0.000000 0.000000 1.652950 
# 
# From -- ./inp_files/59800.got.cif
#   From: 2010.05.17/outbox.cif.g08.bks.cpg/sg63_30_cif.got.tgz:59800.got - 2010.06.03 15:47:04.
