data_PCOD9468709
_publ_section_title
;
Structure prediction by ZEFSAII (Michael W. Deem and Ramdas Pophale) SiO2 
 PCOD9468709
Probable space group: C M C M
;
_chemical_formula_sum "Si O2"
_cell_formula_units_Z 96
_cell_length_a 7.414787
_cell_length_b 24.055973
_cell_length_c 26.813945
_cell_angle_alpha 90.000000
_cell_angle_beta 90.000000
_cell_angle_gamma 90.000000
_cell_volume 4782.801114
_symmetry_space_group_name_H-M "C M C M"
_symmetry_group_IT_number 63
_symmetry_cell_setting 'orthorhombic'
loop_
_space_group_symop_operation_xyz
x,y,z
-x,-y,1/2+z
x,-y,-z
-x,y,1/2-z
-x,-y,-z
x,y,1/2-z
-x,y,z
x,-y,1/2+z
1/2+x,1/2+y,z
1/2-x,1/2-y,1/2+z
1/2+x,1/2-y,-z
1/2-x,1/2+y,1/2-z
1/2-x,1/2-y,-z
1/2+x,1/2+y,1/2-z
1/2-x,1/2+y,z
1/2+x,1/2-y,1/2+z
loop_
_atom_site_type_symbol
_atom_site_label
_atom_site_fract_x
_atom_site_fract_y
_atom_site_fract_z
Si Si1 0.712800 0.244678 0.442170
Si Si2 0.782928 0.811958 0.806704
Si Si3 0.280785 0.365720 0.404879
Si Si4 0.215842 0.181628 0.806017
Si Si5 0.720072 0.564678 0.498903
Si Si6 0.298109 0.628191 0.099016
O O1 0.500000 0.237314 0.432513
O O2 0.750000 0.250000 0.500000
O O3 0.768729 0.303494 0.420730
O O4 0.809294 0.190489 0.422479
O O5 0.718739 0.820515 0.750000
O O6 0.744985 0.747059 0.819687
O O7 0.714250 0.857141 0.846946
O O8 0.000000 0.816902 0.806965
O O9 0.500000 0.370593 0.404597
O O10 0.220174 0.363191 0.347116
O O11 0.218771 0.405825 0.449599
O O12 0.287883 0.174153 0.750000
O O13 0.000000 0.175658 0.804153
O O14 0.766449 0.500000 0.500000
O O15 0.500000 0.569806 0.498209
O O16 0.783324 0.593108 0.446983
O O17 0.500000 0.605112 0.107467
#
# Coordination Sequence:
#
# PCOD9468709 Si02
#       6
#    16  16  16  16  16  16
#     4  11  19  28  43  67  95 119 143 177 225 273
#     4   9  17  27  40  62  93 120 141 172 215 265
#     4   9  16  26  41  63  89 112 143 179 213 258
#     4   9  16  26  41  62  90 119 142 170 213 264
#     4   9  17  29  45  63  83 113 153 191 222 258
#     4  10  18  29  45  66  90 117 150 183 220 268
#
# _framework density 20.071921
#
# number of rings (size 3 to 8) (size 9 to 14) (size 15 to 20)
#    0.000    2.500    3.333    0.500    0.000    0.000 
#    0.000    0.000    0.000    1.500    0.000    7.000 
#    0.000    0.000    0.000    8.333    0.000    8.667 
#
# Total GULP energy -267292.147672 kJ/mol
# GULP energy per Si atom -5568.586410 kJ/mol
# Density = 2.002624 g / cm^3
# Si number density = 20.071921 Si / 1000 Ang^3
#
#
#
# Elastic Constant Matrix: (Units=GPa)
#
#
# Indices 1 2 3 4 5 6 
#
# 1 66.4155 7.7837 2.3588 0.0000 0.0000 0.0000
# 2 7.7837 96.4379 76.8743 0.0000 0.0000 0.0000
# 3 2.3588 76.8743 201.8406 0.0000 0.0000 0.0000
# 4 0.0000 0.0000 0.0000 13.8252 0.0000 0.0000
# 5 0.0000 0.0000 0.0000 0.0000 -11.5931 0.0000
# 6 0.0000 0.0000 0.0000 0.0000 0.0000 9.8663
#
#
#
# Elastic Compliance Matrix: (Units=1/GPa)
#
#
# Indices 1 2 3 4 5 6 
#
# 1 0.015225 -0.001561 0.000417 0.000000 0.000000 0.000000
# 2 -0.001561 0.015050 -0.005714 0.000000 0.000000 0.000000
# 3 0.000417 -0.005714 0.007126 0.000000 0.000000 0.000000
# 4 0.000000 0.000000 0.000000 0.072332 0.000000 0.000000
# 5 0.000000 0.000000 0.000000 0.000000 -0.086259 0.000000
# 6 0.000000 0.000000 0.000000 0.000000 0.000000 0.101355
#
#
# Mechanical properties :
#
#
# Convention : Reuss Voigt Hill
#
# Bulk Modulus (GPa) = 42.22198 59.85864 51.04031
# Shear Modulus (GPa) = 34.14361 20.93150 27.53756
#
# Velocity S-wave (km/s) = 4.12887 3.23278 3.70799
# Velocity P-wave (km/s) = 6.61900 6.61977 6.61938
#
# Compressibility (1/GPa) = 0.02368435
#
# Stress axis : x y z
#
# Youngs Moduli (GPa) = 65.68207 66.44498 140.33634
#
# Poissons Ratio (x) = 0.10371 -0.05846
# Poissons Ratio (y) = 0.10252 0.80186
# Poissons Ratio (z) = -0.02736 0.37965
#
# Static dielectric constant tensor:
#      x y z
#    x 1.791720 0.000000 0.000000 
#    y 0.000000 1.649360 0.000000 
#    z 0.000000 0.000000 1.813840 
# 
# From -- ./inp_files/67203.got.cif
#   From: 2010.05.17/outbox.cif.g08.bks.cpg/sg63_34_cif.got.tgz:67203.got - 2010.06.03 15:47:04.
