data_PCOD9468580
_publ_section_title
;
Structure prediction by ZEFSAII (Michael W. Deem and Ramdas Pophale) SiO2 
 PCOD9468580
Probable space group: C M C M
;
_chemical_formula_sum "Si O2"
_cell_formula_units_Z 88
_cell_length_a 21.479972
_cell_length_b 26.779563
_cell_length_c 7.523282
_cell_angle_alpha 90.000000
_cell_angle_beta 90.000000
_cell_angle_gamma 90.000000
_cell_volume 4327.574347
_symmetry_space_group_name_H-M "C M C M"
_symmetry_group_IT_number 63
_symmetry_cell_setting 'orthorhombic'
loop_
_space_group_symop_operation_xyz
x,y,z
-x,-y,1/2+z
x,-y,-z
-x,y,1/2-z
-x,-y,-z
x,y,1/2-z
-x,y,z
x,-y,1/2+z
1/2+x,1/2+y,z
1/2-x,1/2-y,1/2+z
1/2+x,1/2-y,-z
1/2-x,1/2+y,1/2-z
1/2-x,1/2-y,-z
1/2+x,1/2+y,1/2-z
1/2-x,1/2+y,z
1/2+x,1/2-y,1/2+z
loop_
_atom_site_type_symbol
_atom_site_label
_atom_site_fract_x
_atom_site_fract_y
_atom_site_fract_z
Si Si1 0.864570 0.275058 0.457485
Si Si2 0.000000 0.282658 0.538170
Si Si3 0.365156 0.941296 0.463232
Si Si4 0.769741 0.359068 0.468548
Si Si5 0.500000 0.940624 0.037430
Si Si6 0.366349 0.339793 0.453907
Si Si7 0.000000 0.834083 0.467998
O O1 0.854101 0.265502 0.250000
O O2 0.932588 0.301133 0.474885
O O3 0.809964 0.310855 0.523818
O O4 0.865389 0.220850 0.547079
O O5 0.000000 0.224367 0.481057
O O6 0.000000 0.285441 0.750000
O O7 0.367387 0.935841 0.250000
O O8 0.308649 0.907320 0.526349
O O9 0.432984 0.923573 0.532911
O O10 0.357447 0.000000 0.500000
O O11 0.768495 0.357953 0.250000
O O12 0.698919 0.357181 0.533191
O O13 0.500000 0.932501 0.250000
O O14 0.500000 0.000000 0.000000
O O15 0.366742 0.357169 0.250000
O O16 0.433646 0.354889 0.530856
O O17 0.000000 0.835224 0.250000
#
# Coordination Sequence:
#
# PCOD9468580 Si02
#       7
#    16   8  16  16   8  16   8
#     4  10  18  28  43  65  90 119 152 187 221 260
#     4   9  17  30  44  60  86 123 156 185 219 258
#     4   9  17  31  47  64  84 111 145 184 225 268
#     4   9  18  29  44  65  90 118 148 181 226 275
#     4   8  14  25  44  62  79 104 138 177 218 259
#     4   9  16  29  45  63  89 121 150 180 218 265
#     4   7  12  23  42  60  77 107 147 178 203 241
#
# _framework density 20.334717999999999
#
# number of rings (size 3 to 8) (size 9 to 14) (size 15 to 20)
#    0.000    3.091    0.000    2.455    0.000    0.727 
#    0.000    6.364    0.000    4.364    0.000    0.636 
#    0.000    0.000    0.000    0.000    0.000    0.000 
#
# Total GULP energy -245226.168476 kJ/mol
# GULP energy per Si atom -5573.322011 kJ/mol
# Density = 2.028844 g / cm^3
# Si number density = 20.334718 Si / 1000 Ang^3
#
#
#
# Elastic Constant Matrix: (Units=GPa)
#
#
# Indices 1 2 3 4 5 6 
#
# 1 249.8536 51.8025 2.8665 0.0000 0.0000 0.0000
# 2 51.8025 45.4237 -7.2385 0.0000 0.0000 0.0000
# 3 2.8665 -7.2385 57.9427 0.0000 0.0000 0.0000
# 4 0.0000 0.0000 0.0000 8.8594 0.0000 0.0000
# 5 0.0000 0.0000 0.0000 0.0000 6.8332 0.0000
# 6 0.0000 0.0000 0.0000 0.0000 0.0000 52.5869
#
#
#
# Elastic Compliance Matrix: (Units=1/GPa)
#
#
# Indices 1 2 3 4 5 6 
#
# 1 0.005302 -0.006212 -0.001038 0.000000 0.000000 0.000000
# 2 -0.006212 0.029741 0.004023 0.000000 0.000000 0.000000
# 3 -0.001038 0.004023 0.017812 0.000000 0.000000 0.000000
# 4 0.000000 0.000000 0.000000 0.112874 0.000000 0.000000
# 5 0.000000 0.000000 0.000000 0.000000 0.146345 0.000000
# 6 0.000000 0.000000 0.000000 0.000000 0.000000 0.019016
#
#
# Mechanical properties :
#
#
# Convention : Reuss Voigt Hill
#
# Bulk Modulus (GPa) = 21.55205 49.78675 35.66940
# Shear Modulus (GPa) = 14.16378 34.04186 24.10282
#
# Velocity S-wave (km/s) = 2.64205 4.09599 3.44656
# Velocity P-wave (km/s) = 4.46418 6.84881 5.78079
#
# Compressibility (1/GPa) = 0.04639931
#
# Stress axis : x y z
#
# Youngs Moduli (GPa) = 188.59852 33.62393 56.14084
#
# Poissons Ratio (x) = 0.20888 0.05830
# Poissons Ratio (y) = 1.17164 -0.22584
# Poissons Ratio (z) = 0.19584 -0.13526
#
# Static dielectric constant tensor:
#      x y z
#    x 1.803130 0.000000 0.000000 
#    y 0.000000 1.676700 0.000000 
#    z 0.000000 0.000000 1.757940 
# 
# From -- ./inp_files/9026.got.cif
#   From: 2010.05.17/outbox.cif.g08.bks.cpg/sg63_5_cif.got.tgz:9026.got - 2010.06.03 15:47:04.
