data_PCOD9468416
_publ_section_title
;
Structure prediction by ZEFSAII (Michael W. Deem and Ramdas Pophale) SiO2 
 PCOD9468416
Probable space group: C M C M
;
_chemical_formula_sum "Si O2"
_cell_formula_units_Z 56
_cell_length_a 15.869825
_cell_length_b 11.593254
_cell_length_c 13.918403
_cell_angle_alpha 90.000000
_cell_angle_beta 90.000000
_cell_angle_gamma 90.000000
_cell_volume 2560.748317
_symmetry_space_group_name_H-M "C M C M"
_symmetry_group_IT_number 63
_symmetry_cell_setting 'orthorhombic'
loop_
_space_group_symop_operation_xyz
x,y,z
-x,-y,1/2+z
x,-y,-z
-x,y,1/2-z
-x,-y,-z
x,y,1/2-z
-x,y,z
x,-y,1/2+z
1/2+x,1/2+y,z
1/2-x,1/2-y,1/2+z
1/2+x,1/2-y,-z
1/2-x,1/2+y,1/2-z
1/2-x,1/2-y,-z
1/2+x,1/2+y,1/2-z
1/2-x,1/2+y,z
1/2+x,1/2-y,1/2+z
loop_
_atom_site_type_symbol
_atom_site_label
_atom_site_fract_x
_atom_site_fract_y
_atom_site_fract_z
Si Si1 0.132983 0.808736 0.981112
Si Si2 0.598776 0.079605 0.864147
Si Si3 0.271985 0.000000 0.000000
Si Si4 0.000000 0.786151 0.358195
Si Si5 0.500000 0.560082 0.357342
O O1 0.130188 0.699728 0.910131
O O2 0.078208 0.899836 0.919956
O O3 0.215218 0.884106 0.005104
O O4 0.082166 0.766236 0.075678
O O5 0.603919 0.081857 0.750000
O O6 0.500000 0.060893 0.890200
O O7 0.664575 0.990597 0.909932
O O8 0.000000 0.734686 0.250000
O O9 0.000000 0.924117 0.347817
O O10 0.500000 0.612325 0.250000
#
# Coordination Sequence:
#
# PCOD9468416 Si02
#       5
#    16  16   8   8   8
#     4  11  20  40  64  95 129 166 213 266 317 375
#     4  11  25  45  68  89 123 176 220 258 320 394
#     4  12  25  41  64  98 134 164 206 281 323 368
#     4  10  19  33  62  97 131 168 211 259 320 380
#     4  10  17  31  62  93 125 167 209 254 318 385
#
# _framework density 21.868607999999998
#
# number of rings (size 3 to 8) (size 9 to 14) (size 15 to 20)
#    0.000    1.143    5.714    3.000    0.000    3.429 
#    0.000    1.429    0.000    0.000    0.000    0.000 
#    0.000    0.000    0.000    0.000    0.000    0.000 
#
# Total GULP energy -156309.800689 kJ/mol
# GULP energy per Si atom -5582.492882 kJ/mol
# Density = 2.181883 g / cm^3
# Si number density = 21.868608 Si / 1000 Ang^3
#
#
#
# Elastic Constant Matrix: (Units=GPa)
#
#
# Indices 1 2 3 4 5 6 
#
# 1 175.2051 35.3089 77.8007 0.0000 0.0000 0.0000
# 2 35.3089 46.2023 24.1655 0.0000 0.0000 0.0000
# 3 77.8007 24.1655 171.8707 0.0000 0.0000 0.0000
# 4 0.0000 0.0000 0.0000 29.5921 0.0000 0.0000
# 5 0.0000 0.0000 0.0000 0.0000 6.5905 0.0000
# 6 0.0000 0.0000 0.0000 0.0000 0.0000 84.4030
#
#
#
# Elastic Compliance Matrix: (Units=1/GPa)
#
#
# Indices 1 2 3 4 5 6 
#
# 1 0.007929 -0.004514 -0.002955 0.000000 0.000000 0.000000
# 2 -0.004514 0.025932 -0.001603 0.000000 0.000000 0.000000
# 3 -0.002955 -0.001603 0.007381 0.000000 0.000000 0.000000
# 4 0.000000 0.000000 0.000000 0.033793 0.000000 0.000000
# 5 0.000000 0.000000 0.000000 0.000000 0.151733 0.000000
# 6 0.000000 0.000000 0.000000 0.000000 0.000000 0.011848
#
#
# Mechanical properties :
#
#
# Convention : Reuss Voigt Hill
#
# Bulk Modulus (GPa) = 43.29120 74.20315 58.74718
# Shear Modulus (GPa) = 18.90644 41.18399 30.04522
#
# Velocity S-wave (km/s) = 2.94351 4.34435 3.71063
# Velocity P-wave (km/s) = 5.60280 7.69217 6.72907
#
# Compressibility (1/GPa) = 0.02309938
#
# Stress axis : x y z
#
# Youngs Moduli (GPa) = 126.11251 38.56203 135.48034
#
# Poissons Ratio (x) = 0.17409 0.40030
# Poissons Ratio (y) = 0.56933 0.21712
# Poissons Ratio (z) = 0.37262 0.06180
#
# Static dielectric constant tensor:
#      x y z
#    x 1.896860 0.000000 0.000000 
#    y 0.000000 1.860160 0.000000 
#    z 0.000000 0.000000 1.786440 
# 
# From -- ./inp_files/30883.got.cif
#   From: 2010.05.17/outbox.cif.g08.bks.cpg/sg63_16_cif.got.tgz:30883.got - 2010.06.03 15:47:04.
