data_PCOD9468428
_publ_section_title
;
Structure prediction by ZEFSAII (Michael W. Deem and Ramdas Pophale) SiO2 
 PCOD9468428
Probable space group: C M C M
;
_chemical_formula_sum "Si O2"
_cell_formula_units_Z 104
_cell_length_a 14.146471
_cell_length_b 17.836920
_cell_length_c 19.789887
_cell_angle_alpha 90.000000
_cell_angle_beta 90.000000
_cell_angle_gamma 90.000000
_cell_volume 4993.571728
_symmetry_space_group_name_H-M "C M C M"
_symmetry_group_IT_number 63
_symmetry_cell_setting 'orthorhombic'
loop_
_space_group_symop_operation_xyz
x,y,z
-x,-y,1/2+z
x,-y,-z
-x,y,1/2-z
-x,-y,-z
x,y,1/2-z
-x,y,z
x,-y,1/2+z
1/2+x,1/2+y,z
1/2-x,1/2-y,1/2+z
1/2+x,1/2-y,-z
1/2-x,1/2+y,1/2-z
1/2-x,1/2-y,-z
1/2+x,1/2+y,1/2-z
1/2-x,1/2+y,z
1/2+x,1/2-y,1/2+z
loop_
_atom_site_type_symbol
_atom_site_label
_atom_site_fract_x
_atom_site_fract_y
_atom_site_fract_z
Si Si1 0.207958 0.189725 0.637331
Si Si2 0.267626 0.349191 0.622345
Si Si3 0.889409 0.093645 0.750000
Si Si4 0.303533 0.429267 0.750000
Si Si5 0.609230 0.283456 0.998423
Si Si6 0.397070 0.980688 0.750000
Si Si7 0.391744 0.896008 0.973517
Si Si8 0.392570 0.093836 0.624020
O O1 0.213977 0.277594 0.654277
O O2 0.142288 0.142384 0.686210
O O3 0.165695 0.184897 0.562408
O O4 0.312028 0.153806 0.640146
O O5 0.328044 0.390460 0.679574
O O6 0.336396 0.312677 0.566824
O O7 0.190331 0.400411 0.582744
O O8 0.000000 0.079136 0.750000
O O9 0.834935 0.014934 0.750000
O O10 0.189638 0.425457 0.750000
O O11 0.500000 0.306274 0.998688
O O12 0.611518 0.193105 0.006241
O O13 0.500000 0.944519 0.750000
O O14 0.389143 0.032437 0.683191
O O15 0.500000 0.911948 0.950066
O O16 0.376545 0.934737 0.046923
O O17 0.500000 0.124803 0.624359
#
# Coordination Sequence:
#
# PCOD9468428 Si02
#       8
#    16  16   8   8  16   8  16  16
#     4  11  19  40  67  94 120 160 209 256 302 361
#     4  11  22  38  61  94 125 157 200 257 318 368
#     4  12  27  46  63  84 123 175 225 259 291 359
#     4  12  27  42  59  83 125 168 204 255 317 366
#     4  10  19  34  59  91 126 160 199 251 309 366
#     4  10  22  40  58  81 116 159 203 244 302 377
#     4   9  17  33  59  93 126 151 188 248 315 371
#     4  10  17  32  63  94 117 148 194 249 304 364
#
# _framework density 20.826775999999999
#
# number of rings (size 3 to 8) (size 9 to 14) (size 15 to 20)
#    0.000    1.538    4.615    1.846    0.000    1.846 
#    0.000    3.846    0.000    4.615    0.000    0.000 
#    0.000    0.000    0.000    0.000    0.000    0.000 
#
# Total GULP energy -290628.071156 kJ/mol
# GULP energy per Si atom -5589.001368 kJ/mol
# Density = 2.077937 g / cm^3
# Si number density = 20.826776 Si / 1000 Ang^3
#
#
#
# Elastic Constant Matrix: (Units=GPa)
#
#
# Indices 1 2 3 4 5 6 
#
# 1 93.2306 12.3079 8.0952 0.0000 0.0000 0.0000
# 2 12.3079 56.8211 35.4590 0.0000 0.0000 0.0000
# 3 8.0952 35.4590 107.1959 0.0000 0.0000 0.0000
# 4 0.0000 0.0000 0.0000 25.7931 0.0000 0.0000
# 5 0.0000 0.0000 0.0000 0.0000 19.4859 0.0000
# 6 0.0000 0.0000 0.0000 0.0000 0.0000 22.9809
#
#
#
# Elastic Compliance Matrix: (Units=1/GPa)
#
#
# Indices 1 2 3 4 5 6 
#
# 1 0.011042 -0.002358 -0.000054 0.000000 0.000000 0.000000
# 2 -0.002358 0.022681 -0.007324 0.000000 0.000000 0.000000
# 3 -0.000054 -0.007324 0.011756 0.000000 0.000000 0.000000
# 4 0.000000 0.000000 0.000000 0.038770 0.000000 0.000000
# 5 0.000000 0.000000 0.000000 0.000000 0.051319 0.000000
# 6 0.000000 0.000000 0.000000 0.000000 0.000000 0.043514
#
#
# Mechanical properties :
#
#
# Convention : Reuss Voigt Hill
#
# Bulk Modulus (GPa) = 38.45339 40.99687 39.72513
# Shear Modulus (GPa) = 24.12856 27.07768 25.60312
#
# Velocity S-wave (km/s) = 3.40742 3.60965 3.50999
# Velocity P-wave (km/s) = 5.82960 6.09100 5.96173
#
# Compressibility (1/GPa) = 0.02600551
#
# Stress axis : x y z
#
# Youngs Moduli (GPa) = 90.56261 44.09040 85.06593
#
# Poissons Ratio (x) = 0.10398 0.00458
# Poissons Ratio (y) = 0.21357 0.62306
# Poissons Ratio (z) = 0.00487 0.32293
#
# Static dielectric constant tensor:
#      x y z
#    x 1.728990 0.000000 0.000000 
#    y 0.000000 1.759230 0.000000 
#    z 0.000000 0.000000 1.804000 
# 
# From -- ./inp_files/54540.got.cif
#   From: 2010.05.17/outbox.cif.g08.bks.cpg/sg63_28_cif.got.tgz:54540.got - 2010.06.03 15:47:04.
