data_PCOD9468748
_publ_section_title
;
Structure prediction by ZEFSAII (Michael W. Deem and Ramdas Pophale) SiO2 
 PCOD9468748
Probable space group: C M C M
;
_chemical_formula_sum "Si O2"
_cell_formula_units_Z 96
_cell_length_a 8.137694
_cell_length_b 30.681618
_cell_length_c 21.561554
_cell_angle_alpha 90.000000
_cell_angle_beta 90.000000
_cell_angle_gamma 90.000000
_cell_volume 5383.437458
_symmetry_space_group_name_H-M "C M C M"
_symmetry_group_IT_number 63
_symmetry_cell_setting 'orthorhombic'
loop_
_space_group_symop_operation_xyz
x,y,z
-x,-y,1/2+z
x,-y,-z
-x,y,1/2-z
-x,-y,-z
x,y,1/2-z
-x,y,z
x,-y,1/2+z
1/2+x,1/2+y,z
1/2-x,1/2-y,1/2+z
1/2+x,1/2-y,-z
1/2-x,1/2+y,1/2-z
1/2-x,1/2-y,-z
1/2+x,1/2+y,1/2-z
1/2-x,1/2+y,z
1/2+x,1/2-y,1/2+z
loop_
_atom_site_type_symbol
_atom_site_label
_atom_site_fract_x
_atom_site_fract_y
_atom_site_fract_z
Si Si1 0.301584 0.441968 0.681941
Si Si2 0.196190 0.636375 0.477688
Si Si3 0.802483 0.215383 0.947333
Si Si4 0.194172 0.249566 0.816090
Si Si5 0.308436 0.343589 0.656034
Si Si6 0.302327 0.037887 0.454539
O O1 0.248905 0.458989 0.750000
O O2 0.500000 0.441752 0.680961
O O3 0.247599 0.391181 0.677174
O O4 0.246727 0.464660 0.618055
O O5 0.240018 0.667553 0.534279
O O6 0.286382 0.656131 0.417926
O O7 0.246783 0.585731 0.479895
O O8 0.000000 0.638118 0.466848
O O9 0.737906 0.230030 0.879912
O O10 0.000000 0.215431 0.946287
O O11 0.750000 0.250000 0.000000
O O12 0.264518 0.234241 0.750000
O O13 0.216334 0.301621 0.819272
O O14 0.000000 0.240061 0.815921
O O15 0.500000 0.339944 0.672648
O O16 0.500000 0.036391 0.455968
O O17 0.239242 0.000000 0.500000
#
# Coordination Sequence:
#
# PCOD9468748 Si02
#       6
#    16  16  16  16  16  16
#     4   9  18  31  47  72 105 134 161 199 249 306
#     4  10  19  32  51  74 100 130 166 208 252 299
#     4  11  21  33  51  73 100 133 171 209 246 292
#     4  10  21  34  47  66  96 133 170 208 249 293
#     4  10  18  29  47  71 100 132 164 199 243 297
#     4   9  19  35  54  76 101 130 168 212 256 303
#
# _framework density 17.832473
#
# number of rings (size 3 to 8) (size 9 to 14) (size 15 to 20)
#    0.000    2.167    1.667    2.000    0.000    3.667 
#    0.000    0.000    0.000    1.000    0.000    4.667 
#    0.000    0.000    0.000    0.000    0.000    0.000 
#
# Total GULP energy -267612.182382 kJ/mol
# GULP energy per Si atom -5575.253800 kJ/mol
# Density = 1.779189 g / cm^3
# Si number density = 17.832473 Si / 1000 Ang^3
#
#
#
# Elastic Constant Matrix: (Units=GPa)
#
#
# Indices 1 2 3 4 5 6 
#
# 1 19.3064 7.8051 8.9450 0.0000 0.0000 0.0000
# 2 7.8051 77.9424 74.2851 0.0000 0.0000 0.0000
# 3 8.9450 74.2851 174.8809 0.0000 0.0000 0.0000
# 4 0.0000 0.0000 0.0000 16.1938 0.0000 0.0000
# 5 0.0000 0.0000 0.0000 0.0000 16.2311 0.0000
# 6 0.0000 0.0000 0.0000 0.0000 0.0000 17.7047
#
#
#
# Elastic Compliance Matrix: (Units=1/GPa)
#
#
# Indices 1 2 3 4 5 6 
#
# 1 0.054045 -0.004667 -0.000782 0.000000 0.000000 0.000000
# 2 -0.004667 0.021960 -0.009089 0.000000 0.000000 0.000000
# 3 -0.000782 -0.009089 0.009619 0.000000 0.000000 0.000000
# 4 0.000000 0.000000 0.000000 0.061752 0.000000 0.000000
# 5 0.000000 0.000000 0.000000 0.000000 0.061610 0.000000
# 6 0.000000 0.000000 0.000000 0.000000 0.000000 0.056482
#
#
# Mechanical properties :
#
#
# Convention : Reuss Voigt Hill
#
# Bulk Modulus (GPa) = 17.68403 50.46668 34.07535
# Shear Modulus (GPa) = 15.95430 22.09888 19.02659
#
# Velocity S-wave (km/s) = 2.99436 3.52412 3.26998
# Velocity P-wave (km/s) = 4.67902 6.70232 5.77989
#
# Compressibility (1/GPa) = 0.05654820
#
# Stress axis : x y z
#
# Youngs Moduli (GPa) = 18.50301 45.53673 103.95909
#
# Poissons Ratio (x) = 0.21251 0.08130
# Poissons Ratio (y) = 0.08635 0.94494
# Poissons Ratio (z) = 0.01447 0.41391
#
# Static dielectric constant tensor:
#      x y z
#    x 1.631770 0.000000 0.000000 
#    y 0.000000 1.601760 0.000000 
#    z 0.000000 0.000000 1.664380 
# 
# From -- ./inp_files/51400.got.cif
#   From: 2010.05.17/outbox.cif.g08.bks.cpg/sg63_26_cif.got.tgz:51400.got - 2010.06.03 15:47:04.
