data_PCOD9468661
_publ_section_title
;
Structure prediction by ZEFSAII (Michael W. Deem and Ramdas Pophale) SiO2 
 PCOD9468661
Probable space group: C M C M
;
_chemical_formula_sum "Si O2"
_cell_formula_units_Z 80
_cell_length_a 7.911581
_cell_length_b 18.832867
_cell_length_c 27.084652
_cell_angle_alpha 90.000000
_cell_angle_beta 90.000000
_cell_angle_gamma 90.000000
_cell_volume 4035.552282
_symmetry_space_group_name_H-M "C M C M"
_symmetry_group_IT_number 63
_symmetry_cell_setting 'orthorhombic'
loop_
_space_group_symop_operation_xyz
x,y,z
-x,-y,1/2+z
x,-y,-z
-x,y,1/2-z
-x,-y,-z
x,y,1/2-z
-x,y,z
x,-y,1/2+z
1/2+x,1/2+y,z
1/2-x,1/2-y,1/2+z
1/2+x,1/2-y,-z
1/2-x,1/2+y,1/2-z
1/2-x,1/2-y,-z
1/2+x,1/2+y,1/2-z
1/2-x,1/2+y,z
1/2+x,1/2-y,1/2+z
loop_
_atom_site_type_symbol
_atom_site_label
_atom_site_fract_x
_atom_site_fract_y
_atom_site_fract_z
Si Si1 0.196465 0.057898 0.250000
Si Si2 0.207218 0.456158 0.451680
Si Si3 0.704222 0.957102 0.855880
Si Si4 0.296546 0.793600 0.644048
Si Si5 0.806155 0.282208 0.750000
Si Si6 0.798920 0.294520 0.451917
O O1 0.237429 0.019561 0.301387
O O2 0.302714 0.131269 0.250000
O O3 0.000000 0.077663 0.250000
O O4 0.259796 0.500000 0.500000
O O5 0.261871 0.494806 0.401340
O O6 0.267049 0.375061 0.454011
O O7 0.000000 0.456121 0.451647
O O8 0.500000 0.957239 0.856153
O O9 0.762078 0.875157 0.862801
O O10 0.500000 0.797167 0.648588
O O11 0.229454 0.764139 0.696653
O O12 0.255681 0.745948 0.597404
O O13 0.000000 0.256718 0.750000
O O14 0.750000 0.250000 0.500000
O O15 0.000000 0.299281 0.451179
#
# Coordination Sequence:
#
# PCOD9468661 Si02
#       6
#     8  16  16  16   8  16
#     4  10  18  28  47  78 111 135 163 209 257 296
#     4   9  18  34  55  75  95 127 173 214 245 291
#     4   9  17  33  56  76  99 136 177 209 241 294
#     4   9  17  32  55  79 102 132 170 210 250 296
#     4   8  16  32  53  74  99 139 181 205 235 294
#     4  11  22  35  53  77 103 132 167 211 261 307
#
# _framework density 19.823806000000001
#
# number of rings (size 3 to 8) (size 9 to 14) (size 15 to 20)
#    0.000    2.600    0.000    3.900    0.000    6.400 
#    0.000    3.000    0.000    7.800    0.000    0.000 
#    0.000    0.000    0.000    0.000    0.000    0.000 
#
# Total GULP energy -223093.191068 kJ/mol
# GULP energy per Si atom -5577.329777 kJ/mol
# Density = 1.977869 g / cm^3
# Si number density = 19.823806 Si / 1000 Ang^3
#
#
#
# Elastic Constant Matrix: (Units=GPa)
#
#
# Indices 1 2 3 4 5 6 
#
# 1 24.9624 8.4241 7.0568 0.0000 0.0000 0.0000
# 2 8.4241 123.2163 111.6035 0.0000 0.0000 0.0000
# 3 7.0568 111.6035 247.5693 0.0000 0.0000 0.0000
# 4 0.0000 0.0000 0.0000 34.5918 0.0000 0.0000
# 5 0.0000 0.0000 0.0000 0.0000 10.4470 0.0000
# 6 0.0000 0.0000 0.0000 0.0000 0.0000 16.7983
#
#
#
# Elastic Compliance Matrix: (Units=1/GPa)
#
#
# Indices 1 2 3 4 5 6 
#
# 1 0.041010 -0.002949 0.000161 0.000000 0.000000 0.000000
# 2 -0.002949 0.013928 -0.006195 0.000000 0.000000 0.000000
# 3 0.000161 -0.006195 0.006827 0.000000 0.000000 0.000000
# 4 0.000000 0.000000 0.000000 0.028909 0.000000 0.000000
# 5 0.000000 0.000000 0.000000 0.000000 0.095721 0.000000
# 6 0.000000 0.000000 0.000000 0.000000 0.000000 0.059530
#
#
# Mechanical properties :
#
#
# Convention : Reuss Voigt Hill
#
# Bulk Modulus (GPa) = 22.83164 72.21299 47.52232
# Shear Modulus (GPa) = 17.95382 30.27833 24.11607
#
# Velocity S-wave (km/s) = 3.01270 3.91240 3.49165
# Velocity P-wave (km/s) = 4.86252 7.54425 6.34664
#
# Compressibility (1/GPa) = 0.04379887
#
# Stress axis : x y z
#
# Youngs Moduli (GPa) = 24.38422 71.79565 146.47062
#
# Poissons Ratio (x) = 0.21174 -0.02351
# Poissons Ratio (y) = 0.07191 0.90736
# Poissons Ratio (z) = -0.00391 0.44476
#
# Static dielectric constant tensor:
#      x y z
#    x 1.735420 0.000000 0.000000 
#    y 0.000000 1.677210 0.000000 
#    z 0.000000 0.000000 1.684390 
# 
# From -- ./inp_files/66667.got.cif
#   From: 2010.05.17/outbox.cif.g08.bks.cpg/sg63_34_cif.got.tgz:66667.got - 2010.06.03 15:47:04.
