data_PCOD9468833
_publ_section_title
;
Structure prediction by ZEFSAII (Michael W. Deem and Ramdas Pophale) SiO2 
 PCOD9468833
Probable space group: C M C M
;
_chemical_formula_sum "Si O2"
_cell_formula_units_Z 80
_cell_length_a 14.518417
_cell_length_b 22.828869
_cell_length_c 15.170576
_cell_angle_alpha 90.000000
_cell_angle_beta 90.000000
_cell_angle_gamma 90.000000
_cell_volume 5028.121142
_symmetry_space_group_name_H-M "C M C M"
_symmetry_group_IT_number 63
_symmetry_cell_setting 'orthorhombic'
loop_
_space_group_symop_operation_xyz
x,y,z
-x,-y,1/2+z
x,-y,-z
-x,y,1/2-z
-x,-y,-z
x,y,1/2-z
-x,y,z
x,-y,1/2+z
1/2+x,1/2+y,z
1/2-x,1/2-y,1/2+z
1/2+x,1/2-y,-z
1/2-x,1/2+y,1/2-z
1/2-x,1/2-y,-z
1/2+x,1/2+y,1/2-z
1/2-x,1/2+y,z
1/2+x,1/2-y,1/2+z
loop_
_atom_site_type_symbol
_atom_site_label
_atom_site_fract_x
_atom_site_fract_y
_atom_site_fract_z
Si Si1 0.892649 0.522454 0.600660
Si Si2 0.890383 0.695656 0.487194
Si Si3 0.394618 0.302174 0.351678
Si Si4 0.888021 0.603496 0.344314
Si Si5 0.295460 0.856641 0.352469
O O1 0.890229 0.500000 0.500000
O O2 0.861534 0.464324 0.651544
O O3 0.833914 0.579787 0.620394
O O4 0.000000 0.535584 0.621845
O O5 0.878356 0.752351 0.425337
O O6 0.856673 0.641355 0.426856
O O7 0.839855 0.690315 0.580281
O O8 0.000000 0.688953 0.502391
O O9 0.388158 0.279109 0.250000
O O10 0.500000 0.323076 0.362334
O O11 0.314683 0.349989 0.360631
O O12 0.860154 0.629057 0.250000
O O13 0.000000 0.604494 0.348184
O O14 0.319610 0.845964 0.250000
#
# Coordination Sequence:
#
# PCOD9468833 Si02
#       5
#    16  16  16  16  16
#     4  10  18  30  45  67 101 131 151 181 231 291
#     4  10  18  30  48  71  99 126 153 190 236 285
#     4   9  19  35  52  69  91 123 166 208 238 267
#     4   9  16  26  43  66  92 124 156 184 223 277
#     4  11  21  31  47  71 100 130 159 192 235 283
#
# _framework density 15.910515999999999
#
# number of rings (size 3 to 8) (size 9 to 14) (size 15 to 20)
#    0.000    2.200    2.000    2.400    0.000    4.800 
#    0.000    0.000    0.000    0.600    0.000    0.000 
#    0.000    0.000    0.000    0.000    0.000    0.000 
#
# Total GULP energy -222756.469309 kJ/mol
# GULP energy per Si atom -5568.911733 kJ/mol
# Density = 1.587430 g / cm^3
# Si number density = 15.910516 Si / 1000 Ang^3
#
#
#
# Elastic Constant Matrix: (Units=GPa)
#
#
# Indices 1 2 3 4 5 6 
#
# 1 76.5340 47.7657 36.7716 0.0000 0.0000 0.0000
# 2 47.7657 54.3733 25.4596 0.0000 0.0000 0.0000
# 3 36.7716 25.4596 97.2429 0.0000 0.0000 0.0000
# 4 0.0000 0.0000 0.0000 17.0775 0.0000 0.0000
# 5 0.0000 0.0000 0.0000 0.0000 18.8524 0.0000
# 6 0.0000 0.0000 0.0000 0.0000 0.0000 21.5025
#
#
#
# Elastic Compliance Matrix: (Units=1/GPa)
#
#
# Indices 1 2 3 4 5 6 
#
# 1 0.031113 -0.024873 -0.005253 0.000000 0.000000 0.000000
# 2 -0.024873 0.040845 -0.001288 0.000000 0.000000 0.000000
# 3 -0.005253 -0.001288 0.012607 0.000000 0.000000 0.000000
# 4 0.000000 0.000000 0.000000 0.058557 0.000000 0.000000
# 5 0.000000 0.000000 0.000000 0.000000 0.053044 0.000000
# 6 0.000000 0.000000 0.000000 0.000000 0.000000 0.046506
#
#
# Mechanical properties :
#
#
# Convention : Reuss Voigt Hill
#
# Bulk Modulus (GPa) = 46.00472 49.79378 47.89925
# Shear Modulus (GPa) = 15.98744 19.36338 17.67541
#
# Velocity S-wave (km/s) = 3.17335 3.49236 3.33667
# Velocity P-wave (km/s) = 6.51186 6.90117 6.70934
#
# Compressibility (1/GPa) = 0.02173690
#
# Stress axis : x y z
#
# Youngs Moduli (GPa) = 32.14060 24.48303 79.31913
#
# Poissons Ratio (x) = 0.60896 0.41668
# Poissons Ratio (y) = 0.79942 0.10219
# Poissons Ratio (z) = 0.16884 0.03154
#
# Static dielectric constant tensor:
#      x y z
#    x 1.514900 0.000000 0.000000 
#    y 0.000000 1.536490 0.000000 
#    z 0.000000 0.000000 1.596870 
# 
# From -- ./inp_files/29718.got.cif
#   From: 2010.05.17/outbox.cif.g08.bks.cpg/sg63_15_cif.got.tgz:29718.got - 2010.06.03 15:47:04.
