data_PCOD9468446
_publ_section_title
;
Structure prediction by ZEFSAII (Michael W. Deem and Ramdas Pophale) SiO2 
 PCOD9468446
Probable space group: C M C M
;
_chemical_formula_sum "Si O2"
_cell_formula_units_Z 96
_cell_length_a 26.852408
_cell_length_b 20.461733
_cell_length_c 9.431782
_cell_angle_alpha 90.000000
_cell_angle_beta 90.000000
_cell_angle_gamma 90.000000
_cell_volume 5182.262466
_symmetry_space_group_name_H-M "C M C M"
_symmetry_group_IT_number 63
_symmetry_cell_setting 'orthorhombic'
loop_
_space_group_symop_operation_xyz
x,y,z
-x,-y,1/2+z
x,-y,-z
-x,y,1/2-z
-x,-y,-z
x,y,1/2-z
-x,y,z
x,-y,1/2+z
1/2+x,1/2+y,z
1/2-x,1/2-y,1/2+z
1/2+x,1/2-y,-z
1/2-x,1/2+y,1/2-z
1/2-x,1/2-y,-z
1/2+x,1/2+y,1/2-z
1/2-x,1/2+y,z
1/2+x,1/2-y,1/2+z
loop_
_atom_site_type_symbol
_atom_site_label
_atom_site_fract_x
_atom_site_fract_y
_atom_site_fract_z
Si Si1 0.613252 0.705684 0.079915
Si Si2 0.896723 0.358076 0.079787
Si Si3 0.807518 0.569990 0.076865
Si Si4 0.865188 0.000000 0.500000
Si Si5 0.443895 0.397924 0.407164
Si Si6 0.500000 0.931738 0.081906
Si Si7 0.201852 0.879562 0.585765
O O1 0.613038 0.699091 0.250000
O O2 0.604146 0.780988 0.046937
O O3 0.666178 0.676819 0.024283
O O4 0.572134 0.657239 0.017313
O O5 0.886510 0.365844 0.250000
O O6 0.855313 0.393128 0.984805
O O7 0.950374 0.390180 0.050984
O O8 0.808549 0.564033 0.250000
O O9 0.757067 0.607861 0.030030
O O10 0.805800 0.500000 0.000000
O O11 0.903368 0.955591 0.411362
O O12 0.829485 0.947167 0.574630
O O13 0.442704 0.368728 0.250000
O O14 0.500000 0.421693 0.434617
O O15 0.500000 0.945358 0.250000
O O16 0.500000 0.000000 0.000000
O O17 0.208776 0.863373 0.750000
#
# Coordination Sequence:
#
# PCOD9468446 Si02
#       7
#    16  16  16   8  16   8  16
#     4   9  20  38  59  82 112 152 195 232 280 342
#     4  10  22  40  61  85 113 146 186 234 283 342
#     4  11  22  37  58  86 116 147 185 230 281 337
#     4  10  17  34  54  76 112 157 194 230 284 328
#     4  10  21  34  52  82 118 152 195 244 284 329
#     4  10  22  40  62  86 112 141 182 231 282 337
#     4   9  18  33  54  81 113 148 188 232 275 329
#
# _framework density 18.524726999999999
#
# number of rings (size 3 to 8) (size 9 to 14) (size 15 to 20)
#    0.000    2.167    0.833    1.750    1.167    4.333 
#    0.000    0.833    0.000    0.000    0.000    0.000 
#    0.000    0.000    0.000    0.000    0.000    0.000 
#
# Total GULP energy -267499.129672 kJ/mol
# GULP energy per Si atom -5572.898535 kJ/mol
# Density = 1.848256 g / cm^3
# Si number density = 18.524727 Si / 1000 Ang^3
#
#
#
# Elastic Constant Matrix: (Units=GPa)
#
#
# Indices 1 2 3 4 5 6 
#
# 1 158.2380 62.8859 43.1837 0.0000 0.0000 0.0000
# 2 62.8859 117.8681 38.4674 0.0000 0.0000 0.0000
# 3 43.1837 38.4674 42.8974 0.0000 0.0000 0.0000
# 4 0.0000 0.0000 0.0000 20.0224 0.0000 0.0000
# 5 0.0000 0.0000 0.0000 0.0000 54.5743 0.0000
# 6 0.0000 0.0000 0.0000 0.0000 0.0000 22.2980
#
#
#
# Elastic Compliance Matrix: (Units=1/GPa)
#
#
# Indices 1 2 3 4 5 6 
#
# 1 0.009280 -0.002689 -0.006930 0.000000 0.000000 0.000000
# 2 -0.002689 0.012774 -0.008747 0.000000 0.000000 0.000000
# 3 -0.006930 -0.008747 0.038132 0.000000 0.000000 0.000000
# 4 0.000000 0.000000 0.000000 0.049944 0.000000 0.000000
# 5 0.000000 0.000000 0.000000 0.000000 0.018324 0.000000
# 6 0.000000 0.000000 0.000000 0.000000 0.000000 0.044847
#
#
# Mechanical properties :
#
#
# Convention : Reuss Voigt Hill
#
# Bulk Modulus (GPa) = 42.64072 67.56417 55.10245
# Shear Modulus (GPa) = 22.95160 31.01003 26.98082
#
# Velocity S-wave (km/s) = 3.52372 4.09587 3.82052
# Velocity P-wave (km/s) = 6.29474 7.67592 7.01938
#
# Compressibility (1/GPa) = 0.02345176
#
# Stress axis : x y z
#
# Youngs Moduli (GPa) = 107.76397 78.28641 26.22502
#
# Poissons Ratio (x) = 0.21053 0.18174
# Poissons Ratio (y) = 0.28980 0.22940
# Poissons Ratio (z) = 0.74680 0.68479
#
# Static dielectric constant tensor:
#      x y z
#    x 1.655550 0.000000 0.000000 
#    y 0.000000 1.620820 0.000000 
#    z 0.000000 0.000000 1.638930 
# 
# From -- ./inp_files/23942.got.cif
#   From: 2010.05.17/outbox.cif.g08.bks.cpg/sg63_12_cif.got.tgz:23942.got - 2010.06.03 15:47:04.
