data_PCOD9468468
_publ_section_title
;
Structure prediction by ZEFSAII (Michael W. Deem and Ramdas Pophale) SiO2 
 PCOD9468468
Probable space group: C M C M
;
_chemical_formula_sum "Si O2"
_cell_formula_units_Z 80
_cell_length_a 14.154310
_cell_length_b 12.967160
_cell_length_c 16.407512
_cell_angle_alpha 90.000000
_cell_angle_beta 90.000000
_cell_angle_gamma 90.000000
_cell_volume 3011.454482
_symmetry_space_group_name_H-M "C M C M"
_symmetry_group_IT_number 63
_symmetry_cell_setting 'orthorhombic'
loop_
_space_group_symop_operation_xyz
x,y,z
-x,-y,1/2+z
x,-y,-z
-x,y,1/2-z
-x,-y,-z
x,y,1/2-z
-x,y,z
x,-y,1/2+z
1/2+x,1/2+y,z
1/2-x,1/2-y,1/2+z
1/2+x,1/2-y,-z
1/2-x,1/2+y,1/2-z
1/2-x,1/2-y,-z
1/2+x,1/2+y,1/2-z
1/2-x,1/2+y,z
1/2+x,1/2-y,1/2+z
loop_
_atom_site_type_symbol
_atom_site_label
_atom_site_fract_x
_atom_site_fract_y
_atom_site_fract_z
Si Si1 0.391159 0.761976 0.584063
Si Si2 0.500000 0.528403 0.093104
Si Si3 0.600362 0.011034 0.347064
Si Si4 0.000000 0.249606 0.338814
Si Si5 0.699404 0.534464 0.347553
Si Si6 0.310114 0.773981 0.097706
O O1 0.500000 0.722049 0.580491
O O2 0.397199 0.865116 0.637696
O O3 0.351804 0.789815 0.493186
O O4 0.299340 0.698160 0.614782
O O5 0.500000 0.653086 0.101037
O O6 0.403349 0.490562 0.132848
O O7 0.500000 0.500000 0.000000
O O8 0.596393 0.994799 0.250000
O O9 0.500000 0.979717 0.386336
O O10 0.704162 0.981454 0.380217
O O11 0.900063 0.307575 0.347255
O O12 0.000000 0.200030 0.250000
O O13 0.708666 0.542783 0.250000
O O14 0.695415 0.649651 0.385464
#
# Coordination Sequence:
#
# PCOD9468468 Si02
#       6
#    16   8  16   8  16  16
#     4   9  15  22  33  54  84 112 138 163 189 233
#     4  10  18  26  38  58  80 102 126 162 214 257
#     4   8  14  24  39  59  81 108 136 162 193 230
#     4  10  18  30  46  62  80 102 136 174 209 239
#     4   9  16  27  42  59  79 102 130 165 204 240
#     4   9  15  23  36  55  80 110 135 162 201 231
#
# _framework density 26.565235999999999
#
# number of rings (size 3 to 8) (size 9 to 14) (size 15 to 20)
#    0.000    3.000    1.000    2.700    0.000    0.800 
#    0.000    0.000    0.000    0.600    0.000   16.800 
#    0.000    9.600    0.000    0.000    4.800    0.000 
#
# Total GULP energy -223208.978388 kJ/mol
# GULP energy per Si atom -5580.224460 kJ/mol
# Density = 2.650477 g / cm^3
# Si number density = 26.565236 Si / 1000 Ang^3
#
#
#
# Elastic Constant Matrix: (Units=GPa)
#
#
# Indices 1 2 3 4 5 6 
#
# 1 370.5372 63.4225 11.2277 0.0000 0.0000 0.0000
# 2 63.4225 65.2988 12.1512 0.0000 0.0000 0.0000
# 3 11.2277 12.1512 77.3318 0.0000 0.0000 0.0000
# 4 0.0000 0.0000 0.0000 -15.7419 0.0000 0.0000
# 5 0.0000 0.0000 0.0000 0.0000 33.3979 0.0000
# 6 0.0000 0.0000 0.0000 0.0000 0.0000 74.3422
#
#
#
# Elastic Compliance Matrix: (Units=1/GPa)
#
#
# Indices 1 2 3 4 5 6 
#
# 1 0.003237 -0.003149 0.000025 0.000000 0.000000 0.000000
# 2 -0.003149 0.018838 -0.002503 0.000000 0.000000 0.000000
# 3 0.000025 -0.002503 0.013321 0.000000 0.000000 0.000000
# 4 0.000000 0.000000 0.000000 -0.063525 0.000000 0.000000
# 5 0.000000 0.000000 0.000000 0.000000 0.029942 0.000000
# 6 0.000000 0.000000 0.000000 0.000000 0.000000 0.013451
#
#
# Mechanical properties :
#
#
# Convention : Reuss Voigt Hill
#
# Bulk Modulus (GPa) = 41.42055 76.30784 58.86419
# Shear Modulus (GPa) = 144.65240 46.82407 95.73823
#
# Velocity S-wave (km/s) = 7.38715 4.20290 6.00975
# Velocity P-wave (km/s) = 9.40137 7.23460 8.38825
#
# Compressibility (1/GPa) = 0.02414261
#
# Stress axis : x y z
#
# Youngs Moduli (GPa) = 308.93261 53.08401 75.06951
#
# Poissons Ratio (x) = 0.16714 -0.00186
# Poissons Ratio (y) = 0.97269 0.18789
# Poissons Ratio (z) = -0.00765 0.13286
#
# Static dielectric constant tensor:
#      x y z
#    x 2.235310 0.000000 0.000000 
#    y 0.000000 2.196790 0.000000 
#    z 0.000000 0.000000 1.958980 
# 
# From -- ./inp_files/44037.got.cif
#   From: 2010.05.17/outbox.cif.g08.bks.cpg/sg63_23_cif.got.tgz:44037.got - 2010.06.03 15:47:04.
