data_PCOD9468708
_publ_section_title
;
Structure prediction by ZEFSAII (Michael W. Deem and Ramdas Pophale) SiO2 
 PCOD9468708
Probable space group: C M C M
;
_chemical_formula_sum "Si O2"
_cell_formula_units_Z 96
_cell_length_a 27.017937
_cell_length_b 29.521295
_cell_length_c 8.735638
_cell_angle_alpha 90.000000
_cell_angle_beta 90.000000
_cell_angle_gamma 90.000000
_cell_volume 6967.584078
_symmetry_space_group_name_H-M "C M C M"
_symmetry_group_IT_number 63
_symmetry_cell_setting 'orthorhombic'
loop_
_space_group_symop_operation_xyz
x,y,z
-x,-y,1/2+z
x,-y,-z
-x,y,1/2-z
-x,-y,-z
x,y,1/2-z
-x,y,z
x,-y,1/2+z
1/2+x,1/2+y,z
1/2-x,1/2-y,1/2+z
1/2+x,1/2-y,-z
1/2-x,1/2+y,1/2-z
1/2-x,1/2-y,-z
1/2+x,1/2+y,1/2-z
1/2-x,1/2+y,z
1/2+x,1/2-y,1/2+z
loop_
_atom_site_type_symbol
_atom_site_label
_atom_site_fract_x
_atom_site_fract_y
_atom_site_fract_z
Si Si1 0.056322 0.862489 0.931566
Si Si2 0.100370 0.047589 0.567328
Si Si3 0.788735 0.047876 0.432976
Si Si4 0.356287 0.694855 0.933268
Si Si5 0.295910 0.221292 0.066300
Si Si6 0.255132 0.639506 0.933139
O O1 0.061190 0.869973 0.750000
O O2 0.000000 0.848636 0.965012
O O3 0.068664 0.909513 0.016000
O O4 0.096484 0.825858 0.984610
O O5 0.103582 0.044934 0.750000
O O6 0.155647 0.053968 0.499424
O O7 0.081346 0.000000 0.500000
O O8 0.791065 0.046110 0.250000
O O9 0.757329 0.090544 0.490030
O O10 0.770646 0.000000 0.500000
O O11 0.362931 0.691506 0.750000
O O12 0.342856 0.746962 0.971319
O O13 0.307554 0.664584 0.970727
O O14 0.291966 0.218967 0.250000
O O15 0.250000 0.250000 0.000000
O O16 0.288374 0.171916 0.994954
O O17 0.252484 0.635915 0.750000
#
# Coordination Sequence:
#
# PCOD9468708 Si02
#       6
#    16  16  16  16  16  16
#     4  11  23  35  47  63  81 105 139 176 218 263
#     4  11  21  34  49  62  78 102 135 175 220 263
#     4  11  20  30  45  63  85 112 140 173 211 251
#     4   9  18  31  46  62  83 107 135 170 209 254
#     4   9  17  28  43  64  86 107 133 165 205 251
#     4  10  18  29  45  66  87 108 137 169 205 251
#
# _framework density 13.778090000000001
#
# number of rings (size 3 to 8) (size 9 to 14) (size 15 to 20)
#    0.000    1.833    1.667    6.500    0.000    5.000 
#    0.000    0.000    0.000    0.000    0.000    0.000 
#    0.000    0.000    0.000    0.000    0.000    0.833 
#
# Total GULP energy -267760.285721 kJ/mol
# GULP energy per Si atom -5578.339286 kJ/mol
# Density = 1.374673 g / cm^3
# Si number density = 13.778090 Si / 1000 Ang^3
#
#
#
# Elastic Constant Matrix: (Units=GPa)
#
#
# Indices 1 2 3 4 5 6 
#
# 1 47.2571 48.3957 37.0977 0.0000 0.0000 0.0000
# 2 48.3957 104.3433 56.7274 0.0000 0.0000 0.0000
# 3 37.0977 56.7274 91.2622 0.0000 0.0000 0.0000
# 4 0.0000 0.0000 0.0000 25.9647 0.0000 0.0000
# 5 0.0000 0.0000 0.0000 0.0000 16.3439 0.0000
# 6 0.0000 0.0000 0.0000 0.0000 0.0000 16.7276
#
#
#
# Elastic Compliance Matrix: (Units=1/GPa)
#
#
# Indices 1 2 3 4 5 6 
#
# 1 0.043697 -0.016026 -0.007801 0.000000 0.000000 0.000000
# 2 -0.016026 0.020353 -0.006137 0.000000 0.000000 0.000000
# 3 -0.007801 -0.006137 0.017943 0.000000 0.000000 0.000000
# 4 0.000000 0.000000 0.000000 0.038514 0.000000 0.000000
# 5 0.000000 0.000000 0.000000 0.000000 0.061185 0.000000
# 6 0.000000 0.000000 0.000000 0.000000 0.000000 0.059781
#
#
# Mechanical properties :
#
#
# Convention : Reuss Voigt Hill
#
# Bulk Modulus (GPa) = 45.31964 58.58937 51.95450
# Shear Modulus (GPa) = 16.19400 18.51668 17.35534
#
# Velocity S-wave (km/s) = 3.43205 3.66993 3.55298
# Velocity P-wave (km/s) = 6.97633 7.78291 7.39064
#
# Compressibility (1/GPa) = 0.02206549
#
# Stress axis : x y z
#
# Youngs Moduli (GPa) = 22.88485 49.13242 55.73193
#
# Poissons Ratio (x) = 0.78740 0.43477
# Poissons Ratio (y) = 0.36676 0.34201
# Poissons Ratio (z) = 0.17853 0.30151
#
# Static dielectric constant tensor:
#      x y z
#    x 1.430250 0.000000 0.000000 
#    y 0.000000 1.449430 0.000000 
#    z 0.000000 0.000000 1.458080 
# 
# From -- ./inp_files/13007.got.cif
#   From: 2010.05.17/outbox.cif.g08.bks.cpg/sg63_7_cif.got.tgz:13007.got - 2010.06.03 15:47:04.
