data_PCOD9468106
_publ_section_title
;
Structure prediction by ZEFSAII (Michael W. Deem and Ramdas Pophale) SiO2 
 PCOD9468106
Probable space group: C M C M
;
_chemical_formula_sum "Si O2"
_cell_formula_units_Z 80
_cell_length_a 9.389491
_cell_length_b 14.315738
_cell_length_c 26.870272
_cell_angle_alpha 90.000000
_cell_angle_beta 90.000000
_cell_angle_gamma 90.000000
_cell_volume 3611.834601
_symmetry_space_group_name_H-M "C M C M"
_symmetry_group_IT_number 63
_symmetry_cell_setting 'orthorhombic'
loop_
_space_group_symop_operation_xyz
x,y,z
-x,-y,1/2+z
x,-y,-z
-x,y,1/2-z
-x,-y,-z
x,y,1/2-z
-x,y,z
x,-y,1/2+z
1/2+x,1/2+y,z
1/2-x,1/2-y,1/2+z
1/2+x,1/2-y,-z
1/2-x,1/2+y,1/2-z
1/2-x,1/2-y,-z
1/2+x,1/2+y,1/2-z
1/2-x,1/2+y,z
1/2+x,1/2-y,1/2+z
loop_
_atom_site_type_symbol
_atom_site_label
_atom_site_fract_x
_atom_site_fract_y
_atom_site_fract_z
Si Si1 0.836088 0.473445 0.651097
Si Si2 0.842300 0.758860 0.950543
Si Si3 0.329513 0.237153 0.250000
Si Si4 0.170720 0.041371 0.250000
Si Si5 0.339800 0.745256 0.858140
Si Si6 0.661090 0.481173 0.555445
O O1 0.742881 0.496222 0.699622
O O2 0.838822 0.359183 0.646905
O O3 0.760496 0.509020 0.601072
O O4 0.000000 0.503724 0.655869
O O5 0.766370 0.719038 0.901788
O O6 0.852701 0.869547 0.940996
O O7 0.000000 0.719889 0.958030
O O8 0.750000 0.750000 0.000000
O O9 0.500000 0.207769 0.250000
O O10 0.221623 0.150100 0.250000
O O11 0.307799 0.288678 0.197736
O O12 0.000000 0.031812 0.250000
O O13 0.500000 0.717618 0.871740
O O14 0.718332 0.500000 0.500000
O O15 0.500000 0.521242 0.558355
#
# Coordination Sequence:
#
# PCOD9468106 Si02
#       6
#    16  16   8   8  16  16
#     4   9  16  26  40  60  87 116 146 181 223 268
#     4  10  19  30  45  65  90 120 151 184 221 262
#     4   8  14  24  38  58  85 114 141 176 223 269
#     4  10  16  22  36  58  85 116 147 180 221 265
#     4   8  14  25  40  59  85 114 143 177 218 264
#     4   9  18  32  48  67  91 118 150 187 226 267
#
# _framework density 22.149408999999999
#
# number of rings (size 3 to 8) (size 9 to 14) (size 15 to 20)
#    0.000    3.000    0.000    3.300    0.000    6.000 
#    0.000    0.000    0.000    0.000    0.000    1.400 
#    0.000    4.800    0.000    0.000    0.000    0.000 
#
# Total GULP energy -223277.661046 kJ/mol
# GULP energy per Si atom -5581.941526 kJ/mol
# Density = 2.209900 g / cm^3
# Si number density = 22.149409 Si / 1000 Ang^3
#
#
#
# Elastic Constant Matrix: (Units=GPa)
#
#
# Indices 1 2 3 4 5 6 
#
# 1 196.5823 8.0271 154.3634 0.0000 0.0000 0.0000
# 2 8.0271 63.3616 5.1454 0.0000 0.0000 0.0000
# 3 154.3634 5.1454 244.5384 0.0000 0.0000 0.0000
# 4 0.0000 0.0000 0.0000 13.2266 0.0000 0.0000
# 5 0.0000 0.0000 0.0000 0.0000 34.5972 0.0000
# 6 0.0000 0.0000 0.0000 0.0000 0.0000 -0.6021
#
#
#
# Elastic Compliance Matrix: (Units=1/GPa)
#
#
# Indices 1 2 3 4 5 6 
#
# 1 0.010123 -0.000765 -0.006374 0.000000 0.000000 0.000000
# 2 -0.000765 0.015867 0.000149 0.000000 0.000000 0.000000
# 3 -0.006374 0.000149 0.008110 0.000000 0.000000 0.000000
# 4 0.000000 0.000000 0.000000 0.075605 0.000000 0.000000
# 5 0.000000 0.000000 0.000000 0.000000 0.028904 0.000000
# 6 0.000000 0.000000 0.000000 0.000000 0.000000 -1.660814
#
#
# Mechanical properties :
#
#
# Convention : Reuss Voigt Hill
#
# Bulk Modulus (GPa) = 49.70124 93.28379 71.49252
# Shear Modulus (GPa) = -3.32997 31.90742 14.28873
#
# Velocity S-wave (km/s) = -1.22747 3.79958 2.54265
# Velocity P-wave (km/s) = 4.52536 7.83940 6.40059
#
# Compressibility (1/GPa) = 0.02012022
#
# Stress axis : x y z
#
# Youngs Moduli (GPa) = 98.78020 63.02298 123.30548
#
# Poissons Ratio (x) = 0.04821 0.78599
# Poissons Ratio (y) = 0.07556 -0.01837
# Poissons Ratio (z) = 0.62965 -0.00939
#
# Static dielectric constant tensor:
#      x y z
#    x 1.788100 0.000000 0.000000 
#    y 0.000000 1.930630 0.000000 
#    z 0.000000 0.000000 1.802530 
# 
# From -- ./inp_files/59782.got.cif
#   From: 2010.05.17/outbox.cif.g08.bks.cpg/sg63_30_cif.got.tgz:59782.got - 2010.06.03 15:47:04.
