data_PCOD9468235
_publ_section_title
;
Structure prediction by ZEFSAII (Michael W. Deem and Ramdas Pophale) SiO2 
 PCOD9468235
Probable space group: C M C M
;
_chemical_formula_sum "Si O2"
_cell_formula_units_Z 80
_cell_length_a 7.368251
_cell_length_b 20.013574
_cell_length_c 26.764967
_cell_angle_alpha 90.000000
_cell_angle_beta 90.000000
_cell_angle_gamma 90.000000
_cell_volume 3946.896839
_symmetry_space_group_name_H-M "C M C M"
_symmetry_group_IT_number 63
_symmetry_cell_setting 'orthorhombic'
loop_
_space_group_symop_operation_xyz
x,y,z
-x,-y,1/2+z
x,-y,-z
-x,y,1/2-z
-x,-y,-z
x,y,1/2-z
-x,y,z
x,-y,1/2+z
1/2+x,1/2+y,z
1/2-x,1/2-y,1/2+z
1/2+x,1/2-y,-z
1/2-x,1/2+y,1/2-z
1/2-x,1/2-y,-z
1/2+x,1/2+y,1/2-z
1/2-x,1/2+y,z
1/2+x,1/2-y,1/2+z
loop_
_atom_site_type_symbol
_atom_site_label
_atom_site_fract_x
_atom_site_fract_y
_atom_site_fract_z
Si Si1 0.214057 0.617204 0.080325
Si Si2 0.217678 0.259472 0.114838
Si Si3 0.220857 0.640441 0.531217
Si Si4 0.278397 0.869804 0.192968
Si Si5 0.779207 0.527562 0.889936
O O1 0.234532 0.682080 0.114599
O O2 0.285971 0.547751 0.102196
O O3 0.000000 0.605940 0.073196
O O4 0.287658 0.635126 0.025272
O O5 0.282271 0.295956 0.063850
O O6 0.278910 0.304566 0.161383
O O7 0.000000 0.263581 0.114404
O O8 0.270102 0.574827 0.563277
O O9 0.000000 0.643235 0.530109
O O10 0.217214 0.870390 0.250000
O O11 0.500000 0.869629 0.193583
O O12 0.221548 0.933809 0.160120
O O13 0.000000 0.527016 0.888471
#
# Coordination Sequence:
#
# PCOD9468235 Si02
#       5
#    16  16  16  16  16
#     4  10  17  25  41  65  90 111 131 164 210 248
#     4   9  17  28  42  61  84 110 140 170 199 238
#     4   8  14  25  41  60  83 113 144 167 191 235
#     4   8  14  27  46  62  76 102 142 179 205 236
#     4   8  14  24  40  62  82 103 138 177 205 234
#
# _framework density 20.269088
#
# number of rings (size 3 to 8) (size 9 to 14) (size 15 to 20)
#    0.000    3.400    0.000    3.600    0.000    2.400 
#    0.000    1.000    0.000    9.000    0.000    0.000 
#    0.000    0.000    0.000    0.000    0.000    0.000 
#
# Total GULP energy -223131.300297 kJ/mol
# GULP energy per Si atom -5578.282507 kJ/mol
# Density = 2.022295 g / cm^3
# Si number density = 20.269088 Si / 1000 Ang^3
#
#
#
# Elastic Constant Matrix: (Units=GPa)
#
#
# Indices 1 2 3 4 5 6 
#
# 1 69.0236 -6.6017 0.8493 0.0000 0.0000 0.0000
# 2 -6.6017 159.7329 55.9215 0.0000 0.0000 0.0000
# 3 0.8493 55.9215 127.1261 0.0000 0.0000 0.0000
# 4 0.0000 0.0000 0.0000 6.2987 0.0000 0.0000
# 5 0.0000 0.0000 0.0000 0.0000 -10.3180 0.0000
# 6 0.0000 0.0000 0.0000 0.0000 0.0000 10.0525
#
#
#
# Elastic Compliance Matrix: (Units=1/GPa)
#
#
# Indices 1 2 3 4 5 6 
#
# 1 0.014565 0.000752 -0.000428 0.000000 0.000000 0.000000
# 2 0.000752 0.007439 -0.003277 0.000000 0.000000 0.000000
# 3 -0.000428 -0.003277 0.009311 0.000000 0.000000 0.000000
# 4 0.000000 0.000000 0.000000 0.158763 0.000000 0.000000
# 5 0.000000 0.000000 0.000000 0.000000 -0.096918 0.000000
# 6 0.000000 0.000000 0.000000 0.000000 0.000000 0.099478
#
#
# Mechanical properties :
#
#
# Convention : Reuss Voigt Hill
#
# Bulk Modulus (GPa) = 39.35840 50.69120 45.02480
# Shear Modulus (GPa) = 24.15308 21.58755 22.87031
#
# Velocity S-wave (km/s) = 3.45573 3.26705 3.36271
# Velocity P-wave (km/s) = 5.94835 6.26856 6.11055
#
# Compressibility (1/GPa) = 0.02540754
#
# Stress axis : x y z
#
# Youngs Moduli (GPa) = 68.65790 134.42856 107.40300
#
# Poissons Ratio (x) = -0.10107 0.04597
# Poissons Ratio (y) = -0.05162 0.35199
# Poissons Ratio (z) = 0.02939 0.44057
#
# Static dielectric constant tensor:
#      x y z
#    x 1.797280 0.000000 0.000000 
#    y 0.000000 1.710790 0.000000 
#    z 0.000000 0.000000 1.686180 
# 
# From -- ./inp_files/61081.got.cif
#   From: 2010.05.17/outbox.cif.g08.bks.cpg/sg63_31_cif.got.tgz:61081.got - 2010.06.03 15:47:04.
