data_PCOD9468394
_publ_section_title
;
Structure prediction by ZEFSAII (Michael W. Deem and Ramdas Pophale) SiO2 
 PCOD9468394
Probable space group: C M C M
;
_chemical_formula_sum "Si O2"
_cell_formula_units_Z 88
_cell_length_a 14.204816
_cell_length_b 22.843499
_cell_length_c 14.634483
_cell_angle_alpha 90.000000
_cell_angle_beta 90.000000
_cell_angle_gamma 90.000000
_cell_volume 4748.709731
_symmetry_space_group_name_H-M "C M C M"
_symmetry_group_IT_number 63
_symmetry_cell_setting 'orthorhombic'
loop_
_space_group_symop_operation_xyz
x,y,z
-x,-y,1/2+z
x,-y,-z
-x,y,1/2-z
-x,-y,-z
x,y,1/2-z
-x,y,z
x,-y,1/2+z
1/2+x,1/2+y,z
1/2-x,1/2-y,1/2+z
1/2+x,1/2-y,-z
1/2-x,1/2+y,1/2-z
1/2-x,1/2-y,-z
1/2+x,1/2+y,1/2-z
1/2-x,1/2+y,z
1/2+x,1/2-y,1/2+z
loop_
_atom_site_type_symbol
_atom_site_label
_atom_site_fract_x
_atom_site_fract_y
_atom_site_fract_z
Si Si1 0.893088 0.981768 0.138795
Si Si2 0.325755 0.610636 0.354329
Si Si3 0.207752 0.591304 0.859443
Si Si4 0.204034 0.686080 0.010044
Si Si5 0.500000 0.698457 0.347997
Si Si6 0.500000 0.914946 0.358890
Si Si7 0.000000 0.302030 0.012111
O O1 0.896557 0.979913 0.250000
O O2 0.866370 0.048320 0.113692
O O3 0.000000 0.966660 0.107196
O O4 0.803270 0.942348 0.111771
O O5 0.290124 0.602647 0.250000
O O6 0.252422 0.641126 0.420811
O O7 0.410919 0.656393 0.351122
O O8 0.212386 0.599044 0.750000
O O9 0.205920 0.652921 0.912426
O O10 0.105716 0.559784 0.879293
O O11 0.096759 0.694431 0.041336
O O12 0.250000 0.750000 0.000000
O O13 0.500000 0.730546 0.250000
O O14 0.500000 0.742898 0.430151
O O15 0.500000 0.905308 0.250000
O O16 0.500000 0.855311 0.416025
#
# Coordination Sequence:
#
# PCOD9468394 Si02
#       7
#    16  16  16  16   8   8   8
#     4   9  17  34  57  83 115 145 178 226 280 334
#     4  10  20  35  56  82 110 143 184 227 271 323
#     4   9  19  35  56  81 110 143 182 228 279 326
#     4  11  22  36  54  80 109 145 184 229 274 326
#     4  10  17  30  56  82 102 136 183 230 277 313
#     4   8  15  30  53  78 100 132 181 230 271 311
#     4  10  19  34  52  75 109 141 179 232 267 318
#
# _framework density 18.53135
#
# number of rings (size 3 to 8) (size 9 to 14) (size 15 to 20)
#    0.000    2.364    2.727    0.273    0.000    2.182 
#    3.273    2.273    0.000    5.455    0.000    0.000 
#    0.000    0.000    0.000    0.000    0.000    0.000 
#
# Total GULP energy -244958.971101 kJ/mol
# GULP energy per Si atom -5567.249343 kJ/mol
# Density = 1.848917 g / cm^3
# Si number density = 18.531350 Si / 1000 Ang^3
#
#
#
# Elastic Constant Matrix: (Units=GPa)
#
#
# Indices 1 2 3 4 5 6 
#
# 1 185.8818 48.9265 29.0991 0.0000 0.0000 0.0000
# 2 48.9265 40.0239 6.6879 0.0000 0.0000 0.0000
# 3 29.0991 6.6879 34.2955 0.0000 0.0000 0.0000
# 4 0.0000 0.0000 0.0000 21.3293 0.0000 0.0000
# 5 0.0000 0.0000 0.0000 0.0000 25.6904 0.0000
# 6 0.0000 0.0000 0.0000 0.0000 0.0000 26.4152
#
#
#
# Elastic Compliance Matrix: (Units=1/GPa)
#
#
# Indices 1 2 3 4 5 6 
#
# 1 0.008859 -0.009896 -0.005587 0.000000 0.000000 0.000000
# 2 -0.009896 0.036881 0.001205 0.000000 0.000000 0.000000
# 3 -0.005587 0.001205 0.033664 0.000000 0.000000 0.000000
# 4 0.000000 0.000000 0.000000 0.046884 0.000000 0.000000
# 5 0.000000 0.000000 0.000000 0.000000 0.038925 0.000000
# 6 0.000000 0.000000 0.000000 0.000000 0.000000 0.037857
#
#
# Mechanical properties :
#
#
# Convention : Reuss Voigt Hill
#
# Bulk Modulus (GPa) = 19.66682 47.73645 33.70164
# Shear Modulus (GPa) = 20.11454 26.38616 23.25035
#
# Velocity S-wave (km/s) = 3.29817 3.77751 3.54595
# Velocity P-wave (km/s) = 5.01394 6.69641 5.91530
#
# Compressibility (1/GPa) = 0.05084705
#
# Stress axis : x y z
#
# Youngs Moduli (GPa) = 112.87713 27.11408 29.70544
#
# Poissons Ratio (x) = 0.26833 0.16596
# Poissons Ratio (y) = 1.11705 -0.03578
# Poissons Ratio (z) = 0.63065 -0.03266
#
# Static dielectric constant tensor:
#      x y z
#    x 1.515580 0.000000 0.000000 
#    y 0.000000 1.600600 0.000000 
#    z 0.000000 0.000000 1.672540 
# 
# From -- ./inp_files/32149.got.cif
#   From: 2010.05.17/outbox.cif.g08.bks.cpg/sg63_17_cif.got.tgz:32149.got - 2010.06.03 15:47:04.
