data_PCOD9468463
_publ_section_title
;
Structure prediction by ZEFSAII (Michael W. Deem and Ramdas Pophale) SiO2 
 PCOD9468463
Probable space group: C M C M
;
_chemical_formula_sum "Si O2"
_cell_formula_units_Z 80
_cell_length_a 24.685219
_cell_length_b 27.481599
_cell_length_c 7.495827
_cell_angle_alpha 90.000000
_cell_angle_beta 90.000000
_cell_angle_gamma 90.000000
_cell_volume 5085.088755
_symmetry_space_group_name_H-M "C M C M"
_symmetry_group_IT_number 63
_symmetry_cell_setting 'orthorhombic'
loop_
_space_group_symop_operation_xyz
x,y,z
-x,-y,1/2+z
x,-y,-z
-x,y,1/2-z
-x,-y,-z
x,y,1/2-z
-x,y,z
x,-y,1/2+z
1/2+x,1/2+y,z
1/2-x,1/2-y,1/2+z
1/2+x,1/2-y,-z
1/2-x,1/2+y,1/2-z
1/2-x,1/2-y,-z
1/2+x,1/2+y,1/2-z
1/2-x,1/2+y,z
1/2+x,1/2-y,1/2+z
loop_
_atom_site_type_symbol
_atom_site_label
_atom_site_fract_x
_atom_site_fract_y
_atom_site_fract_z
Si Si1 0.884776 0.556122 0.464011
Si Si2 0.000000 0.405596 0.962870
Si Si3 0.500000 0.209614 0.535230
Si Si4 0.213828 0.797883 0.536435
Si Si5 0.689631 0.141842 0.462790
Si Si6 0.382718 0.762711 0.034630
O O1 0.873321 0.500000 0.500000
O O2 0.886451 0.562644 0.250000
O O3 0.839541 0.593645 0.533355
O O4 0.944438 0.571010 0.533366
O O5 0.000000 0.413459 0.750000
O O6 0.000000 0.347843 0.994309
O O7 0.500000 0.213983 0.750000
O O8 0.555922 0.233050 0.468618
O O9 0.209443 0.803924 0.750000
O O10 0.250000 0.750000 0.500000
O O11 0.251351 0.841717 0.466386
O O12 0.154542 0.782145 0.469300
O O13 0.695921 0.136100 0.250000
O O14 0.648654 0.187122 0.490951
O O15 0.384277 0.759778 0.250000
#
# Coordination Sequence:
#
# PCOD9468463 Si02
#       6
#    16   8   8  16  16  16
#     4  10  20  30  40  53  69  92 124 158 191 220
#     4  10  19  31  41  50  68  96 128 159 187 213
#     4  10  18  25  37  56  77 100 123 149 179 211
#     4   8  14  24  38  54  71  90 114 144 177 214
#     4   9  16  27  41  54  69  91 119 151 184 217
#     4   9  16  25  37  55  75  95 119 145 176 213
#
# _framework density 15.732272999999999
#
# number of rings (size 3 to 8) (size 9 to 14) (size 15 to 20)
#    0.000    2.800    2.000    0.300    0.000    1.600 
#    0.000    0.000    0.000    0.000    0.000    0.000 
#    0.000    0.000    0.000    0.900    0.000    4.400 
#
# Total GULP energy -222769.051289 kJ/mol
# GULP energy per Si atom -5569.226282 kJ/mol
# Density = 1.569647 g / cm^3
# Si number density = 15.732273 Si / 1000 Ang^3
#
#
#
# Elastic Constant Matrix: (Units=GPa)
#
#
# Indices 1 2 3 4 5 6 
#
# 1 127.4046 88.5570 -4.7801 0.0000 0.0000 0.0000
# 2 88.5570 96.3465 3.8454 0.0000 0.0000 0.0000
# 3 -4.7801 3.8454 41.1915 0.0000 0.0000 0.0000
# 4 0.0000 0.0000 0.0000 6.5651 0.0000 0.0000
# 5 0.0000 0.0000 0.0000 0.0000 -1.7150 0.0000
# 6 0.0000 0.0000 0.0000 0.0000 0.0000 10.6849
#
#
#
# Elastic Compliance Matrix: (Units=1/GPa)
#
#
# Indices 1 2 3 4 5 6 
#
# 1 0.022562 -0.020920 0.004571 0.000000 0.000000 0.000000
# 2 -0.020920 0.029816 -0.005211 0.000000 0.000000 0.000000
# 3 0.004571 -0.005211 0.025294 0.000000 0.000000 0.000000
# 4 0.000000 0.000000 0.000000 0.152321 0.000000 0.000000
# 5 0.000000 0.000000 0.000000 0.000000 -0.583099 0.000000
# 6 0.000000 0.000000 0.000000 0.000000 0.000000 0.093590
#
#
# Mechanical properties :
#
#
# Convention : Reuss Voigt Hill
#
# Bulk Modulus (GPa) = 28.94242 48.90969 38.92606
# Shear Modulus (GPa) = -24.40467 14.92835 -4.73816
#
# Velocity S-wave (km/s) = -3.94286 3.08376 -1.73732
# Velocity P-wave (km/s) = 1.51375 6.62085 4.55765
#
# Compressibility (1/GPa) = 0.03455136
#
# Stress axis : x y z
#
# Youngs Moduli (GPa) = 44.32276 33.53908 39.53539
#
# Poissons Ratio (x) = 0.70164 -0.18072
# Poissons Ratio (y) = 0.92724 0.20602
# Poissons Ratio (z) = -0.20261 0.17478
#
# Static dielectric constant tensor:
#      x y z
#    x 1.576860 0.000000 0.000000 
#    y 0.000000 1.504260 0.000000 
#    z 0.000000 0.000000 1.569560 
# 
# From -- ./inp_files/8937.got.cif
#   From: 2010.05.17/outbox.cif.g08.bks.cpg/sg63_5_cif.got.tgz:8937.got - 2010.06.03 15:47:04.
