data_PCOD9468668
_publ_section_title
;
Structure prediction by ZEFSAII (Michael W. Deem and Ramdas Pophale) SiO2 
 PCOD9468668
Probable space group: C M C M
;
_chemical_formula_sum "Si O2"
_cell_formula_units_Z 80
_cell_length_a 8.913414
_cell_length_b 20.671520
_cell_length_c 25.109205
_cell_angle_alpha 90.000000
_cell_angle_beta 90.000000
_cell_angle_gamma 90.000000
_cell_volume 4626.466832
_symmetry_space_group_name_H-M "C M C M"
_symmetry_group_IT_number 63
_symmetry_cell_setting 'orthorhombic'
loop_
_space_group_symop_operation_xyz
x,y,z
-x,-y,1/2+z
x,-y,-z
-x,y,1/2-z
-x,-y,-z
x,y,1/2-z
-x,y,z
x,-y,1/2+z
1/2+x,1/2+y,z
1/2-x,1/2-y,1/2+z
1/2+x,1/2-y,-z
1/2-x,1/2+y,1/2-z
1/2-x,1/2-y,-z
1/2+x,1/2+y,1/2-z
1/2-x,1/2+y,z
1/2+x,1/2-y,1/2+z
loop_
_atom_site_type_symbol
_atom_site_label
_atom_site_fract_x
_atom_site_fract_y
_atom_site_fract_z
Si Si1 0.675566 0.252183 0.750000
Si Si2 0.178747 0.892421 0.638318
Si Si3 0.322371 0.689104 0.530209
Si Si4 0.677070 0.109782 0.250000
Si Si5 0.824721 0.737031 0.867352
Si Si6 0.178763 0.432106 0.970946
O O1 0.500000 0.276254 0.750000
O O2 0.784390 0.313567 0.750000
O O3 0.695597 0.216550 0.694144
O O4 0.248864 0.913530 0.694790
O O5 0.205380 0.814636 0.631014
O O6 0.251528 0.927723 0.588000
O O7 0.000000 0.901239 0.639279
O O8 0.500000 0.689037 0.522442
O O9 0.250000 0.750000 0.500000
O O10 0.278295 0.699515 0.591589
O O11 0.251879 0.624887 0.505503
O O12 0.500000 0.098712 0.250000
O O13 0.000000 0.728085 0.881886
O O14 0.000000 0.422115 0.967410
O O15 0.207271 0.500000 0.000000
#
# Coordination Sequence:
#
# PCOD9468668 Si02
#       6
#     8  16  16   8  16  16
#     4   8  16  30  48  73 108 143 178 221 277 329
#     4  10  19  33  54  79 110 145 182 226 275 330
#     4  12  23  35  55  81 111 147 184 227 273 327
#     4  10  18  28  48  77 110 143 180 227 273 321
#     4   9  17  31  52  79 109 142 180 227 276 326
#     4  11  24  40  58  81 111 146 186 233 284 339
#
# _framework density 17.291813000000001
#
# number of rings (size 3 to 8) (size 9 to 14) (size 15 to 20)
#    0.000    1.800    2.000    5.100    0.000    4.800 
#    0.000    0.000    0.000    1.200    0.000    2.800 
#    0.000    0.000    0.000    0.000    0.000    0.000 
#
# Total GULP energy -223243.211220 kJ/mol
# GULP energy per Si atom -5581.080280 kJ/mol
# Density = 1.725246 g / cm^3
# Si number density = 17.291813 Si / 1000 Ang^3
#
#
#
# Elastic Constant Matrix: (Units=GPa)
#
#
# Indices 1 2 3 4 5 6 
#
# 1 123.4471 66.3004 92.7357 0.0000 0.0000 0.0000
# 2 66.3004 68.3002 58.3504 0.0000 0.0000 0.0000
# 3 92.7357 58.3504 171.7579 0.0000 0.0000 0.0000
# 4 0.0000 0.0000 0.0000 15.6587 0.0000 0.0000
# 5 0.0000 0.0000 0.0000 0.0000 35.4881 0.0000
# 6 0.0000 0.0000 0.0000 0.0000 0.0000 20.2174
#
#
#
# Elastic Compliance Matrix: (Units=1/GPa)
#
#
# Indices 1 2 3 4 5 6 
#
# 1 0.020661 -0.014830 -0.006117 0.000000 0.000000 0.000000
# 2 -0.014830 0.031273 -0.002617 0.000000 0.000000 0.000000
# 3 -0.006117 -0.002617 0.010014 0.000000 0.000000 0.000000
# 4 0.000000 0.000000 0.000000 0.063862 0.000000 0.000000
# 5 0.000000 0.000000 0.000000 0.000000 0.028178 0.000000
# 6 0.000000 0.000000 0.000000 0.000000 0.000000 0.049462
#
#
# Mechanical properties :
#
#
# Convention : Reuss Voigt Hill
#
# Bulk Modulus (GPa) = 67.47958 88.69757 78.08858
# Shear Modulus (GPa) = 19.56809 24.01409 21.79109
#
# Velocity S-wave (km/s) = 3.36763 3.73064 3.55378
# Velocity P-wave (km/s) = 7.36410 8.36438 7.88013
#
# Compressibility (1/GPa) = 0.01481930
#
# Stress axis : x y z
#
# Youngs Moduli (GPa) = 48.40151 31.97677 99.86004
#
# Poissons Ratio (x) = 0.47420 0.61085
# Poissons Ratio (y) = 0.71778 0.26136
# Poissons Ratio (z) = 0.29607 0.08369
#
# Static dielectric constant tensor:
#      x y z
#    x 1.578630 0.000000 0.000000 
#    y 0.000000 1.552990 0.000000 
#    z 0.000000 0.000000 1.631990 
# 
# From -- ./inp_files/66817.got.cif
#   From: 2010.05.17/outbox.cif.g08.bks.cpg/sg63_34_cif.got.tgz:66817.got - 2010.06.03 15:47:04.
