data_PCOD9468871
_publ_section_title
;
Structure prediction by ZEFSAII (Michael W. Deem and Ramdas Pophale) SiO2 
 PCOD9468871
Probable space group: C M C M
;
_chemical_formula_sum "Si O2"
_cell_formula_units_Z 64
_cell_length_a 7.287038
_cell_length_b 39.388369
_cell_length_c 10.711068
_cell_angle_alpha 90.000000
_cell_angle_beta 90.000000
_cell_angle_gamma 90.000000
_cell_volume 3074.339383
_symmetry_space_group_name_H-M "C M C M"
_symmetry_group_IT_number 63
_symmetry_cell_setting 'orthorhombic'
loop_
_space_group_symop_operation_xyz
x,y,z
-x,-y,1/2+z
x,-y,-z
-x,y,1/2-z
-x,-y,-z
x,y,1/2-z
-x,y,z
x,-y,1/2+z
1/2+x,1/2+y,z
1/2-x,1/2-y,1/2+z
1/2+x,1/2-y,-z
1/2-x,1/2+y,1/2-z
1/2-x,1/2-y,-z
1/2+x,1/2+y,1/2-z
1/2-x,1/2+y,z
1/2+x,1/2-y,1/2+z
loop_
_atom_site_type_symbol
_atom_site_label
_atom_site_fract_x
_atom_site_fract_y
_atom_site_fract_z
Si Si1 0.276420 0.473952 0.606654
Si Si2 0.220829 0.790209 0.250000
Si Si3 0.215097 0.210170 0.250000
Si Si4 0.277394 0.603134 0.393297
Si Si5 0.224396 0.172990 0.000706
O O1 0.215886 0.500000 0.500000
O O2 0.221220 0.481892 0.750000
O O3 0.500000 0.474380 0.606685
O O4 0.219176 0.435223 0.577589
O O5 0.266994 0.750550 0.250000
O O6 0.286071 0.808980 0.374635
O O7 0.000000 0.792124 0.250000
O O8 0.287023 0.193785 0.122564
O O9 0.000000 0.201524 0.250000
O O10 0.224110 0.610783 0.250000
O O11 0.500000 0.602808 0.394972
O O12 0.219054 0.633892 0.481202
O O13 0.000000 0.173491 0.998859
#
# Coordination Sequence:
#
# PCOD9468871 Si02
#       5
#    16   8   8  16  16
#     4   8  13  20  29  43  64  90 123 160 191 221
#     4  10  20  30  40  62  89 101 121 175 222 232
#     4  10  18  30  48  60  73 107 145 163 188 250
#     4   8  12  21  36  49  65  95 133 163 186 226
#     4   9  16  27  41  57  76 100 133 168 199 236
#
# _framework density 20.81748
#
# number of rings (size 3 to 8) (size 9 to 14) (size 15 to 20)
#    0.000    3.250    1.250    2.250    0.000    0.000 
#    2.250    0.000    0.000    0.000    0.000    0.000 
#    0.000    0.000    0.000    0.000    0.000    7.500 
#
# Total GULP energy -178583.635027 kJ/mol
# GULP energy per Si atom -5580.738595 kJ/mol
# Density = 2.077010 g / cm^3
# Si number density = 20.817480 Si / 1000 Ang^3
#
#
#
# Elastic Constant Matrix: (Units=GPa)
#
#
# Indices 1 2 3 4 5 6 
#
# 1 86.0645 -8.0754 5.0402 0.0000 0.0000 0.0000
# 2 -8.0754 171.4269 120.2737 0.0000 0.0000 0.0000
# 3 5.0402 120.2737 182.8242 0.0000 0.0000 0.0000
# 4 0.0000 0.0000 0.0000 37.6997 0.0000 0.0000
# 5 0.0000 0.0000 0.0000 0.0000 -18.4926 0.0000
# 6 0.0000 0.0000 0.0000 0.0000 0.0000 0.8398
#
#
#
# Elastic Compliance Matrix: (Units=1/GPa)
#
#
# Indices 1 2 3 4 5 6 
#
# 1 0.011832 0.001460 -0.001287 0.000000 0.000000 0.000000
# 2 0.001460 0.011014 -0.007286 0.000000 0.000000 0.000000
# 3 -0.001287 -0.007286 0.010298 0.000000 0.000000 0.000000
# 4 0.000000 0.000000 0.000000 0.026525 0.000000 0.000000
# 5 0.000000 0.000000 0.000000 0.000000 -0.054076 0.000000
# 6 0.000000 0.000000 0.000000 0.000000 0.000000 1.190702
#
#
# Mechanical properties :
#
#
# Convention : Reuss Voigt Hill
#
# Bulk Modulus (GPa) = 52.85754 74.97695 63.91724
# Shear Modulus (GPa) = 4.10905 25.54787 14.82846
#
# Velocity S-wave (km/s) = 1.40646 3.50699 2.67181
# Velocity P-wave (km/s) = 5.29939 7.24521 6.34731
#
# Compressibility (1/GPa) = 0.01891878
#
# Stress axis : x y z
#
# Youngs Moduli (GPa) = 84.51977 90.79294 97.10218
#
# Poissons Ratio (x) = -0.13257 0.12495
# Poissons Ratio (y) = -0.12341 0.70749
# Poissons Ratio (z) = 0.10876 0.66152
#
# Static dielectric constant tensor:
#      x y z
#    x 1.540040 0.000000 0.000000 
#    y 0.000000 1.712720 0.000000 
#    z 0.000000 0.000000 1.702470 
# 
# From -- ./inp_files/17537.got.cif
#   From: 2010.05.17/outbox.cif.g08.bks.cpg/sg63_9_cif.got.tgz:17537.got - 2010.06.03 15:47:04.
