data_PCOD9468426
_publ_section_title
;
Structure prediction by ZEFSAII (Michael W. Deem and Ramdas Pophale) SiO2 
 PCOD9468426
Probable space group: C M C M
;
_chemical_formula_sum "Si O2"
_cell_formula_units_Z 88
_cell_length_a 20.437242
_cell_length_b 9.120383
_cell_length_c 22.813769
_cell_angle_alpha 90.000000
_cell_angle_beta 90.000000
_cell_angle_gamma 90.000000
_cell_volume 4252.383298
_symmetry_space_group_name_H-M "C M C M"
_symmetry_group_IT_number 63
_symmetry_cell_setting 'orthorhombic'
loop_
_space_group_symop_operation_xyz
x,y,z
-x,-y,1/2+z
x,-y,-z
-x,y,1/2-z
-x,-y,-z
x,y,1/2-z
-x,y,z
x,-y,1/2+z
1/2+x,1/2+y,z
1/2-x,1/2-y,1/2+z
1/2+x,1/2-y,-z
1/2-x,1/2+y,1/2-z
1/2-x,1/2-y,-z
1/2+x,1/2+y,1/2-z
1/2-x,1/2+y,z
1/2+x,1/2-y,1/2+z
loop_
_atom_site_type_symbol
_atom_site_label
_atom_site_fract_x
_atom_site_fract_y
_atom_site_fract_z
Si Si1 0.922983 0.405866 0.623537
Si Si2 0.572883 0.444913 0.121186
Si Si3 0.602125 0.577371 0.750000
Si Si4 0.804766 0.458660 0.434820
Si Si5 0.280211 0.616398 0.250000
Si Si6 0.805518 0.854107 0.619421
Si Si7 0.624333 0.084494 0.250000
O O1 0.910427 0.229245 0.618370
O O2 0.878049 0.485655 0.576539
O O3 0.901525 0.470103 0.687287
O O4 0.000000 0.426946 0.616167
O O5 0.500000 0.467919 0.096228
O O6 0.571494 0.479713 0.190636
O O7 0.631506 0.549165 0.100788
O O8 0.678978 0.536131 0.750000
O O9 0.595761 0.750571 0.750000
O O10 0.783741 0.500000 0.500000
O O11 0.800503 0.288563 0.420135
O O12 0.757637 0.545064 0.390484
O O13 0.303388 0.688603 0.311300
O O14 0.202813 0.592325 0.250000
#
# Coordination Sequence:
#
# PCOD9468426 Si02
#       7
#    16  16   8  16   8  16   8
#     4  10  21  38  62  91 123 162 205 252 312 375
#     4   9  18  36  60  89 123 157 196 243 302 370
#     4   8  17  28  51  86 124 163 190 228 295 375
#     4  12  26  44  63  85 122 167 213 260 302 363
#     4  10  20  32  59  93 124 153 192 257 315 377
#     4  11  24  39  64  93 122 158 205 255 316 371
#     4  10  17  32  58  87 128 154 196 245 318 380
#
# _framework density 20.694277
#
# number of rings (size 3 to 8) (size 9 to 14) (size 15 to 20)
#    0.000    1.818    1.818    2.182    5.091    4.000 
#    0.000    0.000    0.000    4.909    0.000    0.000 
#    0.000    0.000    0.000    0.000    0.000    0.000 
#
# Total GULP energy -245523.963565 kJ/mol
# GULP energy per Si atom -5580.090081 kJ/mol
# Density = 2.064718 g / cm^3
# Si number density = 20.694277 Si / 1000 Ang^3
#
#
#
# Elastic Constant Matrix: (Units=GPa)
#
#
# Indices 1 2 3 4 5 6 
#
# 1 103.6642 28.6502 -11.7309 0.0000 0.0000 0.0000
# 2 28.6502 46.3377 -6.8556 0.0000 0.0000 0.0000
# 3 -11.7309 -6.8556 33.3205 0.0000 0.0000 0.0000
# 4 0.0000 0.0000 0.0000 21.2933 0.0000 0.0000
# 5 0.0000 0.0000 0.0000 0.0000 4.6446 0.0000
# 6 0.0000 0.0000 0.0000 0.0000 0.0000 56.1048
#
#
#
# Elastic Compliance Matrix: (Units=1/GPa)
#
#
# Indices 1 2 3 4 5 6 
#
# 1 0.011875 -0.006935 0.002754 0.000000 0.000000 0.000000
# 2 -0.006935 0.026308 0.002971 0.000000 0.000000 0.000000
# 3 0.002754 0.002971 0.031592 0.000000 0.000000 0.000000
# 4 0.000000 0.000000 0.000000 0.046963 0.000000 0.000000
# 5 0.000000 0.000000 0.000000 0.000000 0.215302 0.000000
# 6 0.000000 0.000000 0.000000 0.000000 0.000000 0.017824
#
#
# Mechanical properties :
#
#
# Convention : Reuss Voigt Hill
#
# Bulk Modulus (GPa) = 14.84642 22.60555 18.72598
# Shear Modulus (GPa) = 13.34275 27.95910 20.65093
#
# Velocity S-wave (km/s) = 2.54196 3.67966 3.16239
# Velocity P-wave (km/s) = 3.97557 5.38521 4.73316
#
# Compressibility (1/GPa) = 0.06735632
#
# Stress axis : x y z
#
# Youngs Moduli (GPa) = 84.21249 38.01138 31.65311
#
# Poissons Ratio (x) = 0.26359 -0.08717
# Poissons Ratio (y) = 0.58398 -0.09405
# Poissons Ratio (z) = -0.23191 -0.11295
#
# Static dielectric constant tensor:
#      x y z
#    x 1.760780 0.000000 0.000000 
#    y 0.000000 1.720610 0.000000 
#    z 0.000000 0.000000 1.808190 
# 
# From -- ./inp_files/57409.got.cif
#   From: 2010.05.17/outbox.cif.g08.bks.cpg/sg63_29_cif.got.tgz:57409.got - 2010.06.03 15:47:04.
