data_PCOD9468652
_publ_section_title
;
Structure prediction by ZEFSAII (Michael W. Deem and Ramdas Pophale) SiO2 
 PCOD9468652
Probable space group: C M C M
;
_chemical_formula_sum "Si O2"
_cell_formula_units_Z 72
_cell_length_a 16.565742
_cell_length_b 28.958414
_cell_length_c 7.713287
_cell_angle_alpha 90.000000
_cell_angle_beta 90.000000
_cell_angle_gamma 90.000000
_cell_volume 3700.199644
_symmetry_space_group_name_H-M "C M C M"
_symmetry_group_IT_number 63
_symmetry_cell_setting 'orthorhombic'
loop_
_space_group_symop_operation_xyz
x,y,z
-x,-y,1/2+z
x,-y,-z
-x,y,1/2-z
-x,-y,-z
x,y,1/2-z
-x,y,z
x,-y,1/2+z
1/2+x,1/2+y,z
1/2-x,1/2-y,1/2+z
1/2+x,1/2-y,-z
1/2-x,1/2+y,1/2-z
1/2-x,1/2-y,-z
1/2+x,1/2+y,1/2-z
1/2-x,1/2+y,z
1/2+x,1/2-y,1/2+z
loop_
_atom_site_type_symbol
_atom_site_label
_atom_site_fract_x
_atom_site_fract_y
_atom_site_fract_z
Si Si1 0.500000 0.771713 0.052932
Si Si2 0.327253 0.780317 0.041259
Si Si3 0.000000 0.623679 0.450569
Si Si4 0.175615 0.945778 0.458969
Si Si5 0.674053 0.886203 0.459205
Si Si6 0.500000 0.445400 0.458194
O O1 0.500000 0.753795 0.250000
O O2 0.412859 0.760376 0.973048
O O3 0.500000 0.828049 0.055701
O O4 0.335144 0.782405 0.250000
O O5 0.317285 0.833110 0.979776
O O6 0.250000 0.750000 0.000000
O O7 0.083819 0.598327 0.490120
O O8 0.000000 0.636916 0.250000
O O9 0.174628 0.941625 0.250000
O O10 0.252422 0.917346 0.524418
O O11 0.087389 0.928502 0.523048
O O12 0.183336 0.000000 0.500000
O O13 0.677283 0.886117 0.250000
O O14 0.500000 0.500000 0.500000
O O15 0.500000 0.439755 0.250000
#
# Coordination Sequence:
#
# PCOD9468652 Si02
#       6
#     8  16   8  16  16   8
#     4   8  16  32  49  64  90 128 157 180 226 288
#     4   9  17  30  48  68  91 120 154 188 225 269
#     4  10  18  28  47  72  91 114 155 200 229 262
#     4   9  17  30  49  70  93 121 154 190 229 273
#     4   9  18  33  49  66  93 128 155 181 229 286
#     4   8  14  26  45  68  90 116 150 184 217 262
#
# _framework density 19.458410000000001
#
# number of rings (size 3 to 8) (size 9 to 14) (size 15 to 20)
#    0.000    3.111    0.000    2.333    0.000    4.444 
#    0.000    1.667    0.000    2.667    0.000    4.667 
#    0.000    0.000    0.000    0.000    0.000    0.000 
#
# Total GULP energy -200425.505728 kJ/mol
# GULP energy per Si atom -5567.375159 kJ/mol
# Density = 1.941412 g / cm^3
# Si number density = 19.458410 Si / 1000 Ang^3
#
#
#
# Elastic Constant Matrix: (Units=GPa)
#
#
# Indices 1 2 3 4 5 6 
#
# 1 265.4914 74.9457 6.8275 0.0000 0.0000 0.0000
# 2 74.9457 42.4977 1.9531 0.0000 0.0000 0.0000
# 3 6.8275 1.9531 40.7041 0.0000 0.0000 0.0000
# 4 0.0000 0.0000 0.0000 13.7807 0.0000 0.0000
# 5 0.0000 0.0000 0.0000 0.0000 17.9990 0.0000
# 6 0.0000 0.0000 0.0000 0.0000 0.0000 35.5351
#
#
#
# Elastic Compliance Matrix: (Units=1/GPa)
#
#
# Indices 1 2 3 4 5 6 
#
# 1 0.007516 -0.013227 -0.000626 0.000000 0.000000 0.000000
# 2 -0.013227 0.046858 -0.000030 0.000000 0.000000 0.000000
# 3 -0.000626 -0.000030 0.024674 0.000000 0.000000 0.000000
# 4 0.000000 0.000000 0.000000 0.072565 0.000000 0.000000
# 5 0.000000 0.000000 0.000000 0.000000 0.055559 0.000000
# 6 0.000000 0.000000 0.000000 0.000000 0.000000 0.028141
#
#
# Mechanical properties :
#
#
# Convention : Reuss Voigt Hill
#
# Bulk Modulus (GPa) = 19.49969 57.34952 38.42461
# Shear Modulus (GPa) = 17.84615 31.12744 24.48679
#
# Velocity S-wave (km/s) = 3.03172 4.00395 3.55127
# Velocity P-wave (km/s) = 4.72209 7.13529 6.05023
#
# Compressibility (1/GPa) = 0.05128287
#
# Stress axis : x y z
#
# Youngs Moduli (GPa) = 133.04131 21.34127 40.52851
#
# Poissons Ratio (x) = 0.28227 0.02538
# Poissons Ratio (y) = 1.75969 0.00121
# Poissons Ratio (z) = 0.08330 0.00064
#
# Static dielectric constant tensor:
#      x y z
#    x 1.761110 0.000000 0.000000 
#    y 0.000000 1.633480 0.000000 
#    z 0.000000 0.000000 1.725320 
# 
# From -- ./inp_files/4961.got.cif
#   From: 2010.05.17/outbox.cif.g08.bks.cpg/sg63_3_cif.got.tgz:4961.got - 2010.06.03 15:47:04.
