data_PCOD9468000
_publ_section_title
;
Structure prediction by ZEFSAII (Michael W. Deem and Ramdas Pophale) SiO2 
 PCOD9468000
Probable space group: P N M A
;
_chemical_formula_sum "Si O2"
_cell_formula_units_Z 40
_cell_length_a 12.000000
_cell_length_b 9.000000
_cell_length_c 18.000000
_cell_angle_alpha 90.000000
_cell_angle_beta 90.000000
_cell_angle_gamma 90.000000
_cell_volume 1944.000000
_symmetry_space_group_name_H-M "P N M A"
_symmetry_group_IT_number 62
_symmetry_cell_setting 'orthorhombic'
loop_
_space_group_symop_operation_xyz
x,y,z
1/2-x,-y,1/2+z
1/2+x,1/2-y,1/2-z
-x,1/2+y,-z
-x,-y,-z
1/2+x,y,1/2-z
1/2-x,1/2+y,1/2+z
x,1/2-y,z
loop_
_atom_site_type_symbol
_atom_site_label
_atom_site_fract_x
_atom_site_fract_y
_atom_site_fract_z
Si Si1 0.587306 0.578344 0.396737
Si Si2 0.868930 0.076320 0.159679
Si Si3 0.699905 0.085023 0.523995
Si Si4 0.680817 0.078547 0.807827
Si Si5 0.069344 0.917697 0.562642
O O1 0.573667 0.750000 0.419176
O O2 0.482032 0.516419 0.352860
O O3 0.607776 0.474375 0.467543
O O4 0.699496 0.572302 0.347873
O O5 0.891920 0.250000 0.158793
O O6 0.790899 0.028653 0.091354
O O7 0.816553 0.023795 0.236156
O O8 0.676460 0.250000 0.552899
O O9 0.809900 0.092618 0.475197
O O10 0.657156 0.250000 0.789079
O O11 0.587667 0.014427 0.863801
O O12 0.029393 0.750000 0.578440
O O13 0.000000 0.000000 0.500000
#
# Coordination Sequence:
#
# PCOD9468000 Si02
#       5
#     8   8   8   8   8
#     4  10  21  39  61  83 112 148 186 232 284 336
#     4  12  24  37  58  86 116 150 188 232 282 336
#     4  10  21  38  59  84 114 148 190 234 278 333
#     4  10  22  40  60  83 113 148 188 235 284 333
#     4  10  21  38  61  86 115 152 191 233 280 334
#
# _framework density 20.576132000000001
#
# number of rings (size 3 to 8) (size 9 to 14) (size 15 to 20)
#    0.000    1.600    0.000    4.800    0.000    6.400 
#    0.000    2.000    0.000    0.000    0.000    0.000 
#    0.000    0.000    0.000    0.000    0.000    0.000 
#
# Total GULP energy -223320.564852 kJ/mol
# GULP energy per Si atom -5583.014121 kJ/mol
# Density = 2.052930 g / cm^3
# Si number density = 20.576132 Si / 1000 Ang^3
#
#
#
# Elastic Constant Matrix: (Units=GPa)
#
#
# Indices 1 2 3 4 5 6 
#
# 1 11.7464 17.2842 -8.4780 0.0000 0.0000 0.0000
# 2 17.2842 106.1939 -4.7442 0.0000 0.0000 0.0000
# 3 -8.4780 -4.7442 48.8927 0.0000 0.0000 0.0000
# 4 0.0000 0.0000 0.0000 21.7664 0.0000 0.0000
# 5 0.0000 0.0000 0.0000 0.0000 17.0596 0.0000
# 6 0.0000 0.0000 0.0000 0.0000 0.0000 24.7638
#
#
#
# Elastic Compliance Matrix: (Units=1/GPa)
#
#
# Indices 1 2 3 4 5 6 
#
# 1 0.129644 -0.020184 0.020522 0.000000 0.000000 0.000000
# 2 -0.020184 0.012600 -0.002277 0.000000 0.000000 0.000000
# 3 0.020522 -0.002277 0.023790 0.000000 0.000000 0.000000
# 4 0.000000 0.000000 0.000000 0.045942 0.000000 0.000000
# 5 0.000000 0.000000 0.000000 0.000000 0.058618 0.000000
# 6 0.000000 0.000000 0.000000 0.000000 0.000000 0.040382
#
#
# Mechanical properties :
#
#
# Convention : Reuss Voigt Hill
#
# Bulk Modulus (GPa) = 6.16694 19.43965 12.80329
# Shear Modulus (GPa) = 13.55355 23.56937 18.56146
#
# Velocity S-wave (km/s) = 2.56930 3.38815 3.00673
# Velocity P-wave (km/s) = 3.43590 4.97738 4.27666
#
# Compressibility (1/GPa) = 0.16215508
#
# Stress axis : x y z
#
# Youngs Moduli (GPa) = 7.71345 79.36392 42.03363
#
# Poissons Ratio (x) = 1.60189 -0.86260
# Poissons Ratio (y) = 0.15569 0.09572
# Poissons Ratio (z) = -0.15829 0.18074
#
# Static dielectric constant tensor:
#      x y z
#    x 1.788560 0.000000 0.000000 
#    y 0.000000 1.697970 0.000000 
#    z 0.000000 0.000000 1.741780 
# 
# From -- ./inp_files/18645.got.cif
#   From: 2010.05.17/outbox.ucp.g08.bks.cvg/sg62_10_cif.got.tgz:18645.got - 2010.06.11 16:29:25.
