data_PCOD9468091
_publ_section_title
;
Structure prediction by ZEFSAII (Michael W. Deem and Ramdas Pophale) SiO2 
 PCOD9468091
Probable space group: C M C M
;
_chemical_formula_sum "Si O2"
_cell_formula_units_Z 88
_cell_length_a 11.671341
_cell_length_b 14.116923
_cell_length_c 25.520034
_cell_angle_alpha 90.000000
_cell_angle_beta 90.000000
_cell_angle_gamma 90.000000
_cell_volume 4204.768137
_symmetry_space_group_name_H-M "C M C M"
_symmetry_group_IT_number 63
_symmetry_cell_setting 'orthorhombic'
loop_
_space_group_symop_operation_xyz
x,y,z
-x,-y,1/2+z
x,-y,-z
-x,y,1/2-z
-x,-y,-z
x,y,1/2-z
-x,y,z
x,-y,1/2+z
1/2+x,1/2+y,z
1/2-x,1/2-y,1/2+z
1/2+x,1/2-y,-z
1/2-x,1/2+y,1/2-z
1/2-x,1/2-y,-z
1/2+x,1/2+y,1/2-z
1/2-x,1/2+y,z
1/2+x,1/2-y,1/2+z
loop_
_atom_site_type_symbol
_atom_site_label
_atom_site_fract_x
_atom_site_fract_y
_atom_site_fract_z
Si Si1 0.752636 0.614984 0.503452
Si Si2 0.000000 0.366928 0.163404
Si Si3 0.000000 0.627326 0.956492
Si Si4 0.743130 0.389064 0.888841
Si Si5 0.267930 0.772348 0.190560
Si Si6 0.500000 0.055388 0.109310
Si Si7 0.864425 0.098085 0.889166
O O1 0.755136 0.500000 0.500000
O O2 0.882334 0.648348 0.514195
O O3 0.706962 0.645971 0.446800
O O4 0.677669 0.637344 0.554445
O O5 0.000000 0.330549 0.102542
O O6 0.114668 0.331480 0.189799
O O7 0.000000 0.480213 0.156968
O O8 0.000000 0.485103 0.059065
O O9 0.706436 0.323211 0.841461
O O10 0.698463 0.496465 0.882387
O O11 0.881670 0.389773 0.889933
O O12 0.230461 0.755328 0.250000
O O13 0.177808 0.832097 0.156269
O O14 0.000000 0.085363 0.889108
#
# Coordination Sequence:
#
# PCOD9468091 Si02
#       7
#    16   8   8  16  16   8  16
#     4  10  17  35  65  97 133 162 204 256 323 382
#     4  10  19  46  71  91 121 163 220 266 317 372
#     4  10  14  34  70  98 121 166 201 262 322 384
#     4  11  24  40  68 101 130 167 214 262 320 382
#     4  12  27  47  65  91 127 169 220 273 316 368
#     4  10  17  41  70  95 126 164 213 262 314 386
#     4  11  24  45  64  94 134 175 207 254 326 390
#
# _framework density 20.928621
#
# number of rings (size 3 to 8) (size 9 to 14) (size 15 to 20)
#    0.545    0.727    7.273    1.091    2.545    5.091 
#    0.000    0.000    0.000    0.000    0.000    0.000 
#    0.000    0.000    0.000    0.000    0.000    0.000 
#
# Total GULP energy -245854.930844 kJ/mol
# GULP energy per Si atom -5587.612065 kJ/mol
# Density = 2.088099 g / cm^3
# Si number density = 20.928621 Si / 1000 Ang^3
#
#
#
# Elastic Constant Matrix: (Units=GPa)
#
#
# Indices 1 2 3 4 5 6 
#
# 1 85.2090 -0.1521 17.1189 0.0000 0.0000 0.0000
# 2 -0.1521 56.3682 49.7702 0.0000 0.0000 0.0000
# 3 17.1189 49.7702 171.5165 0.0000 0.0000 0.0000
# 4 0.0000 0.0000 0.0000 -5.6895 0.0000 0.0000
# 5 0.0000 0.0000 0.0000 0.0000 -53.1464 0.0000
# 6 0.0000 0.0000 0.0000 0.0000 0.0000 8.2285
#
#
#
# Elastic Compliance Matrix: (Units=1/GPa)
#
#
# Indices 1 2 3 4 5 6 
#
# 1 0.012066 0.001473 -0.001632 0.000000 0.000000 0.000000
# 2 0.001473 0.024031 -0.007120 0.000000 0.000000 0.000000
# 3 -0.001632 -0.007120 0.008059 0.000000 0.000000 0.000000
# 4 0.000000 0.000000 0.000000 -0.175762 0.000000 0.000000
# 5 0.000000 0.000000 0.000000 0.000000 -0.018816 0.000000
# 6 0.000000 0.000000 0.000000 0.000000 0.000000 0.121528
#
#
# Mechanical properties :
#
#
# Convention : Reuss Voigt Hill
#
# Bulk Modulus (GPa) = 33.78448 49.61863 41.70155
# Shear Modulus (GPa) = -1118.98952 6.30230 -556.34361
#
# Velocity S-wave (km/s) = -23.14801 1.73720 -16.32195
# Velocity P-wave (km/s) = 26.42466 5.27103 18.30954
#
# Compressibility (1/GPa) = 0.02959939
#
# Stress axis : x y z
#
# Youngs Moduli (GPa) = 82.87519 41.61214 124.07857
#
# Poissons Ratio (x) = -0.06131 0.20248
# Poissons Ratio (y) = -0.12211 0.88349
# Poissons Ratio (z) = 0.13524 0.29630
#
# Static dielectric constant tensor:
#      x y z
#    x 1.715600 0.000000 0.000000 
#    y 0.000000 1.788450 0.000000 
#    z 0.000000 0.000000 1.771770 
# 
# From -- ./inp_files/61295.got.cif
#   From: 2010.05.17/outbox.cif.g08.bks.cpg/sg63_31_cif.got.tgz:61295.got - 2010.06.03 15:47:04.
