data_PCOD9468345
_publ_section_title
;
Structure prediction by ZEFSAII (Michael W. Deem and Ramdas Pophale) SiO2 
 PCOD9468345
Probable space group: C M C M
;
_chemical_formula_sum "Si O2"
_cell_formula_units_Z 92
_cell_length_a 7.525035
_cell_length_b 27.909536
_cell_length_c 25.497122
_cell_angle_alpha 90.000000
_cell_angle_beta 90.000000
_cell_angle_gamma 90.000000
_cell_volume 5354.911560
_symmetry_space_group_name_H-M "C M C M"
_symmetry_group_IT_number 63
_symmetry_cell_setting 'orthorhombic'
loop_
_space_group_symop_operation_xyz
x,y,z
-x,-y,1/2+z
x,-y,-z
-x,y,1/2-z
-x,-y,-z
x,y,1/2-z
-x,y,z
x,-y,1/2+z
1/2+x,1/2+y,z
1/2-x,1/2-y,1/2+z
1/2+x,1/2-y,-z
1/2-x,1/2+y,1/2-z
1/2-x,1/2-y,-z
1/2+x,1/2+y,1/2-z
1/2-x,1/2+y,z
1/2+x,1/2-y,1/2+z
loop_
_atom_site_type_symbol
_atom_site_label
_atom_site_fract_x
_atom_site_fract_y
_atom_site_fract_z
Si Si1 0.296027 0.433441 0.750000
Si Si2 0.790749 0.222820 0.187436
Si Si3 0.000000 0.800823 0.187052
Si Si4 0.714071 0.379995 0.852414
Si Si5 0.500000 0.472596 0.250000
Si Si6 0.500000 0.592061 0.646052
Si Si7 0.784398 0.550640 0.568873
Si Si8 0.208785 0.557117 0.049116
O O1 0.500000 0.413864 0.750000
O O2 0.218376 0.412905 0.696080
O O3 0.331654 0.490395 0.750000
O O4 0.770168 0.213629 0.250000
O O5 0.671072 0.268286 0.173838
O O6 0.731267 0.174573 0.158043
O O7 0.000000 0.230994 0.177674
O O8 0.000000 0.807912 0.250000
O O9 0.000000 0.852186 0.160421
O O10 0.500000 0.380600 0.851428
O O11 0.763881 0.402427 0.907901
O O12 0.500000 0.440149 0.198565
O O13 0.673401 0.578528 0.612133
O O14 0.727877 0.494443 0.570308
O O15 0.729248 0.567029 0.510017
O O16 0.000000 0.554778 0.575568
O O17 0.000000 0.549581 0.042251
#
# Coordination Sequence:
#
# PCOD9468345 Si02
#       8
#     8  16   8  16   4   8  16  16
#     4   8  16  28  44  75 121 141 160 213 267 325
#     4   9  18  34  54  77 109 138 175 226 278 325
#     4  10  22  38  55  81 106 137 194 238 264 318
#     4  10  17  28  52  83 108 147 177 210 280 341
#     4  10  20  32  50  86 116 140 176 228 258 334
#     4  12  22  37  62  77 106 153 191 222 281 318
#     4   9  21  38  54  80 114 148 187 230 266 319
#     4   9  19  34  52  81 115 143 185 231 265 322
#
# _framework density 17.180489000000001
#
# number of rings (size 3 to 8) (size 9 to 14) (size 15 to 20)
#    0.261    2.261    1.304    2.087    3.652    1.391 
#    0.000    0.870    0.000    4.174    0.000    0.000 
#    0.000    0.000    0.000    0.000    0.000    0.000 
#
# Total GULP energy -256315.761810 kJ/mol
# GULP energy per Si atom -5572.081778 kJ/mol
# Density = 1.714139 g / cm^3
# Si number density = 17.180489 Si / 1000 Ang^3
#
#
#
# Elastic Constant Matrix: (Units=GPa)
#
#
# Indices 1 2 3 4 5 6 
#
# 1 69.4635 49.0850 40.1048 0.0000 0.0000 0.0000
# 2 49.0850 152.9375 89.5683 0.0000 0.0000 0.0000
# 3 40.1048 89.5683 111.6498 0.0000 0.0000 0.0000
# 4 0.0000 0.0000 0.0000 21.6129 0.0000 0.0000
# 5 0.0000 0.0000 0.0000 0.0000 29.7695 0.0000
# 6 0.0000 0.0000 0.0000 0.0000 0.0000 20.1948
#
#
#
# Elastic Compliance Matrix: (Units=1/GPa)
#
#
# Indices 1 2 3 4 5 6 
#
# 1 0.019406 -0.004048 -0.003724 0.000000 0.000000 0.000000
# 2 -0.004048 0.013177 -0.009117 0.000000 0.000000 0.000000
# 3 -0.003724 -0.009117 0.017608 0.000000 0.000000 0.000000
# 4 0.000000 0.000000 0.000000 0.046269 0.000000 0.000000
# 5 0.000000 0.000000 0.000000 0.000000 0.033591 0.000000
# 6 0.000000 0.000000 0.000000 0.000000 0.000000 0.049518
#
#
# Mechanical properties :
#
#
# Convention : Reuss Voigt Hill
#
# Bulk Modulus (GPa) = 60.92131 76.84077 68.88104
# Shear Modulus (GPa) = 22.85010 24.66828 23.75919
#
# Velocity S-wave (km/s) = 3.65088 3.79335 3.72279
# Velocity P-wave (km/s) = 7.30126 8.00054 7.65889
#
# Compressibility (1/GPa) = 0.01641462
#
# Stress axis : x y z
#
# Youngs Moduli (GPa) = 51.53036 75.88881 56.79201
#
# Poissons Ratio (x) = 0.30717 0.21147
# Poissons Ratio (y) = 0.20857 0.51778
# Poissons Ratio (z) = 0.19188 0.69189
#
# Static dielectric constant tensor:
#      x y z
#    x 1.625760 0.000000 0.000000 
#    y 0.000000 1.566890 0.000000 
#    z 0.000000 0.000000 1.599080 
# 
# From -- ./inp_files/60106.got.cif
#   From: 2010.05.17/outbox.cif.g08.bks.cpg/sg63_31_cif.got.tgz:60106.got - 2010.06.03 15:47:04.
