data_PCOD9468776
_publ_section_title
;
Structure prediction by ZEFSAII (Michael W. Deem and Ramdas Pophale) SiO2 
 PCOD9468776
Probable space group: C M C M
;
_chemical_formula_sum "Si O2"
_cell_formula_units_Z 112
_cell_length_a 26.412996
_cell_length_b 15.466568
_cell_length_c 14.725291
_cell_angle_alpha 90.000000
_cell_angle_beta 90.000000
_cell_angle_gamma 90.000000
_cell_volume 6015.552300
_symmetry_space_group_name_H-M "C M C M"
_symmetry_group_IT_number 63
_symmetry_cell_setting 'orthorhombic'
loop_
_space_group_symop_operation_xyz
x,y,z
-x,-y,1/2+z
x,-y,-z
-x,y,1/2-z
-x,-y,-z
x,y,1/2-z
-x,y,z
x,-y,1/2+z
1/2+x,1/2+y,z
1/2-x,1/2-y,1/2+z
1/2+x,1/2-y,-z
1/2-x,1/2+y,1/2-z
1/2-x,1/2-y,-z
1/2+x,1/2+y,1/2-z
1/2-x,1/2+y,z
1/2+x,1/2-y,1/2+z
loop_
_atom_site_type_symbol
_atom_site_label
_atom_site_fract_x
_atom_site_fract_y
_atom_site_fract_z
Si Si1 0.147218 0.219043 0.355357
Si Si2 0.439214 0.816456 0.450367
Si Si3 0.907211 0.490217 0.144895
Si Si4 0.295200 0.954809 0.646822
Si Si5 0.241921 0.653433 0.648845
Si Si6 0.557764 0.177651 0.151660
Si Si7 0.791922 0.899528 0.521520
O O1 0.147679 0.195449 0.250000
O O2 0.093351 0.256546 0.384421
O O3 0.190909 0.292249 0.368528
O O4 0.164668 0.140122 0.417071
O O5 0.500000 0.806463 0.444767
O O6 0.425502 0.914180 0.419772
O O7 0.421295 0.796461 0.553555
O O8 0.901963 0.457537 0.250000
O O9 0.852939 0.530489 0.118190
O O10 0.943012 0.573198 0.147048
O O11 0.293879 0.920205 0.750000
O O12 0.260629 0.900334 0.579201
O O13 0.272914 0.051994 0.649093
O O14 0.260315 0.676635 0.750000
O O15 0.282009 0.657732 0.567887
O O16 0.582020 0.199577 0.250000
O O17 0.500000 0.209188 0.154052
O O18 0.802209 0.000000 0.500000
#
# Coordination Sequence:
#
# PCOD9468776 Si02
#       7
#    16  16  16  16  16  16  16
#     4  11  22  37  55  79 111 140 173 222 274 320
#     4  11  22  34  54  80 109 148 187 224 274 327
#     4  10  18  29  48  75 109 145 187 231 268 318
#     4   9  17  30  49  76 106 143 183 219 264 318
#     4   9  18  33  51  76 108 139 174 220 269 319
#     4   9  19  33  47  68 102 143 187 232 270 312
#     4  10  21  35  56  78 102 143 181 221 265 322
#
# _framework density 18.618407000000001
#
# number of rings (size 3 to 8) (size 9 to 14) (size 15 to 20)
#    0.000    2.143    1.429    2.143    2.000    4.571 
#    0.000    0.714    0.000    0.429    0.000    0.000 
#    0.000    0.000    0.000    0.000    0.000    0.000 
#
# Total GULP energy -312339.427843 kJ/mol
# GULP energy per Si atom -5577.489783 kJ/mol
# Density = 1.857603 g / cm^3
# Si number density = 18.618407 Si / 1000 Ang^3
#
#
#
# Elastic Constant Matrix: (Units=GPa)
#
#
# Indices 1 2 3 4 5 6 
#
# 1 53.6931 19.0797 25.7148 0.0000 0.0000 0.0000
# 2 19.0797 27.8151 21.6245 0.0000 0.0000 0.0000
# 3 25.7148 21.6245 95.5038 0.0000 0.0000 0.0000
# 4 0.0000 0.0000 0.0000 13.8158 0.0000 0.0000
# 5 0.0000 0.0000 0.0000 0.0000 24.3280 0.0000
# 6 0.0000 0.0000 0.0000 0.0000 0.0000 14.2875
#
#
#
# Elastic Compliance Matrix: (Units=1/GPa)
#
#
# Indices 1 2 3 4 5 6 
#
# 1 0.025575 -0.014794 -0.003537 0.000000 0.000000 0.000000
# 2 -0.014794 0.052190 -0.007834 0.000000 0.000000 0.000000
# 3 -0.003537 -0.007834 0.013197 0.000000 0.000000 0.000000
# 4 0.000000 0.000000 0.000000 0.072381 0.000000 0.000000
# 5 0.000000 0.000000 0.000000 0.000000 0.041105 0.000000
# 6 0.000000 0.000000 0.000000 0.000000 0.000000 0.069991
#
#
# Mechanical properties :
#
#
# Convention : Reuss Voigt Hill
#
# Bulk Modulus (GPa) = 25.88431 34.42777 30.15604
# Shear Modulus (GPa) = 14.72128 17.85912 16.29020
#
# Velocity S-wave (km/s) = 2.81496 3.10049 2.96117
# Velocity P-wave (km/s) = 4.94955 5.59899 5.28426
#
# Compressibility (1/GPa) = 0.03863345
#
# Stress axis : x y z
#
# Youngs Moduli (GPa) = 39.10076 19.16089 75.77609
#
# Poissons Ratio (x) = 0.28346 0.26798
# Poissons Ratio (y) = 0.57844 0.59362
# Poissons Ratio (z) = 0.13828 0.15010
#
# Static dielectric constant tensor:
#      x y z
#    x 1.641410 0.000000 0.000000 
#    y 0.000000 1.618530 0.000000 
#    z 0.000000 0.000000 1.738250 
# 
# From -- ./inp_files/37943.got.cif
#   From: 2010.05.17/outbox.cif.g08.bks.cpg/sg63_19_cif.got.tgz:37943.got - 2010.06.03 15:47:04.
