data_PCOD9468430
_publ_section_title
;
Structure prediction by ZEFSAII (Michael W. Deem and Ramdas Pophale) SiO2 
 PCOD9468430
Probable space group: C M C M
;
_chemical_formula_sum "Si O2"
_cell_formula_units_Z 68
_cell_length_a 23.270621
_cell_length_b 8.721214
_cell_length_c 14.464044
_cell_angle_alpha 90.000000
_cell_angle_beta 90.000000
_cell_angle_gamma 90.000000
_cell_volume 2935.449751
_symmetry_space_group_name_H-M "C M C M"
_symmetry_group_IT_number 63
_symmetry_cell_setting 'orthorhombic'
loop_
_space_group_symop_operation_xyz
x,y,z
-x,-y,1/2+z
x,-y,-z
-x,y,1/2-z
-x,-y,-z
x,y,1/2-z
-x,y,z
x,-y,1/2+z
1/2+x,1/2+y,z
1/2-x,1/2-y,1/2+z
1/2+x,1/2-y,-z
1/2-x,1/2+y,1/2-z
1/2-x,1/2-y,-z
1/2+x,1/2+y,1/2-z
1/2-x,1/2+y,z
1/2+x,1/2-y,1/2+z
loop_
_atom_site_type_symbol
_atom_site_label
_atom_site_fract_x
_atom_site_fract_y
_atom_site_fract_z
Si Si1 0.084811 0.666407 0.386617
Si Si2 0.000000 0.188431 0.750000
Si Si3 0.317053 0.664392 0.386712
Si Si4 0.436333 0.183294 0.892872
Si Si5 0.799938 0.181857 0.889472
O O1 0.049450 0.790305 0.330145
O O2 0.066899 0.493636 0.361190
O O3 0.070513 0.681917 0.495386
O O4 0.151492 0.694428 0.365912
O O5 0.379474 0.728919 0.360874
O O6 0.262479 0.764689 0.357421
O O7 0.307809 0.670299 0.498615
O O8 0.312265 0.489234 0.356503
O O9 0.500000 0.244819 0.868727
#
# Coordination Sequence:
#
# PCOD9468430 Si02
#       5
#    16   4  16  16  16
#     4  10  19  32  54  75 111 139 189 215 276 314
#     4  12  20  34  52  80 104 152 182 224 260 344
#     4   9  17  29  53  77 113 131 173 212 276 303
#     4  10  17  33  51  83 109 143 172 233 264 327
#     4   9  17  31  48  83 103 141 168 219 257 327
#
# _framework density 23.165103999999999
#
# number of rings (size 3 to 8) (size 9 to 14) (size 15 to 20)
#    0.000    2.353    2.353    2.118    0.000    5.647 
#    2.118    2.353    0.000    8.471    0.000    0.000 
#    0.000    0.000    0.000    0.000    0.000    0.000 
#
# Total GULP energy -189387.264078 kJ/mol
# GULP energy per Si atom -5570.213649 kJ/mol
# Density = 2.311238 g / cm^3
# Si number density = 23.165104 Si / 1000 Ang^3
#
#
#
# Elastic Constant Matrix: (Units=GPa)
#
#
# Indices 1 2 3 4 5 6 
#
# 1 253.9999 73.5208 -2.6706 0.0000 0.0000 0.0000
# 2 73.5208 65.8315 -9.8617 0.0000 0.0000 0.0000
# 3 -2.6706 -9.8617 98.8351 0.0000 0.0000 0.0000
# 4 0.0000 0.0000 0.0000 -32.4944 0.0000 0.0000
# 5 0.0000 0.0000 0.0000 0.0000 -60.5031 0.0000
# 6 0.0000 0.0000 0.0000 0.0000 0.0000 26.8993
#
#
#
# Elastic Compliance Matrix: (Units=1/GPa)
#
#
# Indices 1 2 3 4 5 6 
#
# 1 0.005842 -0.006599 -0.000501 0.000000 0.000000 0.000000
# 2 -0.006599 0.022876 0.002104 0.000000 0.000000 0.000000
# 3 -0.000501 0.002104 0.010314 0.000000 0.000000 0.000000
# 4 0.000000 0.000000 0.000000 -0.030775 0.000000 0.000000
# 5 0.000000 0.000000 0.000000 0.000000 -0.016528 0.000000
# 6 0.000000 0.000000 0.000000 0.000000 0.000000 0.037176
#
#
# Mechanical properties :
#
#
# Convention : Reuss Voigt Hill
#
# Bulk Modulus (GPa) = 34.43474 60.07149 47.25312
# Shear Modulus (GPa) = 102.93065 10.62556 56.77810
#
# Velocity S-wave (km/s) = 6.67308 2.14402 4.95615
# Velocity P-wave (km/s) = 8.61803 5.66721 7.29341
#
# Compressibility (1/GPa) = 0.02904044
#
# Stress axis : x y z
#
# Youngs Moduli (GPa) = 171.17667 43.71470 96.95287
#
# Poissons Ratio (x) = 0.28848 0.04854
# Poissons Ratio (y) = 1.12964 -0.20401
# Poissons Ratio (z) = 0.08569 -0.09198
#
# Static dielectric constant tensor:
#      x y z
#    x 1.854010 0.000000 0.000000 
#    y 0.000000 1.827280 0.000000 
#    z 0.000000 0.000000 1.906680 
# 
# From -- ./inp_files/46631.got.cif
#   From: 2010.05.17/outbox.cif.g08.bks.cpg/sg63_24_cif.got.tgz:46631.got - 2010.06.03 15:47:04.
