data_PCOD9468644
_publ_section_title
;
Structure prediction by ZEFSAII (Michael W. Deem and Ramdas Pophale) SiO2 
 PCOD9468644
Probable space group: C M C M
;
_chemical_formula_sum "Si O2"
_cell_formula_units_Z 80
_cell_length_a 9.088403
_cell_length_b 20.730064
_cell_length_c 25.204478
_cell_angle_alpha 90.000000
_cell_angle_beta 90.000000
_cell_angle_gamma 90.000000
_cell_volume 4748.603701
_symmetry_space_group_name_H-M "C M C M"
_symmetry_group_IT_number 63
_symmetry_cell_setting 'orthorhombic'
loop_
_space_group_symop_operation_xyz
x,y,z
-x,-y,1/2+z
x,-y,-z
-x,y,1/2-z
-x,-y,-z
x,y,1/2-z
-x,y,z
x,-y,1/2+z
1/2+x,1/2+y,z
1/2-x,1/2-y,1/2+z
1/2+x,1/2-y,-z
1/2-x,1/2+y,1/2-z
1/2-x,1/2-y,-z
1/2+x,1/2+y,1/2-z
1/2-x,1/2+y,z
1/2+x,1/2-y,1/2+z
loop_
_atom_site_type_symbol
_atom_site_label
_atom_site_fract_x
_atom_site_fract_y
_atom_site_fract_z
Si Si1 0.825160 0.492701 0.250000
Si Si2 0.324900 0.631408 0.250000
Si Si3 0.324981 0.487564 0.358123
Si Si4 0.173899 0.141353 0.367401
Si Si5 0.324970 0.060462 0.961852
Si Si6 0.675341 0.810562 0.971863
O O1 0.774033 0.567555 0.250000
O O2 0.754938 0.466308 0.195870
O O3 0.000000 0.486917 0.250000
O O4 0.500000 0.612293 0.250000
O O5 0.298721 0.664551 0.193249
O O6 0.500000 0.481822 0.352273
O O7 0.292974 0.564203 0.367698
O O8 0.265048 0.448652 0.408167
O O9 0.264077 0.176749 0.412823
O O10 0.000000 0.148559 0.378258
O O11 0.500000 0.058997 0.950151
O O12 0.291264 0.125592 0.993502
O O13 0.292204 0.000000 0.000000
O O14 0.500000 0.802500 0.970322
O O15 0.750000 0.750000 0.000000
#
# Coordination Sequence:
#
# PCOD9468644 Si02
#       6
#     8   8  16  16  16  16
#     4  10  18  28  46  73 108 143 174 215 267 317
#     4   8  16  30  48  75 106 137 172 217 265 313
#     4  10  19  31  51  78 108 139 176 221 267 318
#     4   9  17  31  51  76 107 138 173 215 264 315
#     4  10  20  35  54  78 107 137 175 221 269 315
#     4  11  23  37  54  76 108 144 179 221 267 319
#
# _framework density 16.847058000000001
#
# number of rings (size 3 to 8) (size 9 to 14) (size 15 to 20)
#    0.000    2.200    2.000    3.300    0.000    5.200 
#    0.000    0.000    0.000    1.200    0.000    2.800 
#    0.000    0.000    0.000    0.000    0.000    0.000 
#
# Total GULP energy -223067.639700 kJ/mol
# GULP energy per Si atom -5576.690993 kJ/mol
# Density = 1.680871 g / cm^3
# Si number density = 16.847058 Si / 1000 Ang^3
#
#
#
# Elastic Constant Matrix: (Units=GPa)
#
#
# Indices 1 2 3 4 5 6 
#
# 1 69.7232 44.5916 86.5626 0.0000 0.0000 0.0000
# 2 44.5916 73.0585 56.1002 0.0000 0.0000 0.0000
# 3 86.5626 56.1002 179.2450 0.0000 0.0000 0.0000
# 4 0.0000 0.0000 0.0000 15.2341 0.0000 0.0000
# 5 0.0000 0.0000 0.0000 0.0000 37.6024 0.0000
# 6 0.0000 0.0000 0.0000 0.0000 0.0000 21.8425
#
#
#
# Elastic Compliance Matrix: (Units=1/GPa)
#
#
# Indices 1 2 3 4 5 6 
#
# 1 0.044639 -0.014075 -0.017152 0.000000 0.000000 0.000000
# 2 -0.014075 0.022456 -0.000231 0.000000 0.000000 0.000000
# 3 -0.017152 -0.000231 0.013935 0.000000 0.000000 0.000000
# 4 0.000000 0.000000 0.000000 0.065642 0.000000 0.000000
# 5 0.000000 0.000000 0.000000 0.000000 0.026594 0.000000
# 6 0.000000 0.000000 0.000000 0.000000 0.000000 0.045782
#
#
# Mechanical properties :
#
#
# Convention : Reuss Voigt Hill
#
# Bulk Modulus (GPa) = 55.20902 77.39284 66.30093
# Shear Modulus (GPa) = 17.36106 23.92063 20.64084
#
# Velocity S-wave (km/s) = 3.21364 3.77220 3.50407
# Velocity P-wave (km/s) = 6.82729 8.06293 7.47070
#
# Compressibility (1/GPa) = 0.01811298
#
# Stress axis : x y z
#
# Youngs Moduli (GPa) = 22.40213 44.53227 71.76379
#
# Poissons Ratio (x) = 0.62677 1.23091
# Poissons Ratio (y) = 0.31530 0.01659
# Poissons Ratio (z) = 0.38425 0.01029
#
# Static dielectric constant tensor:
#      x y z
#    x 1.557060 0.000000 0.000000 
#    y 0.000000 1.542370 0.000000 
#    z 0.000000 0.000000 1.585360 
# 
# From -- ./inp_files/59533.got.cif
#   From: 2010.05.17/outbox.cif.g08.bks.cpg/sg63_30_cif.got.tgz:59533.got - 2010.06.03 15:47:04.
