data_PCOD9468233
_publ_section_title
;
Structure prediction by ZEFSAII (Michael W. Deem and Ramdas Pophale) SiO2 
 PCOD9468233
Probable space group: C M C M
;
_chemical_formula_sum "Si O2"
_cell_formula_units_Z 72
_cell_length_a 15.695470
_cell_length_b 16.250909
_cell_length_c 14.213158
_cell_angle_alpha 90.000000
_cell_angle_beta 90.000000
_cell_angle_gamma 90.000000
_cell_volume 3625.288450
_symmetry_space_group_name_H-M "C M C M"
_symmetry_group_IT_number 63
_symmetry_cell_setting 'orthorhombic'
loop_
_space_group_symop_operation_xyz
x,y,z
-x,-y,1/2+z
x,-y,-z
-x,y,1/2-z
-x,-y,-z
x,y,1/2-z
-x,y,z
x,-y,1/2+z
1/2+x,1/2+y,z
1/2-x,1/2-y,1/2+z
1/2+x,1/2-y,-z
1/2-x,1/2+y,1/2-z
1/2-x,1/2-y,-z
1/2+x,1/2+y,1/2-z
1/2-x,1/2+y,z
1/2+x,1/2-y,1/2+z
loop_
_atom_site_type_symbol
_atom_site_label
_atom_site_fract_x
_atom_site_fract_y
_atom_site_fract_z
Si Si1 0.179340 0.741575 0.864432
Si Si2 0.000000 0.692222 0.360903
Si Si3 0.188911 0.556074 0.856046
Si Si4 0.500000 0.942408 0.090812
Si Si5 0.686035 0.879010 0.863194
Si Si6 0.000000 0.751601 0.548829
O O1 0.172540 0.737388 0.750000
O O2 0.198941 0.647660 0.897911
O O3 0.254474 0.803372 0.891393
O O4 0.089258 0.775056 0.903480
O O5 0.087265 0.642631 0.380501
O O6 0.000000 0.714433 0.250000
O O7 0.000000 0.765707 0.436817
O O8 0.224364 0.560345 0.750000
O O9 0.214960 0.468436 0.900332
O O10 0.086495 0.544796 0.852894
O O11 0.500000 0.847256 0.062207
O O12 0.500000 0.000000 0.000000
O O13 0.693293 0.884965 0.750000
#
# Coordination Sequence:
#
# PCOD9468233 Si02
#       6
#    16   8  16   8  16   8
#     4   9  18  31  48  73 101 127 161 202 241 289
#     4  10  20  33  49  71  98 127 163 203 242 292
#     4   9  16  27  44  65  92 124 154 191 241 288
#     4  10  17  25  40  66  94 115 147 192 239 293
#     4   9  17  30  48  69  96 129 162 199 243 288
#     4  10  19  30  48  71  97 130 160 195 249 295
#
# _framework density 19.860489000000001
#
# number of rings (size 3 to 8) (size 9 to 14) (size 15 to 20)
#    0.000    2.667    0.000    2.667    0.000    5.333 
#    0.000    0.000    0.000    1.333    0.000    9.333 
#    0.000    0.000    0.000    0.000    0.000    0.000 
#
# Total GULP energy -200611.273994 kJ/mol
# GULP energy per Si atom -5572.535389 kJ/mol
# Density = 1.981529 g / cm^3
# Si number density = 19.860489 Si / 1000 Ang^3
#
#
#
# Elastic Constant Matrix: (Units=GPa)
#
#
# Indices 1 2 3 4 5 6 
#
# 1 103.0224 73.5018 22.5173 0.0000 0.0000 0.0000
# 2 73.5018 124.2553 20.8728 0.0000 0.0000 0.0000
# 3 22.5173 20.8728 77.5187 0.0000 0.0000 0.0000
# 4 0.0000 0.0000 0.0000 18.5973 0.0000 0.0000
# 5 0.0000 0.0000 0.0000 0.0000 9.5466 0.0000
# 6 0.0000 0.0000 0.0000 0.0000 0.0000 11.4065
#
#
#
# Elastic Compliance Matrix: (Units=1/GPa)
#
#
# Indices 1 2 3 4 5 6 
#
# 1 0.017198 -0.009776 -0.002363 0.000000 0.000000 0.000000
# 2 -0.009776 0.013987 -0.000926 0.000000 0.000000 0.000000
# 3 -0.002363 -0.000926 0.013836 0.000000 0.000000 0.000000
# 4 0.000000 0.000000 0.000000 0.053771 0.000000 0.000000
# 5 0.000000 0.000000 0.000000 0.000000 0.104749 0.000000
# 6 0.000000 0.000000 0.000000 0.000000 0.000000 0.087669
#
#
# Mechanical properties :
#
#
# Convention : Reuss Voigt Hill
#
# Bulk Modulus (GPa) = 52.94083 59.84223 56.39153
# Shear Modulus (GPa) = 15.44935 20.43705 17.94320
#
# Velocity S-wave (km/s) = 2.79210 3.21133 3.00903
# Velocity P-wave (km/s) = 6.09169 6.62925 6.36614
#
# Compressibility (1/GPa) = 0.01888901
#
# Stress axis : x y z
#
# Youngs Moduli (GPa) = 58.14568 71.49663 72.27532
#
# Poissons Ratio (x) = 0.69898 0.17080
# Poissons Ratio (y) = 0.56846 0.06695
# Poissons Ratio (z) = 0.13741 0.06623
#
# Static dielectric constant tensor:
#      x y z
#    x 1.676880 0.000000 0.000000 
#    y 0.000000 1.736270 0.000000 
#    z 0.000000 0.000000 1.781840 
# 
# From -- ./inp_files/31500.got.cif
#   From: 2010.05.17/outbox.cif.g08.bks.cpg/sg63_16_cif.got.tgz:31500.got - 2010.06.03 15:47:04.
