data_PCOD9468917
_publ_section_title
;
Structure prediction by ZEFSAII (Michael W. Deem and Ramdas Pophale) SiO2 
 PCOD9468917
Probable space group: C M C M
;
_chemical_formula_sum "Si O2"
_cell_formula_units_Z 112
_cell_length_a 17.464785
_cell_length_b 23.753746
_cell_length_c 13.516196
_cell_angle_alpha 90.000000
_cell_angle_beta 90.000000
_cell_angle_gamma 90.000000
_cell_volume 5607.248879
_symmetry_space_group_name_H-M "C M C M"
_symmetry_group_IT_number 63
_symmetry_cell_setting 'orthorhombic'
loop_
_space_group_symop_operation_xyz
x,y,z
-x,-y,1/2+z
x,-y,-z
-x,y,1/2-z
-x,-y,-z
x,y,1/2-z
-x,y,z
x,-y,1/2+z
1/2+x,1/2+y,z
1/2-x,1/2-y,1/2+z
1/2+x,1/2-y,-z
1/2-x,1/2+y,1/2-z
1/2-x,1/2-y,-z
1/2+x,1/2+y,1/2-z
1/2-x,1/2+y,z
1/2+x,1/2-y,1/2+z
loop_
_atom_site_type_symbol
_atom_site_label
_atom_site_fract_x
_atom_site_fract_y
_atom_site_fract_z
Si Si1 0.083940 0.364014 0.633229
Si Si2 0.701399 0.775328 0.133480
Si Si3 0.332929 0.643502 0.868660
Si Si4 0.413385 0.468244 0.369832
Si Si5 0.750350 0.348757 0.631276
Si Si6 0.584467 0.253111 0.034281
Si Si7 0.912306 0.901900 0.870511
O O1 0.083549 0.376287 0.750000
O O2 0.170574 0.378338 0.595283
O O3 0.082657 0.297012 0.614322
O O4 0.000000 0.384738 0.593375
O O5 0.681169 0.775045 0.250000
O O6 0.749006 0.831513 0.109991
O O7 0.752018 0.718875 0.115329
O O8 0.632688 0.767820 0.059000
O O9 0.341912 0.646703 0.750000
O O10 0.354446 0.580392 0.898654
O O11 0.387665 0.689671 0.916527
O O12 0.411232 0.470555 0.250000
O O13 0.500000 0.451145 0.396975
O O14 0.401757 0.532703 0.401173
O O15 0.750857 0.356709 0.750000
O O16 0.665429 0.369107 0.598546
O O17 0.500000 0.262051 0.996064
O O18 0.912811 0.899333 0.750000
O O19 0.000000 0.885010 0.899527
#
# Coordination Sequence:
#
# PCOD9468917 Si02
#       7
#    16  16  16  16  16  16  16
#     4   9  17  29  46  72 101 125 157 202 253 303
#     4  10  21  34  47  68  97 129 167 205 244 297
#     4  10  18  30  49  73 101 130 161 201 247 295
#     4   8  14  25  43  70 100 127 159 200 241 286
#     4   9  16  28  46  66  94 132 165 201 246 288
#     4  11  21  31  47  70  97 132 165 199 247 298
#     4   8  14  25  43  68  97 131 170 202 234 285
#
# _framework density 19.974145
#
# number of rings (size 3 to 8) (size 9 to 14) (size 15 to 20)
#    0.000    2.714    1.429    2.143    0.000    2.286 
#    0.000    1.429    0.000    0.857    0.000    4.000 
#    0.000    8.000    0.000    0.143    0.000    0.000 
#
# Total GULP energy -312123.035895 kJ/mol
# GULP energy per Si atom -5573.625641 kJ/mol
# Density = 1.992868 g / cm^3
# Si number density = 19.974145 Si / 1000 Ang^3
#
#
#
# Elastic Constant Matrix: (Units=GPa)
#
#
# Indices 1 2 3 4 5 6 
#
# 1 142.9091 35.4406 22.3656 0.0000 0.0000 0.0000
# 2 35.4406 69.0130 8.3584 0.0000 0.0000 0.0000
# 3 22.3656 8.3584 54.4886 0.0000 0.0000 0.0000
# 4 0.0000 0.0000 0.0000 24.9650 0.0000 0.0000
# 5 0.0000 0.0000 0.0000 0.0000 21.4535 0.0000
# 6 0.0000 0.0000 0.0000 0.0000 0.0000 29.1046
#
#
#
# Elastic Compliance Matrix: (Units=1/GPa)
#
#
# Indices 1 2 3 4 5 6 
#
# 1 0.008432 -0.003985 -0.002850 0.000000 0.000000 0.000000
# 2 -0.003985 0.016648 -0.000918 0.000000 0.000000 0.000000
# 3 -0.002850 -0.000918 0.019663 0.000000 0.000000 0.000000
# 4 0.000000 0.000000 0.000000 0.040056 0.000000 0.000000
# 5 0.000000 0.000000 0.000000 0.000000 0.046613 0.000000
# 6 0.000000 0.000000 0.000000 0.000000 0.000000 0.034359
#
#
# Mechanical properties :
#
#
# Convention : Reuss Voigt Hill
#
# Bulk Modulus (GPa) = 34.20306 44.30443 39.25375
# Shear Modulus (GPa) = 26.17522 28.45435 27.31479
#
# Velocity S-wave (km/s) = 3.62395 3.77843 3.70199
# Velocity P-wave (km/s) = 5.88825 6.42374 6.16181
#
# Compressibility (1/GPa) = 0.02923715
#
# Stress axis : x y z
#
# Youngs Moduli (GPa) = 118.60091 60.06883 50.85700
#
# Poissons Ratio (x) = 0.23936 0.14492
# Poissons Ratio (y) = 0.47260 0.04669
# Poissons Ratio (z) = 0.33797 0.05515
#
# Static dielectric constant tensor:
#      x y z
#    x 1.786440 0.000000 0.000000 
#    y 0.000000 1.684400 0.000000 
#    z 0.000000 0.000000 1.771150 
# 
# From -- ./inp_files/32563.got.cif
#   From: 2010.05.17/outbox.cif.g08.bks.cpg/sg63_17_cif.got.tgz:32563.got - 2010.06.03 15:47:04.
