data_PCOD9468022
_publ_section_title
;
Structure prediction by ZEFSAII (Michael W. Deem and Ramdas Pophale) SiO2 
 PCOD9468022
Probable space group: P N M A
;
_chemical_formula_sum "Si O2"
_cell_formula_units_Z 48
_cell_length_a 18.000000
_cell_length_b 9.000000
_cell_length_c 15.000000
_cell_angle_alpha 90.000000
_cell_angle_beta 90.000000
_cell_angle_gamma 90.000000
_cell_volume 2430.000000
_symmetry_space_group_name_H-M "P N M A"
_symmetry_group_IT_number 62
_symmetry_cell_setting 'orthorhombic'
loop_
_space_group_symop_operation_xyz
x,y,z
1/2-x,-y,1/2+z
1/2+x,1/2-y,1/2-z
-x,1/2+y,-z
-x,-y,-z
1/2+x,y,1/2-z
1/2-x,1/2+y,1/2+z
x,1/2-y,z
loop_
_atom_site_type_symbol
_atom_site_label
_atom_site_fract_x
_atom_site_fract_y
_atom_site_fract_z
Si Si1 0.137643 0.427702 0.047781
Si Si2 0.206035 0.071195 0.558610
Si Si3 0.428238 0.077329 0.377348
Si Si4 0.214528 0.921733 0.750329
Si Si5 0.064398 0.926744 0.215702
Si Si6 0.641348 0.071680 0.130072
O O1 0.132673 0.250000 0.044529
O O2 0.219527 0.487598 0.028115
O O3 0.085975 0.504457 0.973548
O O4 0.118748 0.489573 0.145937
O O5 0.216497 0.250000 0.560392
O O6 0.149979 0.039514 0.475689
O O7 0.195088 0.013820 0.660473
O O8 0.453004 0.250000 0.387098
O O9 0.353531 0.077447 0.319197
O O10 0.485717 0.979205 0.322026
O O11 0.228066 0.750000 0.721707
O O12 0.284771 0.968763 0.811628
O O13 0.074485 0.750000 0.210688
O O14 0.077978 0.985994 0.315475
O O15 0.631854 0.250000 0.138282
#
# Coordination Sequence:
#
# PCOD9468022 Si02
#       6
#     8   8   8   8   8   8
#     4  12  23  37  60  90 125 160 197 245 301 360
#     4  11  22  38  62  92 123 155 201 250 297 350
#     4  11  23  42  63  87 123 162 199 247 304 358
#     4  10  21  39  63  89 121 157 199 245 298 356
#     4  12  25  40  60  90 123 159 203 247 297 359
#     4  10  21  40  62  88 121 159 198 245 298 352
#
# _framework density 19.753086
#
# number of rings (size 3 to 8) (size 9 to 14) (size 15 to 20)
#    0.000    1.000    3.333    4.500    0.000    2.667 
#    0.000    0.833    0.000    0.000    0.000    0.000 
#    0.000    0.000    0.000    0.000    0.000    0.000 
#
# Total GULP energy -268050.809328 kJ/mol
# GULP energy per Si atom -5584.391861 kJ/mol
# Density = 1.970813 g / cm^3
# Si number density = 19.753086 Si / 1000 Ang^3
#
#
#
# Elastic Constant Matrix: (Units=GPa)
#
#
# Indices 1 2 3 4 5 6 
#
# 1 13.1958 -7.4326 -13.2162 0.0000 0.0000 0.0000
# 2 -7.4326 98.2329 32.2578 0.0000 0.0000 0.0000
# 3 -13.2162 32.2578 92.3459 0.0000 0.0000 0.0000
# 4 0.0000 0.0000 0.0000 41.8929 0.0000 0.0000
# 5 0.0000 0.0000 0.0000 0.0000 37.3352 0.0000
# 6 0.0000 0.0000 0.0000 0.0000 0.0000 25.5501
#
#
#
# Elastic Compliance Matrix: (Units=1/GPa)
#
#
# Indices 1 2 3 4 5 6 
#
# 1 0.089181 0.002888 0.011755 0.000000 0.000000 0.000000
# 2 0.002888 0.011592 -0.003636 0.000000 0.000000 0.000000
# 3 0.011755 -0.003636 0.013781 0.000000 0.000000 0.000000
# 4 0.000000 0.000000 0.000000 0.023870 0.000000 0.000000
# 5 0.000000 0.000000 0.000000 0.000000 0.026784 0.000000
# 6 0.000000 0.000000 0.000000 0.000000 0.000000 0.039139
#
#
# Mechanical properties :
#
#
# Convention : Reuss Voigt Hill
#
# Bulk Modulus (GPa) = 7.32240 25.22141 16.27191
# Shear Modulus (GPa) = 21.94343 33.76667 27.85505
#
# Velocity S-wave (km/s) = 3.33661 4.13902 3.75929
# Velocity P-wave (km/s) = 4.30801 5.96976 5.20562
#
# Compressibility (1/GPa) = 0.13656719
#
# Stress axis : x y z
#
# Youngs Moduli (GPa) = 11.21312 86.26329 72.56224
#
# Poissons Ratio (x) = -0.24910 -0.85294
# Poissons Ratio (y) = -0.03238 0.26385
# Poissons Ratio (z) = -0.13181 0.31366
#
# Static dielectric constant tensor:
#      x y z
#    x 1.793530 0.000000 0.000000 
#    y 0.000000 1.663160 0.000000 
#    z 0.000000 0.000000 1.689450 
# 
# From -- ./inp_files/19519.got.cif
#   From: 2010.05.17/outbox.ucp.g08.bks.cvg/sg62_10_cif.got.tgz:19519.got - 2010.06.11 16:29:25.
