data_PCOD9468299
_publ_section_title
;
Structure prediction by ZEFSAII (Michael W. Deem and Ramdas Pophale) SiO2 
 PCOD9468299
Probable space group: C M C M
;
_chemical_formula_sum "Si O2"
_cell_formula_units_Z 128
_cell_length_a 17.209626
_cell_length_b 24.115176
_cell_length_c 18.441378
_cell_angle_alpha 90.000000
_cell_angle_beta 90.000000
_cell_angle_gamma 90.000000
_cell_volume 7653.414556
_symmetry_space_group_name_H-M "C M C M"
_symmetry_group_IT_number 63
_symmetry_cell_setting 'orthorhombic'
loop_
_space_group_symop_operation_xyz
x,y,z
-x,-y,1/2+z
x,-y,-z
-x,y,1/2-z
-x,-y,-z
x,y,1/2-z
-x,y,z
x,-y,1/2+z
1/2+x,1/2+y,z
1/2-x,1/2-y,1/2+z
1/2+x,1/2-y,-z
1/2-x,1/2+y,1/2-z
1/2-x,1/2-y,-z
1/2+x,1/2+y,1/2-z
1/2-x,1/2+y,z
1/2+x,1/2-y,1/2+z
loop_
_atom_site_type_symbol
_atom_site_label
_atom_site_fract_x
_atom_site_fract_y
_atom_site_fract_z
Si Si1 0.737262 0.301868 0.164544
Si Si2 0.087537 0.434217 0.015390
Si Si3 0.287409 0.505108 0.168980
Si Si4 0.372148 0.448354 0.046340
Si Si5 0.694908 0.281361 0.943091
Si Si6 0.912437 0.821311 0.438778
Si Si7 0.657462 0.911354 0.168890
Si Si8 0.258809 0.904131 0.556449
O O1 0.722648 0.292720 0.250000
O O2 0.792193 0.254538 0.129098
O O3 0.656171 0.307996 0.119616
O O4 0.786097 0.358705 0.156776
O O5 0.102500 0.419691 0.099751
O O6 0.000000 0.419242 0.995431
O O7 0.097879 0.500000 0.000000
O O8 0.152289 0.404227 0.967442
O O9 0.312166 0.517904 0.250000
O O10 0.354099 0.473026 0.124910
O O11 0.213833 0.464322 0.170393
O O12 0.260907 0.558987 0.125568
O O13 0.411671 0.388288 0.049134
O O14 0.406097 0.500000 0.000000
O O15 0.289321 0.433777 0.008415
O O16 0.727870 0.342769 0.932684
O O17 0.750000 0.250000 0.000000
O O18 0.614182 0.291163 0.986208
O O19 0.000000 0.805022 0.417642
O O20 0.621946 0.905780 0.250000
#
# Coordination Sequence:
#
# PCOD9468299 Si02
#       8
#    16  16  16  16  16  16  16  16
#     4  10  20  36  56  76 100 134 175 214 252 299
#     4  11  19  29  46  70  99 129 162 203 257 304
#     4  10  17  27  49  73  95 125 165 204 243 294
#     4   9  16  29  50  72 102 133 165 199 238 300
#     4   9  19  35  54  73  98 134 177 215 249 295
#     4  10  19  32  52  80 108 132 164 208 263 307
#     4  10  18  32  51  70  95 125 163 206 247 297
#     4  10  17  32  49  70  97 126 170 210 247 296
#
# _framework density 16.724561000000001
#
# number of rings (size 3 to 8) (size 9 to 14) (size 15 to 20)
#    0.000    2.125    3.750    1.875    0.000    1.250 
#    0.000    5.625    0.000    1.500    0.000    0.000 
#    0.000    0.000    0.000    0.000    0.000    0.000 
#
# Total GULP energy -356417.723266 kJ/mol
# GULP energy per Si atom -5569.026926 kJ/mol
# Density = 1.668650 g / cm^3
# Si number density = 16.724561 Si / 1000 Ang^3
#
#
#
# Elastic Constant Matrix: (Units=GPa)
#
#
# Indices 1 2 3 4 5 6 
#
# 1 65.3668 14.9720 36.2761 0.0000 0.0000 0.0000
# 2 14.9720 84.7534 39.9911 0.0000 0.0000 0.0000
# 3 36.2761 39.9911 116.7919 0.0000 0.0000 0.0000
# 4 0.0000 0.0000 0.0000 14.4891 0.0000 0.0000
# 5 0.0000 0.0000 0.0000 0.0000 11.5981 0.0000
# 6 0.0000 0.0000 0.0000 0.0000 0.0000 3.9795
#
#
#
# Elastic Compliance Matrix: (Units=1/GPa)
#
#
# Indices 1 2 3 4 5 6 
#
# 1 0.018516 -0.000665 -0.005524 0.000000 0.000000 0.000000
# 2 -0.000665 0.014096 -0.004620 0.000000 0.000000 0.000000
# 3 -0.005524 -0.004620 0.011860 0.000000 0.000000 0.000000
# 4 0.000000 0.000000 0.000000 0.069017 0.000000 0.000000
# 5 0.000000 0.000000 0.000000 0.000000 0.086221 0.000000
# 6 0.000000 0.000000 0.000000 0.000000 0.000000 0.251287
#
#
# Mechanical properties :
#
#
# Convention : Reuss Voigt Hill
#
# Bulk Modulus (GPa) = 43.75368 49.93230 46.84299
# Shear Modulus (GPa) = 10.41160 17.72485 14.06823
#
# Velocity S-wave (km/s) = 2.49777 3.25900 2.90344
# Velocity P-wave (km/s) = 5.87678 6.63942 6.26971
#
# Compressibility (1/GPa) = 0.02285522
#
# Stress axis : x y z
#
# Youngs Moduli (GPa) = 54.00772 70.93965 84.31729
#
# Poissons Ratio (x) = 0.04715 0.46573
# Poissons Ratio (y) = 0.03589 0.38958
# Poissons Ratio (z) = 0.29831 0.32777
#
# Static dielectric constant tensor:
#      x y z
#    x 1.559930 0.000000 0.000000 
#    y 0.000000 1.568830 0.000000 
#    z 0.000000 0.000000 1.601820 
# 
# From -- ./inp_files/46343.got.cif
#   From: 2010.05.17/outbox.cif.g08.bks.cpg/sg63_24_cif.got.tgz:46343.got - 2010.06.03 15:47:04.
