data_PCOD9468771
_publ_section_title
;
Structure prediction by ZEFSAII (Michael W. Deem and Ramdas Pophale) SiO2 
 PCOD9468771
Probable space group: C M C M
;
_chemical_formula_sum "Si O2"
_cell_formula_units_Z 56
_cell_length_a 17.158902
_cell_length_b 28.134945
_cell_length_c 5.560406
_cell_angle_alpha 90.000000
_cell_angle_beta 90.000000
_cell_angle_gamma 90.000000
_cell_volume 2684.368091
_symmetry_space_group_name_H-M "C M C M"
_symmetry_group_IT_number 63
_symmetry_cell_setting 'orthorhombic'
loop_
_space_group_symop_operation_xyz
x,y,z
-x,-y,1/2+z
x,-y,-z
-x,y,1/2-z
-x,-y,-z
x,y,1/2-z
-x,y,z
x,-y,1/2+z
1/2+x,1/2+y,z
1/2-x,1/2-y,1/2+z
1/2+x,1/2-y,-z
1/2-x,1/2+y,1/2-z
1/2-x,1/2-y,-z
1/2+x,1/2+y,1/2-z
1/2-x,1/2+y,z
1/2+x,1/2-y,1/2+z
loop_
_atom_site_type_symbol
_atom_site_label
_atom_site_fract_x
_atom_site_fract_y
_atom_site_fract_z
Si Si1 0.323958 0.726402 0.250000
Si Si2 0.140792 0.105179 0.750000
Si Si3 0.721113 0.502476 0.750000
Si Si4 0.586220 0.578193 0.250000
Si Si5 0.341085 0.830150 0.750000
Si Si6 0.088815 0.230906 0.750000
Si Si7 0.301983 0.158775 0.750000
O O1 0.244042 0.696628 0.250000
O O2 0.370351 0.717261 0.497364
O O3 0.305302 0.783255 0.250000
O O4 0.175297 0.051941 0.750000
O O5 0.095684 0.107906 0.496735
O O6 0.214908 0.139265 0.750000
O O7 0.766022 0.500000 0.500000
O O8 0.654778 0.461227 0.750000
O O9 0.500000 0.555884 0.250000
O O10 0.404193 0.788387 0.750000
O O11 0.341886 0.857178 0.498167
O O12 0.000000 0.214915 0.750000
#
# Coordination Sequence:
#
# PCOD9468771 Si02
#       7
#     8   8   8   8   8   8   8
#     4  10  19  33  51  68  88 121 156 181 219 286
#     4  10  19  29  44  63  82 107 145 189 228 263
#     4   8  16  27  41  61  80 104 141 179 222 262
#     4  10  19  31  46  62  84 116 154 190 228 274
#     4  10  19  33  52  67  86 121 158 181 217 286
#     4  10  18  29  48  73  91 106 141 192 230 254
#     4  10  18  30  48  64  83 111 148 188 221 261
#
# _framework density 20.861521
#
# number of rings (size 3 to 8) (size 9 to 14) (size 15 to 20)
#    0.000    2.286    0.000    6.000    0.000    5.143 
#    0.000    0.000    0.000   29.143    0.000    0.000 
#    0.000    0.000    0.000    0.000    0.000 2057.143 
#
# Total GULP energy -156220.297113 kJ/mol
# GULP energy per Si atom -5579.296325 kJ/mol
# Density = 2.081404 g / cm^3
# Si number density = 20.861521 Si / 1000 Ang^3
#
#
#
# Elastic Constant Matrix: (Units=GPa)
#
#
# Indices 1 2 3 4 5 6 
#
# 1 35.7634 18.1148 22.9673 0.0000 0.0000 0.0000
# 2 18.1148 32.6646 29.8912 0.0000 0.0000 0.0000
# 3 22.9673 29.8912 245.8535 0.0000 0.0000 0.0000
# 4 0.0000 0.0000 0.0000 0.8599 0.0000 0.0000
# 5 0.0000 0.0000 0.0000 0.0000 20.9635 0.0000
# 6 0.0000 0.0000 0.0000 0.0000 0.0000 5.4299
#
#
#
# Elastic Compliance Matrix: (Units=1/GPa)
#
#
# Indices 1 2 3 4 5 6 
#
# 1 0.039169 -0.020674 -0.001146 0.000000 0.000000 0.000000
# 2 -0.020674 0.045358 -0.003583 0.000000 0.000000 0.000000
# 3 -0.001146 -0.003583 0.004610 0.000000 0.000000 0.000000
# 4 0.000000 0.000000 0.000000 1.162895 0.000000 0.000000
# 5 0.000000 0.000000 0.000000 0.000000 0.047702 0.000000
# 6 0.000000 0.000000 0.000000 0.000000 0.000000 0.184167
#
#
# Mechanical properties :
#
#
# Convention : Reuss Voigt Hill
#
# Bulk Modulus (GPa) = 26.08778 50.69202 38.38990
# Shear Modulus (GPa) = 3.23105 21.67120 12.45113
#
# Velocity S-wave (km/s) = 1.24586 3.22656 2.44569
# Velocity P-wave (km/s) = 3.82125 6.18328 5.13979
#
# Compressibility (1/GPa) = 0.03833213
#
# Stress axis : x y z
#
# Youngs Moduli (GPa) = 25.53057 22.04670 216.91218
#
# Poissons Ratio (x) = 0.45578 0.24849
# Poissons Ratio (y) = 0.52781 0.77729
# Poissons Ratio (z) = 0.02925 0.07900
#
# Static dielectric constant tensor:
#      x y z
#    x 1.705920 0.000000 0.000000 
#    y 0.000000 1.767590 0.000000 
#    z 0.000000 0.000000 1.899290 
# 
# From -- ./inp_files/801.got.cif
#   From: 2010.05.17/outbox.cif.g08.bks.cpg/sg63_1_cif.got.tgz:801.got - 2010.06.03 15:47:04.
