data_PCOD9468634
_publ_section_title
;
Structure prediction by ZEFSAII (Michael W. Deem and Ramdas Pophale) SiO2 
 PCOD9468634
Probable space group: C M C M
;
_chemical_formula_sum "Si O2"
_cell_formula_units_Z 96
_cell_length_a 17.848464
_cell_length_b 18.674011
_cell_length_c 16.300124
_cell_angle_alpha 90.000000
_cell_angle_beta 90.000000
_cell_angle_gamma 90.000000
_cell_volume 5432.870663
_symmetry_space_group_name_H-M "C M C M"
_symmetry_group_IT_number 63
_symmetry_cell_setting 'orthorhombic'
loop_
_space_group_symop_operation_xyz
x,y,z
-x,-y,1/2+z
x,-y,-z
-x,y,1/2-z
-x,-y,-z
x,y,1/2-z
-x,y,z
x,-y,1/2+z
1/2+x,1/2+y,z
1/2-x,1/2-y,1/2+z
1/2+x,1/2-y,-z
1/2-x,1/2+y,1/2-z
1/2-x,1/2-y,-z
1/2+x,1/2+y,1/2-z
1/2-x,1/2+y,z
1/2+x,1/2-y,1/2+z
loop_
_atom_site_type_symbol
_atom_site_label
_atom_site_fract_x
_atom_site_fract_y
_atom_site_fract_z
Si Si1 0.216874 0.238133 0.654447
Si Si2 0.916428 0.508520 0.400813
Si Si3 0.805983 0.393432 0.119707
Si Si4 0.174638 0.000249 0.157248
Si Si5 0.220161 0.608320 0.425039
Si Si6 0.584320 0.369014 0.149995
O O1 0.204898 0.255815 0.750000
O O2 0.289413 0.186846 0.647277
O O3 0.223692 0.310326 0.603677
O O4 0.146523 0.189312 0.624825
O O5 0.919662 0.500000 0.500000
O O6 0.884424 0.433365 0.366666
O O7 0.852660 0.568366 0.385943
O O8 0.000000 0.525798 0.371707
O O9 0.743243 0.443512 0.160614
O O10 0.789809 0.396630 0.022387
O O11 0.158122 0.024910 0.250000
O O12 0.108462 0.949342 0.124505
O O13 0.206516 0.064365 0.102840
O O14 0.586716 0.370177 0.250000
O O15 0.500000 0.351354 0.124363
#
# Coordination Sequence:
#
# PCOD9468634 Si02
#       6
#    16  16  16  16  16  16
#     4  10  19  30  46  66  90 118 148 185 224 264
#     4   8  15  28  46  68  92 118 147 181 224 270
#     4   9  17  30  47  65  89 123 154 179 212 267
#     4   9  16  28  47  67  89 116 147 183 218 259
#     4  10  18  28  46  71  94 115 145 187 227 260
#     4   8  15  28  45  64  86 115 147 177 217 266
#
# _framework density 17.670216
#
# number of rings (size 3 to 8) (size 9 to 14) (size 15 to 20)
#    0.000    3.000    0.000    4.000    0.000    0.667 
#    0.000    0.000    0.000   26.500    0.000    0.000 
#    0.000    0.000    0.000    0.000    0.000    0.000 
#
# Total GULP energy -267226.683161 kJ/mol
# GULP energy per Si atom -5567.222566 kJ/mol
# Density = 1.763000 g / cm^3
# Si number density = 17.670216 Si / 1000 Ang^3
#
#
#
# Elastic Constant Matrix: (Units=GPa)
#
#
# Indices 1 2 3 4 5 6 
#
# 1 47.5830 31.9803 0.6715 0.0000 0.0000 0.0000
# 2 31.9803 95.1046 12.1707 0.0000 0.0000 0.0000
# 3 0.6715 12.1707 37.6289 0.0000 0.0000 0.0000
# 4 0.0000 0.0000 0.0000 55.6342 0.0000 0.0000
# 5 0.0000 0.0000 0.0000 0.0000 11.8291 0.0000
# 6 0.0000 0.0000 0.0000 0.0000 0.0000 18.0389
#
#
#
# Elastic Compliance Matrix: (Units=1/GPa)
#
#
# Indices 1 2 3 4 5 6 
#
# 1 0.027394 -0.009544 0.002598 0.000000 0.000000 0.000000
# 2 -0.009544 0.014294 -0.004453 0.000000 0.000000 0.000000
# 3 0.002598 -0.004453 0.027969 0.000000 0.000000 0.000000
# 4 0.000000 0.000000 0.000000 0.017975 0.000000 0.000000
# 5 0.000000 0.000000 0.000000 0.000000 0.084537 0.000000
# 6 0.000000 0.000000 0.000000 0.000000 0.000000 0.055436
#
#
# Mechanical properties :
#
#
# Convention : Reuss Voigt Hill
#
# Bulk Modulus (GPa) = 21.34058 29.99573 25.66815
# Shear Modulus (GPa) = 18.79543 26.13336 22.46440
#
# Velocity S-wave (km/s) = 3.26495 3.84988 3.56942
# Velocity P-wave (km/s) = 5.12996 6.06418 5.61653
#
# Compressibility (1/GPa) = 0.04685909
#
# Stress axis : x y z
#
# Youngs Moduli (GPa) = 36.50472 69.96000 35.75361
#
# Poissons Ratio (x) = 0.66770 -0.09289
# Poissons Ratio (y) = 0.34840 0.15921
# Poissons Ratio (z) = -0.09484 0.31152
#
# Static dielectric constant tensor:
#      x y z
#    x 1.620460 0.000000 0.000000 
#    y 0.000000 1.605500 0.000000 
#    z 0.000000 0.000000 1.716680 
# 
# From -- ./inp_files/45770.got.cif
#   From: 2010.05.17/outbox.cif.g08.bks.cpg/sg63_23_cif.got.tgz:45770.got - 2010.06.03 15:47:04.
