data_PCOD9468040
_publ_section_title
;
Structure prediction by ZEFSAII (Michael W. Deem and Ramdas Pophale) SiO2 
 PCOD9468040
Probable space group: P N M A
;
_chemical_formula_sum "Si O2"
_cell_formula_units_Z 64
_cell_length_a 30.000000
_cell_length_b 9.000000
_cell_length_c 12.000000
_cell_angle_alpha 90.000000
_cell_angle_beta 90.000000
_cell_angle_gamma 90.000000
_cell_volume 3240.000000
_symmetry_space_group_name_H-M "P N M A"
_symmetry_group_IT_number 62
_symmetry_cell_setting 'orthorhombic'
loop_
_space_group_symop_operation_xyz
x,y,z
1/2-x,-y,1/2+z
1/2+x,1/2-y,1/2-z
-x,1/2+y,-z
-x,-y,-z
1/2+x,y,1/2-z
1/2-x,1/2+y,1/2+z
x,1/2-y,z
loop_
_atom_site_type_symbol
_atom_site_label
_atom_site_fract_x
_atom_site_fract_y
_atom_site_fract_z
Si Si1 0.047507 0.072357 0.515339
Si Si2 0.576158 0.423193 0.229877
Si Si3 0.371941 0.427843 0.427328
Si Si4 0.689940 0.578600 0.973591
Si Si5 0.663787 0.918983 0.230449
Si Si6 0.460015 0.426527 0.566512
Si Si7 0.781478 0.423391 0.941141
Si Si8 0.879862 0.572357 0.313363
O O1 0.043041 0.250000 0.523272
O O2 0.072930 0.038451 0.400319
O O3 0.075598 0.020323 0.621562
O O4 0.000000 0.000000 0.500000
O O5 0.567050 0.250000 0.243909
O O6 0.625997 0.465962 0.263643
O O7 0.543088 0.514935 0.307571
O O8 0.373223 0.250000 0.412388
O O9 0.414049 0.467959 0.504086
O O10 0.325628 0.462239 0.489009
O O11 0.375563 0.504735 0.308356
O O12 0.684464 0.750000 0.940192
O O13 0.740670 0.527629 0.967826
O O14 0.660574 0.478480 0.892068
O O15 0.675257 0.564246 0.101732
O O16 0.646341 0.750000 0.250062
O O17 0.705619 0.935665 0.311244
O O18 0.500000 0.500000 0.500000
O O19 0.464454 0.250000 0.566052
O O20 0.770471 0.250000 0.964066
O O21 0.880749 0.750000 0.306791
#
# Coordination Sequence:
#
# PCOD9468040 Si02
#       8
#     8   8   8   8   8   8   8   8
#     4  10  24  42  62  91 123 161 206 252 306 363
#     4  11  22  40  65  93 123 158 206 257 307 364
#     4  10  23  43  64  89 124 164 205 253 307 364
#     4  11  24  40  63  95 124 160 209 253 308 368
#     4  10  21  41  65  89 120 161 205 254 308 365
#     4  11  24  43  65  93 127 163 207 254 309 367
#     4  10  22  42  64  89 124 163 202 252 312 363
#     4  11  24  43  63  89 126 165 206 252 306 367
#
# _framework density 19.753086
#
# number of rings (size 3 to 8) (size 9 to 14) (size 15 to 20)
#    0.000    1.500    2.500    1.500    3.500    4.500 
#    0.000    0.000    0.000    0.000    0.000    0.000 
#    0.000    0.000    0.000    0.000    0.000    0.000 
#
# Total GULP energy -357498.494468 kJ/mol
# GULP energy per Si atom -5585.913976 kJ/mol
# Density = 1.970813 g / cm^3
# Si number density = 19.753086 Si / 1000 Ang^3
#
#
#
# Elastic Constant Matrix: (Units=GPa)
#
#
# Indices 1 2 3 4 5 6 
#
# 1 76.0926 29.9502 15.2428 0.0000 0.0000 0.0000
# 2 29.9502 2.0731 41.2334 0.0000 0.0000 0.0000
# 3 15.2428 41.2334 81.6502 0.0000 0.0000 0.0000
# 4 0.0000 0.0000 0.0000 29.3645 0.0000 0.0000
# 5 0.0000 0.0000 0.0000 0.0000 16.0740 0.0000
# 6 0.0000 0.0000 0.0000 0.0000 0.0000 35.0550
#
#
#
# Elastic Compliance Matrix: (Units=1/GPa)
#
#
# Indices 1 2 3 4 5 6 
#
# 1 0.010034 0.011909 -0.007887 0.000000 0.000000 0.000000
# 2 0.011909 -0.039200 0.017573 0.000000 0.000000 0.000000
# 3 -0.007887 0.017573 0.004846 0.000000 0.000000 0.000000
# 4 0.000000 0.000000 0.000000 0.034055 0.000000 0.000000
# 5 0.000000 0.000000 0.000000 0.000000 0.062212 0.000000
# 6 0.000000 0.000000 0.000000 0.000000 0.000000 0.028527
#
#
# Mechanical properties :
#
#
# Convention : Reuss Voigt Hill
#
# Bulk Modulus (GPa) = 52.99719 36.96318 44.98018
# Shear Modulus (GPa) = 78.64850 20.99134 49.81992
#
# Velocity S-wave (km/s) = 6.31682 3.26342 5.02753
# Velocity P-wave (km/s) = 8.94936 5.74048 7.51812
#
# Compressibility (1/GPa) = 0.01886893
#
# Stress axis : x y z
#
# Youngs Moduli (GPa) = 99.65663 -25.51014 206.37556
#
# Poissons Ratio (x) = 0.30380 1.62776
# Poissons Ratio (y) = -1.18682 -3.62660
# Poissons Ratio (z) = 0.78603 0.44829
#
# Static dielectric constant tensor:
#      x y z
#    x 3.297220 0.000000 0.000000 
#    y 0.000000 1.696930 0.000000 
#    z 0.000000 0.000000 1.665940 
# 
# From -- ./inp_files/15918.got.cif
#   From: 2010.05.17/outbox.ucp.g08.bks.cvg/sg62_8_cif.got.tgz:15918.got - 2010.06.11 16:29:25.
