data_PCOD9468801
_publ_section_title
;
Structure prediction by ZEFSAII (Michael W. Deem and Ramdas Pophale) SiO2 
 PCOD9468801
Probable space group: C M C M
;
_chemical_formula_sum "Si O2"
_cell_formula_units_Z 80
_cell_length_a 8.845334
_cell_length_b 20.907186
_cell_length_c 25.549912
_cell_angle_alpha 90.000000
_cell_angle_beta 90.000000
_cell_angle_gamma 90.000000
_cell_volume 4724.971879
_symmetry_space_group_name_H-M "C M C M"
_symmetry_group_IT_number 63
_symmetry_cell_setting 'orthorhombic'
loop_
_space_group_symop_operation_xyz
x,y,z
-x,-y,1/2+z
x,-y,-z
-x,y,1/2-z
-x,-y,-z
x,y,1/2-z
-x,y,z
x,-y,1/2+z
1/2+x,1/2+y,z
1/2-x,1/2-y,1/2+z
1/2+x,1/2-y,-z
1/2-x,1/2+y,1/2-z
1/2-x,1/2-y,-z
1/2+x,1/2+y,1/2-z
1/2-x,1/2+y,z
1/2+x,1/2-y,1/2+z
loop_
_atom_site_type_symbol
_atom_site_label
_atom_site_fract_x
_atom_site_fract_y
_atom_site_fract_z
Si Si1 0.674447 0.355250 0.750000
Si Si2 0.674424 0.488947 0.250000
Si Si3 0.683848 0.364827 0.636632
Si Si4 0.318864 0.064844 0.968458
Si Si5 0.319145 0.993461 0.358910
Si Si6 0.680608 0.686844 0.474920
O O1 0.500000 0.333694 0.750000
O O2 0.676658 0.433034 0.750000
O O3 0.738635 0.337849 0.692990
O O4 0.500000 0.469220 0.250000
O O5 0.756007 0.469431 0.303469
O O6 0.500000 0.369664 0.638966
O O7 0.748752 0.436389 0.630760
O O8 0.725536 0.324026 0.585846
O O9 0.500000 0.074406 0.972963
O O10 0.281561 0.051676 0.907868
O O11 0.235909 0.124860 0.993361
O O12 0.281538 0.000000 0.000000
O O13 0.500000 0.000040 0.356289
O O14 0.500000 0.690710 0.476640
O O15 0.750000 0.750000 0.500000
#
# Coordination Sequence:
#
# PCOD9468801 Si02
#       6
#     8   8  16  16  16  16
#     4   7  12  25  45  68  95 124 159 205 255 301
#     4   9  17  29  45  70 107 140 169 213 263 311
#     4   9  17  30  49  74 102 134 170 213 263 319
#     4  10  20  35  54  78 108 140 173 217 269 316
#     4  10  18  29  50  77 105 136 173 217 264 315
#     4  11  23  36  53  76 106 143 183 223 268 323
#
# _framework density 16.931318000000001
#
# number of rings (size 3 to 8) (size 9 to 14) (size 15 to 20)
#    0.000    2.400    2.000    2.700    0.000    2.800 
#    0.000    0.000    0.000    1.200    0.000    7.000 
#    0.000    0.000    0.000    0.000    0.000    0.000 
#
# Total GULP energy -222936.110212 kJ/mol
# GULP energy per Si atom -5573.402755 kJ/mol
# Density = 1.689278 g / cm^3
# Si number density = 16.931318 Si / 1000 Ang^3
#
#
#
# Elastic Constant Matrix: (Units=GPa)
#
#
# Indices 1 2 3 4 5 6 
#
# 1 34.9828 26.5960 51.7815 0.0000 0.0000 0.0000
# 2 26.5960 73.0617 65.4720 0.0000 0.0000 0.0000
# 3 51.7815 65.4720 199.0499 0.0000 0.0000 0.0000
# 4 0.0000 0.0000 0.0000 17.0729 0.0000 0.0000
# 5 0.0000 0.0000 0.0000 0.0000 26.0428 0.0000
# 6 0.0000 0.0000 0.0000 0.0000 0.0000 23.5999
#
#
#
# Elastic Compliance Matrix: (Units=1/GPa)
#
#
# Indices 1 2 3 4 5 6 
#
# 1 0.050666 -0.009404 -0.010087 0.000000 0.000000 0.000000
# 2 -0.009404 0.021153 -0.004511 0.000000 0.000000 0.000000
# 3 -0.010087 -0.004511 0.009132 0.000000 0.000000 0.000000
# 4 0.000000 0.000000 0.000000 0.058572 0.000000 0.000000
# 5 0.000000 0.000000 0.000000 0.000000 0.038398 0.000000
# 6 0.000000 0.000000 0.000000 0.000000 0.000000 0.042373
#
#
# Mechanical properties :
#
#
# Convention : Reuss Voigt Hill
#
# Bulk Modulus (GPa) = 30.35303 66.08816 48.22059
# Shear Modulus (GPa) = 17.90304 24.22611 21.06458
#
# Velocity S-wave (km/s) = 3.25528 3.78676 3.53103
# Velocity P-wave (km/s) = 5.66527 7.63133 6.72058
#
# Compressibility (1/GPa) = 0.03294564
#
# Stress axis : x y z
#
# Youngs Moduli (GPa) = 19.73701 47.27452 109.50707
#
# Poissons Ratio (x) = 0.44458 1.10462
# Poissons Ratio (y) = 0.18561 0.49401
# Poissons Ratio (z) = 0.19909 0.21327
#
# Static dielectric constant tensor:
#      x y z
#    x 1.570270 0.000000 0.000000 
#    y 0.000000 1.522790 0.000000 
#    z 0.000000 0.000000 1.623520 
# 
# From -- ./inp_files/66691.got.cif
#   From: 2010.05.17/outbox.cif.g08.bks.cpg/sg63_34_cif.got.tgz:66691.got - 2010.06.03 15:47:04.
