data_PCOD9468931
_publ_section_title
;
Structure prediction by ZEFSAII (Michael W. Deem and Ramdas Pophale) SiO2 
 PCOD9468931
Probable space group: C M C M
;
_chemical_formula_sum "Si O2"
_cell_formula_units_Z 112
_cell_length_a 14.315139
_cell_length_b 24.498567
_cell_length_c 18.474970
_cell_angle_alpha 90.000000
_cell_angle_beta 90.000000
_cell_angle_gamma 90.000000
_cell_volume 6479.179219
_symmetry_space_group_name_H-M "C M C M"
_symmetry_group_IT_number 63
_symmetry_cell_setting 'orthorhombic'
loop_
_space_group_symop_operation_xyz
x,y,z
-x,-y,1/2+z
x,-y,-z
-x,y,1/2-z
-x,-y,-z
x,y,1/2-z
-x,y,z
x,-y,1/2+z
1/2+x,1/2+y,z
1/2-x,1/2-y,1/2+z
1/2+x,1/2-y,-z
1/2-x,1/2+y,1/2-z
1/2-x,1/2-y,-z
1/2+x,1/2+y,1/2-z
1/2-x,1/2+y,z
1/2+x,1/2-y,1/2+z
loop_
_atom_site_type_symbol
_atom_site_label
_atom_site_fract_x
_atom_site_fract_y
_atom_site_fract_z
Si Si1 0.610248 0.549250 0.449374
Si Si2 0.389468 0.672183 0.447340
Si Si3 0.393621 0.932702 0.662253
Si Si4 0.224380 0.324032 0.663141
Si Si5 0.394071 0.394005 0.162765
Si Si6 0.227434 0.996702 0.336611
Si Si7 0.610586 0.724659 0.904235
O O1 0.644978 0.500000 0.500000
O O2 0.500000 0.542116 0.440402
O O3 0.625378 0.610403 0.477292
O O4 0.659965 0.541124 0.372831
O O5 0.500000 0.676949 0.430604
O O6 0.322769 0.677167 0.378610
O O7 0.366337 0.714529 0.511282
O O8 0.398266 0.932965 0.750000
O O9 0.500000 0.932439 0.635020
O O10 0.335722 0.878145 0.643048
O O11 0.331486 0.985287 0.640689
O O12 0.234793 0.323172 0.750000
O O13 0.167484 0.271752 0.634763
O O14 0.396302 0.392582 0.250000
O O15 0.500000 0.410136 0.137977
O O16 0.316289 0.438451 0.142117
O O17 0.374591 0.333702 0.134225
O O18 0.222930 0.000094 0.250000
O O19 0.500000 0.736622 0.899241
#
# Coordination Sequence:
#
# PCOD9468931 Si02
#       7
#    16  16  16  16  16  16  16
#     4  10  19  31  49  75 107 143 176 208 255 316
#     4  10  21  35  51  76 109 142 178 218 266 325
#     4   9  18  32  50  74 101 129 169 219 265 308
#     4  11  21  35  55  79 106 141 180 221 272 319
#     4   9  17  29  48  78 109 134 168 217 269 322
#     4  10  18  30  49  74 104 137 173 215 267 318
#     4  10  20  35  55  79 107 138 176 222 271 321
#
# _framework density 17.28614
#
# number of rings (size 3 to 8) (size 9 to 14) (size 15 to 20)
#    0.000    2.143    1.429    2.571    0.000    4.857 
#    0.000    1.429    0.000    1.286    0.000    2.000 
#    0.000    0.000    0.000    0.000    0.000    0.000 
#
# Total GULP energy -312151.936293 kJ/mol
# GULP energy per Si atom -5574.141720 kJ/mol
# Density = 1.724680 g / cm^3
# Si number density = 17.286140 Si / 1000 Ang^3
#
#
#
# Elastic Constant Matrix: (Units=GPa)
#
#
# Indices 1 2 3 4 5 6 
#
# 1 99.6039 63.2576 50.0279 0.0000 0.0000 0.0000
# 2 63.2576 89.6133 31.5180 0.0000 0.0000 0.0000
# 3 50.0279 31.5180 55.3897 0.0000 0.0000 0.0000
# 4 0.0000 0.0000 0.0000 23.5646 0.0000 0.0000
# 5 0.0000 0.0000 0.0000 0.0000 21.5378 0.0000
# 6 0.0000 0.0000 0.0000 0.0000 0.0000 27.5548
#
#
#
# Elastic Compliance Matrix: (Units=1/GPa)
#
#
# Indices 1 2 3 4 5 6 
#
# 1 0.026644 -0.012932 -0.016706 0.000000 0.000000 0.000000
# 2 -0.012932 0.020228 0.000170 0.000000 0.000000 0.000000
# 3 -0.016706 0.000170 0.033046 0.000000 0.000000 0.000000
# 4 0.000000 0.000000 0.000000 0.042436 0.000000 0.000000
# 5 0.000000 0.000000 0.000000 0.000000 0.046430 0.000000
# 6 0.000000 0.000000 0.000000 0.000000 0.000000 0.036291
#
#
# Mechanical properties :
#
#
# Convention : Reuss Voigt Hill
#
# Bulk Modulus (GPa) = 47.66063 59.35711 53.50887
# Shear Modulus (GPa) = 18.44988 21.18501 19.81744
#
# Velocity S-wave (km/s) = 3.27053 3.50458 3.38958
# Velocity P-wave (km/s) = 6.47250 7.12662 6.80742
#
# Compressibility (1/GPa) = 0.02098168
#
# Stress axis : x y z
#
# Youngs Moduli (GPa) = 37.53257 49.43684 30.26096
#
# Poissons Ratio (x) = 0.63931 0.50554
# Poissons Ratio (y) = 0.48537 -0.00514
# Poissons Ratio (z) = 0.62701 -0.00840
#
# Static dielectric constant tensor:
#      x y z
#    x 1.582830 0.000000 0.000000 
#    y 0.000000 1.595460 0.000000 
#    z 0.000000 0.000000 1.607510 
# 
# From -- ./inp_files/53139.got.cif
#   From: 2010.05.17/outbox.cif.g08.bks.cpg/sg63_27_cif.got.tgz:53139.got - 2010.06.03 15:47:04.
