data_PCOD9468880
_publ_section_title
;
Structure prediction by ZEFSAII (Michael W. Deem and Ramdas Pophale) SiO2 
 PCOD9468880
Probable space group: C M C M
;
_chemical_formula_sum "Si O2"
_cell_formula_units_Z 96
_cell_length_a 12.774102
_cell_length_b 21.515130
_cell_length_c 15.935168
_cell_angle_alpha 90.000000
_cell_angle_beta 90.000000
_cell_angle_gamma 90.000000
_cell_volume 4379.565245
_symmetry_space_group_name_H-M "C M C M"
_symmetry_group_IT_number 63
_symmetry_cell_setting 'orthorhombic'
loop_
_space_group_symop_operation_xyz
x,y,z
-x,-y,1/2+z
x,-y,-z
-x,y,1/2-z
-x,-y,-z
x,y,1/2-z
-x,y,z
x,-y,1/2+z
1/2+x,1/2+y,z
1/2-x,1/2-y,1/2+z
1/2+x,1/2-y,-z
1/2-x,1/2+y,1/2-z
1/2-x,1/2-y,-z
1/2+x,1/2+y,1/2-z
1/2-x,1/2+y,z
1/2+x,1/2-y,1/2+z
loop_
_atom_site_type_symbol
_atom_site_label
_atom_site_fract_x
_atom_site_fract_y
_atom_site_fract_z
Si Si1 0.704644 0.315438 0.157651
Si Si2 0.620984 0.641980 0.250000
Si Si3 0.377328 0.506057 0.750000
Si Si4 0.873195 0.847322 0.939967
Si Si5 0.382656 0.431456 0.083902
Si Si6 0.874292 0.324789 0.658991
Si Si7 0.124185 0.295680 0.477917
O O1 0.738427 0.334421 0.250000
O O2 0.618723 0.363540 0.126112
O O3 0.654831 0.247786 0.163379
O O4 0.806121 0.317449 0.099142
O O5 0.500000 0.665266 0.250000
O O6 0.620945 0.567795 0.250000
O O7 0.662888 0.660182 0.342693
O O8 0.500000 0.527769 0.750000
O O9 0.331982 0.528434 0.840353
O O10 0.855971 0.779509 0.983222
O O11 0.000000 0.854378 0.935713
O O12 0.840446 0.909813 0.991969
O O13 0.500000 0.455770 0.072114
O O14 0.841456 0.353660 0.750000
O O15 0.845107 0.335470 0.560845
O O16 0.000000 0.331620 0.658161
O O17 0.000000 0.302074 0.464465
#
# Coordination Sequence:
#
# PCOD9468880 Si02
#       7
#    16   8   8  16  16  16  16
#     4  11  20  28  44  66  90 124 158 192 223 265
#     4   9  18  32  45  62  88 121 154 185 225 280
#     4   9  18  30  47  68  89 111 148 197 238 268
#     4   9  18  30  45  62  86 121 157 185 217 267
#     4  10  18  30  48  69  91 120 157 197 231 264
#     4   9  17  29  45  63  85 114 156 198 226 254
#     4  10  20  32  44  64  94 128 159 189 221 264
#
# _framework density 21.919983999999999
#
# number of rings (size 3 to 8) (size 9 to 14) (size 15 to 20)
#    0.000    2.333    2.500    1.000    1.167    1.667 
#    0.000    3.333    0.000    0.000    0.000    0.000 
#    0.000    0.000    0.000   10.500    0.000    1.167 
#
# Total GULP energy -267203.672893 kJ/mol
# GULP energy per Si atom -5566.743185 kJ/mol
# Density = 2.187009 g / cm^3
# Si number density = 21.919984 Si / 1000 Ang^3
#
#
#
# Elastic Constant Matrix: (Units=GPa)
#
#
# Indices 1 2 3 4 5 6 
#
# 1 41.2892 -1.7128 29.1595 0.0000 0.0000 0.0000
# 2 -1.7128 27.1600 9.3849 0.0000 0.0000 0.0000
# 3 29.1595 9.3849 186.7126 0.0000 0.0000 0.0000
# 4 0.0000 0.0000 0.0000 38.3388 0.0000 0.0000
# 5 0.0000 0.0000 0.0000 0.0000 34.1505 0.0000
# 6 0.0000 0.0000 0.0000 0.0000 0.0000 8.8254
#
#
#
# Elastic Compliance Matrix: (Units=1/GPa)
#
#
# Indices 1 2 3 4 5 6 
#
# 1 0.027505 0.003276 -0.004460 0.000000 0.000000 0.000000
# 2 0.003276 0.037860 -0.002415 0.000000 0.000000 0.000000
# 3 -0.004460 -0.002415 0.006174 0.000000 0.000000 0.000000
# 4 0.000000 0.000000 0.000000 0.026083 0.000000 0.000000
# 5 0.000000 0.000000 0.000000 0.000000 0.029282 0.000000
# 6 0.000000 0.000000 0.000000 0.000000 0.000000 0.113309
#
#
# Mechanical properties :
#
#
# Convention : Reuss Voigt Hill
#
# Bulk Modulus (GPa) = 15.54226 36.53611 26.03918
# Shear Modulus (GPa) = 18.59717 30.81829 24.70773
#
# Velocity S-wave (km/s) = 2.91591 3.75366 3.36099
# Velocity P-wave (km/s) = 4.29448 5.95741 5.19294
#
# Compressibility (1/GPa) = 0.06434072
#
# Stress axis : x y z
#
# Youngs Moduli (GPa) = 36.35669 26.41326 161.97590
#
# Poissons Ratio (x) = -0.08652 0.72245
# Poissons Ratio (y) = -0.11910 0.39110
# Poissons Ratio (z) = 0.16216 0.06378
#
# Static dielectric constant tensor:
#      x y z
#    x 1.875470 0.000000 0.000000 
#    y 0.000000 1.760050 0.000000 
#    z 0.000000 0.000000 2.025380 
# 
# From -- ./inp_files/32178.got.cif
#   From: 2010.05.17/outbox.cif.g08.bks.cpg/sg63_17_cif.got.tgz:32178.got - 2010.06.03 15:47:04.
