data_PCOD9468365
_publ_section_title
;
Structure prediction by ZEFSAII (Michael W. Deem and Ramdas Pophale) SiO2 
 PCOD9468365
Probable space group: C M C M
;
_chemical_formula_sum "Si O2"
_cell_formula_units_Z 96
_cell_length_a 7.658675
_cell_length_b 21.348181
_cell_length_c 25.653089
_cell_angle_alpha 90.000000
_cell_angle_beta 90.000000
_cell_angle_gamma 90.000000
_cell_volume 4194.248758
_symmetry_space_group_name_H-M "C M C M"
_symmetry_group_IT_number 63
_symmetry_cell_setting 'orthorhombic'
loop_
_space_group_symop_operation_xyz
x,y,z
-x,-y,1/2+z
x,-y,-z
-x,y,1/2-z
-x,-y,-z
x,y,1/2-z
-x,y,z
x,-y,1/2+z
1/2+x,1/2+y,z
1/2-x,1/2-y,1/2+z
1/2+x,1/2-y,-z
1/2-x,1/2+y,1/2-z
1/2-x,1/2-y,-z
1/2+x,1/2+y,1/2-z
1/2-x,1/2+y,z
1/2+x,1/2-y,1/2+z
loop_
_atom_site_type_symbol
_atom_site_label
_atom_site_fract_x
_atom_site_fract_y
_atom_site_fract_z
Si Si1 0.705810 0.133999 0.693483
Si Si2 0.698511 0.704088 0.954549
Si Si3 0.712536 0.964210 0.391567
Si Si4 0.212998 0.603120 0.114310
Si Si5 0.697744 0.081442 0.997476
Si Si6 0.797691 0.731469 0.156959
O O1 0.779964 0.116077 0.750000
O O2 0.500000 0.120026 0.693945
O O3 0.777478 0.092537 0.645233
O O4 0.721794 0.209193 0.687625
O O5 0.500000 0.682415 0.960246
O O6 0.712082 0.741779 0.901642
O O7 0.750000 0.750000 0.000000
O O8 0.812557 0.643258 0.961415
O O9 0.500000 0.961205 0.394623
O O10 0.774414 0.964084 0.452483
O O11 0.755193 0.032516 0.368067
O O12 0.273085 0.603711 0.053272
O O13 0.276366 0.661084 0.149922
O O14 0.000000 0.610488 0.113754
O O15 0.500000 0.062560 0.010470
O O16 0.000000 0.726487 0.173546
#
# Coordination Sequence:
#
# PCOD9468365 Si02
#       6
#    16  16  16  16  16  16
#     4  10  21  37  57  79 100 127 171 223 270 316
#     4  11  20  30  47  75 109 144 177 210 248 299
#     4   9  17  30  52  78 105 137 172 213 259 304
#     4   9  17  30  49  79 111 137 171 210 250 305
#     4  10  17  29  50  77 106 141 175 206 250 306
#     4  10  20  34  53  77 106 137 173 215 258 305
#
# _framework density 22.888486
#
# number of rings (size 3 to 8) (size 9 to 14) (size 15 to 20)
#    0.000    2.167    3.333    1.000    0.000    3.000 
#    0.000    0.833    0.000    8.000    0.000    0.000 
#    0.000    0.000    0.000    0.000    0.000    0.000 
#
# Total GULP energy -267418.826158 kJ/mol
# GULP energy per Si atom -5571.225545 kJ/mol
# Density = 2.283639 g / cm^3
# Si number density = 22.888486 Si / 1000 Ang^3
#
#
#
# Elastic Constant Matrix: (Units=GPa)
#
#
# Indices 1 2 3 4 5 6 
#
# 1 34.9964 -0.6037 6.4441 0.0000 0.0000 0.0000
# 2 -0.6037 135.7979 23.4304 0.0000 0.0000 0.0000
# 3 6.4441 23.4304 104.4316 0.0000 0.0000 0.0000
# 4 0.0000 0.0000 0.0000 14.2423 0.0000 0.0000
# 5 0.0000 0.0000 0.0000 0.0000 5.2772 0.0000
# 6 0.0000 0.0000 0.0000 0.0000 0.0000 14.2839
#
#
#
# Elastic Compliance Matrix: (Units=1/GPa)
#
#
# Indices 1 2 3 4 5 6 
#
# 1 0.028930 0.000454 -0.001887 0.000000 0.000000 0.000000
# 2 0.000454 0.007668 -0.001748 0.000000 0.000000 0.000000
# 3 -0.001887 -0.001748 0.010084 0.000000 0.000000 0.000000
# 4 0.000000 0.000000 0.000000 0.070214 0.000000 0.000000
# 5 0.000000 0.000000 0.000000 0.000000 0.189496 0.000000
# 6 0.000000 0.000000 0.000000 0.000000 0.000000 0.070009
#
#
# Mechanical properties :
#
#
# Convention : Reuss Voigt Hill
#
# Bulk Modulus (GPa) = 24.80207 37.08528 30.94368
# Shear Modulus (GPa) = 12.61982 23.15766 17.88874
#
# Velocity S-wave (km/s) = 2.35066 3.18427 2.79867
# Velocity P-wave (km/s) = 4.26931 5.45502 4.89817
#
# Compressibility (1/GPa) = 0.04031921
#
# Stress axis : x y z
#
# Youngs Moduli (GPa) = 34.56656 130.41961 99.16360
#
# Poissons Ratio (x) = -0.05924 0.18713
# Poissons Ratio (y) = -0.01570 0.17337
# Poissons Ratio (z) = 0.06523 0.22802
#
# Static dielectric constant tensor:
#      x y z
#    x 1.880960 0.000000 0.000000 
#    y 0.000000 1.957920 0.000000 
#    z 0.000000 0.000000 1.876720 
# 
# From -- ./inp_files/59860.got.cif
#   From: 2010.05.17/outbox.cif.g08.bks.cpg/sg63_30_cif.got.tgz:59860.got - 2010.06.03 15:47:04.
