data_PCOD9468201
_publ_section_title
;
Structure prediction by ZEFSAII (Michael W. Deem and Ramdas Pophale) SiO2 
 PCOD9468201
Probable space group: C M C M
;
_chemical_formula_sum "Si O2"
_cell_formula_units_Z 88
_cell_length_a 14.221012
_cell_length_b 13.962066
_cell_length_c 24.162883
_cell_angle_alpha 90.000000
_cell_angle_beta 90.000000
_cell_angle_gamma 90.000000
_cell_volume 4797.654182
_symmetry_space_group_name_H-M "C M C M"
_symmetry_group_IT_number 63
_symmetry_cell_setting 'orthorhombic'
loop_
_space_group_symop_operation_xyz
x,y,z
-x,-y,1/2+z
x,-y,-z
-x,y,1/2-z
-x,-y,-z
x,y,1/2-z
-x,y,z
x,-y,1/2+z
1/2+x,1/2+y,z
1/2-x,1/2-y,1/2+z
1/2+x,1/2-y,-z
1/2-x,1/2+y,1/2-z
1/2-x,1/2-y,-z
1/2+x,1/2+y,1/2-z
1/2-x,1/2+y,z
1/2+x,1/2-y,1/2+z
loop_
_atom_site_type_symbol
_atom_site_label
_atom_site_fract_x
_atom_site_fract_y
_atom_site_fract_z
Si Si1 0.388016 0.892766 0.128142
Si Si2 0.889000 0.403927 0.250000
Si Si3 0.771975 0.050177 0.128229
Si Si4 0.768079 0.403378 0.750000
Si Si5 0.237990 0.753147 0.934555
Si Si6 0.110092 0.867317 0.370712
Si Si7 0.610652 0.711149 0.750000
O O1 0.500000 0.907780 0.122196
O O2 0.367616 0.855543 0.191160
O O3 0.346749 0.815449 0.085877
O O4 0.326570 0.990418 0.123321
O O5 0.837289 0.505258 0.250000
O O6 0.000000 0.421491 0.250000
O O7 0.784443 0.086844 0.191451
O O8 0.774710 0.139858 0.087830
O O9 0.851076 0.971928 0.115343
O O10 0.826709 0.305686 0.750000
O O11 0.329898 0.709002 0.904904
O O12 0.250000 0.750000 0.000000
O O13 0.128788 0.848644 0.305515
O O14 0.000000 0.857674 0.380675
O O15 0.500000 0.737833 0.750000
#
# Coordination Sequence:
#
# PCOD9468201 Si02
#       7
#    16   8  16   8  16  16   8
#     4   9  20  37  59  85 115 144 184 238 295 349
#     4   8  15  30  53  85 114 138 174 226 288 355
#     4  10  21  37  59  86 113 150 188 236 293 351
#     4  10  16  30  58  87 113 147 178 225 296 348
#     4  11  24  40  57  82 115 156 206 246 282 335
#     4  10  22  39  59  87 119 153 192 242 294 354
#     4  10  18  32  58  90 119 145 184 233 292 359
#
# _framework density 18.342296999999999
#
# number of rings (size 3 to 8) (size 9 to 14) (size 15 to 20)
#    0.000    2.182    1.818    0.818    0.000    8.727 
#    0.000    1.818    0.000    3.273    0.000    0.000 
#    0.000    0.000    0.000    0.000    0.000    0.000 
#
# Total GULP energy -245511.679000 kJ/mol
# GULP energy per Si atom -5579.810886 kJ/mol
# Density = 1.830055 g / cm^3
# Si number density = 18.342297 Si / 1000 Ang^3
#
#
#
# Elastic Constant Matrix: (Units=GPa)
#
#
# Indices 1 2 3 4 5 6 
#
# 1 72.6004 7.2700 5.2704 0.0000 0.0000 0.0000
# 2 7.2700 76.1692 31.1462 0.0000 0.0000 0.0000
# 3 5.2704 31.1462 104.0123 0.0000 0.0000 0.0000
# 4 0.0000 0.0000 0.0000 -3.9759 0.0000 0.0000
# 5 0.0000 0.0000 0.0000 0.0000 19.1409 0.0000
# 6 0.0000 0.0000 0.0000 0.0000 0.0000 6.3330
#
#
#
# Elastic Compliance Matrix: (Units=1/GPa)
#
#
# Indices 1 2 3 4 5 6 
#
# 1 0.013918 -0.001185 -0.000350 0.000000 0.000000 0.000000
# 2 -0.001185 0.015061 -0.004450 0.000000 0.000000 0.000000
# 3 -0.000350 -0.004450 0.010965 0.000000 0.000000 0.000000
# 4 0.000000 0.000000 0.000000 -0.251517 0.000000 0.000000
# 5 0.000000 0.000000 0.000000 0.000000 0.052244 0.000000
# 6 0.000000 0.000000 0.000000 0.000000 0.000000 0.157904
#
#
# Mechanical properties :
#
#
# Convention : Reuss Voigt Hill
#
# Bulk Modulus (GPa) = 35.74873 37.79500 36.77187
# Shear Modulus (GPa) = 251.62110 18.23928 134.93019
#
# Velocity S-wave (km/s) = 11.72513 3.15681 8.58615
# Velocity P-wave (km/s) = 14.24208 5.82558 10.88058
#
# Compressibility (1/GPa) = 0.02797302
#
# Stress axis : x y z
#
# Youngs Moduli (GPa) = 71.84867 66.39469 91.20289
#
# Poissons Ratio (x) = 0.07869 0.03195
# Poissons Ratio (y) = 0.08515 0.40586
# Poissons Ratio (z) = 0.02517 0.29546
#
# Static dielectric constant tensor:
#      x y z
#    x 1.637330 0.000000 0.000000 
#    y 0.000000 1.604710 0.000000 
#    z 0.000000 0.000000 1.642960 
# 
# From -- ./inp_files/62720.got.cif
#   From: 2010.05.17/outbox.cif.g08.bks.cpg/sg63_32_cif.got.tgz:62720.got - 2010.06.03 15:47:04.
