data_PCOD9468025
_publ_section_title
;
Structure prediction by ZEFSAII (Michael W. Deem and Ramdas Pophale) SiO2 
 PCOD9468025
Probable space group: P N M A
;
_chemical_formula_sum "Si O2"
_cell_formula_units_Z 48
_cell_length_a 15.000000
_cell_length_b 15.000000
_cell_length_c 12.000000
_cell_angle_alpha 90.000000
_cell_angle_beta 90.000000
_cell_angle_gamma 90.000000
_cell_volume 2700.000000
_symmetry_space_group_name_H-M "P N M A"
_symmetry_group_IT_number 62
_symmetry_cell_setting 'orthorhombic'
loop_
_space_group_symop_operation_xyz
x,y,z
1/2-x,-y,1/2+z
1/2+x,1/2-y,1/2-z
-x,1/2+y,-z
-x,-y,-z
1/2+x,y,1/2-z
1/2-x,1/2+y,1/2+z
x,1/2-y,z
loop_
_atom_site_type_symbol
_atom_site_label
_atom_site_fract_x
_atom_site_fract_y
_atom_site_fract_z
Si Si1 0.395971 0.000891 0.460231
Si Si2 0.876274 0.138518 0.239810
Si Si3 0.471769 0.855492 0.082196
Si Si4 0.288064 0.983945 0.690546
Si Si5 0.449233 0.548435 0.856719
Si Si6 0.670484 0.355712 0.717277
O O1 0.372980 0.913106 0.384601
O O2 0.500000 0.000000 0.500000
O O3 0.379562 0.088916 0.382122
O O4 0.330370 0.997908 0.567578
O O5 0.875268 0.250000 0.238522
O O6 0.963325 0.096341 0.302433
O O7 0.790585 0.091212 0.300363
O O8 0.504034 0.750000 0.070349
O O9 0.400922 0.853432 0.182258
O O10 0.534024 0.942823 0.112180
O O11 0.430036 0.891827 0.966394
O O12 0.248919 0.078271 0.737864
O O13 0.368115 0.951903 0.770495
O O14 0.692380 0.250000 0.692242
#
# Coordination Sequence:
#
# PCOD9468025 Si02
#       6
#     8   8   8   8   8   8
#     4  11  22  44  67  96 132 174 214 274 332 389
#     4  11  25  43  63  98 132 169 221 267 329 400
#     4  10  21  39  66  92 123 166 214 263 317 380
#     4  11  24  42  66  92 131 171 212 265 330 386
#     4  11  22  42  66  92 131 168 212 271 323 382
#     4  10  23  41  63  97 130 168 219 268 325 395
#
# _framework density 17.777778000000001
#
# number of rings (size 3 to 8) (size 9 to 14) (size 15 to 20)
#    0.000    1.333    5.000    0.500    4.667    4.000 
#    0.000    0.000    0.000    0.000    0.000    0.000 
#    0.000    0.000    0.000    0.000    0.000    0.000 
#
# Total GULP energy -267438.607981 kJ/mol
# GULP energy per Si atom -5571.637666 kJ/mol
# Density = 1.773731 g / cm^3
# Si number density = 17.777778 Si / 1000 Ang^3
#
#
#
# Elastic Constant Matrix: (Units=GPa)
#
#
# Indices 1 2 3 4 5 6 
#
# 1 95.5343 48.2439 45.8344 0.0000 0.0000 0.0000
# 2 48.2439 199.4743 48.5337 0.0000 0.0000 0.0000
# 3 45.8344 48.5337 130.1774 0.0000 0.0000 0.0000
# 4 0.0000 0.0000 0.0000 34.9033 0.0000 0.0000
# 5 0.0000 0.0000 0.0000 0.0000 39.4528 0.0000
# 6 0.0000 0.0000 0.0000 0.0000 0.0000 28.7349
#
#
#
# Elastic Compliance Matrix: (Units=1/GPa)
#
#
# Indices 1 2 3 4 5 6 
#
# 1 0.013505 -0.002320 -0.003890 0.000000 0.000000 0.000000
# 2 -0.002320 0.005912 -0.001387 0.000000 0.000000 0.000000
# 3 -0.003890 -0.001387 0.009569 0.000000 0.000000 0.000000
# 4 0.000000 0.000000 0.000000 0.028651 0.000000 0.000000
# 5 0.000000 0.000000 0.000000 0.000000 0.025347 0.000000
# 6 0.000000 0.000000 0.000000 0.000000 0.000000 0.034801
#
#
# Mechanical properties :
#
#
# Convention : Reuss Voigt Hill
#
# Bulk Modulus (GPa) = 72.50989 78.93443 75.72216
# Shear Modulus (GPa) = 36.34360 39.45647 37.90003
#
# Velocity S-wave (km/s) = 4.52633 4.71619 4.62223
# Velocity P-wave (km/s) = 8.25786 8.61125 8.43640
#
# Compressibility (1/GPa) = 0.01379122
#
# Stress axis : x y z
#
# Youngs Moduli (GPa) = 74.04483 169.15403 104.50677
#
# Poissons Ratio (x) = 0.39241 0.40656
# Poissons Ratio (y) = 0.17177 0.14498
# Poissons Ratio (z) = 0.28805 0.23466
#
# Static dielectric constant tensor:
#      x y z
#    x 1.622930 0.000000 0.000000 
#    y 0.000000 1.613550 0.000000 
#    z 0.000000 0.000000 1.635910 
# 
# From -- ./inp_files/13239.got.cif
#   From: 2010.05.17/outbox.ucp.g08.bks.cvg/sg62_7_cif.got.tgz:13239.got - 2010.06.11 16:29:25.
