data_PCOD9468494
_publ_section_title
;
Structure prediction by ZEFSAII (Michael W. Deem and Ramdas Pophale) SiO2 
 PCOD9468494
Probable space group: C M C M
;
_chemical_formula_sum "Si O2"
_cell_formula_units_Z 72
_cell_length_a 24.069611
_cell_length_b 23.116182
_cell_length_c 9.219448
_cell_angle_alpha 90.000000
_cell_angle_beta 90.000000
_cell_angle_gamma 90.000000
_cell_volume 5129.677897
_symmetry_space_group_name_H-M "C M C M"
_symmetry_group_IT_number 63
_symmetry_cell_setting 'orthorhombic'
loop_
_space_group_symop_operation_xyz
x,y,z
-x,-y,1/2+z
x,-y,-z
-x,y,1/2-z
-x,-y,-z
x,y,1/2-z
-x,y,z
x,-y,1/2+z
1/2+x,1/2+y,z
1/2-x,1/2-y,1/2+z
1/2+x,1/2-y,-z
1/2-x,1/2+y,1/2-z
1/2-x,1/2-y,-z
1/2+x,1/2+y,1/2-z
1/2-x,1/2+y,z
1/2+x,1/2-y,1/2+z
loop_
_atom_site_type_symbol
_atom_site_label
_atom_site_fract_x
_atom_site_fract_y
_atom_site_fract_z
Si Si1 0.000000 0.437973 0.575465
Si Si2 0.273684 0.061657 0.077014
Si Si3 0.718141 0.334850 0.082688
Si Si4 0.388245 0.130167 0.422513
Si Si5 0.835986 0.734166 0.916798
O O1 0.000000 0.500000 0.500000
O O2 0.944720 0.402277 0.536518
O O3 0.000000 0.445675 0.750000
O O4 0.266014 0.057020 0.250000
O O5 0.335276 0.088425 0.051082
O O6 0.230912 0.107456 0.007620
O O7 0.269338 0.000000 0.000000
O O8 0.704158 0.346988 0.250000
O O9 0.776463 0.299261 0.082654
O O10 0.674026 0.292678 0.006412
O O11 0.389269 0.142241 0.250000
O O12 0.377798 0.189420 0.508067
O O13 0.850414 0.745843 0.750000
#
# Coordination Sequence:
#
# PCOD9468494 Si02
#       5
#     8  16  16  16  16
#     4  10  20  32  44  58  78 106 141 178 213 244
#     4  10  18  27  39  56  79 106 136 167 200 239
#     4   9  16  26  40  57  77 100 126 158 197 240
#     4   9  18  30  42  56  76 104 137 173 209 243
#     4   9  16  26  41  59  76  96 126 163 201 241
#
# _framework density 14.035969
#
# number of rings (size 3 to 8) (size 9 to 14) (size 15 to 20)
#    0.000    2.667    0.000    2.667    0.000    7.111 
#    0.000    0.000    0.000    0.000    0.000    0.000 
#    0.000    0.000    0.000    1.000    0.000   12.667 
#
# Total GULP energy -200617.243279 kJ/mol
# GULP energy per Si atom -5572.701202 kJ/mol
# Density = 1.400402 g / cm^3
# Si number density = 14.035969 Si / 1000 Ang^3
#
#
#
# Elastic Constant Matrix: (Units=GPa)
#
#
# Indices 1 2 3 4 5 6 
#
# 1 54.4142 57.7577 41.7905 0.0000 0.0000 0.0000
# 2 57.7577 126.0186 83.7935 0.0000 0.0000 0.0000
# 3 41.7905 83.7935 100.2515 0.0000 0.0000 0.0000
# 4 0.0000 0.0000 0.0000 30.7381 0.0000 0.0000
# 5 0.0000 0.0000 0.0000 0.0000 13.6935 0.0000
# 6 0.0000 0.0000 0.0000 0.0000 0.0000 19.0037
#
#
#
# Elastic Compliance Matrix: (Units=1/GPa)
#
#
# Indices 1 2 3 4 5 6 
#
# 1 0.036121 -0.014729 -0.002746 0.000000 0.000000 0.000000
# 2 -0.014729 0.023869 -0.013811 0.000000 0.000000 0.000000
# 3 -0.002746 -0.013811 0.022663 0.000000 0.000000 0.000000
# 4 0.000000 0.000000 0.000000 0.032533 0.000000 0.000000
# 5 0.000000 0.000000 0.000000 0.000000 0.073027 0.000000
# 6 0.000000 0.000000 0.000000 0.000000 0.000000 0.052621
#
#
# Mechanical properties :
#
#
# Convention : Reuss Voigt Hill
#
# Bulk Modulus (GPa) = 49.79790 71.92977 60.86384
# Shear Modulus (GPa) = 16.12379 19.17656 17.65018
#
# Velocity S-wave (km/s) = 3.39300 3.70028 3.54997
# Velocity P-wave (km/s) = 7.13482 8.34351 7.76273
#
# Compressibility (1/GPa) = 0.02008117
#
# Stress axis : x y z
#
# Youngs Moduli (GPa) = 27.68486 41.89467 44.12446
#
# Poissons Ratio (x) = 0.61708 0.12117
# Poissons Ratio (y) = 0.40778 0.60940
# Poissons Ratio (z) = 0.07602 0.57860
#
# Static dielectric constant tensor:
#      x y z
#    x 1.438450 0.000000 0.000000 
#    y 0.000000 1.443560 0.000000 
#    z 0.000000 0.000000 1.469880 
# 
# From -- ./inp_files/6113.got.cif
#   From: 2010.05.17/outbox.cif.g08.bks.cpg/sg63_4_cif.got.tgz:6113.got - 2010.06.03 15:47:04.
