data_PCOD9469729
_publ_section_title
;
Structure prediction by ZEFSAII (Michael W. Deem and Ramdas Pophale) SiO2 
 PCOD9469729
Probable space group: C M C M
;
_chemical_formula_sum "Si O2"
_cell_formula_units_Z 80
_cell_length_a 23.519124
_cell_length_b 24.954019
_cell_length_c 9.822111
_cell_angle_alpha 90.000000
_cell_angle_beta 90.000000
_cell_angle_gamma 90.000000
_cell_volume 5764.564210
_symmetry_space_group_name_H-M "C M C M"
_symmetry_group_IT_number 63
_symmetry_cell_setting 'orthorhombic'
loop_
_space_group_symop_operation_xyz
x,y,z
-x,-y,1/2+z
x,-y,-z
-x,y,1/2-z
-x,-y,-z
x,y,1/2-z
-x,y,z
x,-y,1/2+z
1/2+x,1/2+y,z
1/2-x,1/2-y,1/2+z
1/2+x,1/2-y,-z
1/2-x,1/2+y,1/2-z
1/2-x,1/2-y,-z
1/2+x,1/2+y,1/2-z
1/2-x,1/2+y,z
1/2+x,1/2-y,1/2+z
loop_
_atom_site_type_symbol
_atom_site_label
_atom_site_fract_x
_atom_site_fract_y
_atom_site_fract_z
Si Si1 0.383177 0.119698 0.964018
Si Si2 0.067333 0.460260 0.250000
Si Si3 0.164238 0.771219 0.411017
Si Si4 0.933359 0.262764 0.406341
Si Si5 0.222791 0.678863 0.909707
Si Si6 0.068179 0.412174 0.750000
O O1 0.406520 0.069810 0.879383
O O2 0.412253 0.175336 0.914833
O O3 0.315881 0.127235 0.938343
O O4 0.402056 0.112187 0.118176
O O5 0.076350 0.523664 0.250000
O O6 0.000000 0.450745 0.250000
O O7 0.156159 0.761910 0.250000
O O8 0.105052 0.771890 0.491157
O O9 0.196875 0.721845 0.484485
O O10 0.209178 0.819993 0.427442
O O11 0.925104 0.245316 0.250000
O O12 0.000000 0.260868 0.439065
O O13 0.213094 0.694493 0.750000
O O14 0.000000 0.401780 0.750000
#
# Coordination Sequence:
#
# PCOD9469729 Si02
#       6
#    16   8  16  16  16   8
#     4  11  19  32  45  59  77 105 141 176 208 247
#     4  11  20  34  48  55  74 108 139 174 219 257
#     4   9  17  27  42  62  81 101 131 172 205 233
#     4  10  19  30  43  60  84 113 140 164 200 249
#     4   9  17  30  43  58  79 104 134 166 206 250
#     4  11  24  32  40  61  82 100 135 184 223 245
#
# _framework density 13.877891999999999
#
# number of rings (size 3 to 8) (size 9 to 14) (size 15 to 20)
#    0.000    2.000    2.000    4.200    5.600    2.800 
#    0.000    0.000    0.000    0.000    0.000    0.000 
#    0.000    0.000    0.000    0.000    0.000    6.000 
#
# Total GULP energy -222709.344819 kJ/mol
# GULP energy per Si atom -5567.733620 kJ/mol
# Density = 1.384631 g / cm^3
# Si number density = 13.877892 Si / 1000 Ang^3
#
#
#
# Elastic Constant Matrix: (Units=GPa)
#
#
# Indices 1 2 3 4 5 6 
#
# 1 101.4802 29.6977 48.7172 0.0000 0.0000 0.0000
# 2 29.6977 25.8972 15.5555 0.0000 0.0000 0.0000
# 3 48.7172 15.5555 110.6172 0.0000 0.0000 0.0000
# 4 0.0000 0.0000 0.0000 22.4126 0.0000 0.0000
# 5 0.0000 0.0000 0.0000 0.0000 25.1126 0.0000
# 6 0.0000 0.0000 0.0000 0.0000 0.0000 16.3200
#
#
#
# Elastic Compliance Matrix: (Units=1/GPa)
#
#
# Indices 1 2 3 4 5 6 
#
# 1 0.017239 -0.016611 -0.005256 0.000000 0.000000 0.000000
# 2 -0.016611 0.058184 -0.000866 0.000000 0.000000 0.000000
# 3 -0.005256 -0.000866 0.011477 0.000000 0.000000 0.000000
# 4 0.000000 0.000000 0.000000 0.044618 0.000000 0.000000
# 5 0.000000 0.000000 0.000000 0.000000 0.039821 0.000000
# 6 0.000000 0.000000 0.000000 0.000000 0.000000 0.061275
#
#
# Mechanical properties :
#
#
# Convention : Reuss Voigt Hill
#
# Bulk Modulus (GPa) = 24.13609 47.32617 35.73113
# Shear Modulus (GPa) = 17.12974 22.37066 19.75020
#
# Velocity S-wave (km/s) = 3.51710 4.01928 3.77655
# Velocity P-wave (km/s) = 5.82433 7.46427 6.69471
#
# Compressibility (1/GPa) = 0.04143172
#
# Stress axis : x y z
#
# Youngs Moduli (GPa) = 58.00915 17.18699 87.13175
#
# Poissons Ratio (x) = 0.28550 0.45798
# Poissons Ratio (y) = 0.96361 0.07548
# Poissons Ratio (z) = 0.30491 0.01489
#
# Static dielectric constant tensor:
#      x y z
#    x 1.494610 0.000000 0.000000 
#    y 0.000000 1.433150 0.000000 
#    z 0.000000 0.000000 1.488450 
# 
# From -- ./inp_files/10366.got.cif
#   From: 2010.05.17/outbox.cif.g08.bks.cpg/sg63_6_cif.got.tgz:10366.got - 2010.06.03 15:47:04.
