data_PCOD9469663
_publ_section_title
;
Structure prediction by ZEFSAII (Michael W. Deem and Ramdas Pophale) SiO2 
 PCOD9469663
Probable space group: C M C M
;
_chemical_formula_sum "Si O2"
_cell_formula_units_Z 96
_cell_length_a 27.092601
_cell_length_b 23.301512
_cell_length_c 8.856059
_cell_angle_alpha 90.000000
_cell_angle_beta 90.000000
_cell_angle_gamma 90.000000
_cell_volume 5590.817359
_symmetry_space_group_name_H-M "C M C M"
_symmetry_group_IT_number 63
_symmetry_cell_setting 'orthorhombic'
loop_
_space_group_symop_operation_xyz
x,y,z
-x,-y,1/2+z
x,-y,-z
-x,y,1/2-z
-x,-y,-z
x,y,1/2-z
-x,y,z
x,-y,1/2+z
1/2+x,1/2+y,z
1/2-x,1/2-y,1/2+z
1/2+x,1/2-y,-z
1/2-x,1/2+y,1/2-z
1/2-x,1/2-y,-z
1/2+x,1/2+y,1/2-z
1/2-x,1/2+y,z
1/2+x,1/2-y,1/2+z
loop_
_atom_site_type_symbol
_atom_site_label
_atom_site_fract_x
_atom_site_fract_y
_atom_site_fract_z
Si Si1 0.639830 0.146300 0.580385
Si Si2 0.699620 0.264232 0.579803
Si Si3 0.383584 0.333422 0.427981
Si Si4 0.166688 0.936792 0.569479
Si Si5 0.720129 0.063411 0.431052
Si Si6 0.557246 0.779149 0.932004
O O1 0.629307 0.124800 0.750000
O O2 0.670898 0.204705 0.593064
O O3 0.676034 0.102814 0.493823
O O4 0.590400 0.169482 0.499256
O O5 0.704727 0.288993 0.750000
O O6 0.750000 0.250000 0.500000
O O7 0.667915 0.303184 0.469074
O O8 0.389986 0.342380 0.250000
O O9 0.375784 0.394105 0.509761
O O10 0.422757 0.284452 0.479306
O O11 0.164478 0.939620 0.750000
O O12 0.223384 0.917479 0.529015
O O13 0.160762 0.000000 0.500000
O O14 0.717266 0.061504 0.250000
O O15 0.714728 0.000000 0.500000
O O16 0.562215 0.780783 0.750000
O O17 0.500000 0.785046 0.972563
#
# Coordination Sequence:
#
# PCOD9469663 Si02
#       6
#    16  16  16  16  16  16
#     4  10  20  32  48  72 100 129 163 203 246 294
#     4  10  19  29  43  66  97 130 162 198 241 291
#     4  10  19  31  49  72  98 128 163 204 249 297
#     4  10  20  33  50  73 103 138 173 206 242 288
#     4  10  20  33  50  72 101 137 172 204 239 285
#     4   9  19  36  56  76  98 127 164 207 256 305
#
# _framework density 17.171014
#
# number of rings (size 3 to 8) (size 9 to 14) (size 15 to 20)
#    0.000    2.167    0.000    3.500    0.000    7.667 
#    0.000    0.000    0.000    1.000    0.000    0.000 
#    0.000    0.000    0.000    0.000    0.000    0.000 
#
# Total GULP energy -267414.378673 kJ/mol
# GULP energy per Si atom -5571.132889 kJ/mol
# Density = 1.713193 g / cm^3
# Si number density = 17.171014 Si / 1000 Ang^3
#
#
#
# Elastic Constant Matrix: (Units=GPa)
#
#
# Indices 1 2 3 4 5 6 
#
# 1 47.7663 7.8491 19.4875 0.0000 0.0000 0.0000
# 2 7.8491 63.9322 22.7096 0.0000 0.0000 0.0000
# 3 19.4875 22.7096 58.4259 0.0000 0.0000 0.0000
# 4 0.0000 0.0000 0.0000 31.9554 0.0000 0.0000
# 5 0.0000 0.0000 0.0000 0.0000 17.7520 0.0000
# 6 0.0000 0.0000 0.0000 0.0000 0.0000 24.4429
#
#
#
# Elastic Compliance Matrix: (Units=1/GPa)
#
#
# Indices 1 2 3 4 5 6 
#
# 1 0.024234 -0.000121 -0.008036 0.000000 0.000000 0.000000
# 2 -0.000121 0.018148 -0.007014 0.000000 0.000000 0.000000
# 3 -0.008036 -0.007014 0.022522 0.000000 0.000000 0.000000
# 4 0.000000 0.000000 0.000000 0.031294 0.000000 0.000000
# 5 0.000000 0.000000 0.000000 0.000000 0.056332 0.000000
# 6 0.000000 0.000000 0.000000 0.000000 0.000000 0.040912
#
#
# Mechanical properties :
#
#
# Convention : Reuss Voigt Hill
#
# Bulk Modulus (GPa) = 28.93279 30.02410 29.47844
# Shear Modulus (GPa) = 21.24931 22.83530 22.04231
#
# Velocity S-wave (km/s) = 3.52164 3.65070 3.58675
# Velocity P-wave (km/s) = 5.78120 5.94083 5.86156
#
# Compressibility (1/GPa) = 0.03456287
#
# Stress axis : x y z
#
# Youngs Moduli (GPa) = 41.26499 55.10338 44.40073
#
# Poissons Ratio (x) = 0.00665 0.35680
# Poissons Ratio (y) = 0.00498 0.31141
# Poissons Ratio (z) = 0.33161 0.38647
#
# Static dielectric constant tensor:
#      x y z
#    x 1.547850 0.000000 0.000000 
#    y 0.000000 1.595390 0.000000 
#    z 0.000000 0.000000 1.619700 
# 
# From -- ./inp_files/10421.got.cif
#   From: 2010.05.17/outbox.cif.g08.bks.cpg/sg63_6_cif.got.tgz:10421.got - 2010.06.03 15:47:04.
