data_PCOD9469479
_publ_section_title
;
Structure prediction by ZEFSAII (Michael W. Deem and Ramdas Pophale) SiO2 
 PCOD9469479
Probable space group: C M C M
;
_chemical_formula_sum "Si O2"
_cell_formula_units_Z 88
_cell_length_a 28.567447
_cell_length_b 20.153492
_cell_length_c 7.629249
_cell_angle_alpha 90.000000
_cell_angle_beta 90.000000
_cell_angle_gamma 90.000000
_cell_volume 4392.416629
_symmetry_space_group_name_H-M "C M C M"
_symmetry_group_IT_number 63
_symmetry_cell_setting 'orthorhombic'
loop_
_space_group_symop_operation_xyz
x,y,z
-x,-y,1/2+z
x,-y,-z
-x,y,1/2-z
-x,-y,-z
x,y,1/2-z
-x,y,z
x,-y,1/2+z
1/2+x,1/2+y,z
1/2-x,1/2-y,1/2+z
1/2+x,1/2-y,-z
1/2-x,1/2+y,1/2-z
1/2-x,1/2-y,-z
1/2+x,1/2+y,1/2-z
1/2-x,1/2+y,z
1/2+x,1/2-y,1/2+z
loop_
_atom_site_type_symbol
_atom_site_label
_atom_site_fract_x
_atom_site_fract_y
_atom_site_fract_z
Si Si1 0.415908 0.329373 0.038729
Si Si2 0.000000 0.922235 0.460620
Si Si3 0.553036 0.817418 0.964219
Si Si4 0.128465 0.424069 0.539165
Si Si5 0.714493 0.846895 0.953324
Si Si6 0.812868 0.798525 0.958174
O O1 0.417803 0.329562 0.250000
O O2 0.453224 0.384008 0.975530
O O3 0.432012 0.256213 0.978814
O O4 0.361505 0.335663 0.989728
O O5 0.000000 0.915567 0.250000
O O6 0.000000 0.000000 0.500000
O O7 0.553761 0.816884 0.750000
O O8 0.500000 0.831046 0.018611
O O9 0.588997 0.873286 0.025359
O O10 0.118321 0.500000 0.500000
O O11 0.129856 0.416586 0.750000
O O12 0.179012 0.400377 0.469065
O O13 0.721682 0.864454 0.750000
O O14 0.766336 0.835319 0.028177
O O15 0.688265 0.775517 0.962206
O O16 0.807101 0.789074 0.750000
#
# Coordination Sequence:
#
# PCOD9469479 Si02
#       6
#    16   8  16  16  16  16
#     4  10  18  34  58  81 105 140 181 214 260 325
#     4  10  22  38  60  84 109 144 180 217 268 333
#     4   9  16  30  54  78  99 133 182 220 252 306
#     4  10  20  34  52  73 104 143 178 219 264 310
#     4   9  18  34  52  73 104 143 179 214 264 324
#     4  10  19  30  52  83 108 131 171 228 273 306
#
# _framework density 20.034528999999999
#
# number of rings (size 3 to 8) (size 9 to 14) (size 15 to 20)
#    0.000    2.364    2.727    0.545    0.000    2.545 
#    0.000    0.909    0.000    5.455    0.000    0.000 
#    0.000    0.000    0.000    0.000    0.000    0.000 
#
# Total GULP energy -245499.086301 kJ/mol
# GULP energy per Si atom -5579.524689 kJ/mol
# Density = 1.998893 g / cm^3
# Si number density = 20.034529 Si / 1000 Ang^3
#
#
#
# Elastic Constant Matrix: (Units=GPa)
#
#
# Indices 1 2 3 4 5 6 
#
# 1 165.1428 81.4320 -1.4488 0.0000 0.0000 0.0000
# 2 81.4320 132.0644 -3.3507 0.0000 0.0000 0.0000
# 3 -1.4488 -3.3507 39.6881 0.0000 0.0000 0.0000
# 4 0.0000 0.0000 0.0000 19.4018 0.0000 0.0000
# 5 0.0000 0.0000 0.0000 0.0000 12.3155 0.0000
# 6 0.0000 0.0000 0.0000 0.0000 0.0000 31.5620
#
#
#
# Elastic Compliance Matrix: (Units=1/GPa)
#
#
# Indices 1 2 3 4 5 6 
#
# 1 0.008702 -0.005369 -0.000136 0.000000 0.000000 0.000000
# 2 -0.005369 0.010901 0.000724 0.000000 0.000000 0.000000
# 3 -0.000136 0.000724 0.025253 0.000000 0.000000 0.000000
# 4 0.000000 0.000000 0.000000 0.051542 0.000000 0.000000
# 5 0.000000 0.000000 0.000000 0.000000 0.081199 0.000000
# 6 0.000000 0.000000 0.000000 0.000000 0.000000 0.031684
#
#
# Mechanical properties :
#
#
# Convention : Reuss Voigt Hill
#
# Bulk Modulus (GPa) = 28.33277 54.46225 41.39751
# Shear Modulus (GPa) = 21.68215 30.00671 25.84443
#
# Velocity S-wave (km/s) = 3.29331 3.87428 3.59555
# Velocity P-wave (km/s) = 5.35106 6.87434 6.15997
#
# Compressibility (1/GPa) = 0.03529482
#
# Stress axis : x y z
#
# Youngs Moduli (GPa) = 114.92149 91.73501 39.59977
#
# Poissons Ratio (x) = 0.49252 0.00537
# Poissons Ratio (y) = 0.61700 -0.02868
# Poissons Ratio (z) = 0.01559 -0.06645
#
# Static dielectric constant tensor:
#      x y z
#    x 1.735470 0.000000 0.000000 
#    y 0.000000 1.670690 0.000000 
#    z 0.000000 0.000000 1.760620 
# 
# From -- ./inp_files/14245.got.cif
#   From: 2010.05.17/outbox.cif.g08.bks.cpg/sg63_8_cif.got.tgz:14245.got - 2010.06.03 15:47:04.
