data_PCOD9469129
_publ_section_title
;
Structure prediction by ZEFSAII (Michael W. Deem and Ramdas Pophale) SiO2 
 PCOD9469129
Probable space group: C M C M
;
_chemical_formula_sum "Si O2"
_cell_formula_units_Z 80
_cell_length_a 7.335093
_cell_length_b 25.772630
_cell_length_c 18.775107
_cell_angle_alpha 90.000000
_cell_angle_beta 90.000000
_cell_angle_gamma 90.000000
_cell_volume 3549.333304
_symmetry_space_group_name_H-M "C M C M"
_symmetry_group_IT_number 63
_symmetry_cell_setting 'orthorhombic'
loop_
_space_group_symop_operation_xyz
x,y,z
-x,-y,1/2+z
x,-y,-z
-x,y,1/2-z
-x,-y,-z
x,y,1/2-z
-x,y,z
x,-y,1/2+z
1/2+x,1/2+y,z
1/2-x,1/2-y,1/2+z
1/2+x,1/2-y,-z
1/2-x,1/2+y,1/2-z
1/2-x,1/2-y,-z
1/2+x,1/2+y,1/2-z
1/2-x,1/2+y,z
1/2+x,1/2-y,1/2+z
loop_
_atom_site_type_symbol
_atom_site_label
_atom_site_fract_x
_atom_site_fract_y
_atom_site_fract_z
Si Si1 0.221113 0.330583 0.668385
Si Si2 0.222451 0.016732 0.830003
Si Si3 0.210075 0.072688 0.067410
Si Si4 0.217266 0.768146 0.419108
Si Si5 0.277169 0.614429 0.583637
O O1 0.279005 0.336402 0.750000
O O2 0.283805 0.377893 0.619396
O O3 0.284632 0.276483 0.633849
O O4 0.000000 0.331143 0.666988
O O5 0.282724 0.004300 0.750000
O O6 0.272668 0.074488 0.854472
O O7 0.000000 0.014067 0.829640
O O8 0.288116 0.975573 0.888739
O O9 0.000000 0.058650 0.052569
O O10 0.286657 0.090301 0.991556
O O11 0.250000 0.750000 0.500000
O O12 0.286649 0.826510 0.408341
O O13 0.000000 0.770396 0.408838
O O14 0.500000 0.616312 0.581015
#
# Coordination Sequence:
#
# PCOD9469129 Si02
#       5
#    16  16  16  16  16
#     4  10  21  34  49  73 104 134 164 202 248 295
#     4   9  17  28  45  73 104 130 161 206 254 295
#     4  10  18  31  52  76 100 128 166 207 247 294
#     4  10  19  33  52  73  98 131 167 203 245 291
#     4   9  17  29  48  72  98 129 164 205 249 291
#
# _framework density 22.539444
#
# number of rings (size 3 to 8) (size 9 to 14) (size 15 to 20)
#    0.000    2.400    2.000    1.200    0.000    4.400 
#    0.000    4.000    0.000    3.600    0.000    0.000 
#    0.000    0.000    0.000    0.000    0.000    0.000 
#
# Total GULP energy -223559.521086 kJ/mol
# GULP energy per Si atom -5588.988027 kJ/mol
# Density = 2.248814 g / cm^3
# Si number density = 22.539444 Si / 1000 Ang^3
#
#
#
# Elastic Constant Matrix: (Units=GPa)
#
#
# Indices 1 2 3 4 5 6 
#
# 1 88.0615 -3.8420 -7.9783 0.0000 0.0000 0.0000
# 2 -3.8420 127.2312 -6.4528 0.0000 0.0000 0.0000
# 3 -7.9783 -6.4528 44.0707 0.0000 0.0000 0.0000
# 4 0.0000 0.0000 0.0000 -6.6235 0.0000 0.0000
# 5 0.0000 0.0000 0.0000 0.0000 3.5165 0.0000
# 6 0.0000 0.0000 0.0000 0.0000 0.0000 8.1029
#
#
#
# Elastic Compliance Matrix: (Units=1/GPa)
#
#
# Indices 1 2 3 4 5 6 
#
# 1 0.011572 0.000459 0.002162 0.000000 0.000000 0.000000
# 2 0.000459 0.007937 0.001245 0.000000 0.000000 0.000000
# 3 0.002162 0.001245 0.023265 0.000000 0.000000 0.000000
# 4 0.000000 0.000000 0.000000 -0.150978 0.000000 0.000000
# 5 0.000000 0.000000 0.000000 0.000000 0.284377 0.000000
# 6 0.000000 0.000000 0.000000 0.000000 0.000000 0.123413
#
#
# Mechanical properties :
#
#
# Convention : Reuss Voigt Hill
#
# Bulk Modulus (GPa) = 19.79977 24.75745 22.27861
# Shear Modulus (GPa) = 16.19766 19.50827 17.85296
#
# Velocity S-wave (km/s) = 2.68365 2.94516 2.81744
# Velocity P-wave (km/s) = 4.29024 4.75112 4.52655
#
# Compressibility (1/GPa) = 0.05050562
#
# Stress axis : x y z
#
# Youngs Moduli (GPa) = 86.41836 125.99654 42.98383
#
# Poissons Ratio (x) = -0.05784 -0.09293
# Poissons Ratio (y) = -0.03967 -0.05352
# Poissons Ratio (z) = -0.18684 -0.15689
#
# Static dielectric constant tensor:
#      x y z
#    x 1.829500 0.000000 0.000000 
#    y 0.000000 1.797190 0.000000 
#    z 0.000000 0.000000 1.265290 
# 
# From -- ./inp_files/29687.got.cif
#   From: 2010.05.17/outbox.cif.g08.bks.cpg/sg63_15_cif.got.tgz:29687.got - 2010.06.03 15:47:04.
