data_PCOD9469141
_publ_section_title
;
Structure prediction by ZEFSAII (Michael W. Deem and Ramdas Pophale) SiO2 
 PCOD9469141
Probable space group: C M C M
;
_chemical_formula_sum "Si O2"
_cell_formula_units_Z 64
_cell_length_a 8.472803
_cell_length_b 39.320290
_cell_length_c 10.556704
_cell_angle_alpha 90.000000
_cell_angle_beta 90.000000
_cell_angle_gamma 90.000000
_cell_volume 3516.998358
_symmetry_space_group_name_H-M "C M C M"
_symmetry_group_IT_number 63
_symmetry_cell_setting 'orthorhombic'
loop_
_space_group_symop_operation_xyz
x,y,z
-x,-y,1/2+z
x,-y,-z
-x,y,1/2-z
-x,-y,-z
x,y,1/2-z
-x,y,z
x,-y,1/2+z
1/2+x,1/2+y,z
1/2-x,1/2-y,1/2+z
1/2+x,1/2-y,-z
1/2-x,1/2+y,1/2-z
1/2-x,1/2-y,-z
1/2+x,1/2+y,1/2-z
1/2-x,1/2+y,z
1/2+x,1/2-y,1/2+z
loop_
_atom_site_type_symbol
_atom_site_label
_atom_site_fract_x
_atom_site_fract_y
_atom_site_fract_z
Si Si1 0.688865 0.276301 0.604315
Si Si2 0.690765 0.420468 0.502986
Si Si3 0.311266 0.851495 0.896026
Si Si4 0.192664 0.037557 0.250000
Si Si5 0.692916 0.459152 0.250000
O O1 0.743376 0.269172 0.750000
O O2 0.500000 0.275372 0.604829
O O3 0.750000 0.250000 0.500000
O O4 0.744714 0.314428 0.571619
O O5 0.500000 0.419902 0.503607
O O6 0.750359 0.382157 0.518365
O O7 0.743447 0.442302 0.624815
O O8 0.743186 0.439198 0.375497
O O9 0.261710 0.858736 0.750000
O O10 0.500000 0.850209 0.900178
O O11 0.000000 0.037305 0.250000
O O12 0.244412 0.998392 0.250000
O O13 0.500000 0.459691 0.250000
#
# Coordination Sequence:
#
# PCOD9469141 Si02
#       5
#    16  16  16   8   8
#     4  10  21  38  61  88 116 145 182 224 270 324
#     4  10  18  31  52  77 104 136 178 222 269 322
#     4  10  20  35  56  79 106 142 184 225 266 315
#     4   9  16  28  51  77 102 135 176 221 269 325
#     4   9  18  30  47  77 110 135 168 223 279 321
#
# _framework density 18.197336
#
# number of rings (size 3 to 8) (size 9 to 14) (size 15 to 20)
#    0.000    2.250    1.250    2.250    0.000    5.500 
#    2.250    0.625    0.000    4.500    0.000    0.000 
#    0.000    0.000    0.000    0.000    0.000    0.000 
#
# Total GULP energy -178603.852340 kJ/mol
# GULP energy per Si atom -5581.370386 kJ/mol
# Density = 1.815592 g / cm^3
# Si number density = 18.197336 Si / 1000 Ang^3
#
#
#
# Elastic Constant Matrix: (Units=GPa)
#
#
# Indices 1 2 3 4 5 6 
#
# 1 20.2142 27.5072 25.3532 0.0000 0.0000 0.0000
# 2 27.5072 180.5460 109.5569 0.0000 0.0000 0.0000
# 3 25.3532 109.5569 149.7069 0.0000 0.0000 0.0000
# 4 0.0000 0.0000 0.0000 34.5066 0.0000 0.0000
# 5 0.0000 0.0000 0.0000 0.0000 15.1233 0.0000
# 6 0.0000 0.0000 0.0000 0.0000 0.0000 21.5459
#
#
#
# Elastic Compliance Matrix: (Units=1/GPa)
#
#
# Indices 1 2 3 4 5 6 
#
# 1 0.066129 -0.005899 -0.006882 0.000000 0.000000 0.000000
# 2 -0.005899 0.010489 -0.006677 0.000000 0.000000 0.000000
# 3 -0.006882 -0.006677 0.012732 0.000000 0.000000 0.000000
# 4 0.000000 0.000000 0.000000 0.028980 0.000000 0.000000
# 5 0.000000 0.000000 0.000000 0.000000 0.066123 0.000000
# 6 0.000000 0.000000 0.000000 0.000000 0.000000 0.046413
#
#
# Mechanical properties :
#
#
# Convention : Reuss Voigt Hill
#
# Bulk Modulus (GPa) = 19.82805 75.03352 47.43078
# Shear Modulus (GPa) = 17.44630 26.77181 22.10905
#
# Velocity S-wave (km/s) = 3.09969 3.83978 3.48941
# Velocity P-wave (km/s) = 4.87140 7.80905 6.50814
#
# Compressibility (1/GPa) = 0.05043362
#
# Stress axis : x y z
#
# Youngs Moduli (GPa) = 15.12185 95.33598 78.54463
#
# Poissons Ratio (x) = 0.56238 0.54056
# Poissons Ratio (y) = 0.08920 0.52445
# Poissons Ratio (z) = 0.10407 0.63657
#
# Static dielectric constant tensor:
#      x y z
#    x 1.623720 0.000000 0.000000 
#    y 0.000000 1.591240 0.000000 
#    z 0.000000 0.000000 1.623150 
# 
# From -- ./inp_files/16276.got.cif
#   From: 2010.05.17/outbox.cif.g08.bks.cpg/sg63_9_cif.got.tgz:16276.got - 2010.06.03 15:47:04.
