data_PCOD9469277
_publ_section_title
;
Structure prediction by ZEFSAII (Michael W. Deem and Ramdas Pophale) SiO2 
 PCOD9469277
Probable space group: C M C M
;
_chemical_formula_sum "Si O2"
_cell_formula_units_Z 68
_cell_length_a 7.062244
_cell_length_b 13.962947
_cell_length_c 24.267202
_cell_angle_alpha 90.000000
_cell_angle_beta 90.000000
_cell_angle_gamma 90.000000
_cell_volume 2392.982448
_symmetry_space_group_name_H-M "C M C M"
_symmetry_group_IT_number 63
_symmetry_cell_setting 'orthorhombic'
loop_
_space_group_symop_operation_xyz
x,y,z
-x,-y,1/2+z
x,-y,-z
-x,y,1/2-z
-x,-y,-z
x,y,1/2-z
-x,y,z
x,-y,1/2+z
1/2+x,1/2+y,z
1/2-x,1/2-y,1/2+z
1/2+x,1/2-y,-z
1/2-x,1/2+y,1/2-z
1/2-x,1/2-y,-z
1/2+x,1/2+y,1/2-z
1/2-x,1/2+y,z
1/2+x,1/2-y,1/2+z
loop_
_atom_site_type_symbol
_atom_site_label
_atom_site_fract_x
_atom_site_fract_y
_atom_site_fract_z
Si Si1 0.721067 0.617342 0.807944
Si Si2 0.772556 0.915252 0.429890
Si Si3 0.274387 0.362308 0.543835
Si Si4 0.774398 0.833854 0.834164
Si Si5 0.500000 0.938210 0.750000
O O1 0.812783 0.582403 0.750000
O O2 0.500000 0.589710 0.807228
O O3 0.799568 0.596481 0.868222
O O4 0.734958 0.732155 0.806524
O O5 0.706298 0.848225 0.480681
O O6 0.000000 0.903396 0.427444
O O7 0.736312 0.024988 0.445377
O O8 0.500000 0.350681 0.541900
O O9 0.211611 0.318651 0.601887
O O10 0.663703 0.912979 0.799659
O O11 0.000000 0.854070 0.834279
#
# Coordination Sequence:
#
# PCOD9469277 Si02
#       5
#    16  16  16  16   4
#     4  10  18  32  52  81 115 154 189 233 286 334
#     4   8  15  31  56  81 117 153 193 234 279 336
#     4   8  16  32  55  86 111 151 197 235 278 334
#     4  11  21  36  61  84 113 149 192 233 283 337
#     4  12  22  40  56  84 116 154 184 234 288 338
#
# _framework density 28.416423000000002
#
# number of rings (size 3 to 8) (size 9 to 14) (size 15 to 20)
#    0.000    2.588    2.353    1.765    0.000    0.941 
#    2.118    0.000    5.176    1.412    0.000    0.000 
#    0.000    0.000    0.000    0.000    0.000    0.000 
#
# Total GULP energy -189748.287046 kJ/mol
# GULP energy per Si atom -5580.831972 kJ/mol
# Density = 2.835175 g / cm^3
# Si number density = 28.416423 Si / 1000 Ang^3
#
#
#
# Elastic Constant Matrix: (Units=GPa)
#
#
# Indices 1 2 3 4 5 6 
#
# 1 216.0894 -36.5380 17.7293 0.0000 0.0000 0.0000
# 2 -36.5380 51.0109 27.7405 0.0000 0.0000 0.0000
# 3 17.7293 27.7405 368.6877 0.0000 0.0000 0.0000
# 4 0.0000 0.0000 0.0000 69.8206 0.0000 0.0000
# 5 0.0000 0.0000 0.0000 0.0000 -2.8762 0.0000
# 6 0.0000 0.0000 0.0000 0.0000 0.0000 61.7040
#
#
#
# Elastic Compliance Matrix: (Units=1/GPa)
#
#
# Indices 1 2 3 4 5 6 
#
# 1 0.005379 0.004164 -0.000572 0.000000 0.000000 0.000000
# 2 0.004164 0.023663 -0.001981 0.000000 0.000000 0.000000
# 3 -0.000572 -0.001981 0.002889 0.000000 0.000000 0.000000
# 4 0.000000 0.000000 0.000000 0.014322 0.000000 0.000000
# 5 0.000000 0.000000 0.000000 0.000000 -0.347686 0.000000
# 6 0.000000 0.000000 0.000000 0.000000 0.000000 0.016206
#
#
# Mechanical properties :
#
#
# Convention : Reuss Voigt Hill
#
# Bulk Modulus (GPa) = 28.44733 72.62797 50.53765
# Shear Modulus (GPa) = -18.06805 67.52009 24.72602
#
# Velocity S-wave (km/s) = -2.52431 4.87981 2.95300
# Velocity P-wave (km/s) = 1.23954 7.57390 5.42680
#
# Compressibility (1/GPa) = 0.03515268
#
# Stress axis : x y z
#
# Youngs Moduli (GPa) = 185.92013 42.25993 346.15824
#
# Poissons Ratio (x) = -0.17595 0.19798
# Poissons Ratio (y) = -0.77410 0.68562
# Poissons Ratio (z) = 0.10633 0.08370
#
# Static dielectric constant tensor:
#      x y z
#    x 2.142070 0.000000 0.000000 
#    y 0.000000 2.317110 0.000000 
#    z 0.000000 0.000000 2.242300 
# 
# From -- ./inp_files/59268.got.cif
#   From: 2010.05.17/outbox.cif.g08.bks.cpg/sg63_30_cif.got.tgz:59268.got - 2010.06.03 15:47:04.
