data_PCOD9469823
_publ_section_title
;
Structure prediction by ZEFSAII (Michael W. Deem and Ramdas Pophale) SiO2 
 PCOD9469823
Probable space group: C M C M
;
_chemical_formula_sum "Si O2"
_cell_formula_units_Z 128
_cell_length_a 10.126812
_cell_length_b 25.700535
_cell_length_c 27.388046
_cell_angle_alpha 90.000000
_cell_angle_beta 90.000000
_cell_angle_gamma 90.000000
_cell_volume 7128.135721
_symmetry_space_group_name_H-M "C M C M"
_symmetry_group_IT_number 63
_symmetry_cell_setting 'orthorhombic'
loop_
_space_group_symop_operation_xyz
x,y,z
-x,-y,1/2+z
x,-y,-z
-x,y,1/2-z
-x,-y,-z
x,y,1/2-z
-x,y,z
x,-y,1/2+z
1/2+x,1/2+y,z
1/2-x,1/2-y,1/2+z
1/2+x,1/2-y,-z
1/2-x,1/2+y,1/2-z
1/2-x,1/2-y,-z
1/2+x,1/2+y,1/2-z
1/2-x,1/2+y,z
1/2+x,1/2-y,1/2+z
loop_
_atom_site_type_symbol
_atom_site_label
_atom_site_fract_x
_atom_site_fract_y
_atom_site_fract_z
Si Si1 0.660151 0.024657 0.195972
Si Si2 0.154753 0.639597 0.171675
Si Si3 0.660712 0.072325 0.632162
Si Si4 0.279268 0.250919 0.804186
Si Si5 0.656002 0.125999 0.961214
Si Si6 0.344312 0.829079 0.560908
Si Si7 0.646742 0.356265 0.306834
Si Si8 0.854031 0.261134 0.413895
O O1 0.699100 0.005905 0.250000
O O2 0.500000 0.027022 0.194796
O O3 0.697162 0.983489 0.154614
O O4 0.706954 0.083717 0.188623
O O5 0.224974 0.690485 0.192701
O O6 0.164783 0.642633 0.112977
O O7 0.000000 0.643097 0.184872
O O8 0.500000 0.078989 0.635871
O O9 0.702711 0.081793 0.576085
O O10 0.737498 0.115101 0.664150
O O11 0.340568 0.243511 0.750000
O O12 0.168031 0.206032 0.808058
O O13 0.355505 0.242263 0.854956
O O14 0.500000 0.116229 0.967132
O O15 0.671571 0.180534 0.932294
O O16 0.705998 0.136173 0.015752
O O17 0.500000 0.816451 0.552939
O O18 0.257566 0.777249 0.566030
O O19 0.654440 0.371557 0.250000
O O20 0.500000 0.368992 0.325586
O O21 0.000000 0.245987 0.431932
#
# Coordination Sequence:
#
# PCOD9469823 Si02
#       8
#    16  16  16  16  16  16  16  16
#     4   9  17  29  48  73  98 128 169 209 244 291
#     4   9  17  30  48  72 100 130 166 208 251 295
#     4  10  19  33  51  72  99 132 167 203 245 295
#     4  10  19  30  47  71 101 135 165 198 248 302
#     4   9  17  31  48  70 100 131 164 206 250 293
#     4   9  18  32  51  72  97 130 167 208 253 295
#     4  10  20  32  47  71 102 133 165 203 247 296
#     4  10  19  32  48  70 102 135 166 202 243 295
#
# _framework density 17.957008999999999
#
# number of rings (size 3 to 8) (size 9 to 14) (size 15 to 20)
#    0.000    2.500    1.250    1.500    0.000    2.750 
#    0.000    2.500    0.000    6.750    0.000    0.000 
#    0.000    5.000    0.000    0.000    0.000    0.000 
#
# Total GULP energy -356313.960789 kJ/mol
# GULP energy per Si atom -5567.405637 kJ/mol
# Density = 1.791614 g / cm^3
# Si number density = 17.957009 Si / 1000 Ang^3
#
#
#
# Elastic Constant Matrix: (Units=GPa)
#
#
# Indices 1 2 3 4 5 6 
#
# 1 36.5777 11.5272 6.6583 0.0000 0.0000 0.0000
# 2 11.5272 53.4600 3.8237 0.0000 0.0000 0.0000
# 3 6.6583 3.8237 70.0265 0.0000 0.0000 0.0000
# 4 0.0000 0.0000 0.0000 11.8043 0.0000 0.0000
# 5 0.0000 0.0000 0.0000 0.0000 6.7084 0.0000
# 6 0.0000 0.0000 0.0000 0.0000 0.0000 13.1589
#
#
#
# Elastic Compliance Matrix: (Units=1/GPa)
#
#
# Indices 1 2 3 4 5 6 
#
# 1 0.029758 -0.006239 -0.002489 0.000000 0.000000 0.000000
# 2 -0.006239 0.020087 -0.000504 0.000000 0.000000 0.000000
# 3 -0.002489 -0.000504 0.014544 0.000000 0.000000 0.000000
# 4 0.000000 0.000000 0.000000 0.084715 0.000000 0.000000
# 5 0.000000 0.000000 0.000000 0.000000 0.149067 0.000000
# 6 0.000000 0.000000 0.000000 0.000000 0.000000 0.075994
#
#
# Mechanical properties :
#
#
# Convention : Reuss Voigt Hill
#
# Bulk Modulus (GPa) = 21.77351 22.67583 22.22467
# Shear Modulus (GPa) = 12.25679 15.53797 13.89738
#
# Velocity S-wave (km/s) = 2.61542 2.94477 2.78497
# Velocity P-wave (km/s) = 4.61219 4.92112 4.76916
#
# Compressibility (1/GPa) = 0.04592737
#
# Stress axis : x y z
#
# Youngs Moduli (GPa) = 33.60428 49.78397 68.75469
#
# Poissons Ratio (x) = 0.31058 0.17112
# Poissons Ratio (y) = 0.20964 0.03463
# Poissons Ratio (z) = 0.08364 0.02507
#
# Static dielectric constant tensor:
#      x y z
#    x 1.604930 0.000000 0.000000 
#    y 0.000000 1.606710 0.000000 
#    z 0.000000 0.000000 1.661290 
# 
# From -- ./inp_files/68800.got.cif
#   From: 2010.05.17/outbox.cif.g08.bks.cpg/sg63_35_cif.got.tgz:68800.got - 2010.06.03 15:47:04.
