data_PCOD9469636
_publ_section_title
;
Structure prediction by ZEFSAII (Michael W. Deem and Ramdas Pophale) SiO2 
 PCOD9469636
Probable space group: C M C M
;
_chemical_formula_sum "Si O2"
_cell_formula_units_Z 104
_cell_length_a 25.824561
_cell_length_b 20.115572
_cell_length_c 7.265845
_cell_angle_alpha 90.000000
_cell_angle_beta 90.000000
_cell_angle_gamma 90.000000
_cell_volume 3774.430761
_symmetry_space_group_name_H-M "C M C M"
_symmetry_group_IT_number 63
_symmetry_cell_setting 'orthorhombic'
loop_
_space_group_symop_operation_xyz
x,y,z
-x,-y,1/2+z
x,-y,-z
-x,y,1/2-z
-x,-y,-z
x,y,1/2-z
-x,y,z
x,-y,1/2+z
1/2+x,1/2+y,z
1/2-x,1/2-y,1/2+z
1/2+x,1/2-y,-z
1/2-x,1/2+y,1/2-z
1/2-x,1/2-y,-z
1/2+x,1/2+y,1/2-z
1/2-x,1/2+y,z
1/2+x,1/2-y,1/2+z
loop_
_atom_site_type_symbol
_atom_site_label
_atom_site_fract_x
_atom_site_fract_y
_atom_site_fract_z
Si Si1 0.943827 0.102875 0.027907
Si Si2 0.168288 0.892985 0.974461
Si Si3 0.556632 0.761795 0.028472
Si Si4 0.171341 0.262006 0.028518
Si Si5 0.389931 0.078194 0.469228
Si Si6 0.000000 0.579777 0.030579
Si Si7 0.778539 0.608685 0.459951
O O1 0.944100 0.095620 0.250000
O O2 0.887114 0.078318 0.963273
O O3 0.942788 0.182004 0.988132
O O4 0.000000 0.077249 0.961153
O O5 0.168355 0.895687 0.750000
O O6 0.171473 0.814910 0.025564
O O7 0.224580 0.917733 0.038229
O O8 0.556237 0.764676 0.250000
O O9 0.500000 0.784451 0.958486
O O10 0.613575 0.786693 0.967797
O O11 0.173440 0.263952 0.250000
O O12 0.215774 0.310704 0.955664
O O13 0.389077 0.089825 0.250000
O O14 0.444894 0.105429 0.543945
O O15 0.333431 0.092773 0.549618
O O16 0.394827 0.000000 0.500000
O O17 0.000000 0.587424 0.250000
O O18 0.000000 0.500000 0.000000
O O19 0.780323 0.584443 0.250000
#
# Coordination Sequence:
#
# PCOD9469636 Si02
#       7
#    16  16  16  16  16   8  16
#     4   7   9  15  30  51  72  98 131 163 191 216
#     4   8  14  24  38  56  82 112 138 165 197 235
#     4   7  10  18  32  49  70  95 127 167 201 220
#     4   9  16  26  40  57  78 109 144 170 191 227
#     4   9  18  32  49  64  79 102 132 171 215 256
#     4   8  14  28  48  64  76  96 130 168 210 256
#     4  10  19  29  40  59  85 109 131 159 205 253
#
# _framework density 27.553823999999999
#
# number of rings (size 3 to 8) (size 9 to 14) (size 15 to 20)
#    0.000    3.692    0.000    3.231    0.000    0.615 
#    1.385    0.000    0.000    0.000    0.000    0.000 
#    0.000    1.231    0.000    0.462    0.000    0.923 
#
# Total GULP energy -290303.219355 kJ/mol
# GULP energy per Si atom -5582.754218 kJ/mol
# Density = 2.749111 g / cm^3
# Si number density = 27.553824 Si / 1000 Ang^3
#
#
#
# Elastic Constant Matrix: (Units=GPa)
#
#
# Indices 1 2 3 4 5 6 
#
# 1 348.8724 27.6299 10.6683 0.0000 0.0000 0.0000
# 2 27.6299 52.9328 5.3985 0.0000 0.0000 0.0000
# 3 10.6683 5.3985 142.2509 0.0000 0.0000 0.0000
# 4 0.0000 0.0000 0.0000 -5.9095 0.0000 0.0000
# 5 0.0000 0.0000 0.0000 0.0000 -9.3654 0.0000
# 6 0.0000 0.0000 0.0000 0.0000 0.0000 15.1196
#
#
#
# Elastic Compliance Matrix: (Units=1/GPa)
#
#
# Indices 1 2 3 4 5 6 
#
# 1 0.002994 -0.001546 -0.000166 0.000000 0.000000 0.000000
# 2 -0.001546 0.019763 -0.000634 0.000000 0.000000 0.000000
# 3 -0.000166 -0.000634 0.007066 0.000000 0.000000 0.000000
# 4 0.000000 0.000000 0.000000 -0.169220 0.000000 0.000000
# 5 0.000000 0.000000 0.000000 0.000000 -0.106776 0.000000
# 6 0.000000 0.000000 0.000000 0.000000 0.000000 0.066139
#
#
# Mechanical properties :
#
#
# Convention : Reuss Voigt Hill
#
# Bulk Modulus (GPa) = 39.78978 70.16103 54.97541
# Shear Modulus (GPa) = -29.94669 33.32624 1.68977
#
# Velocity S-wave (km/s) = -3.30031 3.48155 0.78396
# Velocity P-wave (km/s) = 0.22496 6.45602 4.56232
#
# Compressibility (1/GPa) = 0.02513208
#
# Stress axis : x y z
#
# Youngs Moduli (GPa) = 334.01521 50.59846 141.51604
#
# Poissons Ratio (x) = 0.07822 0.02347
# Poissons Ratio (y) = 0.51633 0.08973
# Poissons Ratio (z) = 0.05540 0.03208
#
# Static dielectric constant tensor:
#      x y z
#    x 2.233370 0.000000 0.000000 
#    y 0.000000 2.139090 0.000000 
#    z 0.000000 0.000000 1.985210 
# 
# From -- ./inp_files/13073.got.cif
#   From: 2010.05.17/outbox.cif.g08.bks.cpg/sg63_7_cif.got.tgz:13073.got - 2010.06.03 15:47:04.
