data_PCOD9469247
_publ_section_title
;
Structure prediction by ZEFSAII (Michael W. Deem and Ramdas Pophale) SiO2 
 PCOD9469247
Probable space group: C M C M
;
_chemical_formula_sum "Si O2"
_cell_formula_units_Z 96
_cell_length_a 26.024309
_cell_length_b 25.964499
_cell_length_c 8.646347
_cell_angle_alpha 90.000000
_cell_angle_beta 90.000000
_cell_angle_gamma 90.000000
_cell_volume 5842.407092
_symmetry_space_group_name_H-M "C M C M"
_symmetry_group_IT_number 63
_symmetry_cell_setting 'orthorhombic'
loop_
_space_group_symop_operation_xyz
x,y,z
-x,-y,1/2+z
x,-y,-z
-x,y,1/2-z
-x,-y,-z
x,y,1/2-z
-x,y,z
x,-y,1/2+z
1/2+x,1/2+y,z
1/2-x,1/2-y,1/2+z
1/2+x,1/2-y,-z
1/2-x,1/2+y,1/2-z
1/2-x,1/2-y,-z
1/2+x,1/2+y,1/2-z
1/2-x,1/2+y,z
1/2+x,1/2-y,1/2+z
loop_
_atom_site_type_symbol
_atom_site_label
_atom_site_fract_x
_atom_site_fract_y
_atom_site_fract_z
Si Si1 0.112252 0.557867 0.935174
Si Si2 0.000000 0.941631 0.564807
Si Si3 0.308242 0.138784 0.435833
Si Si4 0.808002 0.752662 0.064201
Si Si5 0.892279 0.941925 0.065186
Si Si6 0.187686 0.139198 0.435626
Si Si7 0.500000 0.941966 0.063706
O O1 0.113503 0.555096 0.750000
O O2 0.055692 0.579292 0.984418
O O3 0.117703 0.500000 0.000000
O O4 0.157072 0.594615 0.993204
O O5 0.053696 0.920075 0.501243
O O6 0.000000 0.941862 0.750000
O O7 0.000000 0.000000 0.500000
O O8 0.309522 0.134948 0.250000
O O9 0.328997 0.196004 0.477186
O O10 0.248030 0.134409 0.481143
O O11 0.807296 0.757165 0.250000
O O12 0.750000 0.750000 0.000000
O O13 0.830930 0.804399 0.991799
O O14 0.895098 0.944521 0.250000
O O15 0.846311 0.905430 0.010171
O O16 0.885554 0.000000 0.000000
O O17 0.184759 0.136501 0.250000
O O18 0.500000 0.943053 0.250000
O O19 0.500000 0.000000 0.000000
#
# Coordination Sequence:
#
# PCOD9469247 Si02
#       7
#    16   8  16  16  16  16   8
#     4  10  19  31  49  70  96 126 159 197 240 287
#     4  10  18  32  52  73  98 129 166 204 242 288
#     4   9  19  33  49  71 100 128 159 197 241 291
#     4   9  17  31  50  71  95 126 163 203 241 287
#     4  11  21  34  52  75 102 132 166 204 245 292
#     4  10  20  34  51  73 100 130 163 202 245 293
#     4   8  16  30  46  67  90 119 158 198 234 276
#
# _framework density 16.431584000000001
#
# number of rings (size 3 to 8) (size 9 to 14) (size 15 to 20)
#    0.000    2.333    0.000    5.750    0.000    5.333 
#    0.000    0.000    0.000    1.000    0.000    2.333 
#    0.000    0.000    0.000    0.000    0.000    0.000 
#
# Total GULP energy -267376.363886 kJ/mol
# GULP energy per Si atom -5570.340914 kJ/mol
# Density = 1.639418 g / cm^3
# Si number density = 16.431584 Si / 1000 Ang^3
#
#
#
# Elastic Constant Matrix: (Units=GPa)
#
#
# Indices 1 2 3 4 5 6 
#
# 1 106.2740 67.4606 43.9863 0.0000 0.0000 0.0000
# 2 67.4606 107.0066 42.5112 0.0000 0.0000 0.0000
# 3 43.9863 42.5112 80.4443 0.0000 0.0000 0.0000
# 4 0.0000 0.0000 0.0000 29.5761 0.0000 0.0000
# 5 0.0000 0.0000 0.0000 0.0000 21.3869 0.0000
# 6 0.0000 0.0000 0.0000 0.0000 0.0000 -3.2613
#
#
#
# Elastic Compliance Matrix: (Units=1/GPa)
#
#
# Indices 1 2 3 4 5 6 
#
# 1 0.016921 -0.008850 -0.004576 0.000000 0.000000 0.000000
# 2 -0.008850 0.016457 -0.003858 0.000000 0.000000 0.000000
# 3 -0.004576 -0.003858 0.016972 0.000000 0.000000 0.000000
# 4 0.000000 0.000000 0.000000 0.033811 0.000000 0.000000
# 5 0.000000 0.000000 0.000000 0.000000 0.046758 0.000000
# 6 0.000000 0.000000 0.000000 0.000000 0.000000 -0.306625
#
#
# Mechanical properties :
#
#
# Convention : Reuss Voigt Hill
#
# Bulk Modulus (GPa) = 63.35833 66.84904 65.10368
# Shear Modulus (GPa) = -36.79760 18.85813 -8.96974
#
# Velocity S-wave (km/s) = -4.73741 3.39141 -2.33895
# Velocity P-wave (km/s) = 2.95271 7.49047 5.69323
#
# Compressibility (1/GPa) = 0.01578324
#
# Stress axis : x y z
#
# Youngs Moduli (GPa) = 59.09736 60.76392 58.92225
#
# Poissons Ratio (x) = 0.53776 0.26960
# Poissons Ratio (y) = 0.52301 0.22731
# Poissons Ratio (z) = 0.27041 0.23441
#
# Static dielectric constant tensor:
#      x y z
#    x 1.559060 0.000000 0.000000 
#    y 0.000000 1.550170 0.000000 
#    z 0.000000 0.000000 1.550890 
# 
# From -- ./inp_files/12815.got.cif
#   From: 2010.05.17/outbox.cif.g08.bks.cpg/sg63_7_cif.got.tgz:12815.got - 2010.06.03 15:47:04.
