data_PCOD9469574
_publ_section_title
;
Structure prediction by ZEFSAII (Michael W. Deem and Ramdas Pophale) SiO2 
 PCOD9469574
Probable space group: C M C M
;
_chemical_formula_sum "Si O2"
_cell_formula_units_Z 116
_cell_length_a 25.683560
_cell_length_b 11.969479
_cell_length_c 17.433744
_cell_angle_alpha 90.000000
_cell_angle_beta 90.000000
_cell_angle_gamma 90.000000
_cell_volume 5359.461219
_symmetry_space_group_name_H-M "C M C M"
_symmetry_group_IT_number 63
_symmetry_cell_setting 'orthorhombic'
loop_
_space_group_symop_operation_xyz
x,y,z
-x,-y,1/2+z
x,-y,-z
-x,y,1/2-z
-x,-y,-z
x,y,1/2-z
-x,y,z
x,-y,1/2+z
1/2+x,1/2+y,z
1/2-x,1/2-y,1/2+z
1/2+x,1/2-y,-z
1/2-x,1/2+y,1/2-z
1/2-x,1/2-y,-z
1/2+x,1/2+y,1/2-z
1/2-x,1/2+y,z
1/2+x,1/2-y,1/2+z
loop_
_atom_site_type_symbol
_atom_site_label
_atom_site_fract_x
_atom_site_fract_y
_atom_site_fract_z
Si Si1 0.689737 0.345321 0.166129
Si Si2 0.439130 0.151744 0.051770
Si Si3 0.941240 0.870538 0.524612
Si Si4 0.276623 0.849924 0.566240
Si Si5 0.000000 0.604846 0.750000
Si Si6 0.201517 0.398983 0.109464
Si Si7 0.336020 0.564547 0.418208
Si Si8 0.587545 0.069536 0.620448
O O1 0.672060 0.309469 0.250000
O O2 0.688949 0.246989 0.103796
O O3 0.751666 0.370345 0.165308
O O4 0.663749 0.461690 0.141010
O O5 0.500000 0.134815 0.068244
O O6 0.410957 0.065830 0.108508
O O7 0.430266 0.285136 0.045727
O O8 0.427694 0.113567 0.964457
O O9 0.890396 0.869332 0.578615
O O10 0.000000 0.841728 0.553740
O O11 0.943577 0.000000 0.500000
O O12 0.283837 0.849374 0.474575
O O13 0.215434 0.859696 0.590605
O O14 0.296849 0.968916 0.594152
O O15 0.045340 0.600126 0.682841
O O16 0.143688 0.378005 0.137312
O O17 0.328615 0.500000 0.500000
#
# Coordination Sequence:
#
# PCOD9469574 Si02
#       8
#    16  16  16  16   4  16  16  16
#     4  11  24  39  60  91 134 168 210 273 342 397
#     4  10  18  37  61  90 122 161 216 265 317 369
#     4   9  20  35  62  98 120 155 216 276 312 373
#     4  10  19  39  62  92 120 167 221 266 323 391
#     4  12  24  42  60  96 142 170 204 256 346 420
#     4  10  22  37  61  90 122 164 219 269 306 399
#     4  10  20  37  63  91 123 166 211 272 317 386
#     4  11  22  38  64  93 129 167 208 269 327 393
#
# _framework density 21.643967
#
# number of rings (size 3 to 8) (size 9 to 14) (size 15 to 20)
#    0.000    1.793    4.138    2.483    2.897    5.517 
#    0.000    0.000    1.517    0.414    0.000    0.966 
#    0.000    0.000    0.000    0.000    0.000    0.000 
#
# Total GULP energy -323075.154396 kJ/mol
# GULP energy per Si atom -5570.261283 kJ/mol
# Density = 2.159470 g / cm^3
# Si number density = 21.643967 Si / 1000 Ang^3
#
#
#
# Elastic Constant Matrix: (Units=GPa)
#
#
# Indices 1 2 3 4 5 6 
#
# 1 136.4802 -3.2806 0.7759 0.0000 0.0000 0.0000
# 2 -3.2806 83.4063 -21.0087 0.0000 0.0000 0.0000
# 3 0.7759 -21.0087 40.4355 0.0000 0.0000 0.0000
# 4 0.0000 0.0000 0.0000 4.6224 0.0000 0.0000
# 5 0.0000 0.0000 0.0000 0.0000 -25.9389 0.0000
# 6 0.0000 0.0000 0.0000 0.0000 0.0000 13.6263
#
#
#
# Elastic Compliance Matrix: (Units=1/GPa)
#
#
# Indices 1 2 3 4 5 6 
#
# 1 0.007334 0.000291 0.000011 0.000000 0.000000 0.000000
# 2 0.000291 0.013806 0.007168 0.000000 0.000000 0.000000
# 3 0.000011 0.007168 0.028455 0.000000 0.000000 0.000000
# 4 0.000000 0.000000 0.000000 0.216339 0.000000 0.000000
# 5 0.000000 0.000000 0.000000 0.000000 -0.038552 0.000000
# 6 0.000000 0.000000 0.000000 0.000000 0.000000 0.073388
#
#
# Mechanical properties :
#
#
# Convention : Reuss Voigt Hill
#
# Bulk Modulus (GPa) = 15.49582 23.69947 19.59764
# Shear Modulus (GPa) = 16.26853 17.38430 16.82641
#
# Velocity S-wave (km/s) = 2.74458 2.83714 2.79125
# Velocity P-wave (km/s) = 4.14953 4.65897 4.41161
#
# Compressibility (1/GPa) = 0.06453355
#
# Stress axis : x y z
#
# Youngs Moduli (GPa) = 136.35108 72.43032 35.14374
#
# Poissons Ratio (x) = -0.02109 -0.00037
# Poissons Ratio (y) = -0.03969 -0.25190
# Poissons Ratio (z) = -0.00143 -0.51916
#
# Static dielectric constant tensor:
#      x y z
#    x 1.859490 0.000000 0.000000 
#    y 0.000000 1.888520 0.000000 
#    z 0.000000 0.000000 1.703080 
# 
# From -- ./inp_files/49093.got.cif
#   From: 2010.05.17/outbox.cif.g08.bks.cpg/sg63_25_cif.got.tgz:49093.got - 2010.06.03 15:47:04.
