data_PCOD9469774
_publ_section_title
;
Structure prediction by ZEFSAII (Michael W. Deem and Ramdas Pophale) SiO2 
 PCOD9469774
Probable space group: C M C M
;
_chemical_formula_sum "Si O2"
_cell_formula_units_Z 80
_cell_length_a 7.287625
_cell_length_b 29.569331
_cell_length_c 16.292606
_cell_angle_alpha 90.000000
_cell_angle_beta 90.000000
_cell_angle_gamma 90.000000
_cell_volume 3510.896858
_symmetry_space_group_name_H-M "C M C M"
_symmetry_group_IT_number 63
_symmetry_cell_setting 'orthorhombic'
loop_
_space_group_symop_operation_xyz
x,y,z
-x,-y,1/2+z
x,-y,-z
-x,y,1/2-z
-x,-y,-z
x,y,1/2-z
-x,y,z
x,-y,1/2+z
1/2+x,1/2+y,z
1/2-x,1/2-y,1/2+z
1/2+x,1/2-y,-z
1/2-x,1/2+y,1/2-z
1/2-x,1/2-y,-z
1/2+x,1/2+y,1/2-z
1/2-x,1/2+y,z
1/2+x,1/2-y,1/2+z
loop_
_atom_site_type_symbol
_atom_site_label
_atom_site_fract_x
_atom_site_fract_y
_atom_site_fract_z
Si Si1 0.224697 0.451376 0.250000
Si Si2 0.722754 0.793337 0.654058
Si Si3 0.775263 0.388786 0.910206
Si Si4 0.277061 0.055871 0.250000
Si Si5 0.778820 0.193429 0.846261
Si Si6 0.708789 0.902894 0.086985
O O1 0.276959 0.503685 0.250000
O O2 0.289601 0.426542 0.167343
O O3 0.000000 0.448262 0.250000
O O4 0.774985 0.798845 0.750000
O O5 0.500000 0.793127 0.653253
O O6 0.782881 0.836826 0.603396
O O7 0.781377 0.743415 0.625955
O O8 0.718929 0.417849 0.831672
O O9 0.000000 0.388577 0.911958
O O10 0.710324 0.408508 0.996713
O O11 0.500000 0.056833 0.250000
O O12 0.728067 0.188726 0.750000
O O13 0.706770 0.150750 0.895311
O O14 0.000000 0.191824 0.850252
O O15 0.500000 0.919899 0.081800
#
# Coordination Sequence:
#
# PCOD9469774 Si02
#       6
#     8  16  16   8  16  16
#     4   9  18  30  42  61  95 127 147 183 236 277
#     4   8  13  24  42  64  90 118 154 196 224 250
#     4   9  16  26  44  68  92 121 155 189 228 272
#     4   9  16  28  45  65  91 121 155 193 230 269
#     4   9  17  29  47  68  90 122 160 190 218 262
#     4  10  19  30  45  69 100 125 146 182 234 279
#
# _framework density 22.786200000000001
#
# number of rings (size 3 to 8) (size 9 to 14) (size 15 to 20)
#    0.000    3.000    2.000    1.200    0.000    1.600 
#    0.000    4.000    0.000    0.000    0.000    4.900 
#    0.000    0.000    0.000    0.000    0.000    0.000 
#
# Total GULP energy -223419.000709 kJ/mol
# GULP energy per Si atom -5585.475018 kJ/mol
# Density = 2.273434 g / cm^3
# Si number density = 22.786200 Si / 1000 Ang^3
#
#
#
# Elastic Constant Matrix: (Units=GPa)
#
#
# Indices 1 2 3 4 5 6 
#
# 1 96.4083 -4.7657 4.8994 0.0000 0.0000 0.0000
# 2 -4.7657 129.2442 86.6596 0.0000 0.0000 0.0000
# 3 4.8994 86.6596 182.0717 0.0000 0.0000 0.0000
# 4 0.0000 0.0000 0.0000 -4.3490 0.0000 0.0000
# 5 0.0000 0.0000 0.0000 0.0000 -8.6352 0.0000
# 6 0.0000 0.0000 0.0000 0.0000 0.0000 5.8070
#
#
#
# Elastic Compliance Matrix: (Units=1/GPa)
#
#
# Indices 1 2 3 4 5 6 
#
# 1 0.010449 0.000843 -0.000682 0.000000 0.000000 0.000000
# 2 0.000843 0.011432 -0.005464 0.000000 0.000000 0.000000
# 3 -0.000682 -0.005464 0.008111 0.000000 0.000000 0.000000
# 4 0.000000 0.000000 0.000000 -0.229936 0.000000 0.000000
# 5 0.000000 0.000000 0.000000 0.000000 -0.115805 0.000000
# 6 0.000000 0.000000 0.000000 0.000000 0.000000 0.172205
#
#
# Mechanical properties :
#
#
# Convention : Reuss Voigt Hill
#
# Bulk Modulus (GPa) = 51.58536 64.59010 58.08773
# Shear Modulus (GPa) = -39.53358 19.95994 -9.78682
#
# Velocity S-wave (km/s) = -4.16983 2.96288 -2.07470
# Velocity P-wave (km/s) = 0.70375 6.33345 4.45069
#
# Compressibility (1/GPa) = 0.01938535
#
# Stress axis : x y z
#
# Youngs Moduli (GPa) = 95.70397 87.47406 123.28460
#
# Poissons Ratio (x) = -0.07372 0.08412
# Poissons Ratio (y) = -0.08066 0.67361
# Poissons Ratio (z) = 0.06530 0.47795
#
# Static dielectric constant tensor:
#      x y z
#    x 1.898120 0.000000 0.000000 
#    y 0.000000 1.793520 0.000000 
#    z 0.000000 0.000000 1.824030 
# 
# From -- ./inp_files/30041.got.cif
#   From: 2010.05.17/outbox.cif.g08.bks.cpg/sg63_16_cif.got.tgz:30041.got - 2010.06.03 15:47:04.
