data_PCOD9469822
_publ_section_title
;
Structure prediction by ZEFSAII (Michael W. Deem and Ramdas Pophale) SiO2 
 PCOD9469822
Probable space group: C M C M
;
_chemical_formula_sum "Si O2"
_cell_formula_units_Z 80
_cell_length_a 13.632161
_cell_length_b 13.228316
_cell_length_c 27.729683
_cell_angle_alpha 90.000000
_cell_angle_beta 90.000000
_cell_angle_gamma 90.000000
_cell_volume 5000.508528
_symmetry_space_group_name_H-M "C M C M"
_symmetry_group_IT_number 63
_symmetry_cell_setting 'orthorhombic'
loop_
_space_group_symop_operation_xyz
x,y,z
-x,-y,1/2+z
x,-y,-z
-x,y,1/2-z
-x,-y,-z
x,y,1/2-z
-x,y,z
x,-y,1/2+z
1/2+x,1/2+y,z
1/2-x,1/2-y,1/2+z
1/2+x,1/2-y,-z
1/2-x,1/2+y,1/2-z
1/2-x,1/2-y,-z
1/2+x,1/2+y,1/2-z
1/2-x,1/2+y,z
1/2+x,1/2-y,1/2+z
loop_
_atom_site_type_symbol
_atom_site_label
_atom_site_fract_x
_atom_site_fract_y
_atom_site_fract_z
Si Si1 0.886604 0.788789 0.192792
Si Si2 0.385599 0.533010 0.447503
Si Si3 0.733036 0.276762 0.555797
Si Si4 0.115320 0.396901 0.878987
Si Si5 0.749230 0.587823 0.875798
O O1 0.874885 0.779225 0.250000
O O2 0.875640 0.681209 0.165675
O O3 0.805672 0.863470 0.170026
O O4 0.000000 0.822432 0.183159
O O5 0.346241 0.500000 0.500000
O O6 0.500000 0.512927 0.446509
O O7 0.359762 0.649674 0.440981
O O8 0.333317 0.470374 0.406264
O O9 0.750000 0.250000 0.500000
O O10 0.824360 0.341530 0.577866
O O11 0.718398 0.179437 0.589373
O O12 0.166502 0.504316 0.867646
O O13 0.000000 0.408188 0.890287
#
# Coordination Sequence:
#
# PCOD9469822 Si02
#       5
#    16  16  16  16  16
#     4   9  18  34  55  77  98 125 164 208 255 302
#     4  10  19  30  47  70  96 130 167 202 246 293
#     4  10  19  32  47  68 100 132 170 208 244 294
#     4   9  20  34  50  73 102 135 169 210 252 303
#     4  10  19  33  52  72 101 131 165 209 245 301
#
# _framework density 15.998373000000001
#
# number of rings (size 3 to 8) (size 9 to 14) (size 15 to 20)
#    0.000    2.400    2.000    0.600    0.000    3.200 
#    0.000    1.000    0.000    0.000    0.000    0.000 
#    0.000    0.000    0.000    0.000    0.000    0.000 
#
# Total GULP energy -222829.589749 kJ/mol
# GULP energy per Si atom -5570.739744 kJ/mol
# Density = 1.596196 g / cm^3
# Si number density = 15.998373 Si / 1000 Ang^3
#
#
#
# Elastic Constant Matrix: (Units=GPa)
#
#
# Indices 1 2 3 4 5 6 
#
# 1 64.2241 30.0109 27.8075 0.0000 0.0000 0.0000
# 2 30.0109 93.7930 28.7937 0.0000 0.0000 0.0000
# 3 27.8075 28.7937 90.5570 0.0000 0.0000 0.0000
# 4 0.0000 0.0000 0.0000 14.0461 0.0000 0.0000
# 5 0.0000 0.0000 0.0000 0.0000 6.9774 0.0000
# 6 0.0000 0.0000 0.0000 0.0000 0.0000 -2.7490
#
#
#
# Elastic Compliance Matrix: (Units=1/GPa)
#
#
# Indices 1 2 3 4 5 6 
#
# 1 0.019845 -0.004964 -0.004516 0.000000 0.000000 0.000000
# 2 -0.004964 0.013057 -0.002627 0.000000 0.000000 0.000000
# 3 -0.004516 -0.002627 0.013265 0.000000 0.000000 0.000000
# 4 0.000000 0.000000 0.000000 0.071194 0.000000 0.000000
# 5 0.000000 0.000000 0.000000 0.000000 0.143321 0.000000
# 6 0.000000 0.000000 0.000000 0.000000 0.000000 -0.363774
#
#
# Mechanical properties :
#
#
# Convention : Reuss Voigt Hill
#
# Bulk Modulus (GPa) = 45.55113 46.86648 46.20881
# Shear Modulus (GPa) = -69.86883 14.45238 -27.70822
#
# Velocity S-wave (km/s) = -6.61568 3.00887 -4.16617
# Velocity P-wave (km/s) = 5.46097 6.43655 2.40904
#
# Compressibility (1/GPa) = 0.02195335
#
# Stress axis : x y z
#
# Youngs Moduli (GPa) = 50.39053 76.59012 75.38769
#
# Poissons Ratio (x) = 0.38016 0.34042
# Poissons Ratio (y) = 0.25012 0.19807
# Poissons Ratio (z) = 0.22754 0.20123
#
# Static dielectric constant tensor:
#      x y z
#    x 1.529260 0.000000 0.000000 
#    y 0.000000 1.527310 0.000000 
#    z 0.000000 0.000000 1.518090 
# 
# From -- ./inp_files/62542.got.cif
#   From: 2010.05.17/outbox.cif.g08.bks.cpg/sg63_32_cif.got.tgz:62542.got - 2010.06.03 15:47:04.
