data_PCOD9469948
_publ_section_title
;
Structure prediction by ZEFSAII (Michael W. Deem and Ramdas Pophale) SiO2 
 PCOD9469948
Probable space group: C M C M
;
_chemical_formula_sum "Si O2"
_cell_formula_units_Z 88
_cell_length_a 18.974871
_cell_length_b 18.795306
_cell_length_c 13.602112
_cell_angle_alpha 90.000000
_cell_angle_beta 90.000000
_cell_angle_gamma 90.000000
_cell_volume 4851.036912
_symmetry_space_group_name_H-M "C M C M"
_symmetry_group_IT_number 63
_symmetry_cell_setting 'orthorhombic'
loop_
_space_group_symop_operation_xyz
x,y,z
-x,-y,1/2+z
x,-y,-z
-x,y,1/2-z
-x,-y,-z
x,y,1/2-z
-x,y,z
x,-y,1/2+z
1/2+x,1/2+y,z
1/2-x,1/2-y,1/2+z
1/2+x,1/2-y,-z
1/2-x,1/2+y,1/2-z
1/2-x,1/2-y,-z
1/2+x,1/2+y,1/2-z
1/2-x,1/2+y,z
1/2+x,1/2-y,1/2+z
loop_
_atom_site_type_symbol
_atom_site_label
_atom_site_fract_x
_atom_site_fract_y
_atom_site_fract_z
Si Si1 0.920991 0.609480 0.929943
Si Si2 0.342273 0.307710 0.447555
Si Si3 0.685234 0.126759 0.250000
Si Si4 0.085317 0.231065 0.750000
Si Si5 0.288639 0.855236 0.539399
Si Si6 0.421966 0.000926 0.750000
Si Si7 0.417246 0.272607 0.858606
O O1 0.916984 0.551536 0.844919
O O2 0.911640 0.687895 0.881750
O O3 0.000000 0.607275 0.974292
O O4 0.857797 0.602003 0.006403
O O5 0.388700 0.309845 0.348903
O O6 0.312755 0.227002 0.452095
O O7 0.274114 0.357946 0.460341
O O8 0.384746 0.313616 0.549356
O O9 0.630559 0.194676 0.250000
O O10 0.730448 0.126376 0.150725
O O11 0.636785 0.057899 0.250000
O O12 0.000000 0.241343 0.750000
O O13 0.500000 0.967679 0.750000
O O14 0.386496 0.285913 0.750000
O O15 0.500000 0.288172 0.855524
#
# Coordination Sequence:
#
# PCOD9469948 Si02
#       7
#    16  16   8   8  16   8  16
#     4   9  17  30  46  65  89 123 169 208 232 264
#     4   9  18  30  46  67  90 127 159 192 242 290
#     4  10  21  32  44  64  95 128 165 203 242 275
#     4  10  19  33  49  69  99 128 157 195 238 293
#     4   9  19  32  44  65  88 124 165 201 240 285
#     4  10  19  31  47  67  90 126 172 212 242 264
#     4   9  15  25  44  70  94 121 156 195 233 279
#
# _framework density 18.140453000000001
#
# number of rings (size 3 to 8) (size 9 to 14) (size 15 to 20)
#    0.000    2.727    0.909    0.818    1.273    6.545 
#    4.909    1.818    0.000    0.000    0.000    0.000 
#    0.000    0.000    0.000   34.364    0.000   32.000 
#
# Total GULP energy -245035.134756 kJ/mol
# GULP energy per Si atom -5568.980335 kJ/mol
# Density = 1.809916 g / cm^3
# Si number density = 18.140453 Si / 1000 Ang^3
#
#
#
# Elastic Constant Matrix: (Units=GPa)
#
#
# Indices 1 2 3 4 5 6 
#
# 1 65.4900 18.0793 44.0389 0.0000 0.0000 0.0000
# 2 18.0793 14.3284 9.2546 0.0000 0.0000 0.0000
# 3 44.0389 9.2546 117.1925 0.0000 0.0000 0.0000
# 4 0.0000 0.0000 0.0000 6.8108 0.0000 0.0000
# 5 0.0000 0.0000 0.0000 0.0000 30.2398 0.0000
# 6 0.0000 0.0000 0.0000 0.0000 0.0000 13.2469
#
#
#
# Elastic Compliance Matrix: (Units=1/GPa)
#
#
# Indices 1 2 3 4 5 6 
#
# 1 0.030065 -0.032285 -0.008748 0.000000 0.000000 0.000000
# 2 -0.032285 0.108212 0.003587 0.000000 0.000000 0.000000
# 3 -0.008748 0.003587 0.011537 0.000000 0.000000 0.000000
# 4 0.000000 0.000000 0.000000 0.146825 0.000000 0.000000
# 5 0.000000 0.000000 0.000000 0.000000 0.033069 0.000000
# 6 0.000000 0.000000 0.000000 0.000000 0.000000 0.075489
#
#
# Mechanical properties :
#
#
# Convention : Reuss Voigt Hill
#
# Bulk Modulus (GPa) = 13.34749 37.75075 25.54912
# Shear Modulus (GPa) = 9.89974 18.43537 14.16756
#
# Velocity S-wave (km/s) = 2.33862 3.19134 2.79766
# Velocity P-wave (km/s) = 3.82962 5.86813 4.95484
#
# Compressibility (1/GPa) = 0.07492046
#
# Stress axis : x y z
#
# Youngs Moduli (GPa) = 33.26121 9.24116 86.67596
#
# Poissons Ratio (x) = 0.29835 0.75828
# Poissons Ratio (y) = 1.07384 -0.31088
# Poissons Ratio (z) = 0.29098 -0.03315
#
# Static dielectric constant tensor:
#      x y z
#    x 1.664190 0.000000 0.000000 
#    y 0.000000 1.585020 0.000000 
#    z 0.000000 0.000000 1.673160 
# 
# From -- ./inp_files/22595.got.cif
#   From: 2010.05.17/outbox.cif.g08.bks.cpg/sg63_12_cif.got.tgz:22595.got - 2010.06.03 15:47:04.
