data_PCOD9469068
_publ_section_title
;
Structure prediction by ZEFSAII (Michael W. Deem and Ramdas Pophale) SiO2 
 PCOD9469068
Probable space group: C M C M
;
_chemical_formula_sum "Si O2"
_cell_formula_units_Z 128
_cell_length_a 23.676075
_cell_length_b 18.948274
_cell_length_c 18.260555
_cell_angle_alpha 90.000000
_cell_angle_beta 90.000000
_cell_angle_gamma 90.000000
_cell_volume 8192.063995
_symmetry_space_group_name_H-M "C M C M"
_symmetry_group_IT_number 63
_symmetry_cell_setting 'orthorhombic'
loop_
_space_group_symop_operation_xyz
x,y,z
-x,-y,1/2+z
x,-y,-z
-x,y,1/2-z
-x,-y,-z
x,y,1/2-z
-x,y,z
x,-y,1/2+z
1/2+x,1/2+y,z
1/2-x,1/2-y,1/2+z
1/2+x,1/2-y,-z
1/2-x,1/2+y,1/2-z
1/2-x,1/2-y,-z
1/2+x,1/2+y,1/2-z
1/2-x,1/2+y,z
1/2+x,1/2-y,1/2+z
loop_
_atom_site_type_symbol
_atom_site_label
_atom_site_fract_x
_atom_site_fract_y
_atom_site_fract_z
Si Si1 0.933738 0.606199 0.837394
Si Si2 0.660103 0.802230 0.410871
Si Si3 0.565915 0.807672 0.837441
Si Si4 0.624962 0.956890 0.837293
Si Si5 0.767698 0.898757 0.435510
Si Si6 0.837500 0.759641 0.425873
Si Si7 0.735013 0.306553 0.833556
Si Si8 0.249974 0.550114 0.101961
O O1 0.926278 0.618330 0.750000
O O2 0.896414 0.661389 0.882429
O O3 0.910482 0.527404 0.852464
O O4 0.000000 0.610451 0.854092
O O5 0.710077 0.860545 0.410211
O O6 0.656693 0.771425 0.492682
O O7 0.681826 0.739243 0.359083
O O8 0.571727 0.796923 0.750000
O O9 0.500000 0.802616 0.856292
O O10 0.589427 0.886406 0.853381
O O11 0.605611 0.754225 0.881254
O O12 0.638215 0.955926 0.750000
O O13 0.683258 0.956513 0.881515
O O14 0.816364 0.840299 0.428600
O O15 0.759774 0.920909 0.520052
O O16 0.775666 0.971927 0.392520
O O17 0.787194 0.716930 0.385057
O O18 0.749820 0.291132 0.750000
O O19 0.726355 0.389601 0.845171
#
# Coordination Sequence:
#
# PCOD9469068 Si02
#       8
#    16  16  16  16  16  16  16  16
#     4  10  21  35  50  72 105 145 183 217 253 296
#     4  11  19  35  50  73 101 137 180 216 255 305
#     4  10  20  34  53  75 101 136 175 215 260 308
#     4  10  18  31  49  72 104 140 176 210 246 302
#     4  10  20  32  51  72 103 136 168 210 262 309
#     4  11  20  35  51  74 102 136 172 217 263 311
#     4  11  20  32  51  76 104 136 172 216 264 308
#     4  11  18  32  51  76 102 137 168 208 256 313
#
# _framework density 15.624878000000001
#
# number of rings (size 3 to 8) (size 9 to 14) (size 15 to 20)
#    0.000    1.500    5.000    2.250    0.000    2.000 
#    0.000    1.875    0.000    2.250    0.000    2.625 
#    0.000    2.000    0.000    0.000    0.000    0.000 
#
# Total GULP energy -357173.763304 kJ/mol
# GULP energy per Si atom -5580.840052 kJ/mol
# Density = 1.558931 g / cm^3
# Si number density = 15.624878 Si / 1000 Ang^3
#
#
#
# Elastic Constant Matrix: (Units=GPa)
#
#
# Indices 1 2 3 4 5 6 
#
# 1 99.7759 73.8459 41.7061 0.0000 0.0000 0.0000
# 2 73.8459 132.1070 49.7777 0.0000 0.0000 0.0000
# 3 41.7061 49.7777 54.8117 0.0000 0.0000 0.0000
# 4 0.0000 0.0000 0.0000 18.1427 0.0000 0.0000
# 5 0.0000 0.0000 0.0000 0.0000 41.9466 0.0000
# 6 0.0000 0.0000 0.0000 0.0000 0.0000 21.8933
#
#
#
# Elastic Compliance Matrix: (Units=1/GPa)
#
#
# Indices 1 2 3 4 5 6 
#
# 1 0.018814 -0.007787 -0.007243 0.000000 0.000000 0.000000
# 2 -0.007787 0.014731 -0.007452 0.000000 0.000000 0.000000
# 3 -0.007243 -0.007452 0.030524 0.000000 0.000000 0.000000
# 4 0.000000 0.000000 0.000000 0.055119 0.000000 0.000000
# 5 0.000000 0.000000 0.000000 0.000000 0.023840 0.000000
# 6 0.000000 0.000000 0.000000 0.000000 0.000000 0.045676
#
#
# Mechanical properties :
#
#
# Convention : Reuss Voigt Hill
#
# Bulk Modulus (GPa) = 52.35031 68.59493 60.47262
# Shear Modulus (GPa) = 20.83025 24.48751 22.65888
#
# Velocity S-wave (km/s) = 3.65519 3.96310 3.81225
# Velocity P-wave (km/s) = 7.16876 8.05841 7.62657
#
# Compressibility (1/GPa) = 0.01910208
#
# Stress axis : x y z
#
# Youngs Moduli (GPa) = 53.15301 67.88537 32.76162
#
# Poissons Ratio (x) = 0.52865 0.23730
# Poissons Ratio (y) = 0.41392 0.24415
# Poissons Ratio (z) = 0.38499 0.50591
#
# Static dielectric constant tensor:
#      x y z
#    x 1.491040 0.000000 0.000000 
#    y 0.000000 1.532760 0.000000 
#    z 0.000000 0.000000 1.536550 
# 
# From -- ./inp_files/48405.got.cif
#   From: 2010.05.17/outbox.cif.g08.bks.cpg/sg63_25_cif.got.tgz:48405.got - 2010.06.03 15:47:04.
