data_PCOD9469687
_publ_section_title
;
Structure prediction by ZEFSAII (Michael W. Deem and Ramdas Pophale) SiO2 
 PCOD9469687
Probable space group: C M C M
;
_chemical_formula_sum "Si O2"
_cell_formula_units_Z 96
_cell_length_a 8.746768
_cell_length_b 28.546870
_cell_length_c 24.239359
_cell_angle_alpha 90.000000
_cell_angle_beta 90.000000
_cell_angle_gamma 90.000000
_cell_volume 6052.394607
_symmetry_space_group_name_H-M "C M C M"
_symmetry_group_IT_number 63
_symmetry_cell_setting 'orthorhombic'
loop_
_space_group_symop_operation_xyz
x,y,z
-x,-y,1/2+z
x,-y,-z
-x,y,1/2-z
-x,-y,-z
x,y,1/2-z
-x,y,z
x,-y,1/2+z
1/2+x,1/2+y,z
1/2-x,1/2-y,1/2+z
1/2+x,1/2-y,-z
1/2-x,1/2+y,1/2-z
1/2-x,1/2-y,-z
1/2+x,1/2+y,1/2-z
1/2-x,1/2+y,z
1/2+x,1/2-y,1/2+z
loop_
_atom_site_type_symbol
_atom_site_label
_atom_site_fract_x
_atom_site_fract_y
_atom_site_fract_z
Si Si1 0.682868 0.268948 0.914386
Si Si2 0.682841 0.821804 0.813736
Si Si3 0.684848 0.178073 0.980994
Si Si4 0.314394 0.927887 0.476135
Si Si5 0.182764 0.924071 0.686258
Si Si6 0.315209 0.018497 0.087784
O O1 0.500000 0.272130 0.912542
O O2 0.751473 0.284429 0.856348
O O3 0.725302 0.216728 0.934934
O O4 0.745816 0.303662 0.961665
O O5 0.725334 0.812162 0.750000
O O6 0.500000 0.823124 0.817764
O O7 0.747488 0.873259 0.827934
O O8 0.500000 0.178052 0.986324
O O9 0.736514 0.125350 0.968187
O O10 0.500000 0.927934 0.475008
O O11 0.271806 0.947654 0.536499
O O12 0.266393 0.966403 0.431058
O O13 0.225147 0.934235 0.750000
O O14 0.244475 0.962137 0.643615
O O15 0.000000 0.921200 0.682848
O O16 0.500000 0.019293 0.092017
#
# Coordination Sequence:
#
# PCOD9469687 Si02
#       6
#    16  16  16  16  16  16
#     4  10  19  29  45  70  96 122 152 188 230 271
#     4  10  20  33  49  67  88 118 154 189 228 275
#     4   9  17  30  47  67  95 128 156 183 221 272
#     4   8  15  28  46  68  92 119 151 186 221 259
#     4  10  20  32  46  67  95 121 146 182 227 272
#     4   9  16  28  48  70  91 118 152 186 221 263
#
# _framework density 15.861490999999999
#
# number of rings (size 3 to 8) (size 9 to 14) (size 15 to 20)
#    0.000    2.667    0.000    3.500    0.000    4.000 
#    0.000    2.500    0.000    1.000    0.000    7.000 
#    0.000    0.000    0.000    0.000    0.000    0.000 
#
# Total GULP energy -267601.408628 kJ/mol
# GULP energy per Si atom -5575.029346 kJ/mol
# Density = 1.582539 g / cm^3
# Si number density = 15.861491 Si / 1000 Ang^3
#
#
#
# Elastic Constant Matrix: (Units=GPa)
#
#
# Indices 1 2 3 4 5 6 
#
# 1 23.4694 29.9102 29.1427 0.0000 0.0000 0.0000
# 2 29.9102 144.5054 74.6074 0.0000 0.0000 0.0000
# 3 29.1427 74.6074 93.1444 0.0000 0.0000 0.0000
# 4 0.0000 0.0000 0.0000 23.0055 0.0000 0.0000
# 5 0.0000 0.0000 0.0000 0.0000 27.6717 0.0000
# 6 0.0000 0.0000 0.0000 0.0000 0.0000 20.5640
#
#
#
# Elastic Compliance Matrix: (Units=1/GPa)
#
#
# Indices 1 2 3 4 5 6 
#
# 1 0.072242 -0.005598 -0.018119 0.000000 0.000000 0.000000
# 2 -0.005598 0.012234 -0.008048 0.000000 0.000000 0.000000
# 3 -0.018119 -0.008048 0.022851 0.000000 0.000000 0.000000
# 4 0.000000 0.000000 0.000000 0.043468 0.000000 0.000000
# 5 0.000000 0.000000 0.000000 0.000000 0.036138 0.000000
# 6 0.000000 0.000000 0.000000 0.000000 0.000000 0.048629
#
#
# Mechanical properties :
#
#
# Convention : Reuss Voigt Hill
#
# Bulk Modulus (GPa) = 22.83227 58.71552 40.77389
# Shear Modulus (GPa) = 15.93933 22.74549 19.34241
#
# Velocity S-wave (km/s) = 3.17347 3.79094 3.49586
# Velocity P-wave (km/s) = 5.27768 7.50064 6.48512
#
# Compressibility (1/GPa) = 0.04379767
#
# Stress axis : x y z
#
# Youngs Moduli (GPa) = 13.84238 81.74062 43.76203
#
# Poissons Ratio (x) = 0.45761 0.79291
# Poissons Ratio (y) = 0.07749 0.35218
# Poissons Ratio (z) = 0.25080 0.65781
#
# Static dielectric constant tensor:
#      x y z
#    x 1.534530 0.000000 0.000000 
#    y 0.000000 1.530720 0.000000 
#    z 0.000000 0.000000 1.514470 
# 
# From -- ./inp_files/60237.got.cif
#   From: 2010.05.17/outbox.cif.g08.bks.cpg/sg63_31_cif.got.tgz:60237.got - 2010.06.03 15:47:04.
