data_PCOD9469978
_publ_section_title
;
Structure prediction by ZEFSAII (Michael W. Deem and Ramdas Pophale) SiO2 
 PCOD9469978
Probable space group: C M C M
;
_chemical_formula_sum "Si O2"
_cell_formula_units_Z 112
_cell_length_a 20.551176
_cell_length_b 30.999383
_cell_length_c 7.456206
_cell_angle_alpha 90.000000
_cell_angle_beta 90.000000
_cell_angle_gamma 90.000000
_cell_volume 4750.153310
_symmetry_space_group_name_H-M "C M C M"
_symmetry_group_IT_number 63
_symmetry_cell_setting 'orthorhombic'
loop_
_space_group_symop_operation_xyz
x,y,z
-x,-y,1/2+z
x,-y,-z
-x,y,1/2-z
-x,-y,-z
x,y,1/2-z
-x,y,z
x,-y,1/2+z
1/2+x,1/2+y,z
1/2-x,1/2-y,1/2+z
1/2+x,1/2-y,-z
1/2-x,1/2+y,1/2-z
1/2-x,1/2-y,-z
1/2+x,1/2+y,1/2-z
1/2-x,1/2+y,z
1/2+x,1/2-y,1/2+z
loop_
_atom_site_type_symbol
_atom_site_label
_atom_site_fract_x
_atom_site_fract_y
_atom_site_fract_z
Si Si1 0.577908 0.045994 0.556194
Si Si2 0.212938 0.049815 0.535787
Si Si3 0.297614 0.711223 0.963923
Si Si4 0.930127 0.813915 0.031762
Si Si5 0.571877 0.858569 0.030324
Si Si6 0.787540 0.633896 0.531343
Si Si7 0.926917 0.915294 0.032039
O O1 0.607800 0.054235 0.750000
O O2 0.500000 0.039635 0.572720
O O3 0.580147 0.091738 0.462314
O O4 0.604665 0.000000 0.500000
O O5 0.210465 0.054991 0.750000
O O6 0.265835 0.085663 0.472435
O O7 0.139023 0.060780 0.469972
O O8 0.229155 0.000000 0.500000
O O9 0.301471 0.707188 0.750000
O O10 0.370672 0.714772 0.032638
O O11 0.268076 0.666352 0.029999
O O12 0.250000 0.750000 0.000000
O O13 0.931625 0.812926 0.250000
O O14 0.921289 0.864462 0.985723
O O15 0.000000 0.799151 0.966303
O O16 0.568546 0.858291 0.250000
O O17 0.500000 0.842845 0.971136
O O18 0.643793 0.843370 0.978849
O O19 0.788633 0.633047 0.750000
O O20 0.927314 0.917832 0.250000
O O21 0.000000 0.929930 0.973365
#
# Coordination Sequence:
#
# PCOD9469978 Si02
#       7
#    16  16  16  16  16  16  16
#     4   8  13  21  34  53  76 102 136 178 217 253
#     4  10  19  31  47  70  99 131 165 204 246 292
#     4  10  19  33  54  79 102 129 165 206 253 302
#     4   8  13  25  49  76  98 127 172 214 242 284
#     4   8  14  25  42  63  85 113 151 191 230 276
#     4   9  17  31  49  67  93 128 164 199 239 295
#     4   8  13  24  45  70  94 125 167 208 239 277
#
# _framework density 23.578188000000001
#
# number of rings (size 3 to 8) (size 9 to 14) (size 15 to 20)
#    0.000    3.286    1.429    1.714    0.000    0.857 
#    0.000    1.429    0.000    2.143    0.000    2.000 
#    0.000    0.000    0.000    0.000    0.000    0.000 
#
# Total GULP energy -311750.576108 kJ/mol
# GULP energy per Si atom -5566.974573 kJ/mol
# Density = 2.352452 g / cm^3
# Si number density = 23.578188 Si / 1000 Ang^3
#
#
#
# Elastic Constant Matrix: (Units=GPa)
#
#
# Indices 1 2 3 4 5 6 
#
# 1 214.0754 48.8481 2.8149 0.0000 0.0000 0.0000
# 2 48.8481 51.5534 -7.6466 0.0000 0.0000 0.0000
# 3 2.8149 -7.6466 60.8040 0.0000 0.0000 0.0000
# 4 0.0000 0.0000 0.0000 6.1703 0.0000 0.0000
# 5 0.0000 0.0000 0.0000 0.0000 -4.2092 0.0000
# 6 0.0000 0.0000 0.0000 0.0000 0.0000 28.0290
#
#
#
# Elastic Compliance Matrix: (Units=1/GPa)
#
#
# Indices 1 2 3 4 5 6 
#
# 1 0.006021 -0.005855 -0.001015 0.000000 0.000000 0.000000
# 2 -0.005855 0.025460 0.003473 0.000000 0.000000 0.000000
# 3 -0.001015 0.003473 0.016930 0.000000 0.000000 0.000000
# 4 0.000000 0.000000 0.000000 0.162065 0.000000 0.000000
# 5 0.000000 0.000000 0.000000 0.000000 -0.237577 0.000000
# 6 0.000000 0.000000 0.000000 0.000000 0.000000 0.035677
#
#
# Mechanical properties :
#
#
# Convention : Reuss Voigt Hill
#
# Bulk Modulus (GPa) = 24.02900 46.05174 35.04037
# Shear Modulus (GPa) = 170.97703 24.82579 97.90141
#
# Velocity S-wave (km/s) = 8.52481 3.24838 6.45075
# Velocity P-wave (km/s) = 10.34939 5.80028 8.38907
#
# Compressibility (1/GPa) = 0.04161638
#
# Stress axis : x y z
#
# Youngs Moduli (GPa) = 166.09453 39.27654 59.06659
#
# Poissons Ratio (x) = 0.22998 0.05996
# Poissons Ratio (y) = 0.97253 -0.20514
# Poissons Ratio (z) = 0.16860 -0.13641
#
# Static dielectric constant tensor:
#      x y z
#    x 1.754620 0.000000 0.000000 
#    y 0.000000 1.880550 0.000000 
#    z 0.000000 0.000000 1.943040 
# 
# From -- ./inp_files/22975.got.cif
#   From: 2010.05.17/outbox.cif.g08.bks.cpg/sg63_12_cif.got.tgz:22975.got - 2010.06.03 15:47:04.
