data_PCOD9469088
_publ_section_title
;
Structure prediction by ZEFSAII (Michael W. Deem and Ramdas Pophale) SiO2 
 PCOD9469088
Probable space group: C M C M
;
_chemical_formula_sum "Si O2"
_cell_formula_units_Z 128
_cell_length_a 17.988223
_cell_length_b 18.578126
_cell_length_c 23.609917
_cell_angle_alpha 90.000000
_cell_angle_beta 90.000000
_cell_angle_gamma 90.000000
_cell_volume 7890.138510
_symmetry_space_group_name_H-M "C M C M"
_symmetry_group_IT_number 63
_symmetry_cell_setting 'orthorhombic'
loop_
_space_group_symop_operation_xyz
x,y,z
-x,-y,1/2+z
x,-y,-z
-x,y,1/2-z
-x,-y,-z
x,y,1/2-z
-x,y,z
x,-y,1/2+z
1/2+x,1/2+y,z
1/2-x,1/2-y,1/2+z
1/2+x,1/2-y,-z
1/2-x,1/2+y,1/2-z
1/2-x,1/2-y,-z
1/2+x,1/2+y,1/2-z
1/2-x,1/2+y,z
1/2+x,1/2-y,1/2+z
loop_
_atom_site_type_symbol
_atom_site_label
_atom_site_fract_x
_atom_site_fract_y
_atom_site_fract_z
Si Si1 0.675506 0.690622 0.917764
Si Si2 0.320508 0.892153 0.683688
Si Si3 0.415940 0.887866 0.428569
Si Si4 0.913330 0.465054 0.184943
Si Si5 0.725447 0.669108 0.411995
Si Si6 0.413802 0.721781 0.466992
Si Si7 0.735036 0.076901 0.519608
Si Si8 0.911818 0.246012 0.815521
O O1 0.739701 0.750911 0.911615
O O2 0.714817 0.615694 0.932997
O O3 0.627979 0.694727 0.860656
O O4 0.623775 0.712825 0.971182
O O5 0.300419 0.893273 0.750000
O O6 0.251803 0.873311 0.643330
O O7 0.378481 0.826178 0.675380
O O8 0.361024 0.967309 0.670229
O O9 0.500000 0.912158 0.443026
O O10 0.405499 0.902787 0.361615
O O11 0.410100 0.804671 0.446661
O O12 0.349272 0.928893 0.459137
O O13 0.898028 0.443111 0.250000
O O14 0.000000 0.488830 0.183067
O O15 0.638323 0.676262 0.424726
O O16 0.761662 0.629434 0.465761
O O17 0.500000 0.700344 0.468269
O O18 0.764060 0.000000 0.500000
O O19 0.896663 0.226611 0.750000
O O20 0.000000 0.247047 0.824134
#
# Coordination Sequence:
#
# PCOD9469088 Si02
#       8
#    16  16  16  16  16  16  16  16
#     4  10  18  33  50  71 100 133 163 201 246 296
#     4   9  17  29  48  72  97 128 163 199 245 297
#     4  10  19  31  46  70  99 132 169 199 234 289
#     4   9  17  30  46  67 102 139 164 194 240 295
#     4  10  18  33  50  70  96 129 162 203 251 286
#     4  10  18  31  51  70  95 132 168 200 240 294
#     4  11  20  32  49  71 100 131 162 200 243 289
#     4   9  17  29  49  75  98 122 160 207 251 294
#
# _framework density 16.222781999999999
#
# number of rings (size 3 to 8) (size 9 to 14) (size 15 to 20)
#    0.000    2.250    2.500    2.250    0.000    1.750 
#    0.000    1.875    0.000   11.250    0.000    0.000 
#    0.000    0.000    0.000    0.000    0.000    0.000 
#
# Total GULP energy -356640.683016 kJ/mol
# GULP energy per Si atom -5572.510672 kJ/mol
# Density = 1.618586 g / cm^3
# Si number density = 16.222782 Si / 1000 Ang^3
#
#
#
# Elastic Constant Matrix: (Units=GPa)
#
#
# Indices 1 2 3 4 5 6 
#
# 1 91.7965 19.3770 47.2329 0.0000 0.0000 0.0000
# 2 19.3770 41.5707 27.4926 0.0000 0.0000 0.0000
# 3 47.2329 27.4926 68.3083 0.0000 0.0000 0.0000
# 4 0.0000 0.0000 0.0000 19.8877 0.0000 0.0000
# 5 0.0000 0.0000 0.0000 0.0000 26.6445 0.0000
# 6 0.0000 0.0000 0.0000 0.0000 0.0000 15.7677
#
#
#
# Elastic Compliance Matrix: (Units=1/GPa)
#
#
# Indices 1 2 3 4 5 6 
#
# 1 0.016911 -0.000203 -0.011612 0.000000 0.000000 0.000000
# 2 -0.000203 0.032783 -0.013054 0.000000 0.000000 0.000000
# 3 -0.011612 -0.013054 0.027923 0.000000 0.000000 0.000000
# 4 0.000000 0.000000 0.000000 0.050282 0.000000 0.000000
# 5 0.000000 0.000000 0.000000 0.000000 0.037531 0.000000
# 6 0.000000 0.000000 0.000000 0.000000 0.000000 0.063421
#
#
# Mechanical properties :
#
#
# Convention : Reuss Voigt Hill
#
# Bulk Modulus (GPa) = 35.86915 43.32004 39.59459
# Shear Modulus (GPa) = 17.36819 19.63151 18.49985
#
# Velocity S-wave (km/s) = 3.27556 3.48245 3.38059
# Velocity P-wave (km/s) = 6.03855 6.55219 6.30060
#
# Compressibility (1/GPa) = 0.02787911
#
# Stress axis : x y z
#
# Youngs Moduli (GPa) = 59.13214 30.50323 35.81335
#
# Poissons Ratio (x) = 0.00620 0.41585
# Poissons Ratio (y) = 0.01203 0.46751
# Poissons Ratio (z) = 0.68663 0.39819
#
# Static dielectric constant tensor:
#      x y z
#    x 1.544010 0.000000 0.000000 
#    y 0.000000 1.531800 0.000000 
#    z 0.000000 0.000000 1.555440 
# 
# From -- ./inp_files/64087.got.cif
#   From: 2010.05.17/outbox.cif.g08.bks.cpg/sg63_33_cif.got.tgz:64087.got - 2010.06.03 15:47:04.
