data_PCOD9469483
_publ_section_title
;
Structure prediction by ZEFSAII (Michael W. Deem and Ramdas Pophale) SiO2 
 PCOD9469483
Probable space group: C M C M
;
_chemical_formula_sum "Si O2"
_cell_formula_units_Z 116
_cell_length_a 7.553564
_cell_length_b 28.488933
_cell_length_c 26.520075
_cell_angle_alpha 90.000000
_cell_angle_beta 90.000000
_cell_angle_gamma 90.000000
_cell_volume 5706.933935
_symmetry_space_group_name_H-M "C M C M"
_symmetry_group_IT_number 63
_symmetry_cell_setting 'orthorhombic'
loop_
_space_group_symop_operation_xyz
x,y,z
-x,-y,1/2+z
x,-y,-z
-x,y,1/2-z
-x,-y,-z
x,y,1/2-z
-x,y,z
x,-y,1/2+z
1/2+x,1/2+y,z
1/2-x,1/2-y,1/2+z
1/2+x,1/2-y,-z
1/2-x,1/2+y,1/2-z
1/2-x,1/2-y,-z
1/2+x,1/2+y,1/2-z
1/2-x,1/2+y,z
1/2+x,1/2-y,1/2+z
loop_
_atom_site_type_symbol
_atom_site_label
_atom_site_fract_x
_atom_site_fract_y
_atom_site_fract_z
Si Si1 0.207900 0.210030 0.694148
Si Si2 0.293875 0.247923 0.585816
Si Si3 0.215110 0.508012 0.691518
Si Si4 0.788082 0.350236 0.452469
Si Si5 0.211420 0.148994 0.064986
Si Si6 0.500000 0.112267 0.250000
Si Si7 0.714446 0.891148 0.151785
Si Si8 0.293679 0.593566 0.163498
O O1 0.279136 0.221472 0.750000
O O2 0.285614 0.236410 0.645569
O O3 0.229849 0.154368 0.683837
O O4 0.000000 0.220981 0.694156
O O5 0.500000 0.249942 0.571453
O O6 0.216510 0.202600 0.557224
O O7 0.214570 0.298306 0.572892
O O8 0.265039 0.502210 0.750000
O O9 0.274475 0.558794 0.672303
O O10 0.284449 0.463007 0.662145
O O11 0.000000 0.506459 0.689564
O O12 0.750252 0.367078 0.508404
O O13 0.725840 0.381524 0.405545
O O14 0.000000 0.347748 0.446988
O O15 0.266142 0.115543 0.110386
O O16 0.000000 0.151926 0.069301
O O17 0.656591 0.109679 0.206179
O O18 0.500000 0.891563 0.153357
O O19 0.500000 0.606918 0.173649
#
# Coordination Sequence:
#
# PCOD9469483 Si02
#       8
#    16  16  16  16  16   4  16  16
#     4  10  20  33  47  76 114 145 180 230 285 340
#     4   9  19  37  56  78 106 144 194 234 284 348
#     4  10  18  34  58  85 113 151 194 235 284 340
#     4   9  18  33  57  84 112 146 187 236 284 339
#     4  10  22  38  57  82 111 147 189 240 290 342
#     4  12  22  44  64  86 118 164 186 244 302 330
#     4   9  19  34  56  83 111 147 191 228 278 345
#     4  11  23  40  62  90 120 151 199 243 285 347
#
# _framework density 20.326150999999999
#
# number of rings (size 3 to 8) (size 9 to 14) (size 15 to 20)
#    0.000    2.207    1.379    2.276    0.966    4.966 
#    1.241    0.690    0.000    4.138    0.000    0.000 
#    0.000    0.000    0.000    0.000    0.000    0.000 
#
# Total GULP energy -323187.112383 kJ/mol
# GULP energy per Si atom -5572.191593 kJ/mol
# Density = 2.027989 g / cm^3
# Si number density = 20.326151 Si / 1000 Ang^3
#
#
#
# Elastic Constant Matrix: (Units=GPa)
#
#
# Indices 1 2 3 4 5 6 
#
# 1 66.7808 -1.2910 -3.2746 0.0000 0.0000 0.0000
# 2 -1.2910 44.9522 17.7539 0.0000 0.0000 0.0000
# 3 -3.2746 17.7539 86.1499 0.0000 0.0000 0.0000
# 4 0.0000 0.0000 0.0000 11.4223 0.0000 0.0000
# 5 0.0000 0.0000 0.0000 0.0000 12.5448 0.0000
# 6 0.0000 0.0000 0.0000 0.0000 0.0000 12.7393
#
#
#
# Elastic Compliance Matrix: (Units=1/GPa)
#
#
# Indices 1 2 3 4 5 6 
#
# 1 0.015004 0.000224 0.000524 0.000000 0.000000 0.000000
# 2 0.000224 0.024220 -0.004983 0.000000 0.000000 0.000000
# 3 0.000524 -0.004983 0.012654 0.000000 0.000000 0.000000
# 4 0.000000 0.000000 0.000000 0.087548 0.000000 0.000000
# 5 0.000000 0.000000 0.000000 0.000000 0.079714 0.000000
# 6 0.000000 0.000000 0.000000 0.000000 0.000000 0.078497
#
#
# Mechanical properties :
#
#
# Convention : Reuss Voigt Hill
#
# Bulk Modulus (GPa) = 23.03640 24.91775 23.97707
# Shear Modulus (GPa) = 15.59681 19.65425 17.62553
#
# Velocity S-wave (km/s) = 2.77307 3.11295 2.94791
# Velocity P-wave (km/s) = 4.64879 5.02057 4.83825
#
# Compressibility (1/GPa) = 0.04340956
#
# Stress axis : x y z
#
# Youngs Moduli (GPa) = 66.64714 41.28776 79.02352
#
# Poissons Ratio (x) = -0.00924 -0.04142
# Poissons Ratio (y) = -0.01492 0.39376
# Poissons Ratio (z) = -0.03494 0.20573
#
# Static dielectric constant tensor:
#      x y z
#    x 1.783380 0.000000 0.000000 
#    y 0.000000 1.726550 0.000000 
#    z 0.000000 0.000000 1.715180 
# 
# From -- ./inp_files/60631.got.cif
#   From: 2010.05.17/outbox.cif.g08.bks.cpg/sg63_31_cif.got.tgz:60631.got - 2010.06.03 15:47:04.
