data_PCOD9469208
_publ_section_title
;
Structure prediction by ZEFSAII (Michael W. Deem and Ramdas Pophale) SiO2 
 PCOD9469208
Probable space group: C M C M
;
_chemical_formula_sum "Si O2"
_cell_formula_units_Z 64
_cell_length_a 23.767037
_cell_length_b 9.174775
_cell_length_c 14.856013
_cell_angle_alpha 90.000000
_cell_angle_beta 90.000000
_cell_angle_gamma 90.000000
_cell_volume 3239.460849
_symmetry_space_group_name_H-M "C M C M"
_symmetry_group_IT_number 63
_symmetry_cell_setting 'orthorhombic'
loop_
_space_group_symop_operation_xyz
x,y,z
-x,-y,1/2+z
x,-y,-z
-x,y,1/2-z
-x,-y,-z
x,y,1/2-z
-x,y,z
x,-y,1/2+z
1/2+x,1/2+y,z
1/2-x,1/2-y,1/2+z
1/2+x,1/2-y,-z
1/2-x,1/2+y,1/2-z
1/2-x,1/2-y,-z
1/2+x,1/2+y,1/2-z
1/2-x,1/2+y,z
1/2+x,1/2-y,1/2+z
loop_
_atom_site_type_symbol
_atom_site_label
_atom_site_fract_x
_atom_site_fract_y
_atom_site_fract_z
Si Si1 0.309907 0.671908 0.005265
Si Si2 0.616128 0.176259 0.856732
Si Si3 0.627495 0.846102 0.850894
Si Si4 0.000000 0.330911 0.036741
Si Si5 0.000000 0.748128 0.152015
O O1 0.347937 0.737555 0.924416
O O2 0.303476 0.500000 0.000000
O O3 0.250000 0.750000 0.000000
O O4 0.341529 0.712455 0.097334
O O5 0.610614 0.193351 0.750000
O O6 0.555802 0.188265 0.904626
O O7 0.639678 0.013296 0.874969
O O8 0.648808 0.814335 0.750000
O O9 0.559455 0.836048 0.845806
O O10 0.000000 0.500000 0.000000
O O11 0.000000 0.213136 0.954381
O O12 0.000000 0.831701 0.250000
#
# Coordination Sequence:
#
# PCOD9469208 Si02
#       5
#    16  16  16   8   8
#     4  12  26  44  65  87 119 161 212 264 320 377
#     4  11  22  38  63  97 131 167 208 255 308 370
#     4  10  20  38  64  94 126 162 204 251 305 362
#     4  12  17  31  62  96 139 164 209 246 302 365
#     4  10  18  31  60  98 130 164 203 248 298 363
#
# _framework density 19.756374000000001
#
# number of rings (size 3 to 8) (size 9 to 14) (size 15 to 20)
#    0.000    1.000    5.000    2.625    0.000    2.000 
#    0.000    2.500    0.000    3.000    0.000    0.000 
#    0.000    0.000    0.000    0.000    0.000    0.000 
#
# Total GULP energy -178483.375410 kJ/mol
# GULP energy per Si atom -5577.605482 kJ/mol
# Density = 1.971141 g / cm^3
# Si number density = 19.756374 Si / 1000 Ang^3
#
#
#
# Elastic Constant Matrix: (Units=GPa)
#
#
# Indices 1 2 3 4 5 6 
#
# 1 110.4700 59.3840 46.4039 0.0000 0.0000 0.0000
# 2 59.3840 112.0193 60.2126 0.0000 0.0000 0.0000
# 3 46.4039 60.2126 152.9269 0.0000 0.0000 0.0000
# 4 0.0000 0.0000 0.0000 22.1213 0.0000 0.0000
# 5 0.0000 0.0000 0.0000 0.0000 6.2622 0.0000
# 6 0.0000 0.0000 0.0000 0.0000 0.0000 10.8331
#
#
#
# Elastic Compliance Matrix: (Units=1/GPa)
#
#
# Indices 1 2 3 4 5 6 
#
# 1 0.012945 -0.006027 -0.001555 0.000000 0.000000 0.000000
# 2 -0.006027 0.014129 -0.003734 0.000000 0.000000 0.000000
# 3 -0.001555 -0.003734 0.008481 0.000000 0.000000 0.000000
# 4 0.000000 0.000000 0.000000 0.045205 0.000000 0.000000
# 5 0.000000 0.000000 0.000000 0.000000 0.159688 0.000000
# 6 0.000000 0.000000 0.000000 0.000000 0.000000 0.092310
#
#
# Mechanical properties :
#
#
# Convention : Reuss Voigt Hill
#
# Bulk Modulus (GPa) = 77.37980 78.60190 77.99085
# Shear Modulus (GPa) = 13.90052 21.80438 17.85245
#
# Velocity S-wave (km/s) = 2.65542 3.32575 3.00930
# Velocity P-wave (km/s) = 6.97522 7.39049 7.18586
#
# Compressibility (1/GPa) = 0.01292327
#
# Stress axis : x y z
#
# Youngs Moduli (GPa) = 77.24916 70.77541 117.90567
#
# Poissons Ratio (x) = 0.42653 0.18336
# Poissons Ratio (y) = 0.46555 0.44031
# Poissons Ratio (z) = 0.12014 0.26431
#
# Static dielectric constant tensor:
#      x y z
#    x 1.673350 0.000000 0.000000 
#    y 0.000000 1.682510 0.000000 
#    z 0.000000 0.000000 1.755460 
# 
# From -- ./inp_files/36230.got.cif
#   From: 2010.05.17/outbox.cif.g08.bks.cpg/sg63_19_cif.got.tgz:36230.got - 2010.06.03 15:47:04.
