data_PCOD9469688
_publ_section_title
;
Structure prediction by ZEFSAII (Michael W. Deem and Ramdas Pophale) SiO2 
 PCOD9469688
Probable space group: C M C M
;
_chemical_formula_sum "Si O2"
_cell_formula_units_Z 80
_cell_length_a 24.886547
_cell_length_b 24.047883
_cell_length_c 8.876532
_cell_angle_alpha 90.000000
_cell_angle_beta 90.000000
_cell_angle_gamma 90.000000
_cell_volume 5312.327193
_symmetry_space_group_name_H-M "C M C M"
_symmetry_group_IT_number 63
_symmetry_cell_setting 'orthorhombic'
loop_
_space_group_symop_operation_xyz
x,y,z
-x,-y,1/2+z
x,-y,-z
-x,y,1/2-z
-x,-y,-z
x,y,1/2-z
-x,y,z
x,-y,1/2+z
1/2+x,1/2+y,z
1/2-x,1/2-y,1/2+z
1/2+x,1/2-y,-z
1/2-x,1/2+y,1/2-z
1/2-x,1/2-y,-z
1/2+x,1/2+y,1/2-z
1/2-x,1/2+y,z
1/2+x,1/2-y,1/2+z
loop_
_atom_site_type_symbol
_atom_site_label
_atom_site_fract_x
_atom_site_fract_y
_atom_site_fract_z
Si Si1 0.060764 0.756154 0.570143
Si Si2 0.830844 0.939938 0.430531
Si Si3 0.060240 0.121129 0.569610
Si Si4 0.727733 0.663569 0.429752
Si Si5 0.832285 0.269603 0.929288
O O1 0.066444 0.755407 0.750000
O O2 0.066317 0.819623 0.511777
O O3 0.108492 0.721810 0.494283
O O4 0.000000 0.738129 0.531138
O O5 0.827490 0.942055 0.250000
O O6 0.891136 0.919230 0.472488
O O7 0.790797 0.893162 0.493725
O O8 0.820401 0.000000 0.500000
O O9 0.063616 0.130726 0.750000
O O10 0.000000 0.099760 0.536207
O O11 0.720135 0.660460 0.250000
O O12 0.789178 0.681889 0.460261
O O13 0.691694 0.713882 0.494889
O O14 0.834561 0.260952 0.750000
#
# Coordination Sequence:
#
# PCOD9469688 Si02
#       5
#    16  16  16  16  16
#     4  10  19  29  45  70  97 125 156 192 233 277
#     4  11  22  34  49  67  91 124 162 202 244 282
#     4   9  18  32  47  63  87 121 161 201 238 277
#     4  10  20  33  49  69  93 120 157 198 237 283
#     4  10  19  31  49  71  94 123 154 191 238 286
#
# _framework density 15.059313
#
# number of rings (size 3 to 8) (size 9 to 14) (size 15 to 20)
#    0.000    2.000    2.000    2.400    0.000    4.800 
#    0.000    0.000    0.000    0.000    0.000    0.000 
#    0.000    0.800    0.000    2.600    0.000    3.800 
#
# Total GULP energy -223167.987822 kJ/mol
# GULP energy per Si atom -5579.199696 kJ/mol
# Density = 1.502504 g / cm^3
# Si number density = 15.059313 Si / 1000 Ang^3
#
#
#
# Elastic Constant Matrix: (Units=GPa)
#
#
# Indices 1 2 3 4 5 6 
#
# 1 129.2287 64.8051 56.2778 0.0000 0.0000 0.0000
# 2 64.8051 78.5980 41.4492 0.0000 0.0000 0.0000
# 3 56.2778 41.4492 56.0143 0.0000 0.0000 0.0000
# 4 0.0000 0.0000 0.0000 20.1345 0.0000 0.0000
# 5 0.0000 0.0000 0.0000 0.0000 25.0340 0.0000
# 6 0.0000 0.0000 0.0000 0.0000 0.0000 18.7478
#
#
#
# Elastic Compliance Matrix: (Units=1/GPa)
#
#
# Indices 1 2 3 4 5 6 
#
# 1 0.016262 -0.007859 -0.010523 0.000000 0.000000 0.000000
# 2 -0.007859 0.024663 -0.010354 0.000000 0.000000 0.000000
# 3 -0.010523 -0.010354 0.036087 0.000000 0.000000 0.000000
# 4 0.000000 0.000000 0.000000 0.049666 0.000000 0.000000
# 5 0.000000 0.000000 0.000000 0.000000 0.039946 0.000000
# 6 0.000000 0.000000 0.000000 0.000000 0.000000 0.053340
#
#
# Mechanical properties :
#
#
# Convention : Reuss Voigt Hill
#
# Bulk Modulus (GPa) = 51.17785 65.43391 58.30588
# Shear Modulus (GPa) = 17.60879 19.53718 18.57298
#
# Velocity S-wave (km/s) = 3.42321 3.60578 3.51568
# Velocity P-wave (km/s) = 7.04858 7.80261 7.43516
#
# Compressibility (1/GPa) = 0.01953970
#
# Stress axis : x y z
#
# Youngs Moduli (GPa) = 61.49343 40.54662 27.71064
#
# Poissons Ratio (x) = 0.31864 0.29160
# Poissons Ratio (y) = 0.48326 0.28693
# Poissons Ratio (z) = 0.64711 0.41983
#
# Static dielectric constant tensor:
#      x y z
#    x 1.534580 0.000000 0.000000 
#    y 0.000000 1.456770 0.000000 
#    z 0.000000 0.000000 1.499810 
# 
# From -- ./inp_files/12071.got.cif
#   From: 2010.05.17/outbox.cif.g08.bks.cpg/sg63_7_cif.got.tgz:12071.got - 2010.06.03 15:47:04.
