data_PCOD9469928
_publ_section_title
;
Structure prediction by ZEFSAII (Michael W. Deem and Ramdas Pophale) SiO2 
 PCOD9469928
Probable space group: C M C M
;
_chemical_formula_sum "Si O2"
_cell_formula_units_Z 104
_cell_length_a 25.411194
_cell_length_b 25.353688
_cell_length_c 9.313852
_cell_angle_alpha 90.000000
_cell_angle_beta 90.000000
_cell_angle_gamma 90.000000
_cell_volume 6000.611998
_symmetry_space_group_name_H-M "C M C M"
_symmetry_group_IT_number 63
_symmetry_cell_setting 'orthorhombic'
loop_
_space_group_symop_operation_xyz
x,y,z
-x,-y,1/2+z
x,-y,-z
-x,y,1/2-z
-x,-y,-z
x,y,1/2-z
-x,y,z
x,-y,1/2+z
1/2+x,1/2+y,z
1/2-x,1/2-y,1/2+z
1/2+x,1/2-y,-z
1/2-x,1/2+y,1/2-z
1/2-x,1/2-y,-z
1/2+x,1/2+y,1/2-z
1/2-x,1/2+y,z
1/2+x,1/2-y,1/2+z
loop_
_atom_site_type_symbol
_atom_site_label
_atom_site_fract_x
_atom_site_fract_y
_atom_site_fract_z
Si Si1 0.559933 0.845215 0.916532
Si Si2 0.277886 0.159031 0.418448
Si Si3 0.718754 0.052700 0.583325
Si Si4 0.500000 0.944908 0.921531
Si Si5 0.848711 0.844023 0.582802
Si Si6 0.141786 0.726125 0.921669
Si Si7 0.847175 0.051974 0.585566
O O1 0.577397 0.842195 0.750000
O O2 0.500000 0.823527 0.922379
O O3 0.549899 0.906767 0.955496
O O4 0.597578 0.813294 0.019538
O O5 0.291350 0.158252 0.250000
O O6 0.296374 0.105325 0.497047
O O7 0.214773 0.161280 0.428836
O O8 0.305363 0.207119 0.499430
O O9 0.701898 0.053700 0.750000
O O10 0.782931 0.052079 0.583462
O O11 0.701439 0.000000 0.500000
O O12 0.500000 0.951954 0.750000
O O13 0.500000 0.000000 0.000000
O O14 0.860588 0.854495 0.750000
O O15 0.870849 0.786848 0.541773
O O16 0.864783 0.893859 0.488460
O O17 0.148048 0.722797 0.750000
O O18 0.863809 0.049318 0.750000
O O19 0.863999 0.000000 0.500000
#
# Coordination Sequence:
#
# PCOD9469928 Si02
#       7
#    16  16  16   8  16  16  16
#     4   8  18  36  54  73  97 124 154 193 244 300
#     4  10  19  31  46  63  91 131 166 199 241 288
#     4   9  16  27  42  60  83 113 154 199 240 281
#     4   8  16  32  56  80 100 122 153 196 247 302
#     4   9  19  32  45  66  96 129 165 202 240 284
#     4  11  21  32  48  71  97 124 159 203 245 291
#     4   9  16  26  43  64  87 119 157 196 235 274
#
# _framework density 17.331565000000001
#
# number of rings (size 3 to 8) (size 9 to 14) (size 15 to 20)
#    0.462    2.308    0.000    2.308    0.000    6.462 
#    0.000    0.769    0.000    1.846    0.000    0.000 
#    0.000    0.615    0.000    2.000    0.000    2.923 
#
# Total GULP energy -289689.213700 kJ/mol
# GULP energy per Si atom -5570.946417 kJ/mol
# Density = 1.729212 g / cm^3
# Si number density = 17.331565 Si / 1000 Ang^3
#
#
#
# Elastic Constant Matrix: (Units=GPa)
#
#
# Indices 1 2 3 4 5 6 
#
# 1 18.0354 13.8868 10.1704 0.0000 0.0000 0.0000
# 2 13.8868 157.9284 91.5283 0.0000 0.0000 0.0000
# 3 10.1704 91.5283 114.7723 0.0000 0.0000 0.0000
# 4 0.0000 0.0000 0.0000 33.6338 0.0000 0.0000
# 5 0.0000 0.0000 0.0000 0.0000 15.8573 0.0000
# 6 0.0000 0.0000 0.0000 0.0000 0.0000 11.7828
#
#
#
# Elastic Compliance Matrix: (Units=1/GPa)
#
#
# Indices 1 2 3 4 5 6 
#
# 1 0.059732 -0.004062 -0.002054 0.000000 0.000000 0.000000
# 2 -0.004062 0.012050 -0.009249 0.000000 0.000000 0.000000
# 3 -0.002054 -0.009249 0.016271 0.000000 0.000000 0.000000
# 4 0.000000 0.000000 0.000000 0.029732 0.000000 0.000000
# 5 0.000000 0.000000 0.000000 0.000000 0.063063 0.000000
# 6 0.000000 0.000000 0.000000 0.000000 0.000000 0.084870
#
#
# Mechanical properties :
#
#
# Convention : Reuss Voigt Hill
#
# Bulk Modulus (GPa) = 17.44508 57.98966 37.71737
# Shear Modulus (GPa) = 15.84508 23.93148 19.88828
#
# Velocity S-wave (km/s) = 3.02691 3.71995 3.39118
# Velocity P-wave (km/s) = 4.72267 7.20988 6.09450
#
# Compressibility (1/GPa) = 0.05732276
#
# Stress axis : x y z
#
# Youngs Moduli (GPa) = 16.74135 82.98944 61.45866
#
# Poissons Ratio (x) = 0.33711 0.12622
# Poissons Ratio (y) = 0.06800 0.56846
# Poissons Ratio (z) = 0.03438 0.76760
#
# Static dielectric constant tensor:
#      x y z
#    x 1.591090 0.000000 0.000000 
#    y 0.000000 1.593510 0.000000 
#    z 0.000000 0.000000 1.574800 
# 
# From -- ./inp_files/14683.got.cif
#   From: 2010.05.17/outbox.cif.g08.bks.cpg/sg63_8_cif.got.tgz:14683.got - 2010.06.03 15:47:04.
