data_PCOD9469525
_publ_section_title
;
Structure prediction by ZEFSAII (Michael W. Deem and Ramdas Pophale) SiO2 
 PCOD9469525
Probable space group: C M C M
;
_chemical_formula_sum "Si O2"
_cell_formula_units_Z 112
_cell_length_a 15.690994
_cell_length_b 18.736849
_cell_length_c 16.853620
_cell_angle_alpha 90.000000
_cell_angle_beta 90.000000
_cell_angle_gamma 90.000000
_cell_volume 4954.960660
_symmetry_space_group_name_H-M "C M C M"
_symmetry_group_IT_number 63
_symmetry_cell_setting 'orthorhombic'
loop_
_space_group_symop_operation_xyz
x,y,z
-x,-y,1/2+z
x,-y,-z
-x,y,1/2-z
-x,-y,-z
x,y,1/2-z
-x,y,z
x,-y,1/2+z
1/2+x,1/2+y,z
1/2-x,1/2-y,1/2+z
1/2+x,1/2-y,-z
1/2-x,1/2+y,1/2-z
1/2-x,1/2-y,-z
1/2+x,1/2+y,1/2-z
1/2-x,1/2+y,z
1/2+x,1/2-y,1/2+z
loop_
_atom_site_type_symbol
_atom_site_label
_atom_site_fract_x
_atom_site_fract_y
_atom_site_fract_z
Si Si1 0.900606 0.749545 0.834756
Si Si2 0.718689 0.938320 0.838572
Si Si3 0.907726 0.972536 0.655789
Si Si4 0.596344 0.115737 0.032801
Si Si5 0.136333 0.137300 0.841129
Si Si6 0.830580 0.595981 0.866786
Si Si7 0.649565 0.729230 0.997257
O O1 0.861457 0.770669 0.750000
O O2 0.889171 0.663036 0.841960
O O3 0.000000 0.764305 0.832522
O O4 0.866145 0.791234 0.911130
O O5 0.725766 0.909576 0.750000
O O6 0.655835 0.893113 0.891730
O O7 0.814391 0.947842 0.873867
O O8 0.674399 0.016603 0.833074
O O9 0.908053 0.955550 0.750000
O O10 0.903809 0.058795 0.650821
O O11 0.000000 0.948475 0.622387
O O12 0.500000 0.088495 0.041633
O O13 0.595757 0.198985 0.012922
O O14 0.645961 0.082348 0.958367
O O15 0.116112 0.163384 0.750000
O O16 0.237833 0.126545 0.846868
O O17 0.121747 0.181765 0.922083
O O18 0.750000 0.750000 0.000000
#
# Coordination Sequence:
#
# PCOD9469525 Si02
#       7
#    16  16  16  16  16  16  16
#     4  10  20  34  55  84 115 150 202 260 305 352
#     4  10  21  36  57  85 120 159 196 245 307 376
#     4   8  16  33  59  89 117 150 199 256 308 362
#     4  11  24  39  56  84 121 162 204 249 306 368
#     4  10  19  33  59  91 119 153 201 257 316 372
#     4  10  18  35  59  82 110 150 205 253 299 354
#     4  11  21  36  59  84 117 165 204 252 304 373
#
# _framework density 22.603608999999999
#
# number of rings (size 3 to 8) (size 9 to 14) (size 15 to 20)
#    0.000    2.000    2.857    4.286    0.000    3.714 
#    0.000    0.000    0.000    8.571    0.000    2.000 
#    0.000    0.000    0.000    0.000    0.000    0.000 
#
# Total GULP energy -312107.613860 kJ/mol
# GULP energy per Si atom -5573.350248 kJ/mol
# Density = 2.255216 g / cm^3
# Si number density = 22.603609 Si / 1000 Ang^3
#
#
#
# Elastic Constant Matrix: (Units=GPa)
#
#
# Indices 1 2 3 4 5 6 
#
# 1 117.8036 6.0500 47.7534 0.0000 0.0000 0.0000
# 2 6.0500 52.1653 26.9382 0.0000 0.0000 0.0000
# 3 47.7534 26.9382 150.6178 0.0000 0.0000 0.0000
# 4 0.0000 0.0000 0.0000 -26.0678 0.0000 0.0000
# 5 0.0000 0.0000 0.0000 0.0000 31.6495 0.0000
# 6 0.0000 0.0000 0.0000 0.0000 0.0000 21.4585
#
#
#
# Elastic Compliance Matrix: (Units=1/GPa)
#
#
# Indices 1 2 3 4 5 6 
#
# 1 0.009753 0.000513 -0.003184 0.000000 0.000000 0.000000
# 2 0.000513 0.021147 -0.003945 0.000000 0.000000 0.000000
# 3 -0.003184 -0.003945 0.008354 0.000000 0.000000 0.000000
# 4 0.000000 0.000000 0.000000 -0.038362 0.000000 0.000000
# 5 0.000000 0.000000 0.000000 0.000000 0.031596 0.000000
# 6 0.000000 0.000000 0.000000 0.000000 0.000000 0.046602
#
#
# Mechanical properties :
#
#
# Convention : Reuss Voigt Hill
#
# Bulk Modulus (GPa) = 38.42721 53.56333 45.99527
# Shear Modulus (GPa) = 49.50635 21.39770 35.45203
#
# Velocity S-wave (km/s) = 4.68503 3.08011 3.96463
# Velocity P-wave (km/s) = 6.80466 6.03305 6.43044
#
# Compressibility (1/GPa) = 0.02602323
#
# Stress axis : x y z
#
# Youngs Moduli (GPa) = 102.53229 47.28693 119.69807
#
# Poissons Ratio (x) = -0.02426 0.38111
# Poissons Ratio (y) = -0.05261 0.47220
# Poissons Ratio (z) = 0.32646 0.18654
#
# Static dielectric constant tensor:
#      x y z
#    x 1.951430 0.000000 0.000000 
#    y 0.000000 1.876560 0.000000 
#    z 0.000000 0.000000 1.947770 
# 
# From -- ./inp_files/32334.got.cif
#   From: 2010.05.17/outbox.cif.g08.bks.cpg/sg63_17_cif.got.tgz:32334.got - 2010.06.03 15:47:04.
