data_PCOD9469411
_publ_section_title
;
Structure prediction by ZEFSAII (Michael W. Deem and Ramdas Pophale) SiO2 
 PCOD9469411
Probable space group: C M C M
;
_chemical_formula_sum "Si O2"
_cell_formula_units_Z 96
_cell_length_a 13.924454
_cell_length_b 23.356105
_cell_length_c 15.088623
_cell_angle_alpha 90.000000
_cell_angle_beta 90.000000
_cell_angle_gamma 90.000000
_cell_volume 4907.137207
_symmetry_space_group_name_H-M "C M C M"
_symmetry_group_IT_number 63
_symmetry_cell_setting 'orthorhombic'
loop_
_space_group_symop_operation_xyz
x,y,z
-x,-y,1/2+z
x,-y,-z
-x,y,1/2-z
-x,-y,-z
x,y,1/2-z
-x,y,z
x,-y,1/2+z
1/2+x,1/2+y,z
1/2-x,1/2-y,1/2+z
1/2+x,1/2-y,-z
1/2-x,1/2+y,1/2-z
1/2-x,1/2-y,-z
1/2+x,1/2+y,1/2-z
1/2-x,1/2+y,z
1/2+x,1/2-y,1/2+z
loop_
_atom_site_type_symbol
_atom_site_label
_atom_site_fract_x
_atom_site_fract_y
_atom_site_fract_z
Si Si1 0.886486 0.359836 0.522262
Si Si2 0.390127 0.371487 0.097645
Si Si3 0.615963 0.240763 0.350994
Si Si4 0.805329 0.410609 0.348432
Si Si5 0.188046 0.542822 0.351269
Si Si6 0.392636 0.446409 0.931553
O O1 0.848014 0.306285 0.579456
O O2 0.840419 0.369796 0.426528
O O3 0.864852 0.416021 0.580553
O O4 0.000000 0.352928 0.510509
O O5 0.500000 0.382546 0.126290
O O6 0.367729 0.305255 0.115909
O O7 0.310314 0.407943 0.148011
O O8 0.384128 0.390846 0.995217
O O9 0.652138 0.233446 0.250000
O O10 0.500000 0.233813 0.347084
O O11 0.838065 0.394443 0.250000
O O12 0.835197 0.476035 0.366671
O O13 0.163332 0.557162 0.250000
O O14 0.302119 0.550647 0.367624
O O15 0.500000 0.447901 0.892291
O O16 0.385787 0.500000 0.000000
#
# Coordination Sequence:
#
# PCOD9469411 Si02
#       6
#    16  16  16  16  16  16
#     4  11  23  41  61  79 111 155 198 248 298 336
#     4  10  19  35  61  87 118 150 184 231 282 338
#     4   9  19  36  59  88 115 146 194 243 286 338
#     4  11  23  37  57  87 118 148 190 238 292 353
#     4  11  22  37  57  84 117 151 193 242 290 345
#     4  10  18  33  56  83 118 156 186 220 280 350
#
# _framework density 19.563341999999999
#
# number of rings (size 3 to 8) (size 9 to 14) (size 15 to 20)
#    0.000    1.667    3.333    1.500    0.000    4.667 
#    0.000    3.333    0.000    0.000    0.000    4.667 
#    0.000    0.000    0.000    0.000    0.000    0.000 
#
# Total GULP energy -267943.450027 kJ/mol
# GULP energy per Si atom -5582.155209 kJ/mol
# Density = 1.951881 g / cm^3
# Si number density = 19.563342 Si / 1000 Ang^3
#
#
#
# Elastic Constant Matrix: (Units=GPa)
#
#
# Indices 1 2 3 4 5 6 
#
# 1 29.0703 -3.0827 7.4173 0.0000 0.0000 0.0000
# 2 -3.0827 79.1300 49.4335 0.0000 0.0000 0.0000
# 3 7.4173 49.4335 102.1362 0.0000 0.0000 0.0000
# 4 0.0000 0.0000 0.0000 21.2364 0.0000 0.0000
# 5 0.0000 0.0000 0.0000 0.0000 12.0622 0.0000
# 6 0.0000 0.0000 0.0000 0.0000 0.0000 23.6970
#
#
#
# Elastic Compliance Matrix: (Units=1/GPa)
#
#
# Indices 1 2 3 4 5 6 
#
# 1 0.036068 0.004360 -0.004729 0.000000 0.000000 0.000000
# 2 0.004360 0.018641 -0.009339 0.000000 0.000000 0.000000
# 3 -0.004729 -0.009339 0.014654 0.000000 0.000000 0.000000
# 4 0.000000 0.000000 0.000000 0.047089 0.000000 0.000000
# 5 0.000000 0.000000 0.000000 0.000000 0.082904 0.000000
# 6 0.000000 0.000000 0.000000 0.000000 0.000000 0.042200
#
#
# Mechanical properties :
#
#
# Convention : Reuss Voigt Hill
#
# Bulk Modulus (GPa) = 20.02134 35.31919 27.67026
# Shear Modulus (GPa) = 18.01005 21.83700 19.92353
#
# Velocity S-wave (km/s) = 3.03743 3.34461 3.19472
# Velocity P-wave (km/s) = 4.74949 5.74528 5.27095
#
# Compressibility (1/GPa) = 0.04994670
#
# Stress axis : x y z
#
# Youngs Moduli (GPa) = 27.72511 53.64390 68.23922
#
# Poissons Ratio (x) = -0.23387 0.32273
# Poissons Ratio (y) = -0.12087 0.63728
# Poissons Ratio (z) = 0.13112 0.50098
#
# Static dielectric constant tensor:
#      x y z
#    x 1.704980 0.000000 0.000000 
#    y 0.000000 1.689560 0.000000 
#    z 0.000000 0.000000 1.691980 
# 
# From -- ./inp_files/31884.got.cif
#   From: 2010.05.17/outbox.cif.g08.bks.cpg/sg63_16_cif.got.tgz:31884.got - 2010.06.03 15:47:04.
