data_PCOD9469618
_publ_section_title
;
Structure prediction by ZEFSAII (Michael W. Deem and Ramdas Pophale) SiO2 
 PCOD9469618
Probable space group: C M C M
;
_chemical_formula_sum "Si O2"
_cell_formula_units_Z 112
_cell_length_a 13.930817
_cell_length_b 29.783796
_cell_length_c 17.882371
_cell_angle_alpha 90.000000
_cell_angle_beta 90.000000
_cell_angle_gamma 90.000000
_cell_volume 7419.621254
_symmetry_space_group_name_H-M "C M C M"
_symmetry_group_IT_number 63
_symmetry_cell_setting 'orthorhombic'
loop_
_space_group_symop_operation_xyz
x,y,z
-x,-y,1/2+z
x,-y,-z
-x,y,1/2-z
-x,-y,-z
x,y,1/2-z
-x,y,z
x,-y,1/2+z
1/2+x,1/2+y,z
1/2-x,1/2-y,1/2+z
1/2+x,1/2-y,-z
1/2-x,1/2+y,1/2-z
1/2-x,1/2-y,-z
1/2+x,1/2+y,1/2-z
1/2-x,1/2+y,z
1/2+x,1/2-y,1/2+z
loop_
_atom_site_type_symbol
_atom_site_label
_atom_site_fract_x
_atom_site_fract_y
_atom_site_fract_z
Si Si1 0.613012 0.320217 0.659463
Si Si2 0.391807 0.687338 0.660403
Si Si3 0.387233 0.489368 0.087540
Si Si4 0.386254 0.158188 0.661587
Si Si5 0.275948 0.761213 0.414512
Si Si6 0.785911 0.905764 0.338603
Si Si7 0.616487 0.418849 0.664294
O O1 0.620386 0.318944 0.750000
O O2 0.500000 0.313677 0.641789
O O3 0.676116 0.282078 0.622693
O O4 0.643987 0.370077 0.633163
O O5 0.389427 0.691935 0.750000
O O6 0.500000 0.691953 0.633453
O O7 0.322199 0.723619 0.624824
O O8 0.352295 0.637482 0.644031
O O9 0.500000 0.480698 0.108231
O O10 0.322634 0.447831 0.113984
O O11 0.353386 0.535655 0.125226
O O12 0.384701 0.500000 0.000000
O O13 0.368793 0.171274 0.750000
O O14 0.500000 0.151577 0.652861
O O15 0.347061 0.197149 0.606710
O O16 0.321544 0.113718 0.649066
O O17 0.250000 0.750000 0.500000
O O18 0.796030 0.916214 0.250000
O O19 0.647669 0.420578 0.750000
O O20 0.500000 0.418535 0.663240
#
# Coordination Sequence:
#
# PCOD9469618 Si02
#       7
#    16  16  16  16  16  16  16
#     4   9  17  31  50  67  86 118 158 196 230 265
#     4   9  18  32  47  64  89 120 154 190 225 269
#     4  10  19  28  41  65  98 130 152 177 221 278
#     4   9  18  34  54  73  93 119 157 204 243 276
#     4  11  21  29  43  69  97 123 150 183 231 284
#     4   9  17  30  50  72  90 115 152 191 234 278
#     4   8  15  27  42  61  84 112 149 187 218 254
#
# _framework density 15.09511
#
# number of rings (size 3 to 8) (size 9 to 14) (size 15 to 20)
#    0.000    2.714    0.000    4.286    0.000    6.000 
#    0.000    1.429    0.000    0.429    0.000    1.000 
#    0.000    3.429    0.000    0.000    0.000    0.000 
#
# Total GULP energy -311822.085563 kJ/mol
# GULP energy per Si atom -5568.251528 kJ/mol
# Density = 1.506075 g / cm^3
# Si number density = 15.095110 Si / 1000 Ang^3
#
#
#
# Elastic Constant Matrix: (Units=GPa)
#
#
# Indices 1 2 3 4 5 6 
#
# 1 104.2272 61.0482 35.1185 0.0000 0.0000 0.0000
# 2 61.0482 134.5811 56.6548 0.0000 0.0000 0.0000
# 3 35.1185 56.6548 45.9712 0.0000 0.0000 0.0000
# 4 0.0000 0.0000 0.0000 -0.6841 0.0000 0.0000
# 5 0.0000 0.0000 0.0000 0.0000 14.4336 0.0000
# 6 0.0000 0.0000 0.0000 0.0000 0.0000 22.6661
#
#
#
# Elastic Compliance Matrix: (Units=1/GPa)
#
#
# Indices 1 2 3 4 5 6 
#
# 1 0.013788 -0.003783 -0.005871 0.000000 0.000000 0.000000
# 2 -0.003783 0.016480 -0.017419 0.000000 0.000000 0.000000
# 3 -0.005871 -0.017419 0.047705 0.000000 0.000000 0.000000
# 4 0.000000 0.000000 0.000000 -1.461881 0.000000 0.000000
# 5 0.000000 0.000000 0.000000 0.000000 0.069283 0.000000
# 6 0.000000 0.000000 0.000000 0.000000 0.000000 0.044119
#
#
# Mechanical properties :
#
#
# Convention : Reuss Voigt Hill
#
# Bulk Modulus (GPa) = 41.97029 65.60248 53.78639
# Shear Modulus (GPa) = -4.13765 16.08033 5.97134
#
# Velocity S-wave (km/s) = -1.65741 3.26738 1.99108
# Velocity P-wave (km/s) = 4.91951 7.60185 6.40272
#
# Compressibility (1/GPa) = 0.02382638
#
# Stress axis : x y z
#
# Youngs Moduli (GPa) = 72.52423 60.68091 20.96195
#
# Poissons Ratio (x) = 0.22957 0.12307
# Poissons Ratio (y) = 0.27437 0.36515
# Poissons Ratio (z) = 0.42579 1.05703
#
# Static dielectric constant tensor:
#      x y z
#    x 1.493910 0.000000 0.000000 
#    y 0.000000 1.500010 0.000000 
#    z 0.000000 0.000000 1.486830 
# 
# From -- ./inp_files/32532.got.cif
#   From: 2010.05.17/outbox.cif.g08.bks.cpg/sg63_17_cif.got.tgz:32532.got - 2010.06.03 15:47:04.
