data_PCOD9469000
_publ_section_title
;
Structure prediction by ZEFSAII (Michael W. Deem and Ramdas Pophale) SiO2 
 PCOD9469000
Probable space group: C M C M
;
_chemical_formula_sum "Si O2"
_cell_formula_units_Z 96
_cell_length_a 7.396068
_cell_length_b 31.374032
_cell_length_c 19.643144
_cell_angle_alpha 90.000000
_cell_angle_beta 90.000000
_cell_angle_gamma 90.000000
_cell_volume 4558.083019
_symmetry_space_group_name_H-M "C M C M"
_symmetry_group_IT_number 63
_symmetry_cell_setting 'orthorhombic'
loop_
_space_group_symop_operation_xyz
x,y,z
-x,-y,1/2+z
x,-y,-z
-x,y,1/2-z
-x,-y,-z
x,y,1/2-z
-x,y,z
x,-y,1/2+z
1/2+x,1/2+y,z
1/2-x,1/2-y,1/2+z
1/2+x,1/2-y,-z
1/2-x,1/2+y,1/2-z
1/2-x,1/2-y,-z
1/2+x,1/2+y,1/2-z
1/2-x,1/2+y,z
1/2+x,1/2-y,1/2+z
loop_
_atom_site_type_symbol
_atom_site_label
_atom_site_fract_x
_atom_site_fract_y
_atom_site_fract_z
Si Si1 0.720779 0.936383 0.671863
Si Si2 0.720554 0.013568 0.923702
Si Si3 0.284024 0.687719 0.826926
Si Si4 0.283840 0.236477 0.422252
Si Si5 0.783751 0.390467 0.425435
Si Si6 0.278833 0.859646 0.574426
O O1 0.779625 0.936003 0.750000
O O2 0.500000 0.936514 0.671951
O O3 0.776552 0.894624 0.629657
O O4 0.779130 0.978416 0.630760
O O5 0.500000 0.013212 0.922656
O O6 0.781662 0.061810 0.910268
O O7 0.773696 0.000000 0.000000
O O8 0.213510 0.686471 0.750000
O O9 0.500000 0.693103 0.822837
O O10 0.212664 0.727310 0.871493
O O11 0.253874 0.644157 0.867881
O O12 0.500000 0.235063 0.413528
O O13 0.250000 0.250000 0.500000
O O14 0.217358 0.188410 0.410939
O O15 0.718820 0.373922 0.499011
O O16 0.000000 0.393562 0.431623
O O17 0.500000 0.859325 0.573742
#
# Coordination Sequence:
#
# PCOD9469000 Si02
#       6
#    16  16  16  16  16  16
#     4   9  16  25  39  65 100 130 156 195 249 298
#     4   9  15  25  43  69 101 131 158 197 248 295
#     4  10  22  37  50  70 103 136 164 202 251 294
#     4  10  19  32  52  74  97 126 164 203 243 290
#     4  10  18  30  52  76  99 129 167 205 244 289
#     4   9  16  27  45  70  95 123 160 202 243 287
#
# _framework density 21.061487
#
# number of rings (size 3 to 8) (size 9 to 14) (size 15 to 20)
#    0.000    2.500    3.333    0.000    0.000    1.667 
#    0.000    5.000    0.000    0.500    0.000    0.000 
#    0.000    2.000    0.000    0.000    0.000    0.000 
#
# Total GULP energy -268126.802318 kJ/mol
# GULP energy per Si atom -5585.975048 kJ/mol
# Density = 2.101355 g / cm^3
# Si number density = 21.061487 Si / 1000 Ang^3
#
#
#
# Elastic Constant Matrix: (Units=GPa)
#
#
# Indices 1 2 3 4 5 6 
#
# 1 71.1902 6.7534 1.7112 0.0000 0.0000 0.0000
# 2 6.7534 266.5674 149.4075 0.0000 0.0000 0.0000
# 3 1.7112 149.4075 222.4208 0.0000 0.0000 0.0000
# 4 0.0000 0.0000 0.0000 36.2376 0.0000 0.0000
# 5 0.0000 0.0000 0.0000 0.0000 3.4545 0.0000
# 6 0.0000 0.0000 0.0000 0.0000 0.0000 28.9133
#
#
#
# Elastic Compliance Matrix: (Units=1/GPa)
#
#
# Indices 1 2 3 4 5 6 
#
# 1 0.014087 -0.000475 0.000211 0.000000 0.000000 0.000000
# 2 -0.000475 0.006033 -0.004049 0.000000 0.000000 0.000000
# 3 0.000211 -0.004049 0.007214 0.000000 0.000000 0.000000
# 4 0.000000 0.000000 0.000000 0.027596 0.000000 0.000000
# 5 0.000000 0.000000 0.000000 0.000000 0.289474 0.000000
# 6 0.000000 0.000000 0.000000 0.000000 0.000000 0.034586
#
#
# Mechanical properties :
#
#
# Convention : Reuss Voigt Hill
#
# Bulk Modulus (GPa) = 53.45430 97.32473 75.38952
# Shear Modulus (GPa) = 12.69516 40.54151 26.61834
#
# Velocity S-wave (km/s) = 2.45779 4.39214 3.55891
# Velocity P-wave (km/s) = 5.78702 8.48713 7.26364
#
# Compressibility (1/GPa) = 0.01870757
#
# Stress axis : x y z
#
# Youngs Moduli (GPa) = 70.98812 165.76414 138.61931
#
# Poissons Ratio (x) = 0.07873 -0.02920
# Poissons Ratio (y) = 0.03372 0.56123
# Poissons Ratio (z) = -0.01496 0.67113
#
# Static dielectric constant tensor:
#      x y z
#    x 1.855120 0.000000 0.000000 
#    y 0.000000 1.744800 0.000000 
#    z 0.000000 0.000000 1.704340 
# 
# From -- ./inp_files/42699.got.cif
#   From: 2010.05.17/outbox.cif.g08.bks.cpg/sg63_22_cif.got.tgz:42699.got - 2010.06.03 15:47:04.
