data_PCOD9469178
_publ_section_title
;
Structure prediction by ZEFSAII (Michael W. Deem and Ramdas Pophale) SiO2 
 PCOD9469178
Probable space group: C M C M
;
_chemical_formula_sum "Si O2"
_cell_formula_units_Z 80
_cell_length_a 17.859908
_cell_length_b 19.172389
_cell_length_c 13.654983
_cell_angle_alpha 90.000000
_cell_angle_beta 90.000000
_cell_angle_gamma 90.000000
_cell_volume 4675.699730
_symmetry_space_group_name_H-M "C M C M"
_symmetry_group_IT_number 63
_symmetry_cell_setting 'orthorhombic'
loop_
_space_group_symop_operation_xyz
x,y,z
-x,-y,1/2+z
x,-y,-z
-x,y,1/2-z
-x,-y,-z
x,y,1/2-z
-x,y,z
x,-y,1/2+z
1/2+x,1/2+y,z
1/2-x,1/2-y,1/2+z
1/2+x,1/2-y,-z
1/2-x,1/2+y,1/2-z
1/2-x,1/2-y,-z
1/2+x,1/2+y,1/2-z
1/2-x,1/2+y,z
1/2+x,1/2-y,1/2+z
loop_
_atom_site_type_symbol
_atom_site_label
_atom_site_fract_x
_atom_site_fract_y
_atom_site_fract_z
Si Si1 0.729933 0.576432 0.464028
Si Si2 0.761141 0.323935 0.139613
Si Si3 0.084288 0.282368 0.056406
Si Si4 0.834371 0.683586 0.362375
Si Si5 0.415260 0.624769 0.366473
O O1 0.751240 0.500000 0.500000
O O2 0.725473 0.626240 0.558968
O O3 0.791085 0.613612 0.394532
O O4 0.650336 0.577426 0.409375
O O5 0.747577 0.347844 0.250000
O O6 0.849370 0.318638 0.116933
O O7 0.726051 0.246656 0.129490
O O8 0.089809 0.200299 0.081593
O O9 0.000000 0.304703 0.080886
O O10 0.103311 0.298230 0.943079
O O11 0.859824 0.680467 0.250000
O O12 0.404320 0.635148 0.250000
O O13 0.500000 0.598080 0.381504
#
# Coordination Sequence:
#
# PCOD9469178 Si02
#       5
#    16  16  16  16  16
#     4  11  21  34  53  77 107 141 179 218 260 311
#     4  10  19  34  54  77 103 135 178 223 262 303
#     4  10  18  31  54  82 106 132 171 217 264 310
#     4  10  19  35  56  77 104 138 177 221 265 311
#     4  10  19  32  52  78 109 144 179 212 252 308
#
# _framework density 17.109739000000001
#
# number of rings (size 3 to 8) (size 9 to 14) (size 15 to 20)
#    0.000    1.800    4.000    2.400    0.000    3.600 
#    0.000    0.000    0.000   10.200    0.000   11.200 
#    0.000    0.000    0.000    0.000    0.000    0.000 
#
# Total GULP energy -223092.296911 kJ/mol
# GULP energy per Si atom -5577.307423 kJ/mol
# Density = 1.707080 g / cm^3
# Si number density = 17.109739 Si / 1000 Ang^3
#
#
#
# Elastic Constant Matrix: (Units=GPa)
#
#
# Indices 1 2 3 4 5 6 
#
# 1 54.0048 0.5101 -3.3631 0.0000 0.0000 0.0000
# 2 0.5101 56.3043 12.4091 0.0000 0.0000 0.0000
# 3 -3.3631 12.4091 65.4735 0.0000 0.0000 0.0000
# 4 0.0000 0.0000 0.0000 12.5438 0.0000 0.0000
# 5 0.0000 0.0000 0.0000 0.0000 13.4336 0.0000
# 6 0.0000 0.0000 0.0000 0.0000 0.0000 6.8148
#
#
#
# Elastic Compliance Matrix: (Units=1/GPa)
#
#
# Indices 1 2 3 4 5 6 
#
# 1 0.018585 -0.000395 0.001030 0.000000 0.000000 0.000000
# 2 -0.000395 0.018543 -0.003535 0.000000 0.000000 0.000000
# 3 0.001030 -0.003535 0.015996 0.000000 0.000000 0.000000
# 4 0.000000 0.000000 0.000000 0.079721 0.000000 0.000000
# 5 0.000000 0.000000 0.000000 0.000000 0.074440 0.000000
# 6 0.000000 0.000000 0.000000 0.000000 0.000000 0.146739
#
#
# Mechanical properties :
#
#
# Convention : Reuss Voigt Hill
#
# Bulk Modulus (GPa) = 21.13133 21.65498 21.39315
# Shear Modulus (GPa) = 13.31207 17.64021 15.47614
#
# Velocity S-wave (km/s) = 2.79236 3.21441 3.01079
# Velocity P-wave (km/s) = 4.77218 5.14398 4.96156
#
# Compressibility (1/GPa) = 0.04732311
#
# Stress axis : x y z
#
# Youngs Moduli (GPa) = 53.80761 53.92796 62.51487
#
# Poissons Ratio (x) = 0.02132 -0.06436
# Poissons Ratio (y) = 0.02127 0.22098
# Poissons Ratio (z) = -0.05540 0.19062
#
# Static dielectric constant tensor:
#      x y z
#    x 1.580670 0.000000 0.000000 
#    y 0.000000 1.553270 0.000000 
#    z 0.000000 0.000000 1.592490 
# 
# From -- ./inp_files/31670.got.cif
#   From: 2010.05.17/outbox.cif.g08.bks.cpg/sg63_16_cif.got.tgz:31670.got - 2010.06.03 15:47:04.
