data_PCOD9469154
_publ_section_title
;
Structure prediction by ZEFSAII (Michael W. Deem and Ramdas Pophale) SiO2 
 PCOD9469154
Probable space group: C M C M
;
_chemical_formula_sum "Si O2"
_cell_formula_units_Z 96
_cell_length_a 13.932078
_cell_length_b 18.543560
_cell_length_c 20.016239
_cell_angle_alpha 90.000000
_cell_angle_beta 90.000000
_cell_angle_gamma 90.000000
_cell_volume 5171.201837
_symmetry_space_group_name_H-M "C M C M"
_symmetry_group_IT_number 63
_symmetry_cell_setting 'orthorhombic'
loop_
_space_group_symop_operation_xyz
x,y,z
-x,-y,1/2+z
x,-y,-z
-x,y,1/2-z
-x,-y,-z
x,y,1/2-z
-x,y,z
x,-y,1/2+z
1/2+x,1/2+y,z
1/2-x,1/2-y,1/2+z
1/2+x,1/2-y,-z
1/2-x,1/2+y,1/2-z
1/2-x,1/2-y,-z
1/2+x,1/2+y,1/2-z
1/2-x,1/2+y,z
1/2+x,1/2-y,1/2+z
loop_
_atom_site_type_symbol
_atom_site_label
_atom_site_fract_x
_atom_site_fract_y
_atom_site_fract_z
Si Si1 0.685378 0.731560 0.826446
Si Si2 0.292561 0.631743 0.999800
Si Si3 0.604255 0.264092 0.673083
Si Si4 0.613660 0.581018 0.867553
Si Si5 0.609984 0.423793 0.871823
Si Si6 0.888875 0.717230 0.464588
O O1 0.681638 0.760001 0.750000
O O2 0.795975 0.731933 0.852307
O O3 0.646133 0.650234 0.826000
O O4 0.629112 0.774186 0.884385
O O5 0.324669 0.587388 0.935265
O O6 0.355710 0.705617 0.995119
O O7 0.321474 0.589323 0.065867
O O8 0.183304 0.657929 0.005974
O O9 0.599619 0.241034 0.750000
O O10 0.500000 0.246930 0.641569
O O11 0.615526 0.350843 0.670713
O O12 0.500000 0.589671 0.882016
O O13 0.628119 0.501049 0.838272
O O14 0.500000 0.427292 0.897253
O O15 0.000000 0.704000 0.477203
#
# Coordination Sequence:
#
# PCOD9469154 Si02
#       6
#    16  16  16  16  16  16
#     4  10  19  34  52  74 102 134 167 208 258 301
#     4  10  18  32  49  72 103 134 164 206 250 300
#     4   9  18  32  51  77 103 129 169 213 252 299
#     4  10  21  33  49  78 107 132 168 209 253 307
#     4  10  18  31  53  76 102 134 165 205 257 307
#     4  10  20  32  49  76 103 130 171 215 250 296
#
# _framework density 18.564349
#
# number of rings (size 3 to 8) (size 9 to 14) (size 15 to 20)
#    0.000    2.167    1.667    3.500    0.000    3.333 
#    0.000    1.667    0.000    3.000    0.000    0.000 
#    0.000    0.000    0.000    0.000    0.000    0.000 
#
# Total GULP energy -267496.436021 kJ/mol
# GULP energy per Si atom -5572.842417 kJ/mol
# Density = 1.852210 g / cm^3
# Si number density = 18.564349 Si / 1000 Ang^3
#
#
#
# Elastic Constant Matrix: (Units=GPa)
#
#
# Indices 1 2 3 4 5 6 
#
# 1 144.0929 40.7706 20.6005 0.0000 0.0000 0.0000
# 2 40.7706 57.3779 2.0351 0.0000 0.0000 0.0000
# 3 20.6005 2.0351 61.8662 0.0000 0.0000 0.0000
# 4 0.0000 0.0000 0.0000 -3.5626 0.0000 0.0000
# 5 0.0000 0.0000 0.0000 0.0000 8.2507 0.0000
# 6 0.0000 0.0000 0.0000 0.0000 0.0000 24.9159
#
#
#
# Elastic Compliance Matrix: (Units=1/GPa)
#
#
# Indices 1 2 3 4 5 6 
#
# 1 0.009159 -0.006407 -0.002839 0.000000 0.000000 0.000000
# 2 -0.006407 0.021931 0.001412 0.000000 0.000000 0.000000
# 3 -0.002839 0.001412 0.017063 0.000000 0.000000 0.000000
# 4 0.000000 0.000000 0.000000 -0.280697 0.000000 0.000000
# 5 0.000000 0.000000 0.000000 0.000000 0.121201 0.000000
# 6 0.000000 0.000000 0.000000 0.000000 0.000000 0.040135
#
#
# Mechanical properties :
#
#
# Convention : Reuss Voigt Hill
#
# Bulk Modulus (GPa) = 30.78406 43.34996 37.06701
# Shear Modulus (GPa) = -111.82585 19.24954 -46.28815
#
# Velocity S-wave (km/s) = -7.76966 3.22360 -4.99880
# Velocity P-wave (km/s) = 7.99199 6.10388 3.64791
#
# Compressibility (1/GPa) = 0.03248434
#
# Stress axis : x y z
#
# Youngs Moduli (GPa) = 109.18546 45.59767 58.60706
#
# Poissons Ratio (x) = 0.29215 0.16638
# Poissons Ratio (y) = 0.69957 -0.08276
# Poissons Ratio (z) = 0.30997 -0.06439
#
# Static dielectric constant tensor:
#      x y z
#    x 1.659940 0.000000 0.000000 
#    y 0.000000 1.640660 0.000000 
#    z 0.000000 0.000000 1.685470 
# 
# From -- ./inp_files/61488.got.cif
#   From: 2010.05.17/outbox.cif.g08.bks.cpg/sg63_31_cif.got.tgz:61488.got - 2010.06.03 15:47:04.
