data_PCOD9469171
_publ_section_title
;
Structure prediction by ZEFSAII (Michael W. Deem and Ramdas Pophale) SiO2 
 PCOD9469171
Probable space group: C M C M
;
_chemical_formula_sum "Si O2"
_cell_formula_units_Z 80
_cell_length_a 16.580656
_cell_length_b 10.043479
_cell_length_c 25.432866
_cell_angle_alpha 90.000000
_cell_angle_beta 90.000000
_cell_angle_gamma 90.000000
_cell_volume 4235.270839
_symmetry_space_group_name_H-M "C M C M"
_symmetry_group_IT_number 63
_symmetry_cell_setting 'orthorhombic'
loop_
_space_group_symop_operation_xyz
x,y,z
-x,-y,1/2+z
x,-y,-z
-x,y,1/2-z
-x,-y,-z
x,y,1/2-z
-x,y,z
x,-y,1/2+z
1/2+x,1/2+y,z
1/2-x,1/2-y,1/2+z
1/2+x,1/2-y,-z
1/2-x,1/2+y,1/2-z
1/2-x,1/2-y,-z
1/2+x,1/2+y,1/2-z
1/2-x,1/2+y,z
1/2+x,1/2-y,1/2+z
loop_
_atom_site_type_symbol
_atom_site_label
_atom_site_fract_x
_atom_site_fract_y
_atom_site_fract_z
Si Si1 0.252649 0.968705 0.377956
Si Si2 0.907097 0.873772 0.631252
Si Si3 0.094339 0.852457 0.989617
Si Si4 0.207563 0.283430 0.944563
Si Si5 0.091026 0.405436 0.312568
O O1 0.235150 0.822318 0.400742
O O2 0.329314 0.968439 0.339015
O O3 0.166646 0.025960 0.357254
O O4 0.278971 0.069017 0.424492
O O5 0.890088 0.820022 0.571646
O O6 0.905541 0.749462 0.670346
O O7 0.000000 0.927909 0.631046
O O8 0.000000 0.864940 0.992819
O O9 0.118672 0.752960 0.035857
O O10 0.130389 0.000000 0.000000
O O11 0.250000 0.250000 0.000000
O O12 0.095692 0.419302 0.250000
O O13 0.000000 0.452470 0.329197
#
# Coordination Sequence:
#
# PCOD9469171 Si02
#       5
#    16  16  16  16  16
#     4  12  22  37  61  92 120 160 209 257 299 369
#     4  10  20  37  62  92 123 160 206 246 297 370
#     4  10  18  31  53  83 123 164 200 241 294 357
#     4  12  21  34  54  88 128 166 200 242 303 360
#     4  10  23  44  65  85 117 161 206 259 321 371
#
# _framework density 18.888991999999998
#
# number of rings (size 3 to 8) (size 9 to 14) (size 15 to 20)
#    0.000    1.200    6.000    0.600    0.000    1.600 
#    0.000    0.000    0.000    6.000    0.000    0.000 
#    0.000    0.000    0.000    0.000    0.000    0.000 
#
# Total GULP energy -222754.642155 kJ/mol
# GULP energy per Si atom -5568.866054 kJ/mol
# Density = 1.884600 g / cm^3
# Si number density = 18.888992 Si / 1000 Ang^3
#
#
#
# Elastic Constant Matrix: (Units=GPa)
#
#
# Indices 1 2 3 4 5 6 
#
# 1 158.9564 18.5621 45.1021 0.0000 0.0000 0.0000
# 2 18.5621 21.1853 -1.2490 0.0000 0.0000 0.0000
# 3 45.1021 -1.2490 61.0044 0.0000 0.0000 0.0000
# 4 0.0000 0.0000 0.0000 20.3605 0.0000 0.0000
# 5 0.0000 0.0000 0.0000 0.0000 35.6340 0.0000
# 6 0.0000 0.0000 0.0000 0.0000 0.0000 28.4673
#
#
#
# Elastic Compliance Matrix: (Units=1/GPa)
#
#
# Indices 1 2 3 4 5 6 
#
# 1 0.009288 -0.008553 -0.007042 0.000000 0.000000 0.000000
# 2 -0.008553 0.055136 0.007452 0.000000 0.000000 0.000000
# 3 -0.007042 0.007452 0.021751 0.000000 0.000000 0.000000
# 4 0.000000 0.000000 0.000000 0.049115 0.000000 0.000000
# 5 0.000000 0.000000 0.000000 0.000000 0.028063 0.000000
# 6 0.000000 0.000000 0.000000 0.000000 0.000000 0.035128
#
#
# Mechanical properties :
#
#
# Convention : Reuss Voigt Hill
#
# Bulk Modulus (GPa) = 14.30829 40.66406 27.48618
# Shear Modulus (GPa) = 21.00291 28.80775 24.90533
#
# Velocity S-wave (km/s) = 3.33815 3.90950 3.63507
# Velocity P-wave (km/s) = 4.73804 6.47716 5.67462
#
# Compressibility (1/GPa) = 0.06988957
#
# Stress axis : x y z
#
# Youngs Moduli (GPa) = 107.66763 18.13702 45.97483
#
# Poissons Ratio (x) = 0.15513 0.32375
# Poissons Ratio (y) = 0.92088 -0.34261
# Poissons Ratio (z) = 0.75818 -0.13516
#
# Static dielectric constant tensor:
#      x y z
#    x 1.940460 0.000000 0.000000 
#    y 0.000000 1.765600 0.000000 
#    z 0.000000 0.000000 1.651640 
# 
# From -- ./inp_files/69725.got.cif
#   From: 2010.05.17/outbox.cif.g08.bks.cpg/sg63_35_cif.got.tgz:69725.got - 2010.06.03 15:47:04.
