data_PCOD9469384
_publ_section_title
;
Structure prediction by ZEFSAII (Michael W. Deem and Ramdas Pophale) SiO2 
 PCOD9469384
Probable space group: C M C M
;
_chemical_formula_sum "Si O2"
_cell_formula_units_Z 96
_cell_length_a 25.634247
_cell_length_b 9.421508
_cell_length_c 20.162115
_cell_angle_alpha 90.000000
_cell_angle_beta 90.000000
_cell_angle_gamma 90.000000
_cell_volume 4869.418186
_symmetry_space_group_name_H-M "C M C M"
_symmetry_group_IT_number 63
_symmetry_cell_setting 'orthorhombic'
loop_
_space_group_symop_operation_xyz
x,y,z
-x,-y,1/2+z
x,-y,-z
-x,y,1/2-z
-x,-y,-z
x,y,1/2-z
-x,y,z
x,-y,1/2+z
1/2+x,1/2+y,z
1/2-x,1/2-y,1/2+z
1/2+x,1/2-y,-z
1/2-x,1/2+y,1/2-z
1/2-x,1/2-y,-z
1/2+x,1/2+y,1/2-z
1/2-x,1/2+y,z
1/2+x,1/2-y,1/2+z
loop_
_atom_site_type_symbol
_atom_site_label
_atom_site_fract_x
_atom_site_fract_y
_atom_site_fract_z
Si Si1 0.906261 0.113665 0.090016
Si Si2 0.439962 0.311756 0.450137
Si Si3 0.692538 0.075078 0.929965
Si Si4 0.601079 0.136172 0.825170
Si Si5 0.939733 0.666330 0.321659
Si Si6 0.791547 0.907151 0.932819
O O1 0.924346 0.221795 0.145639
O O2 0.846393 0.072546 0.104724
O O3 0.938733 0.972886 0.076690
O O4 0.908213 0.192820 0.018419
O O5 0.500000 0.269604 0.464200
O O6 0.416068 0.223092 0.389794
O O7 0.647005 0.093133 0.876193
O O8 0.712319 0.237084 0.942528
O O9 0.739570 0.976357 0.902677
O O10 0.677017 0.000000 0.000000
O O11 0.620061 0.158407 0.750000
O O12 0.562821 0.002845 0.824121
O O13 0.916816 0.710354 0.250000
O O14 0.000000 0.714024 0.322574
O O15 0.797823 0.000000 0.000000
#
# Coordination Sequence:
#
# PCOD9469384 Si02
#       6
#    16  16  16  16  16  16
#     4  10  20  34  57  81 116 144 183 232 279 335
#     4  10  20  35  58  87 115 144 188 236 282 332
#     4  10  21  33  57  81 108 143 188 231 276 329
#     4  10  23  39  55  80 115 152 188 232 285 340
#     4   9  20  37  56  79 110 148 189 231 279 339
#     4  10  18  33  53  83 107 140 180 230 272 329
#
# _framework density 19.714881999999999
#
# number of rings (size 3 to 8) (size 9 to 14) (size 15 to 20)
#    0.000    2.167    1.667    3.000    4.667    3.333 
#    0.000    5.000    0.000    0.000    0.000    0.000 
#    0.000    0.000    0.000    0.000    0.000    0.000 
#
# Total GULP energy -267313.921036 kJ/mol
# GULP energy per Si atom -5569.040022 kJ/mol
# Density = 1.967001 g / cm^3
# Si number density = 19.714882 Si / 1000 Ang^3
#
#
#
# Elastic Constant Matrix: (Units=GPa)
#
#
# Indices 1 2 3 4 5 6 
#
# 1 41.6864 -0.7636 15.1549 0.0000 0.0000 0.0000
# 2 -0.7636 90.1115 37.8024 0.0000 0.0000 0.0000
# 3 15.1549 37.8024 102.5593 0.0000 0.0000 0.0000
# 4 0.0000 0.0000 0.0000 25.6802 0.0000 0.0000
# 5 0.0000 0.0000 0.0000 0.0000 11.2748 0.0000
# 6 0.0000 0.0000 0.0000 0.0000 0.0000 27.3463
#
#
#
# Elastic Compliance Matrix: (Units=1/GPa)
#
#
# Indices 1 2 3 4 5 6 
#
# 1 0.025695 0.002142 -0.004586 0.000000 0.000000 0.000000
# 2 0.002142 0.013306 -0.005221 0.000000 0.000000 0.000000
# 3 -0.004586 -0.005221 0.012353 0.000000 0.000000 0.000000
# 4 0.000000 0.000000 0.000000 0.038940 0.000000 0.000000
# 5 0.000000 0.000000 0.000000 0.000000 0.088693 0.000000
# 6 0.000000 0.000000 0.000000 0.000000 0.000000 0.036568
#
#
# Mechanical properties :
#
#
# Convention : Reuss Voigt Hill
#
# Bulk Modulus (GPa) = 27.76040 37.63828 32.69934
# Shear Modulus (GPa) = 20.58516 25.00450 22.79483
#
# Velocity S-wave (km/s) = 3.23483 3.56519 3.40402
# Velocity P-wave (km/s) = 5.29751 6.00668 5.66321
#
# Compressibility (1/GPa) = 0.03602254
#
# Stress axis : x y z
#
# Youngs Moduli (GPa) = 38.91778 75.15584 80.95519
#
# Poissons Ratio (x) = -0.16096 0.37129
# Poissons Ratio (y) = -0.08335 0.42265
# Poissons Ratio (z) = 0.17849 0.39238
#
# Static dielectric constant tensor:
#      x y z
#    x 1.724790 0.000000 0.000000 
#    y 0.000000 1.719760 0.000000 
#    z 0.000000 0.000000 1.723850 
# 
# From -- ./inp_files/58097.got.cif
#   From: 2010.05.17/outbox.cif.g08.bks.cpg/sg63_30_cif.got.tgz:58097.got - 2010.06.03 15:47:04.
