data_PCOD9469690
_publ_section_title
;
Structure prediction by ZEFSAII (Michael W. Deem and Ramdas Pophale) SiO2 
 PCOD9469690
Probable space group: C M C M
;
_chemical_formula_sum "Si O2"
_cell_formula_units_Z 96
_cell_length_a 12.428208
_cell_length_b 24.064790
_cell_length_c 20.109170
_cell_angle_alpha 90.000000
_cell_angle_beta 90.000000
_cell_angle_gamma 90.000000
_cell_volume 6014.295117
_symmetry_space_group_name_H-M "C M C M"
_symmetry_group_IT_number 63
_symmetry_cell_setting 'orthorhombic'
loop_
_space_group_symop_operation_xyz
x,y,z
-x,-y,1/2+z
x,-y,-z
-x,y,1/2-z
-x,-y,-z
x,y,1/2-z
-x,y,z
x,-y,1/2+z
1/2+x,1/2+y,z
1/2-x,1/2-y,1/2+z
1/2+x,1/2-y,-z
1/2-x,1/2+y,1/2-z
1/2-x,1/2-y,-z
1/2+x,1/2+y,1/2-z
1/2-x,1/2+y,z
1/2+x,1/2-y,1/2+z
loop_
_atom_site_type_symbol
_atom_site_label
_atom_site_fract_x
_atom_site_fract_y
_atom_site_fract_z
Si Si1 0.625940 0.415633 0.822632
Si Si2 0.375917 0.170236 0.827562
Si Si3 0.625057 0.225526 0.439648
Si Si4 0.257397 0.660102 0.954166
Si Si5 0.129047 0.060295 0.468128
Si Si6 0.706501 0.707163 0.175139
O O1 0.673278 0.430978 0.750000
O O2 0.500000 0.429573 0.820116
O O3 0.668173 0.440483 0.891395
O O4 0.638918 0.349129 0.829815
O O5 0.351405 0.156988 0.750000
O O6 0.500000 0.154869 0.840594
O O7 0.292742 0.146804 0.881870
O O8 0.363065 0.237226 0.834638
O O9 0.500000 0.218643 0.427105
O O10 0.654557 0.290421 0.450178
O O11 0.663283 0.189198 0.502487
O O12 0.699555 0.206703 0.378572
O O13 0.308140 0.607591 0.991248
O O14 0.000000 0.072885 0.468543
O O15 0.143694 0.000000 0.500000
O O16 0.750978 0.710025 0.250000
#
# Coordination Sequence:
#
# PCOD9469690 Si02
#       6
#    16  16  16  16  16  16
#     4   9  16  28  48  72  96 123 159 201 241 281
#     4   9  17  29  47  71  98 128 164 203 242 288
#     4  10  19  29  45  70  99 130 158 190 237 298
#     4  10  19  32  47  70  97 128 161 200 244 291
#     4  10  20  34  52  73  99 129 163 204 247 289
#     4   9  16  27  44  70 100 128 157 194 242 288
#
# _framework density 15.961970000000001
#
# number of rings (size 3 to 8) (size 9 to 14) (size 15 to 20)
#    0.000    2.500    1.667    1.500    0.000    2.333 
#    0.000    0.833    0.000    4.500    0.000    0.000 
#    0.000    0.000    0.000    0.000    0.000    0.000 
#
# Total GULP energy -267275.821666 kJ/mol
# GULP energy per Si atom -5568.246285 kJ/mol
# Density = 1.592564 g / cm^3
# Si number density = 15.961970 Si / 1000 Ang^3
#
#
#
# Elastic Constant Matrix: (Units=GPa)
#
#
# Indices 1 2 3 4 5 6 
#
# 1 52.0235 10.0758 30.1649 0.0000 0.0000 0.0000
# 2 10.0758 46.7026 43.0063 0.0000 0.0000 0.0000
# 3 30.1649 43.0063 131.2781 0.0000 0.0000 0.0000
# 4 0.0000 0.0000 0.0000 18.8697 0.0000 0.0000
# 5 0.0000 0.0000 0.0000 0.0000 19.8897 0.0000
# 6 0.0000 0.0000 0.0000 0.0000 0.0000 11.4910
#
#
#
# Elastic Compliance Matrix: (Units=1/GPa)
#
#
# Indices 1 2 3 4 5 6 
#
# 1 0.022177 -0.000132 -0.005053 0.000000 0.000000 0.000000
# 2 -0.000132 0.030663 -0.010015 0.000000 0.000000 0.000000
# 3 -0.005053 -0.010015 0.012059 0.000000 0.000000 0.000000
# 4 0.000000 0.000000 0.000000 0.052995 0.000000 0.000000
# 5 0.000000 0.000000 0.000000 0.000000 0.050277 0.000000
# 6 0.000000 0.000000 0.000000 0.000000 0.000000 0.087024
#
#
# Mechanical properties :
#
#
# Convention : Reuss Voigt Hill
#
# Bulk Modulus (GPa) = 28.98489 44.05533 36.52011
# Shear Modulus (GPa) = 16.82968 19.83392 18.33180
#
# Velocity S-wave (km/s) = 3.25062 3.52884 3.39258
# Velocity P-wave (km/s) = 5.68215 6.65310 6.18670
#
# Compressibility (1/GPa) = 0.03450074
#
# Stress axis : x y z
#
# Youngs Moduli (GPa) = 45.09110 32.61301 82.92433
#
# Poissons Ratio (x) = 0.00430 0.41899
# Poissons Ratio (y) = 0.00594 0.83046
# Poissons Ratio (z) = 0.22783 0.32661
#
# Static dielectric constant tensor:
#      x y z
#    x 1.508000 0.000000 0.000000 
#    y 0.000000 1.507570 0.000000 
#    z 0.000000 0.000000 1.587150 
# 
# From -- ./inp_files/42680.got.cif
#   From: 2010.05.17/outbox.cif.g08.bks.cpg/sg63_22_cif.got.tgz:42680.got - 2010.06.03 15:47:04.
