data_PCOD9469371
_publ_section_title
;
Structure prediction by ZEFSAII (Michael W. Deem and Ramdas Pophale) SiO2 
 PCOD9469371
Probable space group: C M C M
;
_chemical_formula_sum "Si O2"
_cell_formula_units_Z 96
_cell_length_a 20.131741
_cell_length_b 17.482304
_cell_length_c 16.038714
_cell_angle_alpha 90.000000
_cell_angle_beta 90.000000
_cell_angle_gamma 90.000000
_cell_volume 5644.812821
_symmetry_space_group_name_H-M "C M C M"
_symmetry_group_IT_number 63
_symmetry_cell_setting 'orthorhombic'
loop_
_space_group_symop_operation_xyz
x,y,z
-x,-y,1/2+z
x,-y,-z
-x,y,1/2-z
-x,-y,-z
x,y,1/2-z
-x,y,z
x,-y,1/2+z
1/2+x,1/2+y,z
1/2-x,1/2-y,1/2+z
1/2+x,1/2-y,-z
1/2-x,1/2+y,1/2-z
1/2-x,1/2-y,-z
1/2+x,1/2+y,1/2-z
1/2-x,1/2+y,z
1/2+x,1/2-y,1/2+z
loop_
_atom_site_type_symbol
_atom_site_label
_atom_site_fract_x
_atom_site_fract_y
_atom_site_fract_z
Si Si1 0.577841 0.153871 0.152529
Si Si2 0.191931 0.452972 0.914697
Si Si3 0.791902 0.065962 0.658215
Si Si4 0.427601 0.530289 0.905100
Si Si5 0.426630 0.300097 0.034211
Si Si6 0.787037 0.169888 0.005257
O O1 0.590438 0.171507 0.250000
O O2 0.500000 0.132260 0.144903
O O3 0.627288 0.087959 0.121654
O O4 0.587633 0.228358 0.094209
O O5 0.228532 0.511603 0.853401
O O6 0.177841 0.500000 0.000000
O O7 0.246254 0.387732 0.936861
O O8 0.794466 0.100060 0.750000
O O9 0.859358 0.016626 0.643050
O O10 0.788271 0.128428 0.585019
O O11 0.500000 0.502884 0.873858
O O12 0.430999 0.622326 0.911864
O O13 0.420286 0.500000 0.000000
O O14 0.500000 0.289587 0.995573
O O15 0.364242 0.314071 0.973751
O O16 0.750000 0.250000 0.000000
#
# Coordination Sequence:
#
# PCOD9469371 Si02
#       6
#    16  16  16  16  16  16
#     4  10  20  33  50  75 105 132 162 209 266 309
#     4  10  20  35  53  71  98 134 172 210 250 304
#     4  10  20  32  48  73 104 133 166 211 254 294
#     4   9  17  31  50  72 102 138 170 200 246 305
#     4   9  17  29  48  73  99 128 163 202 247 297
#     4  10  18  33  51  73  99 132 170 207 245 306
#
# _framework density 17.006764
#
# number of rings (size 3 to 8) (size 9 to 14) (size 15 to 20)
#    0.000    2.333    1.667    3.000    0.000    3.333 
#    0.000    3.333    0.000    0.000    0.000    0.000 
#    0.000    2.667    0.000    0.000    0.000    0.000 
#
# Total GULP energy -267247.523064 kJ/mol
# GULP energy per Si atom -5567.656731 kJ/mol
# Density = 1.696806 g / cm^3
# Si number density = 17.006764 Si / 1000 Ang^3
#
#
#
# Elastic Constant Matrix: (Units=GPa)
#
#
# Indices 1 2 3 4 5 6 
#
# 1 104.1760 33.1888 20.5222 0.0000 0.0000 0.0000
# 2 33.1888 65.0465 7.0724 0.0000 0.0000 0.0000
# 3 20.5222 7.0724 38.2547 0.0000 0.0000 0.0000
# 4 0.0000 0.0000 0.0000 5.7685 0.0000 0.0000
# 5 0.0000 0.0000 0.0000 0.0000 -14.6278 0.0000
# 6 0.0000 0.0000 0.0000 0.0000 0.0000 41.4399
#
#
#
# Elastic Compliance Matrix: (Units=1/GPa)
#
#
# Indices 1 2 3 4 5 6 
#
# 1 0.012561 -0.005793 -0.005668 0.000000 0.000000 0.000000
# 2 -0.005793 0.018361 -0.000287 0.000000 0.000000 0.000000
# 3 -0.005668 -0.000287 0.029234 0.000000 0.000000 0.000000
# 4 0.000000 0.000000 0.000000 0.173355 0.000000 0.000000
# 5 0.000000 0.000000 0.000000 0.000000 -0.068363 0.000000
# 6 0.000000 0.000000 0.000000 0.000000 0.000000 0.024131
#
#
# Mechanical properties :
#
#
# Convention : Reuss Voigt Hill
#
# Bulk Modulus (GPa) = 27.27679 36.56046 31.91863
# Shear Modulus (GPa) = 22.22282 16.29572 19.25927
#
# Velocity S-wave (km/s) = 3.61876 3.09882 3.36884
# Velocity P-wave (km/s) = 5.79087 5.86071 5.82589
#
# Compressibility (1/GPa) = 0.03666120
#
# Stress axis : x y z
#
# Youngs Moduli (GPa) = 79.61054 54.46469 34.20666
#
# Poissons Ratio (x) = 0.31551 0.19387
# Poissons Ratio (y) = 0.46117 0.00981
# Poissons Ratio (z) = 0.45120 0.01562
#
# Static dielectric constant tensor:
#      x y z
#    x 1.641610 0.000000 0.000000 
#    y 0.000000 1.567400 0.000000 
#    z 0.000000 0.000000 1.564120 
# 
# From -- ./inp_files/45723.got.cif
#   From: 2010.05.17/outbox.cif.g08.bks.cpg/sg63_23_cif.got.tgz:45723.got - 2010.06.03 15:47:04.
