data_PCOD9469665
_publ_section_title
;
Structure prediction by ZEFSAII (Michael W. Deem and Ramdas Pophale) SiO2 
 PCOD9469665
Probable space group: C M C M
;
_chemical_formula_sum "Si O2"
_cell_formula_units_Z 96
_cell_length_a 23.196602
_cell_length_b 26.693655
_cell_length_c 9.065859
_cell_angle_alpha 90.000000
_cell_angle_beta 90.000000
_cell_angle_gamma 90.000000
_cell_volume 5613.598849
_symmetry_space_group_name_H-M "C M C M"
_symmetry_group_IT_number 63
_symmetry_cell_setting 'orthorhombic'
loop_
_space_group_symop_operation_xyz
x,y,z
-x,-y,1/2+z
x,-y,-z
-x,y,1/2-z
-x,-y,-z
x,y,1/2-z
-x,y,z
x,-y,1/2+z
1/2+x,1/2+y,z
1/2-x,1/2-y,1/2+z
1/2+x,1/2-y,-z
1/2-x,1/2+y,1/2-z
1/2-x,1/2-y,-z
1/2+x,1/2+y,1/2-z
1/2-x,1/2+y,z
1/2+x,1/2-y,1/2+z
loop_
_atom_site_type_symbol
_atom_site_label
_atom_site_fract_x
_atom_site_fract_y
_atom_site_fract_z
Si Si1 0.931472 0.553758 0.924662
Si Si2 0.069226 0.946988 0.920540
Si Si3 0.647911 0.369136 0.083174
Si Si4 0.834141 0.610219 0.074375
Si Si5 0.256488 0.454610 0.085686
Si Si6 0.740793 0.303752 0.927116
O O1 0.919500 0.550718 0.750000
O O2 0.000000 0.561660 0.945094
O O3 0.917468 0.500000 0.000000
O O4 0.894754 0.598909 0.996037
O O5 0.088824 0.949184 0.750000
O O6 0.000000 0.941880 0.922723
O O7 0.097382 0.899211 0.001018
O O8 0.082231 0.000000 0.000000
O O9 0.632029 0.353113 0.250000
O O10 0.697608 0.410854 0.096459
O O11 0.681121 0.326656 0.990783
O O12 0.840673 0.608831 0.250000
O O13 0.795351 0.659358 0.036975
O O14 0.795335 0.564648 0.014446
O O15 0.237193 0.468143 0.250000
O O16 0.284649 0.500000 0.000000
O O17 0.737622 0.300853 0.750000
O O18 0.750000 0.250000 0.000000
#
# Coordination Sequence:
#
# PCOD9469665 Si02
#       6
#    16  16  16  16  16  16
#     4  10  20  33  50  73 103 139 174 206 242 287
#     4  10  20  33  50  74 106 143 179 213 251 298
#     4  10  20  33  51  74 100 132 169 209 254 304
#     4  10  20  33  50  72  98 129 164 203 248 297
#     4  10  19  29  43  66  97 130 162 199 243 293
#     4  10  21  37  57  79 102 129 164 210 263 314
#
# _framework density 17.101329
#
# number of rings (size 3 to 8) (size 9 to 14) (size 15 to 20)
#    0.000    2.000    0.000    4.000    0.000    7.333 
#    0.000    0.000    0.000    1.000    0.000    4.667 
#    0.000    0.000    0.000    0.000    0.000    0.000 
#
# Total GULP energy -267582.604409 kJ/mol
# GULP energy per Si atom -5574.637592 kJ/mol
# Density = 1.706241 g / cm^3
# Si number density = 17.101329 Si / 1000 Ang^3
#
#
#
# Elastic Constant Matrix: (Units=GPa)
#
#
# Indices 1 2 3 4 5 6 
#
# 1 72.8524 35.9426 46.9337 0.0000 0.0000 0.0000
# 2 35.9426 91.3364 63.6916 0.0000 0.0000 0.0000
# 3 46.9337 63.6916 120.7210 0.0000 0.0000 0.0000
# 4 0.0000 0.0000 0.0000 28.0654 0.0000 0.0000
# 5 0.0000 0.0000 0.0000 0.0000 36.1240 0.0000
# 6 0.0000 0.0000 0.0000 0.0000 0.0000 23.3253
#
#
#
# Elastic Compliance Matrix: (Units=1/GPa)
#
#
# Indices 1 2 3 4 5 6 
#
# 1 0.019069 -0.003693 -0.005465 0.000000 0.000000 0.000000
# 2 -0.003693 0.018036 -0.008080 0.000000 0.000000 0.000000
# 3 -0.005465 -0.008080 0.014671 0.000000 0.000000 0.000000
# 4 0.000000 0.000000 0.000000 0.035631 0.000000 0.000000
# 5 0.000000 0.000000 0.000000 0.000000 0.027682 0.000000
# 6 0.000000 0.000000 0.000000 0.000000 0.000000 0.042872
#
#
# Mechanical properties :
#
#
# Convention : Reuss Voigt Hill
#
# Bulk Modulus (GPa) = 57.80297 64.22729 61.01513
# Shear Modulus (GPa) = 25.22629 26.72572 25.97601
#
# Velocity S-wave (km/s) = 3.84488 3.95750 3.90159
# Velocity P-wave (km/s) = 7.32014 7.64989 7.48683
#
# Compressibility (1/GPa) = 0.01730015
#
# Stress axis : x y z
#
# Youngs Moduli (GPa) = 52.44028 55.44388 68.16004
#
# Poissons Ratio (x) = 0.20475 0.37252
# Poissons Ratio (y) = 0.19366 0.55074
# Poissons Ratio (z) = 0.28660 0.44799
#
# Static dielectric constant tensor:
#      x y z
#    x 1.601550 0.000000 0.000000 
#    y 0.000000 1.661650 0.000000 
#    z 0.000000 0.000000 1.619390 
# 
# From -- ./inp_files/10503.got.cif
#   From: 2010.05.17/outbox.cif.g08.bks.cpg/sg63_6_cif.got.tgz:10503.got - 2010.06.03 15:47:04.
