data_PCOD9469338
_publ_section_title
;
Structure prediction by ZEFSAII (Michael W. Deem and Ramdas Pophale) SiO2 
 PCOD9469338
Probable space group: C M C M
;
_chemical_formula_sum "Si O2"
_cell_formula_units_Z 96
_cell_length_a 7.451800
_cell_length_b 23.325963
_cell_length_c 24.260515
_cell_angle_alpha 90.000000
_cell_angle_beta 90.000000
_cell_angle_gamma 90.000000
_cell_volume 4216.972690
_symmetry_space_group_name_H-M "C M C M"
_symmetry_group_IT_number 63
_symmetry_cell_setting 'orthorhombic'
loop_
_space_group_symop_operation_xyz
x,y,z
-x,-y,1/2+z
x,-y,-z
-x,y,1/2-z
-x,-y,-z
x,y,1/2-z
-x,y,z
x,-y,1/2+z
1/2+x,1/2+y,z
1/2-x,1/2-y,1/2+z
1/2+x,1/2-y,-z
1/2-x,1/2+y,1/2-z
1/2-x,1/2-y,-z
1/2+x,1/2+y,1/2-z
1/2-x,1/2+y,z
1/2+x,1/2-y,1/2+z
loop_
_atom_site_type_symbol
_atom_site_label
_atom_site_fract_x
_atom_site_fract_y
_atom_site_fract_z
Si Si1 0.207017 0.363600 0.750000
Si Si2 0.282266 0.172139 0.468493
Si Si3 0.781341 0.454345 0.135924
Si Si4 0.281977 0.042152 0.452343
Si Si5 0.702593 0.722409 0.349497
Si Si6 0.220489 0.329958 0.093115
Si Si7 0.220420 0.495303 0.750000
O O1 0.235693 0.324370 0.804753
O O2 0.286933 0.428519 0.750000
O O3 0.000000 0.376134 0.750000
O O4 0.500000 0.176684 0.466297
O O5 0.225464 0.106108 0.462843
O O6 0.210005 0.199417 0.412325
O O7 0.225338 0.188877 0.530774
O O8 0.725767 0.511038 0.102892
O O9 0.723886 0.394730 0.107960
O O10 0.724542 0.467823 0.197333
O O11 0.000000 0.452321 0.133980
O O12 0.500000 0.043925 0.453214
O O13 0.222866 0.000000 0.500000
O O14 0.500000 0.733268 0.332005
O O15 0.785444 0.785388 0.360153
O O16 0.000000 0.329314 0.092356
O O17 0.000000 0.494109 0.750000
#
# Coordination Sequence:
#
# PCOD9469338 Si02
#       7
#     8  16  16  16  16  16   8
#     4  11  23  42  61  81 103 135 184 233 272 322
#     4  10  18  32  55  84 112 144 182 224 267 317
#     4   9  15  26  44  75 111 137 165 219 282 323
#     4   9  14  23  45  76 105 132 172 227 278 312
#     4  11  23  37  54  80 112 149 183 218 264 320
#     4   9  18  31  50  79 115 145 177 216 265 323
#     4   9  18  30  51  81 107 125 162 229 290 328
#
# _framework density 22.765146999999999
#
# number of rings (size 3 to 8) (size 9 to 14) (size 15 to 20)
#    0.000    2.333    1.667    2.250    0.000    3.333 
#    0.000    3.333    0.000    0.500    0.000    9.333 
#    0.000    0.000    0.000    0.000    0.000    0.000 
#
# Total GULP energy -267651.353347 kJ/mol
# GULP energy per Si atom -5576.069861 kJ/mol
# Density = 2.271333 g / cm^3
# Si number density = 22.765147 Si / 1000 Ang^3
#
#
#
# Elastic Constant Matrix: (Units=GPa)
#
#
# Indices 1 2 3 4 5 6 
#
# 1 64.5157 -6.9658 -7.4470 0.0000 0.0000 0.0000
# 2 -6.9658 85.8694 23.2262 0.0000 0.0000 0.0000
# 3 -7.4470 23.2262 129.6775 0.0000 0.0000 0.0000
# 4 0.0000 0.0000 0.0000 -4.3483 0.0000 0.0000
# 5 0.0000 0.0000 0.0000 0.0000 12.8041 0.0000
# 6 0.0000 0.0000 0.0000 0.0000 0.0000 6.9452
#
#
#
# Elastic Compliance Matrix: (Units=1/GPa)
#
#
# Indices 1 2 3 4 5 6 
#
# 1 0.015699 0.001082 0.000708 0.000000 0.000000 0.000000
# 2 0.001082 0.012313 -0.002143 0.000000 0.000000 0.000000
# 3 0.000708 -0.002143 0.008136 0.000000 0.000000 0.000000
# 4 0.000000 0.000000 0.000000 -0.229977 0.000000 0.000000
# 5 0.000000 0.000000 0.000000 0.000000 0.078100 0.000000
# 6 0.000000 0.000000 0.000000 0.000000 0.000000 0.143984
#
#
# Mechanical properties :
#
#
# Convention : Reuss Voigt Hill
#
# Bulk Modulus (GPa) = 28.21608 33.07658 30.64633
# Shear Modulus (GPa) = 122.62476 21.16350 71.89413
#
# Velocity S-wave (km/s) = 7.34725 3.05232 5.62578
# Velocity P-wave (km/s) = 9.18681 5.19454 7.46259
#
# Compressibility (1/GPa) = 0.03544079
#
# Stress axis : x y z
#
# Youngs Moduli (GPa) = 63.69986 81.21447 122.91136
#
# Poissons Ratio (x) = -0.08788 -0.08699
# Poissons Ratio (y) = -0.06893 0.26343
# Poissons Ratio (z) = -0.04508 0.17406
#
# Static dielectric constant tensor:
#      x y z
#    x 1.885810 0.000000 0.000000 
#    y 0.000000 1.864370 0.000000 
#    z 0.000000 0.000000 1.929510 
# 
# From -- ./inp_files/60003.got.cif
#   From: 2010.05.17/outbox.cif.g08.bks.cpg/sg63_31_cif.got.tgz:60003.got - 2010.06.03 15:47:04.
