data_PCOD9469534
_publ_section_title
;
Structure prediction by ZEFSAII (Michael W. Deem and Ramdas Pophale) SiO2 
 PCOD9469534
Probable space group: C M C M
;
_chemical_formula_sum "Si O2"
_cell_formula_units_Z 104
_cell_length_a 26.200442
_cell_length_b 9.154402
_cell_length_c 21.597066
_cell_angle_alpha 90.000000
_cell_angle_beta 90.000000
_cell_angle_gamma 90.000000
_cell_volume 5180.042861
_symmetry_space_group_name_H-M "C M C M"
_symmetry_group_IT_number 63
_symmetry_cell_setting 'orthorhombic'
loop_
_space_group_symop_operation_xyz
x,y,z
-x,-y,1/2+z
x,-y,-z
-x,y,1/2-z
-x,-y,-z
x,y,1/2-z
-x,y,z
x,-y,1/2+z
1/2+x,1/2+y,z
1/2-x,1/2-y,1/2+z
1/2+x,1/2-y,-z
1/2-x,1/2+y,1/2-z
1/2-x,1/2-y,-z
1/2+x,1/2+y,1/2-z
1/2-x,1/2+y,z
1/2+x,1/2-y,1/2+z
loop_
_atom_site_type_symbol
_atom_site_label
_atom_site_fract_x
_atom_site_fract_y
_atom_site_fract_z
Si Si1 0.639843 0.412663 0.935277
Si Si2 0.834192 0.188383 0.873721
Si Si3 0.176357 0.384126 0.750000
Si Si4 0.439753 0.806042 0.116976
Si Si5 0.635156 0.964105 0.929298
Si Si6 0.213571 0.191481 0.250000
Si Si7 0.888311 0.692891 0.750000
Si Si8 0.781942 0.680706 0.613113
O O1 0.643035 0.528130 0.878675
O O2 0.590049 0.314298 0.923833
O O3 0.687912 0.303371 0.925784
O O4 0.640959 0.500000 0.000000
O O5 0.833386 0.277331 0.809091
O O6 0.865526 0.293689 0.918473
O O7 0.777286 0.169706 0.901864
O O8 0.237937 0.417992 0.750000
O O9 0.141991 0.532794 0.750000
O O10 0.500000 0.797666 0.111383
O O11 0.415623 0.958676 0.094413
O O12 0.421147 0.795127 0.188008
O O13 0.684336 0.035180 0.894673
O O14 0.642963 0.000000 0.000000
O O15 0.152579 0.173641 0.250000
O O16 0.218980 0.274977 0.185042
#
# Coordination Sequence:
#
# PCOD9469534 Si02
#       8
#    16  16   8  16  16   8   8  16
#     4  11  24  40  59  90 129 168 208 256 308 370
#     4  11  21  36  60  93 132 166 200 253 313 366
#     4  10  22  34  63  99 130 159 198 256 310 364
#     4  11  25  45  69  88 112 164 219 268 321 370
#     4  11  22  38  60  89 123 164 212 257 301 368
#     4  10  18  35  61  92 122 163 199 239 295 374
#     4  12  19  45  68  93 126 154 210 259 303 384
#     4  10  21  36  59  91 131 172 207 239 298 388
#
# _framework density 20.077052999999999
#
# number of rings (size 3 to 8) (size 9 to 14) (size 15 to 20)
#    0.000    1.231    4.615    3.000    0.000    9.231 
#    0.000    0.769    0.000    0.000    0.000    0.000 
#    0.000    0.000    0.000    0.000    0.000    0.000 
#
# Total GULP energy -290238.297865 kJ/mol
# GULP energy per Si atom -5581.505728 kJ/mol
# Density = 2.003136 g / cm^3
# Si number density = 20.077053 Si / 1000 Ang^3
#
#
#
# Elastic Constant Matrix: (Units=GPa)
#
#
# Indices 1 2 3 4 5 6 
#
# 1 124.1904 24.4700 16.7730 0.0000 0.0000 0.0000
# 2 24.4700 67.5207 -3.9637 0.0000 0.0000 0.0000
# 3 16.7730 -3.9637 81.3058 0.0000 0.0000 0.0000
# 4 0.0000 0.0000 0.0000 32.3802 0.0000 0.0000
# 5 0.0000 0.0000 0.0000 0.0000 19.8891 0.0000
# 6 0.0000 0.0000 0.0000 0.0000 0.0000 -10.5615
#
#
#
# Elastic Compliance Matrix: (Units=1/GPa)
#
#
# Indices 1 2 3 4 5 6 
#
# 1 0.008990 -0.003377 -0.002019 0.000000 0.000000 0.000000
# 2 -0.003377 0.016121 0.001483 0.000000 0.000000 0.000000
# 3 -0.002019 0.001483 0.012788 0.000000 0.000000 0.000000
# 4 0.000000 0.000000 0.000000 0.030883 0.000000 0.000000
# 5 0.000000 0.000000 0.000000 0.000000 0.050279 0.000000
# 6 0.000000 0.000000 0.000000 0.000000 0.000000 -0.094683
#
#
# Mechanical properties :
#
#
# Convention : Reuss Voigt Hill
#
# Bulk Modulus (GPa) = 33.25296 38.61949 35.93623
# Shear Modulus (GPa) = 118.40222 24.05740 71.22981
#
# Velocity S-wave (km/s) = 7.68778 3.46534 5.96282
# Velocity P-wave (km/s) = 9.76735 5.94044 8.08363
#
# Compressibility (1/GPa) = 0.03007251
#
# Stress axis : x y z
#
# Youngs Moduli (GPa) = 111.23238 62.03077 78.19787
#
# Poissons Ratio (x) = 0.20946 0.15790
# Poissons Ratio (y) = 0.37559 -0.11593
# Poissons Ratio (z) = 0.22461 -0.09196
#
# Static dielectric constant tensor:
#      x y z
#    x 1.681630 0.000000 0.000000 
#    y 0.000000 1.732200 0.000000 
#    z 0.000000 0.000000 1.773980 
# 
# From -- ./inp_files/58248.got.cif
#   From: 2010.05.17/outbox.cif.g08.bks.cpg/sg63_30_cif.got.tgz:58248.got - 2010.06.03 15:47:04.
