data_PCOD9469368
_publ_section_title
;
Structure prediction by ZEFSAII (Michael W. Deem and Ramdas Pophale) SiO2 
 PCOD9469368
Probable space group: C M C M
;
_chemical_formula_sum "Si O2"
_cell_formula_units_Z 128
_cell_length_a 24.113449
_cell_length_b 12.831773
_cell_length_c 25.866920
_cell_angle_alpha 90.000000
_cell_angle_beta 90.000000
_cell_angle_gamma 90.000000
_cell_volume 8003.698511
_symmetry_space_group_name_H-M "C M C M"
_symmetry_group_IT_number 63
_symmetry_cell_setting 'orthorhombic'
loop_
_space_group_symop_operation_xyz
x,y,z
-x,-y,1/2+z
x,-y,-z
-x,y,1/2-z
-x,-y,-z
x,y,1/2-z
-x,y,z
x,-y,1/2+z
1/2+x,1/2+y,z
1/2-x,1/2-y,1/2+z
1/2+x,1/2-y,-z
1/2-x,1/2+y,1/2-z
1/2-x,1/2-y,-z
1/2+x,1/2+y,1/2-z
1/2-x,1/2+y,z
1/2+x,1/2-y,1/2+z
loop_
_atom_site_type_symbol
_atom_site_label
_atom_site_fract_x
_atom_site_fract_y
_atom_site_fract_z
Si Si1 0.935307 0.669703 0.982745
Si Si2 0.694876 0.319817 0.890847
Si Si3 0.860483 0.398797 0.924242
Si Si4 0.794374 0.806275 0.072054
Si Si5 0.064552 0.554595 0.872906
Si Si6 0.625203 0.615604 0.483618
Si Si7 0.156470 0.351141 0.190222
Si Si8 0.735475 0.989010 0.373268
O O1 0.927078 0.624846 0.924975
O O2 0.920135 0.792146 0.986490
O O3 0.000000 0.650600 0.996822
O O4 0.891855 0.614134 0.021283
O O5 0.734880 0.252731 0.929392
O O6 0.649997 0.377547 0.926077
O O7 0.669918 0.242941 0.848701
O O8 0.732698 0.404807 0.862641
O O9 0.836065 0.285398 0.909922
O O10 0.905907 0.445406 0.885645
O O11 0.808769 0.479564 0.918841
O O12 0.779414 0.902746 0.108679
O O13 0.823826 0.853366 0.021742
O O14 0.096143 0.607605 0.825707
O O15 0.000000 0.542974 0.864436
O O16 0.606585 0.500000 0.500000
O O17 0.161446 0.325192 0.250000
O O18 0.199574 0.441382 0.172886
#
# Coordination Sequence:
#
# PCOD9469368 Si02
#       8
#    16  16  16  16  16  16  16  16
#     4  10  20  33  48  70 101 134 169 206 252 301
#     4  10  18  33  48  71  99 135 167 200 241 300
#     4   9  18  30  49  74 101 134 165 200 244 302
#     4   9  18  30  44  73 105 134 164 196 235 292
#     4  10  19  34  52  70  96 128 167 212 254 297
#     4  11  19  30  48  72 101 135 167 206 239 296
#     4  10  21  35  51  73  99 127 166 213 254 295
#     4   9  18  33  50  73 104 134 167 201 242 299
#
# _framework density 15.992606
#
# number of rings (size 3 to 8) (size 9 to 14) (size 15 to 20)
#    0.000    2.250    2.500    1.125    0.000    2.000 
#    6.750    0.000    0.000    0.000    0.000    0.000 
#    0.000    0.000    0.000    0.625    0.000    0.000 
#
# Total GULP energy -356355.165588 kJ/mol
# GULP energy per Si atom -5568.049462 kJ/mol
# Density = 1.595621 g / cm^3
# Si number density = 15.992606 Si / 1000 Ang^3
#
#
#
# Elastic Constant Matrix: (Units=GPa)
#
#
# Indices 1 2 3 4 5 6 
#
# 1 71.3875 29.0732 34.1693 0.0000 0.0000 0.0000
# 2 29.0732 82.6340 15.9631 0.0000 0.0000 0.0000
# 3 34.1693 15.9631 50.3496 0.0000 0.0000 0.0000
# 4 0.0000 0.0000 0.0000 7.5292 0.0000 0.0000
# 5 0.0000 0.0000 0.0000 0.0000 11.5120 0.0000
# 6 0.0000 0.0000 0.0000 0.0000 0.0000 13.2967
#
#
#
# Elastic Compliance Matrix: (Units=1/GPa)
#
#
# Indices 1 2 3 4 5 6 
#
# 1 0.022774 -0.005355 -0.013758 0.000000 0.000000 0.000000
# 2 -0.005355 0.014150 -0.000852 0.000000 0.000000 0.000000
# 3 -0.013758 -0.000852 0.029468 0.000000 0.000000 0.000000
# 4 0.000000 0.000000 0.000000 0.132817 0.000000 0.000000
# 5 0.000000 0.000000 0.000000 0.000000 0.086866 0.000000
# 6 0.000000 0.000000 0.000000 0.000000 0.000000 0.075207
#
#
# Mechanical properties :
#
#
# Convention : Reuss Voigt Hill
#
# Bulk Modulus (GPa) = 37.78924 40.30914 39.04919
# Shear Modulus (GPa) = 12.19419 14.81193 13.50306
#
# Velocity S-wave (km/s) = 2.76432 3.04661 2.90889
# Velocity P-wave (km/s) = 5.81972 6.13477 5.97932
#
# Compressibility (1/GPa) = 0.02646256
#
# Stress axis : x y z
#
# Youngs Moduli (GPa) = 43.91000 70.67037 33.93540
#
# Poissons Ratio (x) = 0.37843 0.46687
# Poissons Ratio (y) = 0.23513 0.02892
# Poissons Ratio (z) = 0.60409 0.06023
#
# Static dielectric constant tensor:
#      x y z
#    x 1.546160 0.000000 0.000000 
#    y 0.000000 1.559860 0.000000 
#    z 0.000000 0.000000 1.508760 
# 
# From -- ./inp_files/70841.got.cif
#   From: 2010.05.17/outbox.cif.g08.bks.cpg/sg63_36_cif.got.tgz:70841.got - 2010.06.03 15:47:04.
