data_PCOD9469225
_publ_section_title
;
Structure prediction by ZEFSAII (Michael W. Deem and Ramdas Pophale) SiO2 
 PCOD9469225
Probable space group: C M C M
;
_chemical_formula_sum "Si O2"
_cell_formula_units_Z 56
_cell_length_a 7.477250
_cell_length_b 37.260217
_cell_length_c 10.662915
_cell_angle_alpha 90.000000
_cell_angle_beta 90.000000
_cell_angle_gamma 90.000000
_cell_volume 2970.730318
_symmetry_space_group_name_H-M "C M C M"
_symmetry_group_IT_number 63
_symmetry_cell_setting 'orthorhombic'
loop_
_space_group_symop_operation_xyz
x,y,z
-x,-y,1/2+z
x,-y,-z
-x,y,1/2-z
-x,-y,-z
x,y,1/2-z
-x,y,z
x,-y,1/2+z
1/2+x,1/2+y,z
1/2-x,1/2-y,1/2+z
1/2+x,1/2-y,-z
1/2-x,1/2+y,1/2-z
1/2-x,1/2-y,-z
1/2+x,1/2+y,1/2-z
1/2-x,1/2+y,z
1/2+x,1/2-y,1/2+z
loop_
_atom_site_type_symbol
_atom_site_label
_atom_site_fract_x
_atom_site_fract_y
_atom_site_fract_z
Si Si1 0.708809 0.408015 0.397667
Si Si2 0.000000 0.531280 0.897600
Si Si3 0.786044 0.795472 0.750000
Si Si4 0.281140 0.668213 0.505478
Si Si5 0.714017 0.289008 0.250000
O O1 0.722594 0.398033 0.250000
O O2 0.500000 0.415179 0.423971
O O3 0.769210 0.373214 0.475011
O O4 0.829421 0.442771 0.416899
O O5 0.000000 0.519594 0.750000
O O6 0.000000 0.500000 0.000000
O O7 0.718837 0.814217 0.623583
O O8 0.751017 0.753147 0.750000
O O9 0.000000 0.800054 0.750000
O O10 0.500000 0.668708 0.506515
O O11 0.219637 0.691584 0.624337
O O12 0.500000 0.293501 0.250000
#
# Coordination Sequence:
#
# PCOD9469225 Si02
#       5
#    16   8   8  16   8
#     4   9  17  35  61  83 106 147 190 220 264 327
#     4  10  22  40  60  88 120 142 176 228 276 330
#     4  10  20  32  44  72 106 135 171 230 280 313
#     4   9  17  32  52  70 100 138 179 224 265 315
#     4  10  18  32  50  68  98 139 179 218 272 325
#
# _framework density 18.850583
#
# number of rings (size 3 to 8) (size 9 to 14) (size 15 to 20)
#    0.000    2.571    1.429    0.857    0.000    0.571 
#    7.714    0.000    0.000    0.000    0.000    0.000 
#    0.000    0.000    0.000    0.000    0.000    0.000 
#
# Total GULP energy -156301.253239 kJ/mol
# GULP energy per Si atom -5582.187616 kJ/mol
# Density = 1.880768 g / cm^3
# Si number density = 18.850583 Si / 1000 Ang^3
#
#
#
# Elastic Constant Matrix: (Units=GPa)
#
#
# Indices 1 2 3 4 5 6 
#
# 1 66.6794 35.6702 34.0811 0.0000 0.0000 0.0000
# 2 35.6702 150.5509 105.5194 0.0000 0.0000 0.0000
# 3 34.0811 105.5194 168.2765 0.0000 0.0000 0.0000
# 4 0.0000 0.0000 0.0000 36.2881 0.0000 0.0000
# 5 0.0000 0.0000 0.0000 0.0000 -2.3556 0.0000
# 6 0.0000 0.0000 0.0000 0.0000 0.0000 20.3860
#
#
#
# Elastic Compliance Matrix: (Units=1/GPa)
#
#
# Indices 1 2 3 4 5 6 
#
# 1 0.017436 -0.002955 -0.001679 0.000000 0.000000 0.000000
# 2 -0.002955 0.012351 -0.007147 0.000000 0.000000 0.000000
# 3 -0.001679 -0.007147 0.010764 0.000000 0.000000 0.000000
# 4 0.000000 0.000000 0.000000 0.027557 0.000000 0.000000
# 5 0.000000 0.000000 0.000000 0.000000 -0.424526 0.000000
# 6 0.000000 0.000000 0.000000 0.000000 0.000000 0.049053
#
#
# Mechanical properties :
#
#
# Convention : Reuss Voigt Hill
#
# Bulk Modulus (GPa) = 58.85342 81.78313 70.31827
# Shear Modulus (GPa) = -17.97650 24.87943 3.45147
#
# Velocity S-wave (km/s) = -3.09144 3.63688 1.35460
# Velocity P-wave (km/s) = 4.30652 7.81761 6.31114
#
# Compressibility (1/GPa) = 0.01699137
#
# Stress axis : x y z
#
# Youngs Moduli (GPa) = 57.35385 80.96339 92.90311
#
# Poissons Ratio (x) = 0.23921 0.15594
# Poissons Ratio (y) = 0.16945 0.66394
# Poissons Ratio (z) = 0.09627 0.57861
#
# Static dielectric constant tensor:
#      x y z
#    x 1.694810 0.000000 0.000000 
#    y 0.000000 1.607660 0.000000 
#    z 0.000000 0.000000 1.646150 
# 
# From -- ./inp_files/16136.got.cif
#   From: 2010.05.17/outbox.cif.g08.bks.cpg/sg63_9_cif.got.tgz:16136.got - 2010.06.03 15:47:04.
