data_PCOD9469214
_publ_section_title
;
Structure prediction by ZEFSAII (Michael W. Deem and Ramdas Pophale) SiO2 
 PCOD9469214
Probable space group: C M C M
;
_chemical_formula_sum "Si O2"
_cell_formula_units_Z 80
_cell_length_a 12.670078
_cell_length_b 21.122053
_cell_length_c 18.988153
_cell_angle_alpha 90.000000
_cell_angle_beta 90.000000
_cell_angle_gamma 90.000000
_cell_volume 5081.572650
_symmetry_space_group_name_H-M "C M C M"
_symmetry_group_IT_number 63
_symmetry_cell_setting 'orthorhombic'
loop_
_space_group_symop_operation_xyz
x,y,z
-x,-y,1/2+z
x,-y,-z
-x,y,1/2-z
-x,-y,-z
x,y,1/2-z
-x,y,z
x,-y,1/2+z
1/2+x,1/2+y,z
1/2-x,1/2-y,1/2+z
1/2+x,1/2-y,-z
1/2-x,1/2+y,1/2-z
1/2-x,1/2-y,-z
1/2+x,1/2+y,1/2-z
1/2-x,1/2+y,z
1/2+x,1/2-y,1/2+z
loop_
_atom_site_type_symbol
_atom_site_label
_atom_site_fract_x
_atom_site_fract_y
_atom_site_fract_z
Si Si1 0.500000 0.646240 0.834314
Si Si2 0.500000 0.207317 0.335607
Si Si3 0.308118 0.119080 0.166779
Si Si4 0.324982 0.434873 0.089265
Si Si5 0.121689 0.526719 0.832894
Si Si6 0.622576 0.418619 0.572104
O O1 0.500000 0.643324 0.750000
O O2 0.500000 0.719646 0.856626
O O3 0.398376 0.610257 0.864684
O O4 0.500000 0.204741 0.250000
O O5 0.604964 0.169642 0.357700
O O6 0.287798 0.128239 0.250000
O O7 0.200337 0.119415 0.123036
O O8 0.357730 0.048661 0.158740
O O9 0.206492 0.437936 0.118818
O O10 0.368252 0.507092 0.093319
O O11 0.335783 0.415229 0.007939
O O12 0.139835 0.540994 0.750000
O O13 0.000000 0.540531 0.849738
O O14 0.500000 0.400043 0.574915
#
# Coordination Sequence:
#
# PCOD9469214 Si02
#       6
#     8   8  16  16  16  16
#     4  11  20  31  53  73  95 132 167 197 231 289
#     4   9  18  34  51  70  96 125 163 210 242 272
#     4   9  17  31  50  72  95 123 166 204 242 287
#     4  10  18  32  46  72 104 132 160 189 243 303
#     4   9  16  28  48  72 100 126 155 206 247 281
#     4  10  18  32  50  70 104 134 151 202 254 281
#
# _framework density 15.743157999999999
#
# number of rings (size 3 to 8) (size 9 to 14) (size 15 to 20)
#    0.000    2.400    3.000    1.200    0.000    1.200 
#    1.800    3.000    0.000    1.200    0.000    2.800 
#    0.000    0.000    0.000    0.000    0.000    0.000 
#
# Total GULP energy -222939.505641 kJ/mol
# GULP energy per Si atom -5573.487641 kJ/mol
# Density = 1.570733 g / cm^3
# Si number density = 15.743158 Si / 1000 Ang^3
#
#
#
# Elastic Constant Matrix: (Units=GPa)
#
#
# Indices 1 2 3 4 5 6 
#
# 1 175.8647 53.8588 81.7835 0.0000 0.0000 0.0000
# 2 53.8588 65.8618 49.0467 0.0000 0.0000 0.0000
# 3 81.7835 49.0467 71.0415 0.0000 0.0000 0.0000
# 4 0.0000 0.0000 0.0000 12.8057 0.0000 0.0000
# 5 0.0000 0.0000 0.0000 0.0000 25.5569 0.0000
# 6 0.0000 0.0000 0.0000 0.0000 0.0000 14.9324
#
#
#
# Elastic Compliance Matrix: (Units=1/GPa)
#
#
# Indices 1 2 3 4 5 6 
#
# 1 0.012269 0.000998 -0.014814 0.000000 0.000000 0.000000
# 2 0.000998 0.031331 -0.022780 0.000000 0.000000 0.000000
# 3 -0.014814 -0.022780 0.046858 0.000000 0.000000 0.000000
# 4 0.000000 0.000000 0.000000 0.078090 0.000000 0.000000
# 5 0.000000 0.000000 0.000000 0.000000 0.039128 0.000000
# 6 0.000000 0.000000 0.000000 0.000000 0.000000 0.066968
#
#
# Mechanical properties :
#
#
# Convention : Reuss Voigt Hill
#
# Bulk Modulus (GPa) = 57.91545 75.79400 66.85473
# Shear Modulus (GPa) = 14.14057 19.19760 16.66909
#
# Velocity S-wave (km/s) = 3.00026 3.49582 3.25747
# Velocity P-wave (km/s) = 6.99068 8.03386 7.53036
#
# Compressibility (1/GPa) = 0.01726655
#
# Stress axis : x y z
#
# Youngs Moduli (GPa) = 81.50314 31.91721 21.34123
#
# Poissons Ratio (x) = -0.03187 0.31615
# Poissons Ratio (y) = -0.08138 0.48616
# Poissons Ratio (z) = 1.20739 0.72708
#
# Static dielectric constant tensor:
#      x y z
#    x 1.520060 0.000000 0.000000 
#    y 0.000000 1.504180 0.000000 
#    z 0.000000 0.000000 1.524950 
# 
# From -- ./inp_files/42156.got.cif
#   From: 2010.05.17/outbox.cif.g08.bks.cpg/sg63_22_cif.got.tgz:42156.got - 2010.06.03 15:47:04.
