data_PCOD9469317
_publ_section_title
;
Structure prediction by ZEFSAII (Michael W. Deem and Ramdas Pophale) SiO2 
 PCOD9469317
Probable space group: C M C M
;
_chemical_formula_sum "Si O2"
_cell_formula_units_Z 80
_cell_length_a 10.359438
_cell_length_b 27.154598
_cell_length_c 14.736233
_cell_angle_alpha 90.000000
_cell_angle_beta 90.000000
_cell_angle_gamma 90.000000
_cell_volume 4145.396277
_symmetry_space_group_name_H-M "C M C M"
_symmetry_group_IT_number 63
_symmetry_cell_setting 'orthorhombic'
loop_
_space_group_symop_operation_xyz
x,y,z
-x,-y,1/2+z
x,-y,-z
-x,y,1/2-z
-x,-y,-z
x,y,1/2-z
-x,y,z
x,-y,1/2+z
1/2+x,1/2+y,z
1/2-x,1/2-y,1/2+z
1/2+x,1/2-y,-z
1/2-x,1/2+y,1/2-z
1/2-x,1/2-y,-z
1/2+x,1/2+y,1/2-z
1/2-x,1/2+y,z
1/2+x,1/2-y,1/2+z
loop_
_atom_site_type_symbol
_atom_site_label
_atom_site_fract_x
_atom_site_fract_y
_atom_site_fract_z
Si Si1 0.252564 0.379330 0.750000
Si Si2 0.233429 0.331829 0.144022
Si Si3 0.500000 0.186022 0.250000
Si Si4 0.356285 0.460533 0.642496
Si Si5 0.348202 0.431534 0.359998
Si Si6 0.000000 0.191553 0.250000
Si Si7 0.500000 0.275004 0.385632
Si Si8 0.500000 0.766636 0.082949
O O1 0.265454 0.413486 0.658515
O O2 0.376139 0.343828 0.750000
O O3 0.125051 0.347890 0.750000
O O4 0.192187 0.334135 0.250000
O O5 0.260761 0.386674 0.106619
O O6 0.371583 0.304666 0.140736
O O7 0.126177 0.300908 0.091611
O O8 0.500000 0.222960 0.334758
O O9 0.375498 0.471732 0.750000
O O10 0.500000 0.448614 0.605562
O O11 0.311014 0.513587 0.606813
O O12 0.339334 0.428227 0.250000
O O13 0.500000 0.424680 0.382103
O O14 0.000000 0.227495 0.335712
O O15 0.500000 0.264010 0.491390
#
# Coordination Sequence:
#
# PCOD9469317 Si02
#       8
#     8  16   4  16  16   4   8   8
#     4  10  18  32  54  81 113 145 185 232 276 339
#     4  11  19  37  58  86 115 147 189 242 289 336
#     4  12  24  36  56  80 112 148 194 236 272 338
#     4   7  11  25  46  80 108 130 175 226 266 329
#     4   8  13  23  51  81 112 135 174 226 279 334
#     4  12  20  40  56  78 106 158 188 236 276 328
#     4  12  24  42  57  81 113 163 198 236 283 348
#     4  12  26  38  57  83 121 151 198 242 289 334
#
# _framework density 19.298518999999999
#
# number of rings (size 3 to 8) (size 9 to 14) (size 15 to 20)
#    0.600    1.600    4.000    3.000    0.000    0.000 
#    0.000    1.000    0.000    0.000    0.000    8.400 
#    0.000    0.000    0.000    0.000    0.000    0.000 
#
# Total GULP energy -222710.149077 kJ/mol
# GULP energy per Si atom -5567.753727 kJ/mol
# Density = 1.925459 g / cm^3
# Si number density = 19.298519 Si / 1000 Ang^3
#
#
#
# Elastic Constant Matrix: (Units=GPa)
#
#
# Indices 1 2 3 4 5 6 
#
# 1 86.3568 45.1402 -9.6384 0.0000 0.0000 0.0000
# 2 45.1402 128.5774 10.8243 0.0000 0.0000 0.0000
# 3 -9.6384 10.8243 56.6762 0.0000 0.0000 0.0000
# 4 0.0000 0.0000 0.0000 -2.5640 0.0000 0.0000
# 5 0.0000 0.0000 0.0000 0.0000 36.0284 0.0000
# 6 0.0000 0.0000 0.0000 0.0000 0.0000 -15.7519
#
#
#
# Elastic Compliance Matrix: (Units=1/GPa)
#
#
# Indices 1 2 3 4 5 6 
#
# 1 0.014865 -0.005520 0.003582 0.000000 0.000000 0.000000
# 2 -0.005520 0.009955 -0.002840 0.000000 0.000000 0.000000
# 3 0.003582 -0.002840 0.018796 0.000000 0.000000 0.000000
# 4 0.000000 0.000000 0.000000 -0.390012 0.000000 0.000000
# 5 0.000000 0.000000 0.000000 0.000000 0.027756 0.000000
# 6 0.000000 0.000000 0.000000 0.000000 0.000000 -0.063484
#
#
# Mechanical properties :
#
#
# Convention : Reuss Voigt Hill
#
# Bulk Modulus (GPa) = 29.36041 40.47362 34.91702
# Shear Modulus (GPa) = -13.84215 18.56143 2.35964
#
# Velocity S-wave (km/s) = -2.68109 3.10466 1.10696
# Velocity P-wave (km/s) = 2.37961 5.81978 4.44592
#
# Compressibility (1/GPa) = 0.03405947
#
# Stress axis : x y z
#
# Youngs Moduli (GPa) = 67.27074 100.45639 53.20362
#
# Poissons Ratio (x) = 0.55456 -0.19059
# Poissons Ratio (y) = 0.37136 0.15110
# Poissons Ratio (z) = -0.24099 0.28529
#
# Static dielectric constant tensor:
#      x y z
#    x 1.634620 0.000000 0.000000 
#    y 0.000000 1.748760 0.000000 
#    z 0.000000 0.000000 1.589080 
# 
# From -- ./inp_files/42650.got.cif
#   From: 2010.05.17/outbox.cif.g08.bks.cpg/sg63_22_cif.got.tgz:42650.got - 2010.06.03 15:47:04.
