data_PCOD9469831
_publ_section_title
;
Structure prediction by ZEFSAII (Michael W. Deem and Ramdas Pophale) SiO2 
 PCOD9469831
Probable space group: C M C M
;
_chemical_formula_sum "Si O2"
_cell_formula_units_Z 88
_cell_length_a 21.847335
_cell_length_b 20.464830
_cell_length_c 9.445086
_cell_angle_alpha 90.000000
_cell_angle_beta 90.000000
_cell_angle_gamma 90.000000
_cell_volume 4222.916810
_symmetry_space_group_name_H-M "C M C M"
_symmetry_group_IT_number 63
_symmetry_cell_setting 'orthorhombic'
loop_
_space_group_symop_operation_xyz
x,y,z
-x,-y,1/2+z
x,-y,-z
-x,y,1/2-z
-x,-y,-z
x,y,1/2-z
-x,y,z
x,-y,1/2+z
1/2+x,1/2+y,z
1/2-x,1/2-y,1/2+z
1/2+x,1/2-y,-z
1/2-x,1/2+y,1/2-z
1/2-x,1/2-y,-z
1/2+x,1/2+y,1/2-z
1/2-x,1/2+y,z
1/2+x,1/2-y,1/2+z
loop_
_atom_site_type_symbol
_atom_site_label
_atom_site_fract_x
_atom_site_fract_y
_atom_site_fract_z
Si Si1 0.500000 0.068301 0.579734
Si Si2 0.399234 0.564679 0.087224
Si Si3 0.070168 0.308194 0.088601
Si Si4 0.747132 0.315091 0.409227
Si Si5 0.103926 0.187959 0.908602
Si Si6 0.749299 0.063842 0.412670
O O1 0.500000 0.059656 0.750000
O O2 0.441796 0.116060 0.546590
O O3 0.500000 0.000000 0.500000
O O4 0.419622 0.562172 0.250000
O O5 0.324165 0.565509 0.091233
O O6 0.416805 0.500000 0.000000
O O7 0.421233 0.630408 0.008453
O O8 0.093195 0.305084 0.250000
O O9 0.000000 0.282769 0.092403
O O10 0.102219 0.258827 0.982603
O O11 0.771540 0.308332 0.250000
O O12 0.750000 0.250000 0.500000
O O13 0.675243 0.329801 0.394479
O O14 0.774411 0.373796 0.500706
O O15 0.077355 0.189749 0.750000
O O16 0.728715 0.063183 0.250000
O O17 0.731661 0.000000 0.500000
#
# Coordination Sequence:
#
# PCOD9469831 Si02
#       6
#     8  16  16  16  16  16
#     4   8  16  30  50  76 101 124 155 194 234 284
#     4   9  16  26  42  64  91 122 157 196 234 274
#     4   8  17  32  49  72  99 126 156 191 236 289
#     4  10  20  32  46  68  96 126 162 202 243 289
#     4  10  19  30  47  71  97 125 160 201 242 287
#     4   9  16  27  44  65  88 117 153 194 237 278
#
# _framework density 20.838678000000002
#
# number of rings (size 3 to 8) (size 9 to 14) (size 15 to 20)
#    0.545    2.364    0.000    2.182    0.000    7.636 
#    0.000    0.000    0.000    1.636    0.000    2.545 
#    0.000    0.000    0.000    0.000    0.000    0.000 
#
# Total GULP energy -245122.014074 kJ/mol
# GULP energy per Si atom -5570.954865 kJ/mol
# Density = 2.079125 g / cm^3
# Si number density = 20.838678 Si / 1000 Ang^3
#
#
#
# Elastic Constant Matrix: (Units=GPa)
#
#
# Indices 1 2 3 4 5 6 
#
# 1 33.2896 -11.0235 -2.3596 0.0000 0.0000 0.0000
# 2 -11.0235 201.8068 133.0866 0.0000 0.0000 0.0000
# 3 -2.3596 133.0866 219.6971 0.0000 0.0000 0.0000
# 4 0.0000 0.0000 0.0000 40.7573 0.0000 0.0000
# 5 0.0000 0.0000 0.0000 0.0000 2.2023 0.0000
# 6 0.0000 0.0000 0.0000 0.0000 0.0000 18.3964
#
#
#
# Elastic Compliance Matrix: (Units=1/GPa)
#
#
# Indices 1 2 3 4 5 6 
#
# 1 0.030765 0.002436 -0.001145 0.000000 0.000000 0.000000
# 2 0.002436 0.008445 -0.005089 0.000000 0.000000 0.000000
# 3 -0.001145 -0.005089 0.007622 0.000000 0.000000 0.000000
# 4 0.000000 0.000000 0.000000 0.024535 0.000000 0.000000
# 5 0.000000 0.000000 0.000000 0.000000 0.454072 0.000000
# 6 0.000000 0.000000 0.000000 0.000000 0.000000 0.054359
#
#
# Mechanical properties :
#
#
# Convention : Reuss Voigt Hill
#
# Bulk Modulus (GPa) = 25.48792 77.13341 51.31067
# Shear Modulus (GPa) = 8.32677 34.61054 21.46865
#
# Velocity S-wave (km/s) = 2.00112 4.07981 3.21320
# Velocity P-wave (km/s) = 4.19487 7.69987 6.20020
#
# Compressibility (1/GPa) = 0.03923427
#
# Stress axis : x y z
#
# Youngs Moduli (GPa) = 32.50469 118.41944 131.19225
#
# Poissons Ratio (x) = -0.28842 0.15021
# Poissons Ratio (y) = -0.07917 0.66768
# Poissons Ratio (z) = 0.03722 0.60268
#
# Static dielectric constant tensor:
#      x y z
#    x 1.851590 0.000000 0.000000 
#    y 0.000000 1.772420 0.000000 
#    z 0.000000 0.000000 1.733300 
# 
# From -- ./inp_files/14396.got.cif
#   From: 2010.05.17/outbox.cif.g08.bks.cpg/sg63_8_cif.got.tgz:14396.got - 2010.06.03 15:47:04.
