data_PCOD9469870
_publ_section_title
;
Structure prediction by ZEFSAII (Michael W. Deem and Ramdas Pophale) SiO2 
 PCOD9469870
Probable space group: C M C M
;
_chemical_formula_sum "Si O2"
_cell_formula_units_Z 80
_cell_length_a 8.808873
_cell_length_b 26.248962
_cell_length_c 20.527792
_cell_angle_alpha 90.000000
_cell_angle_beta 90.000000
_cell_angle_gamma 90.000000
_cell_volume 4746.513510
_symmetry_space_group_name_H-M "C M C M"
_symmetry_group_IT_number 63
_symmetry_cell_setting 'orthorhombic'
loop_
_space_group_symop_operation_xyz
x,y,z
-x,-y,1/2+z
x,-y,-z
-x,y,1/2-z
-x,-y,-z
x,y,1/2-z
-x,y,z
x,-y,1/2+z
1/2+x,1/2+y,z
1/2-x,1/2-y,1/2+z
1/2+x,1/2-y,-z
1/2-x,1/2+y,1/2-z
1/2-x,1/2-y,-z
1/2+x,1/2+y,1/2-z
1/2-x,1/2+y,z
1/2+x,1/2-y,1/2+z
loop_
_atom_site_type_symbol
_atom_site_label
_atom_site_fract_x
_atom_site_fract_y
_atom_site_fract_z
Si Si1 0.683262 0.024422 0.930093
Si Si2 0.817993 0.152510 0.100710
Si Si3 0.318498 0.366394 0.051401
Si Si4 0.317893 0.762529 0.428903
Si Si5 0.683053 0.941089 0.675871
O O1 0.500000 0.029119 0.928730
O O2 0.755503 0.079980 0.924267
O O3 0.732047 0.985876 0.873203
O O4 0.725103 0.000000 0.000000
O O5 0.778634 0.211964 0.112287
O O6 0.741023 0.112448 0.148062
O O7 0.000000 0.147771 0.105554
O O8 0.776196 0.138909 0.025612
O O9 0.500000 0.364475 0.055275
O O10 0.249177 0.317483 0.088213
O O11 0.500000 0.765474 0.433080
O O12 0.250000 0.750000 0.500000
O O13 0.733795 0.949280 0.750000
O O14 0.500000 0.940555 0.674924
#
# Coordination Sequence:
#
# PCOD9469870 Si02
#       5
#    16  16  16  16  16
#     4  10  19  32  51  74  99 134 173 211 255 303
#     4   9  18  31  48  72 101 131 164 204 249 299
#     4  10  19  30  48  76 104 132 166 209 255 297
#     4   9  17  29  46  72 103 132 162 200 247 297
#     4  10  21  35  51  73 101 133 170 210 255 306
#
# _framework density 16.854475999999998
#
# number of rings (size 3 to 8) (size 9 to 14) (size 15 to 20)
#    0.000    2.400    2.000    2.400    0.000    5.600 
#    0.000    0.000    0.000    1.200    0.000    2.800 
#    0.000    0.000    0.000    0.000    0.000    0.000 
#
# Total GULP energy -222951.707764 kJ/mol
# GULP energy per Si atom -5573.792694 kJ/mol
# Density = 1.681611 g / cm^3
# Si number density = 16.854476 Si / 1000 Ang^3
#
#
#
# Elastic Constant Matrix: (Units=GPa)
#
#
# Indices 1 2 3 4 5 6 
#
# 1 25.5789 46.1491 25.8099 0.0000 0.0000 0.0000
# 2 46.1491 194.6643 70.2967 0.0000 0.0000 0.0000
# 3 25.8099 70.2967 89.1360 0.0000 0.0000 0.0000
# 4 0.0000 0.0000 0.0000 16.7395 0.0000 0.0000
# 5 0.0000 0.0000 0.0000 0.0000 13.7536 0.0000
# 6 0.0000 0.0000 0.0000 0.0000 0.0000 34.7970
#
#
#
# Elastic Compliance Matrix: (Units=1/GPa)
#
#
# Indices 1 2 3 4 5 6 
#
# 1 0.075038 -0.013902 -0.010764 0.000000 0.000000 0.000000
# 2 -0.013902 0.009758 -0.003670 0.000000 0.000000 0.000000
# 3 -0.010764 -0.003670 0.017230 0.000000 0.000000 0.000000
# 4 0.000000 0.000000 0.000000 0.059739 0.000000 0.000000
# 5 0.000000 0.000000 0.000000 0.000000 0.072708 0.000000
# 6 0.000000 0.000000 0.000000 0.000000 0.000000 0.028738
#
#
# Mechanical properties :
#
#
# Convention : Reuss Voigt Hill
#
# Bulk Modulus (GPa) = 22.04894 65.98784 44.01839
# Shear Modulus (GPa) = 14.92528 24.19959 19.56243
#
# Velocity S-wave (km/s) = 2.97903 3.79330 3.41055
# Velocity P-wave (km/s) = 4.99431 7.64343 6.45621
#
# Compressibility (1/GPa) = 0.04535365
#
# Stress axis : x y z
#
# Youngs Moduli (GPa) = 13.32658 102.47701 58.03790
#
# Poissons Ratio (x) = 1.42466 0.62471
# Poissons Ratio (y) = 0.18527 0.21302
# Poissons Ratio (z) = 0.14344 0.37612
#
# Static dielectric constant tensor:
#      x y z
#    x 1.572830 0.000000 0.000000 
#    y 0.000000 1.589090 0.000000 
#    z 0.000000 0.000000 1.556920 
# 
# From -- ./inp_files/40467.got.cif
#   From: 2010.05.17/outbox.cif.g08.bks.cpg/sg63_21_cif.got.tgz:40467.got - 2010.06.03 15:47:04.
