data_PCOD9469224
_publ_section_title
;
Structure prediction by ZEFSAII (Michael W. Deem and Ramdas Pophale) SiO2 
 PCOD9469224
Probable space group: C M C M
;
_chemical_formula_sum "Si O2"
_cell_formula_units_Z 128
_cell_length_a 26.224298
_cell_length_b 12.520468
_cell_length_c 21.899216
_cell_angle_alpha 90.000000
_cell_angle_beta 90.000000
_cell_angle_gamma 90.000000
_cell_volume 7190.399179
_symmetry_space_group_name_H-M "C M C M"
_symmetry_group_IT_number 63
_symmetry_cell_setting 'orthorhombic'
loop_
_space_group_symop_operation_xyz
x,y,z
-x,-y,1/2+z
x,-y,-z
-x,y,1/2-z
-x,-y,-z
x,y,1/2-z
-x,y,z
x,-y,1/2+z
1/2+x,1/2+y,z
1/2-x,1/2-y,1/2+z
1/2+x,1/2-y,-z
1/2-x,1/2+y,1/2-z
1/2-x,1/2-y,-z
1/2+x,1/2+y,1/2-z
1/2-x,1/2+y,z
1/2+x,1/2-y,1/2+z
loop_
_atom_site_type_symbol
_atom_site_label
_atom_site_fract_x
_atom_site_fract_y
_atom_site_fract_z
Si Si1 0.774862 0.270493 0.315196
Si Si2 0.554818 0.128079 0.505525
Si Si3 0.657874 0.949121 0.360262
Si Si4 0.776357 0.372618 0.592601
Si Si5 0.877570 0.872947 0.681551
Si Si6 0.840224 0.692487 0.982321
Si Si7 0.332162 0.564675 0.062460
Si Si8 0.057585 0.665248 0.650764
O O1 0.748694 0.259370 0.250000
O O2 0.799337 0.386281 0.322457
O O3 0.740160 0.231490 0.369955
O O4 0.824081 0.192178 0.316154
O O5 0.500000 0.159096 0.478284
O O6 0.606464 0.179472 0.481473
O O7 0.553894 0.159923 0.577019
O O8 0.559050 0.000000 0.500000
O O9 0.658641 0.890626 0.426456
O O10 0.601793 0.921753 0.333810
O O11 0.678385 0.066538 0.372313
O O12 0.794967 0.338286 0.526472
O O13 0.726615 0.448242 0.584354
O O14 0.885354 0.919132 0.750000
O O15 0.869263 0.947478 0.621710
O O16 0.919964 0.780857 0.669648
O O17 0.836457 0.810517 0.955899
O O18 0.342372 0.500000 0.000000
O O19 0.000000 0.647499 0.674086
#
# Coordination Sequence:
#
# PCOD9469224 Si02
#       8
#    16  16  16  16  16  16  16  16
#     4   9  19  34  48  67  99 137 177 213 254 307
#     4   9  16  27  47  74 105 136 163 202 260 322
#     4  10  18  32  49  75 100 140 168 209 261 311
#     4  11  21  30  51  73 104 137 181 211 260 316
#     4   9  17  34  52  70  99 136 176 218 267 320
#     4  11  18  32  47  74 104 132 168 213 260 310
#     4  11  21  32  50  75 104 139 181 225 268 318
#     4   9  16  29  49  76 105 131 167 212 263 315
#
# _framework density 17.801514999999998
#
# number of rings (size 3 to 8) (size 9 to 14) (size 15 to 20)
#    0.000    2.125    5.000    3.000    1.750    0.750 
#    0.000    0.000    0.000    1.500    0.000    0.000 
#    0.000    0.500    0.000    0.000    0.000    0.125 
#
# Total GULP energy -356285.594909 kJ/mol
# GULP energy per Si atom -5566.962420 kJ/mol
# Density = 1.776100 g / cm^3
# Si number density = 17.801515 Si / 1000 Ang^3
#
#
#
# Elastic Constant Matrix: (Units=GPa)
#
#
# Indices 1 2 3 4 5 6 
#
# 1 94.9773 23.7430 23.4978 0.0000 0.0000 0.0000
# 2 23.7430 19.2616 14.6469 0.0000 0.0000 0.0000
# 3 23.4978 14.6469 95.6404 0.0000 0.0000 0.0000
# 4 0.0000 0.0000 0.0000 13.7477 0.0000 0.0000
# 5 0.0000 0.0000 0.0000 0.0000 -19.7291 0.0000
# 6 0.0000 0.0000 0.0000 0.0000 0.0000 -14.3023
#
#
#
# Elastic Compliance Matrix: (Units=1/GPa)
#
#
# Indices 1 2 3 4 5 6 
#
# 1 0.015300 -0.018110 -0.000986 0.000000 0.000000 0.000000
# 2 -0.018110 0.080196 -0.007832 0.000000 0.000000 0.000000
# 3 -0.000986 -0.007832 0.011897 0.000000 0.000000 0.000000
# 4 0.000000 0.000000 0.000000 0.072740 0.000000 0.000000
# 5 0.000000 0.000000 0.000000 0.000000 -0.050687 0.000000
# 6 0.000000 0.000000 0.000000 0.000000 0.000000 -0.069919
#
#
# Mechanical properties :
#
#
# Convention : Reuss Voigt Hill
#
# Bulk Modulus (GPa) = 18.67843 37.07274 27.87558
# Shear Modulus (GPa) = 38.10125 5.80938 21.95532
#
# Velocity S-wave (km/s) = 4.63140 1.80845 3.51570
# Velocity P-wave (km/s) = 6.25421 5.02310 5.67215
#
# Compressibility (1/GPa) = 0.05353768
#
# Stress axis : x y z
#
# Youngs Moduli (GPa) = 65.35962 12.46942 84.05181
#
# Poissons Ratio (x) = 0.22582 0.08284
# Poissons Ratio (y) = 1.18368 0.65831
# Poissons Ratio (z) = 0.06441 0.09766
#
# Static dielectric constant tensor:
#      x y z
#    x 1.674430 0.000000 0.000000 
#    y 0.000000 1.600600 0.000000 
#    z 0.000000 0.000000 1.666180 
# 
# From -- ./inp_files/65563.got.cif
#   From: 2010.05.17/outbox.cif.g08.bks.cpg/sg63_33_cif.got.tgz:65563.got - 2010.06.03 15:47:04.
