data_PCOD9469039
_publ_section_title
;
Structure prediction by ZEFSAII (Michael W. Deem and Ramdas Pophale) SiO2 
 PCOD9469039
Probable space group: C M C M
;
_chemical_formula_sum "Si O2"
_cell_formula_units_Z 112
_cell_length_a 20.741875
_cell_length_b 17.581864
_cell_length_c 19.762218
_cell_angle_alpha 90.000000
_cell_angle_beta 90.000000
_cell_angle_gamma 90.000000
_cell_volume 7206.901971
_symmetry_space_group_name_H-M "C M C M"
_symmetry_group_IT_number 63
_symmetry_cell_setting 'orthorhombic'
loop_
_space_group_symop_operation_xyz
x,y,z
-x,-y,1/2+z
x,-y,-z
-x,y,1/2-z
-x,-y,-z
x,y,1/2-z
-x,y,z
x,-y,1/2+z
1/2+x,1/2+y,z
1/2-x,1/2-y,1/2+z
1/2+x,1/2-y,-z
1/2-x,1/2+y,1/2-z
1/2-x,1/2-y,-z
1/2+x,1/2+y,1/2-z
1/2-x,1/2+y,z
1/2+x,1/2-y,1/2+z
loop_
_atom_site_type_symbol
_atom_site_label
_atom_site_fract_x
_atom_site_fract_y
_atom_site_fract_z
Si Si1 0.574494 0.922725 0.568515
Si Si2 0.173478 0.143056 0.827322
Si Si3 0.709246 0.513267 0.576638
Si Si4 0.724082 0.632961 0.329354
Si Si5 0.322175 0.798385 0.172848
Si Si6 0.628432 0.191649 0.328429
Si Si7 0.856662 0.425989 0.426455
O O1 0.500000 0.929700 0.549758
O O2 0.584660 0.855715 0.621456
O O3 0.617436 0.908807 0.501587
O O4 0.600840 0.002511 0.598259
O O5 0.159282 0.118523 0.750000
O O6 0.169556 0.076098 0.881410
O O7 0.248063 0.171581 0.827070
O O8 0.132796 0.218554 0.843355
O O9 0.686607 0.500000 0.500000
O O10 0.710651 0.436087 0.620361
O O11 0.782770 0.545084 0.571463
O O12 0.713873 0.612502 0.250000
O O13 0.682890 0.709101 0.344472
O O14 0.799028 0.657727 0.335565
O O15 0.345911 0.805898 0.250000
O O16 0.359287 0.852449 0.121124
O O17 0.609807 0.182699 0.250000
#
# Coordination Sequence:
#
# PCOD9469039 Si02
#       7
#    16  16  16  16  16  16  16
#     4  11  21  33  46  61  87 124 162 196 229 256
#     4   8  16  28  42  62  88 119 146 177 224 272
#     4  11  17  25  42  67  94 120 153 176 209 267
#     4   9  16  28  44  65  92 119 145 180 224 270
#     4   8  16  28  45  65  85 115 152 183 220 272
#     4   9  17  31  46  61  85 115 152 191 226 263
#     4  10  18  31  43  60  89 123 154 186 227 262
#
# _framework density 15.540658000000001
#
# number of rings (size 3 to 8) (size 9 to 14) (size 15 to 20)
#    0.000    2.571    2.857    3.000    0.000    2.571 
#    0.000    4.286    0.000    1.286    0.000    0.000 
#    0.000    6.286    0.000   12.429    0.000    0.000 
#
# Total GULP energy -311885.972490 kJ/mol
# GULP energy per Si atom -5569.392366 kJ/mol
# Density = 1.550529 g / cm^3
# Si number density = 15.540658 Si / 1000 Ang^3
#
#
#
# Elastic Constant Matrix: (Units=GPa)
#
#
# Indices 1 2 3 4 5 6 
#
# 1 25.8106 19.4186 22.6699 0.0000 0.0000 0.0000
# 2 19.4186 109.9924 90.2231 0.0000 0.0000 0.0000
# 3 22.6699 90.2231 102.1883 0.0000 0.0000 0.0000
# 4 0.0000 0.0000 0.0000 17.7704 0.0000 0.0000
# 5 0.0000 0.0000 0.0000 0.0000 0.4640 0.0000
# 6 0.0000 0.0000 0.0000 0.0000 0.0000 6.3863
#
#
#
# Elastic Compliance Matrix: (Units=1/GPa)
#
#
# Indices 1 2 3 4 5 6 
#
# 1 0.048147 0.000947 -0.011518 0.000000 0.000000 0.000000
# 2 0.000947 0.032985 -0.029333 0.000000 0.000000 0.000000
# 3 -0.011518 -0.029333 0.038240 0.000000 0.000000 0.000000
# 4 0.000000 0.000000 0.000000 0.056273 0.000000 0.000000
# 5 0.000000 0.000000 0.000000 0.000000 2.155262 0.000000
# 6 0.000000 0.000000 0.000000 0.000000 0.000000 0.156586
#
#
# Mechanical properties :
#
#
# Convention : Reuss Voigt Hill
#
# Bulk Modulus (GPa) = 25.27482 55.84605 40.56044
# Shear Modulus (GPa) = 1.93762 11.96945 6.95353
#
# Velocity S-wave (km/s) = 1.11782 2.77826 2.11758
# Velocity P-wave (km/s) = 4.23851 6.80479 5.66878
#
# Compressibility (1/GPa) = 0.03956506
#
# Stress axis : x y z
#
# Youngs Moduli (GPa) = 20.76968 30.31643 26.15086
#
# Poissons Ratio (x) = -0.02872 0.30120
# Poissons Ratio (y) = -0.01968 0.76709
# Poissons Ratio (z) = 0.23922 0.88928
#
# Static dielectric constant tensor:
#      x y z
#    x 1.486380 0.000000 0.000000 
#    y 0.000000 1.527440 0.000000 
#    z 0.000000 0.000000 1.523480 
# 
# From -- ./inp_files/48351.got.cif
#   From: 2010.05.17/outbox.cif.g08.bks.cpg/sg63_25_cif.got.tgz:48351.got - 2010.06.03 15:47:04.
