data_PCOD9469071
_publ_section_title
;
Structure prediction by ZEFSAII (Michael W. Deem and Ramdas Pophale) SiO2 
 PCOD9469071
Probable space group: C M C M
;
_chemical_formula_sum "Si O2"
_cell_formula_units_Z 88
_cell_length_a 20.111044
_cell_length_b 28.349711
_cell_length_c 9.026085
_cell_angle_alpha 90.000000
_cell_angle_beta 90.000000
_cell_angle_gamma 90.000000
_cell_volume 5146.152729
_symmetry_space_group_name_H-M "C M C M"
_symmetry_group_IT_number 63
_symmetry_cell_setting 'orthorhombic'
loop_
_space_group_symop_operation_xyz
x,y,z
-x,-y,1/2+z
x,-y,-z
-x,y,1/2-z
-x,-y,-z
x,y,1/2-z
-x,y,z
x,-y,1/2+z
1/2+x,1/2+y,z
1/2-x,1/2-y,1/2+z
1/2+x,1/2-y,-z
1/2-x,1/2+y,1/2-z
1/2-x,1/2-y,-z
1/2+x,1/2+y,1/2-z
1/2-x,1/2+y,z
1/2+x,1/2-y,1/2+z
loop_
_atom_site_type_symbol
_atom_site_label
_atom_site_fract_x
_atom_site_fract_y
_atom_site_fract_z
Si Si1 0.146668 0.319773 0.570680
Si Si2 0.500000 0.290843 0.989748
Si Si3 0.651189 0.279942 0.582083
Si Si4 0.000000 0.899464 0.075120
Si Si5 0.500000 0.185706 0.416881
Si Si6 0.865006 0.949005 0.071444
Si Si7 0.269620 0.363938 0.427553
O O1 0.147760 0.318198 0.750000
O O2 0.165199 0.268535 0.504445
O O3 0.070797 0.328772 0.517136
O O4 0.199061 0.356440 0.505884
O O5 0.500000 0.343113 0.057237
O O6 0.500000 0.243072 0.087557
O O7 0.428700 0.286672 0.910869
O O8 0.677565 0.278065 0.750000
O O9 0.682955 0.323010 0.492673
O O10 0.932934 0.923638 0.016295
O O11 0.000000 0.908350 0.250000
O O12 0.500000 0.167408 0.250000
O O13 0.868664 0.953500 0.250000
O O14 0.804541 0.913614 0.038685
O O15 0.858122 0.000000 0.000000
O O16 0.264311 0.358744 0.250000
#
# Coordination Sequence:
#
# PCOD9469071 Si02
#       7
#    16   8  16   8   8  16  16
#     4  10  20  35  54  77 104 137 172 209 256 311
#     4  10  18  31  49  74 105 140 184 220 259 296
#     4  11  21  33  49  74 106 139 178 220 259 302
#     4  10  18  34  55  75 102 140 182 223 267 309
#     4   8  17  31  52  77 104 137 170 206 250 308
#     4  10  22  38  56  77 102 136 178 224 271 314
#     4  11  22  36  53  74 102 137 174 214 263 315
#
# _framework density 17.100154
#
# number of rings (size 3 to 8) (size 9 to 14) (size 15 to 20)
#    0.000    1.818    1.818    3.000    0.000    2.909 
#    0.000    1.364    0.000    0.000    0.000    0.636 
#    0.000    0.000    0.000    0.000    0.000    0.000 
#
# Total GULP energy -245352.431763 kJ/mol
# GULP energy per Si atom -5576.191631 kJ/mol
# Density = 1.706123 g / cm^3
# Si number density = 17.100154 Si / 1000 Ang^3
#
#
#
# Elastic Constant Matrix: (Units=GPa)
#
#
# Indices 1 2 3 4 5 6 
#
# 1 130.0253 69.9645 37.4606 0.0000 0.0000 0.0000
# 2 69.9645 93.7369 29.7494 0.0000 0.0000 0.0000
# 3 37.4606 29.7494 56.6584 0.0000 0.0000 0.0000
# 4 0.0000 0.0000 0.0000 19.8777 0.0000 0.0000
# 5 0.0000 0.0000 0.0000 0.0000 13.8903 0.0000
# 6 0.0000 0.0000 0.0000 0.0000 0.0000 19.1775
#
#
#
# Elastic Compliance Matrix: (Units=1/GPa)
#
#
# Indices 1 2 3 4 5 6 
#
# 1 0.013722 -0.008835 -0.004434 0.000000 0.000000 0.000000
# 2 -0.008835 0.018490 -0.003867 0.000000 0.000000 0.000000
# 3 -0.004434 -0.003867 0.022611 0.000000 0.000000 0.000000
# 4 0.000000 0.000000 0.000000 0.050308 0.000000 0.000000
# 5 0.000000 0.000000 0.000000 0.000000 0.071992 0.000000
# 6 0.000000 0.000000 0.000000 0.000000 0.000000 0.052144
#
#
# Mechanical properties :
#
#
# Convention : Reuss Voigt Hill
#
# Bulk Modulus (GPa) = 48.65676 61.64108 55.14892
# Shear Modulus (GPa) = 18.49183 20.13885 19.31534
#
# Velocity S-wave (km/s) = 3.29201 3.43549 3.36451
# Velocity P-wave (km/s) = 6.55481 7.20153 6.88577
#
# Compressibility (1/GPa) = 0.02055213
#
# Stress axis : x y z
#
# Youngs Moduli (GPa) = 72.87505 54.08397 44.22544
#
# Poissons Ratio (x) = 0.47783 0.19608
# Poissons Ratio (y) = 0.64385 0.17102
# Poissons Ratio (z) = 0.32310 0.20914
#
# Static dielectric constant tensor:
#      x y z
#    x 1.631550 0.000000 0.000000 
#    y 0.000000 1.534520 0.000000 
#    z 0.000000 0.000000 1.590200 
# 
# From -- ./inp_files/8263.got.cif
#   From: 2010.05.17/outbox.cif.g08.bks.cpg/sg63_5_cif.got.tgz:8263.got - 2010.06.03 15:47:04.
