data_PCOD9469858
_publ_section_title
;
Structure prediction by ZEFSAII (Michael W. Deem and Ramdas Pophale) SiO2 
 PCOD9469858
Probable space group: C M C M
;
_chemical_formula_sum "Si O2"
_cell_formula_units_Z 128
_cell_length_a 18.401063
_cell_length_b 21.951037
_cell_length_c 19.199089
_cell_angle_alpha 90.000000
_cell_angle_beta 90.000000
_cell_angle_gamma 90.000000
_cell_volume 7754.942390
_symmetry_space_group_name_H-M "C M C M"
_symmetry_group_IT_number 63
_symmetry_cell_setting 'orthorhombic'
loop_
_space_group_symop_operation_xyz
x,y,z
-x,-y,1/2+z
x,-y,-z
-x,y,1/2-z
-x,-y,-z
x,y,1/2-z
-x,y,z
x,-y,1/2+z
1/2+x,1/2+y,z
1/2-x,1/2-y,1/2+z
1/2+x,1/2-y,-z
1/2-x,1/2+y,1/2-z
1/2-x,1/2-y,-z
1/2+x,1/2+y,1/2-z
1/2-x,1/2+y,z
1/2+x,1/2-y,1/2+z
loop_
_atom_site_type_symbol
_atom_site_label
_atom_site_fract_x
_atom_site_fract_y
_atom_site_fract_z
Si Si1 0.787702 0.653426 0.831491
Si Si2 0.916155 0.693138 0.571389
Si Si3 0.273962 0.788493 0.831647
Si Si4 0.418624 0.795164 0.590740
Si Si5 0.656436 0.432544 0.167339
Si Si6 0.082168 0.945070 0.832484
Si Si7 0.636293 0.331018 0.584451
Si Si8 0.581266 0.347786 0.440148
O O1 0.809633 0.652589 0.750000
O O2 0.856868 0.659282 0.881539
O O3 0.739776 0.715464 0.840861
O O4 0.736188 0.595575 0.845307
O O5 0.903973 0.683277 0.488662
O O6 0.904015 0.765554 0.584787
O O7 0.000000 0.678001 0.587110
O O8 0.262822 0.801725 0.750000
O O9 0.353113 0.808765 0.857414
O O10 0.213681 0.820028 0.879778
O O11 0.500000 0.815274 0.611190
O O12 0.419734 0.721697 0.585303
O O13 0.641943 0.425586 0.250000
O O14 0.640120 0.502534 0.149108
O O15 0.602582 0.391716 0.121972
O O16 0.088183 0.933378 0.750000
O O17 0.095582 0.882986 0.872991
O O18 0.000000 0.967724 0.846036
O O19 0.637275 0.351230 0.504040
O O20 0.500000 0.361804 0.466919
#
# Coordination Sequence:
#
# PCOD9469858 Si02
#       8
#    16  16  16  16  16  16  16  16
#     4   9  18  30  46  69  96 125 161 202 245 289
#     4   9  18  31  49  72 100 128 158 199 248 295
#     4  10  19  31  48  71  96 127 164 201 244 291
#     4   9  18  30  46  71  98 126 159 196 246 301
#     4  10  20  33  47  67  95 129 170 208 242 285
#     4  10  20  34  50  67  95 136 171 201 240 283
#     4  10  20  32  49  70 100 129 166 202 235 288
#     4  10  19  30  48  71  96 129 163 202 246 285
#
# _framework density 16.505603000000001
#
# number of rings (size 3 to 8) (size 9 to 14) (size 15 to 20)
#    0.000    2.375    1.250    2.625    1.750    3.750 
#    0.000    2.500    0.000    0.000    0.000    0.875 
#    0.000    5.000    0.000    0.000    0.000    0.000 
#
# Total GULP energy -356653.995819 kJ/mol
# GULP energy per Si atom -5572.718685 kJ/mol
# Density = 1.646804 g / cm^3
# Si number density = 16.505603 Si / 1000 Ang^3
#
#
#
# Elastic Constant Matrix: (Units=GPa)
#
#
# Indices 1 2 3 4 5 6 
#
# 1 83.2685 7.6796 40.9951 0.0000 0.0000 0.0000
# 2 7.6796 34.9962 14.3775 0.0000 0.0000 0.0000
# 3 40.9951 14.3775 43.5073 0.0000 0.0000 0.0000
# 4 0.0000 0.0000 0.0000 16.7712 0.0000 0.0000
# 5 0.0000 0.0000 0.0000 0.0000 30.4527 0.0000
# 6 0.0000 0.0000 0.0000 0.0000 0.0000 16.3776
#
#
#
# Elastic Compliance Matrix: (Units=1/GPa)
#
#
# Indices 1 2 3 4 5 6 
#
# 1 0.022987 0.004460 -0.023134 0.000000 0.000000 0.000000
# 2 0.004460 0.033929 -0.015414 0.000000 0.000000 0.000000
# 3 -0.023134 -0.015414 0.049876 0.000000 0.000000 0.000000
# 4 0.000000 0.000000 0.000000 0.059626 0.000000 0.000000
# 5 0.000000 0.000000 0.000000 0.000000 0.032838 0.000000
# 6 0.000000 0.000000 0.000000 0.000000 0.000000 0.061059
#
#
# Mechanical properties :
#
#
# Convention : Reuss Voigt Hill
#
# Bulk Modulus (GPa) = 25.89626 31.98629 28.94128
# Shear Modulus (GPa) = 14.64712 19.30161 16.97437
#
# Velocity S-wave (km/s) = 2.98216 3.42336 3.21035
# Velocity P-wave (km/s) = 5.25178 5.92005 5.59590
#
# Compressibility (1/GPa) = 0.03861561
#
# Stress axis : x y z
#
# Youngs Moduli (GPa) = 43.50220 29.47370 20.04953
#
# Poissons Ratio (x) = -0.13144 0.46382
# Poissons Ratio (y) = -0.19401 0.30905
# Poissons Ratio (z) = 1.00637 0.45432
#
# Static dielectric constant tensor:
#      x y z
#    x 1.566730 0.000000 0.000000 
#    y 0.000000 1.535160 0.000000 
#    z 0.000000 0.000000 1.561560 
# 
# From -- ./inp_files/56066.got.cif
#   From: 2010.05.17/outbox.cif.g08.bks.cpg/sg63_29_cif.got.tgz:56066.got - 2010.06.03 15:47:04.
