data_PCOD9469740
_publ_section_title
;
Structure prediction by ZEFSAII (Michael W. Deem and Ramdas Pophale) SiO2 
 PCOD9469740
Probable space group: C M C M
;
_chemical_formula_sum "Si O2"
_cell_formula_units_Z 104
_cell_length_a 25.455217
_cell_length_b 33.912906
_cell_length_c 8.660519
_cell_angle_alpha 90.000000
_cell_angle_beta 90.000000
_cell_angle_gamma 90.000000
_cell_volume 7476.282934
_symmetry_space_group_name_H-M "C M C M"
_symmetry_group_IT_number 63
_symmetry_cell_setting 'orthorhombic'
loop_
_space_group_symop_operation_xyz
x,y,z
-x,-y,1/2+z
x,-y,-z
-x,y,1/2-z
-x,-y,-z
x,y,1/2-z
-x,y,z
x,-y,1/2+z
1/2+x,1/2+y,z
1/2-x,1/2-y,1/2+z
1/2+x,1/2-y,-z
1/2-x,1/2+y,1/2-z
1/2-x,1/2-y,-z
1/2+x,1/2+y,1/2-z
1/2-x,1/2+y,z
1/2+x,1/2-y,1/2+z
loop_
_atom_site_type_symbol
_atom_site_label
_atom_site_fract_x
_atom_site_fract_y
_atom_site_fract_z
Si Si1 0.772254 0.311915 0.934815
Si Si2 0.559025 0.839416 0.565945
Si Si3 0.000000 0.544431 0.436107
Si Si4 0.828639 0.765243 0.564122
Si Si5 0.057463 0.251302 0.435602
Si Si6 0.661556 0.880867 0.067579
Si Si7 0.383556 0.955889 0.935051
O O1 0.775298 0.313959 0.750000
O O2 0.713472 0.298485 0.981636
O O3 0.809299 0.276046 0.992141
O O4 0.792863 0.352611 0.003797
O O5 0.566001 0.844304 0.750000
O O6 0.500000 0.854096 0.527046
O O7 0.560068 0.793380 0.520378
O O8 0.606983 0.859796 0.480424
O O9 0.000000 0.500000 0.500000
O O10 0.057655 0.559383 0.483225
O O11 0.000000 0.544888 0.250000
O O12 0.824956 0.761282 0.750000
O O13 0.889514 0.771974 0.523665
O O14 0.059131 0.258396 0.250000
O O15 0.000000 0.233537 0.470556
O O16 0.665192 0.883419 0.250000
O O17 0.658011 0.924392 0.995977
O O18 0.382248 0.957344 0.750000
O O19 0.376823 0.000000 0.000000
#
# Coordination Sequence:
#
# PCOD9469740 Si02
#       7
#    16  16   8  16  16  16  16
#     4  10  19  30  44  61  81 109 141 175 211 246
#     4  10  20  31  42  58  80 105 135 173 216 257
#     4   8  16  30  48  64  80 100 126 160 202 254
#     4   9  17  29  44  62  84 109 138 171 210 254
#     4   9  16  27  43  62  84 108 134 168 210 256
#     4  12  23  33  45  62  82 106 140 175 213 255
#     4  10  20  35  50  65  82 104 132 167 211 256
#
# _framework density 13.910655999999999
#
# number of rings (size 3 to 8) (size 9 to 14) (size 15 to 20)
#    0.000    2.154    1.538    2.769    1.077    2.154 
#    0.000    0.000    0.000    0.000    0.000    0.000 
#    0.000    0.000    0.000    0.000    0.000    0.769 
#
# Total GULP energy -289871.954212 kJ/mol
# GULP energy per Si atom -5574.460658 kJ/mol
# Density = 1.387900 g / cm^3
# Si number density = 13.910656 Si / 1000 Ang^3
#
#
#
# Elastic Constant Matrix: (Units=GPa)
#
#
# Indices 1 2 3 4 5 6 
#
# 1 100.6808 48.3553 26.9302 0.0000 0.0000 0.0000
# 2 48.3553 75.0847 26.8220 0.0000 0.0000 0.0000
# 3 26.9302 26.8220 36.9128 0.0000 0.0000 0.0000
# 4 0.0000 0.0000 0.0000 17.1722 0.0000 0.0000
# 5 0.0000 0.0000 0.0000 0.0000 14.5408 0.0000
# 6 0.0000 0.0000 0.0000 0.0000 0.0000 24.3528
#
#
#
# Elastic Compliance Matrix: (Units=1/GPa)
#
#
# Indices 1 2 3 4 5 6 
#
# 1 0.015122 -0.007830 -0.005343 0.000000 0.000000 0.000000
# 2 -0.007830 0.022042 -0.010304 0.000000 0.000000 0.000000
# 3 -0.005343 -0.010304 0.038476 0.000000 0.000000 0.000000
# 4 0.000000 0.000000 0.000000 0.058233 0.000000 0.000000
# 5 0.000000 0.000000 0.000000 0.000000 0.068772 0.000000
# 6 0.000000 0.000000 0.000000 0.000000 0.000000 0.041063
#
#
# Mechanical properties :
#
#
# Convention : Reuss Voigt Hill
#
# Bulk Modulus (GPa) = 34.85988 46.32150 40.59069
# Shear Modulus (GPa) = 16.65425 18.58456 17.61940
#
# Velocity S-wave (km/s) = 3.46385 3.65909 3.56281
# Velocity P-wave (km/s) = 6.41186 7.15706 6.79468
#
# Compressibility (1/GPa) = 0.02868627
#
# Stress axis : x y z
#
# Youngs Moduli (GPa) = 66.12769 45.36854 25.99039
#
# Poissons Ratio (x) = 0.35525 0.13887
# Poissons Ratio (y) = 0.51780 0.26779
# Poissons Ratio (z) = 0.35332 0.46746
#
# Static dielectric constant tensor:
#      x y z
#    x 1.490810 0.000000 0.000000 
#    y 0.000000 1.445610 0.000000 
#    z 0.000000 0.000000 1.462690 
# 
# From -- ./inp_files/13295.got.cif
#   From: 2010.05.17/outbox.cif.g08.bks.cpg/sg63_7_cif.got.tgz:13295.got - 2010.06.03 15:47:04.
