data_PCOD9469066
_publ_section_title
;
Structure prediction by ZEFSAII (Michael W. Deem and Ramdas Pophale) SiO2 
 PCOD9469066
Probable space group: C M C M
;
_chemical_formula_sum "Si O2"
_cell_formula_units_Z 72
_cell_length_a 16.899879
_cell_length_b 9.010805
_cell_length_c 27.174031
_cell_angle_alpha 90.000000
_cell_angle_beta 90.000000
_cell_angle_gamma 90.000000
_cell_volume 4138.102587
_symmetry_space_group_name_H-M "C M C M"
_symmetry_group_IT_number 63
_symmetry_cell_setting 'orthorhombic'
loop_
_space_group_symop_operation_xyz
x,y,z
-x,-y,1/2+z
x,-y,-z
-x,y,1/2-z
-x,-y,-z
x,y,1/2-z
-x,y,z
x,-y,1/2+z
1/2+x,1/2+y,z
1/2-x,1/2-y,1/2+z
1/2+x,1/2-y,-z
1/2-x,1/2+y,1/2-z
1/2-x,1/2-y,-z
1/2+x,1/2+y,1/2-z
1/2-x,1/2+y,z
1/2+x,1/2-y,1/2+z
loop_
_atom_site_type_symbol
_atom_site_label
_atom_site_fract_x
_atom_site_fract_y
_atom_site_fract_z
Si Si1 0.855791 0.185642 0.194400
Si Si2 0.862945 0.324189 0.883457
Si Si3 0.243076 0.074756 0.651278
Si Si4 0.500000 0.179109 0.855508
Si Si5 0.500000 0.049026 0.444075
Si Si6 0.000000 0.365093 0.692764
O O1 0.886322 0.187738 0.250000
O O2 0.790501 0.313714 0.186603
O O3 0.923642 0.223331 0.155384
O O4 0.814622 0.031196 0.181747
O O5 0.808048 0.179419 0.884805
O O6 0.806293 0.466363 0.874875
O O7 0.922319 0.357739 0.928205
O O8 0.921862 0.310727 0.836205
O O9 0.500000 0.093804 0.907368
O O10 0.500000 0.043046 0.816202
O O11 0.500000 0.000000 0.500000
O O12 0.000000 0.328602 0.750000
#
# Coordination Sequence:
#
# PCOD9469066 Si02
#       6
#    16  16  16   8   8   8
#     4  11  20  32  52  79 114 152 184 213 258 324
#     4   9  20  36  56  79 107 147 178 231 274 321
#     4  10  20  34  52  79 116 142 180 220 271 316
#     4  10  20  34  51  76 103 141 177 228 267 316
#     4  10  20  41  64  80 100 142 190 230 291 343
#     4  10  18  31  49  71 107 148 188 213 257 323
#
# _framework density 17.399277999999999
#
# number of rings (size 3 to 8) (size 9 to 14) (size 15 to 20)
#    0.000    2.222    4.444    1.667    0.000    6.222 
#    0.000    1.111    0.000    1.333    0.000    0.000 
#    0.000    0.000    0.000    0.000    0.000    0.000 
#
# Total GULP energy -200726.042391 kJ/mol
# GULP energy per Si atom -5575.723400 kJ/mol
# Density = 1.735968 g / cm^3
# Si number density = 17.399278 Si / 1000 Ang^3
#
#
#
# Elastic Constant Matrix: (Units=GPa)
#
#
# Indices 1 2 3 4 5 6 
#
# 1 101.0114 41.4536 32.8686 0.0000 0.0000 0.0000
# 2 41.4536 89.3126 20.3702 0.0000 0.0000 0.0000
# 3 32.8686 20.3702 76.5159 0.0000 0.0000 0.0000
# 4 0.0000 0.0000 0.0000 9.9908 0.0000 0.0000
# 5 0.0000 0.0000 0.0000 0.0000 6.3676 0.0000
# 6 0.0000 0.0000 0.0000 0.0000 0.0000 10.9934
#
#
#
# Elastic Compliance Matrix: (Units=1/GPa)
#
#
# Indices 1 2 3 4 5 6 
#
# 1 0.013487 -0.005258 -0.004394 0.000000 0.000000 0.000000
# 2 -0.005258 0.013970 -0.001461 0.000000 0.000000 0.000000
# 3 -0.004394 -0.001461 0.015346 0.000000 0.000000 0.000000
# 4 0.000000 0.000000 0.000000 0.100092 0.000000 0.000000
# 5 0.000000 0.000000 0.000000 0.000000 0.157044 0.000000
# 6 0.000000 0.000000 0.000000 0.000000 0.000000 0.090963
#
#
# Mechanical properties :
#
#
# Convention : Reuss Voigt Hill
#
# Bulk Modulus (GPa) = 48.59497 50.69163 49.64330
# Shear Modulus (GPa) = 11.90514 16.94687 14.42601
#
# Velocity S-wave (km/s) = 2.61862 3.12428 2.88256
# Velocity P-wave (km/s) = 6.09367 6.49711 6.29862
#
# Compressibility (1/GPa) = 0.02057826
#
# Stress axis : x y z
#
# Youngs Moduli (GPa) = 74.14323 71.58118 65.16565
#
# Poissons Ratio (x) = 0.37637 0.28634
# Poissons Ratio (y) = 0.38984 0.09518
# Poissons Ratio (z) = 0.32578 0.10455
#
# Static dielectric constant tensor:
#      x y z
#    x 1.631000 0.000000 0.000000 
#    y 0.000000 1.591450 0.000000 
#    z 0.000000 0.000000 1.555860 
# 
# From -- ./inp_files/69690.got.cif
#   From: 2010.05.17/outbox.cif.g08.bks.cpg/sg63_35_cif.got.tgz:69690.got - 2010.06.03 15:47:04.
