data_PCOD9469746
_publ_section_title
;
Structure prediction by ZEFSAII (Michael W. Deem and Ramdas Pophale) SiO2 
 PCOD9469746
Probable space group: C M C M
;
_chemical_formula_sum "Si O2"
_cell_formula_units_Z 96
_cell_length_a 7.714853
_cell_length_b 24.954491
_cell_length_c 26.807913
_cell_angle_alpha 90.000000
_cell_angle_beta 90.000000
_cell_angle_gamma 90.000000
_cell_volume 5161.065570
_symmetry_space_group_name_H-M "C M C M"
_symmetry_group_IT_number 63
_symmetry_cell_setting 'orthorhombic'
loop_
_space_group_symop_operation_xyz
x,y,z
-x,-y,1/2+z
x,-y,-z
-x,y,1/2-z
-x,-y,-z
x,y,1/2-z
-x,y,z
x,-y,1/2+z
1/2+x,1/2+y,z
1/2-x,1/2-y,1/2+z
1/2+x,1/2-y,-z
1/2-x,1/2+y,1/2-z
1/2-x,1/2-y,-z
1/2+x,1/2+y,1/2-z
1/2-x,1/2+y,z
1/2+x,1/2-y,1/2+z
loop_
_atom_site_type_symbol
_atom_site_label
_atom_site_fract_x
_atom_site_fract_y
_atom_site_fract_z
Si Si1 0.204178 0.926055 0.030125
Si Si2 0.295295 0.664496 0.615144
Si Si3 0.287001 0.420802 0.192947
Si Si4 0.789869 0.266184 0.557077
Si Si5 0.704446 0.505125 0.111795
Si Si6 0.302709 0.884628 0.575886
O O1 0.217051 0.877536 0.069544
O O2 0.000000 0.933865 0.017270
O O3 0.272379 0.977206 0.060905
O O4 0.295192 0.908591 0.979882
O O5 0.500000 0.673174 0.624434
O O6 0.227854 0.632475 0.663232
O O7 0.223583 0.720429 0.594827
O O8 0.230123 0.423064 0.250000
O O9 0.500000 0.420329 0.193096
O O10 0.230794 0.471881 0.159516
O O11 0.750000 0.250000 0.500000
O O12 0.723216 0.325333 0.571302
O O13 0.000000 0.267286 0.559715
O O14 0.500000 0.493769 0.109793
O O15 0.727188 0.568534 0.110354
O O16 0.500000 0.877887 0.591931
#
# Coordination Sequence:
#
# PCOD9469746 Si02
#       6
#    16  16  16  16  16  16
#     4   9  16  28  45  62  85 120 155 183 218 267
#     4   8  14  26  44  65  89 115 144 187 233 265
#     4   8  14  27  50  75  89 102 141 199 243 270
#     4  10  19  30  44  63  91 126 159 186 218 264
#     4   9  18  30  45  66  89 116 149 185 228 273
#     4  11  21  28  39  63  94 126 155 183 215 261
#
# _framework density 18.600809000000002
#
# number of rings (size 3 to 8) (size 9 to 14) (size 15 to 20)
#    0.000    2.833    1.667    3.000    0.000    3.333 
#    0.000    0.000    0.000    1.500    0.000    2.333 
#    0.000    0.000    0.000    0.000    0.000    0.000 
#
# Total GULP energy -267441.565391 kJ/mol
# GULP energy per Si atom -5571.699279 kJ/mol
# Density = 1.855847 g / cm^3
# Si number density = 18.600809 Si / 1000 Ang^3
#
#
#
# Elastic Constant Matrix: (Units=GPa)
#
#
# Indices 1 2 3 4 5 6 
#
# 1 25.1997 4.1179 1.7695 0.0000 0.0000 0.0000
# 2 4.1179 174.7859 64.9904 0.0000 0.0000 0.0000
# 3 1.7695 64.9904 100.2889 0.0000 0.0000 0.0000
# 4 0.0000 0.0000 0.0000 11.5723 0.0000 0.0000
# 5 0.0000 0.0000 0.0000 0.0000 -203.8846 0.0000
# 6 0.0000 0.0000 0.0000 0.0000 0.0000 14.2053
#
#
#
# Elastic Compliance Matrix: (Units=1/GPa)
#
#
# Indices 1 2 3 4 5 6 
#
# 1 0.039838 -0.000892 -0.000125 0.000000 0.000000 0.000000
# 2 -0.000892 0.007557 -0.004882 0.000000 0.000000 0.000000
# 3 -0.000125 -0.004882 0.013137 0.000000 0.000000 0.000000
# 4 0.000000 0.000000 0.000000 0.086413 0.000000 0.000000
# 5 0.000000 0.000000 0.000000 0.000000 -0.004905 0.000000
# 6 0.000000 0.000000 0.000000 0.000000 0.000000 0.070396
#
#
# Mechanical properties :
#
#
# Convention : Reuss Voigt Hill
#
# Bulk Modulus (GPa) = 20.51929 49.11445 34.81687
# Shear Modulus (GPa) = 20.79184 -20.32827 0.23178
#
# Velocity S-wave (km/s) = 3.34697 -3.30945 0.35338
# Velocity P-wave (km/s) = 5.09820 3.44363 4.35030
#
# Compressibility (1/GPa) = 0.04873463
#
# Stress axis : x y z
#
# Youngs Moduli (GPa) = 25.10196 132.31929 76.12133
#
# Poissons Ratio (x) = 0.11805 0.00949
# Poissons Ratio (y) = 0.02240 0.37161
# Poissons Ratio (z) = 0.00313 0.64595
#
# Static dielectric constant tensor:
#      x y z
#    x 1.725030 0.000000 0.000000 
#    y 0.000000 1.696040 0.000000 
#    z 0.000000 0.000000 1.616900 
# 
# From -- ./inp_files/67220.got.cif
#   From: 2010.05.17/outbox.cif.g08.bks.cpg/sg63_34_cif.got.tgz:67220.got - 2010.06.03 15:47:04.
