data_PCOD9469500
_publ_section_title
;
Structure prediction by ZEFSAII (Michael W. Deem and Ramdas Pophale) SiO2 
 PCOD9469500
Probable space group: C M C M
;
_chemical_formula_sum "Si O2"
_cell_formula_units_Z 88
_cell_length_a 18.528687
_cell_length_b 29.981091
_cell_length_c 8.731190
_cell_angle_alpha 90.000000
_cell_angle_beta 90.000000
_cell_angle_gamma 90.000000
_cell_volume 4850.265549
_symmetry_space_group_name_H-M "C M C M"
_symmetry_group_IT_number 63
_symmetry_cell_setting 'orthorhombic'
loop_
_space_group_symop_operation_xyz
x,y,z
-x,-y,1/2+z
x,-y,-z
-x,y,1/2-z
-x,-y,-z
x,y,1/2-z
-x,y,z
x,-y,1/2+z
1/2+x,1/2+y,z
1/2-x,1/2-y,1/2+z
1/2+x,1/2-y,-z
1/2-x,1/2+y,1/2-z
1/2-x,1/2-y,-z
1/2+x,1/2+y,1/2-z
1/2-x,1/2+y,z
1/2+x,1/2-y,1/2+z
loop_
_atom_site_type_symbol
_atom_site_label
_atom_site_fract_x
_atom_site_fract_y
_atom_site_fract_z
Si Si1 0.584943 0.741252 0.924893
Si Si2 0.772131 0.113182 0.566393
Si Si3 0.795066 0.291069 0.067775
Si Si4 0.150327 0.449968 0.566497
Si Si5 0.000000 0.449349 0.065842
Si Si6 0.583197 0.356166 0.933108
O O1 0.610217 0.734625 0.750000
O O2 0.500000 0.749171 0.924037
O O3 0.626145 0.782202 0.000287
O O4 0.596966 0.694953 0.014608
O O5 0.770022 0.107871 0.750000
O O6 0.739382 0.161791 0.526008
O O7 0.719889 0.077545 0.487538
O O8 0.854740 0.113971 0.509106
O O9 0.796574 0.287913 0.250000
O O10 0.750000 0.250000 0.000000
O O11 0.156656 0.500000 0.500000
O O12 0.144936 0.451386 0.750000
O O13 0.075542 0.430025 0.496968
O O14 0.000000 0.449859 0.250000
O O15 0.000000 0.500000 0.000000
O O16 0.588418 0.358880 0.750000
O O17 0.500000 0.366739 0.978016
#
# Coordination Sequence:
#
# PCOD9469500 Si02
#       6
#    16  16  16  16   8  16
#     4  10  20  34  52  74 104 145 189 232 278 329
#     4  11  23  38  57  84 114 150 190 233 285 340
#     4  11  22  35  54  78 110 148 187 231 280 331
#     4  11  22  39  63  89 117 150 188 234 282 335
#     4  10  18  34  60  88 118 150 188 230 276 334
#     4  10  20  34  55  82 110 145 190 236 280 333
#
# _framework density 18.143336999999999
#
# number of rings (size 3 to 8) (size 9 to 14) (size 15 to 20)
#    0.000    1.455    1.818    5.727    0.000    4.364 
#    1.636    0.000    0.000    0.545    0.000    0.000 
#    0.000    0.000    0.000    0.000    0.000    0.000 
#
# Total GULP energy -245693.243996 kJ/mol
# GULP energy per Si atom -5583.937364 kJ/mol
# Density = 1.810204 g / cm^3
# Si number density = 18.143337 Si / 1000 Ang^3
#
#
#
# Elastic Constant Matrix: (Units=GPa)
#
#
# Indices 1 2 3 4 5 6 
#
# 1 145.0111 47.5247 62.4614 0.0000 0.0000 0.0000
# 2 47.5247 54.6663 40.9863 0.0000 0.0000 0.0000
# 3 62.4614 40.9863 107.1356 0.0000 0.0000 0.0000
# 4 0.0000 0.0000 0.0000 23.5137 0.0000 0.0000
# 5 0.0000 0.0000 0.0000 0.0000 35.6340 0.0000
# 6 0.0000 0.0000 0.0000 0.0000 0.0000 31.2878
#
#
#
# Elastic Compliance Matrix: (Units=1/GPa)
#
#
# Indices 1 2 3 4 5 6 
#
# 1 0.010607 -0.006429 -0.003725 0.000000 0.000000 0.000000
# 2 -0.006429 0.029546 -0.007555 0.000000 0.000000 0.000000
# 3 -0.003725 -0.007555 0.014396 0.000000 0.000000 0.000000
# 4 0.000000 0.000000 0.000000 0.042528 0.000000 0.000000
# 5 0.000000 0.000000 0.000000 0.000000 0.028063 0.000000
# 6 0.000000 0.000000 0.000000 0.000000 0.000000 0.031961
#
#
# Mechanical properties :
#
#
# Convention : Reuss Voigt Hill
#
# Bulk Modulus (GPa) = 52.26895 67.63975 59.95435
# Shear Modulus (GPa) = 25.13853 28.47646 26.80750
#
# Velocity S-wave (km/s) = 3.72634 3.96602 3.84805
# Velocity P-wave (km/s) = 6.88372 7.63768 7.27048
#
# Compressibility (1/GPa) = 0.01913182
#
# Stress axis : x y z
#
# Youngs Moduli (GPa) = 94.27392 33.84497 69.46416
#
# Poissons Ratio (x) = 0.21759 0.25874
# Poissons Ratio (y) = 0.60609 0.52482
# Poissons Ratio (z) = 0.35115 0.25571
#
# Static dielectric constant tensor:
#      x y z
#    x 1.705340 0.000000 0.000000 
#    y 0.000000 1.593430 0.000000 
#    z 0.000000 0.000000 1.605170 
# 
# From -- ./inp_files/6792.got.cif
#   From: 2010.05.17/outbox.cif.g08.bks.cpg/sg63_4_cif.got.tgz:6792.got - 2010.06.03 15:47:04.
