data_PCOD9469180
_publ_section_title
;
Structure prediction by ZEFSAII (Michael W. Deem and Ramdas Pophale) SiO2 
 PCOD9469180
Probable space group: C M C M
;
_chemical_formula_sum "Si O2"
_cell_formula_units_Z 96
_cell_length_a 28.362766
_cell_length_b 7.775002
_cell_length_c 23.015372
_cell_angle_alpha 90.000000
_cell_angle_beta 90.000000
_cell_angle_gamma 90.000000
_cell_volume 5075.362777
_symmetry_space_group_name_H-M "C M C M"
_symmetry_group_IT_number 63
_symmetry_cell_setting 'orthorhombic'
loop_
_space_group_symop_operation_xyz
x,y,z
-x,-y,1/2+z
x,-y,-z
-x,y,1/2-z
-x,-y,-z
x,y,1/2-z
-x,y,z
x,-y,1/2+z
1/2+x,1/2+y,z
1/2-x,1/2-y,1/2+z
1/2+x,1/2-y,-z
1/2-x,1/2+y,1/2-z
1/2-x,1/2-y,-z
1/2+x,1/2+y,1/2-z
1/2-x,1/2+y,z
1/2+x,1/2-y,1/2+z
loop_
_atom_site_type_symbol
_atom_site_label
_atom_site_fract_x
_atom_site_fract_y
_atom_site_fract_z
Si Si1 0.443965 0.149182 0.868370
Si Si2 0.108266 0.050691 0.316911
Si Si3 0.053575 0.707590 0.502634
Si Si4 0.191609 0.385957 0.819910
Si Si5 0.702946 0.289729 0.680595
Si Si6 0.098744 0.272100 0.883595
O O1 0.500000 0.152480 0.862763
O O2 0.418823 0.268788 0.821799
O O3 0.431891 0.236767 0.930930
O O4 0.427544 0.951093 0.868328
O O5 0.112452 0.999486 0.250000
O O6 0.160820 0.089828 0.341529
O O7 0.082239 0.898537 0.350501
O O8 0.050583 0.500000 0.500000
O O9 0.089161 0.759144 0.451827
O O10 0.000000 0.772843 0.491997
O O11 0.185259 0.350653 0.750000
O O12 0.243839 0.326265 0.838334
O O13 0.189875 0.591341 0.828303
O O14 0.151361 0.302344 0.859269
O O15 0.704058 0.318754 0.750000
#
# Coordination Sequence:
#
# PCOD9469180 Si02
#       6
#    16  16  16  16  16  16
#     4  10  22  41  61  82 113 154 194 238 287 335
#     4  11  23  37  55  85 120 153 190 230 282 348
#     4   8  17  36  60  83 105 142 198 243 280 331
#     4  10  18  31  54  82 113 149 187 234 287 338
#     4   9  18  33  52  79 114 151 193 232 274 337
#     4  11  20  34  59  86 112 147 189 242 288 333
#
# _framework density 18.914902999999999
#
# number of rings (size 3 to 8) (size 9 to 14) (size 15 to 20)
#    0.000    2.167    1.667    3.000    0.000    5.667 
#    0.000    1.667    0.000    5.500    4.333    0.000 
#    0.000    0.000    0.000    0.000    0.000    0.000 
#
# Total GULP energy -267559.491636 kJ/mol
# GULP energy per Si atom -5574.156076 kJ/mol
# Density = 1.887185 g / cm^3
# Si number density = 18.914903 Si / 1000 Ang^3
#
#
#
# Elastic Constant Matrix: (Units=GPa)
#
#
# Indices 1 2 3 4 5 6 
#
# 1 61.1283 24.3707 16.2360 0.0000 0.0000 0.0000
# 2 24.3707 59.2473 11.5840 0.0000 0.0000 0.0000
# 3 16.2360 11.5840 39.9516 0.0000 0.0000 0.0000
# 4 0.0000 0.0000 0.0000 22.2008 0.0000 0.0000
# 5 0.0000 0.0000 0.0000 0.0000 9.7410 0.0000
# 6 0.0000 0.0000 0.0000 0.0000 0.0000 5.8579
#
#
#
# Elastic Compliance Matrix: (Units=1/GPa)
#
#
# Indices 1 2 3 4 5 6 
#
# 1 0.021003 -0.007389 -0.006393 0.000000 0.000000 0.000000
# 2 -0.007389 0.020493 -0.002939 0.000000 0.000000 0.000000
# 3 -0.006393 -0.002939 0.028480 0.000000 0.000000 0.000000
# 4 0.000000 0.000000 0.000000 0.045043 0.000000 0.000000
# 5 0.000000 0.000000 0.000000 0.000000 0.102659 0.000000
# 6 0.000000 0.000000 0.000000 0.000000 0.000000 0.170709
#
#
# Mechanical properties :
#
#
# Convention : Reuss Voigt Hill
#
# Bulk Modulus (GPa) = 27.37198 29.41207 28.39202
# Shear Modulus (GPa) = 11.52051 14.76903 13.14477
#
# Velocity S-wave (km/s) = 2.47061 2.79734 2.63904
# Velocity P-wave (km/s) = 4.75827 5.10068 4.93244
#
# Compressibility (1/GPa) = 0.03653371
#
# Stress axis : x y z
#
# Youngs Moduli (GPa) = 47.61210 48.79814 35.11184
#
# Poissons Ratio (x) = 0.36059 0.22447
# Poissons Ratio (y) = 0.35183 0.10319
# Poissons Ratio (z) = 0.30438 0.14341
#
# Static dielectric constant tensor:
#      x y z
#    x 1.673100 0.000000 0.000000 
#    y 0.000000 1.696350 0.000000 
#    z 0.000000 0.000000 1.674710 
# 
# From -- ./inp_files/58094.got.cif
#   From: 2010.05.17/outbox.cif.g08.bks.cpg/sg63_30_cif.got.tgz:58094.got - 2010.06.03 15:47:04.
