data_PCOD9469295
_publ_section_title
;
Structure prediction by ZEFSAII (Michael W. Deem and Ramdas Pophale) SiO2 
 PCOD9469295
Probable space group: C M C M
;
_chemical_formula_sum "Si O2"
_cell_formula_units_Z 72
_cell_length_a 16.237557
_cell_length_b 28.639477
_cell_length_c 8.588002
_cell_angle_alpha 90.000000
_cell_angle_beta 90.000000
_cell_angle_gamma 90.000000
_cell_volume 3993.722714
_symmetry_space_group_name_H-M "C M C M"
_symmetry_group_IT_number 63
_symmetry_cell_setting 'orthorhombic'
loop_
_space_group_symop_operation_xyz
x,y,z
-x,-y,1/2+z
x,-y,-z
-x,y,1/2-z
-x,-y,-z
x,y,1/2-z
-x,y,z
x,-y,1/2+z
1/2+x,1/2+y,z
1/2-x,1/2-y,1/2+z
1/2+x,1/2-y,-z
1/2-x,1/2+y,1/2-z
1/2-x,1/2-y,-z
1/2+x,1/2+y,1/2-z
1/2-x,1/2+y,z
1/2+x,1/2-y,1/2+z
loop_
_atom_site_type_symbol
_atom_site_label
_atom_site_fract_x
_atom_site_fract_y
_atom_site_fract_z
Si Si1 0.000000 0.390560 0.929945
Si Si2 0.500000 0.553227 0.936190
Si Si3 0.500000 0.223065 0.429706
Si Si4 0.676168 0.112390 0.935884
Si Si5 0.677765 0.782306 0.938655
Si Si6 0.672356 0.447188 0.936063
O O1 0.000000 0.405307 0.750000
O O2 0.000000 0.333672 0.931338
O O3 0.085321 0.404642 0.010936
O O4 0.500000 0.552855 0.750000
O O5 0.500000 0.500000 0.000000
O O6 0.586073 0.573479 0.998684
O O7 0.500000 0.238575 0.250000
O O8 0.411546 0.236496 0.496553
O O9 0.680605 0.112314 0.750000
O O10 0.686551 0.165075 0.999366
O O11 0.748997 0.081432 0.006394
O O12 0.676684 0.783595 0.750000
O O13 0.750000 0.750000 0.000000
O O14 0.668600 0.448330 0.750000
O O15 0.679228 0.500000 0.000000
#
# Coordination Sequence:
#
# PCOD9469295 Si02
#       6
#     8   8   8  16  16  16
#     4   9  17  33  54  77 104 139 176 215 261 316
#     4  10  18  32  53  78 105 138 177 217 259 314
#     4   7  14  29  50  71  98 133 170 206 252 308
#     4  11  21  35  55  81 108 140 179 221 264 314
#     4  10  19  34  54  78 105 138 176 219 264 312
#     4  11  21  36  56  80 108 141 178 220 265 315
#
# _framework density 18.028292
#
# number of rings (size 3 to 8) (size 9 to 14) (size 15 to 20)
#    0.000    2.000    0.000    8.667    0.000    0.000 
#    0.000    3.333    0.000    1.333    0.000    0.000 
#    0.000    0.000    0.000    0.000    0.000    0.000 
#
# Total GULP energy -200791.380508 kJ/mol
# GULP energy per Si atom -5577.538347 kJ/mol
# Density = 1.798726 g / cm^3
# Si number density = 18.028292 Si / 1000 Ang^3
#
#
#
# Elastic Constant Matrix: (Units=GPa)
#
#
# Indices 1 2 3 4 5 6 
#
# 1 226.8111 65.9881 79.4284 0.0000 0.0000 0.0000
# 2 65.9881 41.4723 30.2145 0.0000 0.0000 0.0000
# 3 79.4284 30.2145 166.0210 0.0000 0.0000 0.0000
# 4 0.0000 0.0000 0.0000 24.7152 0.0000 0.0000
# 5 0.0000 0.0000 0.0000 0.0000 35.8848 0.0000
# 6 0.0000 0.0000 0.0000 0.0000 0.0000 32.5987
#
#
#
# Elastic Compliance Matrix: (Units=1/GPa)
#
#
# Indices 1 2 3 4 5 6 
#
# 1 0.008696 -0.012458 -0.001893 0.000000 0.000000 0.000000
# 2 -0.012458 0.045644 -0.002347 0.000000 0.000000 0.000000
# 3 -0.001893 -0.002347 0.007356 0.000000 0.000000 0.000000
# 4 0.000000 0.000000 0.000000 0.040461 0.000000 0.000000
# 5 0.000000 0.000000 0.000000 0.000000 0.027867 0.000000
# 6 0.000000 0.000000 0.000000 0.000000 0.000000 0.030676
#
#
# Mechanical properties :
#
#
# Convention : Reuss Voigt Hill
#
# Bulk Modulus (GPa) = 35.33437 87.28516 61.30976
# Shear Modulus (GPa) = 24.56633 35.88465 30.22549
#
# Velocity S-wave (km/s) = 3.69542 4.46630 4.09902
# Velocity P-wave (km/s) = 6.15224 8.66706 7.51558
#
# Compressibility (1/GPa) = 0.02830105
#
# Stress axis : x y z
#
# Youngs Moduli (GPa) = 114.98922 21.90853 135.93862
#
# Poissons Ratio (x) = 0.27293 0.25738
# Poissons Ratio (y) = 1.43252 0.31902
# Poissons Ratio (z) = 0.21772 0.05141
#
# Static dielectric constant tensor:
#      x y z
#    x 1.661700 0.000000 0.000000 
#    y 0.000000 1.596600 0.000000 
#    z 0.000000 0.000000 1.602860 
# 
# From -- ./inp_files/4990.got.cif
#   From: 2010.05.17/outbox.cif.g08.bks.cpg/sg63_3_cif.got.tgz:4990.got - 2010.06.03 15:47:04.
