data_PCOD9469200
_publ_section_title
;
Structure prediction by ZEFSAII (Michael W. Deem and Ramdas Pophale) SiO2 
 PCOD9469200
Probable space group: C M C M
;
_chemical_formula_sum "Si O2"
_cell_formula_units_Z 88
_cell_length_a 20.729993
_cell_length_b 19.073860
_cell_length_c 11.666456
_cell_angle_alpha 90.000000
_cell_angle_beta 90.000000
_cell_angle_gamma 90.000000
_cell_volume 4612.928185
_symmetry_space_group_name_H-M "C M C M"
_symmetry_group_IT_number 63
_symmetry_cell_setting 'orthorhombic'
loop_
_space_group_symop_operation_xyz
x,y,z
-x,-y,1/2+z
x,-y,-z
-x,y,1/2-z
-x,-y,-z
x,y,1/2-z
-x,y,z
x,-y,1/2+z
1/2+x,1/2+y,z
1/2-x,1/2-y,1/2+z
1/2+x,1/2-y,-z
1/2-x,1/2+y,1/2-z
1/2-x,1/2-y,-z
1/2+x,1/2+y,1/2-z
1/2-x,1/2+y,z
1/2+x,1/2-y,1/2+z
loop_
_atom_site_type_symbol
_atom_site_label
_atom_site_fract_x
_atom_site_fract_y
_atom_site_fract_z
Si Si1 0.126802 0.129647 0.920171
Si Si2 0.252995 0.040524 0.623555
Si Si3 0.300643 0.680333 0.120484
Si Si4 0.575468 0.217580 0.378292
Si Si5 0.824398 0.334908 0.459681
Si Si6 0.500000 0.540553 0.878701
O O1 0.188573 0.088568 0.873636
O O2 0.115861 0.209583 0.880788
O O3 0.063570 0.088048 0.886743
O O4 0.143132 0.138054 0.054925
O O5 0.256788 0.004514 0.750000
O O6 0.311683 0.095391 0.611387
O O7 0.250534 0.000000 0.500000
O O8 0.294586 0.658784 0.250000
O O9 0.234139 0.668192 0.052395
O O10 0.316460 0.763020 0.110976
O O11 0.580387 0.188374 0.250000
O O12 0.500000 0.232371 0.401640
O O13 0.608905 0.169033 0.472049
O O14 0.500000 0.506500 0.750000
O O15 0.500000 0.500000 0.000000
#
# Coordination Sequence:
#
# PCOD9469200 Si02
#       6
#    16  16  16  16  16   8
#     4  10  21  35  54  79 111 149 191 232 279 331
#     4  11  23  38  57  81 111 150 192 234 279 330
#     4   9  17  31  53  79 108 140 179 235 290 339
#     4  10  18  31  56  85 113 145 182 228 278 337
#     4   9  19  32  52  80 109 141 180 229 286 341
#     4  12  24  38  54  74 110 158 203 240 273 320
#
# _framework density 19.076820000000001
#
# number of rings (size 3 to 8) (size 9 to 14) (size 15 to 20)
#    0.000    2.000    0.909    4.364    0.000    4.364 
#    0.000    0.000    0.000    2.182    0.000    0.000 
#    0.000    0.000    0.000    0.000    0.000    0.000 
#
# Total GULP energy -245177.346431 kJ/mol
# GULP energy per Si atom -5572.212419 kJ/mol
# Density = 1.903340 g / cm^3
# Si number density = 19.076820 Si / 1000 Ang^3
#
#
#
# Elastic Constant Matrix: (Units=GPa)
#
#
# Indices 1 2 3 4 5 6 
#
# 1 35.2210 23.4267 24.8891 0.0000 0.0000 0.0000
# 2 23.4267 47.2824 32.1365 0.0000 0.0000 0.0000
# 3 24.8891 32.1365 160.0011 0.0000 0.0000 0.0000
# 4 0.0000 0.0000 0.0000 10.4575 0.0000 0.0000
# 5 0.0000 0.0000 0.0000 0.0000 17.9321 0.0000
# 6 0.0000 0.0000 0.0000 0.0000 0.0000 14.8793
#
#
#
# Elastic Compliance Matrix: (Units=1/GPa)
#
#
# Indices 1 2 3 4 5 6 
#
# 1 0.043418 -0.019597 -0.002818 0.000000 0.000000 0.000000
# 2 -0.019597 0.033338 -0.003648 0.000000 0.000000 0.000000
# 3 -0.002818 -0.003648 0.007421 0.000000 0.000000 0.000000
# 4 0.000000 0.000000 0.000000 0.095625 0.000000 0.000000
# 5 0.000000 0.000000 0.000000 0.000000 0.055766 0.000000
# 6 0.000000 0.000000 0.000000 0.000000 0.000000 0.067207
#
#
# Mechanical properties :
#
#
# Convention : Reuss Voigt Hill
#
# Bulk Modulus (GPa) = 31.19879 44.82321 38.01100
# Shear Modulus (GPa) = 13.67673 19.45726 16.56700
#
# Velocity S-wave (km/s) = 2.68046 3.19712 2.95012
# Velocity P-wave (km/s) = 5.09604 6.09721 5.61897
#
# Compressibility (1/GPa) = 0.03205252
#
# Stress axis : x y z
#
# Youngs Moduli (GPa) = 23.03195 29.99560 134.75403
#
# Poissons Ratio (x) = 0.58782 0.37972
# Poissons Ratio (y) = 0.45135 0.49154
# Poissons Ratio (z) = 0.06490 0.10941
#
# Static dielectric constant tensor:
#      x y z
#    x 1.610400 0.000000 0.000000 
#    y 0.000000 1.700830 0.000000 
#    z 0.000000 0.000000 1.741140 
# 
# From -- ./inp_files/22574.got.cif
#   From: 2010.05.17/outbox.cif.g08.bks.cpg/sg63_12_cif.got.tgz:22574.got - 2010.06.03 15:47:04.
