data_PCOD9469728
_publ_section_title
;
Structure prediction by ZEFSAII (Michael W. Deem and Ramdas Pophale) SiO2 
 PCOD9469728
Probable space group: C M C M
;
_chemical_formula_sum "Si O2"
_cell_formula_units_Z 104
_cell_length_a 30.190721
_cell_length_b 24.397210
_cell_length_c 7.470732
_cell_angle_alpha 90.000000
_cell_angle_beta 90.000000
_cell_angle_gamma 90.000000
_cell_volume 5502.712290
_symmetry_space_group_name_H-M "C M C M"
_symmetry_group_IT_number 63
_symmetry_cell_setting 'orthorhombic'
loop_
_space_group_symop_operation_xyz
x,y,z
-x,-y,1/2+z
x,-y,-z
-x,y,1/2-z
-x,-y,-z
x,y,1/2-z
-x,y,z
x,-y,1/2+z
1/2+x,1/2+y,z
1/2-x,1/2-y,1/2+z
1/2+x,1/2-y,-z
1/2-x,1/2+y,1/2-z
1/2-x,1/2-y,-z
1/2+x,1/2+y,1/2-z
1/2-x,1/2+y,z
1/2+x,1/2-y,1/2+z
loop_
_atom_site_type_symbol
_atom_site_label
_atom_site_fract_x
_atom_site_fract_y
_atom_site_fract_z
Si Si1 0.371595 0.935250 0.964820
Si Si2 0.550392 0.142934 0.031377
Si Si3 0.500000 0.564506 0.035439
Si Si4 0.589693 0.380362 0.960020
Si Si5 0.274944 0.934832 0.536014
Si Si6 0.821346 0.935010 0.964973
Si Si7 0.050319 0.232252 0.965662
O O1 0.370758 0.929146 0.750000
O O2 0.412579 0.899397 0.031921
O O3 0.323043 0.916236 0.032764
O O4 0.377085 0.000000 0.000000
O O5 0.550321 0.142144 0.250000
O O6 0.500000 0.129808 0.975713
O O7 0.560413 0.205654 0.977333
O O8 0.500000 0.573226 0.250000
O O9 0.545129 0.591784 0.963809
O O10 0.500000 0.500000 0.000000
O O11 0.590426 0.394769 0.750000
O O12 0.635671 0.403320 0.035422
O O13 0.583071 0.315385 0.975587
O O14 0.275125 0.926184 0.750000
O O15 0.227025 0.915658 0.466617
O O16 0.274802 0.000000 0.500000
O O17 0.819896 0.928265 0.750000
O O18 0.826182 0.000000 0.000000
O O19 0.049830 0.232148 0.750000
O O20 0.000000 0.219015 0.026493
#
# Coordination Sequence:
#
# PCOD9469728 Si02
#       7
#    16  16   8  16  16  16  16
#     4   9  16  27  45  67  91 116 139 168 207 250
#     4   8  15  28  45  65  88 113 142 176 209 243
#     4  10  20  30  40  58  84 110 135 166 211 260
#     4  10  19  30  43  60  84 111 138 175 219 256
#     4   8  14  25  41  61  83 110 142 170 201 245
#     4   9  17  28  42  61  85 111 140 174 211 252
#     4   9  17  30  47  63  78 105 148 184 208 244
#
# _framework density 18.899771000000001
#
# number of rings (size 3 to 8) (size 9 to 14) (size 15 to 20)
#    0.000    3.077    0.769    1.385    0.000    1.538 
#    0.000    0.769    0.000    1.846    0.000    0.000 
#    0.000    0.000    0.000    0.000    0.000    0.000 
#
# Total GULP energy -289706.294867 kJ/mol
# GULP energy per Si atom -5571.274901 kJ/mol
# Density = 1.885675 g / cm^3
# Si number density = 18.899771 Si / 1000 Ang^3
#
#
#
# Elastic Constant Matrix: (Units=GPa)
#
#
# Indices 1 2 3 4 5 6 
#
# 1 222.5460 101.4587 9.3212 0.0000 0.0000 0.0000
# 2 101.4587 86.1827 -5.2719 0.0000 0.0000 0.0000
# 3 9.3212 -5.2719 54.1719 0.0000 0.0000 0.0000
# 4 0.0000 0.0000 0.0000 13.2228 0.0000 0.0000
# 5 0.0000 0.0000 0.0000 0.0000 5.3011 0.0000
# 6 0.0000 0.0000 0.0000 0.0000 0.0000 8.6611
#
#
#
# Elastic Compliance Matrix: (Units=1/GPa)
#
#
# Indices 1 2 3 4 5 6 
#
# 1 0.010139 -0.012115 -0.002924 0.000000 0.000000 0.000000
# 2 -0.012115 0.026149 0.004629 0.000000 0.000000 0.000000
# 3 -0.002924 0.004629 0.019413 0.000000 0.000000 0.000000
# 4 0.000000 0.000000 0.000000 0.075627 0.000000 0.000000
# 5 0.000000 0.000000 0.000000 0.000000 0.188641 0.000000
# 6 0.000000 0.000000 0.000000 0.000000 0.000000 0.115458
#
#
# Mechanical properties :
#
#
# Convention : Reuss Voigt Hill
#
# Bulk Modulus (GPa) = 28.66748 63.76852 46.21800
# Shear Modulus (GPa) = 10.68662 22.59650 16.64156
#
# Velocity S-wave (km/s) = 2.38047 3.46149 2.97057
# Velocity P-wave (km/s) = 4.77039 7.05617 6.02271
#
# Compressibility (1/GPa) = 0.03488273
#
# Stress axis : x y z
#
# Youngs Moduli (GPa) = 98.62617 38.24201 51.51095
#
# Poissons Ratio (x) = 0.46332 0.15060
# Poissons Ratio (y) = 1.19489 -0.23847
# Poissons Ratio (z) = 0.28835 -0.17704
#
# Static dielectric constant tensor:
#      x y z
#    x 1.709830 0.000000 0.000000 
#    y 0.000000 1.611140 0.000000 
#    z 0.000000 0.000000 1.715000 
# 
# From -- ./inp_files/14679.got.cif
#   From: 2010.05.17/outbox.cif.g08.bks.cpg/sg63_8_cif.got.tgz:14679.got - 2010.06.03 15:47:04.
