data_PCOD9469449
_publ_section_title
;
Structure prediction by ZEFSAII (Michael W. Deem and Ramdas Pophale) SiO2 
 PCOD9469449
Probable space group: C M C M
;
_chemical_formula_sum "Si O2"
_cell_formula_units_Z 64
_cell_length_a 11.248242
_cell_length_b 26.534414
_cell_length_c 9.969808
_cell_angle_alpha 90.000000
_cell_angle_beta 90.000000
_cell_angle_gamma 90.000000
_cell_volume 2975.643829
_symmetry_space_group_name_H-M "C M C M"
_symmetry_group_IT_number 63
_symmetry_cell_setting 'orthorhombic'
loop_
_space_group_symop_operation_xyz
x,y,z
-x,-y,1/2+z
x,-y,-z
-x,y,1/2-z
-x,-y,-z
x,y,1/2-z
-x,y,z
x,-y,1/2+z
1/2+x,1/2+y,z
1/2-x,1/2-y,1/2+z
1/2+x,1/2-y,-z
1/2-x,1/2+y,1/2-z
1/2-x,1/2-y,-z
1/2+x,1/2+y,1/2-z
1/2-x,1/2+y,z
1/2+x,1/2-y,1/2+z
loop_
_atom_site_type_symbol
_atom_site_label
_atom_site_fract_x
_atom_site_fract_y
_atom_site_fract_z
Si Si1 0.000000 0.622312 0.750000
Si Si2 0.861300 0.954063 0.905253
Si Si3 0.249933 0.624103 0.750000
Si Si4 0.000000 0.196012 0.019118
Si Si5 0.255201 0.653426 0.454466
Si Si6 0.000000 0.872547 0.250000
Si Si7 0.000000 0.685451 0.472233
O O1 0.126412 0.593876 0.750000
O O2 0.000000 0.656476 0.616255
O O3 0.855621 0.968428 0.750000
O O4 0.780872 0.905157 0.927448
O O5 0.000000 0.940419 0.935411
O O6 0.827426 0.000000 0.000000
O O7 0.250073 0.657912 0.616740
O O8 0.377321 0.596595 0.750000
O O9 0.875163 0.181908 0.090053
O O10 0.000000 0.254856 0.990075
O O11 0.000000 0.162732 0.881739
O O12 0.125941 0.670365 0.405638
#
# Coordination Sequence:
#
# PCOD9469449 Si02
#       7
#     4  16   8   8  16   4   8
#     4   8  16  32  44  74 106 146 196 236 258 356
#     4  10  22  41  63  93 121 153 199 251 311 368
#     4   8  16  28  54  74 106 145 189 229 291 322
#     4  10  18  34  53  81 115 159 204 245 289 349
#     4  10  19  36  57  85 119 154 196 253 289 359
#     4   8  16  28  44  74 102 136 202 246 264 340
#     4  10  20  34  55  83 119 161 200 233 303 351
#
# _framework density 21.507950000000001
#
# number of rings (size 3 to 8) (size 9 to 14) (size 15 to 20)
#    0.000    2.500    1.250    0.750    1.750    0.000 
#    4.500    0.625    0.000    0.000    0.000    0.000 
#    0.000    0.000    0.000    0.000    0.000    0.000 
#
# Total GULP energy -178417.311234 kJ/mol
# GULP energy per Si atom -5575.540976 kJ/mol
# Density = 2.145900 g / cm^3
# Si number density = 21.507950 Si / 1000 Ang^3
#
#
#
# Elastic Constant Matrix: (Units=GPa)
#
#
# Indices 1 2 3 4 5 6 
#
# 1 267.6478 75.9836 13.6265 0.0000 0.0000 0.0000
# 2 75.9836 140.0032 18.5667 0.0000 0.0000 0.0000
# 3 13.6265 18.5667 95.5439 0.0000 0.0000 0.0000
# 4 0.0000 0.0000 0.0000 3.4418 0.0000 0.0000
# 5 0.0000 0.0000 0.0000 0.0000 -22.4522 0.0000
# 6 0.0000 0.0000 0.0000 0.0000 0.0000 11.6528
#
#
#
# Elastic Compliance Matrix: (Units=1/GPa)
#
#
# Indices 1 2 3 4 5 6 
#
# 1 0.004419 -0.002376 -0.000169 0.000000 0.000000 0.000000
# 2 -0.002376 0.008609 -0.001334 0.000000 0.000000 0.000000
# 3 -0.000169 -0.001334 0.010750 0.000000 0.000000 0.000000
# 4 0.000000 0.000000 0.000000 0.290545 0.000000 0.000000
# 5 0.000000 0.000000 0.000000 0.000000 -0.044539 0.000000
# 6 0.000000 0.000000 0.000000 0.000000 0.000000 0.085816
#
#
# Mechanical properties :
#
#
# Convention : Reuss Voigt Hill
#
# Bulk Modulus (GPa) = 62.41940 79.94983 71.18462
# Shear Modulus (GPa) = 13.56121 24.86303 19.21212
#
# Velocity S-wave (km/s) = 2.51374 3.40368 2.99198
# Velocity P-wave (km/s) = 6.12452 7.25945 6.71600
#
# Compressibility (1/GPa) = 0.01602066
#
# Stress axis : x y z
#
# Youngs Moduli (GPa) = 226.27406 116.15425 93.02602
#
# Poissons Ratio (x) = 0.27600 0.01568
# Poissons Ratio (y) = 0.53767 0.12411
# Poissons Ratio (z) = 0.03814 0.15496
#
# Static dielectric constant tensor:
#      x y z
#    x 1.884130 0.000000 0.000000 
#    y 0.000000 1.690050 0.000000 
#    z 0.000000 0.000000 1.818210 
# 
# From -- ./inp_files/17457.got.cif
#   From: 2010.05.17/outbox.cif.g08.bks.cpg/sg63_9_cif.got.tgz:17457.got - 2010.06.03 15:47:04.
