data_PCOD9469714
_publ_section_title
;
Structure prediction by ZEFSAII (Michael W. Deem and Ramdas Pophale) SiO2 
 PCOD9469714
Probable space group: C M C M
;
_chemical_formula_sum "Si O2"
_cell_formula_units_Z 96
_cell_length_a 24.309943
_cell_length_b 13.700869
_cell_length_c 18.696216
_cell_angle_alpha 90.000000
_cell_angle_beta 90.000000
_cell_angle_gamma 90.000000
_cell_volume 6227.099014
_symmetry_space_group_name_H-M "C M C M"
_symmetry_group_IT_number 63
_symmetry_cell_setting 'orthorhombic'
loop_
_space_group_symop_operation_xyz
x,y,z
-x,-y,1/2+z
x,-y,-z
-x,y,1/2-z
-x,-y,-z
x,y,1/2-z
-x,y,z
x,-y,1/2+z
1/2+x,1/2+y,z
1/2-x,1/2-y,1/2+z
1/2+x,1/2-y,-z
1/2-x,1/2+y,1/2-z
1/2-x,1/2-y,-z
1/2+x,1/2+y,1/2-z
1/2-x,1/2+y,z
1/2+x,1/2-y,1/2+z
loop_
_atom_site_type_symbol
_atom_site_label
_atom_site_fract_x
_atom_site_fract_y
_atom_site_fract_z
Si Si1 0.939290 0.755369 0.836669
Si Si2 0.325230 0.351678 0.836018
Si Si3 0.274333 0.755260 0.579619
Si Si4 0.663007 0.044069 0.078032
Si Si5 0.938676 0.473589 0.335777
Si Si6 0.218025 0.966526 0.416424
O O1 0.939855 0.760780 0.750000
O O2 0.884667 0.811305 0.860204
O O3 0.934067 0.641097 0.854919
O O4 0.000000 0.789668 0.861364
O O5 0.322640 0.351352 0.750000
O O6 0.275500 0.286583 0.868034
O O7 0.315929 0.459093 0.868056
O O8 0.250000 0.750000 0.500000
O O9 0.317917 0.843363 0.578333
O O10 0.295783 0.646558 0.594766
O O11 0.610987 0.029048 0.127847
O O12 0.717495 0.984143 0.101981
O O13 0.650041 0.000000 0.000000
O O14 0.934925 0.480266 0.250000
O O15 0.000000 0.506873 0.357060
O O16 0.212646 0.000000 0.500000
#
# Coordination Sequence:
#
# PCOD9469714 Si02
#       6
#    16  16  16  16  16  16
#     4   8  15  29  50  75 100 128 163 208 256 290
#     4  10  20  31  51  78 101 126 170 215 245 289
#     4  11  19  34  52  72 102 137 168 195 255 312
#     4  10  19  29  50  73  98 127 167 203 245 296
#     4   9  18  32  49  71 100 132 164 203 252 297
#     4  10  19  33  50  72 101 138 163 199 252 307
#
# _framework density 15.416489
#
# number of rings (size 3 to 8) (size 9 to 14) (size 15 to 20)
#    0.000    2.333    5.000    2.000    0.000    3.667 
#    0.000    0.000    0.000    1.500    0.000    2.333 
#    0.000    0.000    0.000    0.000    0.000    0.000 
#
# Total GULP energy -267343.147142 kJ/mol
# GULP energy per Si atom -5569.648899 kJ/mol
# Density = 1.538140 g / cm^3
# Si number density = 15.416489 Si / 1000 Ang^3
#
#
#
# Elastic Constant Matrix: (Units=GPa)
#
#
# Indices 1 2 3 4 5 6 
#
# 1 120.4569 61.4438 53.8939 0.0000 0.0000 0.0000
# 2 61.4438 118.7270 34.9008 0.0000 0.0000 0.0000
# 3 53.8939 34.9008 49.4994 0.0000 0.0000 0.0000
# 4 0.0000 0.0000 0.0000 23.1482 0.0000 0.0000
# 5 0.0000 0.0000 0.0000 0.0000 20.0170 0.0000
# 6 0.0000 0.0000 0.0000 0.0000 0.0000 27.0241
#
#
#
# Elastic Compliance Matrix: (Units=1/GPa)
#
#
# Indices 1 2 3 4 5 6 
#
# 1 0.017877 -0.004453 -0.016324 0.000000 0.000000 0.000000
# 2 -0.004453 0.011734 -0.003425 0.000000 0.000000 0.000000
# 3 -0.016324 -0.003425 0.040391 0.000000 0.000000 0.000000
# 4 0.000000 0.000000 0.000000 0.043200 0.000000 0.000000
# 5 0.000000 0.000000 0.000000 0.000000 0.049958 0.000000
# 6 0.000000 0.000000 0.000000 0.000000 0.000000 0.037004
#
#
# Mechanical properties :
#
#
# Convention : Reuss Voigt Hill
#
# Bulk Modulus (GPa) = 46.30274 65.46226 55.88250
# Shear Modulus (GPa) = 19.54908 23.26750 21.40829
#
# Velocity S-wave (km/s) = 3.56485 3.88914 3.73052
# Velocity P-wave (km/s) = 6.85886 7.91971 7.40830
#
# Compressibility (1/GPa) = 0.02159699
#
# Stress axis : x y z
#
# Youngs Moduli (GPa) = 55.93843 85.22229 24.75819
#
# Poissons Ratio (x) = 0.37949 0.40416
# Poissons Ratio (y) = 0.24909 0.08480
# Poissons Ratio (z) = 0.91315 0.29189
#
# Static dielectric constant tensor:
#      x y z
#    x 1.513400 0.000000 0.000000 
#    y 0.000000 1.532020 0.000000 
#    z 0.000000 0.000000 1.516830 
# 
# From -- ./inp_files/56702.got.cif
#   From: 2010.05.17/outbox.cif.g08.bks.cpg/sg63_29_cif.got.tgz:56702.got - 2010.06.03 15:47:04.
