data_PCOD9469397
_publ_section_title
;
Structure prediction by ZEFSAII (Michael W. Deem and Ramdas Pophale) SiO2 
 PCOD9469397
Probable space group: C M C M
;
_chemical_formula_sum "Si O2"
_cell_formula_units_Z 56
_cell_length_a 11.597253
_cell_length_b 14.560205
_cell_length_c 12.052032
_cell_angle_alpha 90.000000
_cell_angle_beta 90.000000
_cell_angle_gamma 90.000000
_cell_volume 2035.086613
_symmetry_space_group_name_H-M "C M C M"
_symmetry_group_IT_number 63
_symmetry_cell_setting 'orthorhombic'
loop_
_space_group_symop_operation_xyz
x,y,z
-x,-y,1/2+z
x,-y,-z
-x,y,1/2-z
-x,-y,-z
x,y,1/2-z
-x,y,z
x,-y,1/2+z
1/2+x,1/2+y,z
1/2-x,1/2-y,1/2+z
1/2+x,1/2-y,-z
1/2-x,1/2+y,1/2-z
1/2-x,1/2-y,-z
1/2+x,1/2+y,1/2-z
1/2-x,1/2+y,z
1/2+x,1/2-y,1/2+z
loop_
_atom_site_type_symbol
_atom_site_label
_atom_site_fract_x
_atom_site_fract_y
_atom_site_fract_z
Si Si1 0.746396 0.008878 0.250000
Si Si2 0.500000 0.716970 0.750000
Si Si3 0.748664 0.362168 0.445962
Si Si4 0.500000 0.108550 0.988484
Si Si5 0.500000 0.607943 0.977808
Si Si6 0.000000 0.439146 0.250000
Si Si7 0.754279 0.716846 0.250000
O O1 0.608903 0.004072 0.250000
O O2 0.790924 0.112687 0.250000
O O3 0.771363 0.950876 0.136689
O O4 0.500000 0.648548 0.853302
O O5 0.607580 0.782791 0.750000
O O6 0.627677 0.356968 0.512166
O O7 0.768287 0.280899 0.357447
O O8 0.867197 0.365753 0.517913
O O9 0.500000 0.124962 0.856467
O O10 0.500000 0.000000 0.000000
O O11 0.500000 0.500000 0.000000
#
# Coordination Sequence:
#
# PCOD9469397 Si02
#       7
#     8   4  16   8   8   4   8
#     4   9  16  30  53  76 104 136 166 212 256 292
#     4   8  17  30  50  80  99 130 185 202 236 320
#     4   9  19  32  50  79 101 130 179 203 244 319
#     4  10  18  33  55  75 104 137 165 212 257 291
#     4  10  18  33  55  75 104 137 165 212 257 291
#     4   8  17  30  50  80  99 130 185 202 236 320
#     4   9  16  30  53  76 104 136 166 212 256 292
#
# _framework density 27.517257000000001
#
# number of rings (size 3 to 8) (size 9 to 14) (size 15 to 20)
#    0.000    2.857    0.000    3.000    0.000    0.000 
#    0.000    2.857    0.000   41.143    0.000    0.000 
#    0.000    0.000    0.000    0.000    0.000    0.000 
#
# Total GULP energy -156327.518873 kJ/mol
# GULP energy per Si atom -5583.125674 kJ/mol
# Density = 2.745463 g / cm^3
# Si number density = 27.517257 Si / 1000 Ang^3
#
#
#
# Elastic Constant Matrix: (Units=GPa)
#
#
# Indices 1 2 3 4 5 6 
#
# 1 246.1490 46.4121 50.0780 0.0000 0.0000 0.0000
# 2 46.4121 208.0998 44.6961 0.0000 0.0000 0.0000
# 3 50.0780 44.6961 82.2988 0.0000 0.0000 0.0000
# 4 0.0000 0.0000 0.0000 48.3334 0.0000 0.0000
# 5 0.0000 0.0000 0.0000 0.0000 -1.5027 0.0000
# 6 0.0000 0.0000 0.0000 0.0000 0.0000 8.8483
#
#
#
# Elastic Compliance Matrix: (Units=1/GPa)
#
#
# Indices 1 2 3 4 5 6 
#
# 1 0.004680 -0.000489 -0.002582 0.000000 0.000000 0.000000
# 2 -0.000489 0.005491 -0.002684 0.000000 0.000000 0.000000
# 3 -0.002582 -0.002684 0.015180 0.000000 0.000000 0.000000
# 4 0.000000 0.000000 0.000000 0.020690 0.000000 0.000000
# 5 0.000000 0.000000 0.000000 0.000000 -0.665478 0.000000
# 6 0.000000 0.000000 0.000000 0.000000 0.000000 0.113017
#
#
# Mechanical properties :
#
#
# Convention : Reuss Voigt Hill
#
# Bulk Modulus (GPa) = 72.25680 90.99110 81.62395
# Shear Modulus (GPa) = -10.19793 37.49321 13.64764
#
# Velocity S-wave (km/s) = -1.92719 3.69526 2.22945
# Velocity P-wave (km/s) = 4.62208 7.16556 6.02947
#
# Compressibility (1/GPa) = 0.01383953
#
# Stress axis : x y z
#
# Youngs Moduli (GPa) = 213.66845 182.11366 65.87616
#
# Poissons Ratio (x) = 0.08909 0.17010
# Poissons Ratio (y) = 0.10453 0.17684
# Poissons Ratio (z) = 0.55172 0.48888
#
# Static dielectric constant tensor:
#      x y z
#    x 2.232990 0.000000 0.000000 
#    y 0.000000 2.174840 0.000000 
#    z 0.000000 0.000000 2.247070 
# 
# From -- ./inp_files/41482.got.cif
#   From: 2010.05.17/outbox.cif.g08.bks.cpg/sg63_21_cif.got.tgz:41482.got - 2010.06.03 15:47:04.
