data_PCOD9469799
_publ_section_title
;
Structure prediction by ZEFSAII (Michael W. Deem and Ramdas Pophale) SiO2 
 PCOD9469799
Probable space group: C M C M
;
_chemical_formula_sum "Si O2"
_cell_formula_units_Z 80
_cell_length_a 7.655205
_cell_length_b 20.172988
_cell_length_c 26.154486
_cell_angle_alpha 90.000000
_cell_angle_beta 90.000000
_cell_angle_gamma 90.000000
_cell_volume 4038.994343
_symmetry_space_group_name_H-M "C M C M"
_symmetry_group_IT_number 63
_symmetry_cell_setting 'orthorhombic'
loop_
_space_group_symop_operation_xyz
x,y,z
-x,-y,1/2+z
x,-y,-z
-x,y,1/2-z
-x,-y,-z
x,y,1/2-z
-x,y,z
x,-y,1/2+z
1/2+x,1/2+y,z
1/2-x,1/2-y,1/2+z
1/2+x,1/2-y,-z
1/2-x,1/2+y,1/2-z
1/2-x,1/2-y,-z
1/2+x,1/2+y,1/2-z
1/2-x,1/2+y,z
1/2+x,1/2-y,1/2+z
loop_
_atom_site_type_symbol
_atom_site_label
_atom_site_fract_x
_atom_site_fract_y
_atom_site_fract_z
Si Si1 0.710588 0.767594 0.385878
Si Si2 0.787503 0.021830 0.604261
Si Si3 0.294195 0.133949 0.525629
Si Si4 0.298488 0.374577 0.909562
Si Si5 0.290595 0.379561 0.192379
O O1 0.500000 0.765019 0.390432
O O2 0.773061 0.809684 0.435229
O O3 0.779311 0.692761 0.386488
O O4 0.752429 0.810521 0.336054
O O5 0.731280 0.064567 0.555164
O O6 0.727520 0.062803 0.654042
O O7 0.000000 0.021194 0.603517
O O8 0.721873 0.946566 0.602911
O O9 0.500000 0.144488 0.517287
O O10 0.205788 0.133936 0.470777
O O11 0.500000 0.377345 0.892300
O O12 0.221782 0.382764 0.250000
O O13 0.500000 0.386301 0.194762
#
# Coordination Sequence:
#
# PCOD9469799 Si02
#       5
#    16  16  16  16  16
#     4   9  19  33  48  70  97 124 157 193 231 277
#     4   9  18  32  49  69  94 124 157 193 232 275
#     4  10  19  30  46  69  98 131 162 190 224 272
#     4  10  19  31  47  69  98 128 157 191 231 274
#     4   9  18  34  54  71  88 116 155 195 235 281
#
# _framework density 19.806909000000001
#
# number of rings (size 3 to 8) (size 9 to 14) (size 15 to 20)
#    0.000    2.600    0.000    1.800    0.000    5.200 
#    0.000    1.000    0.000    3.600    0.000    0.000 
#    0.000    0.000    0.000    0.000    0.000    0.000 
#
# Total GULP energy -223219.654728 kJ/mol
# GULP energy per Si atom -5580.491368 kJ/mol
# Density = 1.976183 g / cm^3
# Si number density = 19.806909 Si / 1000 Ang^3
#
#
#
# Elastic Constant Matrix: (Units=GPa)
#
#
# Indices 1 2 3 4 5 6 
#
# 1 39.8901 -0.0484 -8.4650 0.0000 0.0000 0.0000
# 2 -0.0484 88.4990 -1.0663 0.0000 0.0000 0.0000
# 3 -8.4650 -1.0663 66.0908 0.0000 0.0000 0.0000
# 4 0.0000 0.0000 0.0000 3.9019 0.0000 0.0000
# 5 0.0000 0.0000 0.0000 0.0000 15.3210 0.0000
# 6 0.0000 0.0000 0.0000 0.0000 0.0000 17.5639
#
#
#
# Elastic Compliance Matrix: (Units=1/GPa)
#
#
# Indices 1 2 3 4 5 6 
#
# 1 0.025770 0.000054 0.003301 0.000000 0.000000 0.000000
# 2 0.000054 0.011302 0.000189 0.000000 0.000000 0.000000
# 3 0.003301 0.000189 0.015557 0.000000 0.000000 0.000000
# 4 0.000000 0.000000 0.000000 0.256284 0.000000 0.000000
# 5 0.000000 0.000000 0.000000 0.000000 0.065270 0.000000
# 6 0.000000 0.000000 0.000000 0.000000 0.000000 0.056935
#
#
# Mechanical properties :
#
#
# Convention : Reuss Voigt Hill
#
# Bulk Modulus (GPa) = 16.74561 19.48008 18.11284
# Shear Modulus (GPa) = 11.26296 20.96134 16.11215
#
# Velocity S-wave (km/s) = 2.38720 3.25666 2.85522
# Velocity P-wave (km/s) = 4.00888 4.89872 4.47596
#
# Compressibility (1/GPa) = 0.05971715
#
# Stress axis : x y z
#
# Youngs Moduli (GPa) = 38.80550 88.48096 64.28134
#
# Poissons Ratio (x) = -0.00477 -0.21222
# Poissons Ratio (y) = -0.00209 -0.01216
# Poissons Ratio (z) = -0.12812 -0.01674
#
# Static dielectric constant tensor:
#      x y z
#    x 1.755050 0.000000 0.000000 
#    y 0.000000 1.726340 0.000000 
#    z 0.000000 0.000000 1.658620 
# 
# From -- ./inp_files/66549.got.cif
#   From: 2010.05.17/outbox.cif.g08.bks.cpg/sg63_34_cif.got.tgz:66549.got - 2010.06.03 15:47:04.
