data_PCOD9469875
_publ_section_title
;
Structure prediction by ZEFSAII (Michael W. Deem and Ramdas Pophale) SiO2 
 PCOD9469875
Probable space group: C M C M
;
_chemical_formula_sum "Si O2"
_cell_formula_units_Z 96
_cell_length_a 25.227967
_cell_length_b 9.251070
_cell_length_c 21.957645
_cell_angle_alpha 90.000000
_cell_angle_beta 90.000000
_cell_angle_gamma 90.000000
_cell_volume 5124.600100
_symmetry_space_group_name_H-M "C M C M"
_symmetry_group_IT_number 63
_symmetry_cell_setting 'orthorhombic'
loop_
_space_group_symop_operation_xyz
x,y,z
-x,-y,1/2+z
x,-y,-z
-x,y,1/2-z
-x,-y,-z
x,y,1/2-z
-x,y,z
x,-y,1/2+z
1/2+x,1/2+y,z
1/2-x,1/2-y,1/2+z
1/2+x,1/2-y,-z
1/2-x,1/2+y,1/2-z
1/2-x,1/2-y,-z
1/2+x,1/2+y,1/2-z
1/2-x,1/2+y,z
1/2+x,1/2-y,1/2+z
loop_
_atom_site_type_symbol
_atom_site_label
_atom_site_fract_x
_atom_site_fract_y
_atom_site_fract_z
Si Si1 0.254204 0.663153 0.680706
Si Si2 0.063124 0.107984 0.682826
Si Si3 0.775937 0.103619 0.400775
Si Si4 0.859711 0.635309 0.183809
Si Si5 0.378874 0.561261 0.559657
Si Si6 0.839705 0.393350 0.946107
O O1 0.235856 0.666869 0.750000
O O2 0.217320 0.742860 0.631727
O O3 0.263444 0.503643 0.655773
O O4 0.310743 0.748870 0.679240
O O5 0.078128 0.046012 0.750000
O O6 0.087087 0.269826 0.683421
O O7 0.089520 0.041797 0.622703
O O8 0.000000 0.106722 0.678177
O O9 0.724382 0.115610 0.443419
O O10 0.825726 0.034338 0.433430
O O11 0.854962 0.563131 0.250000
O O12 0.856522 0.549698 0.121003
O O13 0.407619 0.500000 0.500000
O O14 0.363117 0.730287 0.550533
O O15 0.855751 0.500000 0.000000
#
# Coordination Sequence:
#
# PCOD9469875 Si02
#       6
#    16  16  16  16  16  16
#     4  10  19  30  49  74 107 141 175 217 264 308
#     4   9  17  33  58  82 102 130 173 224 272 317
#     4  11  19  33  48  73 104 146 183 217 251 310
#     4   8  15  32  50  72 100 130 166 215 261 306
#     4  11  23  36  53  77 110 146 178 220 267 314
#     4  10  21  34  51  73 105 144 180 217 251 307
#
# _framework density 18.733167999999999
#
# number of rings (size 3 to 8) (size 9 to 14) (size 15 to 20)
#    0.000    2.167    5.000    1.000    2.333    3.000 
#    0.000    0.000    0.000    8.000    0.000    0.000 
#    0.000   10.667    0.000    0.000    0.000    0.000 
#
# Total GULP energy -267491.273057 kJ/mol
# GULP energy per Si atom -5572.734855 kJ/mol
# Density = 1.869053 g / cm^3
# Si number density = 18.733168 Si / 1000 Ang^3
#
#
#
# Elastic Constant Matrix: (Units=GPa)
#
#
# Indices 1 2 3 4 5 6 
#
# 1 50.1220 12.2193 36.9998 0.0000 0.0000 0.0000
# 2 12.2193 39.2440 32.9611 0.0000 0.0000 0.0000
# 3 36.9998 32.9611 170.8774 0.0000 0.0000 0.0000
# 4 0.0000 0.0000 0.0000 34.5755 0.0000 0.0000
# 5 0.0000 0.0000 0.0000 0.0000 10.4178 0.0000
# 6 0.0000 0.0000 0.0000 0.0000 0.0000 2.1111
#
#
#
# Elastic Compliance Matrix: (Units=1/GPa)
#
#
# Indices 1 2 3 4 5 6 
#
# 1 0.024198 -0.003740 -0.004518 0.000000 0.000000 0.000000
# 2 -0.003740 0.030986 -0.005167 0.000000 0.000000 0.000000
# 3 -0.004518 -0.005167 0.007827 0.000000 0.000000 0.000000
# 4 0.000000 0.000000 0.000000 0.028922 0.000000 0.000000
# 5 0.000000 0.000000 0.000000 0.000000 0.095989 0.000000
# 6 0.000000 0.000000 0.000000 0.000000 0.000000 0.473677
#
#
# Mechanical properties :
#
#
# Convention : Reuss Voigt Hill
#
# Bulk Modulus (GPa) = 27.65398 47.17821 37.41609
# Shear Modulus (GPa) = 7.13771 21.29178 14.21474
#
# Velocity S-wave (km/s) = 1.95409 3.37498 2.75762
# Velocity P-wave (km/s) = 4.45930 6.35817 5.49143
#
# Compressibility (1/GPa) = 0.03616116
#
# Stress axis : x y z
#
# Youngs Moduli (GPa) = 41.32502 32.27266 127.75940
#
# Poissons Ratio (x) = 0.12069 0.57725
# Poissons Ratio (y) = 0.15454 0.66016
# Poissons Ratio (z) = 0.18672 0.16676
#
# Static dielectric constant tensor:
#      x y z
#    x 1.651890 0.000000 0.000000 
#    y 0.000000 1.647930 0.000000 
#    z 0.000000 0.000000 1.745660 
# 
# From -- ./inp_files/64964.got.cif
#   From: 2010.05.17/outbox.cif.g08.bks.cpg/sg63_33_cif.got.tgz:64964.got - 2010.06.03 15:47:04.
