data_PCOD9469153
_publ_section_title
;
Structure prediction by ZEFSAII (Michael W. Deem and Ramdas Pophale) SiO2 
 PCOD9469153
Probable space group: C M C M
;
_chemical_formula_sum "Si O2"
_cell_formula_units_Z 112
_cell_length_a 23.538669
_cell_length_b 13.498745
_cell_length_c 19.093594
_cell_angle_alpha 90.000000
_cell_angle_beta 90.000000
_cell_angle_gamma 90.000000
_cell_volume 6066.846110
_symmetry_space_group_name_H-M "C M C M"
_symmetry_group_IT_number 63
_symmetry_cell_setting 'orthorhombic'
loop_
_space_group_symop_operation_xyz
x,y,z
-x,-y,1/2+z
x,-y,-z
-x,y,1/2-z
-x,-y,-z
x,y,1/2-z
-x,y,z
x,-y,1/2+z
1/2+x,1/2+y,z
1/2-x,1/2-y,1/2+z
1/2+x,1/2-y,-z
1/2-x,1/2+y,1/2-z
1/2-x,1/2-y,-z
1/2+x,1/2+y,1/2-z
1/2-x,1/2+y,z
1/2+x,1/2-y,1/2+z
loop_
_atom_site_type_symbol
_atom_site_label
_atom_site_fract_x
_atom_site_fract_y
_atom_site_fract_z
Si Si1 0.267338 0.004880 0.418922
Si Si2 0.935187 0.393590 0.664993
Si Si3 0.369734 0.696924 0.330756
Si Si4 0.369548 0.497342 0.918458
Si Si5 0.266609 0.805478 0.829101
Si Si6 0.624688 0.311857 0.167544
Si Si7 0.137070 0.586596 0.665755
O O1 0.199364 0.994450 0.414060
O O2 0.303641 0.927410 0.374343
O O3 0.283383 0.000000 0.500000
O O4 0.281019 0.111253 0.385279
O O5 0.935197 0.393530 0.750000
O O6 0.906185 0.289700 0.644903
O O7 0.901065 0.492361 0.644948
O O8 0.000000 0.397530 0.640695
O O9 0.385299 0.674495 0.250000
O O10 0.385154 0.605970 0.380795
O O11 0.300829 0.709198 0.332012
O O12 0.390685 0.806753 0.350410
O O13 0.391884 0.592724 0.876857
O O14 0.385346 0.500000 0.000000
O O15 0.279949 0.843300 0.750000
O O16 0.308008 0.712819 0.839350
O O17 0.613310 0.328961 0.250000
O O18 0.146168 0.584793 0.750000
#
# Coordination Sequence:
#
# PCOD9469153 Si02
#       7
#    16  16  16  16  16  16  16
#     4  10  19  29  44  71 105 140 172 203 243 297
#     4   9  18  33  56  83 101 119 159 215 266 302
#     4   9  18  30  47  72 101 133 169 204 241 298
#     4  10  21  33  46  71 106 142 174 204 243 296
#     4   9  16  28  46  71  98 129 169 209 245 291
#     4  10  18  31  53  75  99 132 170 212 254 294
#     4  10  18  32  52  73 101 134 167 206 256 305
#
# _framework density 18.460992999999998
#
# number of rings (size 3 to 8) (size 9 to 14) (size 15 to 20)
#    0.000    2.429    1.429    1.714    0.000    4.000 
#    0.000    4.286    0.000    1.714    0.000    4.000 
#    0.000    0.000    0.000    0.000    0.000    0.000 
#
# Total GULP energy -312172.127282 kJ/mol
# GULP energy per Si atom -5574.502273 kJ/mol
# Density = 1.841898 g / cm^3
# Si number density = 18.460993 Si / 1000 Ang^3
#
#
#
# Elastic Constant Matrix: (Units=GPa)
#
#
# Indices 1 2 3 4 5 6 
#
# 1 30.2334 19.6517 8.5843 0.0000 0.0000 0.0000
# 2 19.6517 163.9900 76.1942 0.0000 0.0000 0.0000
# 3 8.5843 76.1942 73.2417 0.0000 0.0000 0.0000
# 4 0.0000 0.0000 0.0000 1.1263 0.0000 0.0000
# 5 0.0000 0.0000 0.0000 0.0000 6.6237 0.0000
# 6 0.0000 0.0000 0.0000 0.0000 0.0000 9.9033
#
#
#
# Elastic Compliance Matrix: (Units=1/GPa)
#
#
# Indices 1 2 3 4 5 6 
#
# 1 0.035880 -0.004540 0.000518 0.000000 0.000000 0.000000
# 2 -0.004540 0.012378 -0.012344 0.000000 0.000000 0.000000
# 3 0.000518 -0.012344 0.026435 0.000000 0.000000 0.000000
# 4 0.000000 0.000000 0.000000 0.887870 0.000000 0.000000
# 5 0.000000 0.000000 0.000000 0.000000 0.150974 0.000000
# 6 0.000000 0.000000 0.000000 0.000000 0.000000 0.100976
#
#
# Mechanical properties :
#
#
# Convention : Reuss Voigt Hill
#
# Bulk Modulus (GPa) = 23.83271 52.92506 38.37888
# Shear Modulus (GPa) = 3.96438 14.39965 9.18201
#
# Velocity S-wave (km/s) = 1.46700 2.79589 2.23261
# Velocity P-wave (km/s) = 3.97583 6.25727 5.24217
#
# Compressibility (1/GPa) = 0.04195914
#
# Stress axis : x y z
#
# Youngs Moduli (GPa) = 27.87052 80.79133 37.82909
#
# Poissons Ratio (x) = 0.36683 -0.01960
# Poissons Ratio (y) = 0.12654 0.46698
# Poissons Ratio (z) = -0.01444 0.99732
#
# Static dielectric constant tensor:
#      x y z
#    x 1.642540 0.000000 0.000000 
#    y 0.000000 1.662700 0.000000 
#    z 0.000000 0.000000 1.613880 
# 
# From -- ./inp_files/58306.got.cif
#   From: 2010.05.17/outbox.cif.g08.bks.cpg/sg63_30_cif.got.tgz:58306.got - 2010.06.03 15:47:04.
