data_PCOD9469403
_publ_section_title
;
Structure prediction by ZEFSAII (Michael W. Deem and Ramdas Pophale) SiO2 
 PCOD9469403
Probable space group: C M C M
;
_chemical_formula_sum "Si O2"
_cell_formula_units_Z 80
_cell_length_a 20.610040
_cell_length_b 10.260067
_cell_length_c 21.053467
_cell_angle_alpha 90.000000
_cell_angle_beta 90.000000
_cell_angle_gamma 90.000000
_cell_volume 4451.974369
_symmetry_space_group_name_H-M "C M C M"
_symmetry_group_IT_number 63
_symmetry_cell_setting 'orthorhombic'
loop_
_space_group_symop_operation_xyz
x,y,z
-x,-y,1/2+z
x,-y,-z
-x,y,1/2-z
-x,-y,-z
x,y,1/2-z
-x,y,z
x,-y,1/2+z
1/2+x,1/2+y,z
1/2-x,1/2-y,1/2+z
1/2+x,1/2-y,-z
1/2-x,1/2+y,1/2-z
1/2-x,1/2-y,-z
1/2+x,1/2+y,1/2-z
1/2-x,1/2+y,z
1/2+x,1/2-y,1/2+z
loop_
_atom_site_type_symbol
_atom_site_label
_atom_site_fract_x
_atom_site_fract_y
_atom_site_fract_z
Si Si1 0.000000 0.054000 0.071496
Si Si2 0.772451 0.826267 0.250000
Si Si3 0.766270 0.373172 0.956812
Si Si4 0.000000 0.182776 0.825456
Si Si5 0.362279 0.735763 0.870471
Si Si6 0.674913 0.599838 0.250000
Si Si7 0.634348 0.440249 0.888986
O O1 0.069696 0.122071 0.081367
O O2 0.000000 0.944711 0.128349
O O3 0.000000 0.000000 0.000000
O O4 0.813568 0.786201 0.188256
O O5 0.707334 0.741729 0.250000
O O6 0.770463 0.984128 0.250000
O O7 0.829957 0.341646 0.915693
O O8 0.703229 0.388757 0.912297
O O9 0.773801 0.500000 0.000000
O O10 0.750000 0.250000 0.000000
O O11 0.065816 0.258415 0.843641
O O12 0.000000 0.152053 0.750000
O O13 0.365429 0.594679 0.905293
O O14 0.633518 0.575767 0.186892
#
# Coordination Sequence:
#
# PCOD9469403 Si02
#       7
#     8   8  16   8  16   8  16
#     4  10  22  34  54  82 123 154 192 242 301 344
#     4  10  18  33  55  85 111 139 180 238 300 332
#     4  12  23  37  57  85 121 158 198 234 291 359
#     4  10  20  36  61  88 116 154 205 254 299 356
#     4  10  20  36  58  85 116 146 192 248 293 342
#     4  10  20  33  57  87 113 141 192 242 298 348
#     4  10  21  36  57  85 115 149 193 245 296 347
#
# _framework density 17.969555
#
# number of rings (size 3 to 8) (size 9 to 14) (size 15 to 20)
#    0.000    1.600    5.000    0.600    7.000    0.000 
#    0.000    0.500    0.000    0.000    0.000    1.400 
#    0.000    0.000    0.000    0.000    0.000    0.000 
#
# Total GULP energy -222988.754402 kJ/mol
# GULP energy per Si atom -5574.718860 kJ/mol
# Density = 1.792866 g / cm^3
# Si number density = 17.969555 Si / 1000 Ang^3
#
#
#
# Elastic Constant Matrix: (Units=GPa)
#
#
# Indices 1 2 3 4 5 6 
#
# 1 100.6468 10.1984 27.5518 0.0000 0.0000 0.0000
# 2 10.1984 49.6931 18.0918 0.0000 0.0000 0.0000
# 3 27.5518 18.0918 89.7583 0.0000 0.0000 0.0000
# 4 0.0000 0.0000 0.0000 19.7678 0.0000 0.0000
# 5 0.0000 0.0000 0.0000 0.0000 23.7742 0.0000
# 6 0.0000 0.0000 0.0000 0.0000 0.0000 16.7977
#
#
#
# Elastic Compliance Matrix: (Units=1/GPa)
#
#
# Indices 1 2 3 4 5 6 
#
# 1 0.010903 -0.001100 -0.003125 0.000000 0.000000 0.000000
# 2 -0.001100 0.021828 -0.004062 0.000000 0.000000 0.000000
# 3 -0.003125 -0.004062 0.012919 0.000000 0.000000 0.000000
# 4 0.000000 0.000000 0.000000 0.050587 0.000000 0.000000
# 5 0.000000 0.000000 0.000000 0.000000 0.042062 0.000000
# 6 0.000000 0.000000 0.000000 0.000000 0.000000 0.059532
#
#
# Mechanical properties :
#
#
# Convention : Reuss Voigt Hill
#
# Bulk Modulus (GPa) = 34.39263 39.08694 36.73978
# Shear Modulus (GPa) = 22.31174 24.35168 23.33171
#
# Velocity S-wave (km/s) = 3.52752 3.68525 3.60724
# Velocity P-wave (km/s) = 5.98098 6.31720 6.15139
#
# Compressibility (1/GPa) = 0.02907600
#
# Stress axis : x y z
#
# Youngs Moduli (GPa) = 91.72107 45.81247 77.40531
#
# Poissons Ratio (x) = 0.05039 0.24189
# Poissons Ratio (y) = 0.10088 0.31443
# Poissons Ratio (z) = 0.28662 0.18610
#
# Static dielectric constant tensor:
#      x y z
#    x 1.658770 0.000000 0.000000 
#    y 0.000000 1.618530 0.000000 
#    z 0.000000 0.000000 1.641930 
# 
# From -- ./inp_files/46882.got.cif
#   From: 2010.05.17/outbox.cif.g08.bks.cpg/sg63_24_cif.got.tgz:46882.got - 2010.06.03 15:47:04.
