data_PCOD9469069
_publ_section_title
;
Structure prediction by ZEFSAII (Michael W. Deem and Ramdas Pophale) SiO2 
 PCOD9469069
Probable space group: C M C M
;
_chemical_formula_sum "Si O2"
_cell_formula_units_Z 72
_cell_length_a 21.857039
_cell_length_b 7.128327
_cell_length_c 17.080216
_cell_angle_alpha 90.000000
_cell_angle_beta 90.000000
_cell_angle_gamma 90.000000
_cell_volume 2661.168045
_symmetry_space_group_name_H-M "C M C M"
_symmetry_group_IT_number 63
_symmetry_cell_setting 'orthorhombic'
loop_
_space_group_symop_operation_xyz
x,y,z
-x,-y,1/2+z
x,-y,-z
-x,y,1/2-z
-x,-y,-z
x,y,1/2-z
-x,y,z
x,-y,1/2+z
1/2+x,1/2+y,z
1/2-x,1/2-y,1/2+z
1/2+x,1/2-y,-z
1/2-x,1/2+y,1/2-z
1/2-x,1/2-y,-z
1/2+x,1/2+y,1/2-z
1/2-x,1/2+y,z
1/2+x,1/2-y,1/2+z
loop_
_atom_site_type_symbol
_atom_site_label
_atom_site_fract_x
_atom_site_fract_y
_atom_site_fract_z
Si Si1 0.500000 0.192768 0.108948
Si Si2 0.742338 0.165132 0.660643
Si Si3 0.308308 0.000000 0.500000
Si Si4 0.500000 0.259086 0.570262
Si Si5 0.629352 0.161599 0.130405
Si Si6 0.617124 0.716602 0.336978
O O1 0.563665 0.244338 0.148781
O O2 0.500000 0.964319 0.095262
O O3 0.500000 0.273662 0.022131
O O4 0.731673 0.090076 0.750000
O O5 0.730478 0.071174 0.574175
O O6 0.810753 0.243269 0.662949
O O7 0.689132 0.330320 0.654313
O O8 0.354770 0.848117 0.537377
O O9 0.563134 0.338514 0.605201
O O10 0.623936 0.944324 0.156007
O O11 0.597501 0.666806 0.250000
#
# Coordination Sequence:
#
# PCOD9469069 Si02
#       6
#     8  16   8   8  16  16
#     4   9  16  26  44  67  94 125 156 199 249 296
#     4  10  20  33  50  74 103 135 172 212 254 302
#     4  10  20  33  52  75 104 136 168 208 256 305
#     4   9  15  26  42  66  97 125 154 191 245 309
#     4  10  18  31  49  73 101 130 167 205 249 304
#     4   9  17  28  45  70  99 129 159 199 248 296
#
# _framework density 27.055789000000001
#
# number of rings (size 3 to 8) (size 9 to 14) (size 15 to 20)
#    0.000    2.444    0.000    5.667    0.000    0.889 
#    0.000    1.667    0.000    0.667    0.000    6.222 
#    0.000   14.222    0.000    0.000    0.000    0.000 
#
# Total GULP energy -200908.374066 kJ/mol
# GULP energy per Si atom -5580.788169 kJ/mol
# Density = 2.699421 g / cm^3
# Si number density = 27.055789 Si / 1000 Ang^3
#
#
#
# Elastic Constant Matrix: (Units=GPa)
#
#
# Indices 1 2 3 4 5 6 
#
# 1 263.2822 5.2021 74.3850 0.0000 0.0000 0.0000
# 2 5.2021 81.7919 11.9911 0.0000 0.0000 0.0000
# 3 74.3850 11.9911 163.4639 0.0000 0.0000 0.0000
# 4 0.0000 0.0000 0.0000 26.9929 0.0000 0.0000
# 5 0.0000 0.0000 0.0000 0.0000 21.3738 0.0000
# 6 0.0000 0.0000 0.0000 0.0000 0.0000 16.3553
#
#
#
# Elastic Compliance Matrix: (Units=1/GPa)
#
#
# Indices 1 2 3 4 5 6 
#
# 1 0.004359 0.000014 -0.001984 0.000000 0.000000 0.000000
# 2 0.000014 0.012359 -0.000913 0.000000 0.000000 0.000000
# 3 -0.001984 -0.000913 0.007088 0.000000 0.000000 0.000000
# 4 0.000000 0.000000 0.000000 0.037047 0.000000 0.000000
# 5 0.000000 0.000000 0.000000 0.000000 0.046786 0.000000
# 6 0.000000 0.000000 0.000000 0.000000 0.000000 0.061142
#
#
# Mechanical properties :
#
#
# Convention : Reuss Voigt Hill
#
# Bulk Modulus (GPa) = 55.43811 76.85493 66.14652
# Shear Modulus (GPa) = 27.69157 40.74172 34.21664
#
# Velocity S-wave (km/s) = 3.20269 3.88473 3.56008
# Velocity P-wave (km/s) = 5.84902 6.97060 6.43429
#
# Compressibility (1/GPa) = 0.01803813
#
# Stress axis : x y z
#
# Youngs Moduli (GPa) = 229.43217 80.91200 141.09281
#
# Poissons Ratio (x) = -0.00111 0.27998
# Poissons Ratio (y) = -0.00315 0.12880
# Poissons Ratio (z) = 0.45529 0.07386
#
# Static dielectric constant tensor:
#      x y z
#    x 2.227290 0.000000 0.000000 
#    y 0.000000 2.416900 0.000000 
#    z 0.000000 0.000000 1.995600 
# 
# From -- ./inp_files/46787.got.cif
#   From: 2010.05.17/outbox.cif.g08.bks.cpg/sg63_24_cif.got.tgz:46787.got - 2010.06.03 15:47:04.
