data_PCOD9469841
_publ_section_title
;
Structure prediction by ZEFSAII (Michael W. Deem and Ramdas Pophale) SiO2 
 PCOD9469841
Probable space group: C M C M
;
_chemical_formula_sum "Si O2"
_cell_formula_units_Z 80
_cell_length_a 9.464629
_cell_length_b 26.981170
_cell_length_c 15.559918
_cell_angle_alpha 90.000000
_cell_angle_beta 90.000000
_cell_angle_gamma 90.000000
_cell_volume 3973.485908
_symmetry_space_group_name_H-M "C M C M"
_symmetry_group_IT_number 63
_symmetry_cell_setting 'orthorhombic'
loop_
_space_group_symop_operation_xyz
x,y,z
-x,-y,1/2+z
x,-y,-z
-x,y,1/2-z
-x,-y,-z
x,y,1/2-z
-x,y,z
x,-y,1/2+z
1/2+x,1/2+y,z
1/2-x,1/2-y,1/2+z
1/2+x,1/2-y,-z
1/2-x,1/2+y,1/2-z
1/2-x,1/2-y,-z
1/2+x,1/2+y,1/2-z
1/2-x,1/2+y,z
1/2+x,1/2-y,1/2+z
loop_
_atom_site_type_symbol
_atom_site_label
_atom_site_fract_x
_atom_site_fract_y
_atom_site_fract_z
Si Si1 0.662184 0.503362 0.394667
Si Si2 0.328332 0.795504 0.650206
Si Si3 0.159830 0.408876 0.389324
Si Si4 0.839050 0.811635 0.146819
Si Si5 0.839388 0.597237 0.405793
O O1 0.661740 0.500000 0.500000
O O2 0.500000 0.502061 0.366837
O O3 0.749224 0.456191 0.361167
O O4 0.739708 0.554314 0.369943
O O5 0.286800 0.799389 0.750000
O O6 0.500000 0.793526 0.646573
O O7 0.282905 0.741841 0.614627
O O8 0.284782 0.846769 0.606669
O O9 0.239498 0.357856 0.370300
O O10 0.151171 0.412017 0.492605
O O11 0.000000 0.409455 0.355610
O O12 0.848352 0.806013 0.250000
O O13 0.000000 0.820575 0.115122
O O14 0.000000 0.594129 0.370342
#
# Coordination Sequence:
#
# PCOD9469841 Si02
#       5
#    16  16  16  16  16
#     4   9  17  30  48  69  94 126 161 195 235 282
#     4   8  15  30  51  71  93 125 160 191 230 281
#     4  10  19  30  47  72  99 125 155 195 241 285
#     4   9  18  33  51  69  92 125 162 196 231 277
#     4   9  17  30  49  73  98 123 156 198 239 281
#
# _framework density 20.133455999999999
#
# number of rings (size 3 to 8) (size 9 to 14) (size 15 to 20)
#    0.000    3.000    0.000    2.400    0.000    4.400 
#    0.000    2.000    0.000    5.400    0.000    0.000 
#    0.000    0.000    0.000    0.000    0.000    0.000 
#
# Total GULP energy -222971.199397 kJ/mol
# GULP energy per Si atom -5574.279985 kJ/mol
# Density = 2.008763 g / cm^3
# Si number density = 20.133456 Si / 1000 Ang^3
#
#
#
# Elastic Constant Matrix: (Units=GPa)
#
#
# Indices 1 2 3 4 5 6 
#
# 1 129.0365 112.1067 6.3201 0.0000 0.0000 0.0000
# 2 112.1067 221.7499 3.9013 0.0000 0.0000 0.0000
# 3 6.3201 3.9013 17.8280 0.0000 0.0000 0.0000
# 4 0.0000 0.0000 0.0000 42.1948 0.0000 0.0000
# 5 0.0000 0.0000 0.0000 0.0000 -5.6013 0.0000
# 6 0.0000 0.0000 0.0000 0.0000 0.0000 35.5934
#
#
#
# Elastic Compliance Matrix: (Units=1/GPa)
#
#
# Indices 1 2 3 4 5 6 
#
# 1 0.014026 -0.007031 -0.003434 0.000000 0.000000 0.000000
# 2 -0.007031 0.008051 0.000731 0.000000 0.000000 0.000000
# 3 -0.003434 0.000731 0.057149 0.000000 0.000000 0.000000
# 4 0.000000 0.000000 0.000000 0.023700 0.000000 0.000000
# 5 0.000000 0.000000 0.000000 0.000000 -0.178529 0.000000
# 6 0.000000 0.000000 0.000000 0.000000 0.000000 0.028095
#
#
# Mechanical properties :
#
#
# Convention : Reuss Voigt Hill
#
# Bulk Modulus (GPa) = 16.73401 68.14116 42.43759
# Shear Modulus (GPa) = -615.66974 30.85646 -292.40664
#
# Velocity S-wave (km/s) = -17.50595 3.91909 -12.06439
# Velocity P-wave (km/s) = 20.00703 7.37545 13.15074
#
# Compressibility (1/GPa) = 0.05975854
#
# Stress axis : x y z
#
# Youngs Moduli (GPa) = 71.29607 124.20760 17.49812
#
# Poissons Ratio (x) = 0.87324 0.06008
# Poissons Ratio (y) = 0.50125 -0.01278
# Poissons Ratio (z) = 0.24481 -0.09074
#
# Static dielectric constant tensor:
#      x y z
#    x 1.703250 0.000000 0.000000 
#    y 0.000000 1.725560 0.000000 
#    z 0.000000 0.000000 1.743970 
# 
# From -- ./inp_files/40428.got.cif
#   From: 2010.05.17/outbox.cif.g08.bks.cpg/sg63_21_cif.got.tgz:40428.got - 2010.06.03 15:47:04.
