data_PCOD9469963
_publ_section_title
;
Structure prediction by ZEFSAII (Michael W. Deem and Ramdas Pophale) SiO2 
 PCOD9469963
Probable space group: C M C M
;
_chemical_formula_sum "Si O2"
_cell_formula_units_Z 80
_cell_length_a 33.670362
_cell_length_b 14.857975
_cell_length_c 9.147572
_cell_angle_alpha 90.000000
_cell_angle_beta 90.000000
_cell_angle_gamma 90.000000
_cell_volume 4576.286917
_symmetry_space_group_name_H-M "C M C M"
_symmetry_group_IT_number 63
_symmetry_cell_setting 'orthorhombic'
loop_
_space_group_symop_operation_xyz
x,y,z
-x,-y,1/2+z
x,-y,-z
-x,y,1/2-z
-x,-y,-z
x,y,1/2-z
-x,y,z
x,-y,1/2+z
1/2+x,1/2+y,z
1/2-x,1/2-y,1/2+z
1/2+x,1/2-y,-z
1/2-x,1/2+y,1/2-z
1/2-x,1/2-y,-z
1/2+x,1/2+y,1/2-z
1/2-x,1/2+y,z
1/2+x,1/2-y,1/2+z
loop_
_atom_site_type_symbol
_atom_site_label
_atom_site_fract_x
_atom_site_fract_y
_atom_site_fract_z
Si Si1 0.277593 0.371369 0.584306
Si Si2 0.621471 0.790317 0.925695
Si Si3 0.544800 0.096309 0.074491
Si Si4 0.700950 0.841219 0.416013
Si Si5 0.641914 0.587590 0.576402
O O1 0.280424 0.406612 0.750000
O O2 0.285029 0.263469 0.592446
O O3 0.234850 0.387837 0.512692
O O4 0.313021 0.404846 0.482104
O O5 0.627444 0.797848 0.750000
O O6 0.579833 0.835615 0.965851
O O7 0.622545 0.683937 0.961360
O O8 0.658177 0.838146 0.006958
O O9 0.546134 0.085342 0.250000
O O10 0.500000 0.126753 0.035767
O O11 0.551408 0.000000 0.000000
O O12 0.699006 0.875833 0.250000
O O13 0.623650 0.500000 0.500000
O O14 0.641400 0.576931 0.750000
#
# Coordination Sequence:
#
# PCOD9469963 Si02
#       5
#    16  16  16  16  16
#     4   9  16  27  43  63  90 125 164 205 246 285
#     4   9  18  32  50  72  99 131 164 200 245 296
#     4   9  18  34  56  80 103 126 154 191 239 296
#     4   9  16  26  43  67  93 123 161 204 246 285
#     4  10  19  31  47  68  96 131 171 210 245 285
#
# _framework density 17.481421000000001
#
# number of rings (size 3 to 8) (size 9 to 14) (size 15 to 20)
#    0.000    2.800    0.000    1.800    0.000    6.400 
#    0.000    1.000    0.000    3.000    0.000    0.000 
#    0.000    0.000    0.000    0.000    0.000    0.600 
#
# Total GULP energy -223022.475006 kJ/mol
# GULP energy per Si atom -5575.561875 kJ/mol
# Density = 1.744163 g / cm^3
# Si number density = 17.481421 Si / 1000 Ang^3
#
#
#
# Elastic Constant Matrix: (Units=GPa)
#
#
# Indices 1 2 3 4 5 6 
#
# 1 145.7466 67.7188 50.9459 0.0000 0.0000 0.0000
# 2 67.7188 66.7176 30.3685 0.0000 0.0000 0.0000
# 3 50.9459 30.3685 59.3013 0.0000 0.0000 0.0000
# 4 0.0000 0.0000 0.0000 22.4113 0.0000 0.0000
# 5 0.0000 0.0000 0.0000 0.0000 19.0895 0.0000
# 6 0.0000 0.0000 0.0000 0.0000 0.0000 11.3360
#
#
#
# Elastic Compliance Matrix: (Units=1/GPa)
#
#
# Indices 1 2 3 4 5 6 
#
# 1 0.014682 -0.011946 -0.006496 0.000000 0.000000 0.000000
# 2 -0.011946 0.029264 -0.004723 0.000000 0.000000 0.000000
# 3 -0.006496 -0.004723 0.024863 0.000000 0.000000 0.000000
# 4 0.000000 0.000000 0.000000 0.044620 0.000000 0.000000
# 5 0.000000 0.000000 0.000000 0.000000 0.052385 0.000000
# 6 0.000000 0.000000 0.000000 0.000000 0.000000 0.088214
#
#
# Mechanical properties :
#
#
# Convention : Reuss Voigt Hill
#
# Bulk Modulus (GPa) = 44.48779 63.31468 53.90123
# Shear Modulus (GPa) = 16.24158 18.74951 17.49554
#
# Velocity S-wave (km/s) = 3.05138 3.27852 3.16699
# Velocity P-wave (km/s) = 6.15779 7.11537 6.65383
#
# Compressibility (1/GPa) = 0.02247808
#
# Stress axis : x y z
#
# Youngs Moduli (GPa) = 68.10867 34.17207 40.22069
#
# Poissons Ratio (x) = 0.40821 0.26128
# Poissons Ratio (y) = 0.81361 0.18998
# Poissons Ratio (z) = 0.44245 0.16141
#
# Static dielectric constant tensor:
#      x y z
#    x 1.568680 0.000000 0.000000 
#    y 0.000000 1.633880 0.000000 
#    z 0.000000 0.000000 1.596420 
# 
# From -- ./inp_files/12061.got.cif
#   From: 2010.05.17/outbox.cif.g08.bks.cpg/sg63_7_cif.got.tgz:12061.got - 2010.06.03 15:47:04.
