data_PCOD9469829
_publ_section_title
;
Structure prediction by ZEFSAII (Michael W. Deem and Ramdas Pophale) SiO2 
 PCOD9469829
Probable space group: C M C M
;
_chemical_formula_sum "Si O2"
_cell_formula_units_Z 96
_cell_length_a 7.267184
_cell_length_b 22.377505
_cell_length_c 24.154957
_cell_angle_alpha 90.000000
_cell_angle_beta 90.000000
_cell_angle_gamma 90.000000
_cell_volume 3928.114043
_symmetry_space_group_name_H-M "C M C M"
_symmetry_group_IT_number 63
_symmetry_cell_setting 'orthorhombic'
loop_
_space_group_symop_operation_xyz
x,y,z
-x,-y,1/2+z
x,-y,-z
-x,y,1/2-z
-x,-y,-z
x,y,1/2-z
-x,y,z
x,-y,1/2+z
1/2+x,1/2+y,z
1/2-x,1/2-y,1/2+z
1/2+x,1/2-y,-z
1/2-x,1/2+y,1/2-z
1/2-x,1/2-y,-z
1/2+x,1/2+y,1/2-z
1/2-x,1/2+y,z
1/2+x,1/2-y,1/2+z
loop_
_atom_site_type_symbol
_atom_site_label
_atom_site_fract_x
_atom_site_fract_y
_atom_site_fract_z
Si Si1 0.276724 0.959855 0.082476
Si Si2 0.776630 0.607871 0.812696
Si Si3 0.219385 0.157534 0.187418
Si Si4 0.222255 0.339002 0.016198
Si Si5 0.718235 0.090805 0.082491
Si Si6 0.776136 0.727525 0.620527
O O1 0.500000 0.961688 0.080333
O O2 0.220991 0.944116 0.145159
O O3 0.229326 0.901953 0.046395
O O4 0.211170 0.025439 0.065850
O O5 0.711702 0.603082 0.750000
O O6 0.726016 0.670219 0.841953
O O7 0.000000 0.607475 0.811324
O O8 0.289615 0.153233 0.250000
O O9 0.253465 0.101984 0.147195
O O10 0.290777 0.214344 0.152735
O O11 0.000000 0.165021 0.191324
O O12 0.287581 0.286861 0.057623
O O13 0.000000 0.333114 0.015627
O O14 0.289091 0.353366 0.954213
O O15 0.500000 0.089599 0.072515
O O16 0.000000 0.729565 0.618991
#
# Coordination Sequence:
#
# PCOD9469829 Si02
#       6
#    16  16  16  16  16  16
#     4   8  14  24  40  65  96 124 147 178 225 275
#     4   8  12  19  35  60  86 111 145 191 232 260
#     4  10  21  35  48  63  88 124 160 190 223 266
#     4   8  14  26  46  71  94 116 147 189 233 271
#     4  10  19  30  47  71  97 123 149 181 225 277
#     4   8  14  26  44  64  86 114 150 191 231 267
#
# _framework density 24.439209000000002
#
# number of rings (size 3 to 8) (size 9 to 14) (size 15 to 20)
#    0.000    3.333    0.000    3.000    0.000    5.667 
#    0.000    1.667    0.000    2.000    0.000    3.500 
#    0.000    1.333    0.000    0.000    0.000    0.000 
#
# Total GULP energy -268009.428836 kJ/mol
# GULP energy per Si atom -5583.529767 kJ/mol
# Density = 2.438358 g / cm^3
# Si number density = 24.439209 Si / 1000 Ang^3
#
#
#
# Elastic Constant Matrix: (Units=GPa)
#
#
# Indices 1 2 3 4 5 6 
#
# 1 109.7488 -5.3712 -6.8272 0.0000 0.0000 0.0000
# 2 -5.3712 74.5293 9.0151 0.0000 0.0000 0.0000
# 3 -6.8272 9.0151 138.6850 0.0000 0.0000 0.0000
# 4 0.0000 0.0000 0.0000 27.4556 0.0000 0.0000
# 5 0.0000 0.0000 0.0000 0.0000 -3.8511 0.0000
# 6 0.0000 0.0000 0.0000 0.0000 0.0000-1233.2391
#
#
#
# Elastic Compliance Matrix: (Units=1/GPa)
#
#
# Indices 1 2 3 4 5 6 
#
# 1 0.009167 0.000611 0.000412 0.000000 0.000000 0.000000
# 2 0.000611 0.013565 -0.000852 0.000000 0.000000 0.000000
# 3 0.000412 -0.000852 0.007286 0.000000 0.000000 0.000000
# 4 0.000000 0.000000 0.000000 0.036422 0.000000 0.000000
# 5 0.000000 0.000000 0.000000 0.000000 -0.259668 0.000000
# 6 0.000000 0.000000 0.000000 0.000000 0.000000 -0.000811
#
#
# Mechanical properties :
#
#
# Convention : Reuss Voigt Hill
#
# Bulk Modulus (GPa) = 32.93854 35.17737 34.05795
# Shear Modulus (GPa) = -27.13561 -220.18381 -123.65971
#
# Velocity S-wave (km/s) = -3.33578 -9.50211 -7.12101
# Velocity P-wave (km/s) = 1.15306 10.29377 7.32432
#
# Compressibility (1/GPa) = 0.03035958
#
# Stress axis : x y z
#
# Youngs Moduli (GPa) = 109.08437 73.72140 137.24556
#
# Poissons Ratio (x) = -0.04504 -0.05649
# Poissons Ratio (y) = -0.06664 0.11689
# Poissons Ratio (z) = -0.04490 0.06279
#
# Static dielectric constant tensor:
#      x y z
#    x 1.980060 0.000000 0.000000 
#    y 0.000000 1.923350 0.000000 
#    z 0.000000 0.000000 1.961580 
# 
# From -- ./inp_files/61876.got.cif
#   From: 2010.05.17/outbox.cif.g08.bks.cpg/sg63_31_cif.got.tgz:61876.got - 2010.06.03 15:47:04.
