data_PCOD9469638
_publ_section_title
;
Structure prediction by ZEFSAII (Michael W. Deem and Ramdas Pophale) SiO2 
 PCOD9469638
Probable space group: C M C M
;
_chemical_formula_sum "Si O2"
_cell_formula_units_Z 96
_cell_length_a 29.388563
_cell_length_b 28.839465
_cell_length_c 9.017751
_cell_angle_alpha 90.000000
_cell_angle_beta 90.000000
_cell_angle_gamma 90.000000
_cell_volume 7642.998774
_symmetry_space_group_name_H-M "C M C M"
_symmetry_group_IT_number 63
_symmetry_cell_setting 'orthorhombic'
loop_
_space_group_symop_operation_xyz
x,y,z
-x,-y,1/2+z
x,-y,-z
-x,y,1/2-z
-x,-y,-z
x,y,1/2-z
-x,y,z
x,-y,1/2+z
1/2+x,1/2+y,z
1/2-x,1/2-y,1/2+z
1/2+x,1/2-y,-z
1/2-x,1/2+y,1/2-z
1/2-x,1/2-y,-z
1/2+x,1/2+y,1/2-z
1/2-x,1/2+y,z
1/2+x,1/2-y,1/2+z
loop_
_atom_site_type_symbol
_atom_site_label
_atom_site_fract_x
_atom_site_fract_y
_atom_site_fract_z
Si Si1 0.000000 0.297509 0.429358
Si Si2 0.000000 0.406834 0.429067
Si Si3 0.090198 0.549339 0.427161
Si Si4 0.652296 0.863267 0.574386
Si Si5 0.099779 0.277449 0.069884
Si Si6 0.735594 0.822392 0.420404
Si Si7 0.316015 0.722430 0.421496
O O1 0.000000 0.352106 0.468089
O O2 0.952612 0.274775 0.478299
O O3 0.000000 0.295648 0.250000
O O4 0.955460 0.430564 0.497671
O O5 0.000000 0.411050 0.250000
O O6 0.100491 0.500000 0.500000
O O7 0.083333 0.544812 0.250000
O O8 0.130073 0.586777 0.452697
O O9 0.651906 0.854165 0.750000
O O10 0.620971 0.824750 0.494312
O O11 0.703078 0.856253 0.512621
O O12 0.101855 0.280163 0.250000
O O13 0.133294 0.235490 0.025490
O O14 0.737610 0.836806 0.250000
O O15 0.709982 0.772266 0.425761
O O16 0.785380 0.812816 0.486086
O O17 0.317415 0.707718 0.250000
#
# Coordination Sequence:
#
# PCOD9469638 Si02
#       7
#     8   8  16  16  16  16  16
#     4   9  16  26  42  59  73  94 124 154 185 223
#     4  11  20  32  49  59  70  92 120 158 196 233
#     4  11  23  35  45  57  73  92 119 155 194 236
#     4  10  19  29  41  56  72  89 113 148 186 223
#     4   9  16  27  41  56  73  95 121 147 180 219
#     4   9  16  25  39  55  72  92 114 138 172 218
#     4   8  14  23  36  54  75  94 113 140 172 209
#
# _framework density 12.560515000000001
#
# number of rings (size 3 to 8) (size 9 to 14) (size 15 to 20)
#    0.000    2.500    1.667    3.000    0.000    6.000 
#    0.000    0.417    0.000    0.000    0.000    0.000 
#    0.000    0.000    0.000    0.000    0.000    0.000 
#
# Total GULP energy -267354.428226 kJ/mol
# GULP energy per Si atom -5569.883921 kJ/mol
# Density = 1.253193 g / cm^3
# Si number density = 12.560515 Si / 1000 Ang^3
#
#
#
# Elastic Constant Matrix: (Units=GPa)
#
#
# Indices 1 2 3 4 5 6 
#
# 1 110.0971 45.8915 38.9112 0.0000 0.0000 0.0000
# 2 45.8915 35.0419 28.0869 0.0000 0.0000 0.0000
# 3 38.9112 28.0869 47.8560 0.0000 0.0000 0.0000
# 4 0.0000 0.0000 0.0000 13.3595 0.0000 0.0000
# 5 0.0000 0.0000 0.0000 0.0000 16.1222 0.0000
# 6 0.0000 0.0000 0.0000 0.0000 0.0000 9.2799
#
#
#
# Elastic Compliance Matrix: (Units=1/GPa)
#
#
# Indices 1 2 3 4 5 6 
#
# 1 0.020073 -0.024937 -0.001686 0.000000 0.000000 0.000000
# 2 -0.024937 0.084866 -0.029532 0.000000 0.000000 0.000000
# 3 -0.001686 -0.029532 0.039599 0.000000 0.000000 0.000000
# 4 0.000000 0.000000 0.000000 0.074853 0.000000 0.000000
# 5 0.000000 0.000000 0.000000 0.000000 0.062026 0.000000
# 6 0.000000 0.000000 0.000000 0.000000 0.000000 0.107759
#
#
# Mechanical properties :
#
#
# Convention : Reuss Voigt Hill
#
# Bulk Modulus (GPa) = 31.02838 46.53047 38.77943
# Shear Modulus (GPa) = 9.76127 13.09268 11.42698
#
# Velocity S-wave (km/s) = 2.79075 3.23208 3.01948
# Velocity P-wave (km/s) = 5.92799 7.14520 6.56487
#
# Compressibility (1/GPa) = 0.03222856
#
# Stress axis : x y z
#
# Youngs Moduli (GPa) = 49.81817 11.78333 25.25312
#
# Poissons Ratio (x) = 0.29384 0.04257
# Poissons Ratio (y) = 1.24231 0.74578
# Poissons Ratio (z) = 0.08397 0.34799
#
# Static dielectric constant tensor:
#      x y z
#    x 1.431360 0.000000 0.000000 
#    y 0.000000 1.378270 0.000000 
#    z 0.000000 0.000000 1.420980 
# 
# From -- ./inp_files/14960.got.cif
#   From: 2010.05.17/outbox.cif.g08.bks.cpg/sg63_8_cif.got.tgz:14960.got - 2010.06.03 15:47:04.
