data_PCOD9469419
_publ_section_title
;
Structure prediction by ZEFSAII (Michael W. Deem and Ramdas Pophale) SiO2 
 PCOD9469419
Probable space group: C M C M
;
_chemical_formula_sum "Si O2"
_cell_formula_units_Z 96
_cell_length_a 7.393810
_cell_length_b 24.968237
_cell_length_c 22.515973
_cell_angle_alpha 90.000000
_cell_angle_beta 90.000000
_cell_angle_gamma 90.000000
_cell_volume 4156.682791
_symmetry_space_group_name_H-M "C M C M"
_symmetry_group_IT_number 63
_symmetry_cell_setting 'orthorhombic'
loop_
_space_group_symop_operation_xyz
x,y,z
-x,-y,1/2+z
x,-y,-z
-x,y,1/2-z
-x,-y,-z
x,y,1/2-z
-x,y,z
x,-y,1/2+z
1/2+x,1/2+y,z
1/2-x,1/2-y,1/2+z
1/2+x,1/2-y,-z
1/2-x,1/2+y,1/2-z
1/2-x,1/2-y,-z
1/2+x,1/2+y,1/2-z
1/2-x,1/2+y,z
1/2+x,1/2-y,1/2+z
loop_
_atom_site_type_symbol
_atom_site_label
_atom_site_fract_x
_atom_site_fract_y
_atom_site_fract_z
Si Si1 0.720297 0.300965 0.185182
Si Si2 0.785487 0.191308 0.026860
Si Si3 0.205158 0.317034 0.661784
Si Si4 0.778438 0.435760 0.815875
Si Si5 0.792934 0.501145 0.432617
Si Si6 0.780347 0.120061 0.918581
O O1 0.766657 0.322320 0.250000
O O2 0.500000 0.298444 0.180674
O O3 0.787260 0.239939 0.179746
O O4 0.780372 0.339519 0.132805
O O5 0.700335 0.184552 0.090699
O O6 0.000000 0.185849 0.034358
O O7 0.750000 0.250000 0.000000
O O8 0.724081 0.146379 0.980726
O O9 0.282956 0.373862 0.680824
O O10 0.000000 0.316866 0.684565
O O11 0.727215 0.457334 0.750000
O O12 0.716782 0.465099 0.876696
O O13 0.000000 0.436936 0.817640
O O14 0.712339 0.500000 0.500000
O O15 0.788909 0.439630 0.412178
O O16 0.000000 0.520242 0.440293
O O17 0.000000 0.118183 0.917679
#
# Coordination Sequence:
#
# PCOD9469419 Si02
#       6
#    16  16  16  16  16  16
#     4   9  17  31  52  78 108 140 176 217 261 317
#     4  11  21  34  53  80 112 143 177 221 273 330
#     4  10  18  33  57  83 109 141 182 226 272 323
#     4   9  18  33  56  84 111 145 191 235 277 332
#     4  10  21  37  56  80 109 142 184 234 281 326
#     4  10  21  36  53  79 109 138 178 220 266 325
#
# _framework density 23.095338999999999
#
# number of rings (size 3 to 8) (size 9 to 14) (size 15 to 20)
#    0.000    2.167    1.667    2.000    0.000    5.667 
#    0.000    0.833    0.000    4.000    0.000    0.000 
#    0.000    0.000    0.000    0.000    0.000    0.000 
#
# Total GULP energy -268154.137760 kJ/mol
# GULP energy per Si atom -5586.544537 kJ/mol
# Density = 2.304277 g / cm^3
# Si number density = 23.095339 Si / 1000 Ang^3
#
#
#
# Elastic Constant Matrix: (Units=GPa)
#
#
# Indices 1 2 3 4 5 6 
#
# 1 84.2947 -2.7740 10.8711 0.0000 0.0000 0.0000
# 2 -2.7740 116.2232 56.5291 0.0000 0.0000 0.0000
# 3 10.8711 56.5291 210.6991 0.0000 0.0000 0.0000
# 4 0.0000 0.0000 0.0000 7.2398 0.0000 0.0000
# 5 0.0000 0.0000 0.0000 0.0000 -1.0691 0.0000
# 6 0.0000 0.0000 0.0000 0.0000 0.0000 14.1067
#
#
#
# Elastic Compliance Matrix: (Units=1/GPa)
#
#
# Indices 1 2 3 4 5 6 
#
# 1 0.011988 0.000675 -0.000800 0.000000 0.000000 0.000000
# 2 0.000675 0.009933 -0.002700 0.000000 0.000000 0.000000
# 3 -0.000800 -0.002700 0.005512 0.000000 0.000000 0.000000
# 4 0.000000 0.000000 0.000000 0.138125 0.000000 0.000000
# 5 0.000000 0.000000 0.000000 0.000000 -0.935384 0.000000
# 6 0.000000 0.000000 0.000000 0.000000 0.000000 0.070888
#
#
# Mechanical properties :
#
#
# Convention : Reuss Voigt Hill
#
# Bulk Modulus (GPa) = 45.90380 60.05215 52.97797
# Shear Modulus (GPa) = -7.28836 27.16153 9.93659
#
# Velocity S-wave (km/s) = -1.77838 3.43310 2.07648
# Velocity P-wave (km/s) = 3.96259 6.46322 5.36075
#
# Compressibility (1/GPa) = 0.02178469
#
# Stress axis : x y z
#
# Youngs Moduli (GPa) = 83.41330 100.67013 181.43127
#
# Poissons Ratio (x) = -0.06796 0.14509
# Poissons Ratio (y) = -0.05631 0.48985
# Poissons Ratio (z) = 0.06670 0.27180
#
# Static dielectric constant tensor:
#      x y z
#    x 1.924930 0.000000 0.000000 
#    y 0.000000 1.816130 0.000000 
#    z 0.000000 0.000000 1.835780 
# 
# From -- ./inp_files/51287.got.cif
#   From: 2010.05.17/outbox.cif.g08.bks.cpg/sg63_26_cif.got.tgz:51287.got - 2010.06.03 15:47:04.
