data_PCOD9469546
_publ_section_title
;
Structure prediction by ZEFSAII (Michael W. Deem and Ramdas Pophale) SiO2 
 PCOD9469546
Probable space group: C M C M
;
_chemical_formula_sum "Si O2"
_cell_formula_units_Z 68
_cell_length_a 23.293298
_cell_length_b 8.472551
_cell_length_c 14.464947
_cell_angle_alpha 90.000000
_cell_angle_beta 90.000000
_cell_angle_gamma 90.000000
_cell_volume 2854.710164
_symmetry_space_group_name_H-M "C M C M"
_symmetry_group_IT_number 63
_symmetry_cell_setting 'orthorhombic'
loop_
_space_group_symop_operation_xyz
x,y,z
-x,-y,1/2+z
x,-y,-z
-x,y,1/2-z
-x,-y,-z
x,y,1/2-z
-x,y,z
x,-y,1/2+z
1/2+x,1/2+y,z
1/2-x,1/2-y,1/2+z
1/2+x,1/2-y,-z
1/2-x,1/2+y,1/2-z
1/2-x,1/2-y,-z
1/2+x,1/2+y,1/2-z
1/2-x,1/2+y,z
1/2+x,1/2-y,1/2+z
loop_
_atom_site_type_symbol
_atom_site_label
_atom_site_fract_x
_atom_site_fract_y
_atom_site_fract_z
Si Si1 0.676473 0.137005 0.362793
Si Si2 0.413942 0.396266 0.909980
Si Si3 0.500000 0.493254 0.750000
Si Si4 0.437025 0.044669 0.862031
Si Si5 0.704947 0.487566 0.138741
O O1 0.675937 0.139183 0.250000
O O2 0.686172 0.315211 0.394867
O O3 0.615937 0.063415 0.390601
O O4 0.731829 0.036850 0.392054
O O5 0.449655 0.481150 0.829527
O O6 0.433684 0.215104 0.909251
O O7 0.345938 0.395399 0.888317
O O8 0.423590 0.500000 0.000000
O O9 0.432991 0.073023 0.750000
O O10 0.500000 0.972868 0.878552
O O11 0.707078 0.483077 0.250000
#
# Coordination Sequence:
#
# PCOD9469546 Si02
#       5
#    16  16   4  16  16
#     4   9  19  34  63  90 127 174 218 262 323 376
#     4  12  23  39  66  98 126 168 214 258 317 381
#     4  12  22  44  64  92 136 164 212 258 316 382
#     4  10  18  36  58  88 124 169 216 263 314 377
#     4  10  19  38  59  92 125 167 217 268 316 376
#
# _framework density 23.820281000000001
#
# number of rings (size 3 to 8) (size 9 to 14) (size 15 to 20)
#    0.000    1.647    3.529    1.765    0.000    3.765 
#    2.118    5.882    0.000    1.412    0.000    0.000 
#    0.000    0.000    0.000    0.000    0.000    0.000 
#
# Total GULP energy -189878.527704 kJ/mol
# GULP energy per Si atom -5584.662580 kJ/mol
# Density = 2.376607 g / cm^3
# Si number density = 23.820281 Si / 1000 Ang^3
#
#
#
# Elastic Constant Matrix: (Units=GPa)
#
#
# Indices 1 2 3 4 5 6 
#
# 1 237.8912 52.7754 20.3766 0.0000 0.0000 0.0000
# 2 52.7754 43.3888 -8.3299 0.0000 0.0000 0.0000
# 3 20.3766 -8.3299 94.3683 0.0000 0.0000 0.0000
# 4 0.0000 0.0000 0.0000 19.8591 0.0000 0.0000
# 5 0.0000 0.0000 0.0000 0.0000 16.6282 0.0000
# 6 0.0000 0.0000 0.0000 0.0000 0.0000 25.6722
#
#
#
# Elastic Compliance Matrix: (Units=1/GPa)
#
#
# Indices 1 2 3 4 5 6 
#
# 1 0.006110 -0.007818 -0.002009 0.000000 0.000000 0.000000
# 2 -0.007818 0.033447 0.004640 0.000000 0.000000 0.000000
# 3 -0.002009 0.004640 0.011440 0.000000 0.000000 0.000000
# 4 0.000000 0.000000 0.000000 0.050355 0.000000 0.000000
# 5 0.000000 0.000000 0.000000 0.000000 0.060139 0.000000
# 6 0.000000 0.000000 0.000000 0.000000 0.000000 0.038953
#
#
# Mechanical properties :
#
#
# Convention : Reuss Voigt Hill
#
# Bulk Modulus (GPa) = 24.61577 56.14361 40.37969
# Shear Modulus (GPa) = 22.28577 33.15364 27.71971
#
# Velocity S-wave (km/s) = 3.06204 3.73476 3.41501
# Velocity P-wave (km/s) = 4.78099 6.49760 5.70424
#
# Compressibility (1/GPa) = 0.04062437
#
# Stress axis : x y z
#
# Youngs Moduli (GPa) = 163.66512 29.89784 87.41049
#
# Poissons Ratio (x) = 0.23373 0.17564
# Poissons Ratio (y) = 1.27948 -0.40562
# Poissons Ratio (z) = 0.32887 -0.13874
#
# Static dielectric constant tensor:
#      x y z
#    x 1.879190 0.000000 0.000000 
#    y 0.000000 1.867830 0.000000 
#    z 0.000000 0.000000 1.876120 
# 
# From -- ./inp_files/46638.got.cif
#   From: 2010.05.17/outbox.cif.g08.bks.cpg/sg63_24_cif.got.tgz:46638.got - 2010.06.03 15:47:04.
