data_PCOD9469242
_publ_section_title
;
Structure prediction by ZEFSAII (Michael W. Deem and Ramdas Pophale) SiO2 
 PCOD9469242
Probable space group: C M C M
;
_chemical_formula_sum "Si O2"
_cell_formula_units_Z 72
_cell_length_a 15.126893
_cell_length_b 30.749113
_cell_length_c 7.444421
_cell_angle_alpha 90.000000
_cell_angle_beta 90.000000
_cell_angle_gamma 90.000000
_cell_volume 3462.687131
_symmetry_space_group_name_H-M "C M C M"
_symmetry_group_IT_number 63
_symmetry_cell_setting 'orthorhombic'
loop_
_space_group_symop_operation_xyz
x,y,z
-x,-y,1/2+z
x,-y,-z
-x,y,1/2-z
-x,-y,-z
x,y,1/2-z
-x,y,z
x,-y,1/2+z
1/2+x,1/2+y,z
1/2-x,1/2-y,1/2+z
1/2+x,1/2-y,-z
1/2-x,1/2+y,1/2-z
1/2-x,1/2-y,-z
1/2+x,1/2+y,1/2-z
1/2-x,1/2+y,z
1/2+x,1/2-y,1/2+z
loop_
_atom_site_type_symbol
_atom_site_label
_atom_site_fract_x
_atom_site_fract_y
_atom_site_fract_z
Si Si1 0.000000 0.662815 0.533504
Si Si2 0.190859 0.792463 0.035022
Si Si3 0.000000 0.234109 0.536439
Si Si4 0.311770 0.127920 0.529970
Si Si5 0.000000 0.051808 0.964428
Si Si6 0.192836 0.051181 0.965145
O O1 0.000000 0.713859 0.487908
O O2 0.089912 0.640126 0.469354
O O3 0.000000 0.660446 0.750000
O O4 0.183858 0.796999 0.250000
O O5 0.244046 0.834456 0.970727
O O6 0.091820 0.785189 0.963893
O O7 0.250000 0.750000 0.000000
O O8 0.000000 0.225922 0.750000
O O9 0.313939 0.128357 0.750000
O O10 0.271524 0.081945 0.471024
O O11 0.904163 0.066490 0.033779
O O12 0.000000 0.059459 0.750000
O O13 0.000000 0.000000 0.000000
O O14 0.189284 0.055783 0.750000
O O15 0.204464 0.000000 0.000000
#
# Coordination Sequence:
#
# PCOD9469242 Si02
#       6
#     8  16   8  16   8  16
#     4  10  18  32  52  70  92 131 172 199 235 298
#     4  10  19  32  49  72  99 129 162 201 244 290
#     4  10  20  31  48  75 104 127 160 211 253 283
#     4   9  18  31  50  72  95 127 167 201 238 292
#     4   8  14  25  45  67  89 118 149 186 235 287
#     4   9  17  31  49  71  96 124 159 199 242 288
#
# _framework density 20.793098000000001
#
# number of rings (size 3 to 8) (size 9 to 14) (size 15 to 20)
#    0.000    2.667    2.222    0.000    0.000    0.889 
#    0.000    7.222    0.000    0.000    0.000    4.667 
#    0.000    0.000    0.000    0.000    0.000    0.000 
#
# Total GULP energy -200843.352731 kJ/mol
# GULP energy per Si atom -5578.982020 kJ/mol
# Density = 2.074577 g / cm^3
# Si number density = 20.793098 Si / 1000 Ang^3
#
#
#
# Elastic Constant Matrix: (Units=GPa)
#
#
# Indices 1 2 3 4 5 6 
#
# 1 238.6919 96.2086 10.9420 0.0000 0.0000 0.0000
# 2 96.2086 107.8489 -2.6812 0.0000 0.0000 0.0000
# 3 10.9420 -2.6812 65.8821 0.0000 0.0000 0.0000
# 4 0.0000 0.0000 0.0000 16.3188 0.0000 0.0000
# 5 0.0000 0.0000 0.0000 0.0000 -0.9612 0.0000
# 6 0.0000 0.0000 0.0000 0.0000 0.0000 30.3644
#
#
#
# Elastic Compliance Matrix: (Units=1/GPa)
#
#
# Indices 1 2 3 4 5 6 
#
# 1 0.006659 -0.005974 -0.001349 0.000000 0.000000 0.000000
# 2 -0.005974 0.014641 0.001588 0.000000 0.000000 0.000000
# 3 -0.001349 0.001588 0.015467 0.000000 0.000000 0.000000
# 4 0.000000 0.000000 0.000000 0.061279 0.000000 0.000000
# 5 0.000000 0.000000 0.000000 0.000000 -1.040315 0.000000
# 6 0.000000 0.000000 0.000000 0.000000 0.000000 0.032933
#
#
# Mechanical properties :
#
#
# Convention : Reuss Voigt Hill
#
# Bulk Modulus (GPa) = 39.52993 69.04019 54.28506
# Shear Modulus (GPa) = -5.62157 29.67463 12.02653
#
# Velocity S-wave (km/s) = -1.64604 3.78185 2.40758
# Velocity P-wave (km/s) = 3.92935 7.23501 5.82173
#
# Compressibility (1/GPa) = 0.02529728
#
# Stress axis : x y z
#
# Youngs Moduli (GPa) = 150.16589 68.30133 64.65242
#
# Poissons Ratio (x) = 0.40804 0.08723
# Poissons Ratio (y) = 0.89710 -0.10267
# Poissons Ratio (z) = 0.20259 -0.10847
#
# Static dielectric constant tensor:
#      x y z
#    x 1.762390 0.000000 0.000000 
#    y 0.000000 1.665080 0.000000 
#    z 0.000000 0.000000 1.817360 
# 
# From -- ./inp_files/4981.got.cif
#   From: 2010.05.17/outbox.cif.g08.bks.cpg/sg63_3_cif.got.tgz:4981.got - 2010.06.03 15:47:04.
