data_PCOD9469615
_publ_section_title
;
Structure prediction by ZEFSAII (Michael W. Deem and Ramdas Pophale) SiO2 
 PCOD9469615
Probable space group: C M C M
;
_chemical_formula_sum "Si O2"
_cell_formula_units_Z 112
_cell_length_a 29.671097
_cell_length_b 16.428240
_cell_length_c 13.289096
_cell_angle_alpha 90.000000
_cell_angle_beta 90.000000
_cell_angle_gamma 90.000000
_cell_volume 6477.688816
_symmetry_space_group_name_H-M "C M C M"
_symmetry_group_IT_number 63
_symmetry_cell_setting 'orthorhombic'
loop_
_space_group_symop_operation_xyz
x,y,z
-x,-y,1/2+z
x,-y,-z
-x,y,1/2-z
-x,-y,-z
x,y,1/2-z
-x,y,z
x,-y,1/2+z
1/2+x,1/2+y,z
1/2-x,1/2-y,1/2+z
1/2+x,1/2-y,-z
1/2-x,1/2+y,1/2-z
1/2-x,1/2-y,-z
1/2+x,1/2+y,1/2-z
1/2-x,1/2+y,z
1/2+x,1/2-y,1/2+z
loop_
_atom_site_type_symbol
_atom_site_label
_atom_site_fract_x
_atom_site_fract_y
_atom_site_fract_z
Si Si1 0.849652 0.701906 0.372277
Si Si2 0.274999 0.904908 0.978172
Si Si3 0.294000 0.363273 0.370234
Si Si4 0.449347 0.596529 0.578321
Si Si5 0.313009 0.547600 0.369608
Si Si6 0.587877 0.570454 0.365902
Si Si7 0.050014 0.282161 0.866988
O O1 0.848551 0.693740 0.250000
O O2 0.816315 0.639148 0.425757
O O3 0.828920 0.791523 0.395538
O O4 0.901436 0.689237 0.407361
O O5 0.231320 0.906925 0.905977
O O6 0.254700 0.858473 0.075618
O O7 0.285365 0.000000 0.000000
O O8 0.288599 0.362480 0.250000
O O9 0.311265 0.452904 0.403428
O O10 0.500000 0.566092 0.596361
O O11 0.417415 0.527642 0.624028
O O12 0.441385 0.603947 0.458295
O O13 0.445563 0.684287 0.627234
O O14 0.311594 0.543187 0.250000
O O15 0.360437 0.589154 0.392536
O O16 0.577535 0.593350 0.250000
O O17 0.048619 0.306374 0.750000
O O18 0.000000 0.302549 0.910659
#
# Coordination Sequence:
#
# PCOD9469615 Si02
#       7
#    16  16  16  16  16  16  16
#     4  10  19  32  51  73  95 121 156 195 235 282
#     4  10  20  31  49  70  97 130 153 190 232 280
#     4   9  18  30  45  69  96 128 162 192 229 270
#     4  10  20  29  43  64  88 121 162 205 243 281
#     4   9  18  30  44  65  94 128 163 193 227 275
#     4  10  19  28  41  61  89 126 164 201 235 274
#     4   9  18  32  50  71  93 117 149 195 245 287
#
# _framework density 17.290118
#
# number of rings (size 3 to 8) (size 9 to 14) (size 15 to 20)
#    0.000    2.429    0.000    3.000    8.000    4.571 
#    0.000    0.000    0.000    0.429    0.000    0.000 
#    0.000    0.000    0.000    0.000    0.000    0.000 
#
# Total GULP energy -311918.806195 kJ/mol
# GULP energy per Si atom -5569.978682 kJ/mol
# Density = 1.725076 g / cm^3
# Si number density = 17.290118 Si / 1000 Ang^3
#
#
#
# Elastic Constant Matrix: (Units=GPa)
#
#
# Indices 1 2 3 4 5 6 
#
# 1 137.4887 32.9423 19.6572 0.0000 0.0000 0.0000
# 2 32.9423 26.9444 8.6752 0.0000 0.0000 0.0000
# 3 19.6572 8.6752 41.5609 0.0000 0.0000 0.0000
# 4 0.0000 0.0000 0.0000 15.9254 0.0000 0.0000
# 5 0.0000 0.0000 0.0000 0.0000 20.5670 0.0000
# 6 0.0000 0.0000 0.0000 0.0000 0.0000 20.1061
#
#
#
# Elastic Compliance Matrix: (Units=1/GPa)
#
#
# Indices 1 2 3 4 5 6 
#
# 1 0.010515 -0.012066 -0.002455 0.000000 0.000000 0.000000
# 2 -0.012066 0.053632 -0.005488 0.000000 0.000000 0.000000
# 3 -0.002455 -0.005488 0.026368 0.000000 0.000000 0.000000
# 4 0.000000 0.000000 0.000000 0.062793 0.000000 0.000000
# 5 0.000000 0.000000 0.000000 0.000000 0.048622 0.000000
# 6 0.000000 0.000000 0.000000 0.000000 0.000000 0.049736
#
#
# Mechanical properties :
#
#
# Convention : Reuss Voigt Hill
#
# Bulk Modulus (GPa) = 19.80294 36.50483 28.15389
# Shear Modulus (GPa) = 16.20667 20.96765 18.58716
#
# Velocity S-wave (km/s) = 3.06492 3.48616 3.28230
# Velocity P-wave (km/s) = 4.89930 6.11256 5.53925
#
# Compressibility (1/GPa) = 0.05049755
#
# Stress axis : x y z
#
# Youngs Moduli (GPa) = 95.10031 18.64566 37.92505
#
# Poissons Ratio (x) = 0.22497 0.09310
# Poissons Ratio (y) = 1.14743 0.20814
# Poissons Ratio (z) = 0.23346 0.10233
#
# Static dielectric constant tensor:
#      x y z
#    x 1.619560 0.000000 0.000000 
#    y 0.000000 1.574460 0.000000 
#    z 0.000000 0.000000 1.630400 
# 
# From -- ./inp_files/37952.got.cif
#   From: 2010.05.17/outbox.cif.g08.bks.cpg/sg63_19_cif.got.tgz:37952.got - 2010.06.03 15:47:04.
