data_PCOD9469076
_publ_section_title
;
Structure prediction by ZEFSAII (Michael W. Deem and Ramdas Pophale) SiO2 
 PCOD9469076
Probable space group: C M C M
;
_chemical_formula_sum "Si O2"
_cell_formula_units_Z 128
_cell_length_a 27.516503
_cell_length_b 11.540538
_cell_length_c 21.525047
_cell_angle_alpha 90.000000
_cell_angle_beta 90.000000
_cell_angle_gamma 90.000000
_cell_volume 6835.391649
_symmetry_space_group_name_H-M "C M C M"
_symmetry_group_IT_number 63
_symmetry_cell_setting 'orthorhombic'
loop_
_space_group_symop_operation_xyz
x,y,z
-x,-y,1/2+z
x,-y,-z
-x,y,1/2-z
-x,-y,-z
x,y,1/2-z
-x,y,z
x,-y,1/2+z
1/2+x,1/2+y,z
1/2-x,1/2-y,1/2+z
1/2+x,1/2-y,-z
1/2-x,1/2+y,1/2-z
1/2-x,1/2-y,-z
1/2+x,1/2+y,1/2-z
1/2-x,1/2+y,z
1/2+x,1/2-y,1/2+z
loop_
_atom_site_type_symbol
_atom_site_label
_atom_site_fract_x
_atom_site_fract_y
_atom_site_fract_z
Si Si1 0.648909 0.854810 0.677795
Si Si2 0.651880 0.225875 0.974407
Si Si3 0.553191 0.865359 0.491844
Si Si4 0.202997 0.468449 0.089723
Si Si5 0.555347 0.266172 0.377326
Si Si6 0.870968 0.920099 0.062961
Si Si7 0.296118 0.589641 0.110274
Si Si8 0.751953 0.777711 0.319605
O O1 0.650611 0.894443 0.750000
O O2 0.596457 0.797215 0.664040
O O3 0.692070 0.759748 0.670904
O O4 0.663619 0.957457 0.629468
O O5 0.679545 0.105727 0.965536
O O6 0.676306 0.312191 0.927196
O O7 0.596188 0.199983 0.957544
O O8 0.650951 0.297203 0.038533
O O9 0.500000 0.853884 0.462797
O O10 0.551664 0.811051 0.560353
O O11 0.564694 0.000000 0.500000
O O12 0.247730 0.551913 0.073678
O O13 0.229867 0.373997 0.134718
O O14 0.500000 0.278025 0.352638
O O15 0.579476 0.386149 0.402071
O O16 0.833703 0.984314 0.108523
O O17 0.877282 0.000000 0.000000
O O18 0.276834 0.655424 0.170894
O O19 0.746073 0.821117 0.250000
#
# Coordination Sequence:
#
# PCOD9469076 Si02
#       8
#    16  16  16  16  16  16  16  16
#     4  10  20  33  50  72  99 129 161 203 249 290
#     4   9  18  31  48  70  98 130 162 200 243 292
#     4   9  17  31  51  72  94 123 162 208 252 290
#     4  10  18  31  50  72  99 131 165 200 240 291
#     4  10  20  33  50  72  98 128 163 202 242 289
#     4   9  18  34  51  71 101 131 163 201 244 293
#     4   9  18  31  47  70 101 129 160 199 243 299
#     4   9  18  32  51  73  95 124 164 207 248 289
#
# _framework density 18.726065999999999
#
# number of rings (size 3 to 8) (size 9 to 14) (size 15 to 20)
#    0.000    2.625    0.000    1.875    0.000    1.500 
#    0.000   16.875    0.000    0.000    0.000    0.000 
#    0.000    9.500    0.000    0.000    0.000    0.000 
#
# Total GULP energy -356433.854261 kJ/mol
# GULP energy per Si atom -5569.278973 kJ/mol
# Density = 1.868344 g / cm^3
# Si number density = 18.726066 Si / 1000 Ang^3
#
#
#
# Elastic Constant Matrix: (Units=GPa)
#
#
# Indices 1 2 3 4 5 6 
#
# 1 143.0812 56.4936 33.4188 0.0000 0.0000 0.0000
# 2 56.4936 86.5245 24.4029 0.0000 0.0000 0.0000
# 3 33.4188 24.4029 27.7178 0.0000 0.0000 0.0000
# 4 0.0000 0.0000 0.0000 23.6328 0.0000 0.0000
# 5 0.0000 0.0000 0.0000 0.0000 17.5016 0.0000
# 6 0.0000 0.0000 0.0000 0.0000 0.0000 26.8775
#
#
#
# Elastic Compliance Matrix: (Units=1/GPa)
#
#
# Indices 1 2 3 4 5 6 
#
# 1 0.010926 -0.004548 -0.009170 0.000000 0.000000 0.000000
# 2 -0.004548 0.017268 -0.009720 0.000000 0.000000 0.000000
# 3 -0.009170 -0.009720 0.055691 0.000000 0.000000 0.000000
# 4 0.000000 0.000000 0.000000 0.042314 0.000000 0.000000
# 5 0.000000 0.000000 0.000000 0.000000 0.057138 0.000000
# 6 0.000000 0.000000 0.000000 0.000000 0.000000 0.037206
#
#
# Mechanical properties :
#
#
# Convention : Reuss Voigt Hill
#
# Bulk Modulus (GPa) = 27.01911 53.99491 40.50701
# Shear Modulus (GPa) = 17.87279 23.13627 20.50453
#
# Velocity S-wave (km/s) = 3.09274 3.51880 3.31263
# Velocity P-wave (km/s) = 5.21664 6.73839 6.02575
#
# Compressibility (1/GPa) = 0.03701085
#
# Stress axis : x y z
#
# Youngs Moduli (GPa) = 91.52096 57.91025 17.95621
#
# Poissons Ratio (x) = 0.26337 0.16466
# Poissons Ratio (y) = 0.41623 0.17453
# Poissons Ratio (z) = 0.83923 0.56287
#
# Static dielectric constant tensor:
#      x y z
#    x 1.680890 0.000000 0.000000 
#    y 0.000000 1.698830 0.000000 
#    z 0.000000 0.000000 1.587310 
# 
# From -- ./inp_files/70812.got.cif
#   From: 2010.05.17/outbox.cif.g08.bks.cpg/sg63_36_cif.got.tgz:70812.got - 2010.06.03 15:47:04.
