data_PCOD9469372
_publ_section_title
;
Structure prediction by ZEFSAII (Michael W. Deem and Ramdas Pophale) SiO2 
 PCOD9469372
Probable space group: C M C M
;
_chemical_formula_sum "Si O2"
_cell_formula_units_Z 80
_cell_length_a 11.353653
_cell_length_b 20.503023
_cell_length_c 20.092682
_cell_angle_alpha 90.000000
_cell_angle_beta 90.000000
_cell_angle_gamma 90.000000
_cell_volume 4677.259078
_symmetry_space_group_name_H-M "C M C M"
_symmetry_group_IT_number 63
_symmetry_cell_setting 'orthorhombic'
loop_
_space_group_symop_operation_xyz
x,y,z
-x,-y,1/2+z
x,-y,-z
-x,y,1/2-z
-x,-y,-z
x,y,1/2-z
-x,y,z
x,-y,1/2+z
1/2+x,1/2+y,z
1/2-x,1/2-y,1/2+z
1/2+x,1/2-y,-z
1/2-x,1/2+y,1/2-z
1/2-x,1/2-y,-z
1/2+x,1/2+y,1/2-z
1/2-x,1/2+y,z
1/2+x,1/2-y,1/2+z
loop_
_atom_site_type_symbol
_atom_site_label
_atom_site_fract_x
_atom_site_fract_y
_atom_site_fract_z
Si Si1 0.639215 0.238122 0.402623
Si Si2 0.230680 0.388417 0.826415
Si Si3 0.500000 0.022973 0.178882
Si Si4 0.639309 0.438001 0.955302
Si Si5 0.712102 0.161722 0.531760
Si Si6 0.000000 0.561360 0.550897
O O1 0.500000 0.250606 0.388520
O O2 0.692726 0.182729 0.354147
O O3 0.650547 0.208963 0.477619
O O4 0.728582 0.299416 0.407271
O O5 0.275694 0.385147 0.750000
O O6 0.111854 0.430398 0.825908
O O7 0.309976 0.425709 0.881289
O O8 0.500000 0.989381 0.250000
O O9 0.500000 0.971228 0.121891
O O10 0.500000 0.443295 0.950646
O O11 0.681722 0.500000 0.000000
O O12 0.680158 0.374376 0.995363
O O13 0.614555 0.106779 0.544697
O O14 0.000000 0.500000 0.500000
#
# Coordination Sequence:
#
# PCOD9469372 Si02
#       6
#    16  16   8  16  16   8
#     4  10  18  33  51  75 109 141 179 227 278 331
#     4  10  20  35  56  82 107 145 194 237 284 341
#     4  10  20  34  56  80 106 134 180 237 277 321
#     4  10  20  34  53  80 113 145 184 234 286 342
#     4  10  20  31  52  81 106 140 181 231 278 331
#     4  12  20  34  58  82 110 144 190 229 281 327
#
# _framework density 17.104033999999999
#
# number of rings (size 3 to 8) (size 9 to 14) (size 15 to 20)
#    0.000    1.800    2.000    4.800    0.000    0.400 
#    1.800    1.000    0.000    1.200    0.000    2.800 
#    0.000    0.000    0.000    0.000    0.000    0.000 
#
# Total GULP energy -222752.823400 kJ/mol
# GULP energy per Si atom -5568.820585 kJ/mol
# Density = 1.706510 g / cm^3
# Si number density = 17.104034 Si / 1000 Ang^3
#
#
#
# Elastic Constant Matrix: (Units=GPa)
#
#
# Indices 1 2 3 4 5 6 
#
# 1 89.1469 43.7128 47.3233 0.0000 0.0000 0.0000
# 2 43.7128 80.3778 47.5802 0.0000 0.0000 0.0000
# 3 47.3233 47.5802 116.2910 0.0000 0.0000 0.0000
# 4 0.0000 0.0000 0.0000 28.8407 0.0000 0.0000
# 5 0.0000 0.0000 0.0000 0.0000 32.6340 0.0000
# 6 0.0000 0.0000 0.0000 0.0000 0.0000 26.3515
#
#
#
# Elastic Compliance Matrix: (Units=1/GPa)
#
#
# Indices 1 2 3 4 5 6 
#
# 1 0.016624 -0.006646 -0.004046 0.000000 0.000000 0.000000
# 2 -0.006646 0.019074 -0.005100 0.000000 0.000000 0.000000
# 3 -0.004046 -0.005100 0.012332 0.000000 0.000000 0.000000
# 4 0.000000 0.000000 0.000000 0.034673 0.000000 0.000000
# 5 0.000000 0.000000 0.000000 0.000000 0.030643 0.000000
# 6 0.000000 0.000000 0.000000 0.000000 0.000000 0.037948
#
#
# Mechanical properties :
#
#
# Convention : Reuss Voigt Hill
#
# Bulk Modulus (GPa) = 60.79942 62.56094 61.68018
# Shear Modulus (GPa) = 26.54488 27.37853 26.96171
#
# Velocity S-wave (km/s) = 3.94377 4.00522 3.97462
# Velocity P-wave (km/s) = 7.50745 7.61874 7.56330
#
# Compressibility (1/GPa) = 0.01644753
#
# Stress axis : x y z
#
# Youngs Moduli (GPa) = 60.15442 52.42629 81.08939
#
# Poissons Ratio (x) = 0.34842 0.32807
# Poissons Ratio (y) = 0.39978 0.41354
# Poissons Ratio (z) = 0.24337 0.26736
#
# Static dielectric constant tensor:
#      x y z
#    x 1.630370 0.000000 0.000000 
#    y 0.000000 1.622930 0.000000 
#    z 0.000000 0.000000 1.582670 
# 
# From -- ./inp_files/52476.got.cif
#   From: 2010.05.17/outbox.cif.g08.bks.cpg/sg63_27_cif.got.tgz:52476.got - 2010.06.03 15:47:04.
