data_PCOD9469117
_publ_section_title
;
Structure prediction by ZEFSAII (Michael W. Deem and Ramdas Pophale) SiO2 
 PCOD9469117
Probable space group: C M C M
;
_chemical_formula_sum "Si O2"
_cell_formula_units_Z 80
_cell_length_a 23.036510
_cell_length_b 8.784119
_cell_length_c 17.502574
_cell_angle_alpha 90.000000
_cell_angle_beta 90.000000
_cell_angle_gamma 90.000000
_cell_volume 3541.741154
_symmetry_space_group_name_H-M "C M C M"
_symmetry_group_IT_number 63
_symmetry_cell_setting 'orthorhombic'
loop_
_space_group_symop_operation_xyz
x,y,z
-x,-y,1/2+z
x,-y,-z
-x,y,1/2-z
-x,-y,-z
x,y,1/2-z
-x,y,z
x,-y,1/2+z
1/2+x,1/2+y,z
1/2-x,1/2-y,1/2+z
1/2+x,1/2-y,-z
1/2-x,1/2+y,1/2-z
1/2-x,1/2-y,-z
1/2+x,1/2+y,1/2-z
1/2-x,1/2+y,z
1/2+x,1/2-y,1/2+z
loop_
_atom_site_type_symbol
_atom_site_label
_atom_site_fract_x
_atom_site_fract_y
_atom_site_fract_z
Si Si1 0.823438 0.175449 0.842870
Si Si2 0.000000 0.818540 0.492979
Si Si3 0.500000 0.959015 0.591534
Si Si4 0.702945 0.975497 0.156782
Si Si5 0.906227 0.692026 0.609368
Si Si6 0.933266 0.991800 0.165008
O O1 0.825334 0.171101 0.750000
O O2 0.811344 0.350116 0.863118
O O3 0.768594 0.070279 0.862872
O O4 0.883561 0.107420 0.875503
O O5 0.000000 0.722282 0.413452
O O6 0.941136 0.760964 0.536443
O O7 0.000000 0.000000 0.500000
O O8 0.500000 0.000000 0.500000
O O9 0.444805 0.042308 0.628232
O O10 0.695052 0.955969 0.250000
O O11 0.658956 0.866705 0.110855
O O12 0.910827 0.834597 0.665464
O O13 0.935757 0.929044 0.250000
O O14 0.000000 0.005227 0.141665
#
# Coordination Sequence:
#
# PCOD9469117 Si02
#       6
#    16   8   8  16  16  16
#     4   9  19  33  49  76 119 165 196 218 257 316
#     4  10  22  40  58  79 107 140 183 233 292 353
#     4   8  18  36  52  75 103 132 173 229 276 333
#     4  10  19  33  53  80 115 153 189 223 261 324
#     4  10  18  34  54  83 107 139 186 222 281 327
#     4  10  18  31  51  82 122 153 181 221 267 324
#
# _framework density 22.587761
#
# number of rings (size 3 to 8) (size 9 to 14) (size 15 to 20)
#    0.000    2.600    2.000    1.800    0.000    4.800 
#    3.600    0.000    0.000    0.000    0.000   72.800 
#    0.000    0.000    0.000    0.000    0.000    0.000 
#
# Total GULP energy -222751.253846 kJ/mol
# GULP energy per Si atom -5568.781346 kJ/mol
# Density = 2.253635 g / cm^3
# Si number density = 22.587761 Si / 1000 Ang^3
#
#
#
# Elastic Constant Matrix: (Units=GPa)
#
#
# Indices 1 2 3 4 5 6 
#
# 1 198.8832 94.6450 11.3346 0.0000 0.0000 0.0000
# 2 94.6450 165.6200 2.0582 0.0000 0.0000 0.0000
# 3 11.3346 2.0582 26.1219 0.0000 0.0000 0.0000
# 4 0.0000 0.0000 0.0000 22.2222 0.0000 0.0000
# 5 0.0000 0.0000 0.0000 0.0000 15.2090 0.0000
# 6 0.0000 0.0000 0.0000 0.0000 0.0000 48.9249
#
#
#
# Elastic Compliance Matrix: (Units=1/GPa)
#
#
# Indices 1 2 3 4 5 6 
#
# 1 0.007100 -0.004023 -0.002764 0.000000 0.000000 0.000000
# 2 -0.004023 0.008323 0.001090 0.000000 0.000000 0.000000
# 3 -0.002764 0.001090 0.039395 0.000000 0.000000 0.000000
# 4 0.000000 0.000000 0.000000 0.045000 0.000000 0.000000
# 5 0.000000 0.000000 0.000000 0.000000 0.065750 0.000000
# 6 0.000000 0.000000 0.000000 0.000000 0.000000 0.020439
#
#
# Mechanical properties :
#
#
# Convention : Reuss Voigt Hill
#
# Bulk Modulus (GPa) = 23.02830 67.41120 45.21975
# Shear Modulus (GPa) = 23.59850 36.11039 29.85445
#
# Velocity S-wave (km/s) = 3.23576 4.00268 3.63948
# Velocity P-wave (km/s) = 4.91705 7.16036 6.14199
#
# Compressibility (1/GPa) = 0.04342483
#
# Stress axis : x y z
#
# Youngs Moduli (GPa) = 140.84314 120.14334 25.38364
#
# Poissons Ratio (x) = 0.48334 0.07016
# Poissons Ratio (y) = 0.56662 -0.02766
# Poissons Ratio (z) = 0.38927 -0.13094
#
# Static dielectric constant tensor:
#      x y z
#    x 1.824770 0.000000 0.000000 
#    y 0.000000 1.898090 0.000000 
#    z 0.000000 0.000000 1.924960 
# 
# From -- ./inp_files/64327.got.cif
#   From: 2010.05.17/outbox.cif.g08.bks.cpg/sg63_33_cif.got.tgz:64327.got - 2010.06.03 15:47:04.
