data_PCOD9469932
_publ_section_title
;
Structure prediction by ZEFSAII (Michael W. Deem and Ramdas Pophale) SiO2 
 PCOD9469932
Probable space group: C M C M
;
_chemical_formula_sum "Si O2"
_cell_formula_units_Z 80
_cell_length_a 44.705178
_cell_length_b 5.347684
_cell_length_c 14.352847
_cell_angle_alpha 90.000000
_cell_angle_beta 90.000000
_cell_angle_gamma 90.000000
_cell_volume 3431.323149
_symmetry_space_group_name_H-M "C M C M"
_symmetry_group_IT_number 63
_symmetry_cell_setting 'orthorhombic'
loop_
_space_group_symop_operation_xyz
x,y,z
-x,-y,1/2+z
x,-y,-z
-x,y,1/2-z
-x,-y,-z
x,y,1/2-z
-x,y,z
x,-y,1/2+z
1/2+x,1/2+y,z
1/2-x,1/2-y,1/2+z
1/2+x,1/2-y,-z
1/2-x,1/2+y,1/2-z
1/2-x,1/2-y,-z
1/2+x,1/2+y,1/2-z
1/2-x,1/2+y,z
1/2+x,1/2-y,1/2+z
loop_
_atom_site_type_symbol
_atom_site_label
_atom_site_fract_x
_atom_site_fract_y
_atom_site_fract_z
Si Si1 0.567997 0.998572 0.888210
Si Si2 0.862383 0.407025 0.859048
Si Si3 0.332837 0.408342 0.636046
Si Si4 0.034540 0.001676 0.113481
Si Si5 0.234042 0.066566 0.863470
O O1 0.602775 0.971348 0.865249
O O2 0.549777 0.755932 0.855895
O O3 0.553372 0.257305 0.856078
O O4 0.565928 0.000000 0.000000
O O5 0.854287 0.393533 0.750000
O O6 0.843440 0.638218 0.898694
O O7 0.854597 0.132130 0.895638
O O8 0.333738 0.394371 0.750000
O O9 0.299359 0.486867 0.610282
O O10 0.000000 0.018822 0.141652
O O11 0.034790 0.000000 0.000000
O O12 0.234866 0.072597 0.750000
O O13 0.243938 0.342737 0.893887
#
# Coordination Sequence:
#
# PCOD9469932 Si02
#       5
#    16  16  16  16  16
#     4  10  19  31  49  71  92 115 149 188 220 259
#     4  10  19  31  46  64  92 125 151 178 218 269
#     4   9  17  28  42  62  89 122 153 180 220 271
#     4   9  17  30  49  71  92 115 145 184 228 267
#     4   9  15  23  37  58  85 114 144 182 224 261
#
# _framework density 23.314622
#
# number of rings (size 3 to 8) (size 9 to 14) (size 15 to 20)
#    0.000    2.600    0.000    3.000    0.000    7.200 
#    0.000    0.000    0.000    3.600    0.000    0.000 
#    0.000   16.000    0.000    0.000    0.000    0.000 
#
# Total GULP energy -223730.359006 kJ/mol
# GULP energy per Si atom -5593.258975 kJ/mol
# Density = 2.326156 g / cm^3
# Si number density = 23.314622 Si / 1000 Ang^3
#
#
#
# Elastic Constant Matrix: (Units=GPa)
#
#
# Indices 1 2 3 4 5 6 
#
# 1 95.1438 42.3252 -28.7923 0.0000 0.0000 0.0000
# 2 42.3252 167.3951 3.9634 0.0000 0.0000 0.0000
# 3 -28.7923 3.9634 91.0643 0.0000 0.0000 0.0000
# 4 0.0000 0.0000 0.0000 -3.1282 0.0000 0.0000
# 5 0.0000 0.0000 0.0000 0.0000 18.0549 0.0000
# 6 0.0000 0.0000 0.0000 0.0000 0.0000 52.0122
#
#
#
# Elastic Compliance Matrix: (Units=1/GPa)
#
#
# Indices 1 2 3 4 5 6 
#
# 1 0.013390 -0.003489 0.004385 0.000000 0.000000 0.000000
# 2 -0.003489 0.006889 -0.001403 0.000000 0.000000 0.000000
# 3 0.004385 -0.001403 0.012429 0.000000 0.000000 0.000000
# 4 0.000000 0.000000 0.000000 -0.319669 0.000000 0.000000
# 5 0.000000 0.000000 0.000000 0.000000 0.055387 0.000000
# 6 0.000000 0.000000 0.000000 0.000000 0.000000 0.019226
#
#
# Mechanical properties :
#
#
# Convention : Reuss Voigt Hill
#
# Bulk Modulus (GPa) = 31.55189 43.17732 37.36460
# Shear Modulus (GPa) = -24.90421 35.79488 5.44534
#
# Velocity S-wave (km/s) = -3.27185 3.92254 1.52992
# Velocity P-wave (km/s) = 0.84312 6.25098 4.37972
#
# Compressibility (1/GPa) = 0.03169382
#
# Stress axis : x y z
#
# Youngs Moduli (GPa) = 74.68384 145.15070 80.45785
#
# Poissons Ratio (x) = 0.50649 -0.35284
# Poissons Ratio (y) = 0.26060 0.11289
# Poissons Ratio (z) = -0.32752 0.20366
#
# Static dielectric constant tensor:
#      x y z
#    x 1.795230 0.000000 0.000000 
#    y 0.000000 1.828780 0.000000 
#    z 0.000000 0.000000 1.961190 
# 
# From -- ./inp_files/65645.got.cif
#   From: 2010.05.17/outbox.cif.g08.bks.cpg/sg63_33_cif.got.tgz:65645.got - 2010.06.03 15:47:04.
