data_PCOD9469888
_publ_section_title
;
Structure prediction by ZEFSAII (Michael W. Deem and Ramdas Pophale) SiO2 
 PCOD9469888
Probable space group: C M C M
;
_chemical_formula_sum "Si O2"
_cell_formula_units_Z 96
_cell_length_a 22.567564
_cell_length_b 11.709905
_cell_length_c 19.872537
_cell_angle_alpha 90.000000
_cell_angle_beta 90.000000
_cell_angle_gamma 90.000000
_cell_volume 5251.596724
_symmetry_space_group_name_H-M "C M C M"
_symmetry_group_IT_number 63
_symmetry_cell_setting 'orthorhombic'
loop_
_space_group_symop_operation_xyz
x,y,z
-x,-y,1/2+z
x,-y,-z
-x,y,1/2-z
-x,-y,-z
x,y,1/2-z
-x,y,z
x,-y,1/2+z
1/2+x,1/2+y,z
1/2-x,1/2-y,1/2+z
1/2+x,1/2-y,-z
1/2-x,1/2+y,1/2-z
1/2-x,1/2-y,-z
1/2+x,1/2+y,1/2-z
1/2-x,1/2+y,z
1/2+x,1/2-y,1/2+z
loop_
_atom_site_type_symbol
_atom_site_label
_atom_site_fract_x
_atom_site_fract_y
_atom_site_fract_z
Si Si1 0.430766 0.102246 0.326895
Si Si2 0.864253 0.196831 0.879922
Si Si3 0.235561 0.746879 0.920008
Si Si4 0.568419 0.727896 0.479420
Si Si5 0.850430 0.952707 0.925136
Si Si6 0.362942 0.938448 0.071120
O O1 0.427394 0.061452 0.250000
O O2 0.500000 0.098727 0.348241
O O3 0.405547 0.231079 0.330989
O O4 0.389051 0.027562 0.375621
O O5 0.796961 0.240613 0.880823
O O6 0.860337 0.060000 0.877066
O O7 0.892366 0.222667 0.953351
O O8 0.198746 0.861020 0.904080
O O9 0.194433 0.635690 0.907935
O O10 0.250000 0.750000 0.000000
O O11 0.500000 0.723086 0.495807
O O12 0.589790 0.619843 0.436071
O O13 0.586322 0.844087 0.442612
O O14 0.833556 0.000000 0.000000
O O15 0.350021 0.000000 0.000000
#
# Coordination Sequence:
#
# PCOD9469888 Si02
#       6
#    16  16  16  16  16  16
#     4  11  25  43  60  84 119 159 203 250 306 360
#     4  11  21  32  56  81 113 155 191 236 293 353
#     4  11  19  32  54  88 123 152 187 237 299 352
#     4  10  19  30  49  83 118 145 186 240 288 344
#     4   9  19  30  46  79 114 148 181 227 286 346
#     4  11  21  34  61  89 116 154 197 249 294 357
#
# _framework density 18.280155000000001
#
# number of rings (size 3 to 8) (size 9 to 14) (size 15 to 20)
#    0.000    1.500    6.667    1.000    4.667    4.333 
#    0.000    0.833    0.000    4.000    0.000    9.333 
#    0.000    0.000    0.000    0.000    0.000    0.000 
#
# Total GULP energy -267839.819978 kJ/mol
# GULP energy per Si atom -5579.996250 kJ/mol
# Density = 1.823855 g / cm^3
# Si number density = 18.280155 Si / 1000 Ang^3
#
#
#
# Elastic Constant Matrix: (Units=GPa)
#
#
# Indices 1 2 3 4 5 6 
#
# 1 128.4390 45.4936 15.4416 0.0000 0.0000 0.0000
# 2 45.4936 112.6994 19.3938 0.0000 0.0000 0.0000
# 3 15.4416 19.3938 34.4955 0.0000 0.0000 0.0000
# 4 0.0000 0.0000 0.0000 13.0230 0.0000 0.0000
# 5 0.0000 0.0000 0.0000 0.0000 7.7677 0.0000
# 6 0.0000 0.0000 0.0000 0.0000 0.0000 15.0222
#
#
#
# Elastic Compliance Matrix: (Units=1/GPa)
#
#
# Indices 1 2 3 4 5 6 
#
# 1 0.009241 -0.003342 -0.002258 0.000000 0.000000 0.000000
# 2 -0.003342 0.011032 -0.004706 0.000000 0.000000 0.000000
# 3 -0.002258 -0.004706 0.032646 0.000000 0.000000 0.000000
# 4 0.000000 0.000000 0.000000 0.076787 0.000000 0.000000
# 5 0.000000 0.000000 0.000000 0.000000 0.128739 0.000000
# 6 0.000000 0.000000 0.000000 0.000000 0.000000 0.066568
#
#
# Mechanical properties :
#
#
# Convention : Reuss Voigt Hill
#
# Bulk Modulus (GPa) = 30.95313 48.47688 39.71501
# Shear Modulus (GPa) = 14.02943 20.18291 17.10617
#
# Velocity S-wave (km/s) = 2.77333 3.32639 3.06237
# Velocity P-wave (km/s) = 5.21771 6.42881 5.85466
#
# Compressibility (1/GPa) = 0.03230691
#
# Stress axis : x y z
#
# Youngs Moduli (GPa) = 108.21446 90.64505 30.63161
#
# Poissons Ratio (x) = 0.30291 0.06916
# Poissons Ratio (y) = 0.36163 0.14417
# Poissons Ratio (z) = 0.24433 0.42661
#
# Static dielectric constant tensor:
#      x y z
#    x 1.628640 0.000000 0.000000 
#    y 0.000000 1.672530 0.000000 
#    z 0.000000 0.000000 1.619280 
# 
# From -- ./inp_files/57494.got.cif
#   From: 2010.05.17/outbox.cif.g08.bks.cpg/sg63_29_cif.got.tgz:57494.got - 2010.06.03 15:47:04.
