data_PCOD9469272
_publ_section_title
;
Structure prediction by ZEFSAII (Michael W. Deem and Ramdas Pophale) SiO2 
 PCOD9469272
Probable space group: C M C M
;
_chemical_formula_sum "Si O2"
_cell_formula_units_Z 88
_cell_length_a 12.781956
_cell_length_b 21.202777
_cell_length_c 14.495600
_cell_angle_alpha 90.000000
_cell_angle_beta 90.000000
_cell_angle_gamma 90.000000
_cell_volume 3928.495502
_symmetry_space_group_name_H-M "C M C M"
_symmetry_group_IT_number 63
_symmetry_cell_setting 'orthorhombic'
loop_
_space_group_symop_operation_xyz
x,y,z
-x,-y,1/2+z
x,-y,-z
-x,y,1/2-z
-x,-y,-z
x,y,1/2-z
-x,y,z
x,-y,1/2+z
1/2+x,1/2+y,z
1/2-x,1/2-y,1/2+z
1/2+x,1/2-y,-z
1/2-x,1/2+y,1/2-z
1/2-x,1/2-y,-z
1/2+x,1/2+y,1/2-z
1/2-x,1/2+y,z
1/2+x,1/2-y,1/2+z
loop_
_atom_site_type_symbol
_atom_site_label
_atom_site_fract_x
_atom_site_fract_y
_atom_site_fract_z
Si Si1 0.000000 0.378756 0.380804
Si Si2 0.500000 0.152256 0.408324
Si Si3 0.500000 0.022246 0.123116
Si Si4 0.233653 0.355690 0.145111
Si Si5 0.119323 0.113777 0.137900
Si Si6 0.713500 0.780352 0.862621
Si Si7 0.767352 0.498239 0.363496
O O1 0.107894 0.347521 0.352289
O O2 0.000000 0.380691 0.491439
O O3 0.000000 0.449757 0.343335
O O4 0.395942 0.191851 0.395693
O O5 0.500000 0.093085 0.340407
O O6 0.622892 0.020759 0.093298
O O7 0.273983 0.358366 0.250000
O O8 0.274916 0.291244 0.102550
O O9 0.253784 0.425874 0.106970
O O10 0.115438 0.115055 0.250000
O O11 0.192727 0.172448 0.110232
O O12 0.000000 0.117631 0.103721
O O13 0.177387 0.048235 0.114006
O O14 0.713430 0.779040 0.750000
O O15 0.781410 0.498674 0.250000
#
# Coordination Sequence:
#
# PCOD9469272 Si02
#       7
#     8   8   8  16  16  16  16
#     4  10  22  35  56  83 107 144 184 225 273 320
#     4  12  22  35  54  81 115 146 174 223 279 330
#     4  10  18  32  52  78 107 142 179 218 265 324
#     4   9  19  36  55  79 107 140 182 226 269 317
#     4   9  17  29  48  76 104 134 175 219 266 315
#     4  10  21  35  55  81 110 143 179 223 273 323
#     4   9  16  29  51  78 106 137 174 221 269 316
#
# _framework density 22.400434000000001
#
# number of rings (size 3 to 8) (size 9 to 14) (size 15 to 20)
#    0.000    2.364    1.818    1.091    1.273    3.636 
#    1.636    0.000    0.000    0.000    0.000    5.091 
#    0.000    0.000    0.000    0.000    0.000    0.000 
#
# Total GULP energy -245189.996786 kJ/mol
# GULP energy per Si atom -5572.499927 kJ/mol
# Density = 2.234945 g / cm^3
# Si number density = 22.400434 Si / 1000 Ang^3
#
#
#
# Elastic Constant Matrix: (Units=GPa)
#
#
# Indices 1 2 3 4 5 6 
#
# 1 170.7756 88.5019 18.9394 0.0000 0.0000 0.0000
# 2 88.5019 170.4487 24.6530 0.0000 0.0000 0.0000
# 3 18.9394 24.6530 83.8966 0.0000 0.0000 0.0000
# 4 0.0000 0.0000 0.0000 -4.9988 0.0000 0.0000
# 5 0.0000 0.0000 0.0000 0.0000 -6.3379 0.0000
# 6 0.0000 0.0000 0.0000 0.0000 0.0000 45.1218
#
#
#
# Elastic Compliance Matrix: (Units=1/GPa)
#
#
# Indices 1 2 3 4 5 6 
#
# 1 0.008042 -0.004087 -0.000615 0.000000 0.000000 0.000000
# 2 -0.004087 0.008204 -0.001488 0.000000 0.000000 0.000000
# 3 -0.000615 -0.001488 0.012495 0.000000 0.000000 0.000000
# 4 0.000000 0.000000 0.000000 -0.200047 0.000000 0.000000
# 5 0.000000 0.000000 0.000000 0.000000 -0.157781 0.000000
# 6 0.000000 0.000000 0.000000 0.000000 0.000000 0.022162
#
#
# Mechanical properties :
#
#
# Convention : Reuss Voigt Hill
#
# Bulk Modulus (GPa) = 61.11554 76.58995 68.85274
# Shear Modulus (GPa) = -17.29554 26.29213 4.49830
#
# Velocity S-wave (km/s) = -2.78170 3.42970 1.41862
# Velocity P-wave (km/s) = 4.12617 7.06748 5.78682
#
# Compressibility (1/GPa) = 0.01636245
#
# Stress axis : x y z
#
# Youngs Moduli (GPa) = 124.35366 121.89228 80.02902
#
# Poissons Ratio (x) = 0.49812 0.04918
# Poissons Ratio (y) = 0.50818 0.11910
# Poissons Ratio (z) = 0.07642 0.18140
#
# Static dielectric constant tensor:
#      x y z
#    x 1.780930 0.000000 0.000000 
#    y 0.000000 1.804020 0.000000 
#    z 0.000000 0.000000 2.038090 
# 
# From -- ./inp_files/42335.got.cif
#   From: 2010.05.17/outbox.cif.g08.bks.cpg/sg63_22_cif.got.tgz:42335.got - 2010.06.03 15:47:04.
