data_PCOD9469161
_publ_section_title
;
Structure prediction by ZEFSAII (Michael W. Deem and Ramdas Pophale) SiO2 
 PCOD9469161
Probable space group: C M C M
;
_chemical_formula_sum "Si O2"
_cell_formula_units_Z 96
_cell_length_a 7.750981
_cell_length_b 23.633811
_cell_length_c 26.326238
_cell_angle_alpha 90.000000
_cell_angle_beta 90.000000
_cell_angle_gamma 90.000000
_cell_volume 4822.577700
_symmetry_space_group_name_H-M "C M C M"
_symmetry_group_IT_number 63
_symmetry_cell_setting 'orthorhombic'
loop_
_space_group_symop_operation_xyz
x,y,z
-x,-y,1/2+z
x,-y,-z
-x,y,1/2-z
-x,-y,-z
x,y,1/2-z
-x,y,z
x,-y,1/2+z
1/2+x,1/2+y,z
1/2-x,1/2-y,1/2+z
1/2+x,1/2-y,-z
1/2-x,1/2+y,1/2-z
1/2-x,1/2-y,-z
1/2+x,1/2+y,1/2-z
1/2-x,1/2+y,z
1/2+x,1/2-y,1/2+z
loop_
_atom_site_type_symbol
_atom_site_label
_atom_site_fract_x
_atom_site_fract_y
_atom_site_fract_z
Si Si1 0.308367 0.693699 0.750000
Si Si2 0.299359 0.981806 0.809327
Si Si3 0.297188 0.893490 0.165703
Si Si4 0.208210 0.060541 0.561390
Si Si5 0.288723 0.569827 0.054437
Si Si6 0.697385 0.683825 0.250000
Si Si7 0.806377 0.868417 0.852669
O O1 0.500000 0.717350 0.750000
O O2 0.283775 0.655116 0.700060
O O3 0.190958 0.748719 0.750000
O O4 0.300760 0.969455 0.750000
O O5 0.500000 0.979173 0.826869
O O6 0.189239 0.933675 0.835145
O O7 0.231552 0.044916 0.816945
O O8 0.500000 0.891430 0.177407
O O9 0.271335 0.897305 0.105236
O O10 0.261402 0.076875 0.504356
O O11 0.000000 0.060162 0.563027
O O12 0.264609 0.994724 0.569464
O O13 0.500000 0.570556 0.056223
O O14 0.226740 0.620121 0.091674
O O15 0.500000 0.660516 0.250000
O O16 0.775605 0.663032 0.303947
O O17 0.000000 0.844681 0.859110
#
# Coordination Sequence:
#
# PCOD9469161 Si02
#       7
#     8  16  16  16  16   8  16
#     4  12  26  41  58  75  95 134 180 220 267 324
#     4  10  19  30  45  72 108 140 164 200 260 313
#     4  11  21  35  53  77 110 140 170 217 267 311
#     4   9  16  29  49  76 111 148 180 210 247 303
#     4   8  15  27  47  77 113 146 177 212 248 298
#     4  10  22  37  54  77 103 132 172 224 271 308
#     4  10  18  31  53  79 106 140 176 211 254 310
#
# _framework density 19.906365999999998
#
# number of rings (size 3 to 8) (size 9 to 14) (size 15 to 20)
#    0.000    2.167    3.333    2.250    0.000    1.333 
#    0.000    2.500    0.000    1.000    0.000    0.000 
#    0.000    0.000    0.000    0.000    0.000    0.000 
#
# Total GULP energy -267419.418609 kJ/mol
# GULP energy per Si atom -5571.237888 kJ/mol
# Density = 1.986106 g / cm^3
# Si number density = 19.906366 Si / 1000 Ang^3
#
#
#
# Elastic Constant Matrix: (Units=GPa)
#
#
# Indices 1 2 3 4 5 6 
#
# 1 38.0632 -1.7702 -0.9901 0.0000 0.0000 0.0000
# 2 -1.7702 59.6576 37.5992 0.0000 0.0000 0.0000
# 3 -0.9901 37.5992 143.8158 0.0000 0.0000 0.0000
# 4 0.0000 0.0000 0.0000 14.2690 0.0000 0.0000
# 5 0.0000 0.0000 0.0000 0.0000 -30.9622 0.0000
# 6 0.0000 0.0000 0.0000 0.0000 0.0000 13.0376
#
#
#
# Elastic Compliance Matrix: (Units=1/GPa)
#
#
# Indices 1 2 3 4 5 6 
#
# 1 0.026308 0.000798 -0.000028 0.000000 0.000000 0.000000
# 2 0.000798 0.020093 -0.005248 0.000000 0.000000 0.000000
# 3 -0.000028 -0.005248 0.008325 0.000000 0.000000 0.000000
# 4 0.000000 0.000000 0.000000 0.070082 0.000000 0.000000
# 5 0.000000 0.000000 0.000000 0.000000 -0.032297 0.000000
# 6 0.000000 0.000000 0.000000 0.000000 0.000000 0.076701
#
#
# Mechanical properties :
#
#
# Convention : Reuss Voigt Hill
#
# Bulk Modulus (GPa) = 21.84716 34.57937 28.21326
# Shear Modulus (GPa) = 25.84982 13.04871 19.44927
#
# Velocity S-wave (km/s) = 3.60748 2.56306 3.12915
# Velocity P-wave (km/s) = 5.32453 5.11544 5.22103
#
# Compressibility (1/GPa) = 0.04577254
#
# Stress axis : x y z
#
# Youngs Moduli (GPa) = 38.01053 49.76763 120.11856
#
# Poissons Ratio (x) = -0.03971 0.00331
# Poissons Ratio (y) = -0.03033 0.63035
# Poissons Ratio (z) = 0.00105 0.26117
#
# Static dielectric constant tensor:
#      x y z
#    x 1.738240 0.000000 0.000000 
#    y 0.000000 1.660260 0.000000 
#    z 0.000000 0.000000 1.808060 
# 
# From -- ./inp_files/67278.got.cif
#   From: 2010.05.17/outbox.cif.g08.bks.cpg/sg63_34_cif.got.tgz:67278.got - 2010.06.03 15:47:04.
