data_PCOD9469593
_publ_section_title
;
Structure prediction by ZEFSAII (Michael W. Deem and Ramdas Pophale) SiO2 
 PCOD9469593
Probable space group: C M C M
;
_chemical_formula_sum "Si O2"
_cell_formula_units_Z 96
_cell_length_a 32.462413
_cell_length_b 27.686401
_cell_length_c 9.124094
_cell_angle_alpha 90.000000
_cell_angle_beta 90.000000
_cell_angle_gamma 90.000000
_cell_volume 8200.438093
_symmetry_space_group_name_H-M "C M C M"
_symmetry_group_IT_number 63
_symmetry_cell_setting 'orthorhombic'
loop_
_space_group_symop_operation_xyz
x,y,z
-x,-y,1/2+z
x,-y,-z
-x,y,1/2-z
-x,-y,-z
x,y,1/2-z
-x,y,z
x,-y,1/2+z
1/2+x,1/2+y,z
1/2-x,1/2-y,1/2+z
1/2+x,1/2-y,-z
1/2-x,1/2+y,1/2-z
1/2-x,1/2-y,-z
1/2+x,1/2+y,1/2-z
1/2-x,1/2+y,z
1/2+x,1/2-y,1/2+z
loop_
_atom_site_type_symbol
_atom_site_label
_atom_site_fract_x
_atom_site_fract_y
_atom_site_fract_z
Si Si1 0.549112 0.550942 0.422700
Si Si2 0.710983 0.223300 0.426516
Si Si3 0.804388 0.051572 0.576957
Si Si4 0.660708 0.699801 0.079353
Si Si5 0.385555 0.383489 0.075140
Si Si6 0.257387 0.368205 0.918612
O O1 0.559322 0.500000 0.500000
O O2 0.559113 0.548424 0.250000
O O3 0.500000 0.558275 0.437516
O O4 0.574841 0.592731 0.500689
O O5 0.712028 0.229484 0.250000
O O6 0.750000 0.250000 0.500000
O O7 0.672147 0.250670 0.496301
O O8 0.719222 0.166729 0.458033
O O9 0.800908 0.045360 0.750000
O O10 0.847317 0.079751 0.547009
O O11 0.768274 0.086503 0.518410
O O12 0.804271 0.000000 0.500000
O O13 0.650923 0.707862 0.250000
O O14 0.702290 0.666727 0.075257
O O15 0.626999 0.667355 0.997300
O O16 0.390161 0.378844 0.250000
O O17 0.252901 0.383783 0.750000
#
# Coordination Sequence:
#
# PCOD9469593 Si02
#       6
#    16  16  16  16  16  16
#     4  10  20  32  44  56  69  86 109 137 170 209
#     4   9  15  23  35  50  67  86 107 131 159 193
#     4  10  19  27  36  49  65  85 109 137 168 202
#     4   9  16  25  37  52  69  87 105 129 161 198
#     4  10  19  29  41  55  69  86 108 136 170 208
#     4   8  15  25  35  47  64  85 107 131 159 191
#
# _framework density 11.706692
#
# number of rings (size 3 to 8) (size 9 to 14) (size 15 to 20)
#    0.000    2.667    0.000    4.000    0.000    9.000 
#    0.000    0.000    0.000    0.000    0.000    0.000 
#    0.000    0.000    0.000    0.000    0.000    0.000 
#
# Total GULP energy -267275.067285 kJ/mol
# GULP energy per Si atom -5568.230568 kJ/mol
# Density = 1.168005 g / cm^3
# Si number density = 11.706692 Si / 1000 Ang^3
#
#
#
# Elastic Constant Matrix: (Units=GPa)
#
#
# Indices 1 2 3 4 5 6 
#
# 1 28.5549 18.9699 25.6883 0.0000 0.0000 0.0000
# 2 18.9699 36.1296 37.2712 0.0000 0.0000 0.0000
# 3 25.6883 37.2712 68.2338 0.0000 0.0000 0.0000
# 4 0.0000 0.0000 0.0000 22.0421 0.0000 0.0000
# 5 0.0000 0.0000 0.0000 0.0000 15.2243 0.0000
# 6 0.0000 0.0000 0.0000 0.0000 0.0000 23.3669
#
#
#
# Elastic Compliance Matrix: (Units=1/GPa)
#
#
# Indices 1 2 3 4 5 6 
#
# 1 0.057678 -0.018060 -0.011849 0.000000 0.000000 0.000000
# 2 -0.018060 0.069063 -0.030925 0.000000 0.000000 0.000000
# 3 -0.011849 -0.030925 0.036008 0.000000 0.000000 0.000000
# 4 0.000000 0.000000 0.000000 0.045368 0.000000 0.000000
# 5 0.000000 0.000000 0.000000 0.000000 0.065684 0.000000
# 6 0.000000 0.000000 0.000000 0.000000 0.000000 0.042796
#
#
# Mechanical properties :
#
#
# Convention : Reuss Voigt Hill
#
# Bulk Modulus (GPa) = 24.34248 32.97524 28.65886
# Shear Modulus (GPa) = 11.06295 15.52592 13.29444
#
# Velocity S-wave (km/s) = 3.07744 3.64571 3.37356
# Velocity P-wave (km/s) = 5.78501 6.77869 6.30146
#
# Compressibility (1/GPa) = 0.04108045
#
# Stress axis : x y z
#
# Youngs Moduli (GPa) = 17.33767 14.47958 27.77128
#
# Poissons Ratio (x) = 0.26151 0.32907
# Poissons Ratio (y) = 0.31312 0.85882
# Poissons Ratio (z) = 0.20544 0.44778
#
# Static dielectric constant tensor:
#      x y z
#    x 1.369820 0.000000 0.000000 
#    y 0.000000 1.380310 0.000000 
#    z 0.000000 0.000000 1.389080 
# 
# From -- ./inp_files/12976.got.cif
#   From: 2010.05.17/outbox.cif.g08.bks.cpg/sg63_7_cif.got.tgz:12976.got - 2010.06.03 15:47:04.
