data_PCOD9469600
_publ_section_title
;
Structure prediction by ZEFSAII (Michael W. Deem and Ramdas Pophale) SiO2 
 PCOD9469600
Probable space group: C M C M
;
_chemical_formula_sum "Si O2"
_cell_formula_units_Z 96
_cell_length_a 32.366720
_cell_length_b 27.724396
_cell_length_c 9.139782
_cell_angle_alpha 90.000000
_cell_angle_beta 90.000000
_cell_angle_gamma 90.000000
_cell_volume 8201.562927
_symmetry_space_group_name_H-M "C M C M"
_symmetry_group_IT_number 63
_symmetry_cell_setting 'orthorhombic'
loop_
_space_group_symop_operation_xyz
x,y,z
-x,-y,1/2+z
x,-y,-z
-x,y,1/2-z
-x,-y,-z
x,y,1/2-z
-x,y,z
x,-y,1/2+z
1/2+x,1/2+y,z
1/2-x,1/2-y,1/2+z
1/2+x,1/2-y,-z
1/2-x,1/2+y,1/2-z
1/2-x,1/2-y,-z
1/2+x,1/2+y,1/2-z
1/2-x,1/2+y,z
1/2+x,1/2-y,1/2+z
loop_
_atom_site_type_symbol
_atom_site_label
_atom_site_fract_x
_atom_site_fract_y
_atom_site_fract_z
Si Si1 0.614845 0.885233 0.921834
Si Si2 0.786112 0.781802 0.573929
Si Si3 0.698011 0.051735 0.423743
Si Si4 0.451206 0.050727 0.923210
Si Si5 0.659770 0.196087 0.581894
Si Si6 0.254666 0.134166 0.579803
O O1 0.605956 0.884098 0.750000
O O2 0.654320 0.920587 0.945144
O O3 0.576857 0.907607 0.009596
O O4 0.628750 0.832861 0.979350
O O5 0.780535 0.783302 0.750000
O O6 0.750000 0.750000 0.500000
O O7 0.827533 0.750904 0.543880
O O8 0.779822 0.834217 0.503390
O O9 0.704703 0.047323 0.250000
O O10 0.732886 0.085346 0.497343
O O11 0.696483 0.000000 0.500000
O O12 0.444144 0.046520 0.750000
O O13 0.500000 0.059303 0.948093
O O14 0.440413 0.000000 0.000000
O O15 0.645392 0.194442 0.750000
O O16 0.703042 0.166173 0.576678
O O17 0.244350 0.126519 0.750000
#
# Coordination Sequence:
#
# PCOD9469600 Si02
#       6
#    16  16  16  16  16  16
#     4  10  19  28  40  55  69  85 105 133 167 203
#     4   9  15  23  35  50  67  86 106 129 157 190
#     4  10  19  28  37  50  67  87 111 138 169 203
#     4  10  20  32  44  55  67  84 106 133 166 205
#     4   8  15  25  36  50  68  87 105 127 157 194
#     4   9  16  25  36  49  65  86 109 133 161 193
#
# _framework density 11.705086
#
# number of rings (size 3 to 8) (size 9 to 14) (size 15 to 20)
#    0.000    2.667    0.000    4.000    0.000    9.000 
#    0.000    0.000    0.000    0.000    0.000    0.000 
#    0.000    0.000    0.000    0.000    0.000    0.000 
#
# Total GULP energy -267279.763557 kJ/mol
# GULP energy per Si atom -5568.328407 kJ/mol
# Density = 1.167844 g / cm^3
# Si number density = 11.705086 Si / 1000 Ang^3
#
#
#
# Elastic Constant Matrix: (Units=GPa)
#
#
# Indices 1 2 3 4 5 6 
#
# 1 31.4517 23.6468 34.6241 0.0000 0.0000 0.0000
# 2 23.6468 39.2375 41.9005 0.0000 0.0000 0.0000
# 3 34.6241 41.9005 77.3984 0.0000 0.0000 0.0000
# 4 0.0000 0.0000 0.0000 21.8537 0.0000 0.0000
# 5 0.0000 0.0000 0.0000 0.0000 14.8740 0.0000
# 6 0.0000 0.0000 0.0000 0.0000 0.0000 18.2392
#
#
#
# Elastic Compliance Matrix: (Units=1/GPa)
#
#
# Indices 1 2 3 4 5 6 
#
# 1 0.068915 -0.020410 -0.019780 0.000000 0.000000 0.000000
# 2 -0.020410 0.066452 -0.026844 0.000000 0.000000 0.000000
# 3 -0.019780 -0.026844 0.036301 0.000000 0.000000 0.000000
# 4 0.000000 0.000000 0.000000 0.045759 0.000000 0.000000
# 5 0.000000 0.000000 0.000000 0.000000 0.067231 0.000000
# 6 0.000000 0.000000 0.000000 0.000000 0.000000 0.054827
#
#
# Mechanical properties :
#
#
# Convention : Reuss Voigt Hill
#
# Bulk Modulus (GPa) = 26.59564 38.71448 32.65506
# Shear Modulus (GPa) = 10.28623 14.18780 12.23702
#
# Velocity S-wave (km/s) = 2.96764 3.48531 3.23684
# Velocity P-wave (km/s) = 5.87480 7.02447 6.47520
#
# Compressibility (1/GPa) = 0.03760015
#
# Stress axis : x y z
#
# Youngs Moduli (GPa) = 14.51064 15.04846 27.54729
#
# Poissons Ratio (x) = 0.30713 0.54489
# Poissons Ratio (y) = 0.29616 0.73949
# Poissons Ratio (z) = 0.28702 0.40396
#
# Static dielectric constant tensor:
#      x y z
#    x 1.359670 0.000000 0.000000 
#    y 0.000000 1.388750 0.000000 
#    z 0.000000 0.000000 1.393120 
# 
# From -- ./inp_files/10707.got.cif
#   From: 2010.05.17/outbox.cif.g08.bks.cpg/sg63_6_cif.got.tgz:10707.got - 2010.06.03 15:47:04.
