data_PCOD9469727
_publ_section_title
;
Structure prediction by ZEFSAII (Michael W. Deem and Ramdas Pophale) SiO2 
 PCOD9469727
Probable space group: C M C M
;
_chemical_formula_sum "Si O2"
_cell_formula_units_Z 96
_cell_length_a 25.820463
_cell_length_b 26.016023
_cell_length_c 8.694322
_cell_angle_alpha 90.000000
_cell_angle_beta 90.000000
_cell_angle_gamma 90.000000
_cell_volume 5840.373933
_symmetry_space_group_name_H-M "C M C M"
_symmetry_group_IT_number 63
_symmetry_cell_setting 'orthorhombic'
loop_
_space_group_symop_operation_xyz
x,y,z
-x,-y,1/2+z
x,-y,-z
-x,y,1/2-z
-x,-y,-z
x,y,1/2-z
-x,y,z
x,-y,1/2+z
1/2+x,1/2+y,z
1/2-x,1/2-y,1/2+z
1/2+x,1/2-y,-z
1/2-x,1/2+y,1/2-z
1/2-x,1/2-y,-z
1/2+x,1/2+y,1/2-z
1/2-x,1/2+y,z
1/2+x,1/2-y,1/2+z
loop_
_atom_site_type_symbol
_atom_site_label
_atom_site_fract_x
_atom_site_fract_y
_atom_site_fract_z
Si Si1 0.330167 0.244905 0.565865
Si Si2 0.441716 0.753131 0.570241
Si Si3 0.745791 0.666589 0.066413
Si Si4 0.242226 0.054116 0.568840
Si Si5 0.942078 0.146023 0.076111
Si Si6 0.628704 0.450671 0.931790
O O1 0.325748 0.240929 0.750000
O O2 0.388719 0.231761 0.515272
O O3 0.307696 0.302308 0.523618
O O4 0.291145 0.204972 0.486364
O O5 0.437838 0.765991 0.750000
O O6 0.500000 0.769650 0.515821
O O7 0.440634 0.691814 0.543876
O O8 0.744537 0.660957 0.250000
O O9 0.756744 0.610274 0.997026
O O10 0.250686 0.053386 0.750000
O O11 0.181518 0.052606 0.526277
O O12 0.263899 0.000000 0.500000
O O13 0.932650 0.167537 0.250000
O O14 0.902297 0.101284 0.047929
O O15 0.000000 0.124216 0.076429
O O16 0.639609 0.457028 0.750000
O O17 0.599591 0.500000 0.000000
#
# Coordination Sequence:
#
# PCOD9469727 Si02
#       6
#    16  16  16  16  16  16
#     4  10  20  33  51  74  99 130 164 198 241 291
#     4  10  20  32  47  68  93 122 156 194 236 281
#     4  10  20  34  51  73 101 129 160 200 244 290
#     4  11  21  33  49  68  92 122 157 194 235 284
#     4   9  18  31  44  58  79 110 148 190 235 281
#     4  10  19  30  43  59  80 109 147 190 236 281
#
# _framework density 16.437304000000001
#
# number of rings (size 3 to 8) (size 9 to 14) (size 15 to 20)
#    0.000    2.000    0.000    5.500    0.000    8.667 
#    0.000    0.000    0.000    0.000    0.000    0.000 
#    0.000    0.667    0.000    2.500    0.000    3.833 
#
# Total GULP energy -267320.428998 kJ/mol
# GULP energy per Si atom -5569.175604 kJ/mol
# Density = 1.639989 g / cm^3
# Si number density = 16.437304 Si / 1000 Ang^3
#
#
#
# Elastic Constant Matrix: (Units=GPa)
#
#
# Indices 1 2 3 4 5 6 
#
# 1 59.1001 17.4348 14.7165 0.0000 0.0000 0.0000
# 2 17.4348 90.7675 34.2590 0.0000 0.0000 0.0000
# 3 14.7165 34.2590 64.8357 0.0000 0.0000 0.0000
# 4 0.0000 0.0000 0.0000 10.7169 0.0000 0.0000
# 5 0.0000 0.0000 0.0000 0.0000 23.1309 0.0000
# 6 0.0000 0.0000 0.0000 0.0000 0.0000 -40.2767
#
#
#
# Elastic Compliance Matrix: (Units=1/GPa)
#
#
# Indices 1 2 3 4 5 6 
#
# 1 0.018357 -0.002440 -0.002877 0.000000 0.000000 0.000000
# 2 -0.002440 0.014086 -0.006889 0.000000 0.000000 0.000000
# 3 -0.002877 -0.006889 0.019717 0.000000 0.000000 0.000000
# 4 0.000000 0.000000 0.000000 0.093311 0.000000 0.000000
# 5 0.000000 0.000000 0.000000 0.000000 0.043232 0.000000
# 6 0.000000 0.000000 0.000000 0.000000 0.000000 -0.024828
#
#
# Mechanical properties :
#
#
# Convention : Reuss Voigt Hill
#
# Bulk Modulus (GPa) = 36.04036 38.61376 37.32706
# Shear Modulus (GPa) = 25.31178 8.60042 16.95610
#
# Velocity S-wave (km/s) = 3.92841 2.28989 3.21528
# Velocity P-wave (km/s) = 6.52304 5.52576 6.04500
#
# Compressibility (1/GPa) = 0.02774667
#
# Stress axis : x y z
#
# Youngs Moduli (GPa) = 54.47588 70.99209 50.71775
#
# Poissons Ratio (x) = 0.17322 0.14593
# Poissons Ratio (y) = 0.13292 0.34941
# Poissons Ratio (z) = 0.15675 0.48908
#
# Static dielectric constant tensor:
#      x y z
#    x 1.584220 0.000000 0.000000 
#    y 0.000000 1.589830 0.000000 
#    z 0.000000 0.000000 1.549910 
# 
# From -- ./inp_files/10737.got.cif
#   From: 2010.05.17/outbox.cif.g08.bks.cpg/sg63_6_cif.got.tgz:10737.got - 2010.06.03 15:47:04.
