data_PCOD9469094
_publ_section_title
;
Structure prediction by ZEFSAII (Michael W. Deem and Ramdas Pophale) SiO2 
 PCOD9469094
Probable space group: C M C M
;
_chemical_formula_sum "Si O2"
_cell_formula_units_Z 128
_cell_length_a 13.140081
_cell_length_b 23.752249
_cell_length_c 25.471443
_cell_angle_alpha 90.000000
_cell_angle_beta 90.000000
_cell_angle_gamma 90.000000
_cell_volume 7949.802308
_symmetry_space_group_name_H-M "C M C M"
_symmetry_group_IT_number 63
_symmetry_cell_setting 'orthorhombic'
loop_
_space_group_symop_operation_xyz
x,y,z
-x,-y,1/2+z
x,-y,-z
-x,y,1/2-z
-x,-y,-z
x,y,1/2-z
-x,y,z
x,-y,1/2+z
1/2+x,1/2+y,z
1/2-x,1/2-y,1/2+z
1/2+x,1/2-y,-z
1/2-x,1/2+y,1/2-z
1/2-x,1/2-y,-z
1/2+x,1/2+y,1/2-z
1/2-x,1/2+y,z
1/2+x,1/2-y,1/2+z
loop_
_atom_site_type_symbol
_atom_site_label
_atom_site_fract_x
_atom_site_fract_y
_atom_site_fract_z
Si Si1 0.257206 0.362303 0.812118
Si Si2 0.740860 0.813620 0.107348
Si Si3 0.616561 0.583215 0.600915
Si Si4 0.619200 0.849925 0.494205
Si Si5 0.797109 0.934346 0.509757
Si Si6 0.379775 0.248268 0.691809
Si Si7 0.120725 0.048761 0.376342
Si Si8 0.882714 0.704143 0.390630
O O1 0.231387 0.366805 0.750000
O O2 0.336833 0.310704 0.818396
O O3 0.310733 0.418683 0.833907
O O4 0.166334 0.340910 0.850089
O O5 0.801453 0.871078 0.119354
O O6 0.680050 0.818407 0.052373
O O7 0.660105 0.796881 0.151077
O O8 0.820669 0.762293 0.109055
O O9 0.500000 0.597159 0.614785
O O10 0.629695 0.585200 0.537522
O O11 0.637059 0.519016 0.619754
O O12 0.500000 0.859456 0.480797
O O13 0.688248 0.904881 0.503727
O O14 0.622130 0.818055 0.549715
O O15 0.846564 0.926469 0.566782
O O16 0.783542 0.000000 0.500000
O O17 0.343823 0.232523 0.750000
O O18 0.500000 0.250912 0.690588
O O19 0.000000 0.057714 0.367637
O O20 0.000000 0.713617 0.376543
#
# Coordination Sequence:
#
# PCOD9469094 Si02
#       8
#    16  16  16  16  16  16  16  16
#     4  10  20  34  53  76 100 127 166 212 258 305
#     4  10  19  32  51  74 104 134 171 206 248 299
#     4   9  18  31  49  74 103 134 166 202 245 300
#     4  10  19  31  48  73 105 135 169 210 255 304
#     4   9  17  30  48  71 101 135 172 204 246 301
#     4   9  18  33  52  73  97 127 164 207 251 295
#     4  10  18  31  51  73 100 131 165 206 254 302
#     4  10  20  34  52  73 102 137 170 209 255 303
#
# _framework density 16.101029
#
# number of rings (size 3 to 8) (size 9 to 14) (size 15 to 20)
#    0.000    2.375    1.250    1.875    0.000    2.750 
#    0.000    0.625    0.000    2.625    0.000    0.000 
#    0.000    0.000    0.000    0.000    0.000    0.000 
#
# Total GULP energy -356390.766948 kJ/mol
# GULP energy per Si atom -5568.605734 kJ/mol
# Density = 1.606438 g / cm^3
# Si number density = 16.101029 Si / 1000 Ang^3
#
#
#
# Elastic Constant Matrix: (Units=GPa)
#
#
# Indices 1 2 3 4 5 6 
#
# 1 92.9360 21.3299 26.4120 0.0000 0.0000 0.0000
# 2 21.3299 20.6404 17.9577 0.0000 0.0000 0.0000
# 3 26.4120 17.9577 70.4517 0.0000 0.0000 0.0000
# 4 0.0000 0.0000 0.0000 25.5137 0.0000 0.0000
# 5 0.0000 0.0000 0.0000 0.0000 21.4258 0.0000
# 6 0.0000 0.0000 0.0000 0.0000 0.0000 22.4522
#
#
#
# Elastic Compliance Matrix: (Units=1/GPa)
#
#
# Indices 1 2 3 4 5 6 
#
# 1 0.014333 -0.013025 -0.002053 0.000000 0.000000 0.000000
# 2 -0.013025 0.074092 -0.014002 0.000000 0.000000 0.000000
# 3 -0.002053 -0.014002 0.018533 0.000000 0.000000 0.000000
# 4 0.000000 0.000000 0.000000 0.039195 0.000000 0.000000
# 5 0.000000 0.000000 0.000000 0.000000 0.046673 0.000000
# 6 0.000000 0.000000 0.000000 0.000000 0.000000 0.044539
#
#
# Mechanical properties :
#
#
# Convention : Reuss Voigt Hill
#
# Bulk Modulus (GPa) = 20.49366 35.04748 27.77057
# Shear Modulus (GPa) = 16.03636 21.76691 18.90164
#
# Velocity S-wave (km/s) = 3.15934 3.68080 3.43000
# Velocity P-wave (km/s) = 5.10533 6.31497 5.74209
#
# Compressibility (1/GPa) = 0.04879557
#
# Stress axis : x y z
#
# Youngs Moduli (GPa) = 69.76844 13.49680 53.95783
#
# Poissons Ratio (x) = 0.17580 0.11079
# Poissons Ratio (y) = 0.90877 0.75553
# Poissons Ratio (z) = 0.14326 0.18899
#
# Static dielectric constant tensor:
#      x y z
#    x 1.526910 0.000000 0.000000 
#    y 0.000000 1.529180 0.000000 
#    z 0.000000 0.000000 1.548980 
# 
# From -- ./inp_files/62016.got.cif
#   From: 2010.05.17/outbox.cif.g08.bks.cpg/sg63_32_cif.got.tgz:62016.got - 2010.06.03 15:47:04.
