data_PCOD9469190
_publ_section_title
;
Structure prediction by ZEFSAII (Michael W. Deem and Ramdas Pophale) SiO2 
 PCOD9469190
Probable space group: C M C M
;
_chemical_formula_sum "Si O2"
_cell_formula_units_Z 128
_cell_length_a 15.225021
_cell_length_b 23.114435
_cell_length_c 20.021024
_cell_angle_alpha 90.000000
_cell_angle_beta 90.000000
_cell_angle_gamma 90.000000
_cell_volume 7045.753885
_symmetry_space_group_name_H-M "C M C M"
_symmetry_group_IT_number 63
_symmetry_cell_setting 'orthorhombic'
loop_
_space_group_symop_operation_xyz
x,y,z
-x,-y,1/2+z
x,-y,-z
-x,y,1/2-z
-x,-y,-z
x,y,1/2-z
-x,y,z
x,-y,1/2+z
1/2+x,1/2+y,z
1/2-x,1/2-y,1/2+z
1/2+x,1/2-y,-z
1/2-x,1/2+y,1/2-z
1/2-x,1/2-y,-z
1/2+x,1/2+y,1/2-z
1/2-x,1/2+y,z
1/2+x,1/2-y,1/2+z
loop_
_atom_site_type_symbol
_atom_site_label
_atom_site_fract_x
_atom_site_fract_y
_atom_site_fract_z
Si Si1 0.642231 0.751061 0.573779
Si Si2 0.604263 0.644928 0.829057
Si Si3 0.657169 0.295547 0.569629
Si Si4 0.405765 0.880900 0.561569
Si Si5 0.714051 0.423105 0.935725
Si Si6 0.283766 0.451422 0.093812
Si Si7 0.896959 0.291058 0.323308
Si Si8 0.898946 0.403538 0.402855
O O1 0.624525 0.704469 0.631237
O O2 0.618574 0.722609 0.502213
O O3 0.744728 0.768505 0.571059
O O4 0.596875 0.813350 0.580777
O O5 0.622654 0.650349 0.750000
O O6 0.500000 0.632886 0.837131
O O7 0.662126 0.593792 0.861892
O O8 0.662576 0.364151 0.577865
O O9 0.611701 0.264787 0.631194
O O10 0.500000 0.906307 0.582859
O O11 0.315820 0.910879 0.583798
O O12 0.402045 0.885775 0.480803
O O13 0.684308 0.482492 0.901722
O O14 0.709279 0.432690 0.015880
O O15 0.178654 0.449297 0.107542
O O16 0.856502 0.285178 0.250000
O O17 0.865205 0.347257 0.362976
O O18 0.000000 0.301995 0.316251
O O19 0.000000 0.419273 0.384597
#
# Coordination Sequence:
#
# PCOD9469190 Si02
#       8
#    16  16  16  16  16  16  16  16
#     4  10  18  31  55  80 107 139 174 216 273 329
#     4  11  24  39  56  79 105 141 190 236 278 320
#     4  10  18  32  52  79 107 139 176 218 267 325
#     4   9  16  28  50  81 112 137 164 207 262 322
#     4   9  19  33  52  76 103 137 179 216 261 321
#     4  10  19  36  54  73 106 141 177 227 267 305
#     4  10  20  32  48  75 109 140 172 214 266 325
#     4   9  17  29  50  80 110 141 173 208 263 326
#
# _framework density 18.166969000000002
#
# number of rings (size 3 to 8) (size 9 to 14) (size 15 to 20)
#    0.000    2.250    2.500    1.125    0.000    3.000 
#    0.000    5.000    0.000    2.250    0.000    0.000 
#    0.000    2.000    0.000    0.000    0.000    0.000 
#
# Total GULP energy -356626.136113 kJ/mol
# GULP energy per Si atom -5572.283377 kJ/mol
# Density = 1.812562 g / cm^3
# Si number density = 18.166969 Si / 1000 Ang^3
#
#
#
# Elastic Constant Matrix: (Units=GPa)
#
#
# Indices 1 2 3 4 5 6 
#
# 1 33.3628 8.9405 5.9900 0.0000 0.0000 0.0000
# 2 8.9405 94.1581 13.9751 0.0000 0.0000 0.0000
# 3 5.9900 13.9751 31.3943 0.0000 0.0000 0.0000
# 4 0.0000 0.0000 0.0000 11.8037 0.0000 0.0000
# 5 0.0000 0.0000 0.0000 0.0000 17.1148 0.0000
# 6 0.0000 0.0000 0.0000 0.0000 0.0000 9.9854
#
#
#
# Elastic Compliance Matrix: (Units=1/GPa)
#
#
# Indices 1 2 3 4 5 6 
#
# 1 0.031474 -0.002246 -0.005006 0.000000 0.000000 0.000000
# 2 -0.002246 0.011532 -0.004705 0.000000 0.000000 0.000000
# 3 -0.005006 -0.004705 0.034902 0.000000 0.000000 0.000000
# 4 0.000000 0.000000 0.000000 0.084719 0.000000 0.000000
# 5 0.000000 0.000000 0.000000 0.000000 0.058429 0.000000
# 6 0.000000 0.000000 0.000000 0.000000 0.000000 0.100146
#
#
# Mechanical properties :
#
#
# Convention : Reuss Voigt Hill
#
# Bulk Modulus (GPa) = 18.51985 24.08071 21.30028
# Shear Modulus (GPa) = 13.76979 16.44809 15.10894
#
# Velocity S-wave (km/s) = 2.75609 3.01222 2.88700
# Velocity P-wave (km/s) = 4.51048 5.03805 4.78155
#
# Compressibility (1/GPa) = 0.05399612
#
# Stress axis : x y z
#
# Youngs Moduli (GPa) = 31.77226 86.71543 28.65133
#
# Poissons Ratio (x) = 0.19473 0.14342
# Poissons Ratio (y) = 0.07135 0.13480
# Poissons Ratio (z) = 0.15904 0.40799
#
# Static dielectric constant tensor:
#      x y z
#    x 1.688530 0.000000 0.000000 
#    y 0.000000 1.614440 0.000000 
#    z 0.000000 0.000000 1.598000 
# 
# From -- ./inp_files/56074.got.cif
#   From: 2010.05.17/outbox.cif.g08.bks.cpg/sg63_29_cif.got.tgz:56074.got - 2010.06.03 15:47:04.
