data_PCOD9469269
_publ_section_title
;
Structure prediction by ZEFSAII (Michael W. Deem and Ramdas Pophale) SiO2 
 PCOD9469269
Probable space group: C M C M
;
_chemical_formula_sum "Si O2"
_cell_formula_units_Z 80
_cell_length_a 18.040666
_cell_length_b 14.527481
_cell_length_c 15.734445
_cell_angle_alpha 90.000000
_cell_angle_beta 90.000000
_cell_angle_gamma 90.000000
_cell_volume 4123.768824
_symmetry_space_group_name_H-M "C M C M"
_symmetry_group_IT_number 63
_symmetry_cell_setting 'orthorhombic'
loop_
_space_group_symop_operation_xyz
x,y,z
-x,-y,1/2+z
x,-y,-z
-x,y,1/2-z
-x,-y,-z
x,y,1/2-z
-x,y,z
x,-y,1/2+z
1/2+x,1/2+y,z
1/2-x,1/2-y,1/2+z
1/2+x,1/2-y,-z
1/2-x,1/2+y,1/2-z
1/2-x,1/2-y,-z
1/2+x,1/2+y,1/2-z
1/2-x,1/2+y,z
1/2+x,1/2-y,1/2+z
loop_
_atom_site_type_symbol
_atom_site_label
_atom_site_fract_x
_atom_site_fract_y
_atom_site_fract_z
Si Si1 0.783054 0.925705 0.658336
Si Si2 0.674506 0.109466 0.491765
Si Si3 0.267587 0.352986 0.154758
Si Si4 0.916710 0.235406 0.917639
Si Si5 0.582719 0.581115 0.059464
O O1 0.755422 0.894934 0.750000
O O2 0.737576 0.884828 0.580549
O O3 0.867739 0.901647 0.640607
O O4 0.779468 0.036494 0.655765
O O5 0.708604 0.155565 0.577306
O O6 0.605613 0.165186 0.454102
O O7 0.659532 0.000000 0.500000
O O8 0.241628 0.327105 0.250000
O O9 0.346455 0.303459 0.135858
O O10 0.000000 0.233971 0.878865
O O11 0.919435 0.168422 0.998925
O O12 0.500000 0.551171 0.082600
O O13 0.616163 0.500000 0.000000
#
# Coordination Sequence:
#
# PCOD9469269 Si02
#       5
#    16  16  16  16  16
#     4  10  19  33  56  83 112 151 191 230 284 342
#     4  10  21  40  58  81 116 150 194 243 282 329
#     4  10  20  35  58  86 113 146 190 237 287 340
#     4  11  22  36  57  83 113 151 191 233 288 342
#     4  10  18  32  52  76 112 149 180 227 286 342
#
# _framework density 19.399730000000002
#
# number of rings (size 3 to 8) (size 9 to 14) (size 15 to 20)
#    0.000    1.800    4.000    1.200    0.000    2.000 
#    0.000    2.000    0.000    1.800    0.000    5.600 
#    0.000    0.000    0.000    0.000    0.000    0.000 
#
# Total GULP energy -222969.313443 kJ/mol
# GULP energy per Si atom -5574.232836 kJ/mol
# Density = 1.935557 g / cm^3
# Si number density = 19.399730 Si / 1000 Ang^3
#
#
#
# Elastic Constant Matrix: (Units=GPa)
#
#
# Indices 1 2 3 4 5 6 
#
# 1 43.3754 19.9507 8.4396 0.0000 0.0000 0.0000
# 2 19.9507 72.7557 13.3201 0.0000 0.0000 0.0000
# 3 8.4396 13.3201 91.3410 0.0000 0.0000 0.0000
# 4 0.0000 0.0000 0.0000 4.9160 0.0000 0.0000
# 5 0.0000 0.0000 0.0000 0.0000 5.4993 0.0000
# 6 0.0000 0.0000 0.0000 0.0000 0.0000 22.3519
#
#
#
# Elastic Compliance Matrix: (Units=1/GPa)
#
#
# Indices 1 2 3 4 5 6 
#
# 1 0.026563 -0.007022 -0.001430 0.000000 0.000000 0.000000
# 2 -0.007022 0.015978 -0.001681 0.000000 0.000000 0.000000
# 3 -0.001430 -0.001681 0.011325 0.000000 0.000000 0.000000
# 4 0.000000 0.000000 0.000000 0.203418 0.000000 0.000000
# 5 0.000000 0.000000 0.000000 0.000000 0.181841 0.000000
# 6 0.000000 0.000000 0.000000 0.000000 0.000000 0.044739
#
#
# Mechanical properties :
#
#
# Convention : Reuss Voigt Hill
#
# Bulk Modulus (GPa) = 29.76290 32.32141 31.04216
# Shear Modulus (GPa) = 9.70251 17.60421 13.65336
#
# Velocity S-wave (km/s) = 2.23880 3.01565 2.65578
# Velocity P-wave (km/s) = 4.69661 5.36866 5.04384
#
# Compressibility (1/GPa) = 0.03359887
#
# Stress axis : x y z
#
# Youngs Moduli (GPa) = 37.64687 62.58616 88.29778
#
# Poissons Ratio (x) = 0.43948 0.12629
# Poissons Ratio (y) = 0.26436 0.14845
# Poissons Ratio (z) = 0.05385 0.10522
#
# Static dielectric constant tensor:
#      x y z
#    x 1.695460 0.000000 0.000000 
#    y 0.000000 1.726090 0.000000 
#    z 0.000000 0.000000 1.714550 
# 
# From -- ./inp_files/35124.got.cif
#   From: 2010.05.17/outbox.cif.g08.bks.cpg/sg63_18_cif.got.tgz:35124.got - 2010.06.03 15:47:04.
