data_PCOD9469337
_publ_section_title
;
Structure prediction by ZEFSAII (Michael W. Deem and Ramdas Pophale) SiO2 
 PCOD9469337
Probable space group: C M C M
;
_chemical_formula_sum "Si O2"
_cell_formula_units_Z 64
_cell_length_a 15.175561
_cell_length_b 10.019940
_cell_length_c 20.542377
_cell_angle_alpha 90.000000
_cell_angle_beta 90.000000
_cell_angle_gamma 90.000000
_cell_volume 3123.637090
_symmetry_space_group_name_H-M "C M C M"
_symmetry_group_IT_number 63
_symmetry_cell_setting 'orthorhombic'
loop_
_space_group_symop_operation_xyz
x,y,z
-x,-y,1/2+z
x,-y,-z
-x,y,1/2-z
-x,-y,-z
x,y,1/2-z
-x,y,z
x,-y,1/2+z
1/2+x,1/2+y,z
1/2-x,1/2-y,1/2+z
1/2+x,1/2-y,-z
1/2-x,1/2+y,1/2-z
1/2-x,1/2-y,-z
1/2+x,1/2+y,1/2-z
1/2-x,1/2+y,z
1/2+x,1/2-y,1/2+z
loop_
_atom_site_type_symbol
_atom_site_label
_atom_site_fract_x
_atom_site_fract_y
_atom_site_fract_z
Si Si1 0.899144 0.070999 0.910351
Si Si2 0.164693 0.193974 0.036936
Si Si3 0.392454 0.186989 0.176050
Si Si4 0.105762 0.534828 0.926343
O O1 0.867864 0.169570 0.853824
O O2 0.000000 0.025837 0.898343
O O3 0.836194 0.946051 0.924973
O O4 0.899660 0.160561 0.976165
O O5 0.133248 0.312559 0.083228
O O6 0.250000 0.250000 0.000000
O O7 0.362895 0.168595 0.250000
O O8 0.500000 0.185694 0.175722
O O9 0.362771 0.070736 0.127008
O O10 0.000000 0.527867 0.926298
O O11 0.135219 0.500000 0.000000
#
# Coordination Sequence:
#
# PCOD9469337 Si02
#       4
#    16  16  16  16
#     4  10  20  36  56  79 111 149 189 230 282 342
#     4  11  22  32  53  83 114 143 183 238 285 332
#     4   9  18  33  56  84 113 147 188 234 285 343
#     4  10  18  32  55  84 112 143 184 234 289 338
#
# _framework density 20.488935999999999
#
# number of rings (size 3 to 8) (size 9 to 14) (size 15 to 20)
#    0.000    2.000    2.500    3.000    3.500    0.000 
#    0.000    1.250    0.000   12.000    0.000    0.000 
#    0.000    0.000    0.000    0.000    0.000    0.750 
#
# Total GULP energy -178595.619081 kJ/mol
# GULP energy per Si atom -5581.113096 kJ/mol
# Density = 2.044230 g / cm^3
# Si number density = 20.488936 Si / 1000 Ang^3
#
#
#
# Elastic Constant Matrix: (Units=GPa)
#
#
# Indices 1 2 3 4 5 6 
#
# 1 64.8628 42.4966 21.8300 0.0000 0.0000 0.0000
# 2 42.4966 175.7958 92.3607 0.0000 0.0000 0.0000
# 3 21.8300 92.3607 145.8247 0.0000 0.0000 0.0000
# 4 0.0000 0.0000 0.0000 31.1982 0.0000 0.0000
# 5 0.0000 0.0000 0.0000 0.0000 11.5938 0.0000
# 6 0.0000 0.0000 0.0000 0.0000 0.0000 16.1637
#
#
#
# Elastic Compliance Matrix: (Units=1/GPa)
#
#
# Indices 1 2 3 4 5 6 
#
# 1 0.018319 -0.004478 0.000094 0.000000 0.000000 0.000000
# 2 -0.004478 0.009620 -0.005423 0.000000 0.000000 0.000000
# 3 0.000094 -0.005423 0.010278 0.000000 0.000000 0.000000
# 4 0.000000 0.000000 0.000000 0.032053 0.000000 0.000000
# 5 0.000000 0.000000 0.000000 0.000000 0.086253 0.000000
# 6 0.000000 0.000000 0.000000 0.000000 0.000000 0.061867
#
#
# Mechanical properties :
#
#
# Convention : Reuss Voigt Hill
#
# Bulk Modulus (GPa) = 53.75223 77.76201 65.75712
# Shear Modulus (GPa) = 20.47462 27.11088 23.79275
#
# Velocity S-wave (km/s) = 3.16460 3.64152 3.41141
# Velocity P-wave (km/s) = 6.29640 7.46435 6.90511
#
# Compressibility (1/GPa) = 0.01860388
#
# Stress axis : x y z
#
# Youngs Moduli (GPa) = 54.58715 103.95251 97.29510
#
# Poissons Ratio (x) = 0.46546 -0.00911
# Poissons Ratio (y) = 0.24442 0.52759
# Poissons Ratio (z) = -0.00511 0.56369
#
# Static dielectric constant tensor:
#      x y z
#    x 1.778300 0.000000 0.000000 
#    y 0.000000 1.777100 0.000000 
#    z 0.000000 0.000000 1.711410 
# 
# From -- ./inp_files/63422.got.cif
#   From: 2010.05.17/outbox.cif.g08.bks.cpg/sg63_32_cif.got.tgz:63422.got - 2010.06.03 15:47:04.
