data_PCOD9469696
_publ_section_title
;
Structure prediction by ZEFSAII (Michael W. Deem and Ramdas Pophale) SiO2 
 PCOD9469696
Probable space group: C M C M
;
_chemical_formula_sum "Si O2"
_cell_formula_units_Z 100
_cell_length_a 14.484487
_cell_length_b 15.064174
_cell_length_c 20.670511
_cell_angle_alpha 90.000000
_cell_angle_beta 90.000000
_cell_angle_gamma 90.000000
_cell_volume 4510.240026
_symmetry_space_group_name_H-M "C M C M"
_symmetry_group_IT_number 63
_symmetry_cell_setting 'orthorhombic'
loop_
_space_group_symop_operation_xyz
x,y,z
-x,-y,1/2+z
x,-y,-z
-x,y,1/2-z
-x,-y,-z
x,y,1/2-z
-x,y,z
x,-y,1/2+z
1/2+x,1/2+y,z
1/2-x,1/2-y,1/2+z
1/2+x,1/2-y,-z
1/2-x,1/2+y,1/2-z
1/2-x,1/2-y,-z
1/2+x,1/2+y,1/2-z
1/2-x,1/2+y,z
1/2+x,1/2-y,1/2+z
loop_
_atom_site_type_symbol
_atom_site_label
_atom_site_fract_x
_atom_site_fract_y
_atom_site_fract_z
Si Si1 0.139545 0.128150 0.322471
Si Si2 0.361668 0.082289 0.853276
Si Si3 0.134972 0.229595 0.578813
Si Si4 0.636219 0.881618 0.675957
Si Si5 0.642767 0.422750 0.324186
Si Si6 0.358584 0.237488 0.934586
Si Si7 0.000000 0.654520 0.750000
O O1 0.108723 0.156305 0.250000
O O2 0.251648 0.125910 0.322040
O O3 0.109290 0.193652 0.379218
O O4 0.113021 0.025081 0.332155
O O5 0.254246 0.082456 0.832139
O O6 0.377378 0.133741 0.920227
O O7 0.420028 0.141134 0.804903
O O8 0.389793 0.980323 0.846389
O O9 0.104344 0.310287 0.624167
O O10 0.109624 0.141924 0.619239
O O11 0.246657 0.239199 0.571820
O O12 0.106055 0.233830 0.504474
O O13 0.605569 0.867467 0.750000
O O14 0.620237 0.395465 0.250000
#
# Coordination Sequence:
#
# PCOD9469696 Si02
#       7
#    16  16  16  16  16  16   4
#     4   8  15  24  42  62  94 122 149 172 235 283
#     4  10  19  29  46  63  95 118 166 199 238 259
#     4   9  17  26  43  63  95 122 155 174 232 291
#     4   9  15  27  42  64  83 120 154 195 226 282
#     4   9  15  28  44  70  97 128 145 188 228 289
#     4   9  18  28  39  66  92 128 148 186 227 291
#     4  12  20  32  48  70  80 128 170 218 228 262
#
# _framework density 22.171769000000001
#
# number of rings (size 3 to 8) (size 9 to 14) (size 15 to 20)
#    0.000    2.880    1.600    1.440    1.120    3.200 
#    0.000    6.400    0.000    1.920    0.000    0.000 
#    0.000    5.120    0.000    0.640    0.000    0.000 
#
# Total GULP energy -278499.987323 kJ/mol
# GULP energy per Si atom -5569.999746 kJ/mol
# Density = 2.212130 g / cm^3
# Si number density = 22.171769 Si / 1000 Ang^3
#
#
#
# Elastic Constant Matrix: (Units=GPa)
#
#
# Indices 1 2 3 4 5 6 
#
# 1 91.1376 -1.8555 3.4573 0.0000 0.0000 0.0000
# 2 -1.8555 131.6508 132.6593 0.0000 0.0000 0.0000
# 3 3.4573 132.6593 208.2804 0.0000 0.0000 0.0000
# 4 0.0000 0.0000 0.0000 17.5836 0.0000 0.0000
# 5 0.0000 0.0000 0.0000 0.0000 -0.4327 0.0000
# 6 0.0000 0.0000 0.0000 0.0000 0.0000 -30.6463
#
#
#
# Elastic Compliance Matrix: (Units=1/GPa)
#
#
# Indices 1 2 3 4 5 6 
#
# 1 0.011022 0.000948 -0.000787 0.000000 0.000000 0.000000
# 2 0.000948 0.021288 -0.013574 0.000000 0.000000 0.000000
# 3 -0.000787 -0.013574 0.013460 0.000000 0.000000 0.000000
# 4 0.000000 0.000000 0.000000 0.056871 0.000000 0.000000
# 5 0.000000 0.000000 0.000000 0.000000 -2.310856 0.000000
# 6 0.000000 0.000000 0.000000 0.000000 0.000000 -0.032630
#
#
# Mechanical properties :
#
#
# Convention : Reuss Voigt Hill
#
# Bulk Modulus (GPa) = 52.78908 77.73233 65.26071
# Shear Modulus (GPa) = -2.26479 17.08809 7.41165
#
# Velocity S-wave (km/s) = -1.01178 2.77918 1.83032
# Velocity P-wave (km/s) = 4.74298 6.74046 5.82794
#
# Compressibility (1/GPa) = 0.01894331
#
# Stress axis : x y z
#
# Youngs Moduli (GPa) = 90.73113 46.97579 74.29339
#
# Poissons Ratio (x) = -0.04455 0.05847
# Poissons Ratio (y) = -0.08604 1.00848
# Poissons Ratio (z) = 0.07140 0.63767
#
# Static dielectric constant tensor:
#      x y z
#    x 1.872180 0.000000 0.000000 
#    y 0.000000 1.812770 0.000000 
#    z 0.000000 0.000000 1.806170 
# 
# From -- ./inp_files/55613.got.cif
#   From: 2010.05.17/outbox.cif.g08.bks.cpg/sg63_28_cif.got.tgz:55613.got - 2010.06.03 15:47:04.
