data_PCOD9469634
_publ_section_title
;
Structure prediction by ZEFSAII (Michael W. Deem and Ramdas Pophale) SiO2 
 PCOD9469634
Probable space group: C M C M
;
_chemical_formula_sum "Si O2"
_cell_formula_units_Z 80
_cell_length_a 28.969495
_cell_length_b 23.556003
_cell_length_c 8.955506
_cell_angle_alpha 90.000000
_cell_angle_beta 90.000000
_cell_angle_gamma 90.000000
_cell_volume 6111.286649
_symmetry_space_group_name_H-M "C M C M"
_symmetry_group_IT_number 63
_symmetry_cell_setting 'orthorhombic'
loop_
_space_group_symop_operation_xyz
x,y,z
-x,-y,1/2+z
x,-y,-z
-x,y,1/2-z
-x,-y,-z
x,y,1/2-z
-x,y,z
x,-y,1/2+z
1/2+x,1/2+y,z
1/2-x,1/2-y,1/2+z
1/2+x,1/2-y,-z
1/2-x,1/2+y,1/2-z
1/2-x,1/2-y,-z
1/2+x,1/2+y,1/2-z
1/2-x,1/2+y,z
1/2+x,1/2-y,1/2+z
loop_
_atom_site_type_symbol
_atom_site_label
_atom_site_fract_x
_atom_site_fract_y
_atom_site_fract_z
Si Si1 0.821914 0.233172 0.420499
Si Si2 0.776816 0.332621 0.921329
Si Si3 0.780405 0.061834 0.069467
Si Si4 0.945298 0.938896 0.573125
Si Si5 0.366067 0.630032 0.572092
O O1 0.838170 0.233156 0.250000
O O2 0.811737 0.296126 0.480075
O O3 0.772086 0.201316 0.422798
O O4 0.854402 0.194130 0.521860
O O5 0.792849 0.333568 0.750000
O O6 0.761962 0.395724 0.968683
O O7 0.784283 0.060048 0.250000
O O8 0.826467 0.090455 0.001988
O O9 0.774580 0.000000 0.000000
O O10 0.935318 0.940625 0.750000
O O11 0.914201 0.892130 0.493028
O O12 0.000000 0.928908 0.553503
O O13 0.934458 0.000000 0.500000
O O14 0.364306 0.624707 0.750000
#
# Coordination Sequence:
#
# PCOD9469634 Si02
#       5
#    16  16  16  16  16
#     4   9  16  26  40  56  73  93 120 153 187 223
#     4   8  15  26  38  53  73  96 121 151 186 222
#     4  10  19  29  40  55  76 100 128 159 190 225
#     4  10  20  33  46  58  74  96 123 156 194 234
#     4  11  20  29  42  57  75  97 124 158 193 229
#
# _framework density 13.090533000000001
#
# number of rings (size 3 to 8) (size 9 to 14) (size 15 to 20)
#    0.000    2.400    0.000    5.400    0.000    6.800 
#    0.000    0.000    0.000    0.000    0.000    0.000 
#    0.000    0.000    0.000    0.000    0.000    1.000 
#
# Total GULP energy -222915.203301 kJ/mol
# GULP energy per Si atom -5572.880083 kJ/mol
# Density = 1.306074 g / cm^3
# Si number density = 13.090533 Si / 1000 Ang^3
#
#
#
# Elastic Constant Matrix: (Units=GPa)
#
#
# Indices 1 2 3 4 5 6 
#
# 1 33.9026 27.2808 34.8347 0.0000 0.0000 0.0000
# 2 27.2808 72.8259 44.2021 0.0000 0.0000 0.0000
# 3 34.8347 44.2021 94.1641 0.0000 0.0000 0.0000
# 4 0.0000 0.0000 0.0000 21.5309 0.0000 0.0000
# 5 0.0000 0.0000 0.0000 0.0000 16.9988 0.0000
# 6 0.0000 0.0000 0.0000 0.0000 0.0000 19.3588
#
#
#
# Elastic Compliance Matrix: (Units=1/GPa)
#
#
# Indices 1 2 3 4 5 6 
#
# 1 0.053412 -0.011209 -0.014497 0.000000 0.000000 0.000000
# 2 -0.011209 0.021555 -0.005971 0.000000 0.000000 0.000000
# 3 -0.014497 -0.005971 0.018786 0.000000 0.000000 0.000000
# 4 0.000000 0.000000 0.000000 0.046445 0.000000 0.000000
# 5 0.000000 0.000000 0.000000 0.000000 0.058828 0.000000
# 6 0.000000 0.000000 0.000000 0.000000 0.000000 0.051656
#
#
# Mechanical properties :
#
#
# Convention : Reuss Voigt Hill
#
# Bulk Modulus (GPa) = 32.89810 45.94754 39.42282
# Shear Modulus (GPa) = 15.42403 17.88269 16.65336
#
# Velocity S-wave (km/s) = 3.43630 3.70006 3.57062
# Velocity P-wave (km/s) = 6.39765 7.30958 6.86877
#
# Compressibility (1/GPa) = 0.03039690
#
# Stress axis : x y z
#
# Youngs Moduli (GPa) = 18.72242 46.39345 53.23133
#
# Poissons Ratio (x) = 0.52003 0.77171
# Poissons Ratio (y) = 0.20986 0.31787
# Poissons Ratio (z) = 0.27142 0.27704
#
# Static dielectric constant tensor:
#      x y z
#    x 1.407570 0.000000 0.000000 
#    y 0.000000 1.435420 0.000000 
#    z 0.000000 0.000000 1.441890 
# 
# From -- ./inp_files/14554.got.cif
#   From: 2010.05.17/outbox.cif.g08.bks.cpg/sg63_8_cif.got.tgz:14554.got - 2010.06.03 15:47:04.
