data_PCOD9469140
_publ_section_title
;
Structure prediction by ZEFSAII (Michael W. Deem and Ramdas Pophale) SiO2 
 PCOD9469140
Probable space group: C M C M
;
_chemical_formula_sum "Si O2"
_cell_formula_units_Z 96
_cell_length_a 15.455870
_cell_length_b 12.152098
_cell_length_c 24.611426
_cell_angle_alpha 90.000000
_cell_angle_beta 90.000000
_cell_angle_gamma 90.000000
_cell_volume 4622.548720
_symmetry_space_group_name_H-M "C M C M"
_symmetry_group_IT_number 63
_symmetry_cell_setting 'orthorhombic'
loop_
_space_group_symop_operation_xyz
x,y,z
-x,-y,1/2+z
x,-y,-z
-x,y,1/2-z
-x,-y,-z
x,y,1/2-z
-x,y,z
x,-y,1/2+z
1/2+x,1/2+y,z
1/2-x,1/2-y,1/2+z
1/2+x,1/2-y,-z
1/2-x,1/2+y,1/2-z
1/2-x,1/2-y,-z
1/2+x,1/2+y,1/2-z
1/2-x,1/2+y,z
1/2+x,1/2-y,1/2+z
loop_
_atom_site_type_symbol
_atom_site_label
_atom_site_fract_x
_atom_site_fract_y
_atom_site_fract_z
Si Si1 0.823382 0.540692 0.919871
Si Si2 0.726501 0.305537 0.687772
Si Si3 0.101979 0.593847 0.809673
Si Si4 0.653571 0.322271 0.108141
Si Si5 0.162621 0.317286 0.513856
Si Si6 0.904935 0.001614 0.313203
O O1 0.868111 0.526003 0.861801
O O2 0.729664 0.595128 0.911490
O O3 0.817097 0.427135 0.951874
O O4 0.873024 0.632005 0.957561
O O5 0.758273 0.313799 0.750000
O O6 0.656539 0.206262 0.687146
O O7 0.798967 0.269409 0.645314
O O8 0.672603 0.414726 0.673801
O O9 0.120959 0.544171 0.750000
O O10 0.000000 0.614913 0.812419
O O11 0.613163 0.263515 0.055380
O O12 0.597750 0.396986 0.147873
O O13 0.250000 0.250000 0.500000
O O14 0.893496 0.968846 0.250000
O O15 0.000000 0.055515 0.317637
#
# Coordination Sequence:
#
# PCOD9469140 Si02
#       6
#    16  16  16  16  16  16
#     4   9  18  33  53  78 102 132 178 226 266 317
#     4   9  17  30  51  77 105 142 187 228 268 324
#     4   9  17  31  52  78 107 137 172 219 273 324
#     4  10  18  31  52  77 102 135 181 232 276 321
#     4   9  18  33  52  73  99 134 176 221 267 317
#     4  10  20  33  49  74 111 149 182 223 278 332
#
# _framework density 20.767762999999999
#
# number of rings (size 3 to 8) (size 9 to 14) (size 15 to 20)
#    0.000    2.667    0.000    2.000    0.000    2.667 
#    0.000    5.000    0.000    3.000    0.000   30.333 
#    0.000    0.000    0.000    0.000    0.000    0.000 
#
# Total GULP energy -267564.655881 kJ/mol
# GULP energy per Si atom -5574.263664 kJ/mol
# Density = 2.072049 g / cm^3
# Si number density = 20.767763 Si / 1000 Ang^3
#
#
#
# Elastic Constant Matrix: (Units=GPa)
#
#
# Indices 1 2 3 4 5 6 
#
# 1 32.9752 0.2493 14.5764 0.0000 0.0000 0.0000
# 2 0.2493 58.7756 33.6980 0.0000 0.0000 0.0000
# 3 14.5764 33.6980 108.3032 0.0000 0.0000 0.0000
# 4 0.0000 0.0000 0.0000 38.2148 0.0000 0.0000
# 5 0.0000 0.0000 0.0000 0.0000 10.8817 0.0000
# 6 0.0000 0.0000 0.0000 0.0000 0.0000 10.3012
#
#
#
# Elastic Compliance Matrix: (Units=1/GPa)
#
#
# Indices 1 2 3 4 5 6 
#
# 1 0.032645 0.002897 -0.005295 0.000000 0.000000 0.000000
# 2 0.002897 0.020965 -0.006913 0.000000 0.000000 0.000000
# 3 -0.005295 -0.006913 0.012097 0.000000 0.000000 0.000000
# 4 0.000000 0.000000 0.000000 0.026168 0.000000 0.000000
# 5 0.000000 0.000000 0.000000 0.000000 0.091898 0.000000
# 6 0.000000 0.000000 0.000000 0.000000 0.000000 0.097076
#
#
# Mechanical properties :
#
#
# Convention : Reuss Voigt Hill
#
# Bulk Modulus (GPa) = 21.23824 33.01129 27.12476
# Shear Modulus (GPa) = 15.86472 21.98155 18.92314
#
# Velocity S-wave (km/s) = 2.76689 3.25691 3.02185
# Velocity P-wave (km/s) = 4.52287 5.48390 5.02641
#
# Compressibility (1/GPa) = 0.04708489
#
# Stress axis : x y z
#
# Youngs Moduli (GPa) = 30.63300 47.69833 82.66515
#
# Poissons Ratio (x) = -0.13820 0.43772
# Poissons Ratio (y) = -0.08876 0.57148
# Poissons Ratio (z) = 0.16221 0.32975
#
# Static dielectric constant tensor:
#      x y z
#    x 1.726410 0.000000 0.000000 
#    y 0.000000 1.740690 0.000000 
#    z 0.000000 0.000000 1.810400 
# 
# From -- ./inp_files/63695.got.cif
#   From: 2010.05.17/outbox.cif.g08.bks.cpg/sg63_32_cif.got.tgz:63695.got - 2010.06.03 15:47:04.
