data_PCOD9469118
_publ_section_title
;
Structure prediction by ZEFSAII (Michael W. Deem and Ramdas Pophale) SiO2 
 PCOD9469118
Probable space group: C M C M
;
_chemical_formula_sum "Si O2"
_cell_formula_units_Z 88
_cell_length_a 20.867954
_cell_length_b 26.746662
_cell_length_c 9.018238
_cell_angle_alpha 90.000000
_cell_angle_beta 90.000000
_cell_angle_gamma 90.000000
_cell_volume 5033.512516
_symmetry_space_group_name_H-M "C M C M"
_symmetry_group_IT_number 63
_symmetry_cell_setting 'orthorhombic'
loop_
_space_group_symop_operation_xyz
x,y,z
-x,-y,1/2+z
x,-y,-z
-x,y,1/2-z
-x,-y,-z
x,y,1/2-z
-x,y,z
x,-y,1/2+z
1/2+x,1/2+y,z
1/2-x,1/2-y,1/2+z
1/2+x,1/2-y,-z
1/2-x,1/2+y,1/2-z
1/2-x,1/2-y,-z
1/2+x,1/2+y,1/2-z
1/2-x,1/2+y,z
1/2+x,1/2-y,1/2+z
loop_
_atom_site_type_symbol
_atom_site_label
_atom_site_fract_x
_atom_site_fract_y
_atom_site_fract_z
Si Si1 0.500000 0.944058 0.428697
Si Si2 0.368785 0.334313 0.573341
Si Si3 0.729151 0.140682 0.073196
Si Si4 0.867579 0.284180 0.426092
Si Si5 0.000000 0.164009 0.919383
Si Si6 0.128941 0.445703 0.927052
Si Si7 0.000000 0.714217 0.079690
O O1 0.500000 0.945114 0.250000
O O2 0.434066 0.922584 0.493912
O O3 0.500000 0.000000 0.500000
O O4 0.376368 0.339681 0.750000
O O5 0.303143 0.360897 0.525663
O O6 0.359901 0.274991 0.542774
O O7 0.434213 0.351662 0.497516
O O8 0.728623 0.150969 0.250000
O O9 0.689330 0.090128 0.048775
O O10 0.690624 0.184675 0.993022
O O11 0.870832 0.290789 0.250000
O O12 0.934768 0.300818 0.498574
O O13 0.000000 0.147946 0.750000
O O14 0.000000 0.224920 0.922945
O O15 0.117398 0.450684 0.750000
O O16 0.139514 0.500000 0.000000
O O17 0.000000 0.697389 0.250000
#
# Coordination Sequence:
#
# PCOD9469118 Si02
#       7
#     8  16  16  16   8  16   8
#     4  10  18  31  52  73  94 123 159 199 240 281
#     4   9  18  33  50  70  97 129 161 193 232 282
#     4  10  21  34  49  70  97 129 161 192 237 291
#     4  10  19  30  47  70  97 127 162 202 237 272
#     4   9  17  29  48  72  94 123 161 198 235 276
#     4  10  20  35  53  72  95 124 159 199 239 281
#     4   9  17  30  46  63  92 132 168 199 234 277
#
# _framework density 17.482821999999999
#
# number of rings (size 3 to 8) (size 9 to 14) (size 15 to 20)
#    0.000    2.364    0.000    4.091    0.000    5.818 
#    0.000    0.909    0.000    0.000    0.000    0.636 
#    0.000    0.000    0.000    0.000    0.000    0.000 
#
# Total GULP energy -245527.895336 kJ/mol
# GULP energy per Si atom -5580.179439 kJ/mol
# Density = 1.744303 g / cm^3
# Si number density = 17.482822 Si / 1000 Ang^3
#
#
#
# Elastic Constant Matrix: (Units=GPa)
#
#
# Indices 1 2 3 4 5 6 
#
# 1 195.3545 45.9322 77.1731 0.0000 0.0000 0.0000
# 2 45.9322 36.6856 40.0539 0.0000 0.0000 0.0000
# 3 77.1731 40.0539 78.2323 0.0000 0.0000 0.0000
# 4 0.0000 0.0000 0.0000 15.5774 0.0000 0.0000
# 5 0.0000 0.0000 0.0000 0.0000 27.6383 0.0000
# 6 0.0000 0.0000 0.0000 0.0000 0.0000 78.3586
#
#
#
# Elastic Compliance Matrix: (Units=1/GPa)
#
#
# Indices 1 2 3 4 5 6 
#
# 1 0.008571 -0.003401 -0.006713 0.000000 0.000000 0.000000
# 2 -0.003401 0.063160 -0.028982 0.000000 0.000000 0.000000
# 3 -0.006713 -0.028982 0.034243 0.000000 0.000000 0.000000
# 4 0.000000 0.000000 0.000000 0.064195 0.000000 0.000000
# 5 0.000000 0.000000 0.000000 0.000000 0.036182 0.000000
# 6 0.000000 0.000000 0.000000 0.000000 0.000000 0.012762
#
#
# Mechanical properties :
#
#
# Convention : Reuss Voigt Hill
#
# Bulk Modulus (GPa) = 35.99564 70.73232 53.36398
# Shear Modulus (GPa) = 16.30970 34.12242 25.21606
#
# Velocity S-wave (km/s) = 3.05765 4.42268 3.80193
# Velocity P-wave (km/s) = 5.75322 8.16248 7.06136
#
# Compressibility (1/GPa) = 0.02778114
#
# Stress axis : x y z
#
# Youngs Moduli (GPa) = 116.67811 15.83272 29.20301
#
# Poissons Ratio (x) = 0.05385 0.19604
# Poissons Ratio (y) = 0.39686 0.84636
# Poissons Ratio (z) = 0.78327 0.45886
#
# Static dielectric constant tensor:
#      x y z
#    x 1.611910 0.000000 0.000000 
#    y 0.000000 1.597350 0.000000 
#    z 0.000000 0.000000 1.587240 
# 
# From -- ./inp_files/9029.got.cif
#   From: 2010.05.17/outbox.cif.g08.bks.cpg/sg63_5_cif.got.tgz:9029.got - 2010.06.03 15:47:04.
