data_PCOD9469109
_publ_section_title
;
Structure prediction by ZEFSAII (Michael W. Deem and Ramdas Pophale) SiO2 
 PCOD9469109
Probable space group: C M C M
;
_chemical_formula_sum "Si O2"
_cell_formula_units_Z 96
_cell_length_a 15.365284
_cell_length_b 19.519892
_cell_length_c 17.866889
_cell_angle_alpha 90.000000
_cell_angle_beta 90.000000
_cell_angle_gamma 90.000000
_cell_volume 5358.792509
_symmetry_space_group_name_H-M "C M C M"
_symmetry_group_IT_number 63
_symmetry_cell_setting 'orthorhombic'
loop_
_space_group_symop_operation_xyz
x,y,z
-x,-y,1/2+z
x,-y,-z
-x,y,1/2-z
-x,-y,-z
x,y,1/2-z
-x,y,z
x,-y,1/2+z
1/2+x,1/2+y,z
1/2-x,1/2-y,1/2+z
1/2+x,1/2-y,-z
1/2-x,1/2+y,1/2-z
1/2-x,1/2-y,-z
1/2+x,1/2+y,1/2-z
1/2-x,1/2+y,z
1/2+x,1/2-y,1/2+z
loop_
_atom_site_type_symbol
_atom_site_label
_atom_site_fract_x
_atom_site_fract_y
_atom_site_fract_z
Si Si1 0.220193 0.337495 0.162885
Si Si2 0.200262 0.820598 0.489532
Si Si3 0.598510 0.554040 0.335275
Si Si4 0.902976 0.210584 0.123421
Si Si5 0.099690 0.529529 0.839146
Si Si6 0.734090 0.047445 0.071044
O O1 0.248141 0.341825 0.250000
O O2 0.293988 0.339158 0.098131
O O3 0.165677 0.267069 0.150841
O O4 0.154891 0.401028 0.146875
O O5 0.250000 0.750000 0.500000
O O6 0.111747 0.808275 0.535621
O O7 0.251540 0.877239 0.538172
O O8 0.608548 0.530249 0.250000
O O9 0.500000 0.537711 0.361076
O O10 0.606062 0.637050 0.336587
O O11 0.676884 0.527659 0.385958
O O12 0.000000 0.237081 0.136721
O O13 0.097925 0.520517 0.750000
O O14 0.152627 0.467166 0.875866
O O15 0.000000 0.535057 0.866054
O O16 0.721989 0.000000 0.000000
#
# Coordination Sequence:
#
# PCOD9469109 Si02
#       6
#    16  16  16  16  16  16
#     4  10  18  31  51  76 106 138 174 217 265 314
#     4   9  19  35  51  76 103 134 175 214 261 316
#     4   9  18  32  51  75  99 128 170 217 267 317
#     4   9  17  30  52  77 102 129 166 221 272 314
#     4  10  21  35  52  77 108 142 181 221 262 314
#     4  11  20  34  52  75 106 139 173 215 264 316
#
# _framework density 17.914484000000002
#
# number of rings (size 3 to 8) (size 9 to 14) (size 15 to 20)
#    0.000    2.333    1.667    1.500    0.000    2.333 
#    0.000    1.667    0.000    0.500    0.000    0.000 
#    0.000    0.000    0.000    0.000    0.000    0.000 
#
# Total GULP energy -267299.060588 kJ/mol
# GULP energy per Si atom -5568.730429 kJ/mol
# Density = 1.787371 g / cm^3
# Si number density = 17.914484 Si / 1000 Ang^3
#
#
#
# Elastic Constant Matrix: (Units=GPa)
#
#
# Indices 1 2 3 4 5 6 
#
# 1 36.3559 -7.1310 26.0764 0.0000 0.0000 0.0000
# 2 -7.1310 36.8437 -6.3531 0.0000 0.0000 0.0000
# 3 26.0764 -6.3531 89.5720 0.0000 0.0000 0.0000
# 4 0.0000 0.0000 0.0000 4.9070 0.0000 0.0000
# 5 0.0000 0.0000 0.0000 0.0000 16.1272 0.0000
# 6 0.0000 0.0000 0.0000 0.0000 0.0000 17.0808
#
#
#
# Elastic Compliance Matrix: (Units=1/GPa)
#
#
# Indices 1 2 3 4 5 6 
#
# 1 0.035717 0.005183 -0.010030 0.000000 0.000000 0.000000
# 2 0.005183 0.028230 0.000493 0.000000 0.000000 0.000000
# 3 -0.010030 0.000493 0.014119 0.000000 0.000000 0.000000
# 4 0.000000 0.000000 0.000000 0.203791 0.000000 0.000000
# 5 0.000000 0.000000 0.000000 0.000000 0.062007 0.000000
# 6 0.000000 0.000000 0.000000 0.000000 0.000000 0.058545
#
#
# Mechanical properties :
#
#
# Convention : Reuss Voigt Hill
#
# Bulk Modulus (GPa) = 14.41779 20.88400 17.65089
# Shear Modulus (GPa) = 11.51447 17.63494 14.57471
#
# Velocity S-wave (km/s) = 2.53800 3.14091 2.85541
# Velocity P-wave (km/s) = 4.08095 4.98364 4.55471
#
# Compressibility (1/GPa) = 0.06935877
#
# Stress axis : x y z
#
# Youngs Moduli (GPa) = 27.99798 35.42329 70.82527
#
# Poissons Ratio (x) = -0.18361 0.71040
# Poissons Ratio (y) = -0.14512 -0.03494
# Poissons Ratio (z) = 0.28083 -0.01747
#
# Static dielectric constant tensor:
#      x y z
#    x 1.599750 0.000000 0.000000 
#    y 0.000000 1.642550 0.000000 
#    z 0.000000 0.000000 1.661740 
# 
# From -- ./inp_files/45752.got.cif
#   From: 2010.05.17/outbox.cif.g08.bks.cpg/sg63_23_cif.got.tgz:45752.got - 2010.06.03 15:47:04.
