data_PCOD9469575
_publ_section_title
;
Structure prediction by ZEFSAII (Michael W. Deem and Ramdas Pophale) SiO2 
 PCOD9469575
Probable space group: C M C M
;
_chemical_formula_sum "Si O2"
_cell_formula_units_Z 112
_cell_length_a 26.725108
_cell_length_b 5.903998
_cell_length_c 33.745615
_cell_angle_alpha 90.000000
_cell_angle_beta 90.000000
_cell_angle_gamma 90.000000
_cell_volume 5324.551329
_symmetry_space_group_name_H-M "C M C M"
_symmetry_group_IT_number 63
_symmetry_cell_setting 'orthorhombic'
loop_
_space_group_symop_operation_xyz
x,y,z
-x,-y,1/2+z
x,-y,-z
-x,y,1/2-z
-x,-y,-z
x,y,1/2-z
-x,y,z
x,-y,1/2+z
1/2+x,1/2+y,z
1/2-x,1/2-y,1/2+z
1/2+x,1/2-y,-z
1/2-x,1/2+y,1/2-z
1/2-x,1/2-y,-z
1/2+x,1/2+y,1/2-z
1/2-x,1/2+y,z
1/2+x,1/2-y,1/2+z
loop_
_atom_site_type_symbol
_atom_site_label
_atom_site_fract_x
_atom_site_fract_y
_atom_site_fract_z
Si Si1 0.619661 0.489787 0.159984
Si Si2 0.145480 0.367483 0.596922
Si Si3 0.188185 0.660478 0.794600
Si Si4 0.057000 0.370955 0.124670
Si Si5 0.231680 0.372398 0.125514
Si Si6 0.308945 0.250973 0.485999
Si Si7 0.914548 0.397498 0.794230
O O1 0.648735 0.308856 0.133033
O O2 0.658005 0.631344 0.186214
O O3 0.584585 0.359902 0.191259
O O4 0.585780 0.634761 0.130080
O O5 0.088423 0.455586 0.597060
O O6 0.175702 0.591252 0.609512
O O7 0.172799 0.260685 0.559401
O O8 0.205955 0.699598 0.750000
O O9 0.230405 0.610496 0.826813
O O10 0.144291 0.470847 0.793642
O O11 0.060438 0.466839 0.169867
O O12 0.000000 0.347988 0.112358
O O13 0.245582 0.117320 0.112440
O O14 0.327251 0.500000 0.500000
O O15 0.250000 0.250000 0.500000
O O16 0.327395 0.000000 0.500000
O O17 0.934021 0.434800 0.750000
#
# Coordination Sequence:
#
# PCOD9469575 Si02
#       7
#    16  16  16  16  16  16  16
#     4  10  18  37  62  93 123 181 230 283 349 401
#     4  11  24  43  70  94 145 172 219 281 344 415
#     4  10  20  37  55  83 127 177 234 292 335 389
#     4  10  22  39  64  95 128 176 235 285 347 411
#     4  12  26  38  62  95 126 178 230 274 335 398
#     4  10  25  44  70 110 142 176 211 264 336 415
#     4   9  18  34  58  85 125 173 227 296 359 399
#
# _framework density 21.034635999999999
#
# number of rings (size 3 to 8) (size 9 to 14) (size 15 to 20)
#    0.000    1.714    4.286    1.286    6.000    3.714 
#    0.000    0.000    0.000    0.857    0.000    0.000 
#    0.000    0.000    0.000    0.000    0.000    0.000 
#
# Total GULP energy -311909.976098 kJ/mol
# GULP energy per Si atom -5569.821002 kJ/mol
# Density = 2.098676 g / cm^3
# Si number density = 21.034636 Si / 1000 Ang^3
#
#
#
# Elastic Constant Matrix: (Units=GPa)
#
#
# Indices 1 2 3 4 5 6 
#
# 1 65.6833 24.9309 7.4478 0.0000 0.0000 0.0000
# 2 24.9309 113.9912 7.2131 0.0000 0.0000 0.0000
# 3 7.4478 7.2131 72.3460 0.0000 0.0000 0.0000
# 4 0.0000 0.0000 0.0000 16.0630 0.0000 0.0000
# 5 0.0000 0.0000 0.0000 0.0000 16.3169 0.0000
# 6 0.0000 0.0000 0.0000 0.0000 0.0000 8.8964
#
#
#
# Elastic Compliance Matrix: (Units=1/GPa)
#
#
# Indices 1 2 3 4 5 6 
#
# 1 0.016736 -0.003574 -0.001367 0.000000 0.000000 0.000000
# 2 -0.003574 0.009591 -0.000588 0.000000 0.000000 0.000000
# 3 -0.001367 -0.000588 0.014022 0.000000 0.000000 0.000000
# 4 0.000000 0.000000 0.000000 0.062255 0.000000 0.000000
# 5 0.000000 0.000000 0.000000 0.000000 0.061286 0.000000
# 6 0.000000 0.000000 0.000000 0.000000 0.000000 0.112405
#
#
# Mechanical properties :
#
#
# Convention : Reuss Voigt Hill
#
# Bulk Modulus (GPa) = 34.13941 36.80047 35.46994
# Shear Modulus (GPa) = 16.82841 22.41719 19.62280
#
# Velocity S-wave (km/s) = 2.83155 3.26809 3.05762
# Velocity P-wave (km/s) = 5.19188 5.63682 5.41892
#
# Compressibility (1/GPa) = 0.02929166
#
# Stress axis : x y z
#
# Youngs Moduli (GPa) = 59.75133 104.25932 71.31749
#
# Poissons Ratio (x) = 0.37261 0.09746
# Poissons Ratio (y) = 0.21354 0.04196
# Poissons Ratio (z) = 0.08166 0.06134
#
# Static dielectric constant tensor:
#      x y z
#    x 1.802430 0.000000 0.000000 
#    y 0.000000 1.823650 0.000000 
#    z 0.000000 0.000000 1.796660 
# 
# From -- ./inp_files/74526.got.cif
#   From: 2010.05.17/outbox.cif.g08.bks.cpg/sg63_38_cif.got.tgz:74526.got - 2010.06.03 15:47:04.
