data_PCOD9469699
_publ_section_title
;
Structure prediction by ZEFSAII (Michael W. Deem and Ramdas Pophale) SiO2 
 PCOD9469699
Probable space group: C M C M
;
_chemical_formula_sum "Si O2"
_cell_formula_units_Z 96
_cell_length_a 24.204900
_cell_length_b 14.098663
_cell_length_c 15.021871
_cell_angle_alpha 90.000000
_cell_angle_beta 90.000000
_cell_angle_gamma 90.000000
_cell_volume 5126.314547
_symmetry_space_group_name_H-M "C M C M"
_symmetry_group_IT_number 63
_symmetry_cell_setting 'orthorhombic'
loop_
_space_group_symop_operation_xyz
x,y,z
-x,-y,1/2+z
x,-y,-z
-x,y,1/2-z
-x,-y,-z
x,y,1/2-z
-x,y,z
x,-y,1/2+z
1/2+x,1/2+y,z
1/2-x,1/2-y,1/2+z
1/2+x,1/2-y,-z
1/2-x,1/2+y,1/2-z
1/2-x,1/2-y,-z
1/2+x,1/2+y,1/2-z
1/2-x,1/2+y,z
1/2+x,1/2-y,1/2+z
loop_
_atom_site_type_symbol
_atom_site_label
_atom_site_fract_x
_atom_site_fract_y
_atom_site_fract_z
Si Si1 0.560006 0.469642 0.857868
Si Si2 0.211002 0.517318 0.101517
Si Si3 0.325591 0.396993 0.851115
Si Si4 0.715198 0.808245 0.114851
Si Si5 0.673987 0.213571 0.088987
Si Si6 0.062267 0.194411 0.857037
O O1 0.558641 0.456998 0.750000
O O2 0.500000 0.437539 0.892570
O O3 0.614572 0.417736 0.891779
O O4 0.565638 0.581688 0.874276
O O5 0.275075 0.550769 0.100677
O O6 0.203829 0.414996 0.146470
O O7 0.179995 0.610932 0.136035
O O8 0.193113 0.500000 0.000000
O O9 0.324594 0.434459 0.750000
O O10 0.314243 0.284823 0.847099
O O11 0.780544 0.787160 0.126178
O O12 0.696050 0.802344 0.011479
O O13 0.612684 0.252806 0.096161
O O14 0.068169 0.206654 0.750000
O O15 0.000000 0.225629 0.881617
#
# Coordination Sequence:
#
# PCOD9469699 Si02
#       6
#    16  16  16  16  16  16
#     4   8  15  28  44  63  90 121 148 179 226 280
#     4   9  18  32  49  67  92 127 159 192 237 285
#     4  10  19  29  46  71  94 120 156 197 241 287
#     4   9  18  31  46  67  96 126 156 191 235 289
#     4   9  17  30  49  69  93 126 157 192 240 289
#     4   9  17  30  50  74  97 122 156 202 250 289
#
# _framework density 18.726904999999999
#
# number of rings (size 3 to 8) (size 9 to 14) (size 15 to 20)
#    0.000    3.000    0.000    3.000    0.000    3.333 
#    0.000    0.833    0.000    8.000    0.000    2.333 
#    0.000    0.000    0.000    0.000    0.000    0.000 
#
# Total GULP energy -267326.002409 kJ/mol
# GULP energy per Si atom -5569.291717 kJ/mol
# Density = 1.868428 g / cm^3
# Si number density = 18.726905 Si / 1000 Ang^3
#
#
#
# Elastic Constant Matrix: (Units=GPa)
#
#
# Indices 1 2 3 4 5 6 
#
# 1 147.8635 49.5481 -3.5389 0.0000 0.0000 0.0000
# 2 49.5481 88.3554 3.8550 0.0000 0.0000 0.0000
# 3 -3.5389 3.8550 25.5500 0.0000 0.0000 0.0000
# 4 0.0000 0.0000 0.0000 12.9695 0.0000 0.0000
# 5 0.0000 0.0000 0.0000 0.0000 17.1745 0.0000
# 6 0.0000 0.0000 0.0000 0.0000 0.0000 18.7697
#
#
#
# Elastic Compliance Matrix: (Units=1/GPa)
#
#
# Indices 1 2 3 4 5 6 
#
# 1 0.008418 -0.004803 0.001891 0.000000 0.000000 0.000000
# 2 -0.004803 0.014133 -0.002798 0.000000 0.000000 0.000000
# 3 0.001891 -0.002798 0.039823 0.000000 0.000000 0.000000
# 4 0.000000 0.000000 0.000000 0.077104 0.000000 0.000000
# 5 0.000000 0.000000 0.000000 0.000000 0.058226 0.000000
# 6 0.000000 0.000000 0.000000 0.000000 0.000000 0.053277
#
#
# Mechanical properties :
#
#
# Convention : Reuss Voigt Hill
#
# Bulk Modulus (GPa) = 19.62557 40.16636 29.89596
# Shear Modulus (GPa) = 17.89639 23.90972 20.90306
#
# Velocity S-wave (km/s) = 3.09472 3.57705 3.34459
# Velocity P-wave (km/s) = 4.82414 6.20930 5.56002
#
# Compressibility (1/GPa) = 0.05095393
#
# Stress axis : x y z
#
# Youngs Moduli (GPa) = 118.79738 70.75426 25.11111
#
# Poissons Ratio (x) = 0.33983 -0.04748
# Poissons Ratio (y) = 0.57058 0.07025
# Poissons Ratio (z) = -0.22460 0.19795
#
# Static dielectric constant tensor:
#      x y z
#    x 1.650930 0.000000 0.000000 
#    y 0.000000 1.663200 0.000000 
#    z 0.000000 0.000000 1.731810 
# 
# From -- ./inp_files/56573.got.cif
#   From: 2010.05.17/outbox.cif.g08.bks.cpg/sg63_29_cif.got.tgz:56573.got - 2010.06.03 15:47:04.
