data_PCOD9469605
_publ_section_title
;
Structure prediction by ZEFSAII (Michael W. Deem and Ramdas Pophale) SiO2 
 PCOD9469605
Probable space group: C M C M
;
_chemical_formula_sum "Si O2"
_cell_formula_units_Z 88
_cell_length_a 21.505919
_cell_length_b 10.609664
_cell_length_c 15.706535
_cell_angle_alpha 90.000000
_cell_angle_beta 90.000000
_cell_angle_gamma 90.000000
_cell_volume 3583.769116
_symmetry_space_group_name_H-M "C M C M"
_symmetry_group_IT_number 63
_symmetry_cell_setting 'orthorhombic'
loop_
_space_group_symop_operation_xyz
x,y,z
-x,-y,1/2+z
x,-y,-z
-x,y,1/2-z
-x,-y,-z
x,y,1/2-z
-x,y,z
x,-y,1/2+z
1/2+x,1/2+y,z
1/2-x,1/2-y,1/2+z
1/2+x,1/2-y,-z
1/2-x,1/2+y,1/2-z
1/2-x,1/2-y,-z
1/2+x,1/2+y,1/2-z
1/2-x,1/2+y,z
1/2+x,1/2-y,1/2+z
loop_
_atom_site_type_symbol
_atom_site_label
_atom_site_fract_x
_atom_site_fract_y
_atom_site_fract_z
Si Si1 0.634782 0.264402 0.883446
Si Si2 0.767954 0.978305 0.652794
Si Si3 0.000000 0.873409 0.441071
Si Si4 0.634296 0.373930 0.441879
Si Si5 0.134900 0.470160 0.848805
Si Si6 0.000000 0.755831 0.615512
Si Si7 0.500000 0.039562 0.349848
O O1 0.686409 0.358908 0.850218
O O2 0.637333 0.122417 0.851601
O O3 0.565740 0.314490 0.858694
O O4 0.640245 0.267735 0.986241
O O5 0.755259 0.012086 0.750000
O O6 0.804908 0.096247 0.612479
O O7 0.702015 0.937830 0.612485
O O8 0.067019 0.866332 0.395908
O O9 0.000000 0.764926 0.513101
O O10 0.000000 0.000000 0.500000
O O11 0.630300 0.500000 0.500000
O O12 0.133702 0.427105 0.750000
O O13 0.068250 0.427404 0.886409
O O14 0.000000 0.612672 0.646010
O O15 0.500000 0.076466 0.250000
#
# Coordination Sequence:
#
# PCOD9469605 Si02
#       7
#    16  16   8  16  16   8   8
#     4   9  16  29  46  63  85 112 141 172 207 245
#     4  10  19  28  39  61  90 114 136 166 209 253
#     4   8  12  22  37  53  79 109 138 169 198 233
#     4   8  15  26  40  59  82 111 143 171 199 241
#     4   9  17  28  43  64  87 108 135 173 213 251
#     4   8  14  24  42  63  80 103 136 175 213 241
#     4   8  14  26  42  60  80 100 130 176 219 248
#
# _framework density 24.555154000000002
#
# number of rings (size 3 to 8) (size 9 to 14) (size 15 to 20)
#    0.000    3.273    0.000    1.636    0.000    1.455 
#    0.000    1.364    0.000    0.000    0.000    8.273 
#    0.000    5.818    0.000    0.000    0.000    0.000 
#
# Total GULP energy -245223.762848 kJ/mol
# GULP energy per Si atom -5573.267337 kJ/mol
# Density = 2.449927 g / cm^3
# Si number density = 24.555154 Si / 1000 Ang^3
#
#
#
# Elastic Constant Matrix: (Units=GPa)
#
#
# Indices 1 2 3 4 5 6 
#
# 1 262.8189 14.6033 35.3211 0.0000 0.0000 0.0000
# 2 14.6033 56.8991 14.9230 0.0000 0.0000 0.0000
# 3 35.3211 14.9230 38.8238 0.0000 0.0000 0.0000
# 4 0.0000 0.0000 0.0000 5.9911 0.0000 0.0000
# 5 0.0000 0.0000 0.0000 0.0000 35.0367 0.0000
# 6 0.0000 0.0000 0.0000 0.0000 0.0000 24.1415
#
#
#
# Elastic Compliance Matrix: (Units=1/GPa)
#
#
# Indices 1 2 3 4 5 6 
#
# 1 0.004335 -0.000087 -0.003911 0.000000 0.000000 0.000000
# 2 -0.000087 0.019547 -0.007434 0.000000 0.000000 0.000000
# 3 -0.003911 -0.007434 0.032173 0.000000 0.000000 0.000000
# 4 0.000000 0.000000 0.000000 0.166913 0.000000 0.000000
# 5 0.000000 0.000000 0.000000 0.000000 0.028542 0.000000
# 6 0.000000 0.000000 0.000000 0.000000 0.000000 0.041422
#
#
# Mechanical properties :
#
#
# Convention : Reuss Voigt Hill
#
# Bulk Modulus (GPa) = 30.12848 54.24850 42.18849
# Shear Modulus (GPa) = 15.29706 32.61349 23.95528
#
# Velocity S-wave (km/s) = 2.49864 3.64836 3.12680
# Velocity P-wave (km/s) = 4.54099 6.31569 5.50039
#
# Compressibility (1/GPa) = 0.03319119
#
# Stress axis : x y z
#
# Youngs Moduli (GPa) = 230.66389 51.15847 31.08202
#
# Poissons Ratio (x) = 0.00445 0.12155
# Poissons Ratio (y) = 0.02007 0.23107
# Poissons Ratio (z) = 0.90207 0.38033
#
# Static dielectric constant tensor:
#      x y z
#    x 2.058320 0.000000 0.000000 
#    y 0.000000 1.975830 0.000000 
#    z 0.000000 0.000000 2.405450 
# 
# From -- ./inp_files/55571.got.cif
#   From: 2010.05.17/outbox.cif.g08.bks.cpg/sg63_28_cif.got.tgz:55571.got - 2010.06.03 15:47:04.
