data_PCOD9469967
_publ_section_title
;
Structure prediction by ZEFSAII (Michael W. Deem and Ramdas Pophale) SiO2 
 PCOD9469967
Probable space group: C M C M
;
_chemical_formula_sum "Si O2"
_cell_formula_units_Z 88
_cell_length_a 19.306603
_cell_length_b 30.015385
_cell_length_c 7.646499
_cell_angle_alpha 90.000000
_cell_angle_beta 90.000000
_cell_angle_gamma 90.000000
_cell_volume 4431.108872
_symmetry_space_group_name_H-M "C M C M"
_symmetry_group_IT_number 63
_symmetry_cell_setting 'orthorhombic'
loop_
_space_group_symop_operation_xyz
x,y,z
-x,-y,1/2+z
x,-y,-z
-x,y,1/2-z
-x,-y,-z
x,y,1/2-z
-x,y,z
x,-y,1/2+z
1/2+x,1/2+y,z
1/2-x,1/2-y,1/2+z
1/2+x,1/2-y,-z
1/2-x,1/2+y,1/2-z
1/2-x,1/2-y,-z
1/2+x,1/2+y,1/2-z
1/2-x,1/2+y,z
1/2+x,1/2-y,1/2+z
loop_
_atom_site_type_symbol
_atom_site_label
_atom_site_fract_x
_atom_site_fract_y
_atom_site_fract_z
Si Si1 0.348732 0.947684 0.457829
Si Si2 0.422050 0.740678 0.538054
Si Si3 0.274930 0.617198 0.458223
Si Si4 0.000000 0.552949 0.539907
Si Si5 0.922010 0.861976 0.544049
Si Si6 0.704896 0.206674 0.040306
O O1 0.350784 0.942878 0.250000
O O2 0.280731 0.921765 0.518934
O O3 0.424457 0.930879 0.526339
O O4 0.343448 0.000000 0.500000
O O5 0.418981 0.738769 0.750000
O O6 0.500000 0.750124 0.483843
O O7 0.405106 0.690775 0.474252
O O8 0.370511 0.778859 0.475575
O O9 0.283487 0.623394 0.250000
O O10 0.353817 0.612889 0.527574
O O11 0.239325 0.662083 0.531377
O O12 0.000000 0.500000 0.500000
O O13 0.000000 0.558659 0.750000
O O14 0.927556 0.872163 0.750000
O O15 0.000000 0.868893 0.468886
O O16 0.700686 0.201399 0.250000
O O17 0.750000 0.250000 0.000000
#
# Coordination Sequence:
#
# PCOD9469967 Si02
#       6
#    16  16  16   8  16  16
#     4  10  20  36  58  80 103 131 164 204 249 296
#     4   9  17  29  45  65  93 130 171 211 249 291
#     4  10  20  33  49  75 105 133 169 209 253 303
#     4   8  16  32  54  78 102 128 162 200 240 292
#     4   9  17  30  49  71  97 131 171 212 251 294
#     4  10  19  31  47  69  99 133 168 208 250 293
#
# _framework density 19.859587999999999
#
# number of rings (size 3 to 8) (size 9 to 14) (size 15 to 20)
#    0.000    2.545    1.818    0.545    0.000    2.182 
#    1.636    0.000    0.000    0.545    0.000    0.000 
#    0.000    0.000    0.000    0.000    0.000    0.000 
#
# Total GULP energy -245103.071423 kJ/mol
# GULP energy per Si atom -5570.524351 kJ/mol
# Density = 1.981439 g / cm^3
# Si number density = 19.859588 Si / 1000 Ang^3
#
#
#
# Elastic Constant Matrix: (Units=GPa)
#
#
# Indices 1 2 3 4 5 6 
#
# 1 210.5291 62.9910 7.2822 0.0000 0.0000 0.0000
# 2 62.9910 54.2388 -6.7086 0.0000 0.0000 0.0000
# 3 7.2822 -6.7086 36.4365 0.0000 0.0000 0.0000
# 4 0.0000 0.0000 0.0000 18.2858 0.0000 0.0000
# 5 0.0000 0.0000 0.0000 0.0000 13.1072 0.0000
# 6 0.0000 0.0000 0.0000 0.0000 0.0000 34.4905
#
#
#
# Elastic Compliance Matrix: (Units=1/GPa)
#
#
# Indices 1 2 3 4 5 6 
#
# 1 0.007634 -0.009266 -0.003232 0.000000 0.000000 0.000000
# 2 -0.009266 0.030113 0.007396 0.000000 0.000000 0.000000
# 3 -0.003232 0.007396 0.029453 0.000000 0.000000 0.000000
# 4 0.000000 0.000000 0.000000 0.054687 0.000000 0.000000
# 5 0.000000 0.000000 0.000000 0.000000 0.076294 0.000000
# 6 0.000000 0.000000 0.000000 0.000000 0.000000 0.028994
#
#
# Mechanical properties :
#
#
# Convention : Reuss Voigt Hill
#
# Bulk Modulus (GPa) = 17.54487 47.59262 32.56875
# Shear Modulus (GPa) = 19.50267 29.01935 24.26101
#
# Velocity S-wave (km/s) = 3.13713 3.82675 3.49897
# Velocity P-wave (km/s) = 4.68783 6.59863 5.72353
#
# Compressibility (1/GPa) = 0.05699673
#
# Stress axis : x y z
#
# Youngs Moduli (GPa) = 130.99248 33.20874 33.95283
#
# Poissons Ratio (x) = 0.30770 0.10973
# Poissons Ratio (y) = 1.21373 -0.25112
# Poissons Ratio (z) = 0.42333 -0.24561
#
# Static dielectric constant tensor:
#      x y z
#    x 1.806840 0.000000 0.000000 
#    y 0.000000 1.647000 0.000000 
#    z 0.000000 0.000000 1.723220 
# 
# From -- ./inp_files/6826.got.cif
#   From: 2010.05.17/outbox.cif.g08.bks.cpg/sg63_4_cif.got.tgz:6826.got - 2010.06.03 15:47:04.
