data_PCOD9469709
_publ_section_title
;
Structure prediction by ZEFSAII (Michael W. Deem and Ramdas Pophale) SiO2 
 PCOD9469709
Probable space group: C M C M
;
_chemical_formula_sum "Si O2"
_cell_formula_units_Z 68
_cell_length_a 24.487366
_cell_length_b 6.849087
_cell_length_c 14.313849
_cell_angle_alpha 90.000000
_cell_angle_beta 90.000000
_cell_angle_gamma 90.000000
_cell_volume 2400.662932
_symmetry_space_group_name_H-M "C M C M"
_symmetry_group_IT_number 63
_symmetry_cell_setting 'orthorhombic'
loop_
_space_group_symop_operation_xyz
x,y,z
-x,-y,1/2+z
x,-y,-z
-x,y,1/2-z
-x,-y,-z
x,y,1/2-z
-x,y,z
x,-y,1/2+z
1/2+x,1/2+y,z
1/2-x,1/2-y,1/2+z
1/2+x,1/2-y,-z
1/2-x,1/2+y,1/2-z
1/2-x,1/2-y,-z
1/2+x,1/2+y,1/2-z
1/2-x,1/2+y,z
1/2+x,1/2-y,1/2+z
loop_
_atom_site_type_symbol
_atom_site_label
_atom_site_fract_x
_atom_site_fract_y
_atom_site_fract_z
Si Si1 0.500000 0.599079 0.250000
Si Si2 0.059801 0.512328 0.638431
Si Si3 0.911214 0.946431 0.390885
Si Si4 0.205821 0.875462 0.406930
Si Si5 0.176233 0.462219 0.140166
O O1 0.452509 0.571265 0.330591
O O2 0.054085 0.544065 0.750000
O O3 0.070045 0.280041 0.623706
O O4 0.116796 0.612179 0.608585
O O5 0.000000 0.561011 0.598665
O O6 0.847801 0.963799 0.357559
O O7 0.913675 0.000000 0.500000
O O8 0.186954 0.654502 0.421142
O O9 0.211015 0.000000 0.500000
O O10 0.265762 0.853858 0.362624
O O11 0.169363 0.518964 0.250000
#
# Coordination Sequence:
#
# PCOD9469709 Si02
#       5
#     4  16  16  16  16
#     4  12  18  28  48  70 112 134 172 220 276 316
#     4   9  15  28  47  73 100 131 175 227 263 304
#     4  10  19  29  48  75 105 137 173 219 275 321
#     4  10  21  36  53  79 111 143 182 224 275 325
#     4  10  20  32  55  80 104 140 179 225 276 325
#
# _framework density 28.325510999999999
#
# number of rings (size 3 to 8) (size 9 to 14) (size 15 to 20)
#    0.000    2.118    2.353    1.765    3.294    0.000 
#    0.000    0.000    0.000    0.706    3.059    0.000 
#    0.000    0.000    0.000    0.000    0.000    0.000 
#
# Total GULP energy -189952.550435 kJ/mol
# GULP energy per Si atom -5586.839719 kJ/mol
# Density = 2.826104 g / cm^3
# Si number density = 28.325511 Si / 1000 Ang^3
#
#
#
# Elastic Constant Matrix: (Units=GPa)
#
#
# Indices 1 2 3 4 5 6 
#
# 1 407.4578 59.0102 59.7800 0.0000 0.0000 0.0000
# 2 59.0102 92.3410 20.4834 0.0000 0.0000 0.0000
# 3 59.7800 20.4834 158.9606 0.0000 0.0000 0.0000
# 4 0.0000 0.0000 0.0000 38.3395 0.0000 0.0000
# 5 0.0000 0.0000 0.0000 0.0000 -3.8054 0.0000
# 6 0.0000 0.0000 0.0000 0.0000 0.0000 273.6961
#
#
#
# Elastic Compliance Matrix: (Units=1/GPa)
#
#
# Indices 1 2 3 4 5 6 
#
# 1 0.002812 -0.001608 -0.000850 0.000000 0.000000 0.000000
# 2 -0.001608 0.012068 -0.000950 0.000000 0.000000 0.000000
# 3 -0.000850 -0.000950 0.006733 0.000000 0.000000 0.000000
# 4 0.000000 0.000000 0.000000 0.026083 0.000000 0.000000
# 5 0.000000 0.000000 0.000000 0.000000 -0.262782 0.000000
# 6 0.000000 0.000000 0.000000 0.000000 0.000000 0.003654
#
#
# Mechanical properties :
#
#
# Convention : Reuss Voigt Hill
#
# Bulk Modulus (GPa) = 67.58854 104.14518 85.86686
# Shear Modulus (GPa) = -25.03965 96.27842 35.61939
#
# Velocity S-wave (km/s) = -2.97643 5.83642 3.54997
# Velocity P-wave (km/s) = 3.47864 9.07003 6.86900
#
# Compressibility (1/GPa) = 0.01479541
#
# Stress axis : x y z
#
# Youngs Moduli (GPa) = 355.63018 82.86369 148.52109
#
# Poissons Ratio (x) = 0.13327 0.12628
# Poissons Ratio (y) = 0.57197 0.14113
# Poissons Ratio (z) = 0.30236 0.07874
#
# Static dielectric constant tensor:
#      x y z
#    x 2.217430 0.000000 0.000000 
#    y 0.000000 2.336120 0.000000 
#    z 0.000000 0.000000 2.158880 
# 
# From -- ./inp_files/34952.got.cif
#   From: 2010.05.17/outbox.cif.g08.bks.cpg/sg63_18_cif.got.tgz:34952.got - 2010.06.03 15:47:04.
