data_PCOD9469357
_publ_section_title
;
Structure prediction by ZEFSAII (Michael W. Deem and Ramdas Pophale) SiO2 
 PCOD9469357
Probable space group: C M C M
;
_chemical_formula_sum "Si O2"
_cell_formula_units_Z 120
_cell_length_a 18.514276
_cell_length_b 16.381895
_cell_length_c 21.022548
_cell_angle_alpha 90.000000
_cell_angle_beta 90.000000
_cell_angle_gamma 90.000000
_cell_volume 6376.116218
_symmetry_space_group_name_H-M "C M C M"
_symmetry_group_IT_number 63
_symmetry_cell_setting 'orthorhombic'
loop_
_space_group_symop_operation_xyz
x,y,z
-x,-y,1/2+z
x,-y,-z
-x,y,1/2-z
-x,-y,-z
x,y,1/2-z
-x,y,z
x,-y,1/2+z
1/2+x,1/2+y,z
1/2-x,1/2-y,1/2+z
1/2+x,1/2-y,-z
1/2-x,1/2+y,1/2-z
1/2-x,1/2-y,-z
1/2+x,1/2+y,1/2-z
1/2-x,1/2+y,z
1/2+x,1/2-y,1/2+z
loop_
_atom_site_type_symbol
_atom_site_label
_atom_site_fract_x
_atom_site_fract_y
_atom_site_fract_z
Si Si1 0.863636 0.827618 0.823971
Si Si2 0.697918 0.920642 0.326012
Si Si3 0.914503 0.006019 0.677377
Si Si4 0.085608 0.672992 0.595979
Si Si5 0.368698 0.788369 0.750000
Si Si6 0.323306 0.211074 0.472054
Si Si7 0.156201 0.163951 0.864319
Si Si8 0.707077 0.890228 0.648086
O O1 0.881809 0.813537 0.750000
O O2 0.895450 0.755932 0.865890
O O3 0.777278 0.838172 0.829659
O O4 0.894605 0.915304 0.843876
O O5 0.690944 0.910552 0.250000
O O6 0.625322 0.897392 0.363409
O O7 0.759948 0.858811 0.350754
O O8 0.719341 0.014029 0.341205
O O9 0.884806 0.015246 0.750000
O O10 0.882920 0.077290 0.634869
O O11 0.000000 0.013517 0.680265
O O12 0.123958 0.682806 0.527796
O O13 0.000000 0.661676 0.591173
O O14 0.372168 0.717386 0.694408
O O15 0.355806 0.858217 0.805915
O O16 0.250000 0.250000 0.500000
O O17 0.353894 0.282930 0.427220
O O18 0.306431 0.136310 0.424257
#
# Coordination Sequence:
#
# PCOD9469357 Si02
#       8
#    16  16  16  16   8  16  16  16
#     4  11  20  36  64  98 133 164 202 261 328 387
#     4  12  22  38  66 100 130 163 210 269 326 380
#     4  10  20  34  55  91 134 163 191 242 313 383
#     4  12  27  45  64  91 130 175 218 264 323 388
#     4  10  18  32  57  94 121 154 202 266 314 354
#     4  11  23  42  62  90 124 170 219 259 302 378
#     4  11  20  35  63  91 125 164 213 256 309 374
#     4  11  21  36  65  99 128 159 212 272 315 365
#
# _framework density 18.820233999999999
#
# number of rings (size 3 to 8) (size 9 to 14) (size 15 to 20)
#    0.000    0.933    6.667    1.600    0.000    2.667 
#    0.000    3.333    0.000    3.200    0.000    0.000 
#    0.000    0.000    0.000    0.000    0.000    0.000 
#
# Total GULP energy -334120.188635 kJ/mol
# GULP energy per Si atom -5568.669811 kJ/mol
# Density = 1.877740 g / cm^3
# Si number density = 18.820234 Si / 1000 Ang^3
#
#
#
# Elastic Constant Matrix: (Units=GPa)
#
#
# Indices 1 2 3 4 5 6 
#
# 1 45.4875 12.5924 20.8268 0.0000 0.0000 0.0000
# 2 12.5924 50.7586 22.7155 0.0000 0.0000 0.0000
# 3 20.8268 22.7155 104.3143 0.0000 0.0000 0.0000
# 4 0.0000 0.0000 0.0000 25.7097 0.0000 0.0000
# 5 0.0000 0.0000 0.0000 0.0000 16.6141 0.0000
# 6 0.0000 0.0000 0.0000 0.0000 0.0000 16.5818
#
#
#
# Elastic Compliance Matrix: (Units=1/GPa)
#
#
# Indices 1 2 3 4 5 6 
#
# 1 0.025055 -0.004407 -0.004043 0.000000 0.000000 0.000000
# 2 -0.004407 0.022603 -0.004042 0.000000 0.000000 0.000000
# 3 -0.004043 -0.004042 0.011274 0.000000 0.000000 0.000000
# 4 0.000000 0.000000 0.000000 0.038896 0.000000 0.000000
# 5 0.000000 0.000000 0.000000 0.000000 0.060190 0.000000
# 6 0.000000 0.000000 0.000000 0.000000 0.000000 0.060307
#
#
# Mechanical properties :
#
#
# Convention : Reuss Voigt Hill
#
# Bulk Modulus (GPa) = 29.45605 34.75885 32.10745
# Shear Modulus (GPa) = 19.63677 21.40950 20.52313
#
# Velocity S-wave (km/s) = 3.23365 3.37646 3.30583
# Velocity P-wave (km/s) = 5.44309 5.80600 5.62747
#
# Compressibility (1/GPa) = 0.03394888
#
# Stress axis : x y z
#
# Youngs Moduli (GPa) = 39.91232 44.24131 88.70114
#
# Poissons Ratio (x) = 0.19495 0.35860
# Poissons Ratio (y) = 0.17587 0.35856
# Poissons Ratio (z) = 0.16136 0.17884
#
# Static dielectric constant tensor:
#      x y z
#    x 1.690320 0.000000 0.000000 
#    y 0.000000 1.660770 0.000000 
#    z 0.000000 0.000000 1.644880 
# 
# From -- ./inp_files/55902.got.cif
#   From: 2010.05.17/outbox.cif.g08.bks.cpg/sg63_28_cif.got.tgz:55902.got - 2010.06.03 15:47:04.
