data_PCOD9469280
_publ_section_title
;
Structure prediction by ZEFSAII (Michael W. Deem and Ramdas Pophale) SiO2 
 PCOD9469280
Probable space group: C M C M
;
_chemical_formula_sum "Si O2"
_cell_formula_units_Z 68
_cell_length_a 7.943293
_cell_length_b 19.130697
_cell_length_c 19.017181
_cell_angle_alpha 90.000000
_cell_angle_beta 90.000000
_cell_angle_gamma 90.000000
_cell_volume 2889.864737
_symmetry_space_group_name_H-M "C M C M"
_symmetry_group_IT_number 63
_symmetry_cell_setting 'orthorhombic'
loop_
_space_group_symop_operation_xyz
x,y,z
-x,-y,1/2+z
x,-y,-z
-x,y,1/2-z
-x,-y,-z
x,y,1/2-z
-x,y,z
x,-y,1/2+z
1/2+x,1/2+y,z
1/2-x,1/2-y,1/2+z
1/2+x,1/2-y,-z
1/2-x,1/2+y,1/2-z
1/2-x,1/2-y,-z
1/2+x,1/2+y,1/2-z
1/2-x,1/2+y,z
1/2+x,1/2-y,1/2+z
loop_
_atom_site_type_symbol
_atom_site_label
_atom_site_fract_x
_atom_site_fract_y
_atom_site_fract_z
Si Si1 0.187399 0.292421 0.250000
Si Si2 0.808821 0.058591 0.750000
Si Si3 0.699205 0.865027 0.979617
Si Si4 0.694023 0.569526 0.349665
Si Si5 0.304097 0.275243 0.403897
Si Si6 0.000000 0.616347 0.250000
O O1 0.187620 0.376441 0.250000
O O2 0.276969 0.271402 0.321344
O O3 0.000000 0.264024 0.250000
O O4 0.000000 0.086557 0.750000
O O5 0.787966 0.007721 0.816606
O O6 0.500000 0.871596 0.971926
O O7 0.781131 0.925755 0.933473
O O8 0.767124 0.794647 0.939984
O O9 0.733049 0.845558 0.060473
O O10 0.500000 0.591496 0.333231
O O11 0.847620 0.610625 0.311174
O O12 0.500000 0.275638 0.419180
#
# Coordination Sequence:
#
# PCOD9469280 Si02
#       6
#     8   8  16  16  16   4
#     4  12  25  39  60  86 117 159 206 251 298 361
#     4   9  21  39  58  83 119 158 202 250 302 355
#     4  10  20  38  63  91 124 158 198 251 305 361
#     4  10  20  35  60  90 120 161 198 246 307 357
#     4  10  22  40  62  86 122 163 199 246 305 364
#     4  10  18  32  52  84 122 148 190 248 284 350
#
# _framework density 23.530512000000002
#
# number of rings (size 3 to 8) (size 9 to 14) (size 15 to 20)
#    0.000    1.882    1.176    3.529    3.294    4.706 
#    0.000    2.353    0.000    7.059    0.000    0.000 
#    0.000    0.000    0.000    0.000    0.000    0.000 
#
# Total GULP energy -189333.801009 kJ/mol
# GULP energy per Si atom -5568.641206 kJ/mol
# Density = 2.347696 g / cm^3
# Si number density = 23.530512 Si / 1000 Ang^3
#
#
#
# Elastic Constant Matrix: (Units=GPa)
#
#
# Indices 1 2 3 4 5 6 
#
# 1 126.0587 12.2967 8.3659 0.0000 0.0000 0.0000
# 2 12.2967 36.0468 -2.9813 0.0000 0.0000 0.0000
# 3 8.3659 -2.9813 89.3301 0.0000 0.0000 0.0000
# 4 0.0000 0.0000 0.0000 -20.4460 0.0000 0.0000
# 5 0.0000 0.0000 0.0000 0.0000 45.5484 0.0000
# 6 0.0000 0.0000 0.0000 0.0000 0.0000 13.9412
#
#
#
# Elastic Compliance Matrix: (Units=1/GPa)
#
#
# Indices 1 2 3 4 5 6 
#
# 1 0.008273 -0.002894 -0.000871 0.000000 0.000000 0.000000
# 2 -0.002894 0.028831 0.001233 0.000000 0.000000 0.000000
# 3 -0.000871 0.001233 0.011317 0.000000 0.000000 0.000000
# 4 0.000000 0.000000 0.000000 -0.048909 0.000000 0.000000
# 5 0.000000 0.000000 0.000000 0.000000 0.021955 0.000000
# 6 0.000000 0.000000 0.000000 0.000000 0.000000 0.071730
#
#
# Mechanical properties :
#
#
# Convention : Reuss Voigt Hill
#
# Bulk Modulus (GPa) = 23.06458 31.86646 27.46552
# Shear Modulus (GPa) = 44.36037 23.39234 33.87635
#
# Velocity S-wave (km/s) = 4.34663 3.15640 3.79842
# Velocity P-wave (km/s) = 5.91728 5.18226 5.56193
#
# Compressibility (1/GPa) = 0.04335652
#
# Stress axis : x y z
#
# Youngs Moduli (GPa) = 120.87569 34.68484 88.36106
#
# Poissons Ratio (x) = 0.10039 0.07700
# Poissons Ratio (y) = 0.34984 -0.10897
# Poissons Ratio (z) = 0.10533 -0.04278
#
# Static dielectric constant tensor:
#      x y z
#    x 1.834820 0.000000 0.000000 
#    y 0.000000 1.959530 0.000000 
#    z 0.000000 0.000000 1.884360 
# 
# From -- ./inp_files/40243.got.cif
#   From: 2010.05.17/outbox.cif.g08.bks.cpg/sg63_21_cif.got.tgz:40243.got - 2010.06.03 15:47:04.
