data_PCOD9469886
_publ_section_title
;
Structure prediction by ZEFSAII (Michael W. Deem and Ramdas Pophale) SiO2 
 PCOD9469886
Probable space group: C M C M
;
_chemical_formula_sum "Si O2"
_cell_formula_units_Z 104
_cell_length_a 27.052972
_cell_length_b 22.578475
_cell_length_c 8.944114
_cell_angle_alpha 90.000000
_cell_angle_beta 90.000000
_cell_angle_gamma 90.000000
_cell_volume 5463.197669
_symmetry_space_group_name_H-M "C M C M"
_symmetry_group_IT_number 63
_symmetry_cell_setting 'orthorhombic'
loop_
_space_group_symop_operation_xyz
x,y,z
-x,-y,1/2+z
x,-y,-z
-x,y,1/2-z
-x,-y,-z
x,y,1/2-z
-x,y,z
x,-y,1/2+z
1/2+x,1/2+y,z
1/2-x,1/2-y,1/2+z
1/2+x,1/2-y,-z
1/2-x,1/2+y,1/2-z
1/2-x,1/2-y,-z
1/2+x,1/2+y,1/2-z
1/2-x,1/2+y,z
1/2+x,1/2-y,1/2+z
loop_
_atom_site_type_symbol
_atom_site_label
_atom_site_fract_x
_atom_site_fract_y
_atom_site_fract_z
Si Si1 0.000000 0.564815 0.570459
Si Si2 0.059037 0.221053 0.917274
Si Si3 0.151650 0.940424 0.074437
Si Si4 0.297581 0.327246 0.572708
Si Si5 0.307402 0.808024 0.427665
Si Si6 0.414379 0.843509 0.428574
Si Si7 0.558458 0.398873 0.575927
O O1 0.000000 0.500000 0.500000
O O2 0.951054 0.603061 0.529460
O O3 0.000000 0.559069 0.750000
O O4 0.080169 0.210949 0.750000
O O5 0.000000 0.218013 0.903880
O O6 0.070943 0.285157 0.981044
O O7 0.071118 0.169098 0.033438
O O8 0.157776 0.943084 0.250000
O O9 0.176543 0.881342 0.009939
O O10 0.093958 0.935902 0.029964
O O11 0.172274 0.000000 0.000000
O O12 0.301962 0.335597 0.750000
O O13 0.318621 0.261376 0.536796
O O14 0.240386 0.325306 0.521947
O O15 0.295505 0.810007 0.250000
O O16 0.355510 0.848453 0.453820
O O17 0.421205 0.832988 0.250000
O O18 0.569513 0.409993 0.750000
O O19 0.500000 0.408540 0.551365
#
# Coordination Sequence:
#
# PCOD9469886 Si02
#       7
#     8  16  16  16  16  16  16
#     4  10  22  38  56  78 110 154 199 242 295 354
#     4  10  19  30  49  81 116 148 184 231 284 335
#     4  12  25  41  61  83 113 153 197 240 285 341
#     4  10  20  37  60  88 120 151 189 236 292 351
#     4   9  19  35  59  88 117 148 186 237 294 350
#     4  10  19  34  56  81 110 149 195 239 288 351
#     4  10  21  37  57  82 115 153 193 236 281 332
#
# _framework density 19.036470999999999
#
# number of rings (size 3 to 8) (size 9 to 14) (size 15 to 20)
#    0.000    1.846    0.769    3.692    0.000    4.923 
#    0.000    0.769    0.000    1.846    0.000    0.000 
#    0.000    0.000    0.000    0.000    0.000    0.000 
#
# Total GULP energy -290331.031732 kJ/mol
# GULP energy per Si atom -5583.289072 kJ/mol
# Density = 1.899314 g / cm^3
# Si number density = 19.036471 Si / 1000 Ang^3
#
#
#
# Elastic Constant Matrix: (Units=GPa)
#
#
# Indices 1 2 3 4 5 6 
#
# 1 83.4087 52.7023 42.6492 0.0000 0.0000 0.0000
# 2 52.7023 94.3554 44.4891 0.0000 0.0000 0.0000
# 3 42.6492 44.4891 85.0017 0.0000 0.0000 0.0000
# 4 0.0000 0.0000 0.0000 30.3773 0.0000 0.0000
# 5 0.0000 0.0000 0.0000 0.0000 30.8034 0.0000
# 6 0.0000 0.0000 0.0000 0.0000 0.0000 16.5707
#
#
#
# Elastic Compliance Matrix: (Units=1/GPa)
#
#
# Indices 1 2 3 4 5 6 
#
# 1 0.020399 -0.008720 -0.005671 0.000000 0.000000 0.000000
# 2 -0.008720 0.017798 -0.004940 0.000000 0.000000 0.000000
# 3 -0.005671 -0.004940 0.017196 0.000000 0.000000 0.000000
# 4 0.000000 0.000000 0.000000 0.032919 0.000000 0.000000
# 5 0.000000 0.000000 0.000000 0.000000 0.032464 0.000000
# 6 0.000000 0.000000 0.000000 0.000000 0.000000 0.060348
#
#
# Mechanical properties :
#
#
# Convention : Reuss Voigt Hill
#
# Bulk Modulus (GPa) = 59.77249 60.27191 60.02220
# Shear Modulus (GPa) = 22.18657 23.74528 22.96593
#
# Velocity S-wave (km/s) = 3.41761 3.53563 3.47712
# Velocity P-wave (km/s) = 6.85861 6.95683 6.90790
#
# Compressibility (1/GPa) = 0.01673010
#
# Stress axis : x y z
#
# Youngs Moduli (GPa) = 49.02319 56.18630 58.15456
#
# Poissons Ratio (x) = 0.48993 0.32980
# Poissons Ratio (y) = 0.42747 0.28730
# Poissons Ratio (z) = 0.27801 0.27757
#
# Static dielectric constant tensor:
#      x y z
#    x 1.695920 0.000000 0.000000 
#    y 0.000000 1.651360 0.000000 
#    z 0.000000 0.000000 1.649140 
# 
# From -- ./inp_files/12533.got.cif
#   From: 2010.05.17/outbox.cif.g08.bks.cpg/sg63_7_cif.got.tgz:12533.got - 2010.06.03 15:47:04.
