data_PCOD9469315
_publ_section_title
;
Structure prediction by ZEFSAII (Michael W. Deem and Ramdas Pophale) SiO2 
 PCOD9469315
Probable space group: C M C M
;
_chemical_formula_sum "Si O2"
_cell_formula_units_Z 96
_cell_length_a 16.794010
_cell_length_b 19.190486
_cell_length_c 17.938337
_cell_angle_alpha 90.000000
_cell_angle_beta 90.000000
_cell_angle_gamma 90.000000
_cell_volume 5781.260775
_symmetry_space_group_name_H-M "C M C M"
_symmetry_group_IT_number 63
_symmetry_cell_setting 'orthorhombic'
loop_
_space_group_symop_operation_xyz
x,y,z
-x,-y,1/2+z
x,-y,-z
-x,y,1/2-z
-x,-y,-z
x,y,1/2-z
-x,y,z
x,-y,1/2+z
1/2+x,1/2+y,z
1/2-x,1/2-y,1/2+z
1/2+x,1/2-y,-z
1/2-x,1/2+y,1/2-z
1/2-x,1/2-y,-z
1/2+x,1/2+y,1/2-z
1/2-x,1/2+y,z
1/2+x,1/2-y,1/2+z
loop_
_atom_site_type_symbol
_atom_site_label
_atom_site_fract_x
_atom_site_fract_y
_atom_site_fract_z
Si Si1 0.770222 0.589695 0.339227
Si Si2 0.836703 0.215240 0.340721
Si Si3 0.182482 0.374369 0.160347
Si Si4 0.000000 0.987597 0.087469
Si Si5 0.159163 0.956590 0.161998
Si Si6 0.000000 0.860006 0.659963
Si Si7 0.092151 0.497060 0.910808
O O1 0.784223 0.590747 0.250000
O O2 0.734627 0.663705 0.363895
O O3 0.701702 0.531289 0.351947
O O4 0.849063 0.562249 0.379329
O O5 0.835332 0.215408 0.250000
O O6 0.829626 0.295131 0.364652
O O7 0.920611 0.181190 0.362932
O O8 0.170760 0.378431 0.250000
O O9 0.272421 0.400293 0.145760
O O10 0.123956 0.430022 0.122752
O O11 0.000000 0.062650 0.127937
O O12 0.080061 0.949685 0.114201
O O13 0.000000 0.000000 0.000000
O O14 0.139475 0.953843 0.250000
O O15 0.000000 0.865024 0.750000
O O16 0.000000 0.485784 0.890357
O O17 0.098412 0.500000 0.000000
#
# Coordination Sequence:
#
# PCOD9469315 Si02
#       7
#    16  16  16   8  16   8  16
#     4   9  17  32  55  77  99 130 169 213 256 309
#     4   9  17  31  54  81 105 128 165 216 270 313
#     4   9  19  34  56  82 102 127 168 219 264 308
#     4  12  22  30  50  76 106 136 178 214 242 297
#     4   9  17  32  51  73 102 134 166 205 260 308
#     4  10  18  32  54  80 107 134 164 215 275 310
#     4  10  21  35  51  72 106 141 175 211 256 300
#
# _framework density 16.605374999999999
#
# number of rings (size 3 to 8) (size 9 to 14) (size 15 to 20)
#    0.000    2.500    1.667    2.250    1.167    4.000 
#    0.000    0.833    1.833    0.000    0.000    0.000 
#    0.000    0.000    0.000    0.000    0.000    0.000 
#
# Total GULP energy -267646.262089 kJ/mol
# GULP energy per Si atom -5575.963794 kJ/mol
# Density = 1.656758 g / cm^3
# Si number density = 16.605375 Si / 1000 Ang^3
#
#
#
# Elastic Constant Matrix: (Units=GPa)
#
#
# Indices 1 2 3 4 5 6 
#
# 1 135.7972 48.0323 47.5007 0.0000 0.0000 0.0000
# 2 48.0323 108.7161 14.4455 0.0000 0.0000 0.0000
# 3 47.5007 14.4455 30.2966 0.0000 0.0000 0.0000
# 4 0.0000 0.0000 0.0000 6.8122 0.0000 0.0000
# 5 0.0000 0.0000 0.0000 0.0000 7.6414 0.0000
# 6 0.0000 0.0000 0.0000 0.0000 0.0000 15.0502
#
#
#
# Elastic Compliance Matrix: (Units=1/GPa)
#
#
# Indices 1 2 3 4 5 6 
#
# 1 0.018183 -0.004533 -0.026348 0.000000 0.000000 0.000000
# 2 -0.004533 0.010950 0.001886 0.000000 0.000000 0.000000
# 3 -0.026348 0.001886 0.073418 0.000000 0.000000 0.000000
# 4 0.000000 0.000000 0.000000 0.146796 0.000000 0.000000
# 5 0.000000 0.000000 0.000000 0.000000 0.130866 0.000000
# 6 0.000000 0.000000 0.000000 0.000000 0.000000 0.066444
#
#
# Mechanical properties :
#
#
# Convention : Reuss Voigt Hill
#
# Bulk Modulus (GPa) = 22.44096 54.97410 38.70753
# Shear Modulus (GPa) = 9.62461 16.88952 13.25706
#
# Velocity S-wave (km/s) = 2.41012 3.19268 2.82859
# Velocity P-wave (km/s) = 4.61395 6.83879 5.83342
#
# Compressibility (1/GPa) = 0.04456137
#
# Stress axis : x y z
#
# Youngs Moduli (GPa) = 54.99516 91.32113 13.62073
#
# Poissons Ratio (x) = 0.41394 0.35888
# Poissons Ratio (y) = 0.24928 -0.02568
# Poissons Ratio (z) = 1.44900 -0.17219
#
# Static dielectric constant tensor:
#      x y z
#    x 1.555970 0.000000 0.000000 
#    y 0.000000 1.552680 0.000000 
#    z 0.000000 0.000000 1.549460 
# 
# From -- ./inp_files/45793.got.cif
#   From: 2010.05.17/outbox.cif.g08.bks.cpg/sg63_23_cif.got.tgz:45793.got - 2010.06.03 15:47:04.
