data_PCOD9469995
_publ_section_title
;
Structure prediction by ZEFSAII (Michael W. Deem and Ramdas Pophale) SiO2 
 PCOD9469995
Probable space group: C M C M
;
_chemical_formula_sum "Si O2"
_cell_formula_units_Z 80
_cell_length_a 12.985676
_cell_length_b 13.260855
_cell_length_c 28.314720
_cell_angle_alpha 90.000000
_cell_angle_beta 90.000000
_cell_angle_gamma 90.000000
_cell_volume 4875.827813
_symmetry_space_group_name_H-M "C M C M"
_symmetry_group_IT_number 63
_symmetry_cell_setting 'orthorhombic'
loop_
_space_group_symop_operation_xyz
x,y,z
-x,-y,1/2+z
x,-y,-z
-x,y,1/2-z
-x,-y,-z
x,y,1/2-z
-x,y,z
x,-y,1/2+z
1/2+x,1/2+y,z
1/2-x,1/2-y,1/2+z
1/2+x,1/2-y,-z
1/2-x,1/2+y,1/2-z
1/2-x,1/2-y,-z
1/2+x,1/2+y,1/2-z
1/2-x,1/2+y,z
1/2+x,1/2-y,1/2+z
loop_
_atom_site_type_symbol
_atom_site_label
_atom_site_fract_x
_atom_site_fract_y
_atom_site_fract_z
Si Si1 0.619958 0.338475 0.037857
Si Si2 0.377314 0.589329 0.304689
Si Si3 0.121655 0.272793 0.371495
Si Si4 0.248716 0.353211 0.553317
Si Si5 0.766193 0.041043 0.883215
O O1 0.500000 0.349681 0.026813
O O2 0.653183 0.221564 0.044584
O O3 0.650059 0.399353 0.084999
O O4 0.693340 0.376197 0.995526
O O5 0.347259 0.583165 0.250000
O O6 0.500000 0.570364 0.308313
O O7 0.359803 0.700774 0.326371
O O8 0.317824 0.511583 0.338183
O O9 0.170255 0.211599 0.415446
O O10 0.180261 0.378345 0.368917
O O11 0.000000 0.285352 0.377714
O O12 0.223363 0.452410 0.583020
#
# Coordination Sequence:
#
# PCOD9469995 Si02
#       5
#    16  16  16  16  16
#     4  10  19  31  48  69  96 129 161 192 228 275
#     4   9  18  33  51  70  93 120 151 191 238 283
#     4   9  18  32  49  69  94 124 157 192 232 280
#     4   9  19  32  45  68  99 127 157 193 233 273
#     4  10  19  31  49  73  95 120 157 197 233 273
#
# _framework density 16.40747
#
# number of rings (size 3 to 8) (size 9 to 14) (size 15 to 20)
#    0.000    2.600    0.000    1.800    0.000    4.800 
#    0.000    0.000    0.000    7.200    0.000    0.000 
#    0.000    0.000    0.000    0.000    0.000    0.000 
#
# Total GULP energy -223038.103819 kJ/mol
# GULP energy per Si atom -5575.952595 kJ/mol
# Density = 1.637013 g / cm^3
# Si number density = 16.407470 Si / 1000 Ang^3
#
#
#
# Elastic Constant Matrix: (Units=GPa)
#
#
# Indices 1 2 3 4 5 6 
#
# 1 31.2908 36.5633 20.7678 0.0000 0.0000 0.0000
# 2 36.5633 109.6433 41.6588 0.0000 0.0000 0.0000
# 3 20.7678 41.6588 100.0752 0.0000 0.0000 0.0000
# 4 0.0000 0.0000 0.0000 15.9472 0.0000 0.0000
# 5 0.0000 0.0000 0.0000 0.0000 17.0179 0.0000
# 6 0.0000 0.0000 0.0000 0.0000 0.0000 17.5211
#
#
#
# Elastic Compliance Matrix: (Units=1/GPa)
#
#
# Indices 1 2 3 4 5 6 
#
# 1 0.053947 -0.016317 -0.004403 0.000000 0.000000 0.000000
# 2 -0.016317 0.015769 -0.003178 0.000000 0.000000 0.000000
# 3 -0.004403 -0.003178 0.012229 0.000000 0.000000 0.000000
# 4 0.000000 0.000000 0.000000 0.062707 0.000000 0.000000
# 5 0.000000 0.000000 0.000000 0.000000 0.058762 0.000000
# 6 0.000000 0.000000 0.000000 0.000000 0.000000 0.057074
#
#
# Mechanical properties :
#
#
# Convention : Reuss Voigt Hill
#
# Bulk Modulus (GPa) = 29.28322 48.77659 39.02990
# Shear Modulus (GPa) = 15.64123 19.56519 17.60321
#
# Velocity S-wave (km/s) = 3.09090 3.45694 3.27903
# Velocity P-wave (km/s) = 5.53394 6.76216 6.17864
#
# Compressibility (1/GPa) = 0.03414925
#
# Stress axis : x y z
#
# Youngs Moduli (GPa) = 18.53671 63.41386 81.77169
#
# Poissons Ratio (x) = 1.03474 0.36002
# Poissons Ratio (y) = 0.30247 0.25989
# Poissons Ratio (z) = 0.08161 0.20154
#
# Static dielectric constant tensor:
#      x y z
#    x 1.514150 0.000000 0.000000 
#    y 0.000000 1.561040 0.000000 
#    z 0.000000 0.000000 1.549190 
# 
# From -- ./inp_files/68080.got.cif
#   From: 2010.05.17/outbox.cif.g08.bks.cpg/sg63_35_cif.got.tgz:68080.got - 2010.06.03 15:47:04.
