data_PCOD9469241
_publ_section_title
;
Structure prediction by ZEFSAII (Michael W. Deem and Ramdas Pophale) SiO2 
 PCOD9469241
Probable space group: C M C M
;
_chemical_formula_sum "Si O2"
_cell_formula_units_Z 88
_cell_length_a 20.854724
_cell_length_b 31.140587
_cell_length_c 8.386544
_cell_angle_alpha 90.000000
_cell_angle_beta 90.000000
_cell_angle_gamma 90.000000
_cell_volume 5446.459408
_symmetry_space_group_name_H-M "C M C M"
_symmetry_group_IT_number 63
_symmetry_cell_setting 'orthorhombic'
loop_
_space_group_symop_operation_xyz
x,y,z
-x,-y,1/2+z
x,-y,-z
-x,y,1/2-z
-x,-y,-z
x,y,1/2-z
-x,y,z
x,-y,1/2+z
1/2+x,1/2+y,z
1/2-x,1/2-y,1/2+z
1/2+x,1/2-y,-z
1/2-x,1/2+y,1/2-z
1/2-x,1/2-y,-z
1/2+x,1/2+y,1/2-z
1/2-x,1/2+y,z
1/2+x,1/2-y,1/2+z
loop_
_atom_site_type_symbol
_atom_site_label
_atom_site_fract_x
_atom_site_fract_y
_atom_site_fract_z
Si Si1 0.000000 0.049218 0.939608
Si Si2 0.698806 0.370545 0.057216
Si Si3 0.788274 0.292679 0.056711
Si Si4 0.569348 0.325072 0.057231
Si Si5 0.569923 0.227036 0.557714
Si Si6 0.861294 0.048574 0.438759
O O1 0.000000 0.051662 0.750000
O O2 0.930528 0.065171 0.996714
O O3 0.000000 0.000000 0.000000
O O4 0.699387 0.372399 0.250000
O O5 0.753220 0.336743 0.006936
O O6 0.632190 0.349113 0.001117
O O7 0.694191 0.418854 0.993762
O O8 0.787009 0.291245 0.250000
O O9 0.862397 0.292272 0.002065
O O10 0.750000 0.250000 0.000000
O O11 0.571278 0.324372 0.250000
O O12 0.500000 0.343600 0.009659
O O13 0.571831 0.276596 0.994823
O O14 0.570118 0.224871 0.750000
O O15 0.500000 0.209705 0.503013
O O16 0.865254 0.047373 0.250000
O O17 0.851852 0.000000 0.500000
#
# Coordination Sequence:
#
# PCOD9469241 Si02
#       6
#     8  16  16  16  16  16
#     4  10  18  32  52  70  92 122 156 198 242 282
#     4  10  20  32  46  66  90 123 160 198 241 286
#     4  10  19  31  47  67  95 127 160 197 238 283
#     4   9  17  28  42  62  88 121 157 192 232 276
#     4   9  17  29  45  65  91 124 159 197 235 273
#     4  11  22  36  51  69  91 120 157 199 242 286
#
# _framework density 16.157285000000002
#
# number of rings (size 3 to 8) (size 9 to 14) (size 15 to 20)
#    0.000    2.182    1.818    3.545    1.273    1.455 
#    0.000    0.000    0.000    0.000    0.000    0.000 
#    0.000    0.727    0.000    1.273    0.000    1.818 
#
# Total GULP energy -245218.100417 kJ/mol
# GULP energy per Si atom -5573.138646 kJ/mol
# Density = 1.612051 g / cm^3
# Si number density = 16.157285 Si / 1000 Ang^3
#
#
#
# Elastic Constant Matrix: (Units=GPa)
#
#
# Indices 1 2 3 4 5 6 
#
# 1 130.8753 64.0410 16.5266 0.0000 0.0000 0.0000
# 2 64.0410 93.0315 15.6710 0.0000 0.0000 0.0000
# 3 16.5266 15.6710 28.3255 0.0000 0.0000 0.0000
# 4 0.0000 0.0000 0.0000 19.0165 0.0000 0.0000
# 5 0.0000 0.0000 0.0000 0.0000 13.0012 0.0000
# 6 0.0000 0.0000 0.0000 0.0000 0.0000 29.9688
#
#
#
# Elastic Compliance Matrix: (Units=1/GPa)
#
#
# Indices 1 2 3 4 5 6 
#
# 1 0.011695 -0.007610 -0.002613 0.000000 0.000000 0.000000
# 2 -0.007610 0.016806 -0.004858 0.000000 0.000000 0.000000
# 3 -0.002613 -0.004858 0.039516 0.000000 0.000000 0.000000
# 4 0.000000 0.000000 0.000000 0.052586 0.000000 0.000000
# 5 0.000000 0.000000 0.000000 0.000000 0.076916 0.000000
# 6 0.000000 0.000000 0.000000 0.000000 0.000000 0.033368
#
#
# Mechanical properties :
#
#
# Convention : Reuss Voigt Hill
#
# Bulk Modulus (GPa) = 26.41665 49.41214 37.91440
# Shear Modulus (GPa) = 18.27039 22.79689 20.53364
#
# Velocity S-wave (km/s) = 3.36636 3.76032 3.56878
# Velocity P-wave (km/s) = 5.61204 7.03574 6.36383
#
# Compressibility (1/GPa) = 0.03785491
#
# Stress axis : x y z
#
# Youngs Moduli (GPa) = 85.50853 59.50236 25.30627
#
# Poissons Ratio (x) = 0.45283 0.06612
# Poissons Ratio (y) = 0.65074 0.12293
# Poissons Ratio (z) = 0.22343 0.28904
#
# Static dielectric constant tensor:
#      x y z
#    x 1.583920 0.000000 0.000000 
#    y 0.000000 1.555090 0.000000 
#    z 0.000000 0.000000 1.547110 
# 
# From -- ./inp_files/8977.got.cif
#   From: 2010.05.17/outbox.cif.g08.bks.cpg/sg63_5_cif.got.tgz:8977.got - 2010.06.03 15:47:04.
