data_PCOD9469509
_publ_section_title
;
Structure prediction by ZEFSAII (Michael W. Deem and Ramdas Pophale) SiO2 
 PCOD9469509
Probable space group: C M C M
;
_chemical_formula_sum "Si O2"
_cell_formula_units_Z 116
_cell_length_a 9.143385
_cell_length_b 24.666875
_cell_length_c 25.180511
_cell_angle_alpha 90.000000
_cell_angle_beta 90.000000
_cell_angle_gamma 90.000000
_cell_volume 5679.180594
_symmetry_space_group_name_H-M "C M C M"
_symmetry_group_IT_number 63
_symmetry_cell_setting 'orthorhombic'
loop_
_space_group_symop_operation_xyz
x,y,z
-x,-y,1/2+z
x,-y,-z
-x,y,1/2-z
-x,-y,-z
x,y,1/2-z
-x,y,z
x,-y,1/2+z
1/2+x,1/2+y,z
1/2-x,1/2-y,1/2+z
1/2+x,1/2-y,-z
1/2-x,1/2+y,1/2-z
1/2-x,1/2-y,-z
1/2+x,1/2+y,1/2-z
1/2-x,1/2+y,z
1/2+x,1/2-y,1/2+z
loop_
_atom_site_type_symbol
_atom_site_label
_atom_site_fract_x
_atom_site_fract_y
_atom_site_fract_z
Si Si1 0.340779 0.600312 0.813146
Si Si2 0.663934 0.955245 0.954472
Si Si3 0.500000 0.989918 0.250000
Si Si4 0.742320 0.011568 0.161688
Si Si5 0.326486 0.126898 0.189222
Si Si6 0.674514 0.831162 0.103346
Si Si7 0.825551 0.851977 0.991443
Si Si8 0.674582 0.216866 0.098396
O O1 0.312619 0.603006 0.750000
O O2 0.500000 0.626599 0.822945
O O3 0.351008 0.538166 0.832304
O O4 0.219714 0.630149 0.848099
O O5 0.500000 0.930219 0.955095
O O6 0.687058 0.983704 0.898263
O O7 0.782377 0.908910 0.964315
O O8 0.671835 0.000000 0.000000
O O9 0.623500 0.992943 0.203871
O O10 0.771903 0.074107 0.177707
O O11 0.304170 0.144995 0.250000
O O12 0.500000 0.109818 0.185759
O O13 0.305415 0.172865 0.145449
O O14 0.500000 0.829012 0.096849
O O15 0.751794 0.851613 0.049349
O O16 0.743964 0.772099 0.113154
O O17 0.000000 0.844447 0.994487
O O18 0.749213 0.806579 0.954758
O O19 0.500000 0.224901 0.090812
#
# Coordination Sequence:
#
# PCOD9469509 Si02
#       8
#    16  16   4  16  16  16  16  16
#     4  11  26  45  67  97 137 177 220 269 330 393
#     4  11  23  38  61  96 134 175 222 276 335 396
#     4  12  20  32  68 100 132 176 230 270 320 390
#     4  12  20  37  65  95 136 172 226 268 323 398
#     4  10  18  34  62  97 130 169 216 263 319 391
#     4  12  27  46  70  96 127 170 225 277 331 392
#     4  12  25  43  67  95 132 171 218 273 334 399
#     4  11  23  42  69  97 133 172 220 274 334 396
#
# _framework density 20.425481000000001
#
# number of rings (size 3 to 8) (size 9 to 14) (size 15 to 20)
#    0.000    0.690    4.138    4.138    0.966    2.759 
#    0.000    1.379    0.000    2.069    0.000    0.000 
#    0.000    0.000    0.000    0.000    0.000    0.000 
#
# Total GULP energy -323546.093315 kJ/mol
# GULP energy per Si atom -5578.380919 kJ/mol
# Density = 2.037899 g / cm^3
# Si number density = 20.425481 Si / 1000 Ang^3
#
#
#
# Elastic Constant Matrix: (Units=GPa)
#
#
# Indices 1 2 3 4 5 6 
#
# 1 151.1484 54.4959 55.6201 0.0000 0.0000 0.0000
# 2 54.4959 79.3974 39.9322 0.0000 0.0000 0.0000
# 3 55.6201 39.9322 136.2747 0.0000 0.0000 0.0000
# 4 0.0000 0.0000 0.0000 68.7569 0.0000 0.0000
# 5 0.0000 0.0000 0.0000 0.0000 14.7980 0.0000
# 6 0.0000 0.0000 0.0000 0.0000 0.0000 17.1523
#
#
#
# Elastic Compliance Matrix: (Units=1/GPa)
#
#
# Indices 1 2 3 4 5 6 
#
# 1 0.009355 -0.005279 -0.002271 0.000000 0.000000 0.000000
# 2 -0.005279 0.017750 -0.003047 0.000000 0.000000 0.000000
# 3 -0.002271 -0.003047 0.009158 0.000000 0.000000 0.000000
# 4 0.000000 0.000000 0.000000 0.014544 0.000000 0.000000
# 5 0.000000 0.000000 0.000000 0.000000 0.067577 0.000000
# 6 0.000000 0.000000 0.000000 0.000000 0.000000 0.058301
#
#
# Mechanical properties :
#
#
# Convention : Reuss Voigt Hill
#
# Bulk Modulus (GPa) = 66.35911 74.10186 70.23049
# Shear Modulus (GPa) = 24.64239 34.59293 29.61766
#
# Velocity S-wave (km/s) = 3.47717 4.11982 3.81206
# Velocity P-wave (km/s) = 6.97710 7.68039 7.33718
#
# Compressibility (1/GPa) = 0.01506952
#
# Stress axis : x y z
#
# Youngs Moduli (GPa) = 106.89416 56.33692 109.19375
#
# Poissons Ratio (x) = 0.29738 0.24803
# Poissons Ratio (y) = 0.56425 0.33270
# Poissons Ratio (z) = 0.24281 0.17165
#
# Static dielectric constant tensor:
#      x y z
#    x 1.731060 0.000000 0.000000 
#    y 0.000000 1.757620 0.000000 
#    z 0.000000 0.000000 1.701500 
# 
# From -- ./inp_files/60448.got.cif
#   From: 2010.05.17/outbox.cif.g08.bks.cpg/sg63_31_cif.got.tgz:60448.got - 2010.06.03 15:47:04.
