data_PCOD9469392
_publ_section_title
;
Structure prediction by ZEFSAII (Michael W. Deem and Ramdas Pophale) SiO2 
 PCOD9469392
Probable space group: C M C M
;
_chemical_formula_sum "Si O2"
_cell_formula_units_Z 84
_cell_length_a 15.575634
_cell_length_b 12.838672
_cell_length_c 20.675132
_cell_angle_alpha 90.000000
_cell_angle_beta 90.000000
_cell_angle_gamma 90.000000
_cell_volume 4134.415576
_symmetry_space_group_name_H-M "C M C M"
_symmetry_group_IT_number 63
_symmetry_cell_setting 'orthorhombic'
loop_
_space_group_symop_operation_xyz
x,y,z
-x,-y,1/2+z
x,-y,-z
-x,y,1/2-z
-x,-y,-z
x,y,1/2-z
-x,y,z
x,-y,1/2+z
1/2+x,1/2+y,z
1/2-x,1/2-y,1/2+z
1/2+x,1/2-y,-z
1/2-x,1/2+y,1/2-z
1/2-x,1/2-y,-z
1/2+x,1/2+y,1/2-z
1/2-x,1/2+y,z
1/2+x,1/2-y,1/2+z
loop_
_atom_site_type_symbol
_atom_site_label
_atom_site_fract_x
_atom_site_fract_y
_atom_site_fract_z
Si Si1 0.157149 0.685284 0.174969
Si Si2 0.601926 0.591160 0.676783
Si Si3 0.650036 0.737073 0.143431
Si Si4 0.500000 0.700611 0.250000
Si Si5 0.603988 0.558694 0.435746
Si Si6 0.397022 0.960438 0.173048
O O1 0.128759 0.681254 0.250000
O O2 0.115901 0.792460 0.150069
O O3 0.258249 0.702162 0.170107
O O4 0.129703 0.573768 0.147635
O O5 0.638244 0.582306 0.750000
O O6 0.500000 0.573188 0.682330
O O7 0.635370 0.506752 0.626667
O O8 0.575086 0.704987 0.193468
O O9 0.633867 0.675934 0.076808
O O10 0.645868 0.861859 0.139069
O O11 0.633427 0.500000 0.500000
O O12 0.500000 0.557545 0.436421
O O13 0.375133 0.952330 0.250000
O O14 0.500000 0.949149 0.169135
#
# Coordination Sequence:
#
# PCOD9469392 Si02
#       6
#    16  16  16   4  16  16
#     4  10  21  32  53  88 120 148 188 239 288 345
#     4   9  19  35  58  85 116 152 190 237 295 349
#     4  12  21  35  56  85 117 149 196 235 291 339
#     4  12  20  36  54  92 120 150 182 250 282 342
#     4  10  22  38  58  81 112 153 195 241 293 349
#     4  10  18  33  54  80 117 153 186 233 292 348
#
# _framework density 20.317260999999998
#
# number of rings (size 3 to 8) (size 9 to 14) (size 15 to 20)
#    0.000    1.714    3.810    0.571    4.000    2.286 
#    0.000    0.952    0.000    0.000    0.000    5.333 
#    0.000    0.000    0.000    0.000    0.000    0.000 
#
# Total GULP energy -233931.560789 kJ/mol
# GULP energy per Si atom -5569.799066 kJ/mol
# Density = 2.027102 g / cm^3
# Si number density = 20.317261 Si / 1000 Ang^3
#
#
#
# Elastic Constant Matrix: (Units=GPa)
#
#
# Indices 1 2 3 4 5 6 
#
# 1 25.8347 5.7910 2.7193 0.0000 0.0000 0.0000
# 2 5.7910 136.3580 18.2903 0.0000 0.0000 0.0000
# 3 2.7193 18.2903 28.0605 0.0000 0.0000 0.0000
# 4 0.0000 0.0000 0.0000 28.1537 0.0000 0.0000
# 5 0.0000 0.0000 0.0000 0.0000 8.3322 0.0000
# 6 0.0000 0.0000 0.0000 0.0000 0.0000 5.5495
#
#
#
# Elastic Compliance Matrix: (Units=1/GPa)
#
#
# Indices 1 2 3 4 5 6 
#
# 1 0.039306 -0.001269 -0.002982 0.000000 0.000000 0.000000
# 2 -0.001269 0.008077 -0.005142 0.000000 0.000000 0.000000
# 3 -0.002982 -0.005142 0.039278 0.000000 0.000000 0.000000
# 4 0.000000 0.000000 0.000000 0.035519 0.000000 0.000000
# 5 0.000000 0.000000 0.000000 0.000000 0.120017 0.000000
# 6 0.000000 0.000000 0.000000 0.000000 0.000000 0.180198
#
#
# Mechanical properties :
#
#
# Convention : Reuss Voigt Hill
#
# Bulk Modulus (GPa) = 14.73290 27.09492 20.91391
# Shear Modulus (GPa) = 10.78037 19.30391 15.04214
#
# Velocity S-wave (km/s) = 2.30598 3.08575 2.72391
# Velocity P-wave (km/s) = 3.78909 5.10497 4.49544
#
# Compressibility (1/GPa) = 0.06787531
#
# Stress axis : x y z
#
# Youngs Moduli (GPa) = 25.44137 123.80464 25.45968
#
# Poissons Ratio (x) = 0.15715 0.07591
# Poissons Ratio (y) = 0.03229 0.13091
# Poissons Ratio (z) = 0.07586 0.63659
#
# Static dielectric constant tensor:
#      x y z
#    x 1.704700 0.000000 0.000000 
#    y 0.000000 1.804350 0.000000 
#    z 0.000000 0.000000 1.709190 
# 
# From -- ./inp_files/55315.got.cif
#   From: 2010.05.17/outbox.cif.g08.bks.cpg/sg63_28_cif.got.tgz:55315.got - 2010.06.03 15:47:04.
