data_PCOD9469594
_publ_section_title
;
Structure prediction by ZEFSAII (Michael W. Deem and Ramdas Pophale) SiO2 
 PCOD9469594
Probable space group: C M C M
;
_chemical_formula_sum "Si O2"
_cell_formula_units_Z 80
_cell_length_a 22.839990
_cell_length_b 30.443496
_cell_length_c 9.326037
_cell_angle_alpha 90.000000
_cell_angle_beta 90.000000
_cell_angle_gamma 90.000000
_cell_volume 6484.665326
_symmetry_space_group_name_H-M "C M C M"
_symmetry_group_IT_number 63
_symmetry_cell_setting 'orthorhombic'
loop_
_space_group_symop_operation_xyz
x,y,z
-x,-y,1/2+z
x,-y,-z
-x,y,1/2-z
-x,-y,-z
x,y,1/2-z
-x,y,z
x,-y,1/2+z
1/2+x,1/2+y,z
1/2-x,1/2-y,1/2+z
1/2+x,1/2-y,-z
1/2-x,1/2+y,1/2-z
1/2-x,1/2-y,-z
1/2+x,1/2+y,1/2-z
1/2-x,1/2+y,z
1/2+x,1/2-y,1/2+z
loop_
_atom_site_type_symbol
_atom_site_label
_atom_site_fract_x
_atom_site_fract_y
_atom_site_fract_z
Si Si1 0.430723 0.717700 0.580233
Si Si2 0.337498 0.229500 0.585511
Si Si3 0.871715 0.135937 0.423022
Si Si4 0.743203 0.682318 0.085941
Si Si5 0.931310 0.955398 0.921283
O O1 0.417968 0.715500 0.750000
O O2 0.500000 0.723252 0.560452
O O3 0.393299 0.756577 0.507879
O O4 0.409521 0.672830 0.503879
O O5 0.352858 0.220319 0.750000
O O6 0.296314 0.273200 0.585004
O O7 0.297989 0.191610 0.515400
O O8 0.878213 0.142160 0.250000
O O9 0.803518 0.145114 0.456988
O O10 0.894301 0.087611 0.460215
O O11 0.762287 0.675217 0.250000
O O12 0.926998 0.961438 0.750000
O O13 0.000000 0.947303 0.955462
O O14 0.913243 0.000000 0.000000
#
# Coordination Sequence:
#
# PCOD9469594 Si02
#       5
#    16  16  16  16  16
#     4  10  19  27  36  52  72  93 118 149 181 210
#     4   9  16  25  37  51  68  91 115 140 173 211
#     4   9  17  28  41  54  68  90 119 150 183 217
#     4   8  14  24  37  52  68  86 111 144 178 209
#     4   9  17  28  40  53  70  92 118 148 182 219
#
# _framework density 12.336797000000001
#
# number of rings (size 3 to 8) (size 9 to 14) (size 15 to 20)
#    0.000    3.000    0.000    3.000    0.000    8.000 
#    0.000    2.000    0.000    0.000    0.000    0.000 
#    0.000    0.000    0.000    0.000    0.000    1.000 
#
# Total GULP energy -222670.559289 kJ/mol
# GULP energy per Si atom -5566.763982 kJ/mol
# Density = 1.230872 g / cm^3
# Si number density = 12.336797 Si / 1000 Ang^3
#
#
#
# Elastic Constant Matrix: (Units=GPa)
#
#
# Indices 1 2 3 4 5 6 
#
# 1 70.6975 51.7159 52.7952 0.0000 0.0000 0.0000
# 2 51.7159 68.0775 37.3824 0.0000 0.0000 0.0000
# 3 52.7952 37.3824 63.2870 0.0000 0.0000 0.0000
# 4 0.0000 0.0000 0.0000 16.7606 0.0000 0.0000
# 5 0.0000 0.0000 0.0000 0.0000 19.0346 0.0000
# 6 0.0000 0.0000 0.0000 0.0000 0.0000 23.2750
#
#
#
# Elastic Compliance Matrix: (Units=1/GPa)
#
#
# Indices 1 2 3 4 5 6 
#
# 1 0.057173 -0.025520 -0.032621 0.000000 0.000000 0.000000
# 2 -0.025520 0.033132 0.001719 0.000000 0.000000 0.000000
# 3 -0.032621 0.001719 0.041999 0.000000 0.000000 0.000000
# 4 0.000000 0.000000 0.000000 0.059664 0.000000 0.000000
# 5 0.000000 0.000000 0.000000 0.000000 0.052536 0.000000
# 6 0.000000 0.000000 0.000000 0.000000 0.000000 0.042965
#
#
# Mechanical properties :
#
#
# Convention : Reuss Voigt Hill
#
# Bulk Modulus (GPa) = 51.38770 53.98324 52.68547
# Shear Modulus (GPa) = 12.29109 15.82528 14.05819
#
# Velocity S-wave (km/s) = 3.15984 3.58546 3.37936
# Velocity P-wave (km/s) = 7.42005 7.80984 7.61744
#
# Compressibility (1/GPa) = 0.01945991
#
# Stress axis : x y z
#
# Youngs Moduli (GPa) = 17.49067 30.18261 23.81015
#
# Poissons Ratio (x) = 0.77025 0.77671
# Poissons Ratio (y) = 0.44636 -0.04093
# Poissons Ratio (z) = 0.57056 -0.05188
#
# Static dielectric constant tensor:
#      x y z
#    x 1.398820 0.000000 0.000000 
#    y 0.000000 1.381180 0.000000 
#    z 0.000000 0.000000 1.415830 
# 
# From -- ./inp_files/6680.got.cif
#   From: 2010.05.17/outbox.cif.g08.bks.cpg/sg63_4_cif.got.tgz:6680.got - 2010.06.03 15:47:04.
