data_PCOD9469787
_publ_section_title
;
Structure prediction by ZEFSAII (Michael W. Deem and Ramdas Pophale) SiO2 
 PCOD9469787
Probable space group: C M C M
;
_chemical_formula_sum "Si O2"
_cell_formula_units_Z 128
_cell_length_a 17.663727
_cell_length_b 25.546399
_cell_length_c 15.558136
_cell_angle_alpha 90.000000
_cell_angle_beta 90.000000
_cell_angle_gamma 90.000000
_cell_volume 7020.525133
_symmetry_space_group_name_H-M "C M C M"
_symmetry_group_IT_number 63
_symmetry_cell_setting 'orthorhombic'
loop_
_space_group_symop_operation_xyz
x,y,z
-x,-y,1/2+z
x,-y,-z
-x,y,1/2-z
-x,-y,-z
x,y,1/2-z
-x,y,z
x,-y,1/2+z
1/2+x,1/2+y,z
1/2-x,1/2-y,1/2+z
1/2+x,1/2-y,-z
1/2-x,1/2+y,1/2-z
1/2-x,1/2-y,-z
1/2+x,1/2+y,1/2-z
1/2-x,1/2+y,z
1/2+x,1/2-y,1/2+z
loop_
_atom_site_type_symbol
_atom_site_label
_atom_site_fract_x
_atom_site_fract_y
_atom_site_fract_z
Si Si1 0.910746 0.672414 0.532328
Si Si2 0.642625 0.380006 0.651888
Si Si3 0.590400 0.269303 0.651588
Si Si4 0.124686 0.427465 0.349404
Si Si5 0.794615 0.619278 0.425419
Si Si6 0.775140 0.950271 0.438430
Si Si7 0.088488 0.995192 0.853687
Si Si8 0.582299 0.957132 0.853234
O O1 0.886907 0.721558 0.590804
O O2 0.899916 0.619906 0.589804
O O3 0.851073 0.664970 0.454800
O O4 0.000000 0.677210 0.509180
O O5 0.614230 0.379958 0.750000
O O6 0.611036 0.326183 0.613789
O O7 0.733251 0.374048 0.648691
O O8 0.616363 0.436824 0.618437
O O9 0.620408 0.264335 0.750000
O O10 0.500000 0.266534 0.657399
O O11 0.109872 0.414570 0.250000
O O12 0.212478 0.443071 0.364367
O O13 0.083514 0.481403 0.372812
O O14 0.740141 0.600673 0.503457
O O15 0.851152 0.572624 0.400536
O O16 0.757506 0.000000 0.500000
O O17 0.856679 0.963085 0.398977
O O18 0.097610 0.998594 0.750000
O O19 0.000000 0.001492 0.874115
O O20 0.592077 0.952323 0.750000
O O21 0.500000 0.935022 0.876770
#
# Coordination Sequence:
#
# PCOD9469787 Si02
#       8
#    16  16  16  16  16  16  16  16
#     4  10  21  33  49  70  96 127 159 199 244 284
#     4  10  19  33  53  73  94 124 159 197 240 287
#     4   9  18  34  53  72  93 117 152 197 243 286
#     4  10  19  31  48  68  95 130 167 199 231 279
#     4  11  21  33  47  69 102 130 161 191 238 286
#     4  11  19  32  46  70  99 132 156 188 237 283
#     4  10  20  34  52  73  97 127 163 198 235 283
#     4  10  19  30  46  68  95 130 169 202 230 271
#
# _framework density 18.232254000000001
#
# number of rings (size 3 to 8) (size 9 to 14) (size 15 to 20)
#    0.000    1.875    2.500    2.250    0.000    5.500 
#    0.000    1.875    0.000    0.000    0.000    0.000 
#    0.000    0.000    0.000    7.375    0.000    1.500 
#
# Total GULP energy -356683.658275 kJ/mol
# GULP energy per Si atom -5573.182161 kJ/mol
# Density = 1.819076 g / cm^3
# Si number density = 18.232254 Si / 1000 Ang^3
#
#
#
# Elastic Constant Matrix: (Units=GPa)
#
#
# Indices 1 2 3 4 5 6 
#
# 1 94.3114 24.4902 16.1271 0.0000 0.0000 0.0000
# 2 24.4902 55.3564 13.6421 0.0000 0.0000 0.0000
# 3 16.1271 13.6421 25.3871 0.0000 0.0000 0.0000
# 4 0.0000 0.0000 0.0000 16.3626 0.0000 0.0000
# 5 0.0000 0.0000 0.0000 0.0000 26.4000 0.0000
# 6 0.0000 0.0000 0.0000 0.0000 0.0000 11.0190
#
#
#
# Elastic Compliance Matrix: (Units=1/GPa)
#
#
# Indices 1 2 3 4 5 6 
#
# 1 0.012682 -0.004179 -0.005811 0.000000 0.000000 0.000000
# 2 -0.004179 0.022199 -0.009275 0.000000 0.000000 0.000000
# 3 -0.005811 -0.009275 0.048065 0.000000 0.000000 0.000000
# 4 0.000000 0.000000 0.000000 0.061115 0.000000 0.000000
# 5 0.000000 0.000000 0.000000 0.000000 0.037879 0.000000
# 6 0.000000 0.000000 0.000000 0.000000 0.000000 0.090752
#
#
# Mechanical properties :
#
#
# Convention : Reuss Voigt Hill
#
# Bulk Modulus (GPa) = 22.51320 31.50821 27.01071
# Shear Modulus (GPa) = 15.33619 18.80935 17.07277
#
# Velocity S-wave (km/s) = 2.90342 3.21542 3.06339
# Velocity P-wave (km/s) = 4.85948 5.57712 5.23063
#
# Compressibility (1/GPa) = 0.04441839
#
# Stress axis : x y z
#
# Youngs Moduli (GPa) = 78.85271 45.04697 20.80507
#
# Poissons Ratio (x) = 0.18823 0.12089
# Poissons Ratio (y) = 0.32949 0.19296
# Poissons Ratio (z) = 0.45819 0.41779
#
# Static dielectric constant tensor:
#      x y z
#    x 1.656470 0.000000 0.000000 
#    y 0.000000 1.621220 0.000000 
#    z 0.000000 0.000000 1.680760 
# 
# From -- ./inp_files/46340.got.cif
#   From: 2010.05.17/outbox.cif.g08.bks.cpg/sg63_24_cif.got.tgz:46340.got - 2010.06.03 15:47:04.
