data_PCOD9469319
_publ_section_title
;
Structure prediction by ZEFSAII (Michael W. Deem and Ramdas Pophale) SiO2 
 PCOD9469319
Probable space group: C M C M
;
_chemical_formula_sum "Si O2"
_cell_formula_units_Z 96
_cell_length_a 11.219955
_cell_length_b 19.490655
_cell_length_c 21.504020
_cell_angle_alpha 90.000000
_cell_angle_beta 90.000000
_cell_angle_gamma 90.000000
_cell_volume 4702.590959
_symmetry_space_group_name_H-M "C M C M"
_symmetry_group_IT_number 63
_symmetry_cell_setting 'orthorhombic'
loop_
_space_group_symop_operation_xyz
x,y,z
-x,-y,1/2+z
x,-y,-z
-x,y,1/2-z
-x,-y,-z
x,y,1/2-z
-x,y,z
x,-y,1/2+z
1/2+x,1/2+y,z
1/2-x,1/2-y,1/2+z
1/2+x,1/2-y,-z
1/2-x,1/2+y,1/2-z
1/2-x,1/2-y,-z
1/2+x,1/2+y,1/2-z
1/2-x,1/2+y,z
1/2+x,1/2-y,1/2+z
loop_
_atom_site_type_symbol
_atom_site_label
_atom_site_fract_x
_atom_site_fract_y
_atom_site_fract_z
Si Si1 0.870590 0.155426 0.494719
Si Si2 0.262834 0.544181 0.564339
Si Si3 0.133845 0.301137 0.558066
Si Si4 0.284116 0.827466 0.681916
Si Si5 0.000000 0.435942 0.682556
Si Si6 0.500000 0.962424 0.433424
Si Si7 0.140085 0.044735 0.178133
O O1 0.854488 0.105800 0.553516
O O2 0.872282 0.234831 0.514686
O O3 0.743138 0.149085 0.459958
O O4 0.000000 0.139460 0.465029
O O5 0.270488 0.500000 0.500000
O O6 0.294351 0.498022 0.624076
O O7 0.128205 0.573512 0.570575
O O8 0.174744 0.278428 0.626927
O O9 0.000000 0.331722 0.558387
O O10 0.279684 0.795512 0.750000
O O11 0.386178 0.886219 0.681295
O O12 0.167666 0.873867 0.671070
O O13 0.000000 0.484477 0.623630
O O14 0.000000 0.472192 0.750000
O O15 0.500000 0.000000 0.500000
O O16 0.176459 0.027766 0.250000
O O17 0.000000 0.032210 0.172538
#
# Coordination Sequence:
#
# PCOD9469319 Si02
#       7
#    16  16  16  16   8   8  16
#     4  10  23  39  54  79 110 147 185 224 278 335
#     4  11  22  35  56  82 112 144 183 228 278 331
#     4  10  21  37  58  79 108 142 184 233 274 324
#     4  10  19  32  56  84 107 136 178 227 277 322
#     4  10  18  32  54  82 110 138 175 226 282 326
#     4  10  22  32  50  88 114 140 178 234 279 330
#     4  10  21  36  54  81 115 150 183 222 277 338
#
# _framework density 20.414277999999999
#
# number of rings (size 3 to 8) (size 9 to 14) (size 15 to 20)
#    0.000    1.833    2.500    1.500    3.500    3.333 
#    0.000    0.833    0.000    1.000    0.000    0.000 
#    0.000    0.000    0.000    0.000    0.000    0.000 
#
# Total GULP energy -267397.398871 kJ/mol
# GULP energy per Si atom -5570.779143 kJ/mol
# Density = 2.036781 g / cm^3
# Si number density = 20.414278 Si / 1000 Ang^3
#
#
#
# Elastic Constant Matrix: (Units=GPa)
#
#
# Indices 1 2 3 4 5 6 
#
# 1 144.5920 9.8890 25.5370 0.0000 0.0000 0.0000
# 2 9.8890 15.5133 -2.9570 0.0000 0.0000 0.0000
# 3 25.5370 -2.9570 98.7198 0.0000 0.0000 0.0000
# 4 0.0000 0.0000 0.0000 16.4207 0.0000 0.0000
# 5 0.0000 0.0000 0.0000 0.0000 22.8132 0.0000
# 6 0.0000 0.0000 0.0000 0.0000 0.0000 18.1262
#
#
#
# Elastic Compliance Matrix: (Units=1/GPa)
#
#
# Indices 1 2 3 4 5 6 
#
# 1 0.007655 -0.005288 -0.002139 0.000000 0.000000 0.000000
# 2 -0.005288 0.068483 0.003419 0.000000 0.000000 0.000000
# 3 -0.002139 0.003419 0.010785 0.000000 0.000000 0.000000
# 4 0.000000 0.000000 0.000000 0.060899 0.000000 0.000000
# 5 0.000000 0.000000 0.000000 0.000000 0.043834 0.000000
# 6 0.000000 0.000000 0.000000 0.000000 0.000000 0.055169
#
#
# Mechanical properties :
#
#
# Convention : Reuss Voigt Hill
#
# Bulk Modulus (GPa) = 12.67276 35.97367 24.32322
# Shear Modulus (GPa) = 17.78453 26.56241 22.17347
#
# Velocity S-wave (km/s) = 2.95478 3.61108 3.29929
# Velocity P-wave (km/s) = 4.22637 5.92002 5.14339
#
# Compressibility (1/GPa) = 0.07890941
#
# Stress axis : x y z
#
# Youngs Moduli (GPa) = 130.62747 14.60215 92.71853
#
# Poissons Ratio (x) = 0.07721 0.19829
# Poissons Ratio (y) = 0.69070 -0.31701
# Poissons Ratio (z) = 0.27937 -0.04993
#
# Static dielectric constant tensor:
#      x y z
#    x 1.811830 0.000000 0.000000 
#    y 0.000000 1.700660 0.000000 
#    z 0.000000 0.000000 1.811640 
# 
# From -- ./inp_files/53088.got.cif
#   From: 2010.05.17/outbox.cif.g08.bks.cpg/sg63_27_cif.got.tgz:53088.got - 2010.06.03 15:47:04.
