data_PCOD9469554
_publ_section_title
;
Structure prediction by ZEFSAII (Michael W. Deem and Ramdas Pophale) SiO2 
 PCOD9469554
Probable space group: C M C M
;
_chemical_formula_sum "Si O2"
_cell_formula_units_Z 96
_cell_length_a 7.831816
_cell_length_b 25.632290
_cell_length_c 24.576679
_cell_angle_alpha 90.000000
_cell_angle_beta 90.000000
_cell_angle_gamma 90.000000
_cell_volume 4933.703892
_symmetry_space_group_name_H-M "C M C M"
_symmetry_group_IT_number 63
_symmetry_cell_setting 'orthorhombic'
loop_
_space_group_symop_operation_xyz
x,y,z
-x,-y,1/2+z
x,-y,-z
-x,y,1/2-z
-x,-y,-z
x,y,1/2-z
-x,y,z
x,-y,1/2+z
1/2+x,1/2+y,z
1/2-x,1/2-y,1/2+z
1/2+x,1/2-y,-z
1/2-x,1/2+y,1/2-z
1/2-x,1/2-y,-z
1/2+x,1/2+y,1/2-z
1/2-x,1/2+y,z
1/2+x,1/2-y,1/2+z
loop_
_atom_site_type_symbol
_atom_site_label
_atom_site_fract_x
_atom_site_fract_y
_atom_site_fract_z
Si Si1 0.791495 0.418820 0.939395
Si Si2 0.698344 0.148906 0.250000
Si Si3 0.203669 0.605203 0.559816
Si Si4 0.203562 0.774382 0.058441
Si Si5 0.209517 0.680813 0.132352
Si Si6 0.706871 0.984479 0.135779
Si Si7 0.304434 0.531509 0.250000
O O1 0.739457 0.367268 0.906323
O O2 0.739530 0.469756 0.905931
O O3 0.000000 0.419231 0.940686
O O4 0.730091 0.415077 0.001408
O O5 0.500000 0.164830 0.250000
O O6 0.771776 0.170143 0.193414
O O7 0.702972 0.085988 0.250000
O O8 0.233979 0.666664 0.564112
O O9 0.266817 0.569997 0.609766
O O10 0.000000 0.597251 0.558231
O O11 0.266247 0.734652 0.104933
O O12 0.000000 0.775686 0.061661
O O13 0.250000 0.750000 0.000000
O O14 0.000000 0.680346 0.132982
O O15 0.500000 0.984983 0.138219
O O16 0.768315 0.998728 0.195791
O O17 0.500000 0.547989 0.250000
#
# Coordination Sequence:
#
# PCOD9469554 Si02
#       7
#    16   8  16  16  16  16   8
#     4   9  15  29  55  86 111 134 175 229 271 315
#     4  10  18  36  61  80 101 137 184 228 266 315
#     4  10  20  35  56  84 113 142 180 226 276 327
#     4  11  21  35  54  79 111 147 184 225 272 326
#     4   9  17  30  55  83 106 134 181 228 264 315
#     4  10  20  36  59  81 106 146 189 223 264 330
#     4  12  24  36  53  80 115 145 176 226 278 325
#
# _framework density 19.457996999999999
#
# number of rings (size 3 to 8) (size 9 to 14) (size 15 to 20)
#    0.000    2.000    3.333    1.750    0.000    2.667 
#    0.000    5.000    0.000    3.000    0.000    0.000 
#    0.000    0.000    0.000    0.000    0.000    0.000 
#
# Total GULP energy -267988.020835 kJ/mol
# GULP energy per Si atom -5583.083767 kJ/mol
# Density = 1.941371 g / cm^3
# Si number density = 19.457997 Si / 1000 Ang^3
#
#
#
# Elastic Constant Matrix: (Units=GPa)
#
#
# Indices 1 2 3 4 5 6 
#
# 1 22.1969 -10.2726 -0.3811 0.0000 0.0000 0.0000
# 2 -10.2726 125.1231 81.2343 0.0000 0.0000 0.0000
# 3 -0.3811 81.2343 167.8644 0.0000 0.0000 0.0000
# 4 0.0000 0.0000 0.0000 36.5350 0.0000 0.0000
# 5 0.0000 0.0000 0.0000 0.0000 5.0454 0.0000
# 6 0.0000 0.0000 0.0000 0.0000 0.0000 21.1041
#
#
#
# Elastic Compliance Matrix: (Units=1/GPa)
#
#
# Indices 1 2 3 4 5 6 
#
# 1 0.047596 0.005596 -0.002600 0.000000 0.000000 0.000000
# 2 0.005596 0.012311 -0.005945 0.000000 0.000000 0.000000
# 3 -0.002600 -0.005945 0.008828 0.000000 0.000000 0.000000
# 4 0.000000 0.000000 0.000000 0.027371 0.000000 0.000000
# 5 0.000000 0.000000 0.000000 0.000000 0.198200 0.000000
# 6 0.000000 0.000000 0.000000 0.000000 0.000000 0.047384
#
#
# Mechanical properties :
#
#
# Convention : Reuss Voigt Hill
#
# Bulk Modulus (GPa) = 15.91415 50.70509 33.30962
# Shear Modulus (GPa) = 13.56724 28.84383 21.20553
#
# Velocity S-wave (km/s) = 2.64343 3.85432 3.30481
# Velocity P-wave (km/s) = 4.18490 6.77666 5.63190
#
# Compressibility (1/GPa) = 0.06283716
#
# Stress axis : x y z
#
# Youngs Moduli (GPa) = 21.01004 81.22646 113.27251
#
# Poissons Ratio (x) = -0.45450 0.29448
# Poissons Ratio (y) = -0.11756 0.67341
# Poissons Ratio (z) = 0.05462 0.48290
#
# Static dielectric constant tensor:
#      x y z
#    x 1.733210 0.000000 0.000000 
#    y 0.000000 1.637850 0.000000 
#    z 0.000000 0.000000 1.672020 
# 
# From -- ./inp_files/60056.got.cif
#   From: 2010.05.17/outbox.cif.g08.bks.cpg/sg63_31_cif.got.tgz:60056.got - 2010.06.03 15:47:04.
