data_PCOD9469287
_publ_section_title
;
Structure prediction by ZEFSAII (Michael W. Deem and Ramdas Pophale) SiO2 
 PCOD9469287
Probable space group: C M C M
;
_chemical_formula_sum "Si O2"
_cell_formula_units_Z 80
_cell_length_a 25.447638
_cell_length_b 20.989727
_cell_length_c 8.707619
_cell_angle_alpha 90.000000
_cell_angle_beta 90.000000
_cell_angle_gamma 90.000000
_cell_volume 4651.078682
_symmetry_space_group_name_H-M "C M C M"
_symmetry_group_IT_number 63
_symmetry_cell_setting 'orthorhombic'
loop_
_space_group_symop_operation_xyz
x,y,z
-x,-y,1/2+z
x,-y,-z
-x,y,1/2-z
-x,-y,-z
x,y,1/2-z
-x,y,z
x,-y,1/2+z
1/2+x,1/2+y,z
1/2-x,1/2-y,1/2+z
1/2+x,1/2-y,-z
1/2-x,1/2+y,1/2-z
1/2-x,1/2-y,-z
1/2+x,1/2+y,1/2-z
1/2-x,1/2+y,z
1/2+x,1/2-y,1/2+z
loop_
_atom_site_type_symbol
_atom_site_label
_atom_site_fract_x
_atom_site_fract_y
_atom_site_fract_z
Si Si1 0.500000 0.601495 0.428453
Si Si2 0.390752 0.249080 0.067576
Si Si3 0.000000 0.256713 0.072043
Si Si4 0.280700 0.810745 0.933269
Si Si5 0.775843 0.933791 0.067234
Si Si6 0.614406 0.609100 0.064771
O O1 0.500000 0.581685 0.250000
O O2 0.500000 0.678979 0.432310
O O3 0.442702 0.583830 0.493074
O O4 0.392420 0.261693 0.250000
O O5 0.342102 0.202587 0.036319
O O6 0.446600 0.223075 0.010708
O O7 0.381636 0.316516 0.982650
O O8 0.000000 0.275254 0.250000
O O9 0.272659 0.813574 0.750000
O O10 0.250000 0.750000 0.000000
O O11 0.257841 0.874119 0.008499
O O12 0.776461 0.935146 0.250000
O O13 0.835291 0.924637 0.005992
O O14 0.755125 0.000000 0.000000
O O15 0.615373 0.604695 0.250000
#
# Coordination Sequence:
#
# PCOD9469287 Si02
#       6
#     8  16   8  16  16  16
#     4   7  14  27  46  72  99 134 175 220 266 311
#     4  10  19  31  51  80 111 142 179 222 271 323
#     4   9  17  29  47  74 109 144 177 218 271 319
#     4  11  22  36  57  84 112 144 183 228 275 327
#     4  12  25  40  56  77 107 145 186 230 281 332
#     4  10  18  32  53  76 105 140 182 226 273 325
#
# _framework density 17.200312
#
# number of rings (size 3 to 8) (size 9 to 14) (size 15 to 20)
#    0.000    1.800    2.000    5.100    0.000    2.400 
#    0.000    2.000    0.000    0.000    0.000    0.700 
#    0.000    0.000    0.000    0.000    0.000    0.000 
#
# Total GULP energy -223286.060160 kJ/mol
# GULP energy per Si atom -5582.151504 kJ/mol
# Density = 1.716116 g / cm^3
# Si number density = 17.200312 Si / 1000 Ang^3
#
#
#
# Elastic Constant Matrix: (Units=GPa)
#
#
# Indices 1 2 3 4 5 6 
#
# 1 117.1467 52.2177 55.8686 0.0000 0.0000 0.0000
# 2 52.2177 98.2965 42.1224 0.0000 0.0000 0.0000
# 3 55.8686 42.1224 97.0233 0.0000 0.0000 0.0000
# 4 0.0000 0.0000 0.0000 22.2098 0.0000 0.0000
# 5 0.0000 0.0000 0.0000 0.0000 27.8225 0.0000
# 6 0.0000 0.0000 0.0000 0.0000 0.0000 10.8117
#
#
#
# Elastic Compliance Matrix: (Units=1/GPa)
#
#
# Indices 1 2 3 4 5 6 
#
# 1 0.013297 -0.004647 -0.005639 0.000000 0.000000 0.000000
# 2 -0.004647 0.014123 -0.003455 0.000000 0.000000 0.000000
# 3 -0.005639 -0.003455 0.015054 0.000000 0.000000 0.000000
# 4 0.000000 0.000000 0.000000 0.045025 0.000000 0.000000
# 5 0.000000 0.000000 0.000000 0.000000 0.035942 0.000000
# 6 0.000000 0.000000 0.000000 0.000000 0.000000 0.092492
#
#
# Mechanical properties :
#
#
# Convention : Reuss Voigt Hill
#
# Bulk Modulus (GPa) = 66.70953 68.09823 67.40388
# Shear Modulus (GPa) = 20.12767 22.98600 21.55684
#
# Velocity S-wave (km/s) = 3.42452 3.65961 3.54401
# Velocity P-wave (km/s) = 7.38272 7.58513 7.48461
#
# Compressibility (1/GPa) = 0.01499036
#
# Stress axis : x y z
#
# Youngs Moduli (GPa) = 75.20340 70.80773 66.42672
#
# Poissons Ratio (x) = 0.32906 0.37460
# Poissons Ratio (y) = 0.34949 0.22953
# Poissons Ratio (z) = 0.42410 0.24466
#
# Static dielectric constant tensor:
#      x y z
#    x 1.617070 0.000000 0.000000 
#    y 0.000000 1.498070 0.000000 
#    z 0.000000 0.000000 1.573840 
# 
# From -- ./inp_files/10106.got.cif
#   From: 2010.05.17/outbox.cif.g08.bks.cpg/sg63_6_cif.got.tgz:10106.got - 2010.06.03 15:47:04.
