data_PCOD9469399
_publ_section_title
;
Structure prediction by ZEFSAII (Michael W. Deem and Ramdas Pophale) SiO2 
 PCOD9469399
Probable space group: C M C M
;
_chemical_formula_sum "Si O2"
_cell_formula_units_Z 104
_cell_length_a 28.045076
_cell_length_b 24.671261
_cell_length_c 8.154572
_cell_angle_alpha 90.000000
_cell_angle_beta 90.000000
_cell_angle_gamma 90.000000
_cell_volume 5642.208627
_symmetry_space_group_name_H-M "C M C M"
_symmetry_group_IT_number 63
_symmetry_cell_setting 'orthorhombic'
loop_
_space_group_symop_operation_xyz
x,y,z
-x,-y,1/2+z
x,-y,-z
-x,y,1/2-z
-x,-y,-z
x,y,1/2-z
-x,y,z
x,-y,1/2+z
1/2+x,1/2+y,z
1/2-x,1/2-y,1/2+z
1/2+x,1/2-y,-z
1/2-x,1/2+y,1/2-z
1/2-x,1/2-y,-z
1/2+x,1/2+y,1/2-z
1/2-x,1/2+y,z
1/2+x,1/2-y,1/2+z
loop_
_atom_site_type_symbol
_atom_site_label
_atom_site_fract_x
_atom_site_fract_y
_atom_site_fract_z
Si Si1 0.053025 0.062001 0.553991
Si Si2 0.126077 0.852703 0.941472
Si Si3 0.000000 0.563368 0.948840
Si Si4 0.948186 0.764828 0.549885
Si Si5 0.283372 0.312177 0.059238
Si Si6 0.682159 0.193871 0.058681
Si Si7 0.917103 0.646118 0.946800
O O1 0.058204 0.066407 0.750000
O O2 0.093204 0.095695 0.464513
O O3 0.000000 0.082093 0.508519
O O4 0.055569 0.000000 0.500000
O O5 0.136346 0.843638 0.750000
O O6 0.094008 0.803019 0.008279
O O7 0.175215 0.855392 0.036982
O O8 0.048160 0.596732 0.003853
O O9 0.000000 0.564562 0.750000
O O10 0.000000 0.500000 0.000000
O O11 0.947132 0.766200 0.750000
O O12 0.940902 0.702850 0.499785
O O13 0.000000 0.784107 0.495819
O O14 0.271956 0.303348 0.250000
O O15 0.307217 0.255552 0.992703
O O16 0.235058 0.329526 0.969870
O O17 0.671627 0.199755 0.250000
O O18 0.638833 0.157487 0.989330
O O19 0.918879 0.643518 0.750000
#
# Coordination Sequence:
#
# PCOD9469399 Si02
#       7
#    16  16   8  16  16  16  16
#     4  10  21  37  55  75 104 142 185 228 267 314
#     4  11  20  31  52  79 109 143 180 224 272 322
#     4  10  22  38  60  84 112 148 191 232 273 328
#     4   9  16  27  46  74 106 138 175 214 260 320
#     4  10  20  33  50  75 110 146 183 220 267 329
#     4  10  20  33  51  77 109 144 180 222 272 325
#     4  10  18  33  55  78 106 143 181 220 269 325
#
# _framework density 18.432499
#
# number of rings (size 3 to 8) (size 9 to 14) (size 15 to 20)
#    0.000    2.000    2.308    2.308    0.000    3.385 
#    0.000    0.000    0.000    1.846    0.000    4.308 
#    0.000    0.000    0.000    0.000    0.000    0.000 
#
# Total GULP energy -289705.636091 kJ/mol
# GULP energy per Si atom -5571.262233 kJ/mol
# Density = 1.839055 g / cm^3
# Si number density = 18.432499 Si / 1000 Ang^3
#
#
#
# Elastic Constant Matrix: (Units=GPa)
#
#
# Indices 1 2 3 4 5 6 
#
# 1 147.0708 46.8834 9.8440 0.0000 0.0000 0.0000
# 2 46.8834 79.2308 5.8327 0.0000 0.0000 0.0000
# 3 9.8440 5.8327 26.8788 0.0000 0.0000 0.0000
# 4 0.0000 0.0000 0.0000 19.8499 0.0000 0.0000
# 5 0.0000 0.0000 0.0000 0.0000 17.7754 0.0000
# 6 0.0000 0.0000 0.0000 0.0000 0.0000 11.7364
#
#
#
# Elastic Compliance Matrix: (Units=1/GPa)
#
#
# Indices 1 2 3 4 5 6 
#
# 1 0.008490 -0.004873 -0.002052 0.000000 0.000000 0.000000
# 2 -0.004873 0.015623 -0.001606 0.000000 0.000000 0.000000
# 3 -0.002052 -0.001606 0.038304 0.000000 0.000000 0.000000
# 4 0.000000 0.000000 0.000000 0.050378 0.000000 0.000000
# 5 0.000000 0.000000 0.000000 0.000000 0.056258 0.000000
# 6 0.000000 0.000000 0.000000 0.000000 0.000000 0.085205
#
#
# Mechanical properties :
#
#
# Convention : Reuss Voigt Hill
#
# Bulk Modulus (GPa) = 22.04765 42.03339 32.04052
# Shear Modulus (GPa) = 17.45584 22.58038 20.01811
#
# Velocity S-wave (km/s) = 3.08070 3.50384 3.29906
# Velocity P-wave (km/s) = 4.96402 6.26280 5.65085
#
# Compressibility (1/GPa) = 0.04535630
#
# Stress axis : x y z
#
# Youngs Moduli (GPa) = 117.78345 64.00837 26.10694
#
# Poissons Ratio (x) = 0.31190 0.05357
# Poissons Ratio (y) = 0.57394 0.04192
# Poissons Ratio (z) = 0.24169 0.10277
#
# Static dielectric constant tensor:
#      x y z
#    x 1.683630 0.000000 0.000000 
#    y 0.000000 1.669260 0.000000 
#    z 0.000000 0.000000 1.660120 
# 
# From -- ./inp_files/12901.got.cif
#   From: 2010.05.17/outbox.cif.g08.bks.cpg/sg63_7_cif.got.tgz:12901.got - 2010.06.03 15:47:04.
