data_PCOD9469385
_publ_section_title
;
Structure prediction by ZEFSAII (Michael W. Deem and Ramdas Pophale) SiO2 
 PCOD9469385
Probable space group: C M C M
;
_chemical_formula_sum "Si O2"
_cell_formula_units_Z 88
_cell_length_a 25.660577
_cell_length_b 8.965553
_cell_length_c 21.107153
_cell_angle_alpha 90.000000
_cell_angle_beta 90.000000
_cell_angle_gamma 90.000000
_cell_volume 4855.938280
_symmetry_space_group_name_H-M "C M C M"
_symmetry_group_IT_number 63
_symmetry_cell_setting 'orthorhombic'
loop_
_space_group_symop_operation_xyz
x,y,z
-x,-y,1/2+z
x,-y,-z
-x,y,1/2-z
-x,-y,-z
x,y,1/2-z
-x,y,z
x,-y,1/2+z
1/2+x,1/2+y,z
1/2-x,1/2-y,1/2+z
1/2+x,1/2-y,-z
1/2-x,1/2+y,1/2-z
1/2-x,1/2-y,-z
1/2+x,1/2+y,1/2-z
1/2-x,1/2+y,z
1/2+x,1/2-y,1/2+z
loop_
_atom_site_type_symbol
_atom_site_label
_atom_site_fract_x
_atom_site_fract_y
_atom_site_fract_z
Si Si1 0.914707 0.807423 0.363366
Si Si2 0.309421 0.840931 0.827374
Si Si3 0.500000 0.809826 0.103541
Si Si4 0.700540 0.810538 0.326387
Si Si5 0.500000 0.333971 0.028780
Si Si6 0.594350 0.349835 0.675055
Si Si7 0.500000 0.906636 0.683169
O O1 0.857680 0.735802 0.362598
O O2 0.948524 0.816132 0.427817
O O3 0.950117 0.699158 0.320793
O O4 0.910402 0.973866 0.336192
O O5 0.316279 0.826948 0.750000
O O6 0.255516 0.760257 0.845732
O O7 0.305997 0.016174 0.843396
O O8 0.449852 0.732199 0.135009
O O9 0.500000 0.980584 0.125018
O O10 0.500000 0.780496 0.029129
O O11 0.701229 0.806212 0.250000
O O12 0.650736 0.712512 0.345604
O O13 0.500000 0.500000 0.000000
O O14 0.587676 0.318983 0.750000
O O15 0.500000 0.991405 0.750000
#
# Coordination Sequence:
#
# PCOD9469385 Si02
#       7
#    16  16   8  16   8  16   8
#     4  11  22  35  59  80 116 158 193 245 285 349
#     4  10  18  33  53  84 118 152 187 234 298 358
#     4  12  23  38  60  79 114 154 197 245 288 346
#     4   9  19  32  53  84 125 155 185 229 292 370
#     4  11  23  45  58  82 110 158 214 242 291 335
#     4  11  20  33  55  87 114 150 189 236 299 352
#     4  11  22  36  54  89 121 143 181 243 304 354
#
# _framework density 18.122143000000001
#
# number of rings (size 3 to 8) (size 9 to 14) (size 15 to 20)
#    0.000    1.455    1.818    5.182    0.000    5.818 
#    0.000    0.000    0.000    1.091    0.000    0.000 
#    0.000    0.000    0.000    0.000    0.000    0.000 
#
# Total GULP energy -245669.536766 kJ/mol
# GULP energy per Si atom -5583.398563 kJ/mol
# Density = 1.808090 g / cm^3
# Si number density = 18.122143 Si / 1000 Ang^3
#
#
#
# Elastic Constant Matrix: (Units=GPa)
#
#
# Indices 1 2 3 4 5 6 
#
# 1 172.7989 57.6463 42.7950 0.0000 0.0000 0.0000
# 2 57.6463 108.6087 24.2183 0.0000 0.0000 0.0000
# 3 42.7950 24.2183 85.6485 0.0000 0.0000 0.0000
# 4 0.0000 0.0000 0.0000 26.2105 0.0000 0.0000
# 5 0.0000 0.0000 0.0000 0.0000 13.6678 0.0000
# 6 0.0000 0.0000 0.0000 0.0000 0.0000 38.4354
#
#
#
# Elastic Compliance Matrix: (Units=1/GPa)
#
#
# Indices 1 2 3 4 5 6 
#
# 1 0.007632 -0.003416 -0.002847 0.000000 0.000000 0.000000
# 2 -0.003416 0.011356 -0.001504 0.000000 0.000000 0.000000
# 3 -0.002847 -0.001504 0.013524 0.000000 0.000000 0.000000
# 4 0.000000 0.000000 0.000000 0.038153 0.000000 0.000000
# 5 0.000000 0.000000 0.000000 0.000000 0.073165 0.000000
# 6 0.000000 0.000000 0.000000 0.000000 0.000000 0.026018
#
#
# Mechanical properties :
#
#
# Convention : Reuss Voigt Hill
#
# Bulk Modulus (GPa) = 58.90558 68.48613 63.69585
# Shear Modulus (GPa) = 26.17252 31.82251 28.99751
#
# Velocity S-wave (km/s) = 3.80442 4.19501 4.00448
# Velocity P-wave (km/s) = 7.20233 7.83183 7.52367
#
# Compressibility (1/GPa) = 0.01697632
#
# Stress axis : x y z
#
# Youngs Moduli (GPa) = 131.03112 88.06075 73.94412
#
# Poissons Ratio (x) = 0.30080 0.21055
# Poissons Ratio (y) = 0.44757 0.11123
# Poissons Ratio (z) = 0.37310 0.13247
#
# Static dielectric constant tensor:
#      x y z
#    x 1.622600 0.000000 0.000000 
#    y 0.000000 1.625740 0.000000 
#    z 0.000000 0.000000 1.612650 
# 
# From -- ./inp_files/57398.got.cif
#   From: 2010.05.17/outbox.cif.g08.bks.cpg/sg63_29_cif.got.tgz:57398.got - 2010.06.03 15:47:04.
