data_PCOD9469464
_publ_section_title
;
Structure prediction by ZEFSAII (Michael W. Deem and Ramdas Pophale) SiO2 
 PCOD9469464
Probable space group: C M C M
;
_chemical_formula_sum "Si O2"
_cell_formula_units_Z 92
_cell_length_a 26.543547
_cell_length_b 22.332279
_cell_length_c 7.491533
_cell_angle_alpha 90.000000
_cell_angle_beta 90.000000
_cell_angle_gamma 90.000000
_cell_volume 4440.815179
_symmetry_space_group_name_H-M "C M C M"
_symmetry_group_IT_number 63
_symmetry_cell_setting 'orthorhombic'
loop_
_space_group_symop_operation_xyz
x,y,z
-x,-y,1/2+z
x,-y,-z
-x,y,1/2-z
-x,-y,-z
x,y,1/2-z
-x,y,z
x,-y,1/2+z
1/2+x,1/2+y,z
1/2-x,1/2-y,1/2+z
1/2+x,1/2-y,-z
1/2-x,1/2+y,1/2-z
1/2-x,1/2-y,-z
1/2+x,1/2+y,1/2-z
1/2-x,1/2+y,z
1/2+x,1/2-y,1/2+z
loop_
_atom_site_type_symbol
_atom_site_label
_atom_site_fract_x
_atom_site_fract_y
_atom_site_fract_z
Si Si1 0.308072 0.929406 0.962454
Si Si2 0.442475 0.762569 0.466124
Si Si3 0.918949 0.398385 0.543238
Si Si4 0.898040 0.141568 0.039723
Si Si5 0.801878 0.070693 0.464672
Si Si6 0.500000 0.937850 0.250000
Si Si7 0.500000 0.570761 0.960062
O O1 0.307288 0.919622 0.750000
O O2 0.361238 0.903319 0.022572
O O3 0.253335 0.909169 0.032503
O O4 0.310134 0.000000 0.000000
O O5 0.438720 0.767791 0.250000
O O6 0.500000 0.745405 0.506395
O O7 0.432477 0.828112 0.540593
O O8 0.408132 0.708161 0.531787
O O9 0.923485 0.420298 0.750000
O O10 0.956176 0.431391 0.407872
O O11 0.888849 0.149620 0.250000
O O12 0.849790 0.106938 0.964674
O O13 0.949002 0.102478 0.026324
O O14 0.801154 0.076809 0.250000
O O15 0.807889 0.000000 0.500000
O O16 0.500000 0.578415 0.750000
O O17 0.500000 0.500000 0.000000
#
# Coordination Sequence:
#
# PCOD9469464 Si02
#       7
#    16  16  16  16  16   4   8
#     4   9  20  37  61  86 114 150 193 235 291 347
#     4  10  18  34  56  80 113 156 195 232 288 352
#     4  11  22  38  62  88 119 156 195 241 287 352
#     4  10  20  35  57  81 113 149 193 239 291 345
#     4   9  18  35  57  83 111 149 192 242 288 345
#     4  12  22  38  62  86 120 146 196 226 296 342
#     4  12  24  35  50  74 113 151 189 241 296 345
#
# _framework density 20.716916999999999
#
# number of rings (size 3 to 8) (size 9 to 14) (size 15 to 20)
#    0.000    1.913    2.609    1.565    1.217    2.783 
#    0.000    1.304    0.000    0.000    0.000    0.000 
#    0.000    0.000    0.000    0.000    0.000    0.000 
#
# Total GULP energy -256268.879569 kJ/mol
# GULP energy per Si atom -5571.062599 kJ/mol
# Density = 2.066976 g / cm^3
# Si number density = 20.716917 Si / 1000 Ang^3
#
#
#
# Elastic Constant Matrix: (Units=GPa)
#
#
# Indices 1 2 3 4 5 6 
#
# 1 180.6506 31.2073 33.0331 0.0000 0.0000 0.0000
# 2 31.2073 48.4141 8.0727 0.0000 0.0000 0.0000
# 3 33.0331 8.0727 84.8769 0.0000 0.0000 0.0000
# 4 0.0000 0.0000 0.0000 18.2590 0.0000 0.0000
# 5 0.0000 0.0000 0.0000 0.0000 -28.4423 0.0000
# 6 0.0000 0.0000 0.0000 0.0000 0.0000 20.6302
#
#
#
# Elastic Compliance Matrix: (Units=1/GPa)
#
#
# Indices 1 2 3 4 5 6 
#
# 1 0.006611 -0.003894 -0.002203 0.000000 0.000000 0.000000
# 2 -0.003894 0.023282 -0.000699 0.000000 0.000000 0.000000
# 3 -0.002203 -0.000699 0.012705 0.000000 0.000000 0.000000
# 4 0.000000 0.000000 0.000000 0.054767 0.000000 0.000000
# 5 0.000000 0.000000 0.000000 0.000000 -0.035159 0.000000
# 6 0.000000 0.000000 0.000000 0.000000 0.000000 0.048473
#
#
# Mechanical properties :
#
#
# Convention : Reuss Voigt Hill
#
# Bulk Modulus (GPa) = 34.47411 50.95198 42.71305
# Shear Modulus (GPa) = 37.33025 18.19793 27.76409
#
# Velocity S-wave (km/s) = 4.24951 2.96701 3.66480
# Velocity P-wave (km/s) = 6.38392 6.03203 6.21047
#
# Compressibility (1/GPa) = 0.02900728
#
# Stress axis : x y z
#
# Youngs Moduli (GPa) = 151.26280 42.95199 78.70641
#
# Poissons Ratio (x) = 0.16726 0.17336
# Poissons Ratio (y) = 0.58904 0.05500
# Poissons Ratio (z) = 0.33316 0.03001
#
# Static dielectric constant tensor:
#      x y z
#    x 1.868500 0.000000 0.000000 
#    y 0.000000 1.720610 0.000000 
#    z 0.000000 0.000000 1.779490 
# 
# From -- ./inp_files/10517.got.cif
#   From: 2010.05.17/outbox.cif.g08.bks.cpg/sg63_6_cif.got.tgz:10517.got - 2010.06.03 15:47:04.
