data_PCOD9469009
_publ_section_title
;
Structure prediction by ZEFSAII (Michael W. Deem and Ramdas Pophale) SiO2 
 PCOD9469009
Probable space group: C M C M
;
_chemical_formula_sum "Si O2"
_cell_formula_units_Z 72
_cell_length_a 8.268646
_cell_length_b 17.908483
_cell_length_c 21.631829
_cell_angle_alpha 90.000000
_cell_angle_beta 90.000000
_cell_angle_gamma 90.000000
_cell_volume 3203.217580
_symmetry_space_group_name_H-M "C M C M"
_symmetry_group_IT_number 63
_symmetry_cell_setting 'orthorhombic'
loop_
_space_group_symop_operation_xyz
x,y,z
-x,-y,1/2+z
x,-y,-z
-x,y,1/2-z
-x,-y,-z
x,y,1/2-z
-x,y,z
x,-y,1/2+z
1/2+x,1/2+y,z
1/2-x,1/2-y,1/2+z
1/2+x,1/2-y,-z
1/2-x,1/2+y,1/2-z
1/2-x,1/2-y,-z
1/2+x,1/2+y,1/2-z
1/2-x,1/2+y,z
1/2+x,1/2-y,1/2+z
loop_
_atom_site_type_symbol
_atom_site_label
_atom_site_fract_x
_atom_site_fract_y
_atom_site_fract_z
Si Si1 0.189574 0.693702 0.676068
Si Si2 0.500000 0.590283 0.002191
Si Si3 0.166936 0.409697 0.997600
Si Si4 0.000000 0.924586 0.854790
Si Si5 0.682827 0.852523 0.643158
Si Si6 0.500000 0.589636 0.677125
O O1 0.193603 0.709684 0.750000
O O2 0.251428 0.768385 0.642604
O O3 0.331730 0.633249 0.665971
O O4 0.000000 0.675761 0.662094
O O5 0.333617 0.618824 0.974438
O O6 0.500000 0.608275 0.075336
O O7 0.500000 0.500000 0.000000
O O8 0.167274 0.385745 0.926034
O O9 0.000000 0.383037 0.026517
O O10 0.168323 0.500000 0.000000
O O11 0.000000 0.013080 0.859985
O O12 0.830562 0.898180 0.825797
O O13 0.500000 0.855510 0.669963
O O14 0.500000 0.570168 0.750000
#
# Coordination Sequence:
#
# PCOD9469009 Si02
#       6
#    16   8  16   8  16   8
#     4  10  20  35  54  72  99 142 182 215 258 315
#     4   8  14  26  44  68  98 129 160 201 249 302
#     4   8  14  24  40  68 104 125 154 202 255 295
#     4  10  20  32  50  82 109 130 170 222 265 304
#     4  10  18  30  52  80 106 130 176 220 259 304
#     4  10  22  38  52  72 106 143 174 209 266 320
#
# _framework density 22.477399999999999
#
# number of rings (size 3 to 8) (size 9 to 14) (size 15 to 20)
#    0.000    2.667    2.222    0.000    0.000    1.778 
#    0.000    0.000    0.000    0.000    0.000   24.889 
#    0.000    0.000    0.000    0.000    0.000    0.000 
#
# Total GULP energy -200520.658823 kJ/mol
# GULP energy per Si atom -5570.018301 kJ/mol
# Density = 2.242624 g / cm^3
# Si number density = 22.477400 Si / 1000 Ang^3
#
#
#
# Elastic Constant Matrix: (Units=GPa)
#
#
# Indices 1 2 3 4 5 6 
#
# 1 305.3592 34.2843 2.2370 0.0000 0.0000 0.0000
# 2 34.2843 66.7104 6.3614 0.0000 0.0000 0.0000
# 3 2.2370 6.3614 88.6561 0.0000 0.0000 0.0000
# 4 0.0000 0.0000 0.0000 47.9464 0.0000 0.0000
# 5 0.0000 0.0000 0.0000 0.0000 -12.2683 0.0000
# 6 0.0000 0.0000 0.0000 0.0000 0.0000 -2.4502
#
#
#
# Elastic Compliance Matrix: (Units=1/GPa)
#
#
# Indices 1 2 3 4 5 6 
#
# 1 0.003476 -0.001790 0.000041 0.000000 0.000000 0.000000
# 2 -0.001790 0.016015 -0.001104 0.000000 0.000000 0.000000
# 3 0.000041 -0.001104 0.011358 0.000000 0.000000 0.000000
# 4 0.000000 0.000000 0.000000 0.020857 0.000000 0.000000
# 5 0.000000 0.000000 0.000000 0.000000 -0.081511 0.000000
# 6 0.000000 0.000000 0.000000 0.000000 0.000000 -0.408126
#
#
# Mechanical properties :
#
#
# Convention : Reuss Voigt Hill
#
# Bulk Modulus (GPa) = 39.77402 60.72123 50.24763
# Shear Modulus (GPa) = -11.79678 34.50179 11.35250
#
# Velocity S-wave (km/s) = -2.29340 3.92210 2.24980
# Velocity P-wave (km/s) = 3.27424 6.89808 5.39926
#
# Compressibility (1/GPa) = 0.02514204
#
# Stress axis : x y z
#
# Youngs Moduli (GPa) = 287.72748 62.43992 88.04578
#
# Poissons Ratio (x) = 0.11177 -0.00359
# Poissons Ratio (y) = 0.51504 0.09720
# Poissons Ratio (z) = -0.01172 0.06893
#
# Static dielectric constant tensor:
#      x y z
#    x 1.966810 0.000000 0.000000 
#    y 0.000000 1.766170 0.000000 
#    z 0.000000 0.000000 1.351110 
# 
# From -- ./inp_files/66391.got.cif
#   From: 2010.05.17/outbox.cif.g08.bks.cpg/sg63_34_cif.got.tgz:66391.got - 2010.06.03 15:47:04.
