data_PCOD9469020
_publ_section_title
;
Structure prediction by ZEFSAII (Michael W. Deem and Ramdas Pophale) SiO2 
 PCOD9469020
Probable space group: C M C M
;
_chemical_formula_sum "Si O2"
_cell_formula_units_Z 80
_cell_length_a 19.074552
_cell_length_b 13.923168
_cell_length_c 14.471472
_cell_angle_alpha 90.000000
_cell_angle_beta 90.000000
_cell_angle_gamma 90.000000
_cell_volume 3843.307370
_symmetry_space_group_name_H-M "C M C M"
_symmetry_group_IT_number 63
_symmetry_cell_setting 'orthorhombic'
loop_
_space_group_symop_operation_xyz
x,y,z
-x,-y,1/2+z
x,-y,-z
-x,y,1/2-z
-x,-y,-z
x,y,1/2-z
-x,y,z
x,-y,1/2+z
1/2+x,1/2+y,z
1/2-x,1/2-y,1/2+z
1/2+x,1/2-y,-z
1/2-x,1/2+y,1/2-z
1/2-x,1/2-y,-z
1/2+x,1/2+y,1/2-z
1/2-x,1/2+y,z
1/2+x,1/2-y,1/2+z
loop_
_atom_site_type_symbol
_atom_site_label
_atom_site_fract_x
_atom_site_fract_y
_atom_site_fract_z
Si Si1 0.000000 0.749910 0.139013
Si Si2 0.356335 0.657834 0.863434
Si Si3 0.850664 0.542581 0.602577
Si Si4 0.000000 0.476674 0.891273
Si Si5 0.209288 0.253611 0.137334
Si Si6 0.799663 0.958785 0.856156
O O1 0.929185 0.798922 0.103477
O O2 0.000000 0.637268 0.120203
O O3 0.000000 0.761664 0.250000
O O4 0.357230 0.655605 0.750000
O O5 0.289757 0.723241 0.887998
O O6 0.340598 0.549749 0.896390
O O7 0.851474 0.500000 0.500000
O O8 0.836467 0.656442 0.604062
O O9 0.782093 0.491209 0.645330
O O10 0.926260 0.517959 0.645174
O O11 0.000000 0.500000 0.000000
O O12 0.205687 0.254625 0.250000
O O13 0.191408 0.147054 0.102727
O O14 0.822854 0.950232 0.750000
#
# Coordination Sequence:
#
# PCOD9469020 Si02
#       6
#     8  16  16   8  16  16
#     4  10  18  30  53  78  97 126 166 201 239 293
#     4   8  15  27  46  75 102 122 154 197 238 283
#     4  10  20  33  49  71  98 131 170 208 248 295
#     4  10  22  36  47  68 100 130 159 203 256 287
#     4   9  17  31  51  74 100 129 160 200 249 295
#     4   9  17  32  52  74 103 132 160 203 251 292
#
# _framework density 20.815404999999998
#
# number of rings (size 3 to 8) (size 9 to 14) (size 15 to 20)
#    0.000    2.800    0.000    3.000    0.000    4.000 
#    0.000    3.000    0.000    2.400    0.000   16.800 
#    0.000    0.000    0.000    0.000    0.000    0.000 
#
# Total GULP energy -223245.761453 kJ/mol
# GULP energy per Si atom -5581.144036 kJ/mol
# Density = 2.076803 g / cm^3
# Si number density = 20.815405 Si / 1000 Ang^3
#
#
#
# Elastic Constant Matrix: (Units=GPa)
#
#
# Indices 1 2 3 4 5 6 
#
# 1 158.4098 99.6781 -1.7005 0.0000 0.0000 0.0000
# 2 99.6781 207.7112 -1.3348 0.0000 0.0000 0.0000
# 3 -1.7005 -1.3348 44.6489 0.0000 0.0000 0.0000
# 4 0.0000 0.0000 0.0000 185.4361 0.0000 0.0000
# 5 0.0000 0.0000 0.0000 0.0000 12.2557 0.0000
# 6 0.0000 0.0000 0.0000 0.0000 0.0000 18.9430
#
#
#
# Elastic Compliance Matrix: (Units=1/GPa)
#
#
# Indices 1 2 3 4 5 6 
#
# 1 0.009046 -0.004340 0.000215 0.000000 0.000000 0.000000
# 2 -0.004340 0.006897 0.000041 0.000000 0.000000 0.000000
# 3 0.000215 0.000041 0.022406 0.000000 0.000000 0.000000
# 4 0.000000 0.000000 0.000000 0.005393 0.000000 0.000000
# 5 0.000000 0.000000 0.000000 0.000000 0.081594 0.000000
# 6 0.000000 0.000000 0.000000 0.000000 0.000000 0.052790
#
#
# Mechanical properties :
#
#
# Convention : Reuss Voigt Hill
#
# Bulk Modulus (GPa) = 33.13286 67.11728 50.12507
# Shear Modulus (GPa) = 25.46416 64.26877 44.86646
#
# Velocity S-wave (km/s) = 3.50141 5.56261 4.64771
# Velocity P-wave (km/s) = 5.68318 8.57735 7.27562
#
# Compressibility (1/GPa) = 0.03018152
#
# Stress axis : x y z
#
# Youngs Moduli (GPa) = 110.55034 144.98797 44.63014
#
# Poissons Ratio (x) = 0.62918 -0.00959
# Poissons Ratio (y) = 0.47974 -0.00183
# Poissons Ratio (z) = -0.02374 -0.00593
#
# Static dielectric constant tensor:
#      x y z
#    x 1.739670 0.000000 0.000000 
#    y 0.000000 1.727930 0.000000 
#    z 0.000000 0.000000 1.798080 
# 
# From -- ./inp_files/45462.got.cif
#   From: 2010.05.17/outbox.cif.g08.bks.cpg/sg63_23_cif.got.tgz:45462.got - 2010.06.03 15:47:04.
