data_PCOD9469488
_publ_section_title
;
Structure prediction by ZEFSAII (Michael W. Deem and Ramdas Pophale) SiO2 
 PCOD9469488
Probable space group: C M C M
;
_chemical_formula_sum "Si O2"
_cell_formula_units_Z 96
_cell_length_a 14.859072
_cell_length_b 21.294709
_cell_length_c 14.288635
_cell_angle_alpha 90.000000
_cell_angle_beta 90.000000
_cell_angle_gamma 90.000000
_cell_volume 4521.204375
_symmetry_space_group_name_H-M "C M C M"
_symmetry_group_IT_number 63
_symmetry_cell_setting 'orthorhombic'
loop_
_space_group_symop_operation_xyz
x,y,z
-x,-y,1/2+z
x,-y,-z
-x,y,1/2-z
-x,-y,-z
x,y,1/2-z
-x,y,z
x,-y,1/2+z
1/2+x,1/2+y,z
1/2-x,1/2-y,1/2+z
1/2+x,1/2-y,-z
1/2-x,1/2+y,1/2-z
1/2-x,1/2-y,-z
1/2+x,1/2+y,1/2-z
1/2-x,1/2+y,z
1/2+x,1/2-y,1/2+z
loop_
_atom_site_type_symbol
_atom_site_label
_atom_site_fract_x
_atom_site_fract_y
_atom_site_fract_z
Si Si1 0.696019 0.582947 0.361090
Si Si2 0.000000 0.940790 0.569114
Si Si3 0.305404 0.035115 0.635618
Si Si4 0.500000 0.085511 0.863595
Si Si5 0.698354 0.342410 0.360443
Si Si6 0.500000 0.673278 0.572960
Si Si7 0.500000 0.772962 0.429261
Si Si8 0.191420 0.776130 0.637744
O O1 0.711232 0.587404 0.250000
O O2 0.593624 0.559548 0.375302
O O3 0.764460 0.530582 0.398200
O O4 0.706067 0.653521 0.400221
O O5 0.000000 0.875509 0.512771
O O6 0.000000 0.000000 0.500000
O O7 0.300866 0.033701 0.750000
O O8 0.408877 0.048729 0.612412
O O9 0.243863 0.093718 0.603579
O O10 0.500000 0.097134 0.750000
O O11 0.500000 0.152683 0.914712
O O12 0.718244 0.342383 0.250000
O O13 0.591965 0.340351 0.373856
O O14 0.742868 0.278505 0.398375
O O15 0.500000 0.744138 0.533456
O O16 0.589985 0.745600 0.382504
O O17 0.202350 0.779576 0.750000
#
# Coordination Sequence:
#
# PCOD9469488 Si02
#       8
#    16   8  16   8  16   8   8  16
#     4  10  20  37  57  84 116 153 193 236 289 348
#     4  12  23  37  52  81 115 154 192 233 290 349
#     4   9  18  33  58  85 111 147 193 243 285 330
#     4  10  18  34  58  88 116 143 194 248 289 335
#     4  10  21  39  59  81 111 153 198 241 285 343
#     4  12  25  37  52  85 117 153 191 233 294 350
#     4  12  20  34  56  90 120 142 183 241 301 337
#     4  10  19  35  61  86 112 148 195 244 291 337
#
# _framework density 21.233280000000001
#
# number of rings (size 3 to 8) (size 9 to 14) (size 15 to 20)
#    0.000    1.667    3.333    2.250    0.000    2.000 
#    0.000    4.167    0.000    4.000    0.000    2.917 
#    0.000    0.000    0.000    0.000    0.000    0.000 
#
# Total GULP energy -268303.167572 kJ/mol
# GULP energy per Si atom -5589.649324 kJ/mol
# Density = 2.118495 g / cm^3
# Si number density = 21.233280 Si / 1000 Ang^3
#
#
#
# Elastic Constant Matrix: (Units=GPa)
#
#
# Indices 1 2 3 4 5 6 
#
# 1 152.8998 123.9591 -2.2859 0.0000 0.0000 0.0000
# 2 123.9591 177.7431 20.9877 0.0000 0.0000 0.0000
# 3 -2.2859 20.9877 32.2835 0.0000 0.0000 0.0000
# 4 0.0000 0.0000 0.0000 26.8124 0.0000 0.0000
# 5 0.0000 0.0000 0.0000 0.0000 -51.4978 0.0000
# 6 0.0000 0.0000 0.0000 0.0000 0.0000 9.1267
#
#
#
# Elastic Compliance Matrix: (Units=1/GPa)
#
#
# Indices 1 2 3 4 5 6 
#
# 1 0.017593 -0.013449 0.009989 0.000000 0.000000 0.000000
# 2 -0.013449 0.016375 -0.011598 0.000000 0.000000 0.000000
# 3 0.009989 -0.011598 0.039223 0.000000 0.000000 0.000000
# 4 0.000000 0.000000 0.000000 0.037296 0.000000 0.000000
# 5 0.000000 0.000000 0.000000 0.000000 -0.019418 0.000000
# 6 0.000000 0.000000 0.000000 0.000000 0.000000 0.109568
#
#
# Mechanical properties :
#
#
# Convention : Reuss Voigt Hill
#
# Bulk Modulus (GPa) = 23.21531 72.02755 47.62143
# Shear Modulus (GPa) = 20.39902 11.57264 15.98583
#
# Velocity S-wave (km/s) = 3.10289 2.33711 2.74682
# Velocity P-wave (km/s) = 4.87796 6.42483 5.70407
#
# Compressibility (1/GPa) = 0.04307503
#
# Stress axis : x y z
#
# Youngs Moduli (GPa) = 56.84152 61.06948 25.49551
#
# Poissons Ratio (x) = 0.82131 -0.25467
# Poissons Ratio (y) = 0.76445 0.29569
# Poissons Ratio (z) = -0.56778 0.70826
#
# Static dielectric constant tensor:
#      x y z
#    x 1.730530 0.000000 0.000000 
#    y 0.000000 1.773940 0.000000 
#    z 0.000000 0.000000 1.795030 
# 
# From -- ./inp_files/32021.got.cif
#   From: 2010.05.17/outbox.cif.g08.bks.cpg/sg63_17_cif.got.tgz:32021.got - 2010.06.03 15:47:04.
