data_PCOD9469976
_publ_section_title
;
Structure prediction by ZEFSAII (Michael W. Deem and Ramdas Pophale) SiO2 
 PCOD9469976
Probable space group: C M C M
;
_chemical_formula_sum "Si O2"
_cell_formula_units_Z 96
_cell_length_a 30.195373
_cell_length_b 20.174853
_cell_length_c 9.389735
_cell_angle_alpha 90.000000
_cell_angle_beta 90.000000
_cell_angle_gamma 90.000000
_cell_volume 5720.106482
_symmetry_space_group_name_H-M "C M C M"
_symmetry_group_IT_number 63
_symmetry_cell_setting 'orthorhombic'
loop_
_space_group_symop_operation_xyz
x,y,z
-x,-y,1/2+z
x,-y,-z
-x,y,1/2-z
-x,-y,-z
x,y,1/2-z
-x,y,z
x,-y,1/2+z
1/2+x,1/2+y,z
1/2-x,1/2-y,1/2+z
1/2+x,1/2-y,-z
1/2-x,1/2+y,1/2-z
1/2-x,1/2-y,-z
1/2+x,1/2+y,1/2-z
1/2-x,1/2+y,z
1/2+x,1/2-y,1/2+z
loop_
_atom_site_type_symbol
_atom_site_label
_atom_site_fract_x
_atom_site_fract_y
_atom_site_fract_z
Si Si1 0.949203 0.289639 0.076311
Si Si2 0.335439 0.567382 0.918375
Si Si3 0.945899 0.564188 0.913757
Si Si4 0.771016 0.433815 0.417475
Si Si5 0.288665 0.211725 0.581712
Si Si6 0.127530 0.193099 0.418769
O O1 0.948885 0.292436 0.250000
O O2 0.933190 0.362940 0.029790
O O3 0.917223 0.230123 0.035040
O O4 0.000000 0.280101 0.031319
O O5 0.344373 0.562879 0.750000
O O6 0.282159 0.575517 0.935725
O O7 0.347673 0.500000 0.000000
O O8 0.359671 0.629315 0.990207
O O9 0.931533 0.558384 0.750000
O O10 0.000000 0.564501 0.914296
O O11 0.930975 0.500000 0.000000
O O12 0.784357 0.500000 0.500000
O O13 0.779807 0.443098 0.250000
O O14 0.792398 0.364630 0.466177
O O15 0.277339 0.209513 0.750000
O O16 0.250000 0.250000 0.500000
O O17 0.333496 0.252846 0.565917
O O18 0.124718 0.176127 0.250000
#
# Coordination Sequence:
#
# PCOD9469976 Si02
#       6
#    16  16  16  16  16  16
#     4   8  15  29  48  70  96 127 163 202 245 292
#     4  10  19  32  50  72  99 127 159 198 239 288
#     4   8  13  23  41  63  87 117 153 192 232 274
#     4   9  18  31  46  66  94 129 162 194 233 278
#     4  10  19  31  47  70  98 126 158 195 237 283
#     4  10  19  31  51  75  97 126 163 201 242 289
#
# _framework density 16.782905
#
# number of rings (size 3 to 8) (size 9 to 14) (size 15 to 20)
#    0.000    2.833    1.667    1.500    0.000    1.333 
#    0.000    1.667    0.000    2.000    0.000    0.000 
#    0.000    0.000    0.000    0.000    0.000    0.000 
#
# Total GULP energy -267480.060685 kJ/mol
# GULP energy per Si atom -5572.501264 kJ/mol
# Density = 1.674471 g / cm^3
# Si number density = 16.782905 Si / 1000 Ang^3
#
#
#
# Elastic Constant Matrix: (Units=GPa)
#
#
# Indices 1 2 3 4 5 6 
#
# 1 29.0098 34.0472 25.6917 0.0000 0.0000 0.0000
# 2 34.0472 166.9558 67.0515 0.0000 0.0000 0.0000
# 3 25.6917 67.0515 52.4522 0.0000 0.0000 0.0000
# 4 0.0000 0.0000 0.0000 33.7532 0.0000 0.0000
# 5 0.0000 0.0000 0.0000 0.0000 9.7954 0.0000
# 6 0.0000 0.0000 0.0000 0.0000 0.0000 21.7617
#
#
#
# Elastic Compliance Matrix: (Units=1/GPa)
#
#
# Indices 1 2 3 4 5 6 
#
# 1 0.060946 -0.000904 -0.028697 0.000000 0.000000 0.000000
# 2 -0.000904 0.012322 -0.015309 0.000000 0.000000 0.000000
# 3 -0.028697 -0.015309 0.052692 0.000000 0.000000 0.000000
# 4 0.000000 0.000000 0.000000 0.029627 0.000000 0.000000
# 5 0.000000 0.000000 0.000000 0.000000 0.102089 0.000000
# 6 0.000000 0.000000 0.000000 0.000000 0.000000 0.045952
#
#
# Mechanical properties :
#
#
# Convention : Reuss Voigt Hill
#
# Bulk Modulus (GPa) = 27.67004 55.77761 41.72382
# Shear Modulus (GPa) = 12.33060 21.17056 16.75058
#
# Velocity S-wave (km/s) = 2.71350 3.55552 3.16266
# Velocity P-wave (km/s) = 5.13228 7.08255 6.18477
#
# Compressibility (1/GPa) = 0.03614017
#
# Stress axis : x y z
#
# Youngs Moduli (GPa) = 16.40785 81.15325 18.97832
#
# Poissons Ratio (x) = 0.07334 0.54462
# Poissons Ratio (y) = 0.01483 0.29055
# Poissons Ratio (z) = 0.47086 1.24241
#
# Static dielectric constant tensor:
#      x y z
#    x 1.569690 0.000000 0.000000 
#    y 0.000000 1.568360 0.000000 
#    z 0.000000 0.000000 1.560950 
# 
# From -- ./inp_files/12394.got.cif
#   From: 2010.05.17/outbox.cif.g08.bks.cpg/sg63_7_cif.got.tgz:12394.got - 2010.06.03 15:47:04.
