data_PCOD9469828
_publ_section_title
;
Structure prediction by ZEFSAII (Michael W. Deem and Ramdas Pophale) SiO2 
 PCOD9469828
Probable space group: C M C M
;
_chemical_formula_sum "Si O2"
_cell_formula_units_Z 80
_cell_length_a 8.334823
_cell_length_b 19.875729
_cell_length_c 27.082204
_cell_angle_alpha 90.000000
_cell_angle_beta 90.000000
_cell_angle_gamma 90.000000
_cell_volume 4486.456417
_symmetry_space_group_name_H-M "C M C M"
_symmetry_group_IT_number 63
_symmetry_cell_setting 'orthorhombic'
loop_
_space_group_symop_operation_xyz
x,y,z
-x,-y,1/2+z
x,-y,-z
-x,y,1/2-z
-x,-y,-z
x,y,1/2-z
-x,y,z
x,-y,1/2+z
1/2+x,1/2+y,z
1/2-x,1/2-y,1/2+z
1/2+x,1/2-y,-z
1/2-x,1/2+y,1/2-z
1/2-x,1/2-y,-z
1/2+x,1/2+y,1/2-z
1/2-x,1/2+y,z
1/2+x,1/2-y,1/2+z
loop_
_atom_site_type_symbol
_atom_site_label
_atom_site_fract_x
_atom_site_fract_y
_atom_site_fract_z
Si Si1 0.190966 0.673428 0.106554
Si Si2 0.696095 0.671101 0.606424
Si Si3 0.191705 0.172707 0.001615
Si Si4 0.693524 0.420395 0.805605
Si Si5 0.804206 0.924624 0.305683
O O1 0.249367 0.751064 0.111247
O O2 0.245468 0.644781 0.053388
O O3 0.247018 0.628737 0.152053
O O4 0.000000 0.676170 0.106150
O O5 0.500000 0.671466 0.607495
O O6 0.743164 0.644496 0.551864
O O7 0.752263 0.625043 0.651438
O O8 0.000000 0.171369 0.003231
O O9 0.250000 0.250000 0.000000
O O10 0.746229 0.401216 0.750000
O O11 0.500000 0.419656 0.805935
O O12 0.743921 0.497887 0.814292
O O13 0.754690 0.905217 0.250000
O O14 0.000000 0.923515 0.306180
#
# Coordination Sequence:
#
# PCOD9469828 Si02
#       5
#    16  16  16  16  16
#     4  10  19  30  47  71  96 123 156 192 231 277
#     4   8  15  27  45  70  93 116 153 194 229 267
#     4   9  16  28  46  68  96 126 155 191 234 279
#     4   9  18  32  49  68  91 121 153 186 231 282
#     4   8  14  27  47  68  90 116 149 191 233 272
#
# _framework density 17.831444000000001
#
# number of rings (size 3 to 8) (size 9 to 14) (size 15 to 20)
#    0.000    3.200    0.000    3.600    0.000    1.200 
#    0.000    3.000    0.000   13.200    0.000    0.000 
#    0.000    0.000    0.000    0.000    0.000    0.000 
#
# Total GULP energy -222689.407508 kJ/mol
# GULP energy per Si atom -5567.235188 kJ/mol
# Density = 1.779086 g / cm^3
# Si number density = 17.831444 Si / 1000 Ang^3
#
#
#
# Elastic Constant Matrix: (Units=GPa)
#
#
# Indices 1 2 3 4 5 6 
#
# 1 15.8466 14.3083 26.2809 0.0000 0.0000 0.0000
# 2 14.3083 67.4382 99.9035 0.0000 0.0000 0.0000
# 3 26.2809 99.9035 225.1429 0.0000 0.0000 0.0000
# 4 0.0000 0.0000 0.0000 -21.6159 0.0000 0.0000
# 5 0.0000 0.0000 0.0000 0.0000 22.8377 0.0000
# 6 0.0000 0.0000 0.0000 0.0000 0.0000 14.8017
#
#
#
# Elastic Compliance Matrix: (Units=1/GPa)
#
#
# Indices 1 2 3 4 5 6 
#
# 1 0.080156 -0.009181 -0.005283 0.000000 0.000000 0.000000
# 2 -0.009181 0.044327 -0.018598 0.000000 0.000000 0.000000
# 3 -0.005283 -0.018598 0.013311 0.000000 0.000000 0.000000
# 4 0.000000 0.000000 0.000000 -0.046262 0.000000 0.000000
# 5 0.000000 0.000000 0.000000 0.000000 0.043787 0.000000
# 6 0.000000 0.000000 0.000000 0.000000 0.000000 0.067560
#
#
# Mechanical properties :
#
#
# Convention : Reuss Voigt Hill
#
# Bulk Modulus (GPa) = 13.95262 65.49035 39.72148
# Shear Modulus (GPa) = 17.07118 14.40037 15.73578
#
# Velocity S-wave (km/s) = 3.09749 2.84488 2.97387
# Velocity P-wave (km/s) = 4.54250 6.89915 5.84092
#
# Compressibility (1/GPa) = 0.07167115
#
# Stress axis : x y z
#
# Youngs Moduli (GPa) = 12.47572 22.55947 75.12712
#
# Poissons Ratio (x) = 0.20711 0.39688
# Poissons Ratio (y) = 0.11454 1.39720
# Poissons Ratio (z) = 0.06591 0.41956
#
# Static dielectric constant tensor:
#      x y z
#    x 1.620780 0.000000 0.000000 
#    y 0.000000 1.591400 0.000000 
#    z 0.000000 0.000000 1.638500 
# 
# From -- ./inp_files/66592.got.cif
#   From: 2010.05.17/outbox.cif.g08.bks.cpg/sg63_34_cif.got.tgz:66592.got - 2010.06.03 15:47:04.
