data_PCOD9469264
_publ_section_title
;
Structure prediction by ZEFSAII (Michael W. Deem and Ramdas Pophale) SiO2 
 PCOD9469264
Probable space group: C M C M
;
_chemical_formula_sum "Si O2"
_cell_formula_units_Z 72
_cell_length_a 34.642255
_cell_length_b 14.720374
_cell_length_c 8.508069
_cell_angle_alpha 90.000000
_cell_angle_beta 90.000000
_cell_angle_gamma 90.000000
_cell_volume 4338.663835
_symmetry_space_group_name_H-M "C M C M"
_symmetry_group_IT_number 63
_symmetry_cell_setting 'orthorhombic'
loop_
_space_group_symop_operation_xyz
x,y,z
-x,-y,1/2+z
x,-y,-z
-x,y,1/2-z
-x,-y,-z
x,y,1/2-z
-x,y,z
x,-y,1/2+z
1/2+x,1/2+y,z
1/2-x,1/2-y,1/2+z
1/2+x,1/2-y,-z
1/2-x,1/2+y,1/2-z
1/2-x,1/2-y,-z
1/2+x,1/2+y,1/2-z
1/2-x,1/2+y,z
1/2+x,1/2-y,1/2+z
loop_
_atom_site_type_symbol
_atom_site_label
_atom_site_fract_x
_atom_site_fract_y
_atom_site_fract_z
Si Si1 0.180712 0.594445 0.439014
Si Si2 0.344491 0.292100 0.560671
Si Si3 0.581331 0.603356 0.562828
Si Si4 0.262725 0.347958 0.939050
Si Si5 0.000000 0.103505 0.437295
O O1 0.163056 0.500000 0.500000
O O2 0.179214 0.596862 0.250000
O O3 0.162661 0.688625 0.502695
O O4 0.225933 0.594369 0.492424
O O5 0.345724 0.291381 0.750000
O O6 0.383154 0.335829 0.494001
O O7 0.307322 0.354111 0.509854
O O8 0.585966 0.500000 0.500000
O O9 0.579974 0.599468 0.750000
O O10 0.540448 0.641678 0.499809
O O11 0.263051 0.351211 0.750000
O O12 0.250000 0.250000 0.000000
O O13 0.000000 0.103372 0.250000
O O14 0.000000 0.000000 0.500000
#
# Coordination Sequence:
#
# PCOD9469264 Si02
#       5
#    16  16  16  16   8
#     4  10  19  32  48  69  95 130 170 210 252 295
#     4  10  19  33  50  72  99 129 165 208 249 292
#     4  11  21  34  51  74 102 132 162 197 240 292
#     4   8  16  29  45  63  88 120 158 200 244 286
#     4  10  18  32  52  74  99 128 159 194 236 290
#
# _framework density 16.59497
#
# number of rings (size 3 to 8) (size 9 to 14) (size 15 to 20)
#    0.000    2.222    0.000    5.667    0.000    2.667 
#    0.000    2.222    0.000    0.000    0.000    0.778 
#    0.000    0.000    0.000    0.000    0.000    0.000 
#
# Total GULP energy -200450.354961 kJ/mol
# GULP energy per Si atom -5568.065416 kJ/mol
# Density = 1.655720 g / cm^3
# Si number density = 16.594970 Si / 1000 Ang^3
#
#
#
# Elastic Constant Matrix: (Units=GPa)
#
#
# Indices 1 2 3 4 5 6 
#
# 1 155.9985 49.4834 46.9022 0.0000 0.0000 0.0000
# 2 49.4834 82.9791 27.9396 0.0000 0.0000 0.0000
# 3 46.9022 27.9396 86.1114 0.0000 0.0000 0.0000
# 4 0.0000 0.0000 0.0000 21.7808 0.0000 0.0000
# 5 0.0000 0.0000 0.0000 0.0000 21.9328 0.0000
# 6 0.0000 0.0000 0.0000 0.0000 0.0000 21.7497
#
#
#
# Elastic Compliance Matrix: (Units=1/GPa)
#
#
# Indices 1 2 3 4 5 6 
#
# 1 0.008729 -0.004046 -0.003441 0.000000 0.000000 0.000000
# 2 -0.004046 0.015405 -0.002794 0.000000 0.000000 0.000000
# 3 -0.003441 -0.002794 0.014394 0.000000 0.000000 0.000000
# 4 0.000000 0.000000 0.000000 0.045912 0.000000 0.000000
# 5 0.000000 0.000000 0.000000 0.000000 0.045594 0.000000
# 6 0.000000 0.000000 0.000000 0.000000 0.000000 0.045978
#
#
# Mechanical properties :
#
#
# Convention : Reuss Voigt Hill
#
# Bulk Modulus (GPa) = 55.66869 63.74883 59.70876
# Shear Modulus (GPa) = 24.68373 26.47694 25.58033
#
# Velocity S-wave (km/s) = 3.86090 3.99868 3.93039
# Velocity P-wave (km/s) = 7.31394 7.73416 7.52698
#
# Compressibility (1/GPa) = 0.01796342
#
# Stress axis : x y z
#
# Youngs Moduli (GPa) = 114.56721 64.91342 69.47409
#
# Poissons Ratio (x) = 0.26267 0.23908
# Poissons Ratio (y) = 0.46359 0.19414
# Poissons Ratio (z) = 0.39425 0.18139
#
# Static dielectric constant tensor:
#      x y z
#    x 1.596370 0.000000 0.000000 
#    y 0.000000 1.545890 0.000000 
#    z 0.000000 0.000000 1.552280 
# 
# From -- ./inp_files/13928.got.cif
#   From: 2010.05.17/outbox.cif.g08.bks.cpg/sg63_7_cif.got.tgz:13928.got - 2010.06.03 15:47:04.
