data_PCOD9469080
_publ_section_title
;
Structure prediction by ZEFSAII (Michael W. Deem and Ramdas Pophale) SiO2 
 PCOD9469080
Probable space group: C M C M
;
_chemical_formula_sum "Si O2"
_cell_formula_units_Z 56
_cell_length_a 20.325865
_cell_length_b 14.022682
_cell_length_c 10.579725
_cell_angle_alpha 90.000000
_cell_angle_beta 90.000000
_cell_angle_gamma 90.000000
_cell_volume 3015.466453
_symmetry_space_group_name_H-M "C M C M"
_symmetry_group_IT_number 63
_symmetry_cell_setting 'orthorhombic'
loop_
_space_group_symop_operation_xyz
x,y,z
-x,-y,1/2+z
x,-y,-z
-x,y,1/2-z
-x,-y,-z
x,y,1/2-z
-x,y,z
x,-y,1/2+z
1/2+x,1/2+y,z
1/2-x,1/2-y,1/2+z
1/2+x,1/2-y,-z
1/2-x,1/2+y,1/2-z
1/2-x,1/2-y,-z
1/2+x,1/2+y,1/2-z
1/2-x,1/2+y,z
1/2+x,1/2-y,1/2+z
loop_
_atom_site_type_symbol
_atom_site_label
_atom_site_fract_x
_atom_site_fract_y
_atom_site_fract_z
Si Si1 0.225518 0.500000 0.000000
Si Si2 0.780965 0.944295 0.750000
Si Si3 0.203713 0.255672 0.750000
Si Si4 0.369629 0.182828 0.020476
Si Si5 0.000000 0.581006 0.106986
Si Si6 0.646646 0.257927 0.750000
O O1 0.271478 0.501624 0.877149
O O2 0.178940 0.407183 0.001112
O O3 0.719095 0.870032 0.750000
O O4 0.841871 0.871901 0.750000
O O5 0.165460 0.243525 0.618140
O O6 0.277805 0.216579 0.750000
O O7 0.435118 0.143811 0.085746
O O8 0.383883 0.225424 0.882028
O O9 0.000000 0.541640 0.250000
O O10 0.000000 0.500000 0.000000
#
# Coordination Sequence:
#
# PCOD9469080 Si02
#       6
#     8   8   8  16   8   8
#     4  10  18  31  50  74 104 145 174 220 254 320
#     4   8  19  31  47  76 105 133 178 209 277 316
#     4   8  18  33  50  70 100 141 180 220 267 312
#     4  11  20  35  52  75 111 146 187 222 253 317
#     4  12  26  36  52  76 110 152 195 215 251 315
#     4  10  21  32  53  76 101 146 182 225 278 310
#
# _framework density 18.570924999999999
#
# number of rings (size 3 to 8) (size 9 to 14) (size 15 to 20)
#    0.857    1.143    2.857    1.714    2.000    0.000 
#    0.000    0.000    0.000    0.000    0.000    0.000 
#    0.000    4.571    0.000    0.000    0.000    0.000 
#
# Total GULP energy -155931.988457 kJ/mol
# GULP energy per Si atom -5568.999588 kJ/mol
# Density = 1.852866 g / cm^3
# Si number density = 18.570925 Si / 1000 Ang^3
#
#
#
# Elastic Constant Matrix: (Units=GPa)
#
#
# Indices 1 2 3 4 5 6 
#
# 1 29.2262 4.5029 14.2797 0.0000 0.0000 0.0000
# 2 4.5029 29.5751 15.6118 0.0000 0.0000 0.0000
# 3 14.2797 15.6118 157.9980 0.0000 0.0000 0.0000
# 4 0.0000 0.0000 0.0000 19.1294 0.0000 0.0000
# 5 0.0000 0.0000 0.0000 0.0000 21.9881 0.0000
# 6 0.0000 0.0000 0.0000 0.0000 0.0000 10.5380
#
#
#
# Elastic Compliance Matrix: (Units=1/GPa)
#
#
# Indices 1 2 3 4 5 6 
#
# 1 0.036239 -0.003997 -0.002880 0.000000 0.000000 0.000000
# 2 -0.003997 0.036114 -0.003207 0.000000 0.000000 0.000000
# 3 -0.002880 -0.003207 0.006906 0.000000 0.000000 0.000000
# 4 0.000000 0.000000 0.000000 0.052276 0.000000 0.000000
# 5 0.000000 0.000000 0.000000 0.000000 0.045479 0.000000
# 6 0.000000 0.000000 0.000000 0.000000 0.000000 0.094895
#
#
# Mechanical properties :
#
#
# Convention : Reuss Voigt Hill
#
# Bulk Modulus (GPa) = 16.92330 31.73201 24.32766
# Shear Modulus (GPa) = 16.03725 22.49142 19.26433
#
# Velocity S-wave (km/s) = 2.94184 3.48387 3.22427
# Velocity P-wave (km/s) = 4.54663 5.77124 5.19514
#
# Compressibility (1/GPa) = 0.05909012
#
# Stress axis : x y z
#
# Youngs Moduli (GPa) = 27.59461 27.69031 144.79297
#
# Poissons Ratio (x) = 0.11068 0.41705
# Poissons Ratio (y) = 0.11030 0.46437
# Poissons Ratio (z) = 0.07948 0.08881
#
# Static dielectric constant tensor:
#      x y z
#    x 1.623690 0.000000 0.000000 
#    y 0.000000 1.666370 0.000000 
#    z 0.000000 0.000000 1.697170 
# 
# From -- ./inp_files/9758.got.cif
#   From: 2010.05.17/outbox.cif.g08.bks.cpg/sg63_5_cif.got.tgz:9758.got - 2010.06.03 15:47:04.
