data_PCOD9469682
_publ_section_title
;
Structure prediction by ZEFSAII (Michael W. Deem and Ramdas Pophale) SiO2 
 PCOD9469682
Probable space group: C M C M
;
_chemical_formula_sum "Si O2"
_cell_formula_units_Z 128
_cell_length_a 21.718866
_cell_length_b 19.793877
_cell_length_c 18.991764
_cell_angle_alpha 90.000000
_cell_angle_beta 90.000000
_cell_angle_gamma 90.000000
_cell_volume 8164.570020
_symmetry_space_group_name_H-M "C M C M"
_symmetry_group_IT_number 63
_symmetry_cell_setting 'orthorhombic'
loop_
_space_group_symop_operation_xyz
x,y,z
-x,-y,1/2+z
x,-y,-z
-x,y,1/2-z
-x,-y,-z
x,y,1/2-z
-x,y,z
x,-y,1/2+z
1/2+x,1/2+y,z
1/2-x,1/2-y,1/2+z
1/2+x,1/2-y,-z
1/2-x,1/2+y,1/2-z
1/2-x,1/2-y,-z
1/2+x,1/2+y,1/2-z
1/2-x,1/2+y,z
1/2+x,1/2-y,1/2+z
loop_
_atom_site_type_symbol
_atom_site_label
_atom_site_fract_x
_atom_site_fract_y
_atom_site_fract_z
Si Si1 0.185256 0.719060 0.969999
Si Si2 0.276234 0.436490 0.330498
Si Si3 0.283807 0.928100 0.482280
Si Si4 0.732271 0.727652 0.168264
Si Si5 0.859245 0.194402 0.829961
Si Si6 0.430471 0.433280 0.543397
Si Si7 0.931595 0.793203 0.034785
Si Si8 0.806557 0.918452 0.885725
O O1 0.181145 0.641734 0.994140
O O2 0.192161 0.728931 0.886302
O O3 0.250000 0.750000 0.000000
O O4 0.125394 0.758150 0.995716
O O5 0.252335 0.426096 0.250000
O O6 0.234764 0.425798 0.400072
O O7 0.330228 0.380745 0.339160
O O8 0.294897 0.514633 0.340000
O O9 0.225938 0.926199 0.537024
O O10 0.314750 0.000000 0.500000
O O11 0.717322 0.738866 0.250000
O O12 0.802337 0.753699 0.157851
O O13 0.720733 0.649540 0.148143
O O14 0.879358 0.201269 0.750000
O O15 0.913187 0.207931 0.883947
O O16 0.412461 0.500000 0.500000
O O17 0.500000 0.443376 0.571044
O O18 0.431704 0.370433 0.490627
O O19 0.379295 0.415690 0.600695
O O20 0.000000 0.765256 0.021126
#
# Coordination Sequence:
#
# PCOD9469682 Si02
#       8
#    16  16  16  16  16  16  16  16
#     4  12  18  34  55  74 101 134 169 212 257 306
#     4  10  19  29  45  71 103 131 164 213 259 303
#     4  10  19  29  51  75  96 129 168 208 259 311
#     4  11  21  31  51  77 102 132 166 207 260 309
#     4  10  19  32  48  71 101 135 166 202 259 315
#     4  10  19  29  45  68  94 130 181 219 246 292
#     4  11  21  33  51  76  99 132 175 216 256 303
#     4  11  18  31  47  69 100 130 169 208 258 293
#
# _framework density 15.677495
#
# number of rings (size 3 to 8) (size 9 to 14) (size 15 to 20)
#    0.000    1.375    5.000    3.000    0.000    0.250 
#    0.000    0.000    0.000    3.750    0.000    0.000 
#    0.000    0.000    0.000    0.375    0.000    0.000 
#
# Total GULP energy -356539.140779 kJ/mol
# GULP energy per Si atom -5570.924075 kJ/mol
# Density = 1.564181 g / cm^3
# Si number density = 15.677495 Si / 1000 Ang^3
#
#
#
# Elastic Constant Matrix: (Units=GPa)
#
#
# Indices 1 2 3 4 5 6 
#
# 1 66.9423 35.8650 26.5067 0.0000 0.0000 0.0000
# 2 35.8650 100.4728 12.7542 0.0000 0.0000 0.0000
# 3 26.5067 12.7542 86.0182 0.0000 0.0000 0.0000
# 4 0.0000 0.0000 0.0000 23.0583 0.0000 0.0000
# 5 0.0000 0.0000 0.0000 0.0000 14.1918 0.0000
# 6 0.0000 0.0000 0.0000 0.0000 0.0000 16.2768
#
#
#
# Elastic Compliance Matrix: (Units=1/GPa)
#
#
# Indices 1 2 3 4 5 6 
#
# 1 0.020649 -0.006689 -0.005371 0.000000 0.000000 0.000000
# 2 -0.006689 0.012311 0.000236 0.000000 0.000000 0.000000
# 3 -0.005371 0.000236 0.013246 0.000000 0.000000 0.000000
# 4 0.000000 0.000000 0.000000 0.043368 0.000000 0.000000
# 5 0.000000 0.000000 0.000000 0.000000 0.070463 0.000000
# 6 0.000000 0.000000 0.000000 0.000000 0.000000 0.061437
#
#
# Mechanical properties :
#
#
# Convention : Reuss Voigt Hill
#
# Bulk Modulus (GPa) = 44.33310 44.85390 44.59350
# Shear Modulus (GPa) = 19.79093 22.59254 21.19174
#
# Velocity S-wave (km/s) = 3.55685 3.80028 3.68058
# Velocity P-wave (km/s) = 6.72368 6.92305 6.82409
#
# Compressibility (1/GPa) = 0.02255651
#
# Stress axis : x y z
#
# Youngs Moduli (GPa) = 48.42924 81.23002 75.49682
#
# Poissons Ratio (x) = 0.54335 0.40550
# Poissons Ratio (y) = 0.32394 -0.01781
# Poissons Ratio (z) = 0.26012 -0.01916
#
# Static dielectric constant tensor:
#      x y z
#    x 1.511220 0.000000 0.000000 
#    y 0.000000 1.554620 0.000000 
#    z 0.000000 0.000000 1.549470 
# 
# From -- ./inp_files/47549.got.cif
#   From: 2010.05.17/outbox.cif.g08.bks.cpg/sg63_24_cif.got.tgz:47549.got - 2010.06.03 15:47:04.
