data_PCOD9469908
_publ_section_title
;
Structure prediction by ZEFSAII (Michael W. Deem and Ramdas Pophale) SiO2 
 PCOD9469908
Probable space group: C M C M
;
_chemical_formula_sum "Si O2"
_cell_formula_units_Z 96
_cell_length_a 20.926472
_cell_length_b 29.502063
_cell_length_c 8.734627
_cell_angle_alpha 90.000000
_cell_angle_beta 90.000000
_cell_angle_gamma 90.000000
_cell_volume 5392.532442
_symmetry_space_group_name_H-M "C M C M"
_symmetry_group_IT_number 63
_symmetry_cell_setting 'orthorhombic'
loop_
_space_group_symop_operation_xyz
x,y,z
-x,-y,1/2+z
x,-y,-z
-x,y,1/2-z
-x,-y,-z
x,y,1/2-z
-x,y,z
x,-y,1/2+z
1/2+x,1/2+y,z
1/2-x,1/2-y,1/2+z
1/2+x,1/2-y,-z
1/2-x,1/2+y,1/2-z
1/2-x,1/2-y,-z
1/2+x,1/2+y,1/2-z
1/2-x,1/2+y,z
1/2+x,1/2-y,1/2+z
loop_
_atom_site_type_symbol
_atom_site_label
_atom_site_fract_x
_atom_site_fract_y
_atom_site_fract_z
Si Si1 0.335177 0.286638 0.066807
Si Si2 0.926692 0.869548 0.064086
Si Si3 0.299517 0.188824 0.072345
Si Si4 0.329577 0.550742 0.935734
Si Si5 0.568333 0.949898 0.932164
Si Si6 0.806735 0.593317 0.570352
O O1 0.320811 0.293216 0.250000
O O2 0.390469 0.322397 0.026066
O O3 0.344564 0.232671 0.047264
O O4 0.273188 0.296986 0.965131
O O5 0.928376 0.871053 0.250000
O O6 0.883797 0.912809 0.015715
O O7 0.000000 0.871180 0.009385
O O8 0.305314 0.175257 0.250000
O O9 0.309719 0.146453 0.963756
O O10 0.330683 0.548678 0.750000
O O11 0.260547 0.571442 0.982938
O O12 0.338148 0.500000 0.000000
O O13 0.570011 0.952264 0.750000
O O14 0.500000 0.928058 0.977666
O O15 0.631896 0.926856 0.989641
O O16 0.568287 0.000000 0.000000
O O17 0.810579 0.584354 0.750000
#
# Coordination Sequence:
#
# PCOD9469908 Si02
#       6
#    16  16  16  16  16  16
#     4   9  17  33  53  77 105 136 178 219 265 327
#     4   9  17  33  56  77 103 142 184 224 269 324
#     4  10  19  30  52  81 108 136 172 222 274 322
#     4  10  21  35  52  77 106 138 180 228 272 318
#     4  10  21  37  56  79 108 142 182 223 266 325
#     4  11  21  35  55  79 110 145 181 226 271 323
#
# _framework density 17.802396999999999
#
# number of rings (size 3 to 8) (size 9 to 14) (size 15 to 20)
#    0.000    2.167    1.667    2.000    0.000    4.667 
#    0.000    0.833    0.000    4.500    0.000    0.000 
#    0.000    0.000    0.000    0.000    0.000    0.000 
#
# Total GULP energy -267463.190201 kJ/mol
# GULP energy per Si atom -5572.149796 kJ/mol
# Density = 1.776188 g / cm^3
# Si number density = 17.802397 Si / 1000 Ang^3
#
#
#
# Elastic Constant Matrix: (Units=GPa)
#
#
# Indices 1 2 3 4 5 6 
#
# 1 143.9244 70.4540 22.6156 0.0000 0.0000 0.0000
# 2 70.4540 99.8071 8.5568 0.0000 0.0000 0.0000
# 3 22.6156 8.5568 15.8243 0.0000 0.0000 0.0000
# 4 0.0000 0.0000 0.0000 28.8046 0.0000 0.0000
# 5 0.0000 0.0000 0.0000 0.0000 21.5060 0.0000
# 6 0.0000 0.0000 0.0000 0.0000 0.0000 8.5929
#
#
#
# Elastic Compliance Matrix: (Units=1/GPa)
#
#
# Indices 1 2 3 4 5 6 
#
# 1 0.013161 -0.008051 -0.014455 0.000000 0.000000 0.000000
# 2 -0.008051 0.015431 0.003162 0.000000 0.000000 0.000000
# 3 -0.014455 0.003162 0.082144 0.000000 0.000000 0.000000
# 4 0.000000 0.000000 0.000000 0.034717 0.000000 0.000000
# 5 0.000000 0.000000 0.000000 0.000000 0.046499 0.000000
# 6 0.000000 0.000000 0.000000 0.000000 0.000000 0.116376
#
#
# Mechanical properties :
#
#
# Convention : Reuss Voigt Hill
#
# Bulk Modulus (GPa) = 13.87993 51.42318 32.65155
# Shear Modulus (GPa) = 13.47596 22.30931 17.89264
#
# Velocity S-wave (km/s) = 2.75430 3.54385 3.17372
# Velocity P-wave (km/s) = 4.23421 6.75969 5.64012
#
# Compressibility (1/GPa) = 0.07204645
#
# Stress axis : x y z
#
# Youngs Moduli (GPa) = 75.98477 64.80329 12.17380
#
# Poissons Ratio (x) = 0.52171 0.17598
# Poissons Ratio (y) = 0.61173 -0.03849
# Poissons Ratio (z) = 1.09838 -0.20488
#
# Static dielectric constant tensor:
#      x y z
#    x 1.620810 0.000000 0.000000 
#    y 0.000000 1.642700 0.000000 
#    z 0.000000 0.000000 1.601000 
# 
# From -- ./inp_files/8642.got.cif
#   From: 2010.05.17/outbox.cif.g08.bks.cpg/sg63_5_cif.got.tgz:8642.got - 2010.06.03 15:47:04.
