data_PCOD9469691
_publ_section_title
;
Structure prediction by ZEFSAII (Michael W. Deem and Ramdas Pophale) SiO2 
 PCOD9469691
Probable space group: C M C M
;
_chemical_formula_sum "Si O2"
_cell_formula_units_Z 80
_cell_length_a 7.402602
_cell_length_b 19.571965
_cell_length_c 26.780653
_cell_angle_alpha 90.000000
_cell_angle_beta 90.000000
_cell_angle_gamma 90.000000
_cell_volume 3880.073862
_symmetry_space_group_name_H-M "C M C M"
_symmetry_group_IT_number 63
_symmetry_cell_setting 'orthorhombic'
loop_
_space_group_symop_operation_xyz
x,y,z
-x,-y,1/2+z
x,-y,-z
-x,y,1/2-z
-x,-y,-z
x,y,1/2-z
-x,y,z
x,-y,1/2+z
1/2+x,1/2+y,z
1/2-x,1/2-y,1/2+z
1/2+x,1/2-y,-z
1/2-x,1/2+y,1/2-z
1/2-x,1/2-y,-z
1/2+x,1/2+y,1/2-z
1/2-x,1/2+y,z
1/2+x,1/2-y,1/2+z
loop_
_atom_site_type_symbol
_atom_site_label
_atom_site_fract_x
_atom_site_fract_y
_atom_site_fract_z
Si Si1 0.220003 0.547866 0.342512
Si Si2 0.215959 0.457974 0.250000
Si Si3 0.715194 0.797822 0.953234
Si Si4 0.220604 0.452818 0.545141
Si Si5 0.716281 0.296682 0.250000
Si Si6 0.220380 0.706328 0.342325
O O1 0.283380 0.496994 0.299440
O O2 0.275481 0.527309 0.398608
O O3 0.272478 0.627042 0.333373
O O4 0.000000 0.547561 0.342245
O O5 0.248873 0.377283 0.250000
O O6 0.000000 0.466855 0.250000
O O7 0.500000 0.802862 0.948359
O O8 0.780347 0.874780 0.962487
O O9 0.780240 0.774469 0.898488
O O10 0.750000 0.750000 0.000000
O O11 0.282818 0.500000 0.500000
O O12 0.000000 0.454116 0.544549
O O13 0.500000 0.288795 0.250000
O O14 0.783648 0.257400 0.299366
O O15 0.000000 0.707457 0.341448
#
# Coordination Sequence:
#
# PCOD9469691 Si02
#       6
#    16   8  16  16   8  16
#     4   8  14  26  44  63  83 111 148 183 210 247
#     4  10  19  29  45  71  95 110 136 186 236 266
#     4   9  17  29  46  68  92 117 148 185 222 264
#     4   8  14  25  42  64  87 112 144 179 214 253
#     4  10  19  31  47  65  89 120 150 182 220 262
#     4   8  15  29  48  66  84 117 162 189 205 252
#
# _framework density 20.618164
#
# number of rings (size 3 to 8) (size 9 to 14) (size 15 to 20)
#    0.000    3.400    0.000    3.000    0.000    4.000 
#    0.000    3.000    0.000    7.800    0.000    0.000 
#    0.000    0.000    0.000    0.000    0.000    0.000 
#
# Total GULP energy -223090.755762 kJ/mol
# GULP energy per Si atom -5577.268894 kJ/mol
# Density = 2.057124 g / cm^3
# Si number density = 20.618164 Si / 1000 Ang^3
#
#
#
# Elastic Constant Matrix: (Units=GPa)
#
#
# Indices 1 2 3 4 5 6 
#
# 1 66.2363 1.3218 7.1912 0.0000 0.0000 0.0000
# 2 1.3218 143.5157 163.5539 0.0000 0.0000 0.0000
# 3 7.1912 163.5539 257.8601 0.0000 0.0000 0.0000
# 4 0.0000 0.0000 0.0000 44.3094 0.0000 0.0000
# 5 0.0000 0.0000 0.0000 0.0000 2.3341 0.0000
# 6 0.0000 0.0000 0.0000 0.0000 0.0000 13.1104
#
#
#
# Elastic Compliance Matrix: (Units=1/GPa)
#
#
# Indices 1 2 3 4 5 6 
#
# 1 0.015204 0.001238 -0.001209 0.000000 0.000000 0.000000
# 2 0.001238 0.025240 -0.016044 0.000000 0.000000 0.000000
# 3 -0.001209 -0.016044 0.014088 0.000000 0.000000 0.000000
# 4 0.000000 0.000000 0.000000 0.022569 0.000000 0.000000
# 5 0.000000 0.000000 0.000000 0.000000 0.428437 0.000000
# 6 0.000000 0.000000 0.000000 0.000000 0.000000 0.076276
#
#
# Mechanical properties :
#
#
# Convention : Reuss Voigt Hill
#
# Bulk Modulus (GPa) = 44.43973 90.19401 67.31687
# Shear Modulus (GPa) = 8.04706 31.65378 19.85042
#
# Velocity S-wave (km/s) = 1.97772 3.92246 3.10621
# Velocity P-wave (km/s) = 5.17838 8.02210 6.75166
#
# Compressibility (1/GPa) = 0.02250239
#
# Stress axis : x y z
#
# Youngs Moduli (GPa) = 65.77197 39.61890 70.98228
#
# Poissons Ratio (x) = -0.04906 0.08584
# Poissons Ratio (y) = -0.08144 1.13883
# Poissons Ratio (z) = 0.07954 0.63564
#
# Static dielectric constant tensor:
#      x y z
#    x 1.814340 0.000000 0.000000 
#    y 0.000000 1.696020 0.000000 
#    z 0.000000 0.000000 1.743490 
# 
# From -- ./inp_files/66808.got.cif
#   From: 2010.05.17/outbox.cif.g08.bks.cpg/sg63_34_cif.got.tgz:66808.got - 2010.06.03 15:47:04.
