data_PCOD9469425
_publ_section_title
;
Structure prediction by ZEFSAII (Michael W. Deem and Ramdas Pophale) SiO2 
 PCOD9469425
Probable space group: C M C M
;
_chemical_formula_sum "Si O2"
_cell_formula_units_Z 116
_cell_length_a 14.803963
_cell_length_b 12.851404
_cell_length_c 26.749186
_cell_angle_alpha 90.000000
_cell_angle_beta 90.000000
_cell_angle_gamma 90.000000
_cell_volume 5089.078359
_symmetry_space_group_name_H-M "C M C M"
_symmetry_group_IT_number 63
_symmetry_cell_setting 'orthorhombic'
loop_
_space_group_symop_operation_xyz
x,y,z
-x,-y,1/2+z
x,-y,-z
-x,y,1/2-z
-x,-y,-z
x,y,1/2-z
-x,y,z
x,-y,1/2+z
1/2+x,1/2+y,z
1/2-x,1/2-y,1/2+z
1/2+x,1/2-y,-z
1/2-x,1/2+y,1/2-z
1/2-x,1/2-y,-z
1/2+x,1/2+y,1/2-z
1/2-x,1/2+y,z
1/2+x,1/2-y,1/2+z
loop_
_atom_site_type_symbol
_atom_site_label
_atom_site_fract_x
_atom_site_fract_y
_atom_site_fract_z
Si Si1 0.155066 0.754046 0.663213
Si Si2 0.846495 0.242842 0.551704
Si Si3 0.366336 0.483710 0.695319
Si Si4 0.401023 0.539889 0.582580
Si Si5 0.870355 0.696931 0.341521
Si Si6 0.000000 0.245431 0.750000
Si Si7 0.848958 0.478024 0.195046
Si Si8 0.643844 0.691607 0.446581
O O1 0.119833 0.858858 0.689977
O O2 0.264294 0.770604 0.663702
O O3 0.131000 0.641886 0.684653
O O4 0.121839 0.755736 0.606062
O O5 0.896955 0.271754 0.602502
O O6 0.753049 0.305417 0.550067
O O7 0.889679 0.245460 0.497043
O O8 0.827619 0.120065 0.562093
O O9 0.401607 0.518323 0.750000
O O10 0.399232 0.531171 0.642975
O O11 0.259719 0.508630 0.695320
O O12 0.500000 0.577248 0.566867
O O13 0.386783 0.426548 0.559846
O O14 0.881447 0.571974 0.339181
O O15 0.922449 0.746288 0.295020
O O16 0.884045 0.504990 0.250000
#
# Coordination Sequence:
#
# PCOD9469425 Si02
#       8
#    16  16  16  16  16   4  16  16
#     4   9  18  34  60  88 109 148 206 251 298 355
#     4  10  21  39  60  89 117 161 206 244 301 370
#     4   9  18  32  52  84 120 154 194 252 302 353
#     4  11  23  39  59  93 128 159 198 252 318 378
#     4  10  22  37  55  85 124 155 198 242 301 359
#     4  12  24  40  52  80 136 170 190 252 300 368
#     4  10  18  33  58  82 114 157 204 249 291 357
#     4   9  20  39  63  87 120 153 202 259 300 358
#
# _framework density 22.79391
#
# number of rings (size 3 to 8) (size 9 to 14) (size 15 to 20)
#    0.000    2.207    0.690    3.310    2.897    1.379 
#    1.241    2.069    6.069    0.000    0.000    0.966 
#    0.000    0.000    0.000    0.000    0.000    0.000 
#
# Total GULP energy -323337.732274 kJ/mol
# GULP energy per Si atom -5574.788487 kJ/mol
# Density = 2.274203 g / cm^3
# Si number density = 22.793910 Si / 1000 Ang^3
#
#
#
# Elastic Constant Matrix: (Units=GPa)
#
#
# Indices 1 2 3 4 5 6 
#
# 1 66.8592 -0.3572 19.0135 0.0000 0.0000 0.0000
# 2 -0.3572 95.3671 18.2186 0.0000 0.0000 0.0000
# 3 19.0135 18.2186 157.8044 0.0000 0.0000 0.0000
# 4 0.0000 0.0000 0.0000 25.9232 0.0000 0.0000
# 5 0.0000 0.0000 0.0000 0.0000 -26.0202 0.0000
# 6 0.0000 0.0000 0.0000 0.0000 0.0000 55.7731
#
#
#
# Elastic Compliance Matrix: (Units=1/GPa)
#
#
# Indices 1 2 3 4 5 6 
#
# 1 0.015504 0.000424 -0.001917 0.000000 0.000000 0.000000
# 2 0.000424 0.010734 -0.001290 0.000000 0.000000 0.000000
# 3 -0.001917 -0.001290 0.006717 0.000000 0.000000 0.000000
# 4 0.000000 0.000000 0.000000 0.038575 0.000000 0.000000
# 5 0.000000 0.000000 0.000000 0.000000 -0.038432 0.000000
# 6 0.000000 0.000000 0.000000 0.000000 0.000000 0.017930
#
#
# Mechanical properties :
#
#
# Convention : Reuss Voigt Hill
#
# Bulk Modulus (GPa) = 36.51124 43.75338 40.13231
# Shear Modulus (GPa) = 76.07519 30.01227 53.04373
#
# Velocity S-wave (km/s) = 5.78340 3.63254 4.82924
# Velocity P-wave (km/s) = 7.78779 6.06883 6.98142
#
# Compressibility (1/GPa) = 0.02738883
#
# Stress axis : x y z
#
# Youngs Moduli (GPa) = 64.49844 93.16289 148.87793
#
# Poissons Ratio (x) = -0.03953 0.28541
# Poissons Ratio (y) = -0.02737 0.19211
# Poissons Ratio (z) = 0.12365 0.12021
#
# Static dielectric constant tensor:
#      x y z
#    x 1.869790 0.000000 0.000000 
#    y 0.000000 1.834110 0.000000 
#    z 0.000000 0.000000 1.861440 
# 
# From -- ./inp_files/73947.got.cif
#   From: 2010.05.17/outbox.cif.g08.bks.cpg/sg63_37_cif.got.tgz:73947.got - 2010.06.03 15:47:04.
