data_PCOD9469261
_publ_section_title
;
Structure prediction by ZEFSAII (Michael W. Deem and Ramdas Pophale) SiO2 
 PCOD9469261
Probable space group: C M C M
;
_chemical_formula_sum "Si O2"
_cell_formula_units_Z 88
_cell_length_a 33.366864
_cell_length_b 19.745469
_cell_length_c 8.675220
_cell_angle_alpha 90.000000
_cell_angle_beta 90.000000
_cell_angle_gamma 90.000000
_cell_volume 5715.619931
_symmetry_space_group_name_H-M "C M C M"
_symmetry_group_IT_number 63
_symmetry_cell_setting 'orthorhombic'
loop_
_space_group_symop_operation_xyz
x,y,z
-x,-y,1/2+z
x,-y,-z
-x,y,1/2-z
-x,-y,-z
x,y,1/2-z
-x,y,z
x,-y,1/2+z
1/2+x,1/2+y,z
1/2-x,1/2-y,1/2+z
1/2+x,1/2-y,-z
1/2-x,1/2+y,1/2-z
1/2-x,1/2-y,-z
1/2+x,1/2+y,1/2-z
1/2-x,1/2+y,z
1/2+x,1/2-y,1/2+z
loop_
_atom_site_type_symbol
_atom_site_label
_atom_site_fract_x
_atom_site_fract_y
_atom_site_fract_z
Si Si1 0.915551 0.077158 0.065112
Si Si2 0.500000 0.423568 0.435151
Si Si3 0.703709 0.930615 0.923570
Si Si4 0.846723 0.174009 0.929299
Si Si5 0.798879 0.067093 0.423704
Si Si6 0.291610 0.782938 0.066990
O O1 0.916505 0.072835 0.250000
O O2 0.881755 0.129825 0.008397
O O3 0.958223 0.104074 0.000640
O O4 0.909837 0.000000 0.000000
O O5 0.500000 0.500000 0.500000
O O6 0.500000 0.423217 0.250000
O O7 0.687698 0.921852 0.750000
O O8 0.751598 0.940982 0.909707
O O9 0.701416 0.860674 0.017032
O O10 0.687748 0.000000 0.000000
O O11 0.855307 0.183623 0.750000
O O12 0.830729 0.242076 0.007731
O O13 0.808375 0.125917 0.957649
O O14 0.814488 0.079852 0.250000
O O15 0.816469 0.000000 0.500000
O O16 0.211435 0.723385 0.750000
O O17 0.250000 0.750000 0.000000
#
# Coordination Sequence:
#
# PCOD9469261 Si02
#       6
#    16   8  16  16  16  16
#     4  11  21  35  52  73 100 131 167 206 249 296
#     4  10  18  32  52  74  98 128 165 202 243 292
#     4  10  20  34  51  68  88 117 155 197 239 286
#     4  12  23  34  48  67  93 124 159 202 248 292
#     4  10  19  30  44  62  87 116 152 194 240 285
#     4  12  23  36  51  69  93 124 159 201 249 298
#
# _framework density 15.396404
#
# number of rings (size 3 to 8) (size 9 to 14) (size 15 to 20)
#    0.000    1.091    1.818    8.455    0.000    1.455 
#    0.000    0.000    0.000    0.000    0.000    0.000 
#    0.000    0.000    0.000    0.818    0.000   11.455 
#
# Total GULP energy -245258.205731 kJ/mol
# GULP energy per Si atom -5574.050130 kJ/mol
# Density = 1.536136 g / cm^3
# Si number density = 15.396404 Si / 1000 Ang^3
#
#
#
# Elastic Constant Matrix: (Units=GPa)
#
#
# Indices 1 2 3 4 5 6 
#
# 1 64.7388 31.9790 42.3579 0.0000 0.0000 0.0000
# 2 31.9790 101.1333 51.0338 0.0000 0.0000 0.0000
# 3 42.3579 51.0338 162.9392 0.0000 0.0000 0.0000
# 4 0.0000 0.0000 0.0000 22.5292 0.0000 0.0000
# 5 0.0000 0.0000 0.0000 0.0000 18.1344 0.0000
# 6 0.0000 0.0000 0.0000 0.0000 0.0000 9.5713
#
#
#
# Elastic Compliance Matrix: (Units=1/GPa)
#
#
# Indices 1 2 3 4 5 6 
#
# 1 0.020155 -0.004429 -0.003852 0.000000 0.000000 0.000000
# 2 -0.004429 0.012717 -0.002832 0.000000 0.000000 0.000000
# 3 -0.003852 -0.002832 0.008026 0.000000 0.000000 0.000000
# 4 0.000000 0.000000 0.000000 0.044387 0.000000 0.000000
# 5 0.000000 0.000000 0.000000 0.000000 0.055144 0.000000
# 6 0.000000 0.000000 0.000000 0.000000 0.000000 0.104479
#
#
# Mechanical properties :
#
#
# Convention : Reuss Voigt Hill
#
# Bulk Modulus (GPa) = 53.55723 64.39473 58.97598
# Shear Modulus (GPa) = 18.29101 23.60970 20.95035
#
# Velocity S-wave (km/s) = 3.45048 3.92018 3.69281
# Velocity P-wave (km/s) = 7.12289 7.89973 7.52135
#
# Compressibility (1/GPa) = 0.01867162
#
# Stress axis : x y z
#
# Youngs Moduli (GPa) = 49.61529 78.63208 124.60076
#
# Poissons Ratio (x) = 0.34828 0.48000
# Poissons Ratio (y) = 0.21976 0.35284
# Poissons Ratio (z) = 0.19113 0.22267
#
# Static dielectric constant tensor:
#      x y z
#    x 1.543250 0.000000 0.000000 
#    y 0.000000 1.445730 0.000000 
#    z 0.000000 0.000000 1.543620 
# 
# From -- ./inp_files/14374.got.cif
#   From: 2010.05.17/outbox.cif.g08.bks.cpg/sg63_8_cif.got.tgz:14374.got - 2010.06.03 15:47:04.
