data_PCOD9469064
_publ_section_title
;
Structure prediction by ZEFSAII (Michael W. Deem and Ramdas Pophale) SiO2 
 PCOD9469064
Probable space group: C M C M
;
_chemical_formula_sum "Si O2"
_cell_formula_units_Z 128
_cell_length_a 7.330480
_cell_length_b 26.747278
_cell_length_c 29.334941
_cell_angle_alpha 90.000000
_cell_angle_beta 90.000000
_cell_angle_gamma 90.000000
_cell_volume 5751.713218
_symmetry_space_group_name_H-M "C M C M"
_symmetry_group_IT_number 63
_symmetry_cell_setting 'orthorhombic'
loop_
_space_group_symop_operation_xyz
x,y,z
-x,-y,1/2+z
x,-y,-z
-x,y,1/2-z
-x,-y,-z
x,y,1/2-z
-x,y,z
x,-y,1/2+z
1/2+x,1/2+y,z
1/2-x,1/2-y,1/2+z
1/2+x,1/2-y,-z
1/2-x,1/2+y,1/2-z
1/2-x,1/2-y,-z
1/2+x,1/2+y,1/2-z
1/2-x,1/2+y,z
1/2+x,1/2-y,1/2+z
loop_
_atom_site_type_symbol
_atom_site_label
_atom_site_fract_x
_atom_site_fract_y
_atom_site_fract_z
Si Si1 0.722317 0.481705 0.049362
Si Si2 0.722291 0.517019 0.354283
Si Si3 0.781162 0.179380 0.640157
Si Si4 0.723127 0.382592 0.802567
Si Si5 0.215236 0.207858 0.365412
Si Si6 0.782301 0.201571 0.468573
Si Si7 0.277361 0.416068 0.197551
Si Si8 0.777580 0.132647 0.546792
O O1 0.500000 0.482723 0.049002
O O2 0.779627 0.513873 0.092976
O O3 0.777023 0.424121 0.055663
O O4 0.783316 0.500000 0.000000
O O5 0.500000 0.517258 0.353936
O O6 0.780389 0.566356 0.327544
O O7 0.778993 0.465867 0.329308
O O8 0.735448 0.235873 0.652879
O O9 0.717133 0.134812 0.672825
O O10 0.717604 0.167289 0.588755
O O11 0.000000 0.176319 0.639539
O O12 0.781075 0.381053 0.750000
O O13 0.500000 0.382577 0.802122
O O14 0.785692 0.334758 0.831682
O O15 0.290249 0.205857 0.417218
O O16 0.000000 0.198207 0.369120
O O17 0.750000 0.250000 0.500000
O O18 0.715988 0.154845 0.498636
O O19 0.000000 0.196544 0.464793
O O20 0.220736 0.417844 0.250000
O O21 0.500000 0.415949 0.196806
O O22 0.000000 0.133195 0.546492
#
# Coordination Sequence:
#
# PCOD9469064 Si02
#       8
#    16  16  16  16  16  16  16  16
#     4   9  16  23  36  61  93 124 149 181 235 294
#     4   9  15  25  41  63  91 122 154 189 237 292
#     4  10  18  31  49  69  95 127 159 194 241 289
#     4   9  18  31  45  62  91 131 165 197 241 288
#     4  10  21  33  47  70  98 128 166 203 234 278
#     4  10  19  30  46  67  92 123 158 192 228 274
#     4   9  16  26  43  68  93 116 150 198 244 286
#     4   9  16  27  41  60  91 125 150 183 234 284
#
# _framework density 22.254238000000001
#
# number of rings (size 3 to 8) (size 9 to 14) (size 15 to 20)
#    0.000    2.625    2.500    0.375    1.750    2.000 
#    0.000    0.000    0.000    0.000    0.000    0.875 
#    0.000    4.000    0.000    0.000    0.000    0.000 
#
# Total GULP energy -357557.375136 kJ/mol
# GULP energy per Si atom -5586.833986 kJ/mol
# Density = 2.220359 g / cm^3
# Si number density = 22.254238 Si / 1000 Ang^3
#
#
#
# Elastic Constant Matrix: (Units=GPa)
#
#
# Indices 1 2 3 4 5 6 
#
# 1 86.9813 -0.8537 6.9116 0.0000 0.0000 0.0000
# 2 -0.8537 186.5780 125.7326 0.0000 0.0000 0.0000
# 3 6.9116 125.7326 206.5194 0.0000 0.0000 0.0000
# 4 0.0000 0.0000 0.0000 34.8053 0.0000 0.0000
# 5 0.0000 0.0000 0.0000 0.0000 -7.8488 0.0000
# 6 0.0000 0.0000 0.0000 0.0000 0.0000 5.6700
#
#
#
# Elastic Compliance Matrix: (Units=1/GPa)
#
#
# Indices 1 2 3 4 5 6 
#
# 1 0.011558 0.000532 -0.000711 0.000000 0.000000 0.000000
# 2 0.000532 0.009113 -0.005566 0.000000 0.000000 0.000000
# 3 -0.000711 -0.005566 0.008255 0.000000 0.000000 0.000000
# 4 0.000000 0.000000 0.000000 0.028731 0.000000 0.000000
# 5 0.000000 0.000000 0.000000 0.000000 -0.127408 0.000000
# 6 0.000000 0.000000 0.000000 0.000000 0.000000 0.176368
#
#
# Mechanical properties :
#
#
# Convention : Reuss Voigt Hill
#
# Bulk Modulus (GPa) = 57.35122 82.62885 69.99004
# Shear Modulus (GPa) = 40.34883 29.74449 35.04666
#
# Velocity S-wave (km/s) = 4.26265 3.65989 3.97272
# Velocity P-wave (km/s) = 7.07487 7.42090 7.24995
#
# Compressibility (1/GPa) = 0.01743642
#
# Stress axis : x y z
#
# Youngs Moduli (GPa) = 86.51715 109.73444 121.14522
#
# Poissons Ratio (x) = -0.05835 0.08608
# Poissons Ratio (y) = -0.04600 0.67428
# Poissons Ratio (z) = 0.06147 0.61077
#
# Static dielectric constant tensor:
#      x y z
#    x 1.935420 0.000000 0.000000 
#    y 0.000000 1.774920 0.000000 
#    z 0.000000 0.000000 1.788360 
# 
# From -- ./inp_files/68812.got.cif
#   From: 2010.05.17/outbox.cif.g08.bks.cpg/sg63_35_cif.got.tgz:68812.got - 2010.06.03 15:47:04.
