data_PCOD9469585
_publ_section_title
;
Structure prediction by ZEFSAII (Michael W. Deem and Ramdas Pophale) SiO2 
 PCOD9469585
Probable space group: C M C M
;
_chemical_formula_sum "Si O2"
_cell_formula_units_Z 80
_cell_length_a 12.872294
_cell_length_b 14.297766
_cell_length_c 21.301102
_cell_angle_alpha 90.000000
_cell_angle_beta 90.000000
_cell_angle_gamma 90.000000
_cell_volume 3920.362329
_symmetry_space_group_name_H-M "C M C M"
_symmetry_group_IT_number 63
_symmetry_cell_setting 'orthorhombic'
loop_
_space_group_symop_operation_xyz
x,y,z
-x,-y,1/2+z
x,-y,-z
-x,y,1/2-z
-x,-y,-z
x,y,1/2-z
-x,y,z
x,-y,1/2+z
1/2+x,1/2+y,z
1/2-x,1/2-y,1/2+z
1/2+x,1/2-y,-z
1/2-x,1/2+y,1/2-z
1/2-x,1/2-y,-z
1/2+x,1/2+y,1/2-z
1/2-x,1/2+y,z
1/2+x,1/2-y,1/2+z
loop_
_atom_site_type_symbol
_atom_site_label
_atom_site_fract_x
_atom_site_fract_y
_atom_site_fract_z
Si Si1 0.118986 0.550970 0.322425
Si Si2 0.500000 0.419106 0.054756
Si Si3 0.623733 0.861527 0.396650
Si Si4 0.710967 0.612263 0.502795
Si Si5 0.691605 0.669361 0.141567
Si Si6 0.000000 0.040443 0.179717
O O1 0.123818 0.520180 0.250000
O O2 0.146388 0.462664 0.366257
O O3 0.199028 0.634747 0.332119
O O4 0.000000 0.578021 0.336341
O O5 0.392977 0.365003 0.042527
O O6 0.500000 0.466822 0.122691
O O7 0.500000 0.500000 0.000000
O O8 0.500000 0.852519 0.405265
O O9 0.687134 0.853574 0.461329
O O10 0.663210 0.777816 0.352280
O O11 0.719805 0.500000 0.500000
O O12 0.695413 0.647998 0.432803
O O13 0.600974 0.605560 0.170568
O O14 0.000000 0.000216 0.250000
#
# Coordination Sequence:
#
# PCOD9469585 Si02
#       6
#    16   8  16  16  16   8
#     4  10  23  43  64  87 125 172 211 262 329 391
#     4  10  18  38  64  84 133 173 207 269 336 388
#     4  11  24  40  64  97 130 161 220 273 324 388
#     4  11  20  38  65  88 129 174 213 260 336 391
#     4  12  22  41  62  94 128 169 215 271 325 392
#     4  12  22  34  62  98 122 164 225 272 321 390
#
# _framework density 20.406275999999998
#
# number of rings (size 3 to 8) (size 9 to 14) (size 15 to 20)
#    0.000    1.000    7.000    1.200    0.000    2.800 
#    1.800    0.000    0.000    0.000    0.000    0.000 
#    0.000    0.000    0.000    0.000    0.000    0.000 
#
# Total GULP energy -223538.104532 kJ/mol
# GULP energy per Si atom -5588.452613 kJ/mol
# Density = 2.035983 g / cm^3
# Si number density = 20.406276 Si / 1000 Ang^3
#
#
#
# Elastic Constant Matrix: (Units=GPa)
#
#
# Indices 1 2 3 4 5 6 
#
# 1 114.0451 34.6399 33.5613 0.0000 0.0000 0.0000
# 2 34.6399 41.0891 1.3153 0.0000 0.0000 0.0000
# 3 33.5613 1.3153 101.8563 0.0000 0.0000 0.0000
# 4 0.0000 0.0000 0.0000 14.6854 0.0000 0.0000
# 5 0.0000 0.0000 0.0000 0.0000 22.3804 0.0000
# 6 0.0000 0.0000 0.0000 0.0000 0.0000 22.1932
#
#
#
# Elastic Compliance Matrix: (Units=1/GPa)
#
#
# Indices 1 2 3 4 5 6 
#
# 1 0.013423 -0.011179 -0.004279 0.000000 0.000000 0.000000
# 2 -0.011179 0.033658 0.003249 0.000000 0.000000 0.000000
# 3 -0.004279 0.003249 0.011186 0.000000 0.000000 0.000000
# 4 0.000000 0.000000 0.000000 0.068095 0.000000 0.000000
# 5 0.000000 0.000000 0.000000 0.000000 0.044682 0.000000
# 6 0.000000 0.000000 0.000000 0.000000 0.000000 0.045059
#
#
# Mechanical properties :
#
#
# Convention : Reuss Voigt Hill
#
# Bulk Modulus (GPa) = 29.54310 44.00261 36.77285
# Shear Modulus (GPa) = 19.85677 24.35006 22.10342
#
# Velocity S-wave (km/s) = 3.12279 3.45811 3.29472
# Velocity P-wave (km/s) = 5.24513 6.12820 5.70378
#
# Compressibility (1/GPa) = 0.03384886
#
# Stress axis : x y z
#
# Youngs Moduli (GPa) = 74.49821 29.71058 89.40099
#
# Poissons Ratio (x) = 0.33214 0.38250
# Poissons Ratio (y) = 0.83284 -0.29046
# Poissons Ratio (z) = 0.31874 -0.09653
#
# Static dielectric constant tensor:
#      x y z
#    x 1.739970 0.000000 0.000000 
#    y 0.000000 1.742990 0.000000 
#    z 0.000000 0.000000 1.722240 
# 
# From -- ./inp_files/61187.got.cif
#   From: 2010.05.17/outbox.cif.g08.bks.cpg/sg63_31_cif.got.tgz:61187.got - 2010.06.03 15:47:04.
