data_PCOD9469539
_publ_section_title
;
Structure prediction by ZEFSAII (Michael W. Deem and Ramdas Pophale) SiO2 
 PCOD9469539
Probable space group: C M C M
;
_chemical_formula_sum "Si O2"
_cell_formula_units_Z 68
_cell_length_a 7.613830
_cell_length_b 23.524750
_cell_length_c 17.538360
_cell_angle_alpha 90.000000
_cell_angle_beta 90.000000
_cell_angle_gamma 90.000000
_cell_volume 3141.356119
_symmetry_space_group_name_H-M "C M C M"
_symmetry_group_IT_number 63
_symmetry_cell_setting 'orthorhombic'
loop_
_space_group_symop_operation_xyz
x,y,z
-x,-y,1/2+z
x,-y,-z
-x,y,1/2-z
-x,-y,-z
x,y,1/2-z
-x,y,z
x,-y,1/2+z
1/2+x,1/2+y,z
1/2-x,1/2-y,1/2+z
1/2+x,1/2-y,-z
1/2-x,1/2+y,1/2-z
1/2-x,1/2-y,-z
1/2+x,1/2+y,1/2-z
1/2-x,1/2+y,z
1/2+x,1/2-y,1/2+z
loop_
_atom_site_type_symbol
_atom_site_label
_atom_site_fract_x
_atom_site_fract_y
_atom_site_fract_z
Si Si1 0.709205 0.814803 0.981027
Si Si2 0.194447 0.875506 0.133508
Si Si3 0.785649 0.618972 0.336049
Si Si4 0.500000 0.156052 0.750000
Si Si5 0.786965 0.499520 0.411080
O O1 0.500000 0.823293 0.982930
O O2 0.771080 0.834204 0.897522
O O3 0.750000 0.750000 0.000000
O O4 0.787063 0.854265 0.046697
O O5 0.346018 0.848157 0.183831
O O6 0.219516 0.943525 0.131124
O O7 0.000000 0.860813 0.160470
O O8 0.723476 0.627978 0.250000
O O9 0.734372 0.557374 0.369011
O O10 0.000000 0.619442 0.333936
O O11 0.732902 0.500000 0.500000
O O12 0.000000 0.496510 0.410073
#
# Coordination Sequence:
#
# PCOD9469539 Si02
#       5
#    16  16  16   4  16
#     4  11  22  44  68  94 133 182 234 290 347 411
#     4  12  25  43  69 102 135 183 230 278 348 421
#     4   9  19  35  63  97 133 179 229 280 343 405
#     4  12  26  48  66  98 146 172 226 294 342 408
#     4  10  18  35  65  97 137 180 220 273 343 409
#
# _framework density 21.646702000000001
#
# number of rings (size 3 to 8) (size 9 to 14) (size 15 to 20)
#    0.000    1.412    4.706    1.059    1.647    0.471 
#    2.118    0.000    0.000    4.941    0.000    0.000 
#    0.000    0.000    0.000    0.000    0.000    0.000 
#
# Total GULP energy -189651.913477 kJ/mol
# GULP energy per Si atom -5577.997455 kJ/mol
# Density = 2.159743 g / cm^3
# Si number density = 21.646702 Si / 1000 Ang^3
#
#
#
# Elastic Constant Matrix: (Units=GPa)
#
#
# Indices 1 2 3 4 5 6 
#
# 1 124.7786 -0.6172 33.4016 0.0000 0.0000 0.0000
# 2 -0.6172 106.4194 53.1127 0.0000 0.0000 0.0000
# 3 33.4016 53.1127 191.1364 0.0000 0.0000 0.0000
# 4 0.0000 0.0000 0.0000 10.6725 0.0000 0.0000
# 5 0.0000 0.0000 0.0000 0.0000 -13.0432 0.0000
# 6 0.0000 0.0000 0.0000 0.0000 0.0000 21.6499
#
#
#
# Elastic Compliance Matrix: (Units=1/GPa)
#
#
# Indices 1 2 3 4 5 6 
#
# 1 0.008484 0.000916 -0.001737 0.000000 0.000000 0.000000
# 2 0.000916 0.011009 -0.003219 0.000000 0.000000 0.000000
# 3 -0.001737 -0.003219 0.006430 0.000000 0.000000 0.000000
# 4 0.000000 0.000000 0.000000 0.093699 0.000000 0.000000
# 5 0.000000 0.000000 0.000000 0.000000 -0.076668 0.000000
# 6 0.000000 0.000000 0.000000 0.000000 0.000000 0.046189
#
#
# Mechanical properties :
#
#
# Convention : Reuss Voigt Hill
#
# Bulk Modulus (GPa) = 56.04700 66.01429 61.03065
# Shear Modulus (GPa) = 48.46345 26.28499 37.37422
#
# Velocity S-wave (km/s) = 4.73677 3.48842 4.15969
# Velocity P-wave (km/s) = 7.47421 6.84017 7.16421
#
# Compressibility (1/GPa) = 0.01784217
#
# Stress axis : x y z
#
# Youngs Moduli (GPa) = 117.87260 90.83668 155.52135
#
# Poissons Ratio (x) = -0.08322 0.27016
# Poissons Ratio (y) = -0.10799 0.50066
# Poissons Ratio (z) = 0.20476 0.29242
#
# Static dielectric constant tensor:
#      x y z
#    x 1.876180 0.000000 0.000000 
#    y 0.000000 1.754880 0.000000 
#    z 0.000000 0.000000 1.746190 
# 
# From -- ./inp_files/39990.got.cif
#   From: 2010.05.17/outbox.cif.g08.bks.cpg/sg63_20_cif.got.tgz:39990.got - 2010.06.03 15:47:04.
