data_PCOD9469491
_publ_section_title
;
Structure prediction by ZEFSAII (Michael W. Deem and Ramdas Pophale) SiO2 
 PCOD9469491
Probable space group: C M C M
;
_chemical_formula_sum "Si O2"
_cell_formula_units_Z 96
_cell_length_a 7.585442
_cell_length_b 25.758423
_cell_length_c 24.413814
_cell_angle_alpha 90.000000
_cell_angle_beta 90.000000
_cell_angle_gamma 90.000000
_cell_volume 4770.191282
_symmetry_space_group_name_H-M "C M C M"
_symmetry_group_IT_number 63
_symmetry_cell_setting 'orthorhombic'
loop_
_space_group_symop_operation_xyz
x,y,z
-x,-y,1/2+z
x,-y,-z
-x,y,1/2-z
-x,-y,-z
x,y,1/2-z
-x,y,z
x,-y,1/2+z
1/2+x,1/2+y,z
1/2-x,1/2-y,1/2+z
1/2+x,1/2-y,-z
1/2-x,1/2+y,1/2-z
1/2-x,1/2-y,-z
1/2+x,1/2+y,1/2-z
1/2-x,1/2+y,z
1/2+x,1/2-y,1/2+z
loop_
_atom_site_type_symbol
_atom_site_label
_atom_site_fract_x
_atom_site_fract_y
_atom_site_fract_z
Si Si1 0.701521 0.266172 0.250000
Si Si2 0.299025 0.117157 0.750000
Si Si3 0.284481 0.479200 0.940029
Si Si4 0.290143 0.764510 0.632374
Si Si5 0.212404 0.139035 0.437591
Si Si6 0.284527 0.328982 0.442336
Si Si7 0.787528 0.073819 0.867014
O O1 0.500000 0.246299 0.250000
O O2 0.694924 0.328729 0.250000
O O3 0.782759 0.247406 0.192748
O O4 0.500000 0.134249 0.750000
O O5 0.264702 0.084752 0.695171
O O6 0.500000 0.478945 0.939670
O O7 0.225350 0.420154 0.931665
O O8 0.226062 0.520202 0.894182
O O9 0.232416 0.500000 0.000000
O O10 0.500000 0.754876 0.635260
O O11 0.261084 0.822219 0.610877
O O12 0.222373 0.723344 0.587343
O O13 0.275752 0.162675 0.495530
O O14 0.000000 0.137102 0.440286
O O15 0.500000 0.328588 0.443686
O O16 0.230856 0.377984 0.405120
O O17 0.000000 0.073516 0.868623
#
# Coordination Sequence:
#
# PCOD9469491 Si02
#       7
#     8   8  16  16  16  16  16
#     4  10  20  38  61  76  97 141 194 228 256 317
#     4  12  24  36  53  82 115 139 172 226 280 319
#     4   9  16  30  57  85 105 133 181 229 264 307
#     4  10  20  34  52  77 106 143 185 217 260 328
#     4  10  19  32  52  83 114 139 171 221 274 315
#     4   9  16  29  54  81 106 136 176 219 261 315
#     4  10  18  34  59  82 106 142 183 220 261 318
#
# _framework density 20.124979
#
# number of rings (size 3 to 8) (size 9 to 14) (size 15 to 20)
#    0.000    2.167    3.333    1.250    0.000    0.667 
#    0.000    2.500    0.000    4.000    0.000    0.000 
#    0.000    0.000    0.000    0.000    0.000    0.000 
#
# Total GULP energy -268055.831215 kJ/mol
# GULP energy per Si atom -5584.496484 kJ/mol
# Density = 2.007917 g / cm^3
# Si number density = 20.124979 Si / 1000 Ang^3
#
#
#
# Elastic Constant Matrix: (Units=GPa)
#
#
# Indices 1 2 3 4 5 6 
#
# 1 43.6780 -4.3562 -2.1685 0.0000 0.0000 0.0000
# 2 -4.3562 158.2699 88.4330 0.0000 0.0000 0.0000
# 3 -2.1685 88.4330 161.6619 0.0000 0.0000 0.0000
# 4 0.0000 0.0000 0.0000 35.8887 0.0000 0.0000
# 5 0.0000 0.0000 0.0000 0.0000 15.8053 0.0000
# 6 0.0000 0.0000 0.0000 0.0000 0.0000 35.7912
#
#
#
# Elastic Compliance Matrix: (Units=1/GPa)
#
#
# Indices 1 2 3 4 5 6 
#
# 1 0.022958 0.000662 -0.000054 0.000000 0.000000 0.000000
# 2 0.000662 0.009119 -0.004979 0.000000 0.000000 0.000000
# 3 -0.000054 -0.004979 0.008909 0.000000 0.000000 0.000000
# 4 0.000000 0.000000 0.000000 0.027864 0.000000 0.000000
# 5 0.000000 0.000000 0.000000 0.000000 0.063270 0.000000
# 6 0.000000 0.000000 0.000000 0.000000 0.000000 0.027940
#
#
# Mechanical properties :
#
#
# Convention : Reuss Voigt Hill
#
# Bulk Modulus (GPa) = 31.01445 58.60291 44.80868
# Shear Modulus (GPa) = 27.84741 36.27712 32.06227
#
# Velocity S-wave (km/s) = 3.72388 4.25030 3.99577
# Velocity P-wave (km/s) = 5.82530 7.29859 6.60316
#
# Compressibility (1/GPa) = 0.03224303
#
# Stress axis : x y z
#
# Youngs Moduli (GPa) = 43.55744 109.66467 112.24851
#
# Poissons Ratio (x) = -0.07262 0.00609
# Poissons Ratio (y) = -0.02885 0.55892
# Poissons Ratio (z) = 0.00237 0.54605
#
# Static dielectric constant tensor:
#      x y z
#    x 1.782860 0.000000 0.000000 
#    y 0.000000 1.684760 0.000000 
#    z 0.000000 0.000000 1.697160 
# 
# From -- ./inp_files/59997.got.cif
#   From: 2010.05.17/outbox.cif.g08.bks.cpg/sg63_30_cif.got.tgz:59997.got - 2010.06.03 15:47:04.
