data_PCOD9469790
_publ_section_title
;
Structure prediction by ZEFSAII (Michael W. Deem and Ramdas Pophale) SiO2 
 PCOD9469790
Probable space group: C M C M
;
_chemical_formula_sum "Si O2"
_cell_formula_units_Z 96
_cell_length_a 9.022426
_cell_length_b 24.596950
_cell_length_c 26.322741
_cell_angle_alpha 90.000000
_cell_angle_beta 90.000000
_cell_angle_gamma 90.000000
_cell_volume 5841.652217
_symmetry_space_group_name_H-M "C M C M"
_symmetry_group_IT_number 63
_symmetry_cell_setting 'orthorhombic'
loop_
_space_group_symop_operation_xyz
x,y,z
-x,-y,1/2+z
x,-y,-z
-x,y,1/2-z
-x,-y,-z
x,y,1/2-z
-x,y,z
x,-y,1/2+z
1/2+x,1/2+y,z
1/2-x,1/2-y,1/2+z
1/2+x,1/2-y,-z
1/2-x,1/2+y,1/2-z
1/2-x,1/2-y,-z
1/2+x,1/2+y,1/2-z
1/2-x,1/2+y,z
1/2+x,1/2-y,1/2+z
loop_
_atom_site_type_symbol
_atom_site_label
_atom_site_fract_x
_atom_site_fract_y
_atom_site_fract_z
Si Si1 0.320790 0.485006 0.058409
Si Si2 0.820936 0.244258 0.620878
Si Si3 0.829778 0.324309 0.531475
Si Si4 0.671610 0.082160 0.383688
Si Si5 0.322135 0.638804 0.930045
Si Si6 0.823256 0.166350 0.190142
O O1 0.500000 0.487791 0.061004
O O2 0.251726 0.528071 0.097132
O O3 0.271556 0.423644 0.071664
O O4 0.279325 0.500000 0.000000
O O5 0.783950 0.274681 0.567727
O O6 0.776475 0.181476 0.613675
O O7 0.744337 0.279450 0.664462
O O8 0.000000 0.248302 0.626793
O O9 0.825285 0.376347 0.568607
O O10 0.730061 0.336572 0.483464
O O11 0.000000 0.315532 0.515240
O O12 0.500000 0.072157 0.370820
O O13 0.751926 0.114813 0.338661
O O14 0.500000 0.637878 0.929551
O O15 0.791989 0.164947 0.250000
O O16 0.000000 0.165788 0.182403
#
# Coordination Sequence:
#
# PCOD9469790 Si02
#       6
#    16  16  16  16  16  16
#     4  10  19  31  48  72 105 145 181 213 248 291
#     4   9  19  33  48  72 102 132 167 207 251 302
#     4   9  17  28  43  67  99 133 170 208 246 290
#     4  10  20  33  51  76 104 135 172 213 254 301
#     4  10  19  30  46  69 102 141 177 206 241 292
#     4  10  21  37  58  80  99 123 160 211 267 316
#
# _framework density 16.433706999999998
#
# number of rings (size 3 to 8) (size 9 to 14) (size 15 to 20)
#    0.000    2.333    1.667    2.500    0.000    5.667 
#    0.000    0.000    0.000    1.000    0.000    2.333 
#    0.000    0.000    0.000    0.000    0.000    0.000 
#
# Total GULP energy -267609.731452 kJ/mol
# GULP energy per Si atom -5575.202739 kJ/mol
# Density = 1.639630 g / cm^3
# Si number density = 16.433707 Si / 1000 Ang^3
#
#
#
# Elastic Constant Matrix: (Units=GPa)
#
#
# Indices 1 2 3 4 5 6 
#
# 1 33.1806 51.3400 44.0188 0.0000 0.0000 0.0000
# 2 51.3400 142.0821 70.2038 0.0000 0.0000 0.0000
# 3 44.0188 70.2038 92.5746 0.0000 0.0000 0.0000
# 4 0.0000 0.0000 0.0000 6.0564 0.0000 0.0000
# 5 0.0000 0.0000 0.0000 0.0000 20.5336 0.0000
# 6 0.0000 0.0000 0.0000 0.0000 0.0000 19.4340
#
#
#
# Elastic Compliance Matrix: (Units=1/GPa)
#
#
# Indices 1 2 3 4 5 6 
#
# 1 0.116012 -0.023450 -0.037380 0.000000 0.000000 0.000000
# 2 -0.023450 0.015996 -0.000980 0.000000 0.000000 0.000000
# 3 -0.037380 -0.000980 0.029319 0.000000 0.000000 0.000000
# 4 0.000000 0.000000 0.000000 0.165115 0.000000 0.000000
# 5 0.000000 0.000000 0.000000 0.000000 0.048701 0.000000
# 6 0.000000 0.000000 0.000000 0.000000 0.000000 0.051456
#
#
# Mechanical properties :
#
#
# Convention : Reuss Voigt Hill
#
# Bulk Modulus (GPa) = 26.52014 66.55141 46.53577
# Shear Modulus (GPa) = 8.88433 16.02311 12.45372
#
# Velocity S-wave (km/s) = 2.32764 3.12591 2.75583
# Velocity P-wave (km/s) = 4.83700 7.32211 6.20523
#
# Compressibility (1/GPa) = 0.03770720
#
# Stress axis : x y z
#
# Youngs Moduli (GPa) = 8.61978 62.51578 34.10732
#
# Poissons Ratio (x) = 1.46601 1.27493
# Poissons Ratio (y) = 0.20214 0.03342
# Poissons Ratio (z) = 0.32221 0.06126
#
# Static dielectric constant tensor:
#      x y z
#    x 1.554820 0.000000 0.000000 
#    y 0.000000 1.583310 0.000000 
#    z 0.000000 0.000000 1.518260 
# 
# From -- ./inp_files/59856.got.cif
#   From: 2010.05.17/outbox.cif.g08.bks.cpg/sg63_30_cif.got.tgz:59856.got - 2010.06.03 15:47:04.
