data_PCOD9469917
_publ_section_title
;
Structure prediction by ZEFSAII (Michael W. Deem and Ramdas Pophale) SiO2 
 PCOD9469917
Probable space group: C M C M
;
_chemical_formula_sum "Si O2"
_cell_formula_units_Z 96
_cell_length_a 29.935181
_cell_length_b 27.200076
_cell_length_c 8.592537
_cell_angle_alpha 90.000000
_cell_angle_beta 90.000000
_cell_angle_gamma 90.000000
_cell_volume 6996.380438
_symmetry_space_group_name_H-M "C M C M"
_symmetry_group_IT_number 63
_symmetry_cell_setting 'orthorhombic'
loop_
_space_group_symop_operation_xyz
x,y,z
-x,-y,1/2+z
x,-y,-z
-x,y,1/2-z
-x,-y,-z
x,y,1/2-z
-x,y,z
x,-y,1/2+z
1/2+x,1/2+y,z
1/2-x,1/2-y,1/2+z
1/2+x,1/2-y,-z
1/2-x,1/2+y,1/2-z
1/2-x,1/2-y,-z
1/2+x,1/2+y,1/2-z
1/2-x,1/2+y,z
1/2+x,1/2-y,1/2+z
loop_
_atom_site_type_symbol
_atom_site_label
_atom_site_fract_x
_atom_site_fract_y
_atom_site_fract_z
Si Si1 0.225114 0.798625 0.563051
Si Si2 0.950239 0.287795 0.937308
Si Si3 0.142579 0.446784 0.936754
Si Si4 0.549517 0.902402 0.939282
Si Si5 0.803964 0.354549 0.063488
Si Si6 0.858981 0.743269 0.936926
O O1 0.227866 0.799767 0.750000
O O2 0.250000 0.750000 0.500000
O O3 0.253797 0.843095 0.494109
O O4 0.173650 0.788294 0.517884
O O5 0.949283 0.287131 0.750000
O O6 0.944611 0.345156 0.985106
O O7 0.000000 0.272156 0.987693
O O8 0.908802 0.257005 0.999173
O O9 0.142702 0.447080 0.750000
O O10 0.092125 0.433267 0.992061
O O11 0.155251 0.500000 0.000000
O O12 0.174922 0.403777 0.995587
O O13 0.549343 0.903318 0.750000
O O14 0.500000 0.918743 0.991311
O O15 0.804482 0.355951 0.250000
O O16 0.834738 0.307836 0.012711
O O17 0.860542 0.742217 0.750000
#
# Coordination Sequence:
#
# PCOD9469917 Si02
#       6
#    16  16  16  16  16  16
#     4   9  17  28  42  62  83 103 127 158 199 243
#     4   9  16  26  41  59  78 104 137 167 199 242
#     4  11  21  32  46  60  77 103 132 170 214 255
#     4   8  15  28  43  57  73  97 131 170 212 253
#     4  10  19  31  44  60  80 101 130 167 204 248
#     4   9  17  27  41  61  83 102 126 162 200 240
#
# _framework density 13.721380999999999
#
# number of rings (size 3 to 8) (size 9 to 14) (size 15 to 20)
#    0.000    2.667    1.667    3.500    0.000    4.000 
#    0.000    0.000    0.000    1.500    0.000    0.000 
#    0.000    0.000    0.000    0.000    0.000    0.833 
#
# Total GULP energy -267320.239857 kJ/mol
# GULP energy per Si atom -5569.171664 kJ/mol
# Density = 1.369015 g / cm^3
# Si number density = 13.721381 Si / 1000 Ang^3
#
#
#
# Elastic Constant Matrix: (Units=GPa)
#
#
# Indices 1 2 3 4 5 6 
#
# 1 110.6088 56.2968 26.3241 0.0000 0.0000 0.0000
# 2 56.2968 58.3708 19.6248 0.0000 0.0000 0.0000
# 3 26.3241 19.6248 26.7908 0.0000 0.0000 0.0000
# 4 0.0000 0.0000 0.0000 15.0498 0.0000 0.0000
# 5 0.0000 0.0000 0.0000 0.0000 20.4172 0.0000
# 6 0.0000 0.0000 0.0000 0.0000 0.0000 16.8500
#
#
#
# Elastic Compliance Matrix: (Units=1/GPa)
#
#
# Indices 1 2 3 4 5 6 
#
# 1 0.018656 -0.015695 -0.006834 0.000000 0.000000 0.000000
# 2 -0.015695 0.035934 -0.010901 0.000000 0.000000 0.000000
# 3 -0.006834 -0.010901 0.052026 0.000000 0.000000 0.000000
# 4 0.000000 0.000000 0.000000 0.066446 0.000000 0.000000
# 5 0.000000 0.000000 0.000000 0.000000 0.048978 0.000000
# 6 0.000000 0.000000 0.000000 0.000000 0.000000 0.059347
#
#
# Mechanical properties :
#
#
# Convention : Reuss Voigt Hill
#
# Bulk Modulus (GPa) = 25.15310 44.47354 34.81332
# Shear Modulus (GPa) = 13.83130 16.69838 15.26484
#
# Velocity S-wave (km/s) = 3.17836 3.49228 3.33901
# Velocity P-wave (km/s) = 5.64273 6.98166 6.34760
#
# Compressibility (1/GPa) = 0.03975654
#
# Stress axis : x y z
#
# Youngs Moduli (GPa) = 53.60296 27.82848 19.22128
#
# Poissons Ratio (x) = 0.43678 0.13135
# Poissons Ratio (y) = 0.84132 0.20953
# Poissons Ratio (z) = 0.36630 0.30335
#
# Static dielectric constant tensor:
#      x y z
#    x 1.480710 0.000000 0.000000 
#    y 0.000000 1.415360 0.000000 
#    z 0.000000 0.000000 1.462570 
# 
# From -- ./inp_files/12759.got.cif
#   From: 2010.05.17/outbox.cif.g08.bks.cpg/sg63_7_cif.got.tgz:12759.got - 2010.06.03 15:47:04.
