data_PCOD9469234
_publ_section_title
;
Structure prediction by ZEFSAII (Michael W. Deem and Ramdas Pophale) SiO2 
 PCOD9469234
Probable space group: C M C M
;
_chemical_formula_sum "Si O2"
_cell_formula_units_Z 80
_cell_length_a 17.433771
_cell_length_b 20.756720
_cell_length_c 11.949678
_cell_angle_alpha 90.000000
_cell_angle_beta 90.000000
_cell_angle_gamma 90.000000
_cell_volume 4324.204922
_symmetry_space_group_name_H-M "C M C M"
_symmetry_group_IT_number 63
_symmetry_cell_setting 'orthorhombic'
loop_
_space_group_symop_operation_xyz
x,y,z
-x,-y,1/2+z
x,-y,-z
-x,y,1/2-z
-x,-y,-z
x,y,1/2-z
-x,y,z
x,-y,1/2+z
1/2+x,1/2+y,z
1/2-x,1/2-y,1/2+z
1/2+x,1/2-y,-z
1/2-x,1/2+y,1/2-z
1/2-x,1/2-y,-z
1/2+x,1/2+y,1/2-z
1/2-x,1/2+y,z
1/2+x,1/2-y,1/2+z
loop_
_atom_site_type_symbol
_atom_site_label
_atom_site_fract_x
_atom_site_fract_y
_atom_site_fract_z
Si Si1 0.000000 0.315446 0.121487
Si Si2 0.330835 0.913020 0.870058
Si Si3 0.500000 0.069257 0.055862
Si Si4 0.654134 0.733001 0.125787
Si Si5 0.261865 0.343032 0.054047
Si Si6 0.301786 0.517402 0.875427
O O1 0.075489 0.271729 0.107473
O O2 0.000000 0.339636 0.250000
O O3 0.000000 0.374281 0.036244
O O4 0.313247 0.882409 0.750000
O O5 0.278430 0.977257 0.877591
O O6 0.420561 0.925921 0.878053
O O7 0.304125 0.867840 0.969808
O O8 0.500000 0.000000 0.000000
O O9 0.650940 0.703550 0.250000
O O10 0.723967 0.784554 0.120795
O O11 0.671347 0.683171 0.026927
O O12 0.287259 0.406167 0.120302
O O13 0.335639 0.502109 0.750000
O O14 0.337183 0.500000 0.000000
#
# Coordination Sequence:
#
# PCOD9469234 Si02
#       6
#     8  16   8  16  16  16
#     4  10  22  37  52  73 103 141 185 227 268 326
#     4  10  20  32  48  73 105 138 175 217 265 320
#     4  12  21  33  46  71 103 145 179 215 261 316
#     4  10  20  33  51  72  99 137 182 228 271 314
#     4  10  18  32  51  74  99 135 176 225 266 317
#     4   9  18  32  50  76 107 137 171 217 264 319
#
# _framework density 18.500510999999999
#
# number of rings (size 3 to 8) (size 9 to 14) (size 15 to 20)
#    0.000    2.000    2.000    3.300    0.000    1.600 
#    0.000    0.000    0.000    0.000    0.000    6.300 
#    0.000    6.400    0.000    0.000    0.000    0.000 
#
# Total GULP energy -222781.558711 kJ/mol
# GULP energy per Si atom -5569.538968 kJ/mol
# Density = 1.845840 g / cm^3
# Si number density = 18.500511 Si / 1000 Ang^3
#
#
#
# Elastic Constant Matrix: (Units=GPa)
#
#
# Indices 1 2 3 4 5 6 
#
# 1 39.0244 10.1586 18.3249 0.0000 0.0000 0.0000
# 2 10.1586 45.6119 17.4047 0.0000 0.0000 0.0000
# 3 18.3249 17.4047 123.7570 0.0000 0.0000 0.0000
# 4 0.0000 0.0000 0.0000 -10.8556 0.0000 0.0000
# 5 0.0000 0.0000 0.0000 0.0000 12.2789 0.0000
# 6 0.0000 0.0000 0.0000 0.0000 0.0000 16.3973
#
#
#
# Elastic Compliance Matrix: (Units=1/GPa)
#
#
# Indices 1 2 3 4 5 6 
#
# 1 0.028588 -0.005021 -0.003527 0.000000 0.000000 0.000000
# 2 -0.005021 0.024049 -0.002639 0.000000 0.000000 0.000000
# 3 -0.003527 -0.002639 0.008974 0.000000 0.000000 0.000000
# 4 0.000000 0.000000 0.000000 -0.092118 0.000000 0.000000
# 5 0.000000 0.000000 0.000000 0.000000 0.081440 0.000000
# 6 0.000000 0.000000 0.000000 0.000000 0.000000 0.060986
#
#
# Mechanical properties :
#
#
# Convention : Reuss Voigt Hill
#
# Bulk Modulus (GPa) = 25.48587 33.35219 29.41903
# Shear Modulus (GPa) = 33.92779 14.39780 24.16280
#
# Velocity S-wave (km/s) = 4.28703 2.79272 3.61787
# Velocity P-wave (km/s) = 6.18955 5.33534 5.77825
#
# Compressibility (1/GPa) = 0.03923743
#
# Stress axis : x y z
#
# Youngs Moduli (GPa) = 34.97940 41.58123 111.43693
#
# Poissons Ratio (x) = 0.20879 0.39303
# Poissons Ratio (y) = 0.17564 0.29405
# Poissons Ratio (z) = 0.12337 0.10972
#
# Static dielectric constant tensor:
#      x y z
#    x 1.624450 0.000000 0.000000 
#    y 0.000000 1.629650 0.000000 
#    z 0.000000 0.000000 1.702810 
# 
# From -- ./inp_files/21021.got.cif
#   From: 2010.05.17/outbox.cif.g08.bks.cpg/sg63_11_cif.got.tgz:21021.got - 2010.06.03 15:47:04.
