data_PCOD9469692
_publ_section_title
;
Structure prediction by ZEFSAII (Michael W. Deem and Ramdas Pophale) SiO2 
 PCOD9469692
Probable space group: C M C M
;
_chemical_formula_sum "Si O2"
_cell_formula_units_Z 80
_cell_length_a 18.901374
_cell_length_b 28.530822
_cell_length_c 7.521788
_cell_angle_alpha 90.000000
_cell_angle_beta 90.000000
_cell_angle_gamma 90.000000
_cell_volume 4056.287681
_symmetry_space_group_name_H-M "C M C M"
_symmetry_group_IT_number 63
_symmetry_cell_setting 'orthorhombic'
loop_
_space_group_symop_operation_xyz
x,y,z
-x,-y,1/2+z
x,-y,-z
-x,y,1/2-z
-x,-y,-z
x,y,1/2-z
-x,y,z
x,-y,1/2+z
1/2+x,1/2+y,z
1/2-x,1/2-y,1/2+z
1/2+x,1/2-y,-z
1/2-x,1/2+y,1/2-z
1/2-x,1/2-y,-z
1/2+x,1/2+y,1/2-z
1/2-x,1/2+y,z
1/2+x,1/2-y,1/2+z
loop_
_atom_site_type_symbol
_atom_site_label
_atom_site_fract_x
_atom_site_fract_y
_atom_site_fract_z
Si Si1 0.793607 0.146999 0.463820
Si Si2 0.150262 0.306641 0.533458
Si Si3 0.421207 0.095678 0.033446
Si Si4 0.579552 0.711328 0.538539
Si Si5 0.276692 0.947404 0.962481
O O1 0.790451 0.146502 0.250000
O O2 0.729993 0.181288 0.525833
O O3 0.869297 0.167334 0.512120
O O4 0.773138 0.094876 0.527574
O O5 0.151747 0.305278 0.750000
O O6 0.101563 0.351235 0.485850
O O7 0.118510 0.257934 0.467521
O O8 0.422591 0.093983 0.250000
O O9 0.500000 0.084207 0.970422
O O10 0.356754 0.062802 0.972073
O O11 0.573823 0.718280 0.750000
O O12 0.500000 0.706016 0.468132
O O13 0.279483 0.942573 0.750000
O O14 0.253734 0.000000 0.000000
#
# Coordination Sequence:
#
# PCOD9469692 Si02
#       5
#    16  16  16  16  16
#     4   9  18  32  48  66  90 121 154 184 218 265
#     4   8  14  26  44  66  93 124 155 182 209 251
#     4   8  13  23  41  65  93 123 152 181 214 256
#     4  10  19  29  45  71  97 119 147 184 223 261
#     4   9  18  31  47  67  88 114 151 190 227 267
#
# _framework density 19.722467000000002
#
# number of rings (size 3 to 8) (size 9 to 14) (size 15 to 20)
#    0.000    3.200    0.000    3.600    0.000    4.000 
#    0.000    0.000    0.000    1.800    0.000    0.000 
#    0.000    0.000    0.000    0.000    0.000    0.000 
#
# Total GULP energy -223084.950679 kJ/mol
# GULP energy per Si atom -5577.123767 kJ/mol
# Density = 1.967758 g / cm^3
# Si number density = 19.722467 Si / 1000 Ang^3
#
#
#
# Elastic Constant Matrix: (Units=GPa)
#
#
# Indices 1 2 3 4 5 6 
#
# 1 138.4174 89.4469 4.1245 0.0000 0.0000 0.0000
# 2 89.4469 136.1220 0.6810 0.0000 0.0000 0.0000
# 3 4.1245 0.6810 47.5540 0.0000 0.0000 0.0000
# 4 0.0000 0.0000 0.0000 7.5625 0.0000 0.0000
# 5 0.0000 0.0000 0.0000 0.0000 8.1169 0.0000
# 6 0.0000 0.0000 0.0000 0.0000 0.0000 7.7915
#
#
#
# Elastic Compliance Matrix: (Units=1/GPa)
#
#
# Indices 1 2 3 4 5 6 
#
# 1 0.012601 -0.008276 -0.000974 0.000000 0.000000 0.000000
# 2 -0.008276 0.012782 0.000535 0.000000 0.000000 0.000000
# 3 -0.000974 0.000535 0.021106 0.000000 0.000000 0.000000
# 4 0.000000 0.000000 0.000000 0.132231 0.000000 0.000000
# 5 0.000000 0.000000 0.000000 0.000000 0.123200 0.000000
# 6 0.000000 0.000000 0.000000 0.000000 0.000000 0.128345
#
#
# Mechanical properties :
#
#
# Convention : Reuss Voigt Hill
#
# Bulk Modulus (GPa) = 34.41398 56.73312 45.57355
# Shear Modulus (GPa) = 10.93180 19.88359 15.40769
#
# Velocity S-wave (km/s) = 2.35687 3.17861 2.79807
# Velocity P-wave (km/s) = 4.98934 6.50382 5.79625
#
# Compressibility (1/GPa) = 0.02905796
#
# Stress axis : x y z
#
# Youngs Moduli (GPa) = 79.35682 78.23744 47.38086
#
# Poissons Ratio (x) = 0.64746 0.04617
# Poissons Ratio (y) = 0.65672 -0.02534
# Poissons Ratio (z) = 0.07733 -0.04184
#
# Static dielectric constant tensor:
#      x y z
#    x 1.688470 0.000000 0.000000 
#    y 0.000000 1.690200 0.000000 
#    z 0.000000 0.000000 1.769350 
# 
# From -- ./inp_files/6416.got.cif
#   From: 2010.05.17/outbox.cif.g08.bks.cpg/sg63_4_cif.got.tgz:6416.got - 2010.06.03 15:47:04.
