data_PCOD9469349
_publ_section_title
;
Structure prediction by ZEFSAII (Michael W. Deem and Ramdas Pophale) SiO2 
 PCOD9469349
Probable space group: C M C M
;
_chemical_formula_sum "Si O2"
_cell_formula_units_Z 92
_cell_length_a 18.720351
_cell_length_b 18.017899
_cell_length_c 14.182649
_cell_angle_alpha 90.000000
_cell_angle_beta 90.000000
_cell_angle_gamma 90.000000
_cell_volume 4783.827272
_symmetry_space_group_name_H-M "C M C M"
_symmetry_group_IT_number 63
_symmetry_cell_setting 'orthorhombic'
loop_
_space_group_symop_operation_xyz
x,y,z
-x,-y,1/2+z
x,-y,-z
-x,y,1/2-z
-x,-y,-z
x,y,1/2-z
-x,y,z
x,-y,1/2+z
1/2+x,1/2+y,z
1/2-x,1/2-y,1/2+z
1/2+x,1/2-y,-z
1/2-x,1/2+y,1/2-z
1/2-x,1/2-y,-z
1/2+x,1/2+y,1/2-z
1/2-x,1/2+y,z
1/2+x,1/2-y,1/2+z
loop_
_atom_site_type_symbol
_atom_site_label
_atom_site_fract_x
_atom_site_fract_y
_atom_site_fract_z
Si Si1 0.500000 0.311533 0.585773
Si Si2 0.154741 0.026039 0.360360
Si Si3 0.500000 0.810499 0.250000
Si Si4 0.762409 0.699447 0.636872
Si Si5 0.919909 0.540230 0.750000
Si Si6 0.656270 0.675898 0.025323
Si Si7 0.694446 0.958898 0.402024
Si Si8 0.000000 0.014749 0.142004
O O1 0.500000 0.245411 0.662039
O O2 0.427292 0.307058 0.528012
O O3 0.500000 0.395071 0.630991
O O4 0.145277 0.050812 0.250000
O O5 0.166887 0.093444 0.432791
O O6 0.078738 0.989640 0.391423
O O7 0.226462 0.977865 0.362549
O O8 0.565516 0.869819 0.250000
O O9 0.755033 0.696667 0.750000
O O10 0.689673 0.691244 0.576798
O O11 0.802420 0.772439 0.600645
O O12 0.807679 0.629766 0.598322
O O13 0.871415 0.517337 0.837459
O O14 0.000000 0.508913 0.750000
O O15 0.688392 0.000000 0.500000
O O16 0.000000 0.992609 0.250000
#
# Coordination Sequence:
#
# PCOD9469349 Si02
#       8
#     8  16   4  16   8  16  16   8
#     4  10  18  32  56  90 123 150 193 255 305 361
#     4  10  18  34  57  87 121 159 192 245 304 364
#     4  10  20  36  64  90 118 158 208 260 326 354
#     4  11  22  39  59  88 121 161 209 251 300 376
#     4  10  24  40  59  86 113 156 207 260 312 364
#     4  10  22  36  60  92 120 155 199 255 315 360
#     4  12  22  38  61  88 123 162 205 256 308 366
#     4   8  16  28  50  85 120 146 194 234 289 353
#
# _framework density 19.231463999999999
#
# number of rings (size 3 to 8) (size 9 to 14) (size 15 to 20)
#    0.261    1.391    3.913    1.565    2.435    0.348 
#    0.000    1.739    0.000    0.000    0.000    0.000 
#    0.000    0.000    0.000    0.000    0.000    0.000 
#
# Total GULP energy -256466.382602 kJ/mol
# GULP energy per Si atom -5575.356144 kJ/mol
# Density = 1.918769 g / cm^3
# Si number density = 19.231464 Si / 1000 Ang^3
#
#
#
# Elastic Constant Matrix: (Units=GPa)
#
#
# Indices 1 2 3 4 5 6 
#
# 1 148.7598 14.2358 29.7691 0.0000 0.0000 0.0000
# 2 14.2358 33.3565 8.1037 0.0000 0.0000 0.0000
# 3 29.7691 8.1037 112.4146 0.0000 0.0000 0.0000
# 4 0.0000 0.0000 0.0000 19.0305 0.0000 0.0000
# 5 0.0000 0.0000 0.0000 0.0000 0.8036 0.0000
# 6 0.0000 0.0000 0.0000 0.0000 0.0000 25.0198
#
#
#
# Elastic Compliance Matrix: (Units=1/GPa)
#
#
# Indices 1 2 3 4 5 6 
#
# 1 0.007330 -0.002704 -0.001746 0.000000 0.000000 0.000000
# 2 -0.002704 0.031511 -0.001555 0.000000 0.000000 0.000000
# 3 -0.001746 -0.001555 0.009470 0.000000 0.000000 0.000000
# 4 0.000000 0.000000 0.000000 0.052547 0.000000 0.000000
# 5 0.000000 0.000000 0.000000 0.000000 1.244341 0.000000
# 6 0.000000 0.000000 0.000000 0.000000 0.000000 0.039968
#
#
# Mechanical properties :
#
#
# Convention : Reuss Voigt Hill
#
# Bulk Modulus (GPa) = 27.54828 44.30535 35.92682
# Shear Modulus (GPa) = 3.54791 25.13228 14.34010
#
# Velocity S-wave (km/s) = 1.35972 3.61893 2.73364
# Velocity P-wave (km/s) = 4.10132 6.36790 5.35589
#
# Compressibility (1/GPa) = 0.03629990
#
# Stress axis : x y z
#
# Youngs Moduli (GPa) = 136.41659 31.73482 105.59429
#
# Poissons Ratio (x) = 0.08582 0.18440
# Poissons Ratio (y) = 0.36890 0.16425
# Poissons Ratio (z) = 0.23822 0.04936
#
# Static dielectric constant tensor:
#      x y z
#    x 1.706060 0.000000 0.000000 
#    y 0.000000 1.681280 0.000000 
#    z 0.000000 0.000000 1.686550 
# 
# From -- ./inp_files/34160.got.cif
#   From: 2010.05.17/outbox.cif.g08.bks.cpg/sg63_18_cif.got.tgz:34160.got - 2010.06.03 15:47:04.
