data_PCOD9469758
_publ_section_title
;
Structure prediction by ZEFSAII (Michael W. Deem and Ramdas Pophale) SiO2 
 PCOD9469758
Probable space group: C M C M
;
_chemical_formula_sum "Si O2"
_cell_formula_units_Z 80
_cell_length_a 8.677344
_cell_length_b 14.561645
_cell_length_c 28.182019
_cell_angle_alpha 90.000000
_cell_angle_beta 90.000000
_cell_angle_gamma 90.000000
_cell_volume 3560.978546
_symmetry_space_group_name_H-M "C M C M"
_symmetry_group_IT_number 63
_symmetry_cell_setting 'orthorhombic'
loop_
_space_group_symop_operation_xyz
x,y,z
-x,-y,1/2+z
x,-y,-z
-x,y,1/2-z
-x,-y,-z
x,y,1/2-z
-x,y,z
x,-y,1/2+z
1/2+x,1/2+y,z
1/2-x,1/2-y,1/2+z
1/2+x,1/2-y,-z
1/2-x,1/2+y,1/2-z
1/2-x,1/2-y,-z
1/2+x,1/2+y,1/2-z
1/2-x,1/2+y,z
1/2+x,1/2-y,1/2+z
loop_
_atom_site_type_symbol
_atom_site_label
_atom_site_fract_x
_atom_site_fract_y
_atom_site_fract_z
Si Si1 0.672085 0.264855 0.449520
Si Si2 0.180217 0.474695 0.250000
Si Si3 0.813530 0.032394 0.651752
Si Si4 0.181631 0.749800 0.750000
Si Si5 0.174745 0.985143 0.448952
Si Si6 0.684667 0.239437 0.851865
O O1 0.500000 0.227224 0.450748
O O2 0.750000 0.250000 0.500000
O O3 0.663946 0.375189 0.444413
O O4 0.756602 0.227355 0.402860
O O5 0.261174 0.507926 0.298105
O O6 0.192063 0.362340 0.250000
O O7 0.000000 0.497114 0.250000
O O8 0.762989 0.984696 0.602361
O O9 0.737215 0.133124 0.650337
O O10 0.000000 0.039044 0.650672
O O11 0.244829 0.779456 0.801498
O O12 0.000000 0.773215 0.750000
O O13 0.000000 0.024532 0.452808
O O14 0.253397 0.000000 0.500000
O O15 0.500000 0.245453 0.851500
#
# Coordination Sequence:
#
# PCOD9469758 Si02
#       6
#    16   8  16   8  16  16
#     4  10  19  30  45  65  89 118 150 184 222 263
#     4   9  15  23  35  53  82 115 142 173 217 263
#     4   9  15  23  38  60  84 110 142 179 218 260
#     4   7  12  21  35  55  78 107 136 165 207 253
#     4   8  15  28  45  65  88 114 145 181 219 260
#     4   9  15  25  40  59  86 115 142 175 217 265
#
# _framework density 22.465734999999999
#
# number of rings (size 3 to 8) (size 9 to 14) (size 15 to 20)
#    0.000    3.200    0.000    4.500    0.000    0.000 
#    0.000    1.500    0.000   21.600    0.000    1.400 
#    0.000    6.400    0.000    0.000    0.000    0.000 
#
# Total GULP energy -222742.889462 kJ/mol
# GULP energy per Si atom -5568.572237 kJ/mol
# Density = 2.241460 g / cm^3
# Si number density = 22.465735 Si / 1000 Ang^3
#
#
#
# Elastic Constant Matrix: (Units=GPa)
#
#
# Indices 1 2 3 4 5 6 
#
# 1 73.5306 0.0781 74.2482 0.0000 0.0000 0.0000
# 2 0.0781 55.5273 5.5409 0.0000 0.0000 0.0000
# 3 74.2482 5.5409 330.5849 0.0000 0.0000 0.0000
# 4 0.0000 0.0000 0.0000 7.8314 0.0000 0.0000
# 5 0.0000 0.0000 0.0000 0.0000 35.0232 0.0000
# 6 0.0000 0.0000 0.0000 0.0000 0.0000 -2.9601
#
#
#
# Elastic Compliance Matrix: (Units=1/GPa)
#
#
# Indices 1 2 3 4 5 6 
#
# 1 0.017596 0.000370 -0.003958 0.000000 0.000000 0.000000
# 2 0.000370 0.018047 -0.000386 0.000000 0.000000 0.000000
# 3 -0.003958 -0.000386 0.003920 0.000000 0.000000 0.000000
# 4 0.000000 0.000000 0.000000 0.127691 0.000000 0.000000
# 5 0.000000 0.000000 0.000000 0.000000 0.028552 0.000000
# 6 0.000000 0.000000 0.000000 0.000000 0.000000 -0.337829
#
#
# Mechanical properties :
#
#
# Convention : Reuss Voigt Hill
#
# Bulk Modulus (GPa) = 31.62907 68.81969 50.22438
# Shear Modulus (GPa) = -40.47430 33.29728 -3.58851
#
# Velocity S-wave (km/s) = -4.24913 3.85403 -1.26522
# Velocity P-wave (km/s) = 3.15660 7.10664 4.50224
#
# Compressibility (1/GPa) = 0.03161649
#
# Stress axis : x y z
#
# Youngs Moduli (GPa) = 56.83014 55.41053 255.07472
#
# Poissons Ratio (x) = -0.02052 1.00966
# Poissons Ratio (y) = -0.02104 0.09837
# Poissons Ratio (z) = 0.22495 0.02137
#
# Static dielectric constant tensor:
#      x y z
#    x 1.777880 0.000000 0.000000 
#    y 0.000000 2.003480 0.000000 
#    z 0.000000 0.000000 1.985640 
# 
# From -- ./inp_files/66831.got.cif
#   From: 2010.05.17/outbox.cif.g08.bks.cpg/sg63_34_cif.got.tgz:66831.got - 2010.06.03 15:47:04.
