data_PCOD9469103
_publ_section_title
;
Structure prediction by ZEFSAII (Michael W. Deem and Ramdas Pophale) SiO2 
 PCOD9469103
Probable space group: C M C M
;
_chemical_formula_sum "Si O2"
_cell_formula_units_Z 112
_cell_length_a 7.419572
_cell_length_b 25.959573
_cell_length_c 26.249476
_cell_angle_alpha 90.000000
_cell_angle_beta 90.000000
_cell_angle_gamma 90.000000
_cell_volume 5055.883248
_symmetry_space_group_name_H-M "C M C M"
_symmetry_group_IT_number 63
_symmetry_cell_setting 'orthorhombic'
loop_
_space_group_symop_operation_xyz
x,y,z
-x,-y,1/2+z
x,-y,-z
-x,y,1/2-z
-x,-y,-z
x,y,1/2-z
-x,y,z
x,-y,1/2+z
1/2+x,1/2+y,z
1/2-x,1/2-y,1/2+z
1/2+x,1/2-y,-z
1/2-x,1/2+y,1/2-z
1/2-x,1/2-y,-z
1/2+x,1/2+y,1/2-z
1/2-x,1/2+y,z
1/2+x,1/2-y,1/2+z
loop_
_atom_site_type_symbol
_atom_site_label
_atom_site_fract_x
_atom_site_fract_y
_atom_site_fract_z
Si Si1 0.779722 0.040329 0.457003
Si Si2 0.279214 0.676291 0.892230
Si Si3 0.714571 0.348422 0.993719
Si Si4 0.716448 0.483028 0.843245
Si Si5 0.279791 0.594704 0.692978
Si Si6 0.785508 0.369333 0.805814
Si Si7 0.215832 0.291756 0.608173
O O1 0.716986 0.097341 0.471686
O O2 0.718810 0.023483 0.401207
O O3 0.000000 0.040948 0.455880
O O4 0.725644 0.000000 0.500000
O O5 0.500000 0.675820 0.892407
O O6 0.221790 0.634029 0.851009
O O7 0.221114 0.734300 0.879254
O O8 0.218121 0.663615 0.949735
O O9 0.500000 0.353984 0.998965
O O10 0.745852 0.306098 0.950350
O O11 0.500000 0.486719 0.844767
O O12 0.780179 0.536280 0.818749
O O13 0.758325 0.430005 0.814778
O O14 0.224730 0.609848 0.750000
O O15 0.500000 0.594642 0.692240
O O16 0.713826 0.354803 0.750000
O O17 0.713959 0.335405 0.852955
O O18 0.000000 0.360969 0.804789
O O19 0.000000 0.291455 0.612555
#
# Coordination Sequence:
#
# PCOD9469103 Si02
#       7
#    16  16  16  16  16  16  16
#     4   9  16  26  45  73 103 132 160 195 242 298
#     4   9  18  31  49  73 100 131 167 205 247 297
#     4  10  18  31  51  75 101 130 165 203 249 299
#     4  10  18  31  52  78 103 127 163 208 253 297
#     4   9  17  29  48  76 104 127 160 210 256 291
#     4  10  21  35  50  70  99 135 170 204 248 301
#     4  10  20  34  51  72 100 133 168 207 247 292
#
# _framework density 22.152411000000001
#
# number of rings (size 3 to 8) (size 9 to 14) (size 15 to 20)
#    0.000    2.429    1.429    1.714    0.000    4.857 
#    0.000    2.857    0.000    5.143    0.000    0.000 
#    0.000    0.000    0.000    0.000    0.000    0.000 
#
# Total GULP energy -312905.090966 kJ/mol
# GULP energy per Si atom -5587.590910 kJ/mol
# Density = 2.210199 g / cm^3
# Si number density = 22.152411 Si / 1000 Ang^3
#
#
#
# Elastic Constant Matrix: (Units=GPa)
#
#
# Indices 1 2 3 4 5 6 
#
# 1 69.9575 -0.5815 3.9662 0.0000 0.0000 0.0000
# 2 -0.5815 133.5293 87.9276 0.0000 0.0000 0.0000
# 3 3.9662 87.9276 192.6740 0.0000 0.0000 0.0000
# 4 0.0000 0.0000 0.0000 -18.9198 0.0000 0.0000
# 5 0.0000 0.0000 0.0000 0.0000 0.6011 0.0000
# 6 0.0000 0.0000 0.0000 0.0000 0.0000 3.8135
#
#
#
# Elastic Compliance Matrix: (Units=1/GPa)
#
#
# Indices 1 2 3 4 5 6 
#
# 1 0.014324 0.000367 -0.000462 0.000000 0.000000 0.000000
# 2 0.000367 0.010716 -0.004898 0.000000 0.000000 0.000000
# 3 -0.000462 -0.004898 0.007435 0.000000 0.000000 0.000000
# 4 0.000000 0.000000 0.000000 -0.052855 0.000000 0.000000
# 5 0.000000 0.000000 0.000000 0.000000 1.663697 0.000000
# 6 0.000000 0.000000 0.000000 0.000000 0.000000 0.262229
#
#
# Mechanical properties :
#
#
# Convention : Reuss Voigt Hill
#
# Bulk Modulus (GPa) = 44.46879 64.30951 54.38915
# Shear Modulus (GPa) = 2.60007 17.42218 10.01112
#
# Velocity S-wave (km/s) = 1.08456 2.80745 2.12815
# Velocity P-wave (km/s) = 4.65682 6.29305 5.53572
#
# Compressibility (1/GPa) = 0.02248768
#
# Stress axis : x y z
#
# Youngs Moduli (GPa) = 69.81464 93.32138 134.50432
#
# Poissons Ratio (x) = -0.03422 0.06217
# Poissons Ratio (y) = -0.02560 0.65876
# Poissons Ratio (z) = 0.03227 0.45706
#
# Static dielectric constant tensor:
#      x y z
#    x 1.869940 0.000000 0.000000 
#    y 0.000000 1.775470 0.000000 
#    z 0.000000 0.000000 1.793180 
# 
# From -- ./inp_files/61966.got.cif
#   From: 2010.05.17/outbox.cif.g08.bks.cpg/sg63_31_cif.got.tgz:61966.got - 2010.06.03 15:47:04.
