data_PCOD9469458
_publ_section_title
;
Structure prediction by ZEFSAII (Michael W. Deem and Ramdas Pophale) SiO2 
 PCOD9469458
Probable space group: C M C M
;
_chemical_formula_sum "Si O2"
_cell_formula_units_Z 72
_cell_length_a 26.136888
_cell_length_b 9.150735
_cell_length_c 18.557717
_cell_angle_alpha 90.000000
_cell_angle_beta 90.000000
_cell_angle_gamma 90.000000
_cell_volume 4438.481388
_symmetry_space_group_name_H-M "C M C M"
_symmetry_group_IT_number 63
_symmetry_cell_setting 'orthorhombic'
loop_
_space_group_symop_operation_xyz
x,y,z
-x,-y,1/2+z
x,-y,-z
-x,y,1/2-z
-x,-y,-z
x,y,1/2-z
-x,y,z
x,-y,1/2+z
1/2+x,1/2+y,z
1/2-x,1/2-y,1/2+z
1/2+x,1/2-y,-z
1/2-x,1/2+y,1/2-z
1/2-x,1/2-y,-z
1/2+x,1/2+y,1/2-z
1/2-x,1/2+y,z
1/2+x,1/2-y,1/2+z
loop_
_atom_site_type_symbol
_atom_site_label
_atom_site_fract_x
_atom_site_fract_y
_atom_site_fract_z
Si Si1 0.263445 0.500000 0.000000
Si Si2 0.682833 0.771123 0.942452
Si Si3 0.500000 0.220014 0.329887
Si Si4 0.500000 0.671418 0.992650
Si Si5 0.889770 0.565792 0.332046
Si Si6 0.904855 0.646948 0.545944
O O1 0.295525 0.392895 0.052590
O O2 0.227886 0.610691 0.045834
O O3 0.647529 0.824283 0.876063
O O4 0.646198 0.787867 0.011752
O O5 0.500000 0.295392 0.250000
O O6 0.500000 0.300874 0.406519
O O7 0.447665 0.127458 0.331975
O O8 0.500000 0.500000 0.000000
O O9 0.548999 0.744099 0.030999
O O10 0.872666 0.550160 0.250000
O O11 0.893400 0.413234 0.374912
O O12 0.917203 0.500000 0.500000
#
# Coordination Sequence:
#
# PCOD9469458 Si02
#       6
#     8  16   8   8  16  16
#     4  10  20  34  56  80 104 140 190 238 286 308
#     4  10  19  34  57  80 106 141 187 235 270 336
#     4  10  19  33  54  80 111 141 176 221 274 335
#     4  12  22  32  55  87 114 142 186 230 275 334
#     4  10  19  34  57  83 109 145 181 227 282 334
#     4  10  18  34  55  79 105 141 185 226 261 335
#
# _framework density 16.221765000000001
#
# number of rings (size 3 to 8) (size 9 to 14) (size 15 to 20)
#    0.000    1.778    7.778    1.000    1.556    0.000 
#    0.000    2.222    0.000    1.333    0.000    0.000 
#    0.000    0.000    0.000    0.000    0.000    0.000 
#
# Total GULP energy -200417.024173 kJ/mol
# GULP energy per Si atom -5567.139560 kJ/mol
# Density = 1.618484 g / cm^3
# Si number density = 16.221765 Si / 1000 Ang^3
#
#
#
# Elastic Constant Matrix: (Units=GPa)
#
#
# Indices 1 2 3 4 5 6 
#
# 1 96.0745 56.8509 43.0263 0.0000 0.0000 0.0000
# 2 56.8509 93.7899 24.8431 0.0000 0.0000 0.0000
# 3 43.0263 24.8431 123.1921 0.0000 0.0000 0.0000
# 4 0.0000 0.0000 0.0000 15.2447 0.0000 0.0000
# 5 0.0000 0.0000 0.0000 0.0000 -7.3987 0.0000
# 6 0.0000 0.0000 0.0000 0.0000 0.0000 -6.1507
#
#
#
# Elastic Compliance Matrix: (Units=1/GPa)
#
#
# Indices 1 2 3 4 5 6 
#
# 1 0.018213 -0.009883 -0.004368 0.000000 0.000000 0.000000
# 2 -0.009883 0.016626 0.000099 0.000000 0.000000 0.000000
# 3 -0.004368 0.000099 0.009623 0.000000 0.000000 0.000000
# 4 0.000000 0.000000 0.000000 0.065597 0.000000 0.000000
# 5 0.000000 0.000000 0.000000 0.000000 -0.135158 0.000000
# 6 0.000000 0.000000 0.000000 0.000000 0.000000 -0.162583
#
#
# Mechanical properties :
#
#
# Convention : Reuss Voigt Hill
#
# Bulk Modulus (GPa) = 61.88800 62.49967 62.19384
# Shear Modulus (GPa) = -32.46923 12.89479 -9.78722
#
# Velocity S-wave (km/s) = -4.47876 2.82247 -2.45896
# Velocity P-wave (km/s) = 3.38944 7.01667 5.51008
#
# Compressibility (1/GPa) = 0.01615822
#
# Stress axis : x y z
#
# Youngs Moduli (GPa) = 54.90665 60.14550 103.91667
#
# Poissons Ratio (x) = 0.59440 0.45391
# Poissons Ratio (y) = 0.54262 -0.01026
# Poissons Ratio (z) = 0.23984 -0.00594
#
# Static dielectric constant tensor:
#      x y z
#    x 1.570080 0.000000 0.000000 
#    y 0.000000 1.539340 0.000000 
#    z 0.000000 0.000000 1.576130 
# 
# From -- ./inp_files/47834.got.cif
#   From: 2010.05.17/outbox.cif.g08.bks.cpg/sg63_24_cif.got.tgz:47834.got - 2010.06.03 15:47:04.
