data_PCOD9469412
_publ_section_title
;
Structure prediction by ZEFSAII (Michael W. Deem and Ramdas Pophale) SiO2 
 PCOD9469412
Probable space group: C M C M
;
_chemical_formula_sum "Si O2"
_cell_formula_units_Z 88
_cell_length_a 26.434634
_cell_length_b 7.948092
_cell_length_c 19.420018
_cell_angle_alpha 90.000000
_cell_angle_beta 90.000000
_cell_angle_gamma 90.000000
_cell_volume 4080.240999
_symmetry_space_group_name_H-M "C M C M"
_symmetry_group_IT_number 63
_symmetry_cell_setting 'orthorhombic'
loop_
_space_group_symop_operation_xyz
x,y,z
-x,-y,1/2+z
x,-y,-z
-x,y,1/2-z
-x,-y,-z
x,y,1/2-z
-x,y,z
x,-y,1/2+z
1/2+x,1/2+y,z
1/2-x,1/2-y,1/2+z
1/2+x,1/2-y,-z
1/2-x,1/2+y,1/2-z
1/2-x,1/2-y,-z
1/2+x,1/2+y,1/2-z
1/2-x,1/2+y,z
1/2+x,1/2-y,1/2+z
loop_
_atom_site_type_symbol
_atom_site_label
_atom_site_fract_x
_atom_site_fract_y
_atom_site_fract_z
Si Si1 0.500000 0.687078 0.919298
Si Si2 0.800848 0.593018 0.830102
Si Si3 0.395381 0.310945 0.624481
Si Si4 0.699947 0.746228 0.886951
Si Si5 0.091594 0.829764 0.325135
Si Si6 0.161433 0.000000 0.000000
Si Si7 0.000000 0.226191 0.425120
O O1 0.449130 0.734523 0.879451
O O2 0.500000 0.480949 0.922292
O O3 0.500000 0.763401 0.994468
O O4 0.800217 0.534624 0.750000
O O5 0.850701 0.703051 0.842982
O O6 0.749993 0.696186 0.845403
O O7 0.799683 0.446947 0.887651
O O8 0.410110 0.467812 0.672268
O O9 0.373408 0.397388 0.554179
O O10 0.447494 0.216140 0.608158
O O11 0.648832 0.709397 0.844979
O O12 0.693742 0.635608 0.956183
O O13 0.079133 0.764877 0.250000
#
# Coordination Sequence:
#
# PCOD9469412 Si02
#       7
#     8  16  16  16  16   8   8
#     4   9  17  30  57  84 118 152 199 253 289 355
#     4  12  25  42  61  89 120 162 206 252 311 369
#     4  10  21  36  62  87 124 161 202 256 299 365
#     4  11  24  40  64  87 123 160 199 254 303 368
#     4  10  18  33  56  88 119 159 203 247 299 355
#     4  10  22  41  62  98 122 157 206 246 310 362
#     4   9  16  34  55  84 115 158 199 241 309 353
#
# _framework density 21.567352
#
# number of rings (size 3 to 8) (size 9 to 14) (size 15 to 20)
#    0.000    1.636    0.000    7.909    0.000    3.636 
#    0.000    2.273    0.000    2.182    0.000    0.000 
#    0.000    0.000    0.000    0.000    0.000    0.000 
#
# Total GULP energy -245736.193537 kJ/mol
# GULP energy per Si atom -5584.913489 kJ/mol
# Density = 2.151826 g / cm^3
# Si number density = 21.567352 Si / 1000 Ang^3
#
#
#
# Elastic Constant Matrix: (Units=GPa)
#
#
# Indices 1 2 3 4 5 6 
#
# 1 175.0871 10.7528 32.3511 0.0000 0.0000 0.0000
# 2 10.7528 30.2067 -13.8990 0.0000 0.0000 0.0000
# 3 32.3511 -13.8990 59.7704 0.0000 0.0000 0.0000
# 4 0.0000 0.0000 0.0000 16.8119 0.0000 0.0000
# 5 0.0000 0.0000 0.0000 0.0000 40.7929 0.0000
# 6 0.0000 0.0000 0.0000 0.0000 0.0000 -40.3997
#
#
#
# Elastic Compliance Matrix: (Units=1/GPa)
#
#
# Indices 1 2 3 4 5 6 
#
# 1 0.006887 -0.004666 -0.004813 0.000000 0.000000 0.000000
# 2 -0.004666 0.040233 0.011882 0.000000 0.000000 0.000000
# 3 -0.004813 0.011882 0.022099 0.000000 0.000000 0.000000
# 4 0.000000 0.000000 0.000000 0.059482 0.000000 0.000000
# 5 0.000000 0.000000 0.000000 0.000000 0.024514 0.000000
# 6 0.000000 0.000000 0.000000 0.000000 0.000000 -0.024753
#
#
# Mechanical properties :
#
#
# Convention : Reuss Voigt Hill
#
# Bulk Modulus (GPa) = 13.50913 35.94155 24.72534
# Shear Modulus (GPa) = 33.70814 19.16499 26.43656
#
# Velocity S-wave (km/s) = 3.95767 2.98419 3.50489
# Velocity P-wave (km/s) = 5.21167 5.34554 5.27903
#
# Compressibility (1/GPa) = 0.07402400
#
# Stress axis : x y z
#
# Youngs Moduli (GPa) = 145.19471 24.85502 45.25167
#
# Poissons Ratio (x) = 0.11598 0.21779
# Poissons Ratio (y) = 0.67751 -0.53766
# Poissons Ratio (z) = 0.69881 -0.29532
#
# Static dielectric constant tensor:
#      x y z
#    x 2.295190 0.000000 0.000000 
#    y 0.000000 1.864760 0.000000 
#    z 0.000000 0.000000 1.782410 
# 
# From -- ./inp_files/57369.got.cif
#   From: 2010.05.17/outbox.cif.g08.bks.cpg/sg63_29_cif.got.tgz:57369.got - 2010.06.03 15:47:04.
