data_PCOD9469439
_publ_section_title
;
Structure prediction by ZEFSAII (Michael W. Deem and Ramdas Pophale) SiO2 
 PCOD9469439
Probable space group: C M C M
;
_chemical_formula_sum "Si O2"
_cell_formula_units_Z 96
_cell_length_a 18.927226
_cell_length_b 11.589005
_cell_length_c 23.176188
_cell_angle_alpha 90.000000
_cell_angle_beta 90.000000
_cell_angle_gamma 90.000000
_cell_volume 5083.643921
_symmetry_space_group_name_H-M "C M C M"
_symmetry_group_IT_number 63
_symmetry_cell_setting 'orthorhombic'
loop_
_space_group_symop_operation_xyz
x,y,z
-x,-y,1/2+z
x,-y,-z
-x,y,1/2-z
-x,-y,-z
x,y,1/2-z
-x,y,z
x,-y,1/2+z
1/2+x,1/2+y,z
1/2-x,1/2-y,1/2+z
1/2+x,1/2-y,-z
1/2-x,1/2+y,1/2-z
1/2-x,1/2-y,-z
1/2+x,1/2+y,1/2-z
1/2-x,1/2+y,z
1/2+x,1/2-y,1/2+z
loop_
_atom_site_type_symbol
_atom_site_label
_atom_site_fract_x
_atom_site_fract_y
_atom_site_fract_z
Si Si1 0.683562 0.147493 0.250000
Si Si2 0.151929 0.900421 0.088640
Si Si3 0.345974 0.073555 0.053696
Si Si4 0.183830 0.854857 0.956906
Si Si5 0.308946 0.854270 0.376383
Si Si6 0.294093 0.132561 0.750000
Si Si7 0.419920 0.215090 0.353854
O O1 0.734919 0.262078 0.250000
O O2 0.633758 0.166763 0.194064
O O3 0.715990 0.012798 0.250000
O O4 0.223756 0.853107 0.118027
O O5 0.092373 0.849537 0.130038
O O6 0.157496 0.037212 0.080994
O O7 0.152821 0.860957 0.021273
O O8 0.269344 0.128284 0.037065
O O9 0.399175 0.158527 0.084674
O O10 0.329406 0.978768 0.101598
O O11 0.373308 0.000000 0.000000
O O12 0.165915 0.741360 0.921383
O O13 0.331653 0.842281 0.310595
O O14 0.500000 0.191640 0.337294
#
# Coordination Sequence:
#
# PCOD9469439 Si02
#       7
#     8  16  16  16  16   8  16
#     4  12  25  44  62  96 119 156 200 258 318 352
#     4  10  19  34  57  91 116 153 197 240 314 360
#     4  11  19  33  58  86 117 147 196 241 308 350
#     4  10  18  33  60  91 121 149 182 267 325 353
#     4  11  19  32  55  88 119 141 187 255 315 354
#     4  12  24  36  64  92 124 144 196 266 312 360
#     4  12  25  40  57  80 123 168 203 231 281 375
#
# _framework density 18.884093
#
# number of rings (size 3 to 8) (size 9 to 14) (size 15 to 20)
#    0.000    1.000    8.333    1.750    2.333    0.333 
#    0.000    1.667    0.000    1.000    0.000    1.167 
#    0.000    0.000    0.000    0.000    0.000    0.000 
#
# Total GULP energy -267251.200163 kJ/mol
# GULP energy per Si atom -5567.733337 kJ/mol
# Density = 1.884111 g / cm^3
# Si number density = 18.884093 Si / 1000 Ang^3
#
#
#
# Elastic Constant Matrix: (Units=GPa)
#
#
# Indices 1 2 3 4 5 6 
#
# 1 34.7778 22.0190 -3.7167 0.0000 0.0000 0.0000
# 2 22.0190 93.4794 11.0363 0.0000 0.0000 0.0000
# 3 -3.7167 11.0363 70.8091 0.0000 0.0000 0.0000
# 4 0.0000 0.0000 0.0000 32.2842 0.0000 0.0000
# 5 0.0000 0.0000 0.0000 0.0000 9.5713 0.0000
# 6 0.0000 0.0000 0.0000 0.0000 0.0000 9.8819
#
#
#
# Elastic Compliance Matrix: (Units=1/GPa)
#
#
# Indices 1 2 3 4 5 6 
#
# 1 0.034462 -0.008487 0.003132 0.000000 0.000000 0.000000
# 2 -0.008487 0.012988 -0.002470 0.000000 0.000000 0.000000
# 3 0.003132 -0.002470 0.014672 0.000000 0.000000 0.000000
# 4 0.000000 0.000000 0.000000 0.030975 0.000000 0.000000
# 5 0.000000 0.000000 0.000000 0.000000 0.104479 0.000000
# 6 0.000000 0.000000 0.000000 0.000000 0.000000 0.101195
#
#
# Mechanical properties :
#
#
# Convention : Reuss Voigt Hill
#
# Bulk Modulus (GPa) = 21.51855 28.63817 25.07836
# Shear Modulus (GPa) = 15.15557 21.66267 18.40912
#
# Velocity S-wave (km/s) = 2.83602 3.39062 3.12564
# Velocity P-wave (km/s) = 4.70572 5.52508 5.13178
#
# Compressibility (1/GPa) = 0.04647153
#
# Stress axis : x y z
#
# Youngs Moduli (GPa) = 29.01730 76.99231 68.15785
#
# Poissons Ratio (x) = 0.65346 -0.21345
# Poissons Ratio (y) = 0.24628 0.16834
# Poissons Ratio (z) = -0.09087 0.19016
#
# Static dielectric constant tensor:
#      x y z
#    x 1.651790 0.000000 0.000000 
#    y 0.000000 1.753780 0.000000 
#    z 0.000000 0.000000 1.675450 
# 
# From -- ./inp_files/63727.got.cif
#   From: 2010.05.17/outbox.cif.g08.bks.cpg/sg63_32_cif.got.tgz:63727.got - 2010.06.03 15:47:04.
