data_PCOD9469628
_publ_section_title
;
Structure prediction by ZEFSAII (Michael W. Deem and Ramdas Pophale) SiO2 
 PCOD9469628
Probable space group: C M C M
;
_chemical_formula_sum "Si O2"
_cell_formula_units_Z 112
_cell_length_a 29.863015
_cell_length_b 14.526169
_cell_length_c 14.880834
_cell_angle_alpha 90.000000
_cell_angle_beta 90.000000
_cell_angle_gamma 90.000000
_cell_volume 6455.234402
_symmetry_space_group_name_H-M "C M C M"
_symmetry_group_IT_number 63
_symmetry_cell_setting 'orthorhombic'
loop_
_space_group_symop_operation_xyz
x,y,z
-x,-y,1/2+z
x,-y,-z
-x,y,1/2-z
-x,-y,-z
x,y,1/2-z
-x,y,z
x,-y,1/2+z
1/2+x,1/2+y,z
1/2-x,1/2-y,1/2+z
1/2+x,1/2-y,-z
1/2-x,1/2+y,1/2-z
1/2-x,1/2-y,-z
1/2+x,1/2+y,1/2-z
1/2-x,1/2+y,z
1/2+x,1/2-y,1/2+z
loop_
_atom_site_type_symbol
_atom_site_label
_atom_site_fract_x
_atom_site_fract_y
_atom_site_fract_z
Si Si1 0.450986 0.845753 0.504554
Si Si2 0.810434 0.848379 0.155188
Si Si3 0.068574 0.506015 0.644352
Si Si4 0.764075 0.975025 0.605125
Si Si5 0.166092 0.557295 0.148701
Si Si6 0.353269 0.222882 0.011907
Si Si7 0.726509 0.739912 0.402663
O O1 0.500000 0.800969 0.508600
O O2 0.445958 0.913300 0.591494
O O3 0.406352 0.784658 0.500737
O O4 0.449186 0.911160 0.416493
O O5 0.833019 0.827119 0.250000
O O6 0.838518 0.810493 0.071535
O O7 0.761742 0.798189 0.154135
O O8 0.799262 0.955606 0.147536
O O9 0.056428 0.507089 0.750000
O O10 0.122745 0.506384 0.637885
O O11 0.713497 0.991731 0.638336
O O12 0.773596 0.867577 0.622032
O O13 0.764292 0.000000 0.500000
O O14 0.163670 0.597014 0.250000
O O15 0.162384 0.635780 0.072831
O O16 0.323700 0.225054 0.921182
O O17 0.750000 0.750000 0.500000
#
# Coordination Sequence:
#
# PCOD9469628 Si02
#       7
#    16  16  16  16  16  16  16
#     4  10  21  34  52  75 101 138 184 230 274 326
#     4  11  22  33  51  77 104 137 178 221 261 313
#     4   9  19  32  50  75 107 142 180 224 267 315
#     4  12  20  31  49  72 103 141 181 206 254 314
#     4  10  19  28  44  71 102 138 174 210 249 302
#     4  10  19  35  50  67 101 138 172 212 267 311
#     4  10  19  34  50  70  99 139 173 209 255 311
#
# _framework density 17.350259999999999
#
# number of rings (size 3 to 8) (size 9 to 14) (size 15 to 20)
#    0.000    1.714    5.714    1.714    6.000    2.286 
#    0.000    0.000    0.000    0.000    0.000    2.000 
#    0.000    0.000    0.000    0.000    0.000    0.000 
#
# Total GULP energy -312266.733874 kJ/mol
# GULP energy per Si atom -5576.191676 kJ/mol
# Density = 1.731077 g / cm^3
# Si number density = 17.350260 Si / 1000 Ang^3
#
#
#
# Elastic Constant Matrix: (Units=GPa)
#
#
# Indices 1 2 3 4 5 6 
#
# 1 127.4764 22.0579 10.7146 0.0000 0.0000 0.0000
# 2 22.0579 68.7972 2.1706 0.0000 0.0000 0.0000
# 3 10.7146 2.1706 76.5258 0.0000 0.0000 0.0000
# 4 0.0000 0.0000 0.0000 -9.6688 0.0000 0.0000
# 5 0.0000 0.0000 0.0000 0.0000 5.9932 0.0000
# 6 0.0000 0.0000 0.0000 0.0000 0.0000 12.7748
#
#
#
# Elastic Compliance Matrix: (Units=1/GPa)
#
#
# Indices 1 2 3 4 5 6 
#
# 1 0.008397 -0.002658 -0.001100 0.000000 0.000000 0.000000
# 2 -0.002658 0.015390 -0.000064 0.000000 0.000000 0.000000
# 3 -0.001100 -0.000064 0.013223 0.000000 0.000000 0.000000
# 4 0.000000 0.000000 0.000000 -0.103425 0.000000 0.000000
# 5 0.000000 0.000000 0.000000 0.000000 0.166856 0.000000
# 6 0.000000 0.000000 0.000000 0.000000 0.000000 0.078279
#
#
# Mechanical properties :
#
#
# Convention : Reuss Voigt Hill
#
# Bulk Modulus (GPa) = 34.05370 38.07617 36.06494
# Shear Modulus (GPa) = 25.49039 17.67693 21.58366
#
# Velocity S-wave (km/s) = 3.83713 3.19537 3.53086
# Velocity P-wave (km/s) = 6.26907 5.96717 6.11998
#
# Compressibility (1/GPa) = 0.02936538
#
# Stress axis : x y z
#
# Youngs Moduli (GPa) = 119.09134 64.97905 75.62364
#
# Poissons Ratio (x) = 0.17268 0.08321
# Poissons Ratio (y) = 0.31649 0.00487
# Poissons Ratio (z) = 0.13104 0.00419
#
# Static dielectric constant tensor:
#      x y z
#    x 1.611840 0.000000 0.000000 
#    y 0.000000 1.604000 0.000000 
#    z 0.000000 0.000000 1.631370 
# 
# From -- ./inp_files/38684.got.cif
#   From: 2010.05.17/outbox.cif.g08.bks.cpg/sg63_20_cif.got.tgz:38684.got - 2010.06.03 15:47:04.
