data_PCOD9469840
_publ_section_title
;
Structure prediction by ZEFSAII (Michael W. Deem and Ramdas Pophale) SiO2 
 PCOD9469840
Probable space group: C M C M
;
_chemical_formula_sum "Si O2"
_cell_formula_units_Z 80
_cell_length_a 13.262969
_cell_length_b 21.328656
_cell_length_c 15.331293
_cell_angle_alpha 90.000000
_cell_angle_beta 90.000000
_cell_angle_gamma 90.000000
_cell_volume 4336.936146
_symmetry_space_group_name_H-M "C M C M"
_symmetry_group_IT_number 63
_symmetry_cell_setting 'orthorhombic'
loop_
_space_group_symop_operation_xyz
x,y,z
-x,-y,1/2+z
x,-y,-z
-x,y,1/2-z
-x,-y,-z
x,y,1/2-z
-x,y,z
x,-y,1/2+z
1/2+x,1/2+y,z
1/2-x,1/2-y,1/2+z
1/2+x,1/2-y,-z
1/2-x,1/2+y,1/2-z
1/2-x,1/2-y,-z
1/2+x,1/2+y,1/2-z
1/2-x,1/2+y,z
1/2+x,1/2-y,1/2+z
loop_
_atom_site_type_symbol
_atom_site_label
_atom_site_fract_x
_atom_site_fract_y
_atom_site_fract_z
Si Si1 0.890542 0.623505 0.351964
Si Si2 0.000000 0.754209 0.643319
Si Si3 0.172317 0.514800 0.602701
Si Si4 0.000000 0.611051 0.854591
Si Si5 0.390181 0.510602 0.396187
Si Si6 0.826831 0.847871 0.855530
O O1 0.894457 0.641119 0.250000
O O2 0.873408 0.548434 0.355848
O O3 0.788295 0.653464 0.389603
O O4 0.000000 0.637955 0.391881
O O5 0.000000 0.682541 0.614335
O O6 0.901172 0.792997 0.615150
O O7 0.000000 0.754574 0.750000
O O8 0.176877 0.500000 0.500000
O O9 0.287323 0.522486 0.635552
O O10 0.098641 0.572605 0.616810
O O11 0.000000 0.611585 0.750000
O O12 0.394026 0.500000 0.500000
O O13 0.500000 0.492134 0.360100
O O14 0.372483 0.584420 0.379474
O O15 0.822664 0.846041 0.750000
#
# Coordination Sequence:
#
# PCOD9469840 Si02
#       6
#    16   8  16   8  16  16
#     4   9  16  26  44  70  96 119 147 195 243 279
#     4   9  18  31  48  68  92 126 164 197 228 272
#     4  10  19  30  47  72  97 127 156 194 239 289
#     4  11  21  33  49  70 100 130 157 193 238 286
#     4   9  17  29  48  74  97 126 152 197 249 285
#     4   9  16  28  46  70  96 121 160 197 226 275
#
# _framework density 18.446203000000001
#
# number of rings (size 3 to 8) (size 9 to 14) (size 15 to 20)
#    0.000    2.600    2.000    0.900    0.000    0.800 
#    0.000    0.000    0.000   12.000    0.000    2.800 
#    0.000    0.000    0.000    0.200    0.000    0.000 
#
# Total GULP energy -222826.502388 kJ/mol
# GULP energy per Si atom -5570.662560 kJ/mol
# Density = 1.840422 g / cm^3
# Si number density = 18.446203 Si / 1000 Ang^3
#
#
#
# Elastic Constant Matrix: (Units=GPa)
#
#
# Indices 1 2 3 4 5 6 
#
# 1 230.3804 85.3039 9.6391 0.0000 0.0000 0.0000
# 2 85.3039 107.2023 3.6213 0.0000 0.0000 0.0000
# 3 9.6391 3.6213 27.2604 0.0000 0.0000 0.0000
# 4 0.0000 0.0000 0.0000 -128.9902 0.0000 0.0000
# 5 0.0000 0.0000 0.0000 0.0000 10.7007 0.0000
# 6 0.0000 0.0000 0.0000 0.0000 0.0000 24.8034
#
#
#
# Elastic Compliance Matrix: (Units=1/GPa)
#
#
# Indices 1 2 3 4 5 6 
#
# 1 0.006218 -0.004896 -0.001548 0.000000 0.000000 0.000000
# 2 -0.004896 0.013225 -0.000026 0.000000 0.000000 0.000000
# 3 -0.001548 -0.000026 0.037234 0.000000 0.000000 0.000000
# 4 0.000000 0.000000 0.000000 -0.007753 0.000000 0.000000
# 5 0.000000 0.000000 0.000000 0.000000 0.093452 0.000000
# 6 0.000000 0.000000 0.000000 0.000000 0.000000 0.040317
#
#
# Mechanical properties :
#
#
# Convention : Reuss Voigt Hill
#
# Bulk Modulus (GPa) = 22.86369 62.44130 42.65249
# Shear Modulus (GPa) = 23.78555 -0.94529 11.42013
#
# Velocity S-wave (km/s) = 3.59479 -0.71664 2.49088
# Velocity P-wave (km/s) = 5.44534 5.76535 5.60763
#
# Compressibility (1/GPa) = 0.04373747
#
# Stress axis : x y z
#
# Youngs Moduli (GPa) = 160.81898 75.61636 26.85710
#
# Poissons Ratio (x) = 0.37019 0.04158
# Poissons Ratio (y) = 0.78732 0.00069
# Poissons Ratio (z) = 0.24900 0.00194
#
# Static dielectric constant tensor:
#      x y z
#    x 1.723690 0.000000 0.000000 
#    y 0.000000 1.590680 0.000000 
#    z 0.000000 0.000000 1.642030 
# 
# From -- ./inp_files/44034.got.cif
#   From: 2010.05.17/outbox.cif.g08.bks.cpg/sg63_23_cif.got.tgz:44034.got - 2010.06.03 15:47:04.
