data_PCOD9469943
_publ_section_title
;
Structure prediction by ZEFSAII (Michael W. Deem and Ramdas Pophale) SiO2 
 PCOD9469943
Probable space group: C M C M
;
_chemical_formula_sum "Si O2"
_cell_formula_units_Z 72
_cell_length_a 12.762406
_cell_length_b 13.019974
_cell_length_c 17.084696
_cell_angle_alpha 90.000000
_cell_angle_beta 90.000000
_cell_angle_gamma 90.000000
_cell_volume 2838.898915
_symmetry_space_group_name_H-M "C M C M"
_symmetry_group_IT_number 63
_symmetry_cell_setting 'orthorhombic'
loop_
_space_group_symop_operation_xyz
x,y,z
-x,-y,1/2+z
x,-y,-z
-x,y,1/2-z
-x,-y,-z
x,y,1/2-z
-x,y,z
x,-y,1/2+z
1/2+x,1/2+y,z
1/2-x,1/2-y,1/2+z
1/2+x,1/2-y,-z
1/2-x,1/2+y,1/2-z
1/2-x,1/2-y,-z
1/2+x,1/2+y,1/2-z
1/2-x,1/2+y,z
1/2+x,1/2-y,1/2+z
loop_
_atom_site_type_symbol
_atom_site_label
_atom_site_fract_x
_atom_site_fract_y
_atom_site_fract_z
Si Si1 0.379359 0.888103 0.078693
Si Si2 0.341799 0.533468 0.750000
Si Si3 0.616810 0.890270 0.250000
Si Si4 0.336748 0.535602 0.916990
Si Si5 0.376439 0.218179 0.250000
Si Si6 0.376071 0.221288 0.417690
O O1 0.500000 0.923160 0.070111
O O2 0.374857 0.835316 0.165230
O O3 0.290206 0.974608 0.082196
O O4 0.349078 0.820931 0.003474
O O5 0.215129 0.534137 0.750000
O O6 0.377189 0.492192 0.834300
O O7 0.368677 0.656279 0.750000
O O8 0.500000 0.937637 0.250000
O O9 0.357431 0.657102 0.916234
O O10 0.378746 0.500000 0.000000
O O11 0.500000 0.193085 0.250000
O O12 0.330905 0.183624 0.333901
O O13 0.500000 0.202427 0.412714
#
# Coordination Sequence:
#
# PCOD9469943 Si02
#       6
#    16   8   8  16   8  16
#     4   9  17  30  48  68  89 115 148 183 218 258
#     4   8  16  30  44  60  84 118 152 174 206 262
#     4   8  14  26  45  65  85 113 147 178 210 256
#     4  10  19  31  47  66  90 118 148 182 219 261
#     4   8  14  26  45  65  85 113 147 178 210 256
#     4   9  17  30  48  68  89 115 148 183 218 258
#
# _framework density 25.361947000000001
#
# number of rings (size 3 to 8) (size 9 to 14) (size 15 to 20)
#    0.000    3.111    0.000    0.667    0.000    0.889 
#    0.000    2.222    0.000    0.000    0.000    0.000 
#    0.000    0.000    0.000    0.000    0.000    0.000 
#
# Total GULP energy -200526.290341 kJ/mol
# GULP energy per Si atom -5570.174732 kJ/mol
# Density = 2.530422 g / cm^3
# Si number density = 25.361947 Si / 1000 Ang^3
#
#
#
# Elastic Constant Matrix: (Units=GPa)
#
#
# Indices 1 2 3 4 5 6 
#
# 1 93.6346 -5.7473 17.2468 0.0000 0.0000 0.0000
# 2 -5.7473 46.2150 59.7018 0.0000 0.0000 0.0000
# 3 17.2468 59.7018 385.6179 0.0000 0.0000 0.0000
# 4 0.0000 0.0000 0.0000 36.2247 0.0000 0.0000
# 5 0.0000 0.0000 0.0000 0.0000 -25.1973 0.0000
# 6 0.0000 0.0000 0.0000 0.0000 0.0000 -13.2757
#
#
#
# Elastic Compliance Matrix: (Units=1/GPa)
#
#
# Indices 1 2 3 4 5 6 
#
# 1 0.010995 0.002503 -0.000879 0.000000 0.000000 0.000000
# 2 0.002503 0.027618 -0.004388 0.000000 0.000000 0.000000
# 3 -0.000879 -0.004388 0.003312 0.000000 0.000000 0.000000
# 4 0.000000 0.000000 0.000000 0.027605 0.000000 0.000000
# 5 0.000000 0.000000 0.000000 0.000000 -0.039687 0.000000
# 6 0.000000 0.000000 0.000000 0.000000 0.000000 -0.075326
#
#
# Mechanical properties :
#
#
# Convention : Reuss Voigt Hill
#
# Bulk Modulus (GPa) = 27.47448 74.20778 50.84113
# Shear Modulus (GPa) = -179.71324 29.83475 -74.93925
#
# Velocity S-wave (km/s) = -8.42693 3.43353 -5.44170
# Velocity P-wave (km/s) = 9.15575 6.71132 4.40375
#
# Compressibility (1/GPa) = 0.03639741
#
# Stress axis : x y z
#
# Youngs Moduli (GPa) = 90.94683 36.20887 301.94283
#
# Poissons Ratio (x) = -0.09064 0.26551
# Poissons Ratio (y) = -0.22767 1.32485
# Poissons Ratio (z) = 0.07997 0.15888
#
# Static dielectric constant tensor:
#      x y z
#    x 2.016840 0.000000 0.000000 
#    y 0.000000 1.997670 0.000000 
#    z 0.000000 0.000000 2.153680 
# 
# From -- ./inp_files/31489.got.cif
#   From: 2010.05.17/outbox.cif.g08.bks.cpg/sg63_16_cif.got.tgz:31489.got - 2010.06.03 15:47:04.
