data_PCOD9469710
_publ_section_title
;
Structure prediction by ZEFSAII (Michael W. Deem and Ramdas Pophale) SiO2 
 PCOD9469710
Probable space group: C M C M
;
_chemical_formula_sum "Si O2"
_cell_formula_units_Z 72
_cell_length_a 16.148386
_cell_length_b 29.934727
_cell_length_c 7.639052
_cell_angle_alpha 90.000000
_cell_angle_beta 90.000000
_cell_angle_gamma 90.000000
_cell_volume 3692.698841
_symmetry_space_group_name_H-M "C M C M"
_symmetry_group_IT_number 63
_symmetry_cell_setting 'orthorhombic'
loop_
_space_group_symop_operation_xyz
x,y,z
-x,-y,1/2+z
x,-y,-z
-x,y,1/2-z
-x,-y,-z
x,y,1/2-z
-x,y,z
x,-y,1/2+z
1/2+x,1/2+y,z
1/2-x,1/2-y,1/2+z
1/2+x,1/2-y,-z
1/2-x,1/2+y,1/2-z
1/2-x,1/2-y,-z
1/2+x,1/2+y,1/2-z
1/2-x,1/2+y,z
1/2+x,1/2-y,1/2+z
loop_
_atom_site_type_symbol
_atom_site_label
_atom_site_fract_x
_atom_site_fract_y
_atom_site_fract_z
Si Si1 0.593370 0.196669 0.035979
Si Si2 0.500000 0.947231 0.540756
Si Si3 0.908461 0.200772 0.540254
Si Si4 0.751513 0.140710 0.040055
Si Si5 0.318325 0.051963 0.460423
O O1 0.593669 0.195529 0.250000
O O2 0.500000 0.182684 0.983299
O O3 0.606459 0.248201 0.980239
O O4 0.670163 0.167098 0.974697
O O5 0.500000 0.939085 0.750000
O O6 0.409973 0.932926 0.474254
O O7 0.500000 0.000000 0.500000
O O8 0.912253 0.203319 0.750000
O O9 0.834692 0.167444 0.498325
O O10 0.000000 0.186893 0.476633
O O11 0.744754 0.139815 0.250000
O O12 0.745990 0.089386 0.977938
O O13 0.322057 0.053599 0.250000
O O14 0.302798 0.000000 0.500000
#
# Coordination Sequence:
#
# PCOD9469710 Si02
#       5
#    16   8  16  16  16
#     4   8  15  28  47  71  99 128 157 188 225 278
#     4   8  14  26  42  60  86 120 152 182 216 264
#     4   9  18  33  50  68  93 127 161 192 234 285
#     4  10  19  29  48  75  96 121 159 199 235 272
#     4   9  18  30  45  67  94 124 157 191 230 274
#
# _framework density 19.497934999999998
#
# number of rings (size 3 to 8) (size 9 to 14) (size 15 to 20)
#    0.000    3.111    0.000    2.000    1.556    1.333 
#    0.000    0.000    0.000    2.667    0.000    0.000 
#    0.000    0.000    0.000    0.000    0.000    0.000 
#
# Total GULP energy -200590.349469 kJ/mol
# GULP energy per Si atom -5571.954152 kJ/mol
# Density = 1.945356 g / cm^3
# Si number density = 19.497935 Si / 1000 Ang^3
#
#
#
# Elastic Constant Matrix: (Units=GPa)
#
#
# Indices 1 2 3 4 5 6 
#
# 1 134.9097 103.9484 5.8084 0.0000 0.0000 0.0000
# 2 103.9484 129.2468 8.4831 0.0000 0.0000 0.0000
# 3 5.8084 8.4831 35.1929 0.0000 0.0000 0.0000
# 4 0.0000 0.0000 0.0000 11.3506 0.0000 0.0000
# 5 0.0000 0.0000 0.0000 0.0000 14.2028 0.0000
# 6 0.0000 0.0000 0.0000 0.0000 0.0000 28.4542
#
#
#
# Elastic Compliance Matrix: (Units=1/GPa)
#
#
# Indices 1 2 3 4 5 6 
#
# 1 0.019501 -0.015722 0.000571 0.000000 0.000000 0.000000
# 2 -0.015722 0.020536 -0.002355 0.000000 0.000000 0.000000
# 3 0.000571 -0.002355 0.028888 0.000000 0.000000 0.000000
# 4 0.000000 0.000000 0.000000 0.088101 0.000000 0.000000
# 5 0.000000 0.000000 0.000000 0.000000 0.070409 0.000000
# 6 0.000000 0.000000 0.000000 0.000000 0.000000 0.035144
#
#
# Mechanical properties :
#
#
# Convention : Reuss Voigt Hill
#
# Bulk Modulus (GPa) = 29.48655 59.53660 44.51158
# Shear Modulus (GPa) = 16.18667 22.87551 19.53109
#
# Velocity S-wave (km/s) = 2.88440 3.42896 3.16840
# Velocity P-wave (km/s) = 5.12335 6.80280 6.02191
#
# Compressibility (1/GPa) = 0.03391376
#
# Stress axis : x y z
#
# Youngs Moduli (GPa) = 51.27816 48.69454 34.61609
#
# Poissons Ratio (x) = 0.76557 -0.01977
# Poissons Ratio (y) = 0.80618 0.08153
# Poissons Ratio (z) = -0.02928 0.11469
#
# Static dielectric constant tensor:
#      x y z
#    x 1.694730 0.000000 0.000000 
#    y 0.000000 1.700290 0.000000 
#    z 0.000000 0.000000 1.730430 
# 
# From -- ./inp_files/4899.got.cif
#   From: 2010.05.17/outbox.cif.g08.bks.cpg/sg63_3_cif.got.tgz:4899.got - 2010.06.03 15:47:04.
