data_PCOD9469892
_publ_section_title
;
Structure prediction by ZEFSAII (Michael W. Deem and Ramdas Pophale) SiO2 
 PCOD9469892
Probable space group: C M C M
;
_chemical_formula_sum "Si O2"
_cell_formula_units_Z 96
_cell_length_a 11.983811
_cell_length_b 18.834434
_cell_length_c 26.081167
_cell_angle_alpha 90.000000
_cell_angle_beta 90.000000
_cell_angle_gamma 90.000000
_cell_volume 5886.735796
_symmetry_space_group_name_H-M "C M C M"
_symmetry_group_IT_number 63
_symmetry_cell_setting 'orthorhombic'
loop_
_space_group_symop_operation_xyz
x,y,z
-x,-y,1/2+z
x,-y,-z
-x,y,1/2-z
-x,-y,-z
x,y,1/2-z
-x,y,z
x,-y,1/2+z
1/2+x,1/2+y,z
1/2-x,1/2-y,1/2+z
1/2+x,1/2-y,-z
1/2-x,1/2+y,1/2-z
1/2-x,1/2-y,-z
1/2+x,1/2+y,1/2-z
1/2-x,1/2+y,z
1/2+x,1/2-y,1/2+z
loop_
_atom_site_type_symbol
_atom_site_label
_atom_site_fract_x
_atom_site_fract_y
_atom_site_fract_z
Si Si1 0.500000 0.458876 0.418855
Si Si2 0.266641 0.642466 0.070128
Si Si3 0.744699 0.480886 0.395922
Si Si4 0.628639 0.120618 0.528920
Si Si5 0.133896 0.396916 0.191315
Si Si6 0.629741 0.766439 0.121208
Si Si7 0.000000 0.111150 0.476877
O O1 0.616225 0.457311 0.389495
O O2 0.500000 0.533904 0.449546
O O3 0.500000 0.399348 0.462564
O O4 0.252798 0.564983 0.095124
O O5 0.281929 0.703954 0.111939
O O6 0.386307 0.646513 0.041221
O O7 0.174923 0.647143 0.025475
O O8 0.795271 0.441844 0.446557
O O9 0.813418 0.453570 0.347436
O O10 0.500000 0.097001 0.524849
O O11 0.632861 0.183523 0.570738
O O12 0.170259 0.404233 0.250000
O O13 0.158136 0.319036 0.167915
O O14 0.000000 0.404527 0.189105
O O15 0.500000 0.741966 0.127761
#
# Coordination Sequence:
#
# PCOD9469892 Si02
#       7
#     8  16  16  16  16  16   8
#     4   9  16  28  43  72 102 138 164 181 235 299
#     4  11  18  29  48  74 106 133 163 202 245 288
#     4  10  19  30  50  76 101 129 167 208 245 289
#     4  10  20  31  45  71 107 142 170 197 233 288
#     4   9  19  38  59  74  92 125 167 208 254 303
#     4   9  18  32  50  72  98 130 167 205 241 286
#     4   9  16  26  44  68 104 142 162 182 231 292
#
# _framework density 16.307849000000001
#
# number of rings (size 3 to 8) (size 9 to 14) (size 15 to 20)
#    0.000    2.333    2.500    2.500    0.000    2.000 
#    0.000    1.250    0.000    0.000    0.000    0.000 
#    0.000    0.000    0.000    0.000    0.000    0.000 
#
# Total GULP energy -267494.989149 kJ/mol
# GULP energy per Si atom -5572.812274 kJ/mol
# Density = 1.627073 g / cm^3
# Si number density = 16.307849 Si / 1000 Ang^3
#
#
#
# Elastic Constant Matrix: (Units=GPa)
#
#
# Indices 1 2 3 4 5 6 
#
# 1 67.7942 18.4518 17.9010 0.0000 0.0000 0.0000
# 2 18.4518 55.4990 16.5575 0.0000 0.0000 0.0000
# 3 17.9010 16.5575 75.8771 0.0000 0.0000 0.0000
# 4 0.0000 0.0000 0.0000 11.0810 0.0000 0.0000
# 5 0.0000 0.0000 0.0000 0.0000 20.8084 0.0000
# 6 0.0000 0.0000 0.0000 0.0000 0.0000 17.3277
#
#
#
# Elastic Compliance Matrix: (Units=1/GPa)
#
#
# Indices 1 2 3 4 5 6 
#
# 1 0.016809 -0.004712 -0.002937 0.000000 0.000000 0.000000
# 2 -0.004712 0.020594 -0.003382 0.000000 0.000000 0.000000
# 3 -0.002937 -0.003382 0.014610 0.000000 0.000000 0.000000
# 4 0.000000 0.000000 0.000000 0.090244 0.000000 0.000000
# 5 0.000000 0.000000 0.000000 0.000000 0.048058 0.000000
# 6 0.000000 0.000000 0.000000 0.000000 0.000000 0.057711
#
#
# Mechanical properties :
#
#
# Convention : Reuss Voigt Hill
#
# Bulk Modulus (GPa) = 33.38931 33.88788 33.63860
# Shear Modulus (GPa) = 17.85254 19.59409 18.72331
#
# Velocity S-wave (km/s) = 3.31225 3.47004 3.39206
# Velocity P-wave (km/s) = 5.92847 6.07290 6.00112
#
# Compressibility (1/GPa) = 0.02994970
#
# Stress axis : x y z
#
# Youngs Moduli (GPa) = 59.49336 48.55777 68.44523
#
# Poissons Ratio (x) = 0.22881 0.20104
# Poissons Ratio (y) = 0.28034 0.23150
# Poissons Ratio (z) = 0.17475 0.16423
#
# Static dielectric constant tensor:
#      x y z
#    x 1.556870 0.000000 0.000000 
#    y 0.000000 1.574190 0.000000 
#    z 0.000000 0.000000 1.533050 
# 
# From -- ./inp_files/68355.got.cif
#   From: 2010.05.17/outbox.cif.g08.bks.cpg/sg63_35_cif.got.tgz:68355.got - 2010.06.03 15:47:04.
