data_PCOD9469194
_publ_section_title
;
Structure prediction by ZEFSAII (Michael W. Deem and Ramdas Pophale) SiO2 
 PCOD9469194
Probable space group: C M C M
;
_chemical_formula_sum "Si O2"
_cell_formula_units_Z 96
_cell_length_a 14.023099
_cell_length_b 15.159159
_cell_length_c 24.169299
_cell_angle_alpha 90.000000
_cell_angle_beta 90.000000
_cell_angle_gamma 90.000000
_cell_volume 5137.870606
_symmetry_space_group_name_H-M "C M C M"
_symmetry_group_IT_number 63
_symmetry_cell_setting 'orthorhombic'
loop_
_space_group_symop_operation_xyz
x,y,z
-x,-y,1/2+z
x,-y,-z
-x,y,1/2-z
-x,-y,-z
x,y,1/2-z
-x,y,z
x,-y,1/2+z
1/2+x,1/2+y,z
1/2-x,1/2-y,1/2+z
1/2+x,1/2-y,-z
1/2-x,1/2+y,1/2-z
1/2-x,1/2-y,-z
1/2+x,1/2+y,1/2-z
1/2-x,1/2+y,z
1/2+x,1/2-y,1/2+z
loop_
_atom_site_type_symbol
_atom_site_label
_atom_site_fract_x
_atom_site_fract_y
_atom_site_fract_z
Si Si1 0.257531 0.787134 0.596197
Si Si2 0.500000 0.211546 0.816809
Si Si3 0.297434 0.476323 0.856086
Si Si4 0.789549 0.351654 0.314606
Si Si5 0.500000 0.411906 0.815467
Si Si6 0.389745 0.240388 0.998648
Si Si7 0.103201 0.066630 0.550151
O O1 0.238390 0.878874 0.628070
O O2 0.270825 0.712008 0.643711
O O3 0.337854 0.809116 0.549574
O O4 0.171755 0.748964 0.557303
O O5 0.500000 0.216951 0.750000
O O6 0.599546 0.164521 0.830540
O O7 0.500000 0.311903 0.839644
O O8 0.237205 0.545071 0.819912
O O9 0.402487 0.459411 0.831674
O O10 0.313549 0.532490 0.911670
O O11 0.776762 0.324980 0.250000
O O12 0.500000 0.403536 0.750000
O O13 0.500000 0.215040 0.989280
O O14 0.386314 0.338533 0.023964
O O15 0.000000 0.064937 0.579482
O O16 0.098356 0.000000 0.500000
#
# Coordination Sequence:
#
# PCOD9469194 Si02
#       7
#    16   8  16  16   8  16  16
#     4  11  23  38  64  92 121 164 210 256 314 376
#     4   9  20  40  62  82 114 162 216 260 302 356
#     4  12  22  36  60  92 124 160 202 258 316 369
#     4  11  24  41  62  90 124 163 208 261 314 373
#     4  11  22  36  61  94 121 157 216 270 311 358
#     4  10  22  39  60  89 125 162 203 258 317 375
#     4  10  18  31  55  85 117 149 186 236 306 368
#
# _framework density 18.684784000000001
#
# number of rings (size 3 to 8) (size 9 to 14) (size 15 to 20)
#    0.000    1.333    5.833    0.500    2.333    0.667 
#    1.500    0.000    0.000    1.000    0.000    0.000 
#    0.000    0.000    0.000    0.000    0.000    0.000 
#
# Total GULP energy -267282.132925 kJ/mol
# GULP energy per Si atom -5568.377769 kJ/mol
# Density = 1.864226 g / cm^3
# Si number density = 18.684784 Si / 1000 Ang^3
#
#
#
# Elastic Constant Matrix: (Units=GPa)
#
#
# Indices 1 2 3 4 5 6 
#
# 1 70.0486 21.8975 18.7655 0.0000 0.0000 0.0000
# 2 21.8975 83.7174 28.7627 0.0000 0.0000 0.0000
# 3 18.7655 28.7627 81.2295 0.0000 0.0000 0.0000
# 4 0.0000 0.0000 0.0000 27.2381 0.0000 0.0000
# 5 0.0000 0.0000 0.0000 0.0000 23.3132 0.0000
# 6 0.0000 0.0000 0.0000 0.0000 0.0000 30.0098
#
#
#
# Elastic Compliance Matrix: (Units=1/GPa)
#
#
# Indices 1 2 3 4 5 6 
#
# 1 0.015987 -0.003316 -0.002519 0.000000 0.000000 0.000000
# 2 -0.003316 0.014287 -0.004293 0.000000 0.000000 0.000000
# 3 -0.002519 -0.004293 0.014413 0.000000 0.000000 0.000000
# 4 0.000000 0.000000 0.000000 0.036713 0.000000 0.000000
# 5 0.000000 0.000000 0.000000 0.000000 0.042894 0.000000
# 6 0.000000 0.000000 0.000000 0.000000 0.000000 0.033322
#
#
# Mechanical properties :
#
#
# Convention : Reuss Voigt Hill
#
# Bulk Modulus (GPa) = 40.93166 41.53851 41.23508
# Shear Modulus (GPa) = 26.87920 27.15020 27.01470
#
# Velocity S-wave (km/s) = 3.79695 3.81604 3.80651
# Velocity P-wave (km/s) = 6.41689 6.45722 6.43709
#
# Compressibility (1/GPa) = 0.02443097
#
# Stress axis : x y z
#
# Youngs Moduli (GPa) = 62.54955 69.99242 69.38257
#
# Poissons Ratio (x) = 0.23211 0.17478
# Poissons Ratio (y) = 0.20743 0.29785
# Poissons Ratio (z) = 0.15757 0.30047
#
# Static dielectric constant tensor:
#      x y z
#    x 1.713540 0.000000 0.000000 
#    y 0.000000 1.659880 0.000000 
#    z 0.000000 0.000000 1.668990 
# 
# From -- ./inp_files/54255.got.cif
#   From: 2010.05.17/outbox.cif.g08.bks.cpg/sg63_28_cif.got.tgz:54255.got - 2010.06.03 15:47:04.
