data_PCOD9469614
_publ_section_title
;
Structure prediction by ZEFSAII (Michael W. Deem and Ramdas Pophale) SiO2 
 PCOD9469614
Probable space group: C M C M
;
_chemical_formula_sum "Si O2"
_cell_formula_units_Z 96
_cell_length_a 27.100225
_cell_length_b 29.264167
_cell_length_c 9.204148
_cell_angle_alpha 90.000000
_cell_angle_beta 90.000000
_cell_angle_gamma 90.000000
_cell_volume 7299.492329
_symmetry_space_group_name_H-M "C M C M"
_symmetry_group_IT_number 63
_symmetry_cell_setting 'orthorhombic'
loop_
_space_group_symop_operation_xyz
x,y,z
-x,-y,1/2+z
x,-y,-z
-x,y,1/2-z
-x,-y,-z
x,y,1/2-z
-x,y,z
x,-y,1/2+z
1/2+x,1/2+y,z
1/2-x,1/2-y,1/2+z
1/2+x,1/2-y,-z
1/2-x,1/2+y,1/2-z
1/2-x,1/2-y,-z
1/2+x,1/2+y,1/2-z
1/2-x,1/2+y,z
1/2+x,1/2-y,1/2+z
loop_
_atom_site_type_symbol
_atom_site_label
_atom_site_fract_x
_atom_site_fract_y
_atom_site_fract_z
Si Si1 0.796317 0.774776 0.923655
Si Si2 0.905078 0.547059 0.578083
Si Si3 0.286779 0.046868 0.578661
Si Si4 0.854030 0.701891 0.076755
Si Si5 0.758987 0.362706 0.922057
Si Si6 0.943384 0.636990 0.077122
O O1 0.793921 0.768387 0.750000
O O2 0.786422 0.828296 0.952698
O O3 0.750000 0.750000 0.000000
O O4 0.842757 0.748359 0.990473
O O5 0.920132 0.500000 0.500000
O O6 0.914376 0.544233 0.750000
O O7 0.845955 0.552483 0.555603
O O8 0.931021 0.590768 0.508234
O O9 0.278284 0.043469 0.750000
O O10 0.260636 0.091048 0.511884
O O11 0.272125 0.000000 0.500000
O O12 0.853267 0.710888 0.250000
O O13 0.809111 0.666293 0.047323
O O14 0.904454 0.676353 0.037084
O O15 0.759440 0.372913 0.750000
O O16 0.936678 0.628282 0.250000
O O17 0.000000 0.650343 0.052396
#
# Coordination Sequence:
#
# PCOD9469614 Si02
#       6
#    16  16  16  16  16  16
#     4   9  17  27  41  61  81 102 125 154 194 236
#     4  10  20  32  45  59  74  97 130 169 211 251
#     4  10  19  28  41  59  78 103 131 161 198 238
#     4   9  17  29  43  59  79 101 126 162 201 240
#     4   9  16  27  42  59  79 101 126 159 194 232
#     4  10  20  33  47  60  76 101 132 168 211 251
#
# _framework density 13.151598999999999
#
# number of rings (size 3 to 8) (size 9 to 14) (size 15 to 20)
#    0.000    2.500    1.667    2.500    0.000    6.000 
#    0.000    0.000    0.000    0.000    0.000    0.000 
#    0.000    0.000    0.000    0.000    0.000    0.833 
#
# Total GULP energy -267468.994896 kJ/mol
# GULP energy per Si atom -5572.270727 kJ/mol
# Density = 1.312167 g / cm^3
# Si number density = 13.151599 Si / 1000 Ang^3
#
#
#
# Elastic Constant Matrix: (Units=GPa)
#
#
# Indices 1 2 3 4 5 6 
#
# 1 53.7988 52.0946 33.9744 0.0000 0.0000 0.0000
# 2 52.0946 99.0365 56.6491 0.0000 0.0000 0.0000
# 3 33.9744 56.6491 46.2585 0.0000 0.0000 0.0000
# 4 0.0000 0.0000 0.0000 27.6288 0.0000 0.0000
# 5 0.0000 0.0000 0.0000 0.0000 13.5350 0.0000
# 6 0.0000 0.0000 0.0000 0.0000 0.0000 14.9764
#
#
#
# Elastic Compliance Matrix: (Units=1/GPa)
#
#
# Indices 1 2 3 4 5 6 
#
# 1 0.039781 -0.014067 -0.011991 0.000000 0.000000 0.000000
# 2 -0.014067 0.038686 -0.037044 0.000000 0.000000 0.000000
# 3 -0.011991 -0.037044 0.075790 0.000000 0.000000 0.000000
# 4 0.000000 0.000000 0.000000 0.036194 0.000000 0.000000
# 5 0.000000 0.000000 0.000000 0.000000 0.073882 0.000000
# 6 0.000000 0.000000 0.000000 0.000000 0.000000 0.066772
#
#
# Mechanical properties :
#
#
# Convention : Reuss Voigt Hill
#
# Bulk Modulus (GPa) = 35.64695 53.83668 44.74181
# Shear Modulus (GPa) = 10.71444 14.98643 12.85043
#
# Velocity S-wave (km/s) = 2.85737 3.37933 3.12925
# Velocity P-wave (km/s) = 6.16843 7.50006 6.86660
#
# Compressibility (1/GPa) = 0.02805289
#
# Stress axis : x y z
#
# Youngs Moduli (GPa) = 25.13756 25.84912 13.19441
#
# Poissons Ratio (x) = 0.36361 0.15821
# Poissons Ratio (y) = 0.35360 0.48878
# Poissons Ratio (z) = 0.30142 0.95757
#
# Static dielectric constant tensor:
#      x y z
#    x 1.423230 0.000000 0.000000 
#    y 0.000000 1.425930 0.000000 
#    z 0.000000 0.000000 1.435120 
# 
# From -- ./inp_files/13001.got.cif
#   From: 2010.05.17/outbox.cif.g08.bks.cpg/sg63_7_cif.got.tgz:13001.got - 2010.06.03 15:47:04.
