data_PCOD9469595
_publ_section_title
;
Structure prediction by ZEFSAII (Michael W. Deem and Ramdas Pophale) SiO2 
 PCOD9469595
Probable space group: C M C M
;
_chemical_formula_sum "Si O2"
_cell_formula_units_Z 96
_cell_length_a 29.504537
_cell_length_b 27.251768
_cell_length_c 9.104198
_cell_angle_alpha 90.000000
_cell_angle_beta 90.000000
_cell_angle_gamma 90.000000
_cell_volume 7320.237660
_symmetry_space_group_name_H-M "C M C M"
_symmetry_group_IT_number 63
_symmetry_cell_setting 'orthorhombic'
loop_
_space_group_symop_operation_xyz
x,y,z
-x,-y,1/2+z
x,-y,-z
-x,y,1/2-z
-x,-y,-z
x,y,1/2-z
-x,y,z
x,-y,1/2+z
1/2+x,1/2+y,z
1/2-x,1/2-y,1/2+z
1/2+x,1/2-y,-z
1/2-x,1/2+y,1/2-z
1/2-x,1/2-y,-z
1/2+x,1/2+y,1/2-z
1/2-x,1/2+y,z
1/2+x,1/2-y,1/2+z
loop_
_atom_site_type_symbol
_atom_site_label
_atom_site_fract_x
_atom_site_fract_y
_atom_site_fract_z
Si Si1 0.800426 0.352693 0.573932
Si Si2 0.357258 0.948891 0.926432
Si Si3 0.725781 0.703219 0.574248
Si Si4 0.448982 0.103078 0.426092
Si Si5 0.638091 0.756942 0.924851
Si Si6 0.051323 0.290474 0.074984
O O1 0.793536 0.351055 0.750000
O O2 0.824247 0.403733 0.534544
O O3 0.753136 0.342252 0.492623
O O4 0.834896 0.307680 0.538960
O O5 0.356352 0.953829 0.750000
O O6 0.408290 0.932638 0.969838
O O7 0.344930 0.000000 0.000000
O O8 0.731368 0.705167 0.750000
O O9 0.750000 0.750000 0.500000
O O10 0.672743 0.712463 0.542418
O O11 0.445340 0.110910 0.250000
O O12 0.500000 0.084862 0.457699
O O13 0.443463 0.155503 0.504036
O O14 0.629867 0.757900 0.750000
O O15 0.591084 0.757305 0.009861
O O16 0.055579 0.294234 0.250000
O O17 0.000000 0.273800 0.040108
#
# Coordination Sequence:
#
# PCOD9469595 Si02
#       6
#    16  16  16  16  16  16
#     4   9  17  30  43  57  78  99 125 161 197 237
#     4  10  20  32  43  58  76  98 130 166 205 247
#     4   9  17  27  41  61  80  98 123 153 191 235
#     4   9  17  31  46  54  68  98 130 163 207 249
#     4   9  16  28  43  58  77 101 127 155 190 236
#     4  10  19  27  38  59  81 100 128 164 197 231
#
# _framework density 13.114329
#
# number of rings (size 3 to 8) (size 9 to 14) (size 15 to 20)
#    0.000    2.667    1.667    2.000    0.000    6.000 
#    0.000    0.000    0.000    0.000    0.000    0.000 
#    0.000    0.000    0.000    0.000    0.000    0.833 
#
# Total GULP energy -267308.421358 kJ/mol
# GULP energy per Si atom -5568.925445 kJ/mol
# Density = 1.308448 g / cm^3
# Si number density = 13.114329 Si / 1000 Ang^3
#
#
#
# Elastic Constant Matrix: (Units=GPa)
#
#
# Indices 1 2 3 4 5 6 
#
# 1 93.9506 51.9674 37.8651 0.0000 0.0000 0.0000
# 2 51.9674 54.4875 23.3912 0.0000 0.0000 0.0000
# 3 37.8651 23.3912 22.9598 0.0000 0.0000 0.0000
# 4 0.0000 0.0000 0.0000 17.7990 0.0000 0.0000
# 5 0.0000 0.0000 0.0000 0.0000 21.9931 0.0000
# 6 0.0000 0.0000 0.0000 0.0000 0.0000 17.2734
#
#
#
# Elastic Compliance Matrix: (Units=1/GPa)
#
#
# Indices 1 2 3 4 5 6 
#
# 1 0.038979 -0.017026 -0.046938 0.000000 0.000000 0.000000
# 2 -0.017026 0.040056 -0.012729 0.000000 0.000000 0.000000
# 3 -0.046938 -0.012729 0.133932 0.000000 0.000000 0.000000
# 4 0.000000 0.000000 0.000000 0.056183 0.000000 0.000000
# 5 0.000000 0.000000 0.000000 0.000000 0.045469 0.000000
# 6 0.000000 0.000000 0.000000 0.000000 0.000000 0.057892
#
#
# Mechanical properties :
#
#
# Convention : Reuss Voigt Hill
#
# Bulk Modulus (GPa) = 16.78397 44.20502 30.49449
# Shear Modulus (GPa) = 9.16157 15.29139 12.22648
#
# Velocity S-wave (km/s) = 2.64596 3.41839 3.05667
# Velocity P-wave (km/s) = 4.70752 7.02574 5.98004
#
# Compressibility (1/GPa) = 0.05958067
#
# Stress axis : x y z
#
# Youngs Moduli (GPa) = 25.65478 24.96501 7.46648
#
# Poissons Ratio (x) = 0.42506 0.35046
# Poissons Ratio (y) = 0.43680 0.09504
# Poissons Ratio (z) = 1.20418 0.31779
#
# Static dielectric constant tensor:
#      x y z
#    x 1.457040 0.000000 0.000000 
#    y 0.000000 1.405760 0.000000 
#    z 0.000000 0.000000 1.436140 
# 
# From -- ./inp_files/12969.got.cif
#   From: 2010.05.17/outbox.cif.g08.bks.cpg/sg63_7_cif.got.tgz:12969.got - 2010.06.03 15:47:04.
