data_PCOD9469089
_publ_section_title
;
Structure prediction by ZEFSAII (Michael W. Deem and Ramdas Pophale) SiO2 
 PCOD9469089
Probable space group: C M C M
;
_chemical_formula_sum "Si O2"
_cell_formula_units_Z 104
_cell_length_a 22.243718
_cell_length_b 7.847521
_cell_length_c 33.135022
_cell_angle_alpha 90.000000
_cell_angle_beta 90.000000
_cell_angle_gamma 90.000000
_cell_volume 5783.984632
_symmetry_space_group_name_H-M "C M C M"
_symmetry_group_IT_number 63
_symmetry_cell_setting 'orthorhombic'
loop_
_space_group_symop_operation_xyz
x,y,z
-x,-y,1/2+z
x,-y,-z
-x,y,1/2-z
-x,-y,-z
x,y,1/2-z
-x,y,z
x,-y,1/2+z
1/2+x,1/2+y,z
1/2-x,1/2-y,1/2+z
1/2+x,1/2-y,-z
1/2-x,1/2+y,1/2-z
1/2-x,1/2-y,-z
1/2+x,1/2+y,1/2-z
1/2-x,1/2+y,z
1/2+x,1/2-y,1/2+z
loop_
_atom_site_type_symbol
_atom_site_label
_atom_site_fract_x
_atom_site_fract_y
_atom_site_fract_z
Si Si1 0.656414 0.810007 0.523584
Si Si2 0.073385 0.584282 0.641157
Si Si3 0.073321 0.125259 0.204525
Si Si4 0.430934 0.711965 0.833594
Si Si5 0.928632 0.282422 0.447372
Si Si6 0.241680 0.000000 0.000000
Si Si7 0.567033 0.612139 0.925111
O O1 0.612189 0.835865 0.485043
O O2 0.698483 0.651036 0.511719
O O3 0.613905 0.748350 0.558955
O O4 0.708481 0.947260 0.533426
O O5 0.092167 0.736661 0.671087
O O6 0.094578 0.400356 0.657820
O O7 0.089112 0.627458 0.594758
O O8 0.000000 0.579130 0.640950
O O9 0.089169 0.177015 0.250000
O O10 0.000000 0.118682 0.202131
O O11 0.095669 0.932982 0.195332
O O12 0.500000 0.741386 0.820023
O O13 0.433040 0.618147 0.876980
O O14 0.000000 0.313546 0.454497
O O15 0.921158 0.078343 0.440934
O O16 0.500000 0.660844 0.939157
#
# Coordination Sequence:
#
# PCOD9469089 Si02
#       7
#    16  16  16  16  16   8  16
#     4  11  21  37  48  69  90 133 168 204 244 293
#     4   9  17  28  42  65  94 122 156 199 244 283
#     4   9  16  27  42  60  89 129 164 190 224 284
#     4   9  17  28  42  65  94 122 156 199 244 283
#     4  10  18  31  51  71  94 124 163 210 250 285
#     4  10  24  36  48  60  96 128 172 202 244 288
#     4  10  18  31  51  71  94 124 163 210 250 285
#
# _framework density 17.980684
#
# number of rings (size 3 to 8) (size 9 to 14) (size 15 to 20)
#    0.000    2.308    3.077    0.462    2.154    1.846 
#    0.000    3.846    0.000    0.000    0.000    0.000 
#    0.000    0.000    0.000   22.154    0.000    9.846 
#
# Total GULP energy -289495.723299 kJ/mol
# GULP energy per Si atom -5567.225448 kJ/mol
# Density = 1.793976 g / cm^3
# Si number density = 17.980684 Si / 1000 Ang^3
#
#
#
# Elastic Constant Matrix: (Units=GPa)
#
#
# Indices 1 2 3 4 5 6 
#
# 1 46.8962 26.9182 18.6809 0.0000 0.0000 0.0000
# 2 26.9182 87.9646 30.1422 0.0000 0.0000 0.0000
# 3 18.6809 30.1422 57.1887 0.0000 0.0000 0.0000
# 4 0.0000 0.0000 0.0000 18.0232 0.0000 0.0000
# 5 0.0000 0.0000 0.0000 0.0000 -5.1958 0.0000
# 6 0.0000 0.0000 0.0000 0.0000 0.0000 4.7614
#
#
#
# Elastic Compliance Matrix: (Units=1/GPa)
#
#
# Indices 1 2 3 4 5 6 
#
# 1 0.027211 -0.006445 -0.005491 0.000000 0.000000 0.000000
# 2 -0.006445 0.015400 -0.006012 0.000000 0.000000 0.000000
# 3 -0.005491 -0.006012 0.022448 0.000000 0.000000 0.000000
# 4 0.000000 0.000000 0.000000 0.055484 0.000000 0.000000
# 5 0.000000 0.000000 0.000000 0.000000 -0.192463 0.000000
# 6 0.000000 0.000000 0.000000 0.000000 0.000000 0.210021
#
#
# Mechanical properties :
#
#
# Convention : Reuss Voigt Hill
#
# Bulk Modulus (GPa) = 34.29016 38.17023 36.23020
# Shear Modulus (GPa) = 27.21545 11.27165 19.24355
#
# Velocity S-wave (km/s) = 3.89471 2.50646 3.27499
# Velocity P-wave (km/s) = 6.27192 5.44528 5.87316
#
# Compressibility (1/GPa) = 0.02916288
#
# Stress axis : x y z
#
# Youngs Moduli (GPa) = 36.75036 64.93302 44.54667
#
# Poissons Ratio (x) = 0.41850 0.24463
# Poissons Ratio (y) = 0.23686 0.26780
# Poissons Ratio (z) = 0.20181 0.39036
#
# Static dielectric constant tensor:
#      x y z
#    x 1.593820 0.000000 0.000000 
#    y 0.000000 1.738480 0.000000 
#    z 0.000000 0.000000 1.627300 
# 
# From -- ./inp_files/74097.got.cif
#   From: 2010.05.17/outbox.cif.g08.bks.cpg/sg63_38_cif.got.tgz:74097.got - 2010.06.03 15:47:04.
