data_PCOD9469134
_publ_section_title
;
Structure prediction by ZEFSAII (Michael W. Deem and Ramdas Pophale) SiO2 
 PCOD9469134
Probable space group: C M C M
;
_chemical_formula_sum "Si O2"
_cell_formula_units_Z 96
_cell_length_a 11.630740
_cell_length_b 32.999124
_cell_length_c 14.270121
_cell_angle_alpha 90.000000
_cell_angle_beta 90.000000
_cell_angle_gamma 90.000000
_cell_volume 5476.932823
_symmetry_space_group_name_H-M "C M C M"
_symmetry_group_IT_number 63
_symmetry_cell_setting 'orthorhombic'
loop_
_space_group_symop_operation_xyz
x,y,z
-x,-y,1/2+z
x,-y,-z
-x,y,1/2-z
-x,-y,-z
x,y,1/2-z
-x,y,z
x,-y,1/2+z
1/2+x,1/2+y,z
1/2-x,1/2-y,1/2+z
1/2+x,1/2-y,-z
1/2-x,1/2+y,1/2-z
1/2-x,1/2-y,-z
1/2+x,1/2+y,1/2-z
1/2-x,1/2+y,z
1/2+x,1/2-y,1/2+z
loop_
_atom_site_type_symbol
_atom_site_label
_atom_site_fract_x
_atom_site_fract_y
_atom_site_fract_z
Si Si1 0.135599 0.770379 0.361871
Si Si2 0.000000 0.368763 0.863815
Si Si3 0.861271 0.060893 0.973216
Si Si4 0.254632 0.512649 0.137887
Si Si5 0.225472 0.682287 0.138201
Si Si6 0.500000 0.961499 0.636916
Si Si7 0.363552 0.652325 0.975629
O O1 0.141288 0.775344 0.250000
O O2 0.201989 0.729206 0.385942
O O3 0.180351 0.810920 0.411275
O O4 0.000000 0.764544 0.385689
O O5 0.886482 0.343914 0.890150
O O6 0.000000 0.369918 0.750000
O O7 0.000000 0.415004 0.898396
O O8 0.819877 0.046658 0.076355
O O9 0.823056 0.106894 0.954493
O O10 0.000000 0.057995 0.968584
O O11 0.805891 0.029498 0.900015
O O12 0.268523 0.517232 0.250000
O O13 0.119429 0.516770 0.112930
O O14 0.239056 0.679269 0.250000
O O15 0.330390 0.664249 0.080807
O O16 0.500000 0.958985 0.750000
O O17 0.500000 0.651380 0.963305
#
# Coordination Sequence:
#
# PCOD9469134 Si02
#       7
#    16   8  16  16  16   8  16
#     4   9  17  32  53  75  98 131 173 213 252 293
#     4   9  16  28  49  77 104 126 163 210 248 296
#     4  10  22  36  50  76 105 134 178 217 250 306
#     4  10  20  36  56  75 101 136 171 213 265 310
#     4  10  18  31  52  76 102 133 166 204 254 307
#     4   9  18  31  51  79 102 127 165 210 258 312
#     4  10  21  34  49  74 107 134 166 212 254 301
#
# _framework density 17.528058999999999
#
# number of rings (size 3 to 8) (size 9 to 14) (size 15 to 20)
#    0.000    2.333    0.833    2.500    0.000    5.667 
#    0.000    4.167    0.000    0.000    0.000    0.000 
#    0.000    0.000    0.000    0.000    0.000    0.000 
#
# Total GULP energy -267552.652021 kJ/mol
# GULP energy per Si atom -5574.013584 kJ/mol
# Density = 1.748816 g / cm^3
# Si number density = 17.528059 Si / 1000 Ang^3
#
#
#
# Elastic Constant Matrix: (Units=GPa)
#
#
# Indices 1 2 3 4 5 6 
#
# 1 37.3051 31.3636 6.9792 0.0000 0.0000 0.0000
# 2 31.3636 114.5008 20.5939 0.0000 0.0000 0.0000
# 3 6.9792 20.5939 37.0633 0.0000 0.0000 0.0000
# 4 0.0000 0.0000 0.0000 15.2593 0.0000 0.0000
# 5 0.0000 0.0000 0.0000 0.0000 25.1691 0.0000
# 6 0.0000 0.0000 0.0000 0.0000 0.0000 7.0912
#
#
#
# Elastic Compliance Matrix: (Units=1/GPa)
#
#
# Indices 1 2 3 4 5 6 
#
# 1 0.034891 -0.009306 -0.001400 0.000000 0.000000 0.000000
# 2 -0.009306 0.012185 -0.005018 0.000000 0.000000 0.000000
# 3 -0.001400 -0.005018 0.030033 0.000000 0.000000 0.000000
# 4 0.000000 0.000000 0.000000 0.065534 0.000000 0.000000
# 5 0.000000 0.000000 0.000000 0.000000 0.039731 0.000000
# 6 0.000000 0.000000 0.000000 0.000000 0.000000 0.141019
#
#
# Mechanical properties :
#
#
# Convention : Reuss Voigt Hill
#
# Bulk Modulus (GPa) = 21.89992 34.08249 27.99121
# Shear Modulus (GPa) = 13.51127 18.16608 15.83868
#
# Velocity S-wave (km/s) = 2.77941 3.22281 3.00929
# Velocity P-wave (km/s) = 4.77718 5.77368 5.29891
#
# Compressibility (1/GPa) = 0.04566227
#
# Stress axis : x y z
#
# Youngs Moduli (GPa) = 28.66043 82.06762 33.29694
#
# Poissons Ratio (x) = 0.76368 0.04660
# Poissons Ratio (y) = 0.26670 0.16709
# Poissons Ratio (z) = 0.04012 0.41184
#
# Static dielectric constant tensor:
#      x y z
#    x 1.598400 0.000000 0.000000 
#    y 0.000000 1.614340 0.000000 
#    z 0.000000 0.000000 1.589110 
# 
# From -- ./inp_files/30359.got.cif
#   From: 2010.05.17/outbox.cif.g08.bks.cpg/sg63_16_cif.got.tgz:30359.got - 2010.06.03 15:47:04.
