data_PCOD9469041
_publ_section_title
;
Structure prediction by ZEFSAII (Michael W. Deem and Ramdas Pophale) SiO2 
 PCOD9469041
Probable space group: C M C M
;
_chemical_formula_sum "Si O2"
_cell_formula_units_Z 80
_cell_length_a 25.415335
_cell_length_b 9.720851
_cell_length_c 13.585883
_cell_angle_alpha 90.000000
_cell_angle_beta 90.000000
_cell_angle_gamma 90.000000
_cell_volume 3356.510384
_symmetry_space_group_name_H-M "C M C M"
_symmetry_group_IT_number 63
_symmetry_cell_setting 'orthorhombic'
loop_
_space_group_symop_operation_xyz
x,y,z
-x,-y,1/2+z
x,-y,-z
-x,y,1/2-z
-x,-y,-z
x,y,1/2-z
-x,y,z
x,-y,1/2+z
1/2+x,1/2+y,z
1/2-x,1/2-y,1/2+z
1/2+x,1/2-y,-z
1/2-x,1/2+y,1/2-z
1/2-x,1/2-y,-z
1/2+x,1/2+y,1/2-z
1/2-x,1/2+y,z
1/2+x,1/2-y,1/2+z
loop_
_atom_site_type_symbol
_atom_site_label
_atom_site_fract_x
_atom_site_fract_y
_atom_site_fract_z
Si Si1 0.282724 0.992254 0.638753
Si Si2 0.171575 0.291961 0.480552
Si Si3 0.330235 0.552285 0.635862
Si Si4 0.443672 0.400675 0.363995
Si Si5 0.557386 0.837875 0.474278
O O1 0.299755 0.982488 0.750000
O O2 0.287567 0.148541 0.598743
O O3 0.220795 0.955588 0.632087
O O4 0.319014 0.899498 0.570612
O O5 0.175544 0.153416 0.542993
O O6 0.114546 0.307245 0.429503
O O7 0.326851 0.609443 0.750000
O O8 0.391245 0.508018 0.624747
O O9 0.444142 0.358368 0.250000
O O10 0.500000 0.470108 0.385272
O O11 0.440885 0.264563 0.431056
O O12 0.500000 0.812394 0.425711
O O13 0.557975 0.000000 0.500000
#
# Coordination Sequence:
#
# PCOD9469041 Si02
#       5
#    16  16  16  16  16
#     4  10  19  29  42  62  84 110 145 173 201 248
#     4  10  18  31  44  60  85 117 139 170 216 243
#     4   9  17  28  44  64  86 110 137 172 207 246
#     4   8  14  24  39  58  79 104 133 167 209 248
#     4   9  15  25  38  55  79 107 139 167 199 244
#
# _framework density 23.834277
#
# number of rings (size 3 to 8) (size 9 to 14) (size 15 to 20)
#    0.000    2.800    2.000    1.200    0.000    0.800 
#    0.000    0.000    0.000    0.600    0.000    2.800 
#    0.000    3.200    0.000   14.400    0.000    0.400 
#
# Total GULP energy -222678.639493 kJ/mol
# GULP energy per Si atom -5566.965987 kJ/mol
# Density = 2.378003 g / cm^3
# Si number density = 23.834277 Si / 1000 Ang^3
#
#
#
# Elastic Constant Matrix: (Units=GPa)
#
#
# Indices 1 2 3 4 5 6 
#
# 1 166.5142 3.8697 -2.4562 0.0000 0.0000 0.0000
# 2 3.8697 82.9230 13.3186 0.0000 0.0000 0.0000
# 3 -2.4562 13.3186 96.0507 0.0000 0.0000 0.0000
# 4 0.0000 0.0000 0.0000 15.0700 0.0000 0.0000
# 5 0.0000 0.0000 0.0000 0.0000 19.8790 0.0000
# 6 0.0000 0.0000 0.0000 0.0000 0.0000 0.3869
#
#
#
# Elastic Compliance Matrix: (Units=1/GPa)
#
#
# Indices 1 2 3 4 5 6 
#
# 1 0.006016 -0.000312 0.000197 0.000000 0.000000 0.000000
# 2 -0.000312 0.012350 -0.001721 0.000000 0.000000 0.000000
# 3 0.000197 -0.001721 0.010655 0.000000 0.000000 0.000000
# 4 0.000000 0.000000 0.000000 0.066357 0.000000 0.000000
# 5 0.000000 0.000000 0.000000 0.000000 0.050304 0.000000
# 6 0.000000 0.000000 0.000000 0.000000 0.000000 2.584744
#
#
# Mechanical properties :
#
#
# Convention : Reuss Voigt Hill
#
# Bulk Modulus (GPa) = 39.44893 41.66135 40.55514
# Shear Modulus (GPa) = 1.82312 29.11756 15.47034
#
# Velocity S-wave (km/s) = 0.87554 3.49903 2.55047
# Velocity P-wave (km/s) = 4.19635 5.81737 5.07204
#
# Compressibility (1/GPa) = 0.02534923
#
# Stress axis : x y z
#
# Youngs Moduli (GPa) = 166.23277 80.96977 93.85463
#
# Poissons Ratio (x) = 0.02529 -0.01850
# Poissons Ratio (y) = 0.05193 0.16148
# Poissons Ratio (z) = -0.03277 0.13931
#
# Static dielectric constant tensor:
#      x y z
#    x 2.024460 0.000000 0.000000 
#    y 0.000000 2.038800 0.000000 
#    z 0.000000 0.000000 1.966320 
# 
# From -- ./inp_files/36665.got.cif
#   From: 2010.05.17/outbox.cif.g08.bks.cpg/sg63_19_cif.got.tgz:36665.got - 2010.06.03 15:47:04.
