data_PCOD9469457
_publ_section_title
;
Structure prediction by ZEFSAII (Michael W. Deem and Ramdas Pophale) SiO2 
 PCOD9469457
Probable space group: C M C M
;
_chemical_formula_sum "Si O2"
_cell_formula_units_Z 116
_cell_length_a 7.592468
_cell_length_b 25.721711
_cell_length_c 29.660846
_cell_angle_alpha 90.000000
_cell_angle_beta 90.000000
_cell_angle_gamma 90.000000
_cell_volume 5792.504216
_symmetry_space_group_name_H-M "C M C M"
_symmetry_group_IT_number 63
_symmetry_cell_setting 'orthorhombic'
loop_
_space_group_symop_operation_xyz
x,y,z
-x,-y,1/2+z
x,-y,-z
-x,y,1/2-z
-x,-y,-z
x,y,1/2-z
-x,y,z
x,-y,1/2+z
1/2+x,1/2+y,z
1/2-x,1/2-y,1/2+z
1/2+x,1/2-y,-z
1/2-x,1/2+y,1/2-z
1/2-x,1/2-y,-z
1/2+x,1/2+y,1/2-z
1/2-x,1/2+y,z
1/2+x,1/2-y,1/2+z
loop_
_atom_site_type_symbol
_atom_site_label
_atom_site_fract_x
_atom_site_fract_y
_atom_site_fract_z
Si Si1 0.806353 0.477048 0.322989
Si Si2 0.715046 0.698151 0.163229
Si Si3 0.500000 0.455500 0.250000
Si Si4 0.791600 0.111561 0.882761
Si Si5 0.712859 0.189716 0.800479
Si Si6 0.214025 0.788885 0.560586
Si Si7 0.707212 0.671643 0.531440
Si Si8 0.213361 0.913342 0.698319
O O1 0.653778 0.459175 0.289215
O O2 0.788491 0.442708 0.367574
O O3 0.783222 0.538662 0.330375
O O4 0.000000 0.467164 0.303883
O O5 0.500000 0.698683 0.164695
O O6 0.771111 0.751444 0.187482
O O7 0.769755 0.697945 0.111049
O O8 0.772157 0.644372 0.185727
O O9 0.765032 0.151762 0.841075
O O10 0.718108 0.135391 0.929210
O O11 0.000000 0.105075 0.887969
O O12 0.775545 0.174581 0.750000
O O13 0.500000 0.189655 0.799379
O O14 0.273773 0.730557 0.549421
O O15 0.277296 0.825663 0.519724
O O16 0.000000 0.788833 0.559937
O O17 0.500000 0.659669 0.527852
O O18 0.261862 0.924838 0.750000
O O19 0.000000 0.914521 0.696015
#
# Coordination Sequence:
#
# PCOD9469457 Si02
#       8
#    16  16   4  16  16  16  16  16
#     4  12  24  39  61  86 112 150 196 239 284 334
#     4   9  17  30  53  79 109 143 183 231 284 342
#     4  12  22  44  60  86 116 146 194 248 280 328
#     4  11  22  36  51  75 112 152 190 236 289 340
#     4  10  20  32  47  75 108 145 185 223 277 346
#     4   9  16  30  52  80 105 139 190 233 281 346
#     4   9  18  31  51  75 108 145 183 237 288 336
#     4  10  18  34  55  78 109 148 189 235 284 333
#
# _framework density 20.025881999999999
#
# number of rings (size 3 to 8) (size 9 to 14) (size 15 to 20)
#    0.000    1.931    3.448    1.034    0.966    2.483 
#    0.000    1.379    0.000    2.483    0.000    5.793 
#    0.000    0.000    0.000    0.000    0.000    0.000 
#
# Total GULP energy -323254.303370 kJ/mol
# GULP energy per Si atom -5573.350058 kJ/mol
# Density = 1.998030 g / cm^3
# Si number density = 20.025882 Si / 1000 Ang^3
#
#
#
# Elastic Constant Matrix: (Units=GPa)
#
#
# Indices 1 2 3 4 5 6 
#
# 1 80.7533 -11.6718 -2.8562 0.0000 0.0000 0.0000
# 2 -11.6718 73.1185 -2.2289 0.0000 0.0000 0.0000
# 3 -2.8562 -2.2289 46.1620 0.0000 0.0000 0.0000
# 4 0.0000 0.0000 0.0000 19.7886 0.0000 0.0000
# 5 0.0000 0.0000 0.0000 0.0000 5.0320 0.0000
# 6 0.0000 0.0000 0.0000 0.0000 0.0000 11.8265
#
#
#
# Elastic Compliance Matrix: (Units=1/GPa)
#
#
# Indices 1 2 3 4 5 6 
#
# 1 0.012712 0.002056 0.000886 0.000000 0.000000 0.000000
# 2 0.002056 0.014029 0.000805 0.000000 0.000000 0.000000
# 3 0.000886 0.000805 0.021756 0.000000 0.000000 0.000000
# 4 0.000000 0.000000 0.000000 0.050534 0.000000 0.000000
# 5 0.000000 0.000000 0.000000 0.000000 0.198727 0.000000
# 6 0.000000 0.000000 0.000000 0.000000 0.000000 0.084556
#
#
# Mechanical properties :
#
#
# Convention : Reuss Voigt Hill
#
# Bulk Modulus (GPa) = 17.86008 18.50224 18.18116
# Shear Modulus (GPa) = 12.70698 21.78215 17.24457
#
# Velocity S-wave (km/s) = 2.52172 3.30161 2.93766
# Velocity P-wave (km/s) = 4.17332 4.87784 4.53927
#
# Compressibility (1/GPa) = 0.05599078
#
# Stress axis : x y z
#
# Youngs Moduli (GPa) = 78.66631 71.28001 45.96332
#
# Poissons Ratio (x) = -0.14656 -0.04071
# Poissons Ratio (y) = -0.16175 -0.03698
# Poissons Ratio (z) = -0.06968 -0.05735
#
# Static dielectric constant tensor:
#      x y z
#    x 1.753560 0.000000 0.000000 
#    y 0.000000 1.709400 0.000000 
#    z 0.000000 0.000000 1.721060 
# 
# From -- ./inp_files/72125.got.cif
#   From: 2010.05.17/outbox.cif.g08.bks.cpg/sg63_37_cif.got.tgz:72125.got - 2010.06.03 15:47:04.
