data_PCOD9469923
_publ_section_title
;
Structure prediction by ZEFSAII (Michael W. Deem and Ramdas Pophale) SiO2 
 PCOD9469923
Probable space group: C M C M
;
_chemical_formula_sum "Si O2"
_cell_formula_units_Z 104
_cell_length_a 29.571404
_cell_length_b 28.259444
_cell_length_c 9.257840
_cell_angle_alpha 90.000000
_cell_angle_beta 90.000000
_cell_angle_gamma 90.000000
_cell_volume 7736.512441
_symmetry_space_group_name_H-M "C M C M"
_symmetry_group_IT_number 63
_symmetry_cell_setting 'orthorhombic'
loop_
_space_group_symop_operation_xyz
x,y,z
-x,-y,1/2+z
x,-y,-z
-x,y,1/2-z
-x,-y,-z
x,y,1/2-z
-x,y,z
x,-y,1/2+z
1/2+x,1/2+y,z
1/2-x,1/2-y,1/2+z
1/2+x,1/2-y,-z
1/2-x,1/2+y,1/2-z
1/2-x,1/2-y,-z
1/2+x,1/2+y,1/2-z
1/2-x,1/2+y,z
1/2+x,1/2-y,1/2+z
loop_
_atom_site_type_symbol
_atom_site_label
_atom_site_fract_x
_atom_site_fract_y
_atom_site_fract_z
Si Si1 0.074313 0.406162 0.591060
Si Si2 0.447462 0.204608 0.084034
Si Si3 0.825310 0.550855 0.079633
Si Si4 0.787797 0.642475 0.924974
Si Si5 0.640731 0.773149 0.420921
Si Si6 0.721900 0.708278 0.423410
Si Si7 0.500000 0.952243 0.085414
O O1 0.056367 0.420794 0.750000
O O2 0.069532 0.349819 0.586295
O O3 0.123616 0.428466 0.577958
O O4 0.043868 0.424165 0.462520
O O5 0.447370 0.221181 0.250000
O O6 0.500000 0.206585 0.032816
O O7 0.407872 0.229540 0.995249
O O8 0.812322 0.547100 0.250000
O O9 0.823140 0.500000 0.000000
O O10 0.798247 0.591414 0.992963
O O11 0.784966 0.641418 0.750000
O O12 0.828062 0.680788 0.963536
O O13 0.741960 0.662471 0.997791
O O14 0.634297 0.778315 0.250000
O O15 0.670709 0.726071 0.446467
O O16 0.729935 0.706739 0.250000
O O17 0.750000 0.750000 0.500000
O O18 0.500000 0.962438 0.250000
O O19 0.500000 0.000000 0.000000
#
# Coordination Sequence:
#
# PCOD9469923 Si02
#       7
#    16  16  16  16  16  16   8
#     4  10  20  35  48  59  77 102 136 178 221 264
#     4  10  19  31  46  62  82 109 141 176 217 263
#     4  11  22  34  48  63  82 111 142 179 222 265
#     4  10  19  31  47  67  88 109 138 176 215 263
#     4   9  18  30  45  65  87 108 136 174 213 257
#     4   9  17  29  45  67  89 110 135 168 213 260
#     4  12  24  34  46  58  70  94 128 176 226 268
#
# _framework density 13.44275
#
# number of rings (size 3 to 8) (size 9 to 14) (size 15 to 20)
#    0.000    2.000    2.308    3.462    0.000    6.462 
#    0.000    0.000    0.000    0.000    0.000    0.000 
#    0.000    0.000    0.000    0.000    0.000    0.769 
#
# Total GULP energy -289489.902407 kJ/mol
# GULP energy per Si atom -5567.113508 kJ/mol
# Density = 1.341215 g / cm^3
# Si number density = 13.442750 Si / 1000 Ang^3
#
#
#
# Elastic Constant Matrix: (Units=GPa)
#
#
# Indices 1 2 3 4 5 6 
#
# 1 83.0404 48.6900 49.5065 0.0000 0.0000 0.0000
# 2 48.6900 57.6081 38.5242 0.0000 0.0000 0.0000
# 3 49.5065 38.5242 87.2108 0.0000 0.0000 0.0000
# 4 0.0000 0.0000 0.0000 20.8593 0.0000 0.0000
# 5 0.0000 0.0000 0.0000 0.0000 -391.3111 0.0000
# 6 0.0000 0.0000 0.0000 0.0000 0.0000 21.3311
#
#
#
# Elastic Compliance Matrix: (Units=1/GPa)
#
#
# Indices 1 2 3 4 5 6 
#
# 1 0.026871 -0.017756 -0.007410 0.000000 0.000000 0.000000
# 2 -0.017756 0.036369 -0.005986 0.000000 0.000000 0.000000
# 3 -0.007410 -0.005986 0.018317 0.000000 0.000000 0.000000
# 4 0.000000 0.000000 0.000000 0.047940 0.000000 0.000000
# 5 0.000000 0.000000 0.000000 0.000000 -0.002556 0.000000
# 6 0.000000 0.000000 0.000000 0.000000 0.000000 0.046880
#
#
# Mechanical properties :
#
#
# Convention : Reuss Voigt Hill
#
# Bulk Modulus (GPa) = 51.94065 55.70008 53.82036
# Shear Modulus (GPa) = 20.61477 -63.74824 -21.56673
#
# Velocity S-wave (km/s) = 3.92027 -6.89384 -4.00977
# Velocity P-wave (km/s) = 7.69504 4.67350 4.32273
#
# Compressibility (1/GPa) = 0.01925274
#
# Stress axis : x y z
#
# Youngs Moduli (GPa) = 37.21455 27.49605 54.59294
#
# Poissons Ratio (x) = 0.48821 0.40456
# Poissons Ratio (y) = 0.66077 0.32680
# Poissons Ratio (z) = 0.27578 0.16459
#
# Static dielectric constant tensor:
#      x y z
#    x 1.454560 0.000000 0.000000 
#    y 0.000000 1.471580 0.000000 
#    z 0.000000 0.000000 1.461610 
# 
# From -- ./inp_files/11110.got.cif
#   From: 2010.05.17/outbox.cif.g08.bks.cpg/sg63_6_cif.got.tgz:11110.got - 2010.06.03 15:47:04.
