data_PCOD9469981
_publ_section_title
;
Structure prediction by ZEFSAII (Michael W. Deem and Ramdas Pophale) SiO2 
 PCOD9469981
Probable space group: C M C M
;
_chemical_formula_sum "Si O2"
_cell_formula_units_Z 80
_cell_length_a 35.924633
_cell_length_b 14.337951
_cell_length_c 9.962998
_cell_angle_alpha 90.000000
_cell_angle_beta 90.000000
_cell_angle_gamma 90.000000
_cell_volume 5131.797078
_symmetry_space_group_name_H-M "C M C M"
_symmetry_group_IT_number 63
_symmetry_cell_setting 'orthorhombic'
loop_
_space_group_symop_operation_xyz
x,y,z
-x,-y,1/2+z
x,-y,-z
-x,y,1/2-z
-x,-y,-z
x,y,1/2-z
-x,y,z
x,-y,1/2+z
1/2+x,1/2+y,z
1/2-x,1/2-y,1/2+z
1/2+x,1/2-y,-z
1/2-x,1/2+y,1/2-z
1/2-x,1/2-y,-z
1/2+x,1/2+y,1/2-z
1/2-x,1/2+y,z
1/2+x,1/2-y,1/2+z
loop_
_atom_site_type_symbol
_atom_site_label
_atom_site_fract_x
_atom_site_fract_y
_atom_site_fract_z
Si Si1 0.772490 0.585013 0.596578
Si Si2 0.316326 0.592005 0.589065
Si Si3 0.593264 0.112224 0.995949
Si Si4 0.456709 0.877830 0.750000
Si Si5 0.958588 0.603064 0.750000
Si Si6 0.836010 0.267033 0.088751
O O1 0.782692 0.500000 0.500000
O O2 0.779317 0.555235 0.750000
O O3 0.728594 0.604505 0.582279
O O4 0.797691 0.675149 0.572119
O O5 0.324805 0.500000 0.500000
O O6 0.325651 0.585812 0.750000
O O7 0.334343 0.677546 0.507746
O O8 0.564679 0.131034 0.877248
O O9 0.630899 0.166354 0.962757
O O10 0.569744 0.143972 0.124617
O O11 0.600324 0.000000 0.000000
O O12 0.500000 0.842870 0.750000
O O13 0.460558 0.990449 0.750000
O O14 0.000000 0.640585 0.750000
O O15 0.840124 0.246815 0.250000
#
# Coordination Sequence:
#
# PCOD9469981 Si02
#       6
#    16  16  16   8   8  16
#     4   9  19  34  51  73 101 134 170 205 248 297
#     4  10  21  37  55  72  93 128 172 216 256 299
#     4  10  19  31  47  72 106 138 170 203 243 288
#     4   9  18  30  48  70  98 137 175 205 234 282
#     4   9  16  30  48  68  98 139 173 197 232 288
#     4  11  21  33  49  73 105 134 166 209 254 296
#
# _framework density 15.589081999999999
#
# number of rings (size 3 to 8) (size 9 to 14) (size 15 to 20)
#    0.000    2.200    1.000    2.400    1.400    4.000 
#    0.000    0.000    0.000    0.000    0.000    0.000 
#    0.000    4.800    0.000    0.000    0.000    0.000 
#
# Total GULP energy -222747.849260 kJ/mol
# GULP energy per Si atom -5568.696231 kJ/mol
# Density = 1.555360 g / cm^3
# Si number density = 15.589082 Si / 1000 Ang^3
#
#
#
# Elastic Constant Matrix: (Units=GPa)
#
#
# Indices 1 2 3 4 5 6 
#
# 1 53.2893 43.9863 43.4690 0.0000 0.0000 0.0000
# 2 43.9863 81.2037 62.7749 0.0000 0.0000 0.0000
# 3 43.4690 62.7749 147.1444 0.0000 0.0000 0.0000
# 4 0.0000 0.0000 0.0000 26.4945 0.0000 0.0000
# 5 0.0000 0.0000 0.0000 0.0000 27.3381 0.0000
# 6 0.0000 0.0000 0.0000 0.0000 0.0000 7.2856
#
#
#
# Elastic Compliance Matrix: (Units=1/GPa)
#
#
# Indices 1 2 3 4 5 6 
#
# 1 0.035021 -0.016372 -0.003361 0.000000 0.000000 0.000000
# 2 -0.016372 0.026028 -0.006268 0.000000 0.000000 0.000000
# 3 -0.003361 -0.006268 0.010463 0.000000 0.000000 0.000000
# 4 0.000000 0.000000 0.000000 0.037744 0.000000 0.000000
# 5 0.000000 0.000000 0.000000 0.000000 0.036579 0.000000
# 6 0.000000 0.000000 0.000000 0.000000 0.000000 0.137258
#
#
# Mechanical properties :
#
#
# Convention : Reuss Voigt Hill
#
# Bulk Modulus (GPa) = 51.25368 64.67752 57.96560
# Shear Modulus (GPa) = 14.63710 20.98410 17.81060
#
# Velocity S-wave (km/s) = 3.06753 3.67287 3.38376
# Velocity P-wave (km/s) = 6.74504 7.71788 7.24780
#
# Compressibility (1/GPa) = 0.01951079
#
# Stress axis : x y z
#
# Youngs Moduli (GPa) = 28.55434 38.41991 95.57523
#
# Poissons Ratio (x) = 0.62900 0.32126
# Poissons Ratio (y) = 0.46748 0.59904
# Poissons Ratio (z) = 0.09598 0.24080
#
# Static dielectric constant tensor:
#      x y z
#    x 1.507040 0.000000 0.000000 
#    y 0.000000 1.501350 0.000000 
#    z 0.000000 0.000000 1.483070 
# 
# From -- ./inp_files/25676.got.cif
#   From: 2010.05.17/outbox.cif.g08.bks.cpg/sg63_13_cif.got.tgz:25676.got - 2010.06.03 15:47:04.
