data_PCOD9469125
_publ_section_title
;
Structure prediction by ZEFSAII (Michael W. Deem and Ramdas Pophale) SiO2 
 PCOD9469125
Probable space group: C M C M
;
_chemical_formula_sum "Si O2"
_cell_formula_units_Z 96
_cell_length_a 16.609868
_cell_length_b 34.308876
_cell_length_c 7.370006
_cell_angle_alpha 90.000000
_cell_angle_beta 90.000000
_cell_angle_gamma 90.000000
_cell_volume 4199.915114
_symmetry_space_group_name_H-M "C M C M"
_symmetry_group_IT_number 63
_symmetry_cell_setting 'orthorhombic'
loop_
_space_group_symop_operation_xyz
x,y,z
-x,-y,1/2+z
x,-y,-z
-x,y,1/2-z
-x,-y,-z
x,y,1/2-z
-x,y,z
x,-y,1/2+z
1/2+x,1/2+y,z
1/2-x,1/2-y,1/2+z
1/2+x,1/2-y,-z
1/2-x,1/2+y,1/2-z
1/2-x,1/2-y,-z
1/2+x,1/2+y,1/2-z
1/2-x,1/2+y,z
1/2+x,1/2-y,1/2+z
loop_
_atom_site_type_symbol
_atom_site_label
_atom_site_fract_x
_atom_site_fract_y
_atom_site_fract_z
Si Si1 0.176217 0.670867 0.535973
Si Si2 0.410310 0.095317 0.528287
Si Si3 0.743627 0.045641 0.966100
Si Si4 0.087637 0.918611 0.471175
Si Si5 0.411339 0.249253 0.032306
Si Si6 0.357353 0.665734 0.528245
O O1 0.181720 0.663999 0.750000
O O2 0.111269 0.639520 0.470286
O O3 0.151214 0.715452 0.511677
O O4 0.265205 0.662545 0.465072
O O5 0.411958 0.093770 0.750000
O O6 0.500000 0.084007 0.467745
O O7 0.335059 0.068904 0.467256
O O8 0.745372 0.052628 0.750000
O O9 0.830842 0.060203 0.034549
O O10 0.734635 0.000000 0.000000
O O11 0.088091 0.920296 0.250000
O O12 0.095804 0.873150 0.523323
O O13 0.000000 0.933896 0.530260
O O14 0.413387 0.251432 0.250000
O O15 0.500000 0.237573 0.967011
O O16 0.390772 0.292603 0.967168
O O17 0.358324 0.666467 0.750000
#
# Coordination Sequence:
#
# PCOD9469125 Si02
#       6
#    16  16  16  16  16  16
#     4  10  18  31  52  74  96 128 172 212 244 285
#     4   9  17  31  52  75  99 130 168 207 244 288
#     4  10  20  35  54  77 102 128 161 203 250 300
#     4   9  16  29  52  78 101 129 167 206 242 289
#     4  10  20  31  44  69 104 136 166 204 250 293
#     4   9  16  29  49  72  98 130 170 209 242 285
#
# _framework density 22.857603999999998
#
# number of rings (size 3 to 8) (size 9 to 14) (size 15 to 20)
#    0.000    2.500    1.667    1.500    0.000    3.667 
#    0.000    0.833    0.000    2.000    0.000    0.000 
#    0.000    0.000    0.000    0.000    0.000    0.000 
#
# Total GULP energy -268088.828297 kJ/mol
# GULP energy per Si atom -5585.183923 kJ/mol
# Density = 2.280558 g / cm^3
# Si number density = 22.857604 Si / 1000 Ang^3
#
#
#
# Elastic Constant Matrix: (Units=GPa)
#
#
# Indices 1 2 3 4 5 6 
#
# 1 139.3500 21.2633 9.1724 0.0000 0.0000 0.0000
# 2 21.2633 84.5437 -7.4619 0.0000 0.0000 0.0000
# 3 9.1724 -7.4619 78.0661 0.0000 0.0000 0.0000
# 4 0.0000 0.0000 0.0000 -19.8247 0.0000 0.0000
# 5 0.0000 0.0000 0.0000 0.0000 29.3103 0.0000
# 6 0.0000 0.0000 0.0000 0.0000 0.0000 20.2249
#
#
#
# Elastic Compliance Matrix: (Units=1/GPa)
#
#
# Indices 1 2 3 4 5 6 
#
# 1 0.007551 -0.001994 -0.001078 0.000000 0.000000 0.000000
# 2 -0.001994 0.012456 0.001425 0.000000 0.000000 0.000000
# 3 -0.001078 0.001425 0.013072 0.000000 0.000000 0.000000
# 4 0.000000 0.000000 0.000000 -0.050442 0.000000 0.000000
# 5 0.000000 0.000000 0.000000 0.000000 0.034118 0.000000
# 6 0.000000 0.000000 0.000000 0.000000 0.000000 0.049444
#
#
# Mechanical properties :
#
#
# Convention : Reuss Voigt Hill
#
# Bulk Modulus (GPa) = 33.57425 38.65640 36.11532
# Shear Modulus (GPa) = 62.95477 24.54117 43.74797
#
# Velocity S-wave (km/s) = 5.25376 3.28022 4.37960
# Velocity P-wave (km/s) = 7.17795 5.59420 6.43498
#
# Compressibility (1/GPa) = 0.02978473
#
# Stress axis : x y z
#
# Youngs Moduli (GPa) = 132.42502 80.28542 76.49650
#
# Poissons Ratio (x) = 0.16012 0.08245
# Poissons Ratio (y) = 0.26411 -0.10900
# Poissons Ratio (z) = 0.14274 -0.11440
#
# Static dielectric constant tensor:
#      x y z
#    x 1.859060 0.000000 0.000000 
#    y 0.000000 1.799230 0.000000 
#    z 0.000000 0.000000 1.892450 
# 
# From -- ./inp_files/21348.got.cif
#   From: 2010.05.17/outbox.cif.g08.bks.cpg/sg63_11_cif.got.tgz:21348.got - 2010.06.03 15:47:04.
