data_PCOD9469588
_publ_section_title
;
Structure prediction by ZEFSAII (Michael W. Deem and Ramdas Pophale) SiO2 
 PCOD9469588
Probable space group: C M C M
;
_chemical_formula_sum "Si O2"
_cell_formula_units_Z 84
_cell_length_a 19.501986
_cell_length_b 9.519402
_cell_length_c 23.338032
_cell_angle_alpha 90.000000
_cell_angle_beta 90.000000
_cell_angle_gamma 90.000000
_cell_volume 4332.641334
_symmetry_space_group_name_H-M "C M C M"
_symmetry_group_IT_number 63
_symmetry_cell_setting 'orthorhombic'
loop_
_space_group_symop_operation_xyz
x,y,z
-x,-y,1/2+z
x,-y,-z
-x,y,1/2-z
-x,-y,-z
x,y,1/2-z
-x,y,z
x,-y,1/2+z
1/2+x,1/2+y,z
1/2-x,1/2-y,1/2+z
1/2+x,1/2-y,-z
1/2-x,1/2+y,1/2-z
1/2-x,1/2-y,-z
1/2+x,1/2+y,1/2-z
1/2-x,1/2+y,z
1/2+x,1/2-y,1/2+z
loop_
_atom_site_type_symbol
_atom_site_label
_atom_site_fract_x
_atom_site_fract_y
_atom_site_fract_z
Si Si1 0.744469 0.118813 0.542680
Si Si2 0.581175 0.197585 0.750000
Si Si3 0.367093 0.519789 0.622609
Si Si4 0.121600 0.312497 0.123533
Si Si5 0.371835 0.517959 0.750000
Si Si6 0.500000 0.273429 0.250000
Si Si7 0.500000 0.719917 0.873294
Si Si8 0.000000 0.511381 0.567159
O O1 0.750000 0.250000 0.500000
O O2 0.814447 0.066016 0.573091
O O3 0.693590 0.153248 0.594386
O O4 0.716875 0.000000 0.500000
O O5 0.500000 0.166439 0.750000
O O6 0.615300 0.149493 0.809268
O O7 0.592038 0.365964 0.750000
O O8 0.388500 0.356149 0.616588
O O9 0.336032 0.531897 0.687800
O O10 0.433577 0.620279 0.620969
O O11 0.064816 0.403012 0.091015
O O12 0.432767 0.630066 0.750000
O O13 0.500000 0.202414 0.311136
O O14 0.500000 0.849334 0.914975
O O15 0.000000 0.500000 0.500000
#
# Coordination Sequence:
#
# PCOD9469588 Si02
#       8
#    16   8  16  16   8   4   8   8
#     4  12  26  45  66  89 130 179 224 266 323 386
#     4  10  18  38  68  99 127 163 215 271 337 387
#     4  10  22  42  67  95 126 174 218 270 327 393
#     4  11  24  43  68  94 129 172 219 271 330 393
#     4   8  16  33  64  94 125 157 208 262 319 385
#     4   8  14  34  56  90 126 162 186 256 322 376
#     4  10  23  37  65  97 130 163 215 267 329 383
#     4  12  27  40  61  95 133 171 215 273 326 390
#
# _framework density 19.387712000000001
#
# number of rings (size 3 to 8) (size 9 to 14) (size 15 to 20)
#    0.000    1.524    3.333    1.143    8.000    1.524 
#    0.000    1.429    0.000    0.000    0.000    0.000 
#    0.000    0.000    0.000    0.000    0.000    0.000 
#
# Total GULP energy -234224.030403 kJ/mol
# GULP energy per Si atom -5576.762629 kJ/mol
# Density = 1.934359 g / cm^3
# Si number density = 19.387712 Si / 1000 Ang^3
#
#
#
# Elastic Constant Matrix: (Units=GPa)
#
#
# Indices 1 2 3 4 5 6 
#
# 1 73.5881 28.0728 51.0140 0.0000 0.0000 0.0000
# 2 28.0728 108.0191 60.0649 0.0000 0.0000 0.0000
# 3 51.0140 60.0649 183.5085 0.0000 0.0000 0.0000
# 4 0.0000 0.0000 0.0000 38.0209 0.0000 0.0000
# 5 0.0000 0.0000 0.0000 0.0000 11.4377 0.0000
# 6 0.0000 0.0000 0.0000 0.0000 0.0000 11.3160
#
#
#
# Elastic Compliance Matrix: (Units=1/GPa)
#
#
# Indices 1 2 3 4 5 6 
#
# 1 0.017259 -0.002222 -0.004071 0.000000 0.000000 0.000000
# 2 -0.002222 0.011604 -0.003180 0.000000 0.000000 0.000000
# 3 -0.004071 -0.003180 0.007622 0.000000 0.000000 0.000000
# 4 0.000000 0.000000 0.000000 0.026301 0.000000 0.000000
# 5 0.000000 0.000000 0.000000 0.000000 0.087430 0.000000
# 6 0.000000 0.000000 0.000000 0.000000 0.000000 0.088370
#
#
# Mechanical properties :
#
#
# Convention : Reuss Voigt Hill
#
# Bulk Modulus (GPa) = 57.01717 71.49100 64.25409
# Shear Modulus (GPa) = 18.98420 27.21921 23.10170
#
# Velocity S-wave (km/s) = 3.13259 3.75099 3.45565
# Velocity P-wave (km/s) = 6.52357 7.46420 7.00968
#
# Compressibility (1/GPa) = 0.01753858
#
# Stress axis : x y z
#
# Youngs Moduli (GPa) = 57.94222 86.18089 131.20132
#
# Poissons Ratio (x) = 0.19148 0.53406
# Poissons Ratio (y) = 0.12874 0.41726
# Poissons Ratio (z) = 0.23585 0.27408
#
# Static dielectric constant tensor:
#      x y z
#    x 1.651010 0.000000 0.000000 
#    y 0.000000 1.475340 0.000000 
#    z 0.000000 0.000000 1.689950 
# 
# From -- ./inp_files/64369.got.cif
#   From: 2010.05.17/outbox.cif.g08.bks.cpg/sg63_33_cif.got.tgz:64369.got - 2010.06.03 15:47:04.
