data_PCOD9469354
_publ_section_title
;
Structure prediction by ZEFSAII (Michael W. Deem and Ramdas Pophale) SiO2 
 PCOD9469354
Probable space group: C M C M
;
_chemical_formula_sum "Si O2"
_cell_formula_units_Z 128
_cell_length_a 18.054306
_cell_length_b 19.319404
_cell_length_c 18.750201
_cell_angle_alpha 90.000000
_cell_angle_beta 90.000000
_cell_angle_gamma 90.000000
_cell_volume 6540.040700
_symmetry_space_group_name_H-M "C M C M"
_symmetry_group_IT_number 63
_symmetry_cell_setting 'orthorhombic'
loop_
_space_group_symop_operation_xyz
x,y,z
-x,-y,1/2+z
x,-y,-z
-x,y,1/2-z
-x,-y,-z
x,y,1/2-z
-x,y,z
x,-y,1/2+z
1/2+x,1/2+y,z
1/2-x,1/2-y,1/2+z
1/2+x,1/2-y,-z
1/2-x,1/2+y,1/2-z
1/2-x,1/2-y,-z
1/2+x,1/2+y,1/2-z
1/2-x,1/2+y,z
1/2+x,1/2-y,1/2+z
loop_
_atom_site_type_symbol
_atom_site_label
_atom_site_fract_x
_atom_site_fract_y
_atom_site_fract_z
Si Si1 0.584357 0.239625 0.562715
Si Si2 0.660834 0.426828 0.827454
Si Si3 0.264976 0.577053 0.527653
Si Si4 0.209944 0.234682 0.168185
Si Si5 0.417893 0.403329 0.969300
Si Si6 0.792831 0.460768 0.330367
Si Si7 0.086457 0.429100 0.834461
Si Si8 0.173998 0.679505 0.430561
O O1 0.500000 0.215292 0.574973
O O2 0.639526 0.230368 0.629690
O O3 0.581546 0.321704 0.547653
O O4 0.620880 0.208115 0.491992
O O5 0.624551 0.437211 0.750000
O O6 0.690674 0.347982 0.828920
O O7 0.730473 0.478460 0.831760
O O8 0.608084 0.437186 0.894714
O O9 0.243785 0.500000 0.500000
O O10 0.353501 0.581617 0.525531
O O11 0.230522 0.588136 0.605234
O O12 0.234085 0.632582 0.472044
O O13 0.222465 0.256727 0.250000
O O14 0.281144 0.236049 0.115868
O O15 0.500000 0.423356 0.991274
O O16 0.794211 0.432243 0.250000
O O17 0.870084 0.499065 0.346368
O O18 0.093708 0.414199 0.750000
O O19 0.127137 0.369543 0.878536
O O20 0.000000 0.433646 0.852531
#
# Coordination Sequence:
#
# PCOD9469354 Si02
#       8
#    16  16  16  16  16  16  16  16
#     4  10  22  38  55  83 116 148 184 232 286 333
#     4   9  15  29  51  76 107 142 179 221 270 322
#     4  12  20  35  56  84 109 144 187 226 275 330
#     4  10  18  32  57  83 107 143 187 234 284 331
#     4  10  20  34  53  80 112 143 178 226 278 323
#     4  10  19  35  53  74 110 148 184 226 269 325
#     4  10  19  32  54  83 112 144 184 235 287 324
#     4  12  20  35  58  83 113 147 188 234 277 336
#
# _framework density 19.571743999999999
#
# number of rings (size 3 to 8) (size 9 to 14) (size 15 to 20)
#    0.000    1.625    6.250    1.125    0.000    0.750 
#    0.000    5.000    0.000    0.375    0.000    3.500 
#    0.000    0.000    0.000    0.000    0.000    0.000 
#
# Total GULP energy -357353.031693 kJ/mol
# GULP energy per Si atom -5583.641120 kJ/mol
# Density = 1.952720 g / cm^3
# Si number density = 19.571744 Si / 1000 Ang^3
#
#
#
# Elastic Constant Matrix: (Units=GPa)
#
#
# Indices 1 2 3 4 5 6 
#
# 1 145.5923 19.1335 73.2416 0.0000 0.0000 0.0000
# 2 19.1335 25.3914 10.3487 0.0000 0.0000 0.0000
# 3 73.2416 10.3487 129.8003 0.0000 0.0000 0.0000
# 4 0.0000 0.0000 0.0000 27.3265 0.0000 0.0000
# 5 0.0000 0.0000 0.0000 0.0000 19.5739 0.0000
# 6 0.0000 0.0000 0.0000 0.0000 0.0000 18.0136
#
#
#
# Elastic Compliance Matrix: (Units=1/GPa)
#
#
# Indices 1 2 3 4 5 6 
#
# 1 0.010302 -0.005575 -0.005368 0.000000 0.000000 0.000000
# 2 -0.005575 0.043723 -0.000340 0.000000 0.000000 0.000000
# 3 -0.005368 -0.000340 0.010761 0.000000 0.000000 0.000000
# 4 0.000000 0.000000 0.000000 0.036594 0.000000 0.000000
# 5 0.000000 0.000000 0.000000 0.000000 0.051088 0.000000
# 6 0.000000 0.000000 0.000000 0.000000 0.000000 0.055513
#
#
# Mechanical properties :
#
#
# Convention : Reuss Voigt Hill
#
# Bulk Modulus (GPa) = 23.68647 56.24795 39.96721
# Shear Modulus (GPa) = 20.43974 26.18682 23.31328
#
# Velocity S-wave (km/s) = 3.23515 3.66182 3.45508
# Velocity P-wave (km/s) = 5.10721 6.83230 6.03175
#
# Compressibility (1/GPa) = 0.04221819
#
# Stress axis : x y z
#
# Youngs Moduli (GPa) = 97.07055 22.87127 92.93247
#
# Poissons Ratio (x) = 0.12750 0.49890
# Poissons Ratio (y) = 0.54115 0.03162
# Poissons Ratio (z) = 0.52112 0.00778
#
# Static dielectric constant tensor:
#      x y z
#    x 1.684580 0.000000 0.000000 
#    y 0.000000 1.713560 0.000000 
#    z 0.000000 0.000000 1.720360 
# 
# From -- ./inp_files/46347.got.cif
#   From: 2010.05.17/outbox.cif.g08.bks.cpg/sg63_24_cif.got.tgz:46347.got - 2010.06.03 15:47:04.
