data_PCOD9469889
_publ_section_title
;
Structure prediction by ZEFSAII (Michael W. Deem and Ramdas Pophale) SiO2 
 PCOD9469889
Probable space group: C M C M
;
_chemical_formula_sum "Si O2"
_cell_formula_units_Z 116
_cell_length_a 7.450929
_cell_length_b 29.882664
_cell_length_c 23.835596
_cell_angle_alpha 90.000000
_cell_angle_beta 90.000000
_cell_angle_gamma 90.000000
_cell_volume 5307.081443
_symmetry_space_group_name_H-M "C M C M"
_symmetry_group_IT_number 63
_symmetry_cell_setting 'orthorhombic'
loop_
_space_group_symop_operation_xyz
x,y,z
-x,-y,1/2+z
x,-y,-z
-x,y,1/2-z
-x,-y,-z
x,y,1/2-z
-x,y,z
x,-y,1/2+z
1/2+x,1/2+y,z
1/2-x,1/2-y,1/2+z
1/2+x,1/2-y,-z
1/2-x,1/2+y,1/2-z
1/2-x,1/2-y,-z
1/2+x,1/2+y,1/2-z
1/2-x,1/2+y,z
1/2+x,1/2-y,1/2+z
loop_
_atom_site_type_symbol
_atom_site_label
_atom_site_fract_x
_atom_site_fract_y
_atom_site_fract_z
Si Si1 0.500000 0.413972 0.250000
Si Si2 0.783629 0.957179 0.537050
Si Si3 0.283329 0.402287 0.064491
Si Si4 0.295143 0.050351 0.334500
Si Si5 0.284175 0.791372 0.920310
Si Si6 0.214080 0.193621 0.550666
Si Si7 0.208013 0.548199 0.672408
Si Si8 0.280541 0.849821 0.812963
O O1 0.658310 0.417973 0.202096
O O2 0.734182 0.915157 0.498709
O O3 0.705175 0.952922 0.598298
O O4 0.000000 0.959375 0.543888
O O5 0.730902 0.000000 0.500000
O O6 0.500000 0.403766 0.066860
O O7 0.218604 0.352421 0.077297
O O8 0.215632 0.439514 0.107071
O O9 0.500000 0.050679 0.314387
O O10 0.217320 0.098474 0.318396
O O11 0.220393 0.002176 0.315894
O O12 0.500000 0.790320 0.915645
O O13 0.216358 0.739916 0.923258
O O14 0.220343 0.820568 0.866935
O O15 0.243861 0.808319 0.983395
O O16 0.000000 0.194377 0.558555
O O17 0.000000 0.550837 0.688998
O O18 0.232314 0.833475 0.750000
O O19 0.500000 0.850590 0.815377
#
# Coordination Sequence:
#
# PCOD9469889 Si02
#       8
#     4  16  16  16  16  16  16  16
#     4  12  26  44  64  76 116 156 194 264 290 334
#     4  10  19  30  50  74 109 154 187 225 289 350
#     4  10  19  35  54  80 118 154 189 243 300 350
#     4  10  21  34  51  80 111 146 191 241 288 348
#     4   9  17  32  54  83 111 148 194 237 291 359
#     4   9  18  31  55  83 117 148 184 236 302 362
#     4  11  24  40  62  86 112 152 202 242 296 352
#     4   9  18  33  53  75 109 147 188 243 293 336
#
# _framework density 21.857589000000001
#
# number of rings (size 3 to 8) (size 9 to 14) (size 15 to 20)
#    0.000    2.207    2.069    1.034    1.931    1.379 
#    0.000    0.000    1.517    1.241    0.000    0.000 
#    0.000    0.000    0.000    0.000    0.000    0.000 
#
# Total GULP energy -323153.469967 kJ/mol
# GULP energy per Si atom -5571.611551 kJ/mol
# Density = 2.180784 g / cm^3
# Si number density = 21.857589 Si / 1000 Ang^3
#
#
#
# Elastic Constant Matrix: (Units=GPa)
#
#
# Indices 1 2 3 4 5 6 
#
# 1 81.0845 1.2981 -2.9993 0.0000 0.0000 0.0000
# 2 1.2981 120.1890 29.5454 0.0000 0.0000 0.0000
# 3 -2.9993 29.5454 112.4977 0.0000 0.0000 0.0000
# 4 0.0000 0.0000 0.0000-1831.4241 0.0000 0.0000
# 5 0.0000 0.0000 0.0000 0.0000 -35.5788 0.0000
# 6 0.0000 0.0000 0.0000 0.0000 0.0000 2.7074
#
#
#
# Elastic Compliance Matrix: (Units=1/GPa)
#
#
# Indices 1 2 3 4 5 6 
#
# 1 0.012351 -0.000229 0.000389 0.000000 0.000000 0.000000
# 2 -0.000229 0.008899 -0.002343 0.000000 0.000000 0.000000
# 3 0.000389 -0.002343 0.009515 0.000000 0.000000 0.000000
# 4 0.000000 0.000000 0.000000 -0.000546 0.000000 0.000000
# 5 0.000000 0.000000 0.000000 0.000000 -0.028107 0.000000
# 6 0.000000 0.000000 0.000000 0.000000 0.000000 0.369358
#
#
# Mechanical properties :
#
#
# Convention : Reuss Voigt Hill
#
# Bulk Modulus (GPa) = 37.88061 41.05107 39.46584
# Shear Modulus (GPa) = 12.99933 -353.79729 -170.39898
#
# Velocity S-wave (km/s) = 2.44135 -12.73641 -8.83900
# Velocity P-wave (km/s) = 5.03142 14.05227 9.27769
#
# Compressibility (1/GPa) = 0.02639873
#
# Stress axis : x y z
#
# Youngs Moduli (GPa) = 80.96585 112.37572 105.09893
#
# Poissons Ratio (x) = 0.02575 -0.04093
# Poissons Ratio (y) = 0.01855 0.24627
# Poissons Ratio (z) = -0.03153 0.26332
#
# Static dielectric constant tensor:
#      x y z
#    x 1.783230 0.000000 0.000000 
#    y 0.000000 1.838370 0.000000 
#    z 0.000000 0.000000 1.781740 
# 
# From -- ./inp_files/60620.got.cif
#   From: 2010.05.17/outbox.cif.g08.bks.cpg/sg63_31_cif.got.tgz:60620.got - 2010.06.03 15:47:04.
