data_PCOD9469401
_publ_section_title
;
Structure prediction by ZEFSAII (Michael W. Deem and Ramdas Pophale) SiO2 
 PCOD9469401
Probable space group: C M C M
;
_chemical_formula_sum "Si O2"
_cell_formula_units_Z 80
_cell_length_a 21.441439
_cell_length_b 14.199393
_cell_length_c 13.773163
_cell_angle_alpha 90.000000
_cell_angle_beta 90.000000
_cell_angle_gamma 90.000000
_cell_volume 4193.314110
_symmetry_space_group_name_H-M "C M C M"
_symmetry_group_IT_number 63
_symmetry_cell_setting 'orthorhombic'
loop_
_space_group_symop_operation_xyz
x,y,z
-x,-y,1/2+z
x,-y,-z
-x,y,1/2-z
-x,-y,-z
x,y,1/2-z
-x,y,z
x,-y,1/2+z
1/2+x,1/2+y,z
1/2-x,1/2-y,1/2+z
1/2+x,1/2-y,-z
1/2-x,1/2+y,1/2-z
1/2-x,1/2-y,-z
1/2+x,1/2+y,1/2-z
1/2-x,1/2+y,z
1/2+x,1/2-y,1/2+z
loop_
_atom_site_type_symbol
_atom_site_label
_atom_site_fract_x
_atom_site_fract_y
_atom_site_fract_z
Si Si1 0.878041 0.940051 0.643317
Si Si2 0.788145 0.318367 0.356580
Si Si3 0.926189 0.133769 0.938793
Si Si4 0.236123 0.529960 0.389948
Si Si5 0.334196 0.786990 0.570412
O O1 0.902147 0.913663 0.750000
O O2 0.906848 0.886216 0.551146
O O3 0.802860 0.931291 0.643916
O O4 0.894322 0.049567 0.622006
O O5 0.806741 0.280788 0.250000
O O6 0.784572 0.430956 0.347423
O O7 0.719954 0.280094 0.386559
O O8 0.827530 0.294181 0.452944
O O9 0.898213 0.234238 0.908008
O O10 0.000000 0.127600 0.928784
O O11 0.248782 0.500000 0.500000
O O12 0.183752 0.610700 0.387945
#
# Coordination Sequence:
#
# PCOD9469401 Si02
#       5
#    16  16  16  16  16
#     4  11  20  35  56  81 110 144 185 229 285 337
#     4  10  19  33  55  83 112 141 177 232 293 334
#     4  11  23  38  53  76 114 155 190 225 264 325
#     4  10  18  33  55  81 115 140 170 232 293 334
#     4  10  21  35  53  82 113 144 187 228 272 334
#
# _framework density 19.077988000000001
#
# number of rings (size 3 to 8) (size 9 to 14) (size 15 to 20)
#    0.000    1.600    4.000    4.200    0.000    5.600 
#    0.000    0.000    0.000    5.400    0.000    0.000 
#    0.000    0.000    0.000    0.000    0.000    0.000 
#
# Total GULP energy -223118.720014 kJ/mol
# GULP energy per Si atom -5577.968000 kJ/mol
# Density = 1.903457 g / cm^3
# Si number density = 19.077988 Si / 1000 Ang^3
#
#
#
# Elastic Constant Matrix: (Units=GPa)
#
#
# Indices 1 2 3 4 5 6 
#
# 1 49.8069 29.5389 -0.5378 0.0000 0.0000 0.0000
# 2 29.5389 119.0083 19.5316 0.0000 0.0000 0.0000
# 3 -0.5378 19.5316 88.0231 0.0000 0.0000 0.0000
# 4 0.0000 0.0000 0.0000 4.7097 0.0000 0.0000
# 5 0.0000 0.0000 0.0000 0.0000 14.2796 0.0000
# 6 0.0000 0.0000 0.0000 0.0000 0.0000 19.2075
#
#
#
# Elastic Compliance Matrix: (Units=1/GPa)
#
#
# Indices 1 2 3 4 5 6 
#
# 1 0.023734 -0.006138 0.001507 0.000000 0.000000 0.000000
# 2 -0.006138 0.010308 -0.002325 0.000000 0.000000 0.000000
# 3 0.001507 -0.002325 0.011886 0.000000 0.000000 0.000000
# 4 0.000000 0.000000 0.000000 0.212329 0.000000 0.000000
# 5 0.000000 0.000000 0.000000 0.000000 0.070030 0.000000
# 6 0.000000 0.000000 0.000000 0.000000 0.000000 0.052063
#
#
# Mechanical properties :
#
#
# Convention : Reuss Voigt Hill
#
# Bulk Modulus (GPa) = 31.23460 39.32262 35.27861
# Shear Modulus (GPa) = 12.34771 21.52640 16.93706
#
# Velocity S-wave (km/s) = 2.54682 3.36272 2.98280
# Velocity P-wave (km/s) = 5.00559 5.97774 5.51314
#
# Compressibility (1/GPa) = 0.03201578
#
# Stress axis : x y z
#
# Youngs Moduli (GPa) = 42.13317 97.01290 84.13466
#
# Poissons Ratio (x) = 0.59550 -0.12680
# Poissons Ratio (y) = 0.25863 0.19559
# Poissons Ratio (z) = -0.06350 0.22553
#
# Static dielectric constant tensor:
#      x y z
#    x 1.613130 0.000000 0.000000 
#    y 0.000000 1.707600 0.000000 
#    z 0.000000 0.000000 1.819930 
# 
# From -- ./inp_files/35101.got.cif
#   From: 2010.05.17/outbox.cif.g08.bks.cpg/sg63_18_cif.got.tgz:35101.got - 2010.06.03 15:47:04.
