data_PCOD9469164
_publ_section_title
;
Structure prediction by ZEFSAII (Michael W. Deem and Ramdas Pophale) SiO2 
 PCOD9469164
Probable space group: C M C M
;
_chemical_formula_sum "Si O2"
_cell_formula_units_Z 80
_cell_length_a 25.744757
_cell_length_b 20.906237
_cell_length_c 8.688681
_cell_angle_alpha 90.000000
_cell_angle_beta 90.000000
_cell_angle_gamma 90.000000
_cell_volume 4676.473945
_symmetry_space_group_name_H-M "C M C M"
_symmetry_group_IT_number 63
_symmetry_cell_setting 'orthorhombic'
loop_
_space_group_symop_operation_xyz
x,y,z
-x,-y,1/2+z
x,-y,-z
-x,y,1/2-z
-x,-y,-z
x,y,1/2-z
-x,y,z
x,-y,1/2+z
1/2+x,1/2+y,z
1/2-x,1/2-y,1/2+z
1/2+x,1/2-y,-z
1/2-x,1/2+y,1/2-z
1/2-x,1/2-y,-z
1/2+x,1/2+y,1/2-z
1/2-x,1/2+y,z
1/2+x,1/2-y,1/2+z
loop_
_atom_site_type_symbol
_atom_site_label
_atom_site_fract_x
_atom_site_fract_y
_atom_site_fract_z
Si Si1 0.281322 0.689362 0.566206
Si Si2 0.387226 0.736214 0.063836
Si Si3 0.000000 0.610372 0.928860
Si Si4 0.720805 0.068155 0.065953
Si Si5 0.391395 0.879815 0.566194
Si Si6 0.000000 0.765973 0.569778
O O1 0.280284 0.691832 0.750000
O O2 0.250000 0.750000 0.500000
O O3 0.339854 0.696863 0.505109
O O4 0.253763 0.625544 0.506365
O O5 0.385616 0.734944 0.250000
O O6 0.444184 0.713033 0.007606
O O7 0.383076 0.810070 0.010213
O O8 0.000000 0.592455 0.750000
O O9 0.000000 0.688353 0.938642
O O10 0.945759 0.591206 0.006764
O O11 0.726182 0.069921 0.250000
O O12 0.659893 0.079872 0.028888
O O13 0.737091 0.000000 0.000000
O O14 0.394570 0.871544 0.750000
O O15 0.000000 0.782858 0.750000
#
# Coordination Sequence:
#
# PCOD9469164 Si02
#       6
#    16  16   8  16  16   8
#     4  12  23  36  56  82 111 145 185 230 276 325
#     4  10  18  31  53  80 110 143 180 222 271 325
#     4   9  17  29  48  72 101 138 181 225 273 318
#     4  11  24  40  57  79 108 144 184 229 280 333
#     4  10  19  32  51  75 105 139 182 227 273 324
#     4   7  14  27  45  74 107 138 171 213 265 317
#
# _framework density 17.106905999999999
#
# number of rings (size 3 to 8) (size 9 to 14) (size 15 to 20)
#    0.000    1.800    2.000    5.100    0.000    2.400 
#    0.000    2.000    0.000    0.000    0.000    0.700 
#    0.000    0.000    0.000    0.000    0.000    0.000 
#
# Total GULP energy -223251.383011 kJ/mol
# GULP energy per Si atom -5581.284575 kJ/mol
# Density = 1.706797 g / cm^3
# Si number density = 17.106906 Si / 1000 Ang^3
#
#
#
# Elastic Constant Matrix: (Units=GPa)
#
#
# Indices 1 2 3 4 5 6 
#
# 1 144.6241 57.7171 51.9297 0.0000 0.0000 0.0000
# 2 57.7171 90.3249 40.2311 0.0000 0.0000 0.0000
# 3 51.9297 40.2311 84.6719 0.0000 0.0000 0.0000
# 4 0.0000 0.0000 0.0000 20.1691 0.0000 0.0000
# 5 0.0000 0.0000 0.0000 0.0000 29.6128 0.0000
# 6 0.0000 0.0000 0.0000 0.0000 0.0000 12.5555
#
#
#
# Elastic Compliance Matrix: (Units=1/GPa)
#
#
# Indices 1 2 3 4 5 6 
#
# 1 0.010262 -0.004762 -0.004031 0.000000 0.000000 0.000000
# 2 -0.004762 0.016253 -0.004802 0.000000 0.000000 0.000000
# 3 -0.004031 -0.004802 0.016564 0.000000 0.000000 0.000000
# 4 0.000000 0.000000 0.000000 0.049581 0.000000 0.000000
# 5 0.000000 0.000000 0.000000 0.000000 0.033769 0.000000
# 6 0.000000 0.000000 0.000000 0.000000 0.000000 0.079647
#
#
# Mechanical properties :
#
#
# Convention : Reuss Voigt Hill
#
# Bulk Modulus (GPa) = 62.93614 68.81963 65.87788
# Shear Modulus (GPa) = 20.95883 23.78367 22.37125
#
# Velocity S-wave (km/s) = 3.50404 3.73271 3.62018
# Velocity P-wave (km/s) = 7.29663 7.67424 7.48782
#
# Compressibility (1/GPa) = 0.01588912
#
# Stress axis : x y z
#
# Youngs Moduli (GPa) = 97.44241 61.52782 60.37088
#
# Poissons Ratio (x) = 0.29300 0.24338
# Poissons Ratio (y) = 0.46403 0.28989
# Poissons Ratio (z) = 0.39283 0.29544
#
# Static dielectric constant tensor:
#      x y z
#    x 1.619160 0.000000 0.000000 
#    y 0.000000 1.550500 0.000000 
#    z 0.000000 0.000000 1.572220 
# 
# From -- ./inp_files/12114.got.cif
#   From: 2010.05.17/outbox.cif.g08.bks.cpg/sg63_7_cif.got.tgz:12114.got - 2010.06.03 15:47:04.
