data_PCOD9469548
_publ_section_title
;
Structure prediction by ZEFSAII (Michael W. Deem and Ramdas Pophale) SiO2 
 PCOD9469548
Probable space group: C M C M
;
_chemical_formula_sum "Si O2"
_cell_formula_units_Z 96
_cell_length_a 24.255494
_cell_length_b 26.137433
_cell_length_c 8.478620
_cell_angle_alpha 90.000000
_cell_angle_beta 90.000000
_cell_angle_gamma 90.000000
_cell_volume 5375.244555
_symmetry_space_group_name_H-M "C M C M"
_symmetry_group_IT_number 63
_symmetry_cell_setting 'orthorhombic'
loop_
_space_group_symop_operation_xyz
x,y,z
-x,-y,1/2+z
x,-y,-z
-x,y,1/2-z
-x,-y,-z
x,y,1/2-z
-x,y,z
x,-y,1/2+z
1/2+x,1/2+y,z
1/2-x,1/2-y,1/2+z
1/2+x,1/2-y,-z
1/2-x,1/2+y,1/2-z
1/2-x,1/2-y,-z
1/2+x,1/2+y,1/2-z
1/2-x,1/2+y,z
1/2+x,1/2-y,1/2+z
loop_
_atom_site_type_symbol
_atom_site_label
_atom_site_fract_x
_atom_site_fract_y
_atom_site_fract_z
Si Si1 0.618710 0.651812 0.057436
Si Si2 0.312032 0.751189 0.059765
Si Si3 0.385116 0.847668 0.060819
Si Si4 0.500000 0.806030 0.562517
Si Si5 0.317935 0.056945 0.060843
Si Si6 0.000000 0.189278 0.058958
Si Si7 0.691242 0.556720 0.059636
O O1 0.618579 0.651041 0.250000
O O2 0.654623 0.700876 0.008229
O O3 0.555887 0.661123 0.006469
O O4 0.648821 0.600089 0.004335
O O5 0.311423 0.751104 0.250000
O O6 0.344424 0.801871 0.007467
O O7 0.250000 0.750000 0.000000
O O8 0.387625 0.846763 0.250000
O O9 0.445369 0.835009 0.995457
O O10 0.359355 0.900889 0.004908
O O11 0.500000 0.803244 0.750000
O O12 0.500000 0.748180 0.495291
O O13 0.319825 0.057396 0.250000
O O14 0.254480 0.068824 0.011233
O O15 0.330483 0.000000 0.000000
O O16 0.000000 0.190122 0.250000
O O17 0.690492 0.556155 0.250000
O O18 0.677833 0.500000 0.000000
#
# Coordination Sequence:
#
# PCOD9469548 Si02
#       7
#    16  16  16   8  16   8  16
#     4   9  17  32  54  77 103 142 186 227 272 327
#     4  10  20  33  52  79 110 141 179 227 279 335
#     4  11  22  38  59  82 111 148 189 228 277 337
#     4  12  24  38  57  82 113 148 187 231 281 329
#     4  10  20  36  58  83 114 147 185 231 280 334
#     4  10  18  36  59  76 104 146 192 229 274 337
#     4   9  18  33  54  79 110 146 185 227 277 331
#
# _framework density 17.859653000000002
#
# number of rings (size 3 to 8) (size 9 to 14) (size 15 to 20)
#    0.000    2.000    1.667    2.750    0.000    3.333 
#    0.000    2.500    0.000    0.000    0.000    0.000 
#    0.000    0.000    0.000    0.000    0.000    0.000 
#
# Total GULP energy -268006.688663 kJ/mol
# GULP energy per Si atom -5583.472680 kJ/mol
# Density = 1.781900 g / cm^3
# Si number density = 17.859653 Si / 1000 Ang^3
#
#
#
# Elastic Constant Matrix: (Units=GPa)
#
#
# Indices 1 2 3 4 5 6 
#
# 1 183.4822 110.7443 30.1360 0.0000 0.0000 0.0000
# 2 110.7443 147.5425 25.5755 0.0000 0.0000 0.0000
# 3 30.1360 25.5755 26.9691 0.0000 0.0000 0.0000
# 4 0.0000 0.0000 0.0000 26.2364 0.0000 0.0000
# 5 0.0000 0.0000 0.0000 0.0000 23.0469 0.0000
# 6 0.0000 0.0000 0.0000 0.0000 0.0000 -18.2112
#
#
#
# Elastic Compliance Matrix: (Units=1/GPa)
#
#
# Indices 1 2 3 4 5 6 
#
# 1 0.010521 -0.007012 -0.005107 0.000000 0.000000 0.000000
# 2 -0.007012 0.012784 -0.004288 0.000000 0.000000 0.000000
# 3 -0.005107 -0.004288 0.046853 0.000000 0.000000 0.000000
# 4 0.000000 0.000000 0.000000 0.038115 0.000000 0.000000
# 5 0.000000 0.000000 0.000000 0.000000 0.043390 0.000000
# 6 0.000000 0.000000 0.000000 0.000000 0.000000 -0.054911
#
#
# Mechanical properties :
#
#
# Convention : Reuss Voigt Hill
#
# Bulk Modulus (GPa) = 26.77821 76.76725 51.77273
# Shear Modulus (GPa) = 35.20790 18.98361 27.09576
#
# Velocity S-wave (km/s) = 4.44482 3.26380 3.89929
# Velocity P-wave (km/s) = 6.43181 7.56836 7.02312
#
# Compressibility (1/GPa) = 0.03734379
#
# Stress axis : x y z
#
# Youngs Moduli (GPa) = 95.04826 78.22291 21.34336
#
# Poissons Ratio (x) = 0.54847 0.10900
# Poissons Ratio (y) = 0.66645 0.09153
# Poissons Ratio (z) = 0.48542 0.33544
#
# Static dielectric constant tensor:
#      x y z
#    x 1.595680 0.000000 0.000000 
#    y 0.000000 1.584120 0.000000 
#    z 0.000000 0.000000 1.613740 
# 
# From -- ./inp_files/10526.got.cif
#   From: 2010.05.17/outbox.cif.g08.bks.cpg/sg63_6_cif.got.tgz:10526.got - 2010.06.03 15:47:04.
