data_PCOD9469785
_publ_section_title
;
Structure prediction by ZEFSAII (Michael W. Deem and Ramdas Pophale) SiO2 
 PCOD9469785
Probable space group: C M C M
;
_chemical_formula_sum "Si O2"
_cell_formula_units_Z 96
_cell_length_a 25.823599
_cell_length_b 25.160659
_cell_length_c 9.089365
_cell_angle_alpha 90.000000
_cell_angle_beta 90.000000
_cell_angle_gamma 90.000000
_cell_volume 5905.712822
_symmetry_space_group_name_H-M "C M C M"
_symmetry_group_IT_number 63
_symmetry_cell_setting 'orthorhombic'
loop_
_space_group_symop_operation_xyz
x,y,z
-x,-y,1/2+z
x,-y,-z
-x,y,1/2-z
-x,-y,-z
x,y,1/2-z
-x,y,z
x,-y,1/2+z
1/2+x,1/2+y,z
1/2-x,1/2-y,1/2+z
1/2+x,1/2-y,-z
1/2-x,1/2+y,1/2-z
1/2-x,1/2-y,-z
1/2+x,1/2+y,1/2-z
1/2-x,1/2+y,z
1/2+x,1/2-y,1/2+z
loop_
_atom_site_type_symbol
_atom_site_label
_atom_site_fract_x
_atom_site_fract_y
_atom_site_fract_z
Si Si1 0.770863 0.052897 0.583052
Si Si2 0.105167 0.051548 0.584217
Si Si3 0.731287 0.666215 0.425017
Si Si4 0.670127 0.758643 0.925781
Si Si5 0.943490 0.738621 0.073213
Si Si6 0.440713 0.648354 0.081838
O O1 0.750539 0.056184 0.750000
O O2 0.832967 0.046141 0.593695
O O3 0.763710 0.108364 0.497669
O O4 0.750986 0.000000 0.500000
O O5 0.084406 0.056022 0.750000
O O6 0.093583 0.103437 0.490401
O O7 0.084322 0.000000 0.500000
O O8 0.723353 0.661239 0.250000
O O9 0.686405 0.703828 0.493836
O O10 0.784300 0.699102 0.452457
O O11 0.668946 0.747830 0.750000
O O12 0.613752 0.781548 0.970843
O O13 0.944893 0.736868 0.250000
O O14 0.000000 0.716930 0.021214
O O15 0.940918 0.798878 0.015542
O O16 0.425537 0.660352 0.250000
O O17 0.500000 0.628544 0.083840
#
# Coordination Sequence:
#
# PCOD9469785 Si02
#       6
#    16  16  16  16  16  16
#     4  10  20  33  48  66  88 114 146 182 220 265
#     4  10  20  32  45  59  76 102 137 177 218 258
#     4  10  19  30  46  68  94 123 152 184 224 268
#     4   9  18  31  46  67  94 122 153 187 223 266
#     4   9  17  30  47  64  84 113 147 181 216 255
#     4  10  20  31  42  58  80 106 138 177 219 260
#
# _framework density 16.255445999999999
#
# number of rings (size 3 to 8) (size 9 to 14) (size 15 to 20)
#    0.000    2.333    0.000    3.000    0.000    8.667 
#    0.000    0.000    0.000    0.000    0.000    0.000 
#    0.000    0.667    0.000    1.167    0.000    1.667 
#
# Total GULP energy -267383.472053 kJ/mol
# GULP energy per Si atom -5570.489001 kJ/mol
# Density = 1.621845 g / cm^3
# Si number density = 16.255446 Si / 1000 Ang^3
#
#
#
# Elastic Constant Matrix: (Units=GPa)
#
#
# Indices 1 2 3 4 5 6 
#
# 1 77.3385 5.2850 14.1855 0.0000 0.0000 0.0000
# 2 5.2850 61.2719 32.7914 0.0000 0.0000 0.0000
# 3 14.1855 32.7914 38.7345 0.0000 0.0000 0.0000
# 4 0.0000 0.0000 0.0000 20.0508 0.0000 0.0000
# 5 0.0000 0.0000 0.0000 0.0000 15.3213 0.0000
# 6 0.0000 0.0000 0.0000 0.0000 0.0000 89.8534
#
#
#
# Elastic Compliance Matrix: (Units=1/GPa)
#
#
# Indices 1 2 3 4 5 6 
#
# 1 0.014125 0.002834 -0.007572 0.000000 0.000000 0.000000
# 2 0.002834 0.030409 -0.026781 0.000000 0.000000 0.000000
# 3 -0.007572 -0.026781 0.051262 0.000000 0.000000 0.000000
# 4 0.000000 0.000000 0.000000 0.049873 0.000000 0.000000
# 5 0.000000 0.000000 0.000000 0.000000 0.065269 0.000000
# 6 0.000000 0.000000 0.000000 0.000000 0.000000 0.011129
#
#
# Mechanical properties :
#
#
# Convention : Reuss Voigt Hill
#
# Bulk Modulus (GPa) = 30.52723 31.31874 30.92299
# Shear Modulus (GPa) = 16.89043 33.38397 25.13720
#
# Velocity S-wave (km/s) = 3.22695 4.53670 3.93668
# Velocity P-wave (km/s) = 5.71880 6.83745 6.30299
#
# Compressibility (1/GPa) = 0.03275764
#
# Stress axis : x y z
#
# Youngs Moduli (GPa) = 70.79426 32.88507 19.50760
#
# Poissons Ratio (x) = -0.09320 0.14772
# Poissons Ratio (y) = -0.20065 0.52244
# Poissons Ratio (z) = 0.53609 0.88070
#
# Static dielectric constant tensor:
#      x y z
#    x 1.606600 0.000000 0.000000 
#    y 0.000000 1.508950 0.000000 
#    z 0.000000 0.000000 1.563560 
# 
# From -- ./inp_files/12314.got.cif
#   From: 2010.05.17/outbox.cif.g08.bks.cpg/sg63_7_cif.got.tgz:12314.got - 2010.06.03 15:47:04.
