data_PCOD9469251
_publ_section_title
;
Structure prediction by ZEFSAII (Michael W. Deem and Ramdas Pophale) SiO2 
 PCOD9469251
Probable space group: C M C M
;
_chemical_formula_sum "Si O2"
_cell_formula_units_Z 72
_cell_length_a 34.406539
_cell_length_b 14.733465
_cell_length_c 8.620969
_cell_angle_alpha 90.000000
_cell_angle_beta 90.000000
_cell_angle_gamma 90.000000
_cell_volume 4370.206591
_symmetry_space_group_name_H-M "C M C M"
_symmetry_group_IT_number 63
_symmetry_cell_setting 'orthorhombic'
loop_
_space_group_symop_operation_xyz
x,y,z
-x,-y,1/2+z
x,-y,-z
-x,y,1/2-z
-x,-y,-z
x,y,1/2-z
-x,y,z
x,-y,1/2+z
1/2+x,1/2+y,z
1/2-x,1/2-y,1/2+z
1/2+x,1/2-y,-z
1/2-x,1/2+y,1/2-z
1/2-x,1/2-y,-z
1/2+x,1/2+y,1/2-z
1/2-x,1/2+y,z
1/2+x,1/2-y,1/2+z
loop_
_atom_site_type_symbol
_atom_site_label
_atom_site_fract_x
_atom_site_fract_y
_atom_site_fract_z
Si Si1 0.081317 0.397249 0.064732
Si Si2 0.235364 0.653904 0.936020
Si Si3 0.181468 0.906792 0.435961
Si Si4 0.156077 0.296235 0.936369
Si Si5 0.500000 0.102961 0.064507
O O1 0.079475 0.401768 0.250000
O O2 0.086085 0.500000 0.000000
O O3 0.117295 0.337060 0.008839
O O4 0.040540 0.358615 0.998945
O O5 0.231600 0.654751 0.750000
O O6 0.272667 0.594129 0.978778
O O7 0.250000 0.750000 0.000000
O O8 0.193055 0.643099 0.010265
O O9 0.179180 0.908062 0.250000
O O10 0.163775 0.809109 0.485742
O O11 0.163753 0.000000 0.500000
O O12 0.154113 0.298025 0.750000
O O13 0.500000 0.102288 0.250000
O O14 0.500000 0.000000 0.000000
#
# Coordination Sequence:
#
# PCOD9469251 Si02
#       5
#    16  16  16  16   8
#     4  11  21  34  52  75 101 131 162 196 238 290
#     4   9  17  30  45  64  89 122 160 202 246 288
#     4   9  19  32  48  68  94 127 166 206 247 289
#     4  10  20  34  49  71  99 128 164 208 248 290
#     4  10  18  32  52  74 101 130 157 192 234 286
#
# _framework density 16.475193000000001
#
# number of rings (size 3 to 8) (size 9 to 14) (size 15 to 20)
#    0.000    2.222    0.000    7.000    0.000    6.222 
#    0.000    2.222    0.000    0.000    0.000    0.778 
#    0.000    0.000    0.000    0.000    0.000    0.000 
#
# Total GULP energy -200536.129241 kJ/mol
# GULP energy per Si atom -5570.448034 kJ/mol
# Density = 1.643769 g / cm^3
# Si number density = 16.475193 Si / 1000 Ang^3
#
#
#
# Elastic Constant Matrix: (Units=GPa)
#
#
# Indices 1 2 3 4 5 6 
#
# 1 148.9450 44.7960 52.7294 0.0000 0.0000 0.0000
# 2 44.7960 82.1357 31.7789 0.0000 0.0000 0.0000
# 3 52.7294 31.7789 86.6284 0.0000 0.0000 0.0000
# 4 0.0000 0.0000 0.0000 21.9186 0.0000 0.0000
# 5 0.0000 0.0000 0.0000 0.0000 29.0898 0.0000
# 6 0.0000 0.0000 0.0000 0.0000 0.0000 21.2323
#
#
#
# Elastic Compliance Matrix: (Units=1/GPa)
#
#
# Indices 1 2 3 4 5 6 
#
# 1 0.009289 -0.003355 -0.004423 0.000000 0.000000 0.000000
# 2 -0.003355 0.015400 -0.003608 0.000000 0.000000 0.000000
# 3 -0.004423 -0.003608 0.015559 0.000000 0.000000 0.000000
# 4 0.000000 0.000000 0.000000 0.045623 0.000000 0.000000
# 5 0.000000 0.000000 0.000000 0.000000 0.034376 0.000000
# 6 0.000000 0.000000 0.000000 0.000000 0.000000 0.047098
#
#
# Mechanical properties :
#
#
# Convention : Reuss Voigt Hill
#
# Bulk Modulus (GPa) = 57.21651 64.03529 60.62590
# Shear Modulus (GPa) = 25.51762 27.00845 26.26303
#
# Velocity S-wave (km/s) = 3.93981 4.05327 3.99694
# Velocity P-wave (km/s) = 7.44986 7.80112 7.62751
#
# Compressibility (1/GPa) = 0.01747747
#
# Stress axis : x y z
#
# Youngs Moduli (GPa) = 107.65722 64.93364 64.26989
#
# Poissons Ratio (x) = 0.21783 0.28429
# Poissons Ratio (y) = 0.36114 0.23186
# Poissons Ratio (z) = 0.47620 0.23425
#
# Static dielectric constant tensor:
#      x y z
#    x 1.582570 0.000000 0.000000 
#    y 0.000000 1.585610 0.000000 
#    z 0.000000 0.000000 1.549550 
# 
# From -- ./inp_files/13924.got.cif
#   From: 2010.05.17/outbox.cif.g08.bks.cpg/sg63_7_cif.got.tgz:13924.got - 2010.06.03 15:47:04.
