data_PCOD9469229
_publ_section_title
;
Structure prediction by ZEFSAII (Michael W. Deem and Ramdas Pophale) SiO2 
 PCOD9469229
Probable space group: C M C M
;
_chemical_formula_sum "Si O2"
_cell_formula_units_Z 68
_cell_length_a 7.632522
_cell_length_b 19.628455
_cell_length_c 18.943886
_cell_angle_alpha 90.000000
_cell_angle_beta 90.000000
_cell_angle_gamma 90.000000
_cell_volume 2838.070980
_symmetry_space_group_name_H-M "C M C M"
_symmetry_group_IT_number 63
_symmetry_cell_setting 'orthorhombic'
loop_
_space_group_symop_operation_xyz
x,y,z
-x,-y,1/2+z
x,-y,-z
-x,y,1/2-z
-x,-y,-z
x,y,1/2-z
-x,y,z
x,-y,1/2+z
1/2+x,1/2+y,z
1/2-x,1/2-y,1/2+z
1/2+x,1/2-y,-z
1/2-x,1/2+y,1/2-z
1/2-x,1/2-y,-z
1/2+x,1/2+y,1/2-z
1/2-x,1/2+y,z
1/2+x,1/2-y,1/2+z
loop_
_atom_site_type_symbol
_atom_site_label
_atom_site_fract_x
_atom_site_fract_y
_atom_site_fract_z
Si Si1 0.708656 0.450108 0.250000
Si Si2 0.711355 0.297277 0.250000
Si Si3 0.000000 0.377175 0.750000
Si Si4 0.796772 0.930330 0.648842
Si Si5 0.302549 0.132013 0.488307
Si Si6 0.706813 0.766014 0.094571
O O1 0.500000 0.442150 0.250000
O O2 0.780310 0.374715 0.250000
O O3 0.751802 0.495803 0.181620
O O4 0.500000 0.292585 0.250000
O O5 0.771332 0.264606 0.322356
O O6 0.154809 0.383790 0.688613
O O7 0.784091 0.921500 0.564666
O O8 0.000000 0.916000 0.667905
O O9 0.500000 0.108775 0.501009
O O10 0.227495 0.161758 0.561795
O O11 0.297226 0.202357 0.442759
O O12 0.500000 0.760895 0.078423
#
# Coordination Sequence:
#
# PCOD9469229 Si02
#       6
#     8   8   4  16  16  16
#     4   8  19  37  56  81 115 155 198 243 292 344
#     4  11  22  40  60  82 115 156 202 242 288 356
#     4  10  18  32  50  86 118 144 190 232 288 342
#     4  10  19  35  59  87 119 155 193 244 296 346
#     4  10  20  38  61  87 119 154 195 245 299 356
#     4  10  22  39  59  86 119 155 196 243 299 356
#
# _framework density 23.959935000000002
#
# number of rings (size 3 to 8) (size 9 to 14) (size 15 to 20)
#    0.000    2.118    1.176    2.824    0.000    4.706 
#   10.588    5.882    0.000    7.059    0.000    0.000 
#    0.000    0.000    0.000    0.000    0.000    0.000 
#
# Total GULP energy -189303.216438 kJ/mol
# GULP energy per Si atom -5567.741660 kJ/mol
# Density = 2.390540 g / cm^3
# Si number density = 23.959935 Si / 1000 Ang^3
#
#
#
# Elastic Constant Matrix: (Units=GPa)
#
#
# Indices 1 2 3 4 5 6 
#
# 1 118.6916 -3.3940 5.0175 0.0000 0.0000 0.0000
# 2 -3.3940 45.9804 -5.2050 0.0000 0.0000 0.0000
# 3 5.0175 -5.2050 93.1929 0.0000 0.0000 0.0000
# 4 0.0000 0.0000 0.0000 89.3049 0.0000 0.0000
# 5 0.0000 0.0000 0.0000 0.0000 34.0109 0.0000
# 6 0.0000 0.0000 0.0000 0.0000 0.0000 5.5916
#
#
#
# Elastic Compliance Matrix: (Units=1/GPa)
#
#
# Indices 1 2 3 4 5 6 
#
# 1 0.008460 0.000577 -0.000423 0.000000 0.000000 0.000000
# 2 0.000577 0.021926 0.001194 0.000000 0.000000 0.000000
# 3 -0.000423 0.001194 0.010820 0.000000 0.000000 0.000000
# 4 0.000000 0.000000 0.000000 0.011198 0.000000 0.000000
# 5 0.000000 0.000000 0.000000 0.000000 0.029402 0.000000
# 6 0.000000 0.000000 0.000000 0.000000 0.000000 0.178841
#
#
# Mechanical properties :
#
#
# Convention : Reuss Voigt Hill
#
# Bulk Modulus (GPa) = 22.77946 27.85577 25.31761
# Shear Modulus (GPa) = 18.34287 43.21124 30.77706
#
# Velocity S-wave (km/s) = 2.76989 4.25135 3.58791
# Velocity P-wave (km/s) = 4.44496 5.97911 5.26818
#
# Compressibility (1/GPa) = 0.04389920
#
# Stress axis : x y z
#
# Youngs Moduli (GPa) = 118.20929 45.60779 92.42247
#
# Poissons Ratio (x) = -0.02629 0.03912
# Poissons Ratio (y) = -0.06815 -0.11031
# Poissons Ratio (z) = 0.05003 -0.05444
#
# Static dielectric constant tensor:
#      x y z
#    x 1.903450 0.000000 0.000000 
#    y 0.000000 2.004010 0.000000 
#    z 0.000000 0.000000 1.958220 
# 
# From -- ./inp_files/40021.got.cif
#   From: 2010.05.17/outbox.cif.g08.bks.cpg/sg63_21_cif.got.tgz:40021.got - 2010.06.03 15:47:04.
