data_PCOD9469233
_publ_section_title
;
Structure prediction by ZEFSAII (Michael W. Deem and Ramdas Pophale) SiO2 
 PCOD9469233
Probable space group: C M C M
;
_chemical_formula_sum "Si O2"
_cell_formula_units_Z 84
_cell_length_a 20.015697
_cell_length_b 14.149945
_cell_length_c 14.655718
_cell_angle_alpha 90.000000
_cell_angle_beta 90.000000
_cell_angle_gamma 90.000000
_cell_volume 4150.807279
_symmetry_space_group_name_H-M "C M C M"
_symmetry_group_IT_number 63
_symmetry_cell_setting 'orthorhombic'
loop_
_space_group_symop_operation_xyz
x,y,z
-x,-y,1/2+z
x,-y,-z
-x,y,1/2-z
-x,-y,-z
x,y,1/2-z
-x,y,z
x,-y,1/2+z
1/2+x,1/2+y,z
1/2-x,1/2-y,1/2+z
1/2+x,1/2-y,-z
1/2-x,1/2+y,1/2-z
1/2-x,1/2-y,-z
1/2+x,1/2+y,1/2-z
1/2-x,1/2+y,z
1/2+x,1/2-y,1/2+z
loop_
_atom_site_type_symbol
_atom_site_label
_atom_site_fract_x
_atom_site_fract_y
_atom_site_fract_z
Si Si1 0.270414 0.423962 0.143863
Si Si2 0.500000 0.453726 0.250000
Si Si3 0.214801 0.289145 0.643703
Si Si4 0.857177 0.400026 0.482904
Si Si5 0.125541 0.765798 0.856989
Si Si6 0.599077 0.473746 0.602479
O O1 0.251260 0.430448 0.250000
O O2 0.304401 0.321118 0.130584
O O3 0.206125 0.427260 0.080671
O O4 0.323105 0.503558 0.119206
O O5 0.442331 0.463142 0.171328
O O6 0.205100 0.315467 0.750000
O O7 0.173468 0.352997 0.574212
O O8 0.294957 0.286060 0.626194
O O9 0.893102 0.500000 0.500000
O O10 0.893974 0.318718 0.424710
O O11 0.118876 0.740666 0.750000
O O12 0.087936 0.863684 0.875616
O O13 0.582754 0.500000 0.500000
#
# Coordination Sequence:
#
# PCOD9469233 Si02
#       6
#    16   4  16  16  16  16
#     4  10  18  32  51  74 105 147 178 212 263 322
#     4  12  26  40  52  86 106 134 196 232 266 322
#     4   9  18  29  46  72 104 140 184 211 250 323
#     4  11  20  29  46  77 107 140 183 214 262 319
#     4  10  19  34  51  73 106 144 179 217 259 320
#     4  12  22  38  59  78 112 146 180 222 276 317
#
# _framework density 20.237027000000001
#
# number of rings (size 3 to 8) (size 9 to 14) (size 15 to 20)
#    0.000    1.524    1.905    8.286    0.000    3.048 
#    0.000    0.000    0.000    0.000    0.000    0.667 
#    0.000    1.905    0.000    0.000    0.000    0.000 
#
# Total GULP energy -234157.989587 kJ/mol
# GULP energy per Si atom -5575.190228 kJ/mol
# Density = 2.019097 g / cm^3
# Si number density = 20.237027 Si / 1000 Ang^3
#
#
#
# Elastic Constant Matrix: (Units=GPa)
#
#
# Indices 1 2 3 4 5 6 
#
# 1 10.5946 -8.8548 -9.2217 0.0000 0.0000 0.0000
# 2 -8.8548 92.8940 27.8649 0.0000 0.0000 0.0000
# 3 -9.2217 27.8649 127.2249 0.0000 0.0000 0.0000
# 4 0.0000 0.0000 0.0000 6.8043 0.0000 0.0000
# 5 0.0000 0.0000 0.0000 0.0000 14.4402 0.0000
# 6 0.0000 0.0000 0.0000 0.0000 0.0000 42.0592
#
#
#
# Elastic Compliance Matrix: (Units=1/GPa)
#
#
# Indices 1 2 3 4 5 6 
#
# 1 0.106521 0.008389 0.005884 0.000000 0.000000 0.000000
# 2 0.008389 0.012183 -0.002060 0.000000 0.000000 0.000000
# 3 0.005884 -0.002060 0.008738 0.000000 0.000000 0.000000
# 4 0.000000 0.000000 0.000000 0.146967 0.000000 0.000000
# 5 0.000000 0.000000 0.000000 0.000000 0.069251 0.000000
# 6 0.000000 0.000000 0.000000 0.000000 0.000000 0.023776
#
#
# Mechanical properties :
#
#
# Convention : Reuss Voigt Hill
#
# Bulk Modulus (GPa) = 6.58476 27.81002 17.19739
# Shear Modulus (GPa) = 12.70221 27.38906 20.04563
#
# Velocity S-wave (km/s) = 2.50806 3.68287 3.15070
# Velocity P-wave (km/s) = 3.41292 5.64417 4.66394
#
# Compressibility (1/GPa) = 0.15186572
#
# Stress axis : x y z
#
# Youngs Moduli (GPa) = 9.38785 82.08440 114.44545
#
# Poissons Ratio (x) = -0.68859 -0.67336
# Poissons Ratio (y) = -0.07875 0.23578
# Poissons Ratio (z) = -0.05524 0.16911
#
# Static dielectric constant tensor:
#      x y z
#    x 1.718770 0.000000 0.000000 
#    y 0.000000 1.805330 0.000000 
#    z 0.000000 0.000000 1.664540 
# 
# From -- ./inp_files/35184.got.cif
#   From: 2010.05.17/outbox.cif.g08.bks.cpg/sg63_18_cif.got.tgz:35184.got - 2010.06.03 15:47:04.
