data_PCOD9469529
_publ_section_title
;
Structure prediction by ZEFSAII (Michael W. Deem and Ramdas Pophale) SiO2 
 PCOD9469529
Probable space group: C M C M
;
_chemical_formula_sum "Si O2"
_cell_formula_units_Z 68
_cell_length_a 25.172325
_cell_length_b 8.077842
_cell_length_c 13.025476
_cell_angle_alpha 90.000000
_cell_angle_beta 90.000000
_cell_angle_gamma 90.000000
_cell_volume 2648.575074
_symmetry_space_group_name_H-M "C M C M"
_symmetry_group_IT_number 63
_symmetry_cell_setting 'orthorhombic'
loop_
_space_group_symop_operation_xyz
x,y,z
-x,-y,1/2+z
x,-y,-z
-x,y,1/2-z
-x,-y,-z
x,y,1/2-z
-x,y,z
x,-y,1/2+z
1/2+x,1/2+y,z
1/2-x,1/2-y,1/2+z
1/2+x,1/2-y,-z
1/2-x,1/2+y,1/2-z
1/2-x,1/2-y,-z
1/2+x,1/2+y,1/2-z
1/2-x,1/2+y,z
1/2+x,1/2-y,1/2+z
loop_
_atom_site_type_symbol
_atom_site_label
_atom_site_fract_x
_atom_site_fract_y
_atom_site_fract_z
Si Si1 0.000000 0.610984 0.750000
Si Si2 0.924577 0.750829 0.918722
Si Si3 0.687251 0.897214 0.125958
Si Si4 0.582164 0.375140 0.366892
Si Si5 0.197644 0.226730 0.871886
O O1 0.045630 0.628589 0.658207
O O2 0.862227 0.712075 0.908856
O O3 0.937365 0.936905 0.878730
O O4 0.938163 0.760817 0.040113
O O5 0.685924 0.889839 0.250000
O O6 0.745675 0.838286 0.092338
O O7 0.682348 0.088656 0.095442
O O8 0.571861 0.316030 0.250000
O O9 0.645832 0.385508 0.384970
O O10 0.204675 0.239112 0.750000
#
# Coordination Sequence:
#
# PCOD9469529 Si02
#       5
#     4  16  16  16  16
#     4  12  24  46  66 100 116 164 228 276 316 378
#     4  11  23  39  68  88 129 168 217 269 318 367
#     4  10  18  35  60 101 133 180 207 258 310 390
#     4  10  21  41  60  97 127 166 203 265 315 391
#     4   9  19  33  63  97 143 169 210 249 321 390
#
# _framework density 25.674181000000001
#
# number of rings (size 3 to 8) (size 9 to 14) (size 15 to 20)
#    0.000    1.882    2.353    1.412    0.000    7.529 
#    0.000    0.000    0.000    5.647    0.000    0.000 
#    0.000    0.000    0.000    0.000    0.000    0.000 
#
# Total GULP energy -189762.690221 kJ/mol
# GULP energy per Si atom -5581.255595 kJ/mol
# Density = 2.561575 g / cm^3
# Si number density = 25.674181 Si / 1000 Ang^3
#
#
#
# Elastic Constant Matrix: (Units=GPa)
#
#
# Indices 1 2 3 4 5 6 
#
# 1 128.4909 14.1077 25.8286 0.0000 0.0000 0.0000
# 2 14.1077 68.7501 15.7111 0.0000 0.0000 0.0000
# 3 25.8286 15.7111 196.5216 0.0000 0.0000 0.0000
# 4 0.0000 0.0000 0.0000 30.9291 0.0000 0.0000
# 5 0.0000 0.0000 0.0000 0.0000 35.8411 0.0000
# 6 0.0000 0.0000 0.0000 0.0000 0.0000 -641.5099
#
#
#
# Elastic Compliance Matrix: (Units=1/GPa)
#
#
# Indices 1 2 3 4 5 6 
#
# 1 0.008134 -0.001451 -0.000953 0.000000 0.000000 0.000000
# 2 -0.001451 0.015075 -0.001014 0.000000 0.000000 0.000000
# 3 -0.000953 -0.001014 0.005295 0.000000 0.000000 0.000000
# 4 0.000000 0.000000 0.000000 0.032332 0.000000 0.000000
# 5 0.000000 0.000000 0.000000 0.000000 0.027901 0.000000
# 6 0.000000 0.000000 0.000000 0.000000 0.000000 -0.001559
#
#
# Mechanical properties :
#
#
# Convention : Reuss Voigt Hill
#
# Bulk Modulus (GPa) = 46.15498 56.11748 51.13623
# Shear Modulus (GPa) = 49.38909 -92.40692 -21.50891
#
# Velocity S-wave (km/s) = 4.39074 -6.00586 -2.89756
# Velocity P-wave (km/s) = 6.61219 5.11749 2.96077
#
# Compressibility (1/GPa) = 0.02166614
#
# Stress axis : x y z
#
# Youngs Moduli (GPa) = 122.94750 66.33468 188.86289
#
# Poissons Ratio (x) = 0.09627 0.17998
# Poissons Ratio (y) = 0.17843 0.19159
# Poissons Ratio (z) = 0.11716 0.06729
#
# Static dielectric constant tensor:
#      x y z
#    x 1.990320 0.000000 0.000000 
#    y 0.000000 1.997420 0.000000 
#    z 0.000000 0.000000 2.075500 
# 
# From -- ./inp_files/37465.got.cif
#   From: 2010.05.17/outbox.cif.g08.bks.cpg/sg63_19_cif.got.tgz:37465.got - 2010.06.03 15:47:04.
