data_PCOD9469753
_publ_section_title
;
Structure prediction by ZEFSAII (Michael W. Deem and Ramdas Pophale) SiO2 
 PCOD9469753
Probable space group: C M C M
;
_chemical_formula_sum "Si O2"
_cell_formula_units_Z 96
_cell_length_a 23.433908
_cell_length_b 27.319652
_cell_length_c 8.794244
_cell_angle_alpha 90.000000
_cell_angle_beta 90.000000
_cell_angle_gamma 90.000000
_cell_volume 5630.129635
_symmetry_space_group_name_H-M "C M C M"
_symmetry_group_IT_number 63
_symmetry_cell_setting 'orthorhombic'
loop_
_space_group_symop_operation_xyz
x,y,z
-x,-y,1/2+z
x,-y,-z
-x,y,1/2-z
-x,-y,-z
x,y,1/2-z
-x,y,z
x,-y,1/2+z
1/2+x,1/2+y,z
1/2-x,1/2-y,1/2+z
1/2+x,1/2-y,-z
1/2-x,1/2+y,1/2-z
1/2-x,1/2-y,-z
1/2+x,1/2+y,1/2-z
1/2-x,1/2+y,z
1/2+x,1/2-y,1/2+z
loop_
_atom_site_type_symbol
_atom_site_label
_atom_site_fract_x
_atom_site_fract_y
_atom_site_fract_z
Si Si1 0.263384 0.800311 0.578582
Si Si2 0.833385 0.383060 0.428610
Si Si3 0.351690 0.637355 0.420658
Si Si4 0.268337 0.445925 0.566061
Si Si5 0.067363 0.672318 0.432620
Si Si6 0.066362 0.216521 0.567187
O O1 0.287606 0.795587 0.750000
O O2 0.250000 0.750000 0.500000
O O3 0.302614 0.832100 0.469582
O O4 0.204179 0.828866 0.591427
O O5 0.834890 0.392872 0.250000
O O6 0.791523 0.422187 0.509378
O O7 0.896041 0.371301 0.493803
O O8 0.373533 0.627290 0.250000
O O9 0.322693 0.587615 0.484542
O O10 0.396967 0.670906 0.507913
O O11 0.273403 0.500000 0.500000
O O12 0.268060 0.445325 0.750000
O O13 0.074288 0.669962 0.250000
O O14 0.084700 0.728161 0.481656
O O15 0.000000 0.667857 0.466002
O O16 0.069182 0.216672 0.750000
O O17 0.000000 0.210996 0.522724
#
# Coordination Sequence:
#
# PCOD9469753 Si02
#       6
#    16  16  16  16  16  16
#     4  10  19  30  44  67  99 131 165 205 250 300
#     4  11  21  32  49  74 102 133 168 205 250 303
#     4   9  19  32  47  70  98 127 160 202 249 298
#     4  10  21  38  57  77 100 126 163 210 261 312
#     4   9  18  33  51  72 103 142 178 212 249 288
#     4   9  18  31  48  72 102 137 174 207 241 287
#
# _framework density 17.051117999999999
#
# number of rings (size 3 to 8) (size 9 to 14) (size 15 to 20)
#    0.000    2.333    0.000    5.500    0.000    8.000 
#    0.000    1.667    0.000    1.000    0.000    0.000 
#    0.000    0.000    0.000    0.000    0.000    0.000 
#
# Total GULP energy -267327.416790 kJ/mol
# GULP energy per Si atom -5569.321183 kJ/mol
# Density = 1.701231 g / cm^3
# Si number density = 17.051118 Si / 1000 Ang^3
#
#
#
# Elastic Constant Matrix: (Units=GPa)
#
#
# Indices 1 2 3 4 5 6 
#
# 1 68.8001 18.6315 21.2605 0.0000 0.0000 0.0000
# 2 18.6315 71.4440 15.9478 0.0000 0.0000 0.0000
# 3 21.2605 15.9478 50.4341 0.0000 0.0000 0.0000
# 4 0.0000 0.0000 0.0000 25.1389 0.0000 0.0000
# 5 0.0000 0.0000 0.0000 0.0000 25.9336 0.0000
# 6 0.0000 0.0000 0.0000 0.0000 0.0000 25.1127
#
#
#
# Elastic Compliance Matrix: (Units=1/GPa)
#
#
# Indices 1 2 3 4 5 6 
#
# 1 0.017330 -0.003108 -0.006323 0.000000 0.000000 0.000000
# 2 -0.003108 0.015617 -0.003628 0.000000 0.000000 0.000000
# 3 -0.006323 -0.003628 0.023640 0.000000 0.000000 0.000000
# 4 0.000000 0.000000 0.000000 0.039779 0.000000 0.000000
# 5 0.000000 0.000000 0.000000 0.000000 0.038560 0.000000
# 6 0.000000 0.000000 0.000000 0.000000 0.000000 0.039821
#
#
# Mechanical properties :
#
#
# Convention : Reuss Voigt Hill
#
# Bulk Modulus (GPa) = 32.81901 33.59528 33.20714
# Shear Modulus (GPa) = 23.69413 24.22626 23.96019
#
# Velocity S-wave (km/s) = 3.73177 3.77344 3.75266
# Velocity P-wave (km/s) = 6.15283 6.22339 6.18821
#
# Compressibility (1/GPa) = 0.03047015
#
# Stress axis : x y z
#
# Youngs Moduli (GPa) = 57.70196 64.03110 42.30035
#
# Poissons Ratio (x) = 0.19902 0.26746
# Poissons Ratio (y) = 0.17934 0.15347
# Poissons Ratio (z) = 0.36484 0.23231
#
# Static dielectric constant tensor:
#      x y z
#    x 1.598370 0.000000 0.000000 
#    y 0.000000 1.561700 0.000000 
#    z 0.000000 0.000000 1.598120 
# 
# From -- ./inp_files/10715.got.cif
#   From: 2010.05.17/outbox.cif.g08.bks.cpg/sg63_6_cif.got.tgz:10715.got - 2010.06.03 15:47:04.
