data_PCOD9469804
_publ_section_title
;
Structure prediction by ZEFSAII (Michael W. Deem and Ramdas Pophale) SiO2 
 PCOD9469804
Probable space group: C M C M
;
_chemical_formula_sum "Si O2"
_cell_formula_units_Z 104
_cell_length_a 22.745226
_cell_length_b 30.931399
_cell_length_c 8.927149
_cell_angle_alpha 90.000000
_cell_angle_beta 90.000000
_cell_angle_gamma 90.000000
_cell_volume 6280.621233
_symmetry_space_group_name_H-M "C M C M"
_symmetry_group_IT_number 63
_symmetry_cell_setting 'orthorhombic'
loop_
_space_group_symop_operation_xyz
x,y,z
-x,-y,1/2+z
x,-y,-z
-x,y,1/2-z
-x,-y,-z
x,y,1/2-z
-x,y,z
x,-y,1/2+z
1/2+x,1/2+y,z
1/2-x,1/2-y,1/2+z
1/2+x,1/2-y,-z
1/2-x,1/2+y,1/2-z
1/2-x,1/2-y,-z
1/2+x,1/2+y,1/2-z
1/2-x,1/2+y,z
1/2+x,1/2-y,1/2+z
loop_
_atom_site_type_symbol
_atom_site_label
_atom_site_fract_x
_atom_site_fract_y
_atom_site_fract_z
Si Si1 0.287166 0.046259 0.929299
Si Si2 0.070179 0.690706 0.572756
Si Si3 0.500000 0.047471 0.430107
Si Si4 0.571439 0.720169 0.923104
Si Si5 0.567875 0.624733 0.932868
Si Si6 0.350302 0.454099 0.069958
Si Si7 0.385719 0.104022 0.070529
O O1 0.293382 0.044373 0.750000
O O2 0.218400 0.053621 0.965936
O O3 0.328663 0.082748 0.997127
O O4 0.304100 0.000000 0.000000
O O5 0.078691 0.686388 0.750000
O O6 0.089258 0.738170 0.517492
O O7 0.102315 0.652222 0.487001
O O8 0.000000 0.686915 0.541588
O O9 0.500000 0.043519 0.250000
O O10 0.557871 0.074616 0.473338
O O11 0.500000 0.000000 0.500000
O O12 0.589890 0.725571 0.750000
O O13 0.500000 0.718833 0.923328
O O14 0.589312 0.672574 0.979453
O O15 0.567887 0.625681 0.750000
O O16 0.500000 0.618485 0.979617
O O17 0.609124 0.585519 0.981317
O O18 0.354971 0.457188 0.250000
O O19 0.367742 0.500000 0.000000
O O20 0.381203 0.103525 0.250000
#
# Coordination Sequence:
#
# PCOD9469804 Si02
#       7
#    16  16   8  16  16  16  16
#     4  10  20  34  50  69  93 126 166 203 241 285
#     4  10  19  30  46  70  99 128 156 193 243 293
#     4  10  22  34  46  66  92 120 150 192 243 288
#     4   8  14  26  46  69  94 126 161 196 233 282
#     4   8  14  27  49  76 102 130 163 196 237 286
#     4   9  18  32  50  72 100 131 164 201 237 282
#     4  11  21  34  50  69  93 124 162 203 244 288
#
# _framework density 16.558869999999999
#
# number of rings (size 3 to 8) (size 9 to 14) (size 15 to 20)
#    0.000    2.615    0.769    2.769    0.000    4.000 
#    0.000    0.769    0.000    1.846    0.000    0.000 
#    0.000    0.000    0.000    0.000    0.000    0.000 
#
# Total GULP energy -289910.108706 kJ/mol
# GULP energy per Si atom -5575.194398 kJ/mol
# Density = 1.652118 g / cm^3
# Si number density = 16.558870 Si / 1000 Ang^3
#
#
#
# Elastic Constant Matrix: (Units=GPa)
#
#
# Indices 1 2 3 4 5 6 
#
# 1 52.3453 66.8318 27.7678 0.0000 0.0000 0.0000
# 2 66.8318 170.4533 45.8193 0.0000 0.0000 0.0000
# 3 27.7678 45.8193 33.7497 0.0000 0.0000 0.0000
# 4 0.0000 0.0000 0.0000 26.8737 0.0000 0.0000
# 5 0.0000 0.0000 0.0000 0.0000 14.3300 0.0000
# 6 0.0000 0.0000 0.0000 0.0000 0.0000 17.1743
#
#
#
# Elastic Compliance Matrix: (Units=1/GPa)
#
#
# Indices 1 2 3 4 5 6 
#
# 1 0.046172 -0.012427 -0.021118 0.000000 0.000000 0.000000
# 2 -0.012427 0.012583 -0.006858 0.000000 0.000000 0.000000
# 3 -0.021118 -0.006858 0.056315 0.000000 0.000000 0.000000
# 4 0.000000 0.000000 0.000000 0.037211 0.000000 0.000000
# 5 0.000000 0.000000 0.000000 0.000000 0.069784 0.000000
# 6 0.000000 0.000000 0.000000 0.000000 0.000000 0.058227
#
#
# Mechanical properties :
#
#
# Convention : Reuss Voigt Hill
#
# Bulk Modulus (GPa) = 29.18437 59.70956 44.44696
# Shear Modulus (GPa) = 13.42218 19.41756 16.41987
#
# Velocity S-wave (km/s) = 2.85015 3.42809 3.15239
# Velocity P-wave (km/s) = 5.33798 7.19766 6.33642
#
# Compressibility (1/GPa) = 0.03426492
#
# Stress axis : x y z
#
# Youngs Moduli (GPa) = 21.65817 79.47536 17.75717
#
# Poissons Ratio (x) = 0.98761 0.37499
# Poissons Ratio (y) = 0.26914 0.12178
# Poissons Ratio (z) = 0.45737 0.54506
#
# Static dielectric constant tensor:
#      x y z
#    x 1.545280 0.000000 0.000000 
#    y 0.000000 1.554240 0.000000 
#    z 0.000000 0.000000 1.555080 
# 
# From -- ./inp_files/10831.got.cif
#   From: 2010.05.17/outbox.cif.g08.bks.cpg/sg63_6_cif.got.tgz:10831.got - 2010.06.03 15:47:04.
