data_PCOD9469445
_publ_section_title
;
Structure prediction by ZEFSAII (Michael W. Deem and Ramdas Pophale) SiO2 
 PCOD9469445
Probable space group: C M C M
;
_chemical_formula_sum "Si O2"
_cell_formula_units_Z 56
_cell_length_a 18.487715
_cell_length_b 11.828954
_cell_length_c 14.917679
_cell_angle_alpha 90.000000
_cell_angle_beta 90.000000
_cell_angle_gamma 90.000000
_cell_volume 3262.352148
_symmetry_space_group_name_H-M "C M C M"
_symmetry_group_IT_number 63
_symmetry_cell_setting 'orthorhombic'
loop_
_space_group_symop_operation_xyz
x,y,z
-x,-y,1/2+z
x,-y,-z
-x,y,1/2-z
-x,-y,-z
x,y,1/2-z
-x,y,z
x,-y,1/2+z
1/2+x,1/2+y,z
1/2-x,1/2-y,1/2+z
1/2+x,1/2-y,-z
1/2-x,1/2+y,1/2-z
1/2-x,1/2-y,-z
1/2+x,1/2+y,1/2-z
1/2-x,1/2+y,z
1/2+x,1/2-y,1/2+z
loop_
_atom_site_type_symbol
_atom_site_label
_atom_site_fract_x
_atom_site_fract_y
_atom_site_fract_z
Si Si1 0.699873 0.588941 0.250000
Si Si2 0.079394 0.562052 0.594214
Si Si3 0.127888 0.597859 0.250000
Si Si4 0.824664 0.842952 0.250000
Si Si5 0.714204 0.230801 0.901750
O O1 0.786595 0.567059 0.250000
O O2 0.654231 0.473913 0.250000
O O3 0.690308 0.660658 0.158266
O O4 0.078737 0.500000 0.500000
O O5 0.093779 0.463530 0.665492
O O6 0.144553 0.650684 0.594020
O O7 0.000000 0.613702 0.611494
O O8 0.122632 0.734118 0.250000
O O9 0.774861 0.825383 0.162066
O O10 0.750000 0.250000 0.000000
#
# Coordination Sequence:
#
# PCOD9469445 Si02
#       5
#     8  16   8   8  16
#     4  10  19  34  50  77 110 135 180 231 262 323
#     4  11  21  34  54  80 109 140 180 225 277 331
#     4  10  18  34  51  76 112 136 174 224 272 312
#     4  10  20  32  51  79 111 133 180 229 263 325
#     4  10  20  33  54  78 109 142 179 226 273 319
#
# _framework density 17.165527999999998
#
# number of rings (size 3 to 8) (size 9 to 14) (size 15 to 20)
#    0.000    2.000    2.857    4.714    0.000    0.000 
#    0.000    0.000    0.000    3.429    0.000    6.000 
#    0.000    0.000    0.000    0.000    0.000    0.000 
#
# Total GULP energy -155937.989682 kJ/mol
# GULP energy per Si atom -5569.213917 kJ/mol
# Density = 1.712646 g / cm^3
# Si number density = 17.165528 Si / 1000 Ang^3
#
#
#
# Elastic Constant Matrix: (Units=GPa)
#
#
# Indices 1 2 3 4 5 6 
#
# 1 72.1372 39.6304 43.8700 0.0000 0.0000 0.0000
# 2 39.6304 131.0759 67.0884 0.0000 0.0000 0.0000
# 3 43.8700 67.0884 156.6351 0.0000 0.0000 0.0000
# 4 0.0000 0.0000 0.0000 13.9689 0.0000 0.0000
# 5 0.0000 0.0000 0.0000 0.0000 21.7335 0.0000
# 6 0.0000 0.0000 0.0000 0.0000 0.0000 19.1978
#
#
#
# Elastic Compliance Matrix: (Units=1/GPa)
#
#
# Indices 1 2 3 4 5 6 
#
# 1 0.017984 -0.003662 -0.003468 0.000000 0.000000 0.000000
# 2 -0.003662 0.010517 -0.003479 0.000000 0.000000 0.000000
# 3 -0.003468 -0.003479 0.008846 0.000000 0.000000 0.000000
# 4 0.000000 0.000000 0.000000 0.071588 0.000000 0.000000
# 5 0.000000 0.000000 0.000000 0.000000 0.046012 0.000000
# 6 0.000000 0.000000 0.000000 0.000000 0.000000 0.052089
#
#
# Mechanical properties :
#
#
# Convention : Reuss Voigt Hill
#
# Bulk Modulus (GPa) = 62.00496 73.44732 67.72614
# Shear Modulus (GPa) = 21.40138 24.93064 23.16601
#
# Velocity S-wave (km/s) = 3.53479 3.81513 3.67763
# Velocity P-wave (km/s) = 7.27048 7.89224 7.58773
#
# Compressibility (1/GPa) = 0.01612774
#
# Stress axis : x y z
#
# Youngs Moduli (GPa) = 55.60625 95.08437 113.04955
#
# Poissons Ratio (x) = 0.34821 0.39209
# Poissons Ratio (y) = 0.20364 0.39328
# Poissons Ratio (z) = 0.19286 0.33078
#
# Static dielectric constant tensor:
#      x y z
#    x 1.586220 0.000000 0.000000 
#    y 0.000000 1.611750 0.000000 
#    z 0.000000 0.000000 1.568980 
# 
# From -- ./inp_files/33291.got.cif
#   From: 2010.05.17/outbox.cif.g08.bks.cpg/sg63_17_cif.got.tgz:33291.got - 2010.06.03 15:47:04.
