data_PCOD9469929
_publ_section_title
;
Structure prediction by ZEFSAII (Michael W. Deem and Ramdas Pophale) SiO2 
 PCOD9469929
Probable space group: C M C M
;
_chemical_formula_sum "Si O2"
_cell_formula_units_Z 80
_cell_length_a 24.358336
_cell_length_b 26.887168
_cell_length_c 8.703179
_cell_angle_alpha 90.000000
_cell_angle_beta 90.000000
_cell_angle_gamma 90.000000
_cell_volume 5699.944060
_symmetry_space_group_name_H-M "C M C M"
_symmetry_group_IT_number 63
_symmetry_cell_setting 'orthorhombic'
loop_
_space_group_symop_operation_xyz
x,y,z
-x,-y,1/2+z
x,-y,-z
-x,y,1/2-z
-x,-y,-z
x,y,1/2-z
-x,y,z
x,-y,1/2+z
1/2+x,1/2+y,z
1/2-x,1/2-y,1/2+z
1/2+x,1/2-y,-z
1/2-x,1/2+y,1/2-z
1/2-x,1/2-y,-z
1/2+x,1/2+y,1/2-z
1/2-x,1/2+y,z
1/2+x,1/2-y,1/2+z
loop_
_atom_site_type_symbol
_atom_site_label
_atom_site_fract_x
_atom_site_fract_y
_atom_site_fract_z
Si Si1 0.500000 0.217338 0.066478
Si Si2 0.884332 0.554784 0.434764
Si Si3 0.115223 0.741965 0.565522
Si Si4 0.685779 0.856354 0.065786
Si Si5 0.719158 0.701461 0.434489
Si Si6 0.000000 0.602301 0.063361
O O1 0.500000 0.216647 0.250000
O O2 0.500000 0.159637 0.011076
O O3 0.444412 0.242480 0.007856
O O4 0.875138 0.500000 0.500000
O O5 0.883191 0.553929 0.250000
O O6 0.840221 0.594225 0.496112
O O7 0.944581 0.574535 0.485529
O O8 0.110138 0.741111 0.750000
O O9 0.146419 0.690476 0.520627
O O10 0.155765 0.787627 0.524639
O O11 0.686584 0.858493 0.250000
O O12 0.746626 0.843925 0.004207
O O13 0.723514 0.700803 0.250000
O O14 0.750000 0.750000 0.500000
O O15 0.000000 0.602914 0.250000
#
# Coordination Sequence:
#
# PCOD9469929 Si02
#       6
#     8  16  16  16  16   8
#     4  11  19  28  44  64  85 114 149 183 219 256
#     4  11  21  34  47  62  84 111 148 190 230 267
#     4   9  18  30  43  62  86 111 141 175 216 261
#     4  10  19  31  46  64  83 109 143 180 223 265
#     4   9  17  29  45  64  84 108 138 175 217 262
#     4   9  19  32  44  60  81 111 149 190 230 262
#
# _framework density 14.035226
#
# number of rings (size 3 to 8) (size 9 to 14) (size 15 to 20)
#    0.000    2.200    2.000    3.600    0.000    4.000 
#    0.000    1.500    0.000    0.000    0.000    0.000 
#    0.000    0.000    0.000    0.900    0.000   11.800 
#
# Total GULP energy -222977.035972 kJ/mol
# GULP energy per Si atom -5574.425899 kJ/mol
# Density = 1.400328 g / cm^3
# Si number density = 14.035226 Si / 1000 Ang^3
#
#
#
# Elastic Constant Matrix: (Units=GPa)
#
#
# Indices 1 2 3 4 5 6 
#
# 1 127.0183 69.0952 42.8253 0.0000 0.0000 0.0000
# 2 69.0952 76.2157 29.1016 0.0000 0.0000 0.0000
# 3 42.8253 29.1016 42.8662 0.0000 0.0000 0.0000
# 4 0.0000 0.0000 0.0000 19.2907 0.0000 0.0000
# 5 0.0000 0.0000 0.0000 0.0000 22.1877 0.0000
# 6 0.0000 0.0000 0.0000 0.0000 0.0000 14.0183
#
#
#
# Elastic Compliance Matrix: (Units=1/GPa)
#
#
# Indices 1 2 3 4 5 6 
#
# 1 0.017901 -0.012689 -0.009269 0.000000 0.000000 0.000000
# 2 -0.012689 0.026707 -0.005454 0.000000 0.000000 0.000000
# 3 -0.009269 -0.005454 0.036291 0.000000 0.000000 0.000000
# 4 0.000000 0.000000 0.000000 0.051838 0.000000 0.000000
# 5 0.000000 0.000000 0.000000 0.000000 0.045070 0.000000
# 6 0.000000 0.000000 0.000000 0.000000 0.000000 0.071336
#
#
# Mechanical properties :
#
#
# Convention : Reuss Voigt Hill
#
# Bulk Modulus (GPa) = 38.35187 58.68270 48.51729
# Shear Modulus (GPa) = 15.99190 18.10453 17.04822
#
# Velocity S-wave (km/s) = 3.37918 3.59546 3.48900
# Velocity P-wave (km/s) = 6.52763 7.69014 7.13261
#
# Compressibility (1/GPa) = 0.02607435
#
# Stress axis : x y z
#
# Youngs Moduli (GPa) = 55.86434 37.44377 27.55477
#
# Poissons Ratio (x) = 0.47512 0.25540
# Poissons Ratio (y) = 0.70886 0.15029
# Poissons Ratio (z) = 0.51780 0.20423
#
# Static dielectric constant tensor:
#      x y z
#    x 1.469450 0.000000 0.000000 
#    y 0.000000 1.414300 0.000000 
#    z 0.000000 0.000000 1.466050 
# 
# From -- ./inp_files/8435.got.cif
#   From: 2010.05.17/outbox.cif.g08.bks.cpg/sg63_5_cif.got.tgz:8435.got - 2010.06.03 15:47:04.
