data_PCOD9469124
_publ_section_title
;
Structure prediction by ZEFSAII (Michael W. Deem and Ramdas Pophale) SiO2 
 PCOD9469124
Probable space group: C M C M
;
_chemical_formula_sum "Si O2"
_cell_formula_units_Z 128
_cell_length_a 20.368192
_cell_length_b 21.420662
_cell_length_c 14.879291
_cell_angle_alpha 90.000000
_cell_angle_beta 90.000000
_cell_angle_gamma 90.000000
_cell_volume 6491.836990
_symmetry_space_group_name_H-M "C M C M"
_symmetry_group_IT_number 63
_symmetry_cell_setting 'orthorhombic'
loop_
_space_group_symop_operation_xyz
x,y,z
-x,-y,1/2+z
x,-y,-z
-x,y,1/2-z
-x,-y,-z
x,y,1/2-z
-x,y,z
x,-y,1/2+z
1/2+x,1/2+y,z
1/2-x,1/2-y,1/2+z
1/2+x,1/2-y,-z
1/2-x,1/2+y,1/2-z
1/2-x,1/2-y,-z
1/2+x,1/2+y,1/2-z
1/2-x,1/2+y,z
1/2+x,1/2-y,1/2+z
loop_
_atom_site_type_symbol
_atom_site_label
_atom_site_fract_x
_atom_site_fract_y
_atom_site_fract_z
Si Si1 0.789277 0.353075 0.860303
Si Si2 0.073115 0.170924 0.892567
Si Si3 0.927993 0.070897 0.352782
Si Si4 0.788218 0.887290 0.357486
Si Si5 0.209448 0.974802 0.639290
Si Si6 0.293070 0.768682 0.358737
Si Si7 0.071908 0.313807 0.647016
Si Si8 0.073132 0.210630 0.400242
O O1 0.790821 0.351628 0.750000
O O2 0.755531 0.417488 0.887443
O O3 0.746626 0.293077 0.888115
O O4 0.863610 0.344480 0.894082
O O5 0.134863 0.127664 0.872656
O O6 0.082929 0.239160 0.849035
O O7 0.000000 0.147288 0.867513
O O8 0.072940 0.187660 0.997355
O O9 0.932035 0.048478 0.250000
O O10 0.915071 0.145362 0.349040
O O11 0.000000 0.061793 0.395501
O O12 0.864364 0.039333 0.393977
O O13 0.778987 0.887976 0.250000
O O14 0.770732 0.956230 0.390802
O O15 0.743701 0.830541 0.392942
O O16 0.208081 0.974066 0.750000
O O17 0.290771 0.769695 0.250000
O O18 0.368469 0.758746 0.385486
O O19 0.068090 0.335941 0.750000
O O20 0.000000 0.323625 0.604159
O O21 0.000000 0.233758 0.377132
#
# Coordination Sequence:
#
# PCOD9469124 Si02
#       8
#    16  16  16  16  16  16  16  16
#     4   9  15  27  48  72  93 118 156 200 238 275
#     4  10  20  32  46  70 102 132 159 191 240 291
#     4   9  16  28  47  68  88 118 162 199 230 275
#     4  10  20  33  49  72 100 129 159 194 239 288
#     4   9  17  29  47  70  96 124 155 196 238 279
#     4  10  18  31  52  74  94 122 160 200 241 283
#     4   9  16  28  48  71  94 121 156 197 239 286
#     4  10  20  32  48  71  98 127 162 203 239 275
#
# _framework density 19.717068999999999
#
# number of rings (size 3 to 8) (size 9 to 14) (size 15 to 20)
#    0.000    2.500    2.500    0.750    0.000    2.500 
#    0.000    1.875    0.000    3.000    0.000    3.500 
#    0.000    3.000    0.000    0.000    0.000    0.000 
#
# Total GULP energy -357029.397505 kJ/mol
# GULP energy per Si atom -5578.584336 kJ/mol
# Density = 1.967219 g / cm^3
# Si number density = 19.717069 Si / 1000 Ang^3
#
#
#
# Elastic Constant Matrix: (Units=GPa)
#
#
# Indices 1 2 3 4 5 6 
#
# 1 146.4626 90.0341 1.5015 0.0000 0.0000 0.0000
# 2 90.0341 137.7940 5.9818 0.0000 0.0000 0.0000
# 3 1.5015 5.9818 34.1936 0.0000 0.0000 0.0000
# 4 0.0000 0.0000 0.0000 -3.3903 0.0000 0.0000
# 5 0.0000 0.0000 0.0000 0.0000 10.4471 0.0000
# 6 0.0000 0.0000 0.0000 0.0000 0.0000 21.4965
#
#
#
# Elastic Compliance Matrix: (Units=1/GPa)
#
#
# Indices 1 2 3 4 5 6 
#
# 1 0.011433 -0.007506 0.000811 0.000000 0.000000 0.000000
# 2 -0.007506 0.012240 -0.001812 0.000000 0.000000 0.000000
# 3 0.000811 -0.001812 0.029527 0.000000 0.000000 0.000000
# 4 0.000000 0.000000 0.000000 -0.294959 0.000000 0.000000
# 5 0.000000 0.000000 0.000000 0.000000 0.095721 0.000000
# 6 0.000000 0.000000 0.000000 0.000000 0.000000 0.046519
#
#
# Mechanical properties :
#
#
# Convention : Reuss Voigt Hill
#
# Bulk Modulus (GPa) = 27.63412 57.05389 42.34400
# Shear Modulus (GPa) = -70.97773 20.43951 -25.26911
#
# Velocity S-wave (km/s) = -6.00635 3.22318 -3.58381
# Velocity P-wave (km/s) = 5.83575 6.54607 2.09703
#
# Compressibility (1/GPa) = 0.03618715
#
# Stress axis : x y z
#
# Youngs Moduli (GPa) = 87.46389 81.69911 33.86781
#
# Poissons Ratio (x) = 0.61321 -0.02747
# Poissons Ratio (y) = 0.65648 0.06136
# Poissons Ratio (z) = -0.07093 0.14801
#
# Static dielectric constant tensor:
#      x y z
#    x 1.725610 0.000000 0.000000 
#    y 0.000000 1.678210 0.000000 
#    z 0.000000 0.000000 1.592260 
# 
# From -- ./inp_files/56989.got.cif
#   From: 2010.05.17/outbox.cif.g08.bks.cpg/sg63_29_cif.got.tgz:56989.got - 2010.06.03 15:47:04.
