data_PCOD9469962
_publ_section_title
;
Structure prediction by ZEFSAII (Michael W. Deem and Ramdas Pophale) SiO2 
 PCOD9469962
Probable space group: C M C M
;
_chemical_formula_sum "Si O2"
_cell_formula_units_Z 104
_cell_length_a 20.917631
_cell_length_b 30.015548
_cell_length_c 7.439657
_cell_angle_alpha 90.000000
_cell_angle_beta 90.000000
_cell_angle_gamma 90.000000
_cell_volume 4671.019577
_symmetry_space_group_name_H-M "C M C M"
_symmetry_group_IT_number 63
_symmetry_cell_setting 'orthorhombic'
loop_
_space_group_symop_operation_xyz
x,y,z
-x,-y,1/2+z
x,-y,-z
-x,y,1/2-z
-x,-y,-z
x,y,1/2-z
-x,y,z
x,-y,1/2+z
1/2+x,1/2+y,z
1/2-x,1/2-y,1/2+z
1/2+x,1/2-y,-z
1/2-x,1/2+y,1/2-z
1/2-x,1/2-y,-z
1/2+x,1/2+y,1/2-z
1/2-x,1/2+y,z
1/2+x,1/2-y,1/2+z
loop_
_atom_site_type_symbol
_atom_site_label
_atom_site_fract_x
_atom_site_fract_y
_atom_site_fract_z
Si Si1 0.242794 0.185607 0.465728
Si Si2 0.500000 0.946685 0.965323
Si Si3 0.400106 0.549815 0.035453
Si Si4 0.635047 0.052552 0.464897
Si Si5 0.000000 0.772127 0.530102
Si Si6 0.640382 0.757952 0.463713
Si Si7 0.000000 0.876525 0.530380
Si Si8 0.730419 0.414133 0.970031
O O1 0.239289 0.186871 0.250000
O O2 0.316593 0.197725 0.509259
O O3 0.190640 0.220936 0.535914
O O4 0.221740 0.136867 0.523348
O O5 0.500000 0.940989 0.750000
O O6 0.432518 0.929045 0.035373
O O7 0.500000 0.000000 0.000000
O O8 0.399847 0.553982 0.250000
O O9 0.440700 0.592358 0.971844
O O10 0.327795 0.555327 0.968334
O O11 0.424715 0.500000 0.000000
O O12 0.635096 0.059552 0.250000
O O13 0.700527 0.071484 0.536914
O O14 0.635538 0.000000 0.500000
O O15 0.932677 0.749003 0.470891
O O16 0.000000 0.771257 0.750000
O O17 0.000000 0.824697 0.475371
O O18 0.635878 0.751560 0.250000
O O19 0.000000 0.875015 0.750000
O O20 0.731137 0.415965 0.750000
#
# Coordination Sequence:
#
# PCOD9469962 Si02
#       8
#    16   8  16  16   8  16   8  16
#     4   9  17  31  49  68  92 121 151 186 232 282
#     4   8  14  24  39  56  74  99 131 166 201 239
#     4  10  19  31  47  68  95 126 161 198 235 273
#     4   9  16  27  42  60  82 108 140 176 213 252
#     4   9  16  29  51  75  95 122 163 202 235 282
#     4   9  17  30  50  72  92 116 150 192 234 277
#     4   9  17  29  48  71  93 123 163 198 227 273
#     4   9  17  29  46  66  88 117 152 185 217 265
#
# _framework density 22.264948
#
# number of rings (size 3 to 8) (size 9 to 14) (size 15 to 20)
#    0.000    2.923    0.000    1.615    0.000    3.692 
#    0.000    2.692    0.000    5.538    0.000    3.231 
#    0.000    0.000    0.000    0.000    0.000    0.000 
#
# Total GULP energy -289808.207764 kJ/mol
# GULP energy per Si atom -5573.234765 kJ/mol
# Density = 2.221427 g / cm^3
# Si number density = 22.264948 Si / 1000 Ang^3
#
#
#
# Elastic Constant Matrix: (Units=GPa)
#
#
# Indices 1 2 3 4 5 6 
#
# 1 158.3999 21.9001 9.7179 0.0000 0.0000 0.0000
# 2 21.9001 45.2293 -6.2749 0.0000 0.0000 0.0000
# 3 9.7179 -6.2749 71.5720 0.0000 0.0000 0.0000
# 4 0.0000 0.0000 0.0000 12.2514 0.0000 0.0000
# 5 0.0000 0.0000 0.0000 0.0000 56.6010 0.0000
# 6 0.0000 0.0000 0.0000 0.0000 0.0000 27.8947
#
#
#
# Elastic Compliance Matrix: (Units=1/GPa)
#
#
# Indices 1 2 3 4 5 6 
#
# 1 0.006873 -0.003500 -0.001240 0.000000 0.000000 0.000000
# 2 -0.003500 0.024164 0.002594 0.000000 0.000000 0.000000
# 3 -0.001240 0.002594 0.014368 0.000000 0.000000 0.000000
# 4 0.000000 0.000000 0.000000 0.081623 0.000000 0.000000
# 5 0.000000 0.000000 0.000000 0.000000 0.017668 0.000000
# 6 0.000000 0.000000 0.000000 0.000000 0.000000 0.035849
#
#
# Mechanical properties :
#
#
# Convention : Reuss Voigt Hill
#
# Bulk Modulus (GPa) = 24.32363 36.20971 30.26667
# Shear Modulus (GPa) = 25.18367 36.00663 30.59515
#
# Velocity S-wave (km/s) = 3.36682 4.02579 3.71096
# Velocity P-wave (km/s) = 5.10512 6.15693 5.65553
#
# Compressibility (1/GPa) = 0.04111229
#
# Stress axis : x y z
#
# Youngs Moduli (GPa) = 145.49424 41.38368 69.60045
#
# Poissons Ratio (x) = 0.14484 0.08631
# Poissons Ratio (y) = 0.50923 -0.18053
# Poissons Ratio (z) = 0.18042 -0.10734
#
# Static dielectric constant tensor:
#      x y z
#    x 1.878000 0.000000 0.000000 
#    y 0.000000 1.804800 0.000000 
#    z 0.000000 0.000000 1.833620 
# 
# From -- ./inp_files/21776.got.cif
#   From: 2010.05.17/outbox.cif.g08.bks.cpg/sg63_11_cif.got.tgz:21776.got - 2010.06.03 15:47:04.
