data_PCOD9469288
_publ_section_title
;
Structure prediction by ZEFSAII (Michael W. Deem and Ramdas Pophale) SiO2 
 PCOD9469288
Probable space group: C M C M
;
_chemical_formula_sum "Si O2"
_cell_formula_units_Z 80
_cell_length_a 28.643041
_cell_length_b 8.700301
_cell_length_c 15.532836
_cell_angle_alpha 90.000000
_cell_angle_beta 90.000000
_cell_angle_gamma 90.000000
_cell_volume 3870.830545
_symmetry_space_group_name_H-M "C M C M"
_symmetry_group_IT_number 63
_symmetry_cell_setting 'orthorhombic'
loop_
_space_group_symop_operation_xyz
x,y,z
-x,-y,1/2+z
x,-y,-z
-x,y,1/2-z
-x,-y,-z
x,y,1/2-z
-x,y,z
x,-y,1/2+z
1/2+x,1/2+y,z
1/2-x,1/2-y,1/2+z
1/2+x,1/2-y,-z
1/2-x,1/2+y,1/2-z
1/2-x,1/2-y,-z
1/2+x,1/2+y,1/2-z
1/2-x,1/2+y,z
1/2+x,1/2-y,1/2+z
loop_
_atom_site_type_symbol
_atom_site_label
_atom_site_fract_x
_atom_site_fract_y
_atom_site_fract_z
Si Si1 0.809243 0.862213 0.145321
Si Si2 0.906224 0.705458 0.153230
Si Si3 0.447368 0.680443 0.486979
Si Si4 0.715504 0.704222 0.145517
Si Si5 0.871062 0.400907 0.086934
O O1 0.808003 0.862701 0.250000
O O2 0.799213 0.034908 0.115520
O O3 0.859960 0.798776 0.123111
O O4 0.767150 0.752611 0.115985
O O5 0.918802 0.752568 0.250000
O O6 0.944023 0.740426 0.080903
O O7 0.891563 0.527348 0.151640
O O8 0.437693 0.500000 0.500000
O O9 0.500000 0.697093 0.452542
O O10 0.408833 0.767214 0.430187
O O11 0.715971 0.702255 0.250000
O O12 0.677228 0.827141 0.116468
O O13 0.864824 0.500000 0.000000
#
# Coordination Sequence:
#
# PCOD9469288 Si02
#       5
#    16  16  16  16  16
#     4   9  18  31  52  80 109 143 179 221 269 315
#     4  10  20  36  58  84 112 143 185 229 270 323
#     4  10  22  41  61  80 108 145 181 224 282 336
#     4  10  18  32  53  76 107 145 184 221 264 321
#     4  10  21  35  54  80 108 142 178 222 276 328
#
# _framework density 20.667400000000001
#
# number of rings (size 3 to 8) (size 9 to 14) (size 15 to 20)
#    0.000    2.200    0.000    3.000    0.000    7.200 
#    0.000   11.000    0.000    4.200    0.000    0.000 
#    0.000    0.000    0.000    0.000    0.000    0.000 
#
# Total GULP energy -223468.405306 kJ/mol
# GULP energy per Si atom -5586.710133 kJ/mol
# Density = 2.062036 g / cm^3
# Si number density = 20.667400 Si / 1000 Ang^3
#
#
#
# Elastic Constant Matrix: (Units=GPa)
#
#
# Indices 1 2 3 4 5 6 
#
# 1 57.7916 8.1602 -7.9549 0.0000 0.0000 0.0000
# 2 8.1602 81.3718 -10.0543 0.0000 0.0000 0.0000
# 3 -7.9549 -10.0543 29.7972 0.0000 0.0000 0.0000
# 4 0.0000 0.0000 0.0000 18.3565 0.0000 0.0000
# 5 0.0000 0.0000 0.0000 0.0000 19.9304 0.0000
# 6 0.0000 0.0000 0.0000 0.0000 0.0000 23.9524
#
#
#
# Elastic Compliance Matrix: (Units=1/GPa)
#
#
# Indices 1 2 3 4 5 6 
#
# 1 0.018089 -0.001270 0.004400 0.000000 0.000000 0.000000
# 2 -0.001270 0.012913 0.004018 0.000000 0.000000 0.000000
# 3 0.004400 0.004018 0.036091 0.000000 0.000000 0.000000
# 4 0.000000 0.000000 0.000000 0.054477 0.000000 0.000000
# 5 0.000000 0.000000 0.000000 0.000000 0.050175 0.000000
# 6 0.000000 0.000000 0.000000 0.000000 0.000000 0.041749
#
#
# Mechanical properties :
#
#
# Convention : Reuss Voigt Hill
#
# Bulk Modulus (GPa) = 12.28666 16.58474 14.43570
# Shear Modulus (GPa) = 22.09199 24.36850 23.23025
#
# Velocity S-wave (km/s) = 3.27300 3.43750 3.35625
# Velocity P-wave (km/s) = 4.49902 4.87824 4.69246
#
# Compressibility (1/GPa) = 0.08138906
#
# Stress axis : x y z
#
# Youngs Moduli (GPa) = 55.28337 77.44061 27.70793
#
# Poissons Ratio (x) = 0.09837 -0.12193
# Poissons Ratio (y) = 0.07022 -0.11133
# Poissons Ratio (z) = -0.24327 -0.31116
#
# Static dielectric constant tensor:
#      x y z
#    x 1.700790 0.000000 0.000000 
#    y 0.000000 1.730660 0.000000 
#    z 0.000000 0.000000 1.765860 
# 
# From -- ./inp_files/49425.got.cif
#   From: 2010.05.17/outbox.cif.g08.bks.cpg/sg63_25_cif.got.tgz:49425.got - 2010.06.03 15:47:04.
