data_PCOD9469942
_publ_section_title
;
Structure prediction by ZEFSAII (Michael W. Deem and Ramdas Pophale) SiO2 
 PCOD9469942
Probable space group: C M C M
;
_chemical_formula_sum "Si O2"
_cell_formula_units_Z 112
_cell_length_a 7.423421
_cell_length_b 28.808387
_cell_length_c 25.139317
_cell_angle_alpha 90.000000
_cell_angle_beta 90.000000
_cell_angle_gamma 90.000000
_cell_volume 5376.213512
_symmetry_space_group_name_H-M "C M C M"
_symmetry_group_IT_number 63
_symmetry_cell_setting 'orthorhombic'
loop_
_space_group_symop_operation_xyz
x,y,z
-x,-y,1/2+z
x,-y,-z
-x,y,1/2-z
-x,-y,-z
x,y,1/2-z
-x,y,z
x,-y,1/2+z
1/2+x,1/2+y,z
1/2-x,1/2-y,1/2+z
1/2+x,1/2-y,-z
1/2-x,1/2+y,1/2-z
1/2-x,1/2-y,-z
1/2+x,1/2+y,1/2-z
1/2-x,1/2+y,z
1/2+x,1/2-y,1/2+z
loop_
_atom_site_type_symbol
_atom_site_label
_atom_site_fract_x
_atom_site_fract_y
_atom_site_fract_z
Si Si1 0.281019 0.674669 0.809891
Si Si2 0.717064 0.495935 0.810389
Si Si3 0.719703 0.583552 0.625410
Si Si4 0.286403 0.111586 0.190364
Si Si5 0.713905 0.165845 0.088755
Si Si6 0.216054 0.139848 0.974550
Si Si7 0.719549 0.730255 0.912448
O O1 0.217157 0.681993 0.750000
O O2 0.500000 0.674973 0.808637
O O3 0.229164 0.624630 0.833723
O O4 0.228771 0.712857 0.853465
O O5 0.779297 0.506289 0.750000
O O6 0.500000 0.498520 0.809614
O O7 0.781876 0.534332 0.852078
O O8 0.764751 0.442879 0.822464
O O9 0.500000 0.582466 0.624565
O O10 0.779119 0.600803 0.567143
O O11 0.212489 0.119532 0.250000
O O12 0.500000 0.120584 0.193337
O O13 0.212803 0.142564 0.142348
O O14 0.500000 0.170814 0.096269
O O15 0.784908 0.217744 0.077925
O O16 0.739371 0.135221 0.036142
O O17 0.281293 0.190077 0.952846
O O18 0.000000 0.140500 0.970505
O O19 0.500000 0.730198 0.915020
#
# Coordination Sequence:
#
# PCOD9469942 Si02
#       7
#    16  16  16  16  16  16  16
#     4   8  12  19  35  62  93 117 138 172 219 266
#     4   9  16  28  49  72  90 112 145 182 218 260
#     4   8  14  25  42  66  93 116 139 174 221 265
#     4   9  19  34  48  64  89 118 147 182 222 259
#     4  10  19  31  47  65  87 117 151 184 216 253
#     4   9  17  30  47  67  92 118 144 177 217 262
#     4   8  15  26  41  63  89 117 148 180 215 257
#
# _framework density 20.832507
#
# number of rings (size 3 to 8) (size 9 to 14) (size 15 to 20)
#    0.000    3.286    0.000    2.571    0.000    2.857 
#    0.000    4.286    0.000    4.286    0.000    0.000 
#    0.000   10.857    0.000    0.000    0.000    0.000 
#
# Total GULP energy -312322.673255 kJ/mol
# GULP energy per Si atom -5577.190594 kJ/mol
# Density = 2.078509 g / cm^3
# Si number density = 20.832507 Si / 1000 Ang^3
#
#
#
# Elastic Constant Matrix: (Units=GPa)
#
#
# Indices 1 2 3 4 5 6 
#
# 1 66.3703 3.3324 1.3866 0.0000 0.0000 0.0000
# 2 3.3324 57.1466 50.0749 0.0000 0.0000 0.0000
# 3 1.3866 50.0749 135.1065 0.0000 0.0000 0.0000
# 4 0.0000 0.0000 0.0000 21.3615 0.0000 0.0000
# 5 0.0000 0.0000 0.0000 0.0000 7.3630 0.0000
# 6 0.0000 0.0000 0.0000 0.0000 0.0000 2.3885
#
#
#
# Elastic Compliance Matrix: (Units=1/GPa)
#
#
# Indices 1 2 3 4 5 6 
#
# 1 0.015117 -0.001104 0.000254 0.000000 0.000000 0.000000
# 2 -0.001104 0.025996 -0.009624 0.000000 0.000000 0.000000
# 3 0.000254 -0.009624 0.010966 0.000000 0.000000 0.000000
# 4 0.000000 0.000000 0.000000 0.046813 0.000000 0.000000
# 5 0.000000 0.000000 0.000000 0.000000 0.135815 0.000000
# 6 0.000000 0.000000 0.000000 0.000000 0.000000 0.418681
#
#
# Mechanical properties :
#
#
# Convention : Reuss Voigt Hill
#
# Bulk Modulus (GPa) = 32.12184 40.91235 36.51710
# Shear Modulus (GPa) = 7.30234 19.81121 13.55678
#
# Velocity S-wave (km/s) = 1.87427 3.08714 2.55375
# Velocity P-wave (km/s) = 4.48736 5.69109 5.12469
#
# Compressibility (1/GPa) = 0.03113147
#
# Stress axis : x y z
#
# Youngs Moduli (GPa) = 66.15026 38.46745 91.19255
#
# Poissons Ratio (x) = 0.04247 -0.02317
# Poissons Ratio (y) = 0.07304 0.87761
# Poissons Ratio (z) = -0.01681 0.37020
#
# Static dielectric constant tensor:
#      x y z
#    x 1.818230 0.000000 0.000000 
#    y 0.000000 1.719220 0.000000 
#    z 0.000000 0.000000 1.746450 
# 
# From -- ./inp_files/61978.got.cif
#   From: 2010.05.17/outbox.cif.g08.bks.cpg/sg63_31_cif.got.tgz:61978.got - 2010.06.03 15:47:04.
