data_PCOD9469268
_publ_section_title
;
Structure prediction by ZEFSAII (Michael W. Deem and Ramdas Pophale) SiO2 
 PCOD9469268
Probable space group: C M C M
;
_chemical_formula_sum "Si O2"
_cell_formula_units_Z 72
_cell_length_a 16.630105
_cell_length_b 28.129299
_cell_length_c 8.561881
_cell_angle_alpha 90.000000
_cell_angle_beta 90.000000
_cell_angle_gamma 90.000000
_cell_volume 4005.189676
_symmetry_space_group_name_H-M "C M C M"
_symmetry_group_IT_number 63
_symmetry_cell_setting 'orthorhombic'
loop_
_space_group_symop_operation_xyz
x,y,z
-x,-y,1/2+z
x,-y,-z
-x,y,1/2-z
-x,-y,-z
x,y,1/2-z
-x,y,z
x,-y,1/2+z
1/2+x,1/2+y,z
1/2-x,1/2-y,1/2+z
1/2+x,1/2-y,-z
1/2-x,1/2+y,1/2-z
1/2-x,1/2-y,-z
1/2+x,1/2+y,1/2-z
1/2-x,1/2+y,z
1/2+x,1/2-y,1/2+z
loop_
_atom_site_type_symbol
_atom_site_label
_atom_site_fract_x
_atom_site_fract_y
_atom_site_fract_z
Si Si1 0.000000 0.945814 0.439961
Si Si2 0.336013 0.605240 0.939499
Si Si3 0.755779 0.697064 0.936182
Si Si4 0.828745 0.552587 0.562631
Si Si5 0.409566 0.143419 0.063353
O O1 0.080096 0.917458 0.492303
O O2 0.000000 0.947233 0.250000
O O3 0.000000 0.000000 0.500000
O O4 0.339231 0.606649 0.750000
O O5 0.311172 0.658469 0.992398
O O6 0.260532 0.571636 0.981366
O O7 0.749935 0.698680 0.750000
O O8 0.750000 0.750000 0.000000
O O9 0.841397 0.675170 0.984186
O O10 0.840622 0.500000 0.500000
O O11 0.834834 0.554031 0.750000
O O12 0.890813 0.589732 0.489158
O O13 0.401942 0.147080 0.250000
O O14 0.500000 0.156982 0.018488
#
# Coordination Sequence:
#
# PCOD9469268 Si02
#       5
#     8  16  16  16  16
#     4  10  18  32  52  76 108 142 176 218 263 314
#     4   8  17  32  51  75 104 139 179 217 261 317
#     4  10  20  37  58  80 107 141 180 222 272 326
#     4  10  19  32  51  76 106 142 180 218 264 319
#     4  10  21  37  56  79 105 136 177 222 270 324
#
# _framework density 17.976676999999999
#
# number of rings (size 3 to 8) (size 9 to 14) (size 15 to 20)
#    0.000    2.444    0.000    4.000    0.000    2.222 
#    2.000    5.556    0.000    0.000    0.000    0.000 
#    0.000    0.000    0.000    0.000    0.000    0.000 
#
# Total GULP energy -200804.206829 kJ/mol
# GULP energy per Si atom -5577.894634 kJ/mol
# Density = 1.793576 g / cm^3
# Si number density = 17.976677 Si / 1000 Ang^3
#
#
#
# Elastic Constant Matrix: (Units=GPa)
#
#
# Indices 1 2 3 4 5 6 
#
# 1 103.9183 56.5838 17.4166 0.0000 0.0000 0.0000
# 2 56.5838 162.8189 22.2263 0.0000 0.0000 0.0000
# 3 17.4166 22.2263 28.3608 0.0000 0.0000 0.0000
# 4 0.0000 0.0000 0.0000 34.6883 0.0000 0.0000
# 5 0.0000 0.0000 0.0000 0.0000 20.5947 0.0000
# 6 0.0000 0.0000 0.0000 0.0000 0.0000 69.5842
#
#
#
# Elastic Compliance Matrix: (Units=1/GPa)
#
#
# Indices 1 2 3 4 5 6 
#
# 1 0.012415 -0.003666 -0.004751 0.000000 0.000000 0.000000
# 2 -0.003666 0.007960 -0.003987 0.000000 0.000000 0.000000
# 3 -0.004751 -0.003987 0.041302 0.000000 0.000000 0.000000
# 4 0.000000 0.000000 0.000000 0.028828 0.000000 0.000000
# 5 0.000000 0.000000 0.000000 0.000000 0.048556 0.000000
# 6 0.000000 0.000000 0.000000 0.000000 0.000000 0.014371
#
#
# Mechanical properties :
#
#
# Convention : Reuss Voigt Hill
#
# Bulk Modulus (GPa) = 27.12294 54.17238 40.64766
# Shear Modulus (GPa) = 26.24234 38.23151 32.23693
#
# Velocity S-wave (km/s) = 3.82488 4.61665 4.23929
# Velocity P-wave (km/s) = 5.88446 7.65625 6.82807
#
# Compressibility (1/GPa) = 0.03686915
#
# Stress axis : x y z
#
# Youngs Moduli (GPa) = 80.54484 125.62637 24.21174
#
# Poissons Ratio (x) = 0.46056 0.11504
# Poissons Ratio (y) = 0.29528 0.09653
# Poissons Ratio (z) = 0.38269 0.50087
#
# Static dielectric constant tensor:
#      x y z
#    x 1.615130 0.000000 0.000000 
#    y 0.000000 1.578680 0.000000 
#    z 0.000000 0.000000 1.620560 
# 
# From -- ./inp_files/4647.got.cif
#   From: 2010.05.17/outbox.cif.g08.bks.cpg/sg63_3_cif.got.tgz:4647.got - 2010.06.03 15:47:04.
