data_PCOD9469142
_publ_section_title
;
Structure prediction by ZEFSAII (Michael W. Deem and Ramdas Pophale) SiO2 
 PCOD9469142
Probable space group: C M C M
;
_chemical_formula_sum "Si O2"
_cell_formula_units_Z 128
_cell_length_a 19.463835
_cell_length_b 18.792317
_cell_length_c 20.402531
_cell_angle_alpha 90.000000
_cell_angle_beta 90.000000
_cell_angle_gamma 90.000000
_cell_volume 7462.645135
_symmetry_space_group_name_H-M "C M C M"
_symmetry_group_IT_number 63
_symmetry_cell_setting 'orthorhombic'
loop_
_space_group_symop_operation_xyz
x,y,z
-x,-y,1/2+z
x,-y,-z
-x,y,1/2-z
-x,-y,-z
x,y,1/2-z
-x,y,z
x,-y,1/2+z
1/2+x,1/2+y,z
1/2-x,1/2-y,1/2+z
1/2+x,1/2-y,-z
1/2-x,1/2+y,1/2-z
1/2-x,1/2-y,-z
1/2+x,1/2+y,1/2-z
1/2-x,1/2+y,z
1/2+x,1/2-y,1/2+z
loop_
_atom_site_type_symbol
_atom_site_label
_atom_site_fract_x
_atom_site_fract_y
_atom_site_fract_z
Si Si1 0.299083 0.677254 0.435641
Si Si2 0.134830 0.385375 0.678370
Si Si3 0.259116 0.413624 0.176842
Si Si4 0.291928 0.567881 0.177342
Si Si5 0.421723 0.727310 0.520780
Si Si6 0.180297 0.231522 0.866174
Si Si7 0.784384 0.426049 0.029723
Si Si8 0.424959 0.102996 0.038413
O O1 0.316207 0.619278 0.379818
O O2 0.369700 0.708940 0.462350
O O3 0.245372 0.734793 0.406133
O O4 0.257990 0.636331 0.493479
O O5 0.104498 0.399332 0.750000
O O6 0.208685 0.424277 0.674083
O O7 0.151545 0.300876 0.671619
O O8 0.091912 0.407938 0.615180
O O9 0.226212 0.419889 0.250000
O O10 0.307073 0.484099 0.171504
O O11 0.294923 0.336706 0.173711
O O12 0.218087 0.418884 0.108083
O O13 0.312829 0.592600 0.250000
O O14 0.500000 0.700162 0.515421
O O15 0.379848 0.704720 0.585579
O O16 0.425472 0.812219 0.527565
O O17 0.755324 0.500000 0.000000
O O18 0.862127 0.423183 0.004671
O O19 0.500000 0.075512 0.021849
#
# Coordination Sequence:
#
# PCOD9469142 Si02
#       8
#    16  16  16  16  16  16  16  16
#     4  11  18  34  56  78 102 140 180 224 259 317
#     4   9  16  30  49  72 104 139 176 215 267 324
#     4  11  21  31  51  81 108 132 174 225 274 323
#     4   9  18  32  50  76 105 131 168 223 274 312
#     4  10  19  31  51  78 108 138 174 221 268 311
#     4  10  18  31  52  77 106 139 177 220 271 316
#     4  12  20  34  56  80 104 144 182 223 268 312
#     4  10  20  33  48  75 110 143 177 219 267 315
#
# _framework density 17.152094999999999
#
# number of rings (size 3 to 8) (size 9 to 14) (size 15 to 20)
#    0.000    1.750    6.250    1.500    0.000    1.000 
#    0.000    0.000    0.000    5.250    0.000    3.500 
#    0.000    0.000    0.000    0.000    0.000    0.000 
#
# Total GULP energy -356430.208360 kJ/mol
# GULP energy per Si atom -5569.222006 kJ/mol
# Density = 1.711306 g / cm^3
# Si number density = 17.152095 Si / 1000 Ang^3
#
#
#
# Elastic Constant Matrix: (Units=GPa)
#
#
# Indices 1 2 3 4 5 6 
#
# 1 74.0599 4.4832 35.4221 0.0000 0.0000 0.0000
# 2 4.4832 58.1754 23.5397 0.0000 0.0000 0.0000
# 3 35.4221 23.5397 132.1192 0.0000 0.0000 0.0000
# 4 0.0000 0.0000 0.0000 23.5976 0.0000 0.0000
# 5 0.0000 0.0000 0.0000 0.0000 -6.3326 0.0000
# 6 0.0000 0.0000 0.0000 0.0000 0.0000 10.6405
#
#
#
# Elastic Compliance Matrix: (Units=1/GPa)
#
#
# Indices 1 2 3 4 5 6 
#
# 1 0.015504 0.000525 -0.004250 0.000000 0.000000 0.000000
# 2 0.000525 0.018543 -0.003445 0.000000 0.000000 0.000000
# 3 -0.004250 -0.003445 0.009322 0.000000 0.000000 0.000000
# 4 0.000000 0.000000 0.000000 0.042377 0.000000 0.000000
# 5 0.000000 0.000000 0.000000 0.000000 -0.157914 0.000000
# 6 0.000000 0.000000 0.000000 0.000000 0.000000 0.093980
#
#
# Mechanical properties :
#
#
# Convention : Reuss Voigt Hill
#
# Bulk Modulus (GPa) = 34.44819 43.47161 38.95990
# Shear Modulus (GPa) = 109.10395 18.97508 64.03952
#
# Velocity S-wave (km/s) = 7.98422 3.32969 6.11697
# Velocity P-wave (km/s) = 10.25303 6.33895 8.52370
#
# Compressibility (1/GPa) = 0.02902910
#
# Stress axis : x y z
#
# Youngs Moduli (GPa) = 64.50104 53.92957 107.27160
#
# Poissons Ratio (x) = -0.02831 0.45592
# Poissons Ratio (y) = -0.03386 0.36950
# Poissons Ratio (z) = 0.27414 0.18576
#
# Static dielectric constant tensor:
#      x y z
#    x 1.563720 0.000000 0.000000 
#    y 0.000000 1.634500 0.000000 
#    z 0.000000 0.000000 1.620330 
# 
# From -- ./inp_files/56949.got.cif
#   From: 2010.05.17/outbox.cif.g08.bks.cpg/sg63_29_cif.got.tgz:56949.got - 2010.06.03 15:47:04.
