data_PCOD9469949
_publ_section_title
;
Structure prediction by ZEFSAII (Michael W. Deem and Ramdas Pophale) SiO2 
 PCOD9469949
Probable space group: C M C M
;
_chemical_formula_sum "Si O2"
_cell_formula_units_Z 80
_cell_length_a 7.545157
_cell_length_b 14.466415
_cell_length_c 28.541999
_cell_angle_alpha 90.000000
_cell_angle_beta 90.000000
_cell_angle_gamma 90.000000
_cell_volume 3115.398362
_symmetry_space_group_name_H-M "C M C M"
_symmetry_group_IT_number 63
_symmetry_cell_setting 'orthorhombic'
loop_
_space_group_symop_operation_xyz
x,y,z
-x,-y,1/2+z
x,-y,-z
-x,y,1/2-z
-x,-y,-z
x,y,1/2-z
-x,y,z
x,-y,1/2+z
1/2+x,1/2+y,z
1/2-x,1/2-y,1/2+z
1/2+x,1/2-y,-z
1/2-x,1/2+y,1/2-z
1/2-x,1/2-y,-z
1/2+x,1/2+y,1/2-z
1/2-x,1/2+y,z
1/2+x,1/2-y,1/2+z
loop_
_atom_site_type_symbol
_atom_site_label
_atom_site_fract_x
_atom_site_fract_y
_atom_site_fract_z
Si Si1 0.793576 0.038445 0.949370
Si Si2 0.287628 0.003518 0.250000
Si Si3 0.717480 0.221702 0.650386
Si Si4 0.787659 0.720311 0.750000
Si Si5 0.213015 0.503720 0.851011
Si Si6 0.808798 0.258026 0.053285
O O1 0.773419 0.975344 0.903161
O O2 0.683934 0.131142 0.941374
O O3 0.000000 0.064691 0.952966
O O4 0.740429 0.000000 0.000000
O O5 0.500000 0.019331 0.250000
O O6 0.264579 0.891362 0.250000
O O7 0.218785 0.035613 0.301120
O O8 0.500000 0.227008 0.649172
O O9 0.781669 0.257464 0.700618
O O10 0.763484 0.112809 0.650735
O O11 0.785953 0.266794 0.602253
O O12 0.000000 0.734863 0.750000
O O13 0.000000 0.497445 0.850334
O O14 0.000000 0.211604 0.054287
O O15 0.750000 0.250000 0.000000
#
# Coordination Sequence:
#
# PCOD9469949 Si02
#       6
#    16   8  16   8  16  16
#     4  10  20  32  45  64  92 123 154 190 229 266
#     4   7  10  18  35  59  84 109 138 175 219 265
#     4   7  11  19  34  57  82 107 135 169 208 252
#     4   7   8  14  30  53  80 105 130 163 205 251
#     4   8  13  23  40  61  85 113 145 180 220 267
#     4  10  19  31  47  67  91 119 151 186 225 270
#
# _framework density 25.678899999999999
#
# number of rings (size 3 to 8) (size 9 to 14) (size 15 to 20)
#    0.000    3.600    0.000    4.800    0.000    1.600 
#    0.000    0.500    0.000    0.000    0.000    3.500 
#    0.000    3.200    0.000    0.000    0.000    0.000 
#
# Total GULP energy -222730.876177 kJ/mol
# GULP energy per Si atom -5568.271904 kJ/mol
# Density = 2.562045 g / cm^3
# Si number density = 25.678900 Si / 1000 Ang^3
#
#
#
# Elastic Constant Matrix: (Units=GPa)
#
#
# Indices 1 2 3 4 5 6 
#
# 1 63.2825 -3.2156 15.8444 0.0000 0.0000 0.0000
# 2 -3.2156 77.0481 4.7922 0.0000 0.0000 0.0000
# 3 15.8444 4.7922 361.0711 0.0000 0.0000 0.0000
# 4 0.0000 0.0000 0.0000 5.9113 0.0000 0.0000
# 5 0.0000 0.0000 0.0000 0.0000 -56.0504 0.0000
# 6 0.0000 0.0000 0.0000 0.0000 0.0000 2.6050
#
#
#
# Elastic Compliance Matrix: (Units=1/GPa)
#
#
# Indices 1 2 3 4 5 6 
#
# 1 0.016017 0.000713 -0.000712 0.000000 0.000000 0.000000
# 2 0.000713 0.013021 -0.000204 0.000000 0.000000 0.000000
# 3 -0.000712 -0.000204 0.002804 0.000000 0.000000 0.000000
# 4 0.000000 0.000000 0.000000 0.169167 0.000000 0.000000
# 5 0.000000 0.000000 0.000000 0.000000 -0.017841 0.000000
# 6 0.000000 0.000000 0.000000 0.000000 0.000000 0.383877
#
#
# Mechanical properties :
#
#
# Convention : Reuss Voigt Hill
#
# Bulk Modulus (GPa) = 31.81242 59.58264 45.69753
# Shear Modulus (GPa) = 8.65157 22.75856 15.70507
#
# Velocity S-wave (km/s) = 1.83751 2.98027 2.47573
# Velocity P-wave (km/s) = 4.11307 5.92419 5.09967
#
# Compressibility (1/GPa) = 0.03143426
#
# Stress axis : x y z
#
# Youngs Moduli (GPa) = 62.43481 76.79701 356.69656
#
# Poissons Ratio (x) = -0.05474 0.25408
# Poissons Ratio (y) = -0.04450 0.07280
# Poissons Ratio (z) = 0.04447 0.01567
#
# Static dielectric constant tensor:
#      x y z
#    x 1.973820 0.000000 0.000000 
#    y 0.000000 2.126630 0.000000 
#    z 0.000000 0.000000 2.207080 
# 
# From -- ./inp_files/66813.got.cif
#   From: 2010.05.17/outbox.cif.g08.bks.cpg/sg63_34_cif.got.tgz:66813.got - 2010.06.03 15:47:04.
