data_PCOD9469410
_publ_section_title
;
Structure prediction by ZEFSAII (Michael W. Deem and Ramdas Pophale) SiO2 
 PCOD9469410
Probable space group: C M C M
;
_chemical_formula_sum "Si O2"
_cell_formula_units_Z 116
_cell_length_a 7.676896
_cell_length_b 29.819759
_cell_length_c 24.380510
_cell_angle_alpha 90.000000
_cell_angle_beta 90.000000
_cell_angle_gamma 90.000000
_cell_volume 5581.264089
_symmetry_space_group_name_H-M "C M C M"
_symmetry_group_IT_number 63
_symmetry_cell_setting 'orthorhombic'
loop_
_space_group_symop_operation_xyz
x,y,z
-x,-y,1/2+z
x,-y,-z
-x,y,1/2-z
-x,-y,-z
x,y,1/2-z
-x,y,z
x,-y,1/2+z
1/2+x,1/2+y,z
1/2-x,1/2-y,1/2+z
1/2+x,1/2-y,-z
1/2-x,1/2+y,1/2-z
1/2-x,1/2-y,-z
1/2+x,1/2+y,1/2-z
1/2-x,1/2+y,z
1/2+x,1/2-y,1/2+z
loop_
_atom_site_type_symbol
_atom_site_label
_atom_site_fract_x
_atom_site_fract_y
_atom_site_fract_z
Si Si1 0.287973 0.799701 0.061656
Si Si2 0.300683 0.653332 0.170808
Si Si3 0.295967 0.893670 0.400065
Si Si4 0.500000 0.816251 0.750000
Si Si5 0.787707 0.941328 0.633035
Si Si6 0.293708 0.532720 0.688195
Si Si7 0.210596 0.051840 0.490728
Si Si8 0.797378 0.301073 0.564137
O O1 0.500000 0.798289 0.062217
O O2 0.226219 0.843019 0.095075
O O3 0.222818 0.751216 0.080037
O O4 0.232311 0.805520 0.998179
O O5 0.500000 0.657462 0.190292
O O6 0.245002 0.601124 0.170650
O O7 0.299278 0.668796 0.107785
O O8 0.155260 0.680716 0.202921
O O9 0.500000 0.889791 0.389771
O O10 0.225938 0.925133 0.352025
O O11 0.271709 0.917736 0.458964
O O12 0.728370 0.935042 0.570187
O O13 0.000000 0.942867 0.630577
O O14 0.723306 0.988086 0.658294
O O15 0.224070 0.538979 0.750000
O O16 0.500000 0.525074 0.693227
O O17 0.000000 0.053480 0.491779
O O18 0.261626 0.000000 0.500000
O O19 0.000000 0.313457 0.564368
#
# Coordination Sequence:
#
# PCOD9469410 Si02
#       8
#    16  16  16   4  16  16  16  16
#     4   9  20  36  60  89 125 161 194 239 312 377
#     4  11  23  41  64  88 127 164 205 261 316 363
#     4  11  22  36  54  85 122 156 193 243 302 365
#     4  12  26  44  60  94 118 168 218 256 300 382
#     4   9  19  36  59  86 112 154 199 247 305 363
#     4  10  21  39  60  78 107 152 208 254 293 346
#     4  10  18  33  56  81 114 153 196 240 295 364
#     4  10  19  37  62  95 124 153 198 252 305 381
#
# _framework density 20.783822000000001
#
# number of rings (size 3 to 8) (size 9 to 14) (size 15 to 20)
#    0.000    1.931    2.069    1.862    0.966    2.207 
#    2.483    0.000    1.517    0.000    0.000    0.000 
#    0.000    0.000    0.000    0.000    0.000    0.000 
#
# Total GULP energy -323414.024112 kJ/mol
# GULP energy per Si atom -5576.103864 kJ/mol
# Density = 2.073652 g / cm^3
# Si number density = 20.783822 Si / 1000 Ang^3
#
#
#
# Elastic Constant Matrix: (Units=GPa)
#
#
# Indices 1 2 3 4 5 6 
#
# 1 63.6436 -1.2206 8.3741 0.0000 0.0000 0.0000
# 2 -1.2206 88.3925 30.7656 0.0000 0.0000 0.0000
# 3 8.3741 30.7656 94.0951 0.0000 0.0000 0.0000
# 4 0.0000 0.0000 0.0000 -28.6706 0.0000 0.0000
# 5 0.0000 0.0000 0.0000 0.0000 404.2232 0.0000
# 6 0.0000 0.0000 0.0000 0.0000 0.0000 10.8414
#
#
#
# Elastic Compliance Matrix: (Units=1/GPa)
#
#
# Indices 1 2 3 4 5 6 
#
# 1 0.015949 0.000806 -0.001683 0.000000 0.000000 0.000000
# 2 0.000806 0.012807 -0.004259 0.000000 0.000000 0.000000
# 3 -0.001683 -0.004259 0.012170 0.000000 0.000000 0.000000
# 4 0.000000 0.000000 0.000000 -0.034879 0.000000 0.000000
# 5 0.000000 0.000000 0.000000 0.000000 0.002474 0.000000
# 6 0.000000 0.000000 0.000000 0.000000 0.000000 0.092239
#
#
# Mechanical properties :
#
#
# Convention : Reuss Voigt Hill
#
# Bulk Modulus (GPa) = 32.62225 35.77441 34.19833
# Shear Modulus (GPa) = 41.23722 91.15962 66.19842
#
# Velocity S-wave (km/s) = 4.45916 6.62994 5.64979
# Velocity P-wave (km/s) = 6.49940 8.70966 7.68441
#
# Compressibility (1/GPa) = 0.03065393
#
# Stress axis : x y z
#
# Youngs Moduli (GPa) = 62.69833 78.08417 82.17013
#
# Poissons Ratio (x) = -0.06294 0.13829
# Poissons Ratio (y) = -0.05054 0.34997
# Poissons Ratio (z) = 0.10552 0.33256
#
# Static dielectric constant tensor:
#      x y z
#    x 1.760720 0.000000 0.000000 
#    y 0.000000 1.753300 0.000000 
#    z 0.000000 0.000000 1.740270 
# 
# From -- ./inp_files/60451.got.cif
#   From: 2010.05.17/outbox.cif.g08.bks.cpg/sg63_31_cif.got.tgz:60451.got - 2010.06.03 15:47:04.
