data_PCOD9469348
_publ_section_title
;
Structure prediction by ZEFSAII (Michael W. Deem and Ramdas Pophale) SiO2 
 PCOD9469348
Probable space group: C M C M
;
_chemical_formula_sum "Si O2"
_cell_formula_units_Z 64
_cell_length_a 24.973993
_cell_length_b 14.479430
_cell_length_c 8.702495
_cell_angle_alpha 90.000000
_cell_angle_beta 90.000000
_cell_angle_gamma 90.000000
_cell_volume 3146.902111
_symmetry_space_group_name_H-M "C M C M"
_symmetry_group_IT_number 63
_symmetry_cell_setting 'orthorhombic'
loop_
_space_group_symop_operation_xyz
x,y,z
-x,-y,1/2+z
x,-y,-z
-x,y,1/2-z
-x,-y,-z
x,y,1/2-z
-x,y,z
x,-y,1/2+z
1/2+x,1/2+y,z
1/2-x,1/2-y,1/2+z
1/2+x,1/2-y,-z
1/2-x,1/2+y,1/2-z
1/2-x,1/2-y,-z
1/2+x,1/2+y,1/2-z
1/2-x,1/2+y,z
1/2+x,1/2-y,1/2+z
loop_
_atom_site_type_symbol
_atom_site_label
_atom_site_fract_x
_atom_site_fract_y
_atom_site_fract_z
Si Si1 0.939546 0.717032 0.933849
Si Si2 0.879815 0.898753 0.932247
Si Si3 0.341609 0.896447 0.567324
Si Si4 0.268362 0.395241 0.433554
O O1 0.934930 0.700964 0.750000
O O2 0.926331 0.824906 0.959717
O O3 0.000000 0.694534 0.981717
O O4 0.894053 0.658777 0.017552
O O5 0.870885 0.907733 0.750000
O O6 0.825311 0.859221 0.007531
O O7 0.890705 0.000000 0.000000
O O8 0.336536 0.900750 0.750000
O O9 0.286576 0.853985 0.499028
O O10 0.346305 0.000000 0.500000
O O11 0.268480 0.500000 0.500000
O O12 0.266858 0.395760 0.250000
#
# Coordination Sequence:
#
# PCOD9469348 Si02
#       4
#    16  16  16  16
#     4  10  23  42  60  81 112 151 196 240 280 329
#     4  10  20  36  59  86 117 151 187 232 284 336
#     4  11  22  38  61  87 116 149 186 232 285 340
#     4  10  18  32  56  85 117 149 184 228 279 339
#
# _framework density 20.337461999999999
#
# number of rings (size 3 to 8) (size 9 to 14) (size 15 to 20)
#    0.000    1.750    0.000    8.250    0.000    4.500 
#    0.000    0.000    0.000    0.000    0.000    0.000 
#    0.000    0.000    0.000    0.000    0.000    0.000 
#
# Total GULP energy -178831.338173 kJ/mol
# GULP energy per Si atom -5588.479318 kJ/mol
# Density = 2.029117 g / cm^3
# Si number density = 20.337462 Si / 1000 Ang^3
#
#
#
# Elastic Constant Matrix: (Units=GPa)
#
#
# Indices 1 2 3 4 5 6 
#
# 1 86.8955 -5.7836 30.9955 0.0000 0.0000 0.0000
# 2 -5.7836 36.6352 11.3652 0.0000 0.0000 0.0000
# 3 30.9955 11.3652 117.8589 0.0000 0.0000 0.0000
# 4 0.0000 0.0000 0.0000 15.3700 0.0000 0.0000
# 5 0.0000 0.0000 0.0000 0.0000 86.1679 0.0000
# 6 0.0000 0.0000 0.0000 0.0000 0.0000 35.8665
#
#
#
# Elastic Compliance Matrix: (Units=1/GPa)
#
#
# Indices 1 2 3 4 5 6 
#
# 1 0.013058 0.003223 -0.003745 0.000000 0.000000 0.000000
# 2 0.003223 0.028934 -0.003638 0.000000 0.000000 0.000000
# 3 -0.003745 -0.003638 0.009820 0.000000 0.000000 0.000000
# 4 0.000000 0.000000 0.000000 0.065062 0.000000 0.000000
# 5 0.000000 0.000000 0.000000 0.000000 0.011605 0.000000
# 6 0.000000 0.000000 0.000000 0.000000 0.000000 0.027881
#
#
# Mechanical properties :
#
#
# Convention : Reuss Voigt Hill
#
# Bulk Modulus (GPa) = 22.99195 34.94930 28.97063
# Shear Modulus (GPa) = 27.90533 41.13507 34.52020
#
# Velocity S-wave (km/s) = 3.70823 4.50224 4.12438
# Velocity P-wave (km/s) = 5.44650 6.65198 6.07920
#
# Compressibility (1/GPa) = 0.04349348
#
# Stress axis : x y z
#
# Youngs Moduli (GPa) = 76.57863 34.56198 101.82870
#
# Poissons Ratio (x) = -0.11141 0.38135
# Poissons Ratio (y) = -0.24684 0.37043
# Poissons Ratio (z) = 0.28679 0.12573
#
# Static dielectric constant tensor:
#      x y z
#    x 1.729810 0.000000 0.000000 
#    y 0.000000 1.823900 0.000000 
#    z 0.000000 0.000000 1.679240 
# 
# From -- ./inp_files/9618.got.cif
#   From: 2010.05.17/outbox.cif.g08.bks.cpg/sg63_5_cif.got.tgz:9618.got - 2010.06.03 15:47:04.
