data_PCOD9469853
_publ_section_title
;
Structure prediction by ZEFSAII (Michael W. Deem and Ramdas Pophale) SiO2 
 PCOD9469853
Probable space group: C M C M
;
_chemical_formula_sum "Si O2"
_cell_formula_units_Z 104
_cell_length_a 22.668869
_cell_length_b 30.696341
_cell_length_c 8.754877
_cell_angle_alpha 90.000000
_cell_angle_beta 90.000000
_cell_angle_gamma 90.000000
_cell_volume 6092.092830
_symmetry_space_group_name_H-M "C M C M"
_symmetry_group_IT_number 63
_symmetry_cell_setting 'orthorhombic'
loop_
_space_group_symop_operation_xyz
x,y,z
-x,-y,1/2+z
x,-y,-z
-x,y,1/2-z
-x,-y,-z
x,y,1/2-z
-x,y,z
x,-y,1/2+z
1/2+x,1/2+y,z
1/2-x,1/2-y,1/2+z
1/2+x,1/2-y,-z
1/2-x,1/2+y,1/2-z
1/2-x,1/2-y,-z
1/2+x,1/2+y,1/2-z
1/2-x,1/2+y,z
1/2+x,1/2-y,1/2+z
loop_
_atom_site_type_symbol
_atom_site_label
_atom_site_fract_x
_atom_site_fract_y
_atom_site_fract_z
Si Si1 0.281400 0.046773 0.932476
Si Si2 0.070049 0.690578 0.569383
Si Si3 0.500000 0.048403 0.433828
Si Si4 0.571592 0.718797 0.926558
Si Si5 0.569482 0.621664 0.934685
Si Si6 0.348842 0.453227 0.932548
Si Si7 0.384009 0.103280 0.067478
O O1 0.278259 0.044067 0.750000
O O2 0.216471 0.055092 0.000367
O O3 0.327466 0.082926 0.985931
O O4 0.301101 0.000000 0.000000
O O5 0.076709 0.684341 0.750000
O O6 0.089614 0.739142 0.522281
O O7 0.103730 0.652818 0.480263
O O8 0.000000 0.686975 0.532140
O O9 0.500000 0.045785 0.250000
O O10 0.558341 0.075153 0.479594
O O11 0.500000 0.000000 0.500000
O O12 0.589552 0.724578 0.750000
O O13 0.500000 0.717573 0.928228
O O14 0.589751 0.670584 0.979637
O O15 0.574733 0.618919 0.750000
O O16 0.500000 0.616974 0.971554
O O17 0.607593 0.584560 0.013115
O O18 0.345985 0.455808 0.750000
O O19 0.368014 0.500000 0.000000
O O20 0.377488 0.099894 0.250000
#
# Coordination Sequence:
#
# PCOD9469853 Si02
#       7
#    16  16   8  16  16  16  16
#     4  11  22  38  57  77 101 135 178 221 263 313
#     4  10  19  30  47  74 106 139 176 220 266 311
#     4  10  22  34  48  70 100 136 170 214 267 318
#     4   8  15  29  50  74 103 140 175 210 255 310
#     4   9  18  34  56  83 113 143 175 212 259 311
#     4  11  22  37  57  80 107 141 178 217 258 307
#     4  11  21  35  52  74 102 138 179 220 268 317
#
# _framework density 17.071308999999999
#
# number of rings (size 3 to 8) (size 9 to 14) (size 15 to 20)
#    0.000    2.000    0.769    6.000    0.000    4.308 
#    0.000    1.538    0.000    0.923    0.000    0.000 
#    0.000    0.000    0.000    0.000    0.000    0.000 
#
# Total GULP energy -290242.485025 kJ/mol
# GULP energy per Si atom -5581.586250 kJ/mol
# Density = 1.703245 g / cm^3
# Si number density = 17.071309 Si / 1000 Ang^3
#
#
#
# Elastic Constant Matrix: (Units=GPa)
#
#
# Indices 1 2 3 4 5 6 
#
# 1 45.7606 58.0477 37.2977 0.0000 0.0000 0.0000
# 2 58.0477 144.4690 58.7031 0.0000 0.0000 0.0000
# 3 37.2977 58.7031 89.2970 0.0000 0.0000 0.0000
# 4 0.0000 0.0000 0.0000 30.7133 0.0000 0.0000
# 5 0.0000 0.0000 0.0000 0.0000 22.5163 0.0000
# 6 0.0000 0.0000 0.0000 0.0000 0.0000 14.1351
#
#
#
# Elastic Compliance Matrix: (Units=1/GPa)
#
#
# Indices 1 2 3 4 5 6 
#
# 1 0.051113 -0.016186 -0.010708 0.000000 0.000000 0.000000
# 2 -0.016186 0.014570 -0.002818 0.000000 0.000000 0.000000
# 3 -0.010708 -0.002818 0.017524 0.000000 0.000000 0.000000
# 4 0.000000 0.000000 0.000000 0.032559 0.000000 0.000000
# 5 0.000000 0.000000 0.000000 0.000000 0.044412 0.000000
# 6 0.000000 0.000000 0.000000 0.000000 0.000000 0.070746
#
#
# Mechanical properties :
#
#
# Convention : Reuss Voigt Hill
#
# Bulk Modulus (GPa) = 42.04760 65.29151 53.66955
# Shear Modulus (GPa) = 16.76295 21.83813 19.30054
#
# Velocity S-wave (km/s) = 3.13699 3.58051 3.36606
# Velocity P-wave (km/s) = 6.14857 7.44465 6.82744
#
# Compressibility (1/GPa) = 0.02378257
#
# Stress axis : x y z
#
# Youngs Moduli (GPa) = 19.56448 68.63206 57.06535
#
# Poissons Ratio (x) = 1.11088 0.61108
# Poissons Ratio (y) = 0.31667 0.16080
# Poissons Ratio (z) = 0.20951 0.19340
#
# Static dielectric constant tensor:
#      x y z
#    x 1.556180 0.000000 0.000000 
#    y 0.000000 1.576750 0.000000 
#    z 0.000000 0.000000 1.568720 
# 
# From -- ./inp_files/10830.got.cif
#   From: 2010.05.17/outbox.cif.g08.bks.cpg/sg63_6_cif.got.tgz:10830.got - 2010.06.03 15:47:04.
