data_PCOD9469611
_publ_section_title
;
Structure prediction by ZEFSAII (Michael W. Deem and Ramdas Pophale) SiO2 
 PCOD9469611
Probable space group: C M C M
;
_chemical_formula_sum "Si O2"
_cell_formula_units_Z 128
_cell_length_a 27.060018
_cell_length_b 19.209449
_cell_length_c 15.579817
_cell_angle_alpha 90.000000
_cell_angle_beta 90.000000
_cell_angle_gamma 90.000000
_cell_volume 8098.514071
_symmetry_space_group_name_H-M "C M C M"
_symmetry_group_IT_number 63
_symmetry_cell_setting 'orthorhombic'
loop_
_space_group_symop_operation_xyz
x,y,z
-x,-y,1/2+z
x,-y,-z
-x,y,1/2-z
-x,-y,-z
x,y,1/2-z
-x,y,z
x,-y,1/2+z
1/2+x,1/2+y,z
1/2-x,1/2-y,1/2+z
1/2+x,1/2-y,-z
1/2-x,1/2+y,1/2-z
1/2-x,1/2-y,-z
1/2+x,1/2+y,1/2-z
1/2-x,1/2+y,z
1/2+x,1/2-y,1/2+z
loop_
_atom_site_type_symbol
_atom_site_label
_atom_site_fract_x
_atom_site_fract_y
_atom_site_fract_z
Si Si1 0.754339 0.396880 0.353900
Si Si2 0.443854 0.929333 0.889393
Si Si3 0.808191 0.181538 0.153075
Si Si4 0.444112 0.913043 0.404558
Si Si5 0.780996 0.239338 0.586821
Si Si6 0.247688 0.555384 0.145180
Si Si7 0.645348 0.817595 0.146389
Si Si8 0.654736 0.851307 0.850007
O O1 0.751779 0.396018 0.250000
O O2 0.715609 0.341579 0.391484
O O3 0.748349 0.476009 0.383634
O O4 0.807992 0.365773 0.379678
O O5 0.500000 0.914470 0.859719
O O6 0.400348 0.879823 0.858491
O O7 0.432157 0.010068 0.867712
O O8 0.444286 0.922317 0.992655
O O9 0.824765 0.166634 0.250000
O O10 0.756859 0.225381 0.154904
O O11 0.790328 0.108518 0.113346
O O12 0.845703 0.238303 0.114219
O O13 0.500000 0.895221 0.377546
O O14 0.404348 0.855575 0.380471
O O15 0.750000 0.250000 0.500000
O O16 0.830437 0.284209 0.594018
O O17 0.250159 0.555416 0.250000
O O18 0.194477 0.589064 0.123671
O O19 0.646793 0.813887 0.250000
O O20 0.663069 0.834836 0.750000
#
# Coordination Sequence:
#
# PCOD9469611 Si02
#       8
#    16  16  16  16  16  16  16  16
#     4   9  16  27  43  61  84 112 145 177 207 256
#     4   9  19  32  44  60  84 116 148 186 230 262
#     4   8  15  28  41  56  83 109 133 169 212 255
#     4   9  18  31  43  60  88 114 144 188 229 260
#     4  10  19  28  40  62  85 113 145 179 219 259
#     4   8  14  26  43  61  81 110 141 171 210 253
#     4   9  16  25  42  62  81 110 142 174 211 256
#     4  10  19  31  45  62  86 116 151 187 222 264
#
# _framework density 15.805368
#
# number of rings (size 3 to 8) (size 9 to 14) (size 15 to 20)
#    0.000    3.000    0.000    4.125    3.500    2.000 
#    0.000    3.125    0.000    0.000    0.000    0.000 
#    0.000    1.000    0.000    9.125    0.000    1.500 
#
# Total GULP energy -356332.452418 kJ/mol
# GULP energy per Si atom -5567.694569 kJ/mol
# Density = 1.576939 g / cm^3
# Si number density = 15.805368 Si / 1000 Ang^3
#
#
#
# Elastic Constant Matrix: (Units=GPa)
#
#
# Indices 1 2 3 4 5 6 
#
# 1 87.6062 63.1850 12.0460 0.0000 0.0000 0.0000
# 2 63.1850 144.2041 16.8649 0.0000 0.0000 0.0000
# 3 12.0460 16.8649 34.9233 0.0000 0.0000 0.0000
# 4 0.0000 0.0000 0.0000 14.6388 0.0000 0.0000
# 5 0.0000 0.0000 0.0000 0.0000 18.6411 0.0000
# 6 0.0000 0.0000 0.0000 0.0000 0.0000 28.2828
#
#
#
# Elastic Compliance Matrix: (Units=1/GPa)
#
#
# Indices 1 2 3 4 5 6 
#
# 1 0.016874 -0.007115 -0.002385 0.000000 0.000000 0.000000
# 2 -0.007115 0.010350 -0.002544 0.000000 0.000000 0.000000
# 3 -0.002385 -0.002544 0.030685 0.000000 0.000000 0.000000
# 4 0.000000 0.000000 0.000000 0.068312 0.000000 0.000000
# 5 0.000000 0.000000 0.000000 0.000000 0.053645 0.000000
# 6 0.000000 0.000000 0.000000 0.000000 0.000000 0.035357
#
#
# Mechanical properties :
#
#
# Convention : Reuss Voigt Hill
#
# Bulk Modulus (GPa) = 29.56610 50.10282 39.83446
# Shear Modulus (GPa) = 19.95347 23.95503 21.95425
#
# Velocity S-wave (km/s) = 3.55695 3.89733 3.73102
# Velocity P-wave (km/s) = 5.96793 7.21255 6.61956
#
# Compressibility (1/GPa) = 0.03382252
#
# Stress axis : x y z
#
# Youngs Moduli (GPa) = 59.26274 96.62268 32.58903
#
# Poissons Ratio (x) = 0.68744 0.07771
# Poissons Ratio (y) = 0.42164 0.08290
# Poissons Ratio (z) = 0.14131 0.24580
#
# Static dielectric constant tensor:
#      x y z
#    x 1.520520 0.000000 0.000000 
#    y 0.000000 1.563440 0.000000 
#    z 0.000000 0.000000 1.607960 
# 
# From -- ./inp_files/48409.got.cif
#   From: 2010.05.17/outbox.cif.g08.bks.cpg/sg63_25_cif.got.tgz:48409.got - 2010.06.03 15:47:04.
