data_PCOD9469029
_publ_section_title
;
Structure prediction by ZEFSAII (Michael W. Deem and Ramdas Pophale) SiO2 
 PCOD9469029
Probable space group: C M C M
;
_chemical_formula_sum "Si O2"
_cell_formula_units_Z 96
_cell_length_a 21.889497
_cell_length_b 12.279037
_cell_length_c 19.426871
_cell_angle_alpha 90.000000
_cell_angle_beta 90.000000
_cell_angle_gamma 90.000000
_cell_volume 5221.592145
_symmetry_space_group_name_H-M "C M C M"
_symmetry_group_IT_number 63
_symmetry_cell_setting 'orthorhombic'
loop_
_space_group_symop_operation_xyz
x,y,z
-x,-y,1/2+z
x,-y,-z
-x,y,1/2-z
-x,-y,-z
x,y,1/2-z
-x,y,z
x,-y,1/2+z
1/2+x,1/2+y,z
1/2-x,1/2-y,1/2+z
1/2+x,1/2-y,-z
1/2-x,1/2+y,1/2-z
1/2-x,1/2-y,-z
1/2+x,1/2+y,1/2-z
1/2-x,1/2+y,z
1/2+x,1/2-y,1/2+z
loop_
_atom_site_type_symbol
_atom_site_label
_atom_site_fract_x
_atom_site_fract_y
_atom_site_fract_z
Si Si1 0.668489 0.257311 0.938226
Si Si2 0.000000 0.273937 0.671638
Si Si3 0.071654 0.058341 0.074501
Si Si4 0.378559 0.373205 0.329000
Si Si5 0.365570 0.978338 0.083005
Si Si6 0.500000 0.014974 0.082565
Si Si7 0.698560 0.800311 0.903775
O O1 0.607761 0.327892 0.928138
O O2 0.665886 0.137027 0.905812
O O3 0.728850 0.315231 0.909212
O O4 0.677310 0.237832 0.019931
O O5 0.060087 0.200281 0.665113
O O6 0.000000 0.321251 0.750000
O O7 0.000000 0.361848 0.610798
O O8 0.000000 0.069968 0.093341
O O9 0.107889 0.978433 0.125394
O O10 0.073805 0.000000 0.000000
O O11 0.369938 0.403688 0.250000
O O12 0.323898 0.296299 0.354795
O O13 0.435597 0.967839 0.106621
O O14 0.333808 0.085299 0.113648
O O15 0.365367 0.000000 0.000000
O O16 0.500000 0.000000 0.000000
#
# Coordination Sequence:
#
# PCOD9469029 Si02
#       7
#    16   8  16  16  16   8  16
#     4  10  22  35  59  87 124 156 191 251 310 357
#     4  10  20  36  58  88 124 160 201 246 300 355
#     4  11  23  37  60  92 125 161 209 260 308 367
#     4  11  22  39  62  88 122 163 208 253 303 363
#     4   9  19  32  51  86 114 148 186 235 294 350
#     4  10  18  30  55  82 119 150 192 250 289 334
#     4  10  20  37  59  85 119 158 203 246 297 358
#
# _framework density 18.385197000000002
#
# number of rings (size 3 to 8) (size 9 to 14) (size 15 to 20)
#    0.000    1.833    4.167    0.000    3.500    0.667 
#    1.500    0.833    0.000    3.000    0.000    0.000 
#    0.000    0.000    0.000    0.000    0.000    0.000 
#
# Total GULP energy -267694.703904 kJ/mol
# GULP energy per Si atom -5576.972998 kJ/mol
# Density = 1.834335 g / cm^3
# Si number density = 18.385197 Si / 1000 Ang^3
#
#
#
# Elastic Constant Matrix: (Units=GPa)
#
#
# Indices 1 2 3 4 5 6 
#
# 1 70.0806 31.5804 8.2993 0.0000 0.0000 0.0000
# 2 31.5804 83.8289 26.3779 0.0000 0.0000 0.0000
# 3 8.2993 26.3779 47.8884 0.0000 0.0000 0.0000
# 4 0.0000 0.0000 0.0000 20.8659 0.0000 0.0000
# 5 0.0000 0.0000 0.0000 0.0000 8.8465 0.0000
# 6 0.0000 0.0000 0.0000 0.0000 0.0000 19.6227
#
#
#
# Elastic Compliance Matrix: (Units=1/GPa)
#
#
# Indices 1 2 3 4 5 6 
#
# 1 0.017207 -0.006706 0.000712 0.000000 0.000000 0.000000
# 2 -0.006706 0.017044 -0.008226 0.000000 0.000000 0.000000
# 3 0.000712 -0.008226 0.025289 0.000000 0.000000 0.000000
# 4 0.000000 0.000000 0.000000 0.047925 0.000000 0.000000
# 5 0.000000 0.000000 0.000000 0.000000 0.113039 0.000000
# 6 0.000000 0.000000 0.000000 0.000000 0.000000 0.050961
#
#
# Mechanical properties :
#
#
# Convention : Reuss Voigt Hill
#
# Bulk Modulus (GPa) = 32.15454 37.14591 34.65023
# Shear Modulus (GPa) = 16.11486 18.90304 17.50895
#
# Velocity S-wave (km/s) = 2.96381 3.20998 3.08935
# Velocity P-wave (km/s) = 5.40736 5.82982 5.62256
#
# Compressibility (1/GPa) = 0.03109980
#
# Stress axis : x y z
#
# Youngs Moduli (GPa) = 58.11577 58.67209 39.54215
#
# Poissons Ratio (x) = 0.39347 -0.02815
# Poissons Ratio (y) = 0.38974 0.32527
# Poissons Ratio (z) = -0.04137 0.48263
#
# Static dielectric constant tensor:
#      x y z
#    x 1.642200 0.000000 0.000000 
#    y 0.000000 1.603640 0.000000 
#    z 0.000000 0.000000 1.616570 
# 
# From -- ./inp_files/57533.got.cif
#   From: 2010.05.17/outbox.cif.g08.bks.cpg/sg63_29_cif.got.tgz:57533.got - 2010.06.03 15:47:04.
