data_PCOD9469435
_publ_section_title
;
Structure prediction by ZEFSAII (Michael W. Deem and Ramdas Pophale) SiO2 
 PCOD9469435
Probable space group: C M C M
;
_chemical_formula_sum "Si O2"
_cell_formula_units_Z 84
_cell_length_a 14.893965
_cell_length_b 18.893528
_cell_length_c 16.437546
_cell_angle_alpha 90.000000
_cell_angle_beta 90.000000
_cell_angle_gamma 90.000000
_cell_volume 4625.517961
_symmetry_space_group_name_H-M "C M C M"
_symmetry_group_IT_number 63
_symmetry_cell_setting 'orthorhombic'
loop_
_space_group_symop_operation_xyz
x,y,z
-x,-y,1/2+z
x,-y,-z
-x,y,1/2-z
-x,-y,-z
x,y,1/2-z
-x,y,z
x,-y,1/2+z
1/2+x,1/2+y,z
1/2-x,1/2-y,1/2+z
1/2+x,1/2-y,-z
1/2-x,1/2+y,1/2-z
1/2-x,1/2-y,-z
1/2+x,1/2+y,1/2-z
1/2-x,1/2+y,z
1/2+x,1/2-y,1/2+z
loop_
_atom_site_type_symbol
_atom_site_label
_atom_site_fract_x
_atom_site_fract_y
_atom_site_fract_z
Si Si1 0.500000 0.655423 0.750000
Si Si2 0.761597 0.077772 0.479166
Si Si3 0.649255 0.222886 0.660422
Si Si4 0.896042 0.110303 0.156831
Si Si5 0.346916 0.321586 0.388059
Si Si6 0.900676 0.681052 0.483996
O O1 0.579091 0.658560 0.821711
O O2 0.830051 0.072473 0.404580
O O3 0.815163 0.114334 0.553816
O O4 0.679269 0.129460 0.457770
O O5 0.727898 0.000000 0.500000
O O6 0.618916 0.198832 0.750000
O O7 0.627367 0.306185 0.654331
O O8 0.755550 0.208765 0.652082
O O9 0.605673 0.186976 0.581800
O O10 0.885014 0.086270 0.250000
O O11 0.000000 0.101244 0.133959
O O12 0.382820 0.258437 0.446128
O O13 0.000000 0.657439 0.459401
#
# Coordination Sequence:
#
# PCOD9469435 Si02
#       6
#     4  16  16  16  16  16
#     4  12  24  36  66  96 118 148 204 258 298 364
#     4  11  24  42  59  84 124 168 199 241 303 364
#     4  10  18  33  59  88 118 147 190 246 306 347
#     4  10  20  35  57  86 116 152 199 246 294 355
#     4  11  21  39  59  90 121 152 197 250 306 348
#     4  11  21  38  64  89 118 153 200 256 301 353
#
# _framework density 18.160128
#
# number of rings (size 3 to 8) (size 9 to 14) (size 15 to 20)
#    0.000    1.333    5.714    1.714    1.333    1.905 
#    1.714    0.000    0.000    0.000    0.000    0.000 
#    0.000    0.000    0.000    0.000    0.000    0.000 
#
# Total GULP energy -233894.171485 kJ/mol
# GULP energy per Si atom -5568.908845 kJ/mol
# Density = 1.811879 g / cm^3
# Si number density = 18.160128 Si / 1000 Ang^3
#
#
#
# Elastic Constant Matrix: (Units=GPa)
#
#
# Indices 1 2 3 4 5 6 
#
# 1 97.8852 4.1895 28.2033 0.0000 0.0000 0.0000
# 2 4.1895 40.3283 4.5157 0.0000 0.0000 0.0000
# 3 28.2033 4.5157 62.7254 0.0000 0.0000 0.0000
# 4 0.0000 0.0000 0.0000 1.2178 0.0000 0.0000
# 5 0.0000 0.0000 0.0000 0.0000 31.4439 0.0000
# 6 0.0000 0.0000 0.0000 0.0000 0.0000 -3.2453
#
#
#
# Elastic Compliance Matrix: (Units=1/GPa)
#
#
# Indices 1 2 3 4 5 6 
#
# 1 0.011753 -0.000634 -0.005239 0.000000 0.000000 0.000000
# 2 -0.000634 0.025032 -0.001517 0.000000 0.000000 0.000000
# 3 -0.005239 -0.001517 0.018407 0.000000 0.000000 0.000000
# 4 0.000000 0.000000 0.000000 0.821143 0.000000 0.000000
# 5 0.000000 0.000000 0.000000 0.000000 0.031803 0.000000
# 6 0.000000 0.000000 0.000000 0.000000 0.000000 -0.308139
#
#
# Mechanical properties :
#
#
# Convention : Reuss Voigt Hill
#
# Bulk Modulus (GPa) = 24.74499 30.52845 27.63672
# Shear Modulus (GPa) = 7.95863 16.81865 12.38864
#
# Velocity S-wave (km/s) = 2.09571 3.04654 2.61471
# Velocity P-wave (km/s) = 4.41719 5.40578 4.93629
#
# Compressibility (1/GPa) = 0.04041222
#
# Stress axis : x y z
#
# Youngs Moduli (GPa) = 85.08759 39.94851 54.32660
#
# Poissons Ratio (x) = 0.02534 0.28460
# Poissons Ratio (y) = 0.05397 0.08241
# Poissons Ratio (z) = 0.44575 0.06060
#
# Static dielectric constant tensor:
#      x y z
#    x 1.620570 0.000000 0.000000 
#    y 0.000000 1.593350 0.000000 
#    z 0.000000 0.000000 1.638990 
# 
# From -- ./inp_files/31764.got.cif
#   From: 2010.05.17/outbox.cif.g08.bks.cpg/sg63_16_cif.got.tgz:31764.got - 2010.06.03 15:47:04.
