data_PCOD9469989
_publ_section_title
;
Structure prediction by ZEFSAII (Michael W. Deem and Ramdas Pophale) SiO2 
 PCOD9469989
Probable space group: C M C M
;
_chemical_formula_sum "Si O2"
_cell_formula_units_Z 96
_cell_length_a 13.024637
_cell_length_b 27.167687
_cell_length_c 14.909403
_cell_angle_alpha 90.000000
_cell_angle_beta 90.000000
_cell_angle_gamma 90.000000
_cell_volume 5275.681238
_symmetry_space_group_name_H-M "C M C M"
_symmetry_group_IT_number 63
_symmetry_cell_setting 'orthorhombic'
loop_
_space_group_symop_operation_xyz
x,y,z
-x,-y,1/2+z
x,-y,-z
-x,y,1/2-z
-x,-y,-z
x,y,1/2-z
-x,y,z
x,-y,1/2+z
1/2+x,1/2+y,z
1/2-x,1/2-y,1/2+z
1/2+x,1/2-y,-z
1/2-x,1/2+y,1/2-z
1/2-x,1/2-y,-z
1/2+x,1/2+y,1/2-z
1/2-x,1/2+y,z
1/2+x,1/2-y,1/2+z
loop_
_atom_site_type_symbol
_atom_site_label
_atom_site_fract_x
_atom_site_fract_y
_atom_site_fract_z
Si Si1 0.115113 0.343078 0.857485
Si Si2 0.374663 0.359793 0.145951
Si Si3 0.620345 0.270838 0.847169
Si Si4 0.617773 0.553121 0.520121
Si Si5 0.624731 0.259607 0.045557
Si Si6 0.827441 0.885716 0.852166
O O1 0.114981 0.338397 0.750000
O O2 0.140298 0.289591 0.897171
O O3 0.207426 0.379976 0.878422
O O4 0.000000 0.357259 0.886629
O O5 0.343279 0.358470 0.250000
O O6 0.500000 0.360390 0.144324
O O7 0.342476 0.310495 0.092788
O O8 0.338394 0.408768 0.093508
O O9 0.666373 0.255983 0.750000
O O10 0.500000 0.257775 0.843868
O O11 0.629576 0.330085 0.852427
O O12 0.661048 0.252506 0.942816
O O13 0.666933 0.500000 0.500000
O O14 0.500000 0.543658 0.549190
O O15 0.618369 0.582093 0.426355
O O16 0.500000 0.264633 0.039141
O O17 0.836937 0.904196 0.750000
#
# Coordination Sequence:
#
# PCOD9469989 Si02
#       6
#    16  16  16  16  16  16
#     4   9  18  31  47  69  94 121 156 197 238 276
#     4   9  16  27  43  63  89 121 154 186 224 273
#     4   9  16  26  41  63  93 125 155 186 223 273
#     4  10  20  33  48  68  95 124 154 189 231 281
#     4   9  15  26  45  65  89 124 157 189 230 274
#     4  10  19  31  48  69  93 123 157 195 234 277
#
# _framework density 18.196701999999998
#
# number of rings (size 3 to 8) (size 9 to 14) (size 15 to 20)
#    0.000    2.667    1.667    1.000    0.000    4.333 
#    0.000    1.667    0.000    0.500    0.000    0.000 
#    0.000    0.000    0.000    0.000    0.000    0.000 
#
# Total GULP energy -267516.960760 kJ/mol
# GULP energy per Si atom -5573.270016 kJ/mol
# Density = 1.815529 g / cm^3
# Si number density = 18.196702 Si / 1000 Ang^3
#
#
#
# Elastic Constant Matrix: (Units=GPa)
#
#
# Indices 1 2 3 4 5 6 
#
# 1 46.8832 1.4518 6.3124 0.0000 0.0000 0.0000
# 2 1.4518 57.6482 42.5403 0.0000 0.0000 0.0000
# 3 6.3124 42.5403 105.9840 0.0000 0.0000 0.0000
# 4 0.0000 0.0000 0.0000 7.7401 0.0000 0.0000
# 5 0.0000 0.0000 0.0000 0.0000 19.2331 0.0000
# 6 0.0000 0.0000 0.0000 0.0000 0.0000 13.5229
#
#
#
# Elastic Compliance Matrix: (Units=1/GPa)
#
#
# Indices 1 2 3 4 5 6 
#
# 1 0.021515 0.000574 -0.001512 0.000000 0.000000 0.000000
# 2 0.000574 0.024662 -0.009933 0.000000 0.000000 0.000000
# 3 -0.001512 -0.009933 0.013512 0.000000 0.000000 0.000000
# 4 0.000000 0.000000 0.000000 0.129197 0.000000 0.000000
# 5 0.000000 0.000000 0.000000 0.000000 0.051994 0.000000
# 6 0.000000 0.000000 0.000000 0.000000 0.000000 0.073949
#
#
# Mechanical properties :
#
#
# Convention : Reuss Voigt Hill
#
# Bulk Modulus (GPa) = 26.35216 34.56940 30.46078
# Shear Modulus (GPa) = 14.31758 18.77994 16.54876
#
# Velocity S-wave (km/s) = 2.80808 3.21604 3.01896
# Velocity P-wave (km/s) = 5.00270 5.72970 5.37850
#
# Compressibility (1/GPa) = 0.03794755
#
# Stress axis : x y z
#
# Youngs Moduli (GPa) = 46.47838 40.54804 74.00593
#
# Poissons Ratio (x) = -0.02326 0.11188
# Poissons Ratio (y) = -0.02666 0.73511
# Poissons Ratio (z) = 0.07026 0.40277
#
# Static dielectric constant tensor:
#      x y z
#    x 1.709620 0.000000 0.000000 
#    y 0.000000 1.595900 0.000000 
#    z 0.000000 0.000000 1.653430 
# 
# From -- ./inp_files/32692.got.cif
#   From: 2010.05.17/outbox.cif.g08.bks.cpg/sg63_17_cif.got.tgz:32692.got - 2010.06.03 15:47:04.
