data_PCOD9469126
_publ_section_title
;
Structure prediction by ZEFSAII (Michael W. Deem and Ramdas Pophale) SiO2 
 PCOD9469126
Probable space group: C M C M
;
_chemical_formula_sum "Si O2"
_cell_formula_units_Z 96
_cell_length_a 13.730587
_cell_length_b 16.928144
_cell_length_c 21.284318
_cell_angle_alpha 90.000000
_cell_angle_beta 90.000000
_cell_angle_gamma 90.000000
_cell_volume 4947.185419
_symmetry_space_group_name_H-M "C M C M"
_symmetry_group_IT_number 63
_symmetry_cell_setting 'orthorhombic'
loop_
_space_group_symop_operation_xyz
x,y,z
-x,-y,1/2+z
x,-y,-z
-x,y,1/2-z
-x,-y,-z
x,y,1/2-z
-x,y,z
x,-y,1/2+z
1/2+x,1/2+y,z
1/2-x,1/2-y,1/2+z
1/2+x,1/2-y,-z
1/2-x,1/2+y,1/2-z
1/2-x,1/2-y,-z
1/2+x,1/2+y,1/2-z
1/2-x,1/2+y,z
1/2+x,1/2-y,1/2+z
loop_
_atom_site_type_symbol
_atom_site_label
_atom_site_fract_x
_atom_site_fract_y
_atom_site_fract_z
Si Si1 0.615168 0.404049 0.367693
Si Si2 0.795554 0.493516 0.863084
Si Si3 0.209424 0.769286 0.431205
Si Si4 0.109585 0.384842 0.953978
Si Si5 0.883869 0.790916 0.250000
Si Si6 0.390366 0.153435 0.896916
Si Si7 0.380935 0.109266 0.250000
O O1 0.500000 0.419364 0.369381
O O2 0.683361 0.479928 0.359035
O O3 0.652280 0.352193 0.426935
O O4 0.638841 0.343503 0.310791
O O5 0.817278 0.450340 0.928907
O O6 0.856419 0.575092 0.861057
O O7 0.836127 0.435811 0.809903
O O8 0.250000 0.750000 0.500000
O O9 0.136877 0.697021 0.418848
O O10 0.306841 0.780594 0.389913
O O11 0.000000 0.409619 0.937083
O O12 0.111488 0.370162 0.028680
O O13 0.848311 0.701105 0.250000
O O14 0.000000 0.783148 0.250000
O O15 0.500000 0.177231 0.881148
O O16 0.500000 0.104659 0.250000
#
# Coordination Sequence:
#
# PCOD9469126 Si02
#       7
#    16  16  16  16   8  16   8
#     4  10  20  36  55  75 105 142 180 221 265 318
#     4  11  21  32  50  78 106 134 170 213 266 317
#     4   9  18  31  51  77 103 134 176 218 261 313
#     4  10  18  31  52  75 100 133 174 218 259 302
#     4   9  19  36  58  79  97 129 175 217 261 313
#     4   9  18  32  50  72 102 139 172 206 254 312
#     4  11  21  32  51  81 109 129 162 219 272 311
#
# _framework density 19.404972999999998
#
# number of rings (size 3 to 8) (size 9 to 14) (size 15 to 20)
#    0.000    2.167    0.000    4.000    0.000    3.333 
#    0.000    0.833    0.000   14.000    0.000    7.000 
#    0.000    0.000    0.000    0.000    0.000    0.000 
#
# Total GULP energy -267603.972117 kJ/mol
# GULP energy per Si atom -5575.082752 kJ/mol
# Density = 1.936081 g / cm^3
# Si number density = 19.404973 Si / 1000 Ang^3
#
#
#
# Elastic Constant Matrix: (Units=GPa)
#
#
# Indices 1 2 3 4 5 6 
#
# 1 150.5043 38.1096 20.8424 0.0000 0.0000 0.0000
# 2 38.1096 64.5317 11.0254 0.0000 0.0000 0.0000
# 3 20.8424 11.0254 43.9241 0.0000 0.0000 0.0000
# 4 0.0000 0.0000 0.0000 19.2056 0.0000 0.0000
# 5 0.0000 0.0000 0.0000 0.0000 18.5910 0.0000
# 6 0.0000 0.0000 0.0000 0.0000 0.0000 38.9498
#
#
#
# Elastic Compliance Matrix: (Units=1/GPa)
#
#
# Indices 1 2 3 4 5 6 
#
# 1 0.008123 -0.004324 -0.002769 0.000000 0.000000 0.000000
# 2 -0.004324 0.018492 -0.002590 0.000000 0.000000 0.000000
# 3 -0.002769 -0.002590 0.024731 0.000000 0.000000 0.000000
# 4 0.000000 0.000000 0.000000 0.052068 0.000000 0.000000
# 5 0.000000 0.000000 0.000000 0.000000 0.053790 0.000000
# 6 0.000000 0.000000 0.000000 0.000000 0.000000 0.025674
#
#
# Mechanical properties :
#
#
# Convention : Reuss Voigt Hill
#
# Bulk Modulus (GPa) = 31.26971 44.32386 37.79679
# Shear Modulus (GPa) = 23.48490 27.94812 25.71651
#
# Velocity S-wave (km/s) = 3.48264 3.79919 3.64435
# Velocity P-wave (km/s) = 5.68515 6.49124 6.10152
#
# Compressibility (1/GPa) = 0.03197983
#
# Stress axis : x y z
#
# Youngs Moduli (GPa) = 123.11308 54.07684 40.43582
#
# Poissons Ratio (x) = 0.23382 0.11196
# Poissons Ratio (y) = 0.53231 0.10473
# Poissons Ratio (z) = 0.34089 0.14006
#
# Static dielectric constant tensor:
#      x y z
#    x 1.699500 0.000000 0.000000 
#    y 0.000000 1.694910 0.000000 
#    z 0.000000 0.000000 1.729510 
# 
# From -- ./inp_files/61526.got.cif
#   From: 2010.05.17/outbox.cif.g08.bks.cpg/sg63_31_cif.got.tgz:61526.got - 2010.06.03 15:47:04.
