data_PCOD9469050
_publ_section_title
;
Structure prediction by ZEFSAII (Michael W. Deem and Ramdas Pophale) SiO2 
 PCOD9469050
Probable space group: C M C M
;
_chemical_formula_sum "Si O2"
_cell_formula_units_Z 88
_cell_length_a 19.403442
_cell_length_b 28.534082
_cell_length_c 9.921863
_cell_angle_alpha 90.000000
_cell_angle_beta 90.000000
_cell_angle_gamma 90.000000
_cell_volume 5493.332766
_symmetry_space_group_name_H-M "C M C M"
_symmetry_group_IT_number 63
_symmetry_cell_setting 'orthorhombic'
loop_
_space_group_symop_operation_xyz
x,y,z
-x,-y,1/2+z
x,-y,-z
-x,y,1/2-z
-x,-y,-z
x,y,1/2-z
-x,y,z
x,-y,1/2+z
1/2+x,1/2+y,z
1/2-x,1/2-y,1/2+z
1/2+x,1/2-y,-z
1/2-x,1/2+y,1/2-z
1/2-x,1/2-y,-z
1/2+x,1/2+y,1/2-z
1/2-x,1/2+y,z
1/2+x,1/2-y,1/2+z
loop_
_atom_site_type_symbol
_atom_site_label
_atom_site_fract_x
_atom_site_fract_y
_atom_site_fract_z
Si Si1 0.630397 0.316907 0.591410
Si Si2 0.770957 0.638049 0.091633
Si Si3 0.346050 0.210716 0.899566
Si Si4 0.000000 0.699430 0.516798
Si Si5 0.000000 0.406236 0.911055
Si Si6 0.856218 0.454311 0.588287
Si Si7 0.000000 0.801431 0.093224
O O1 0.608879 0.318712 0.750000
O O2 0.689850 0.354821 0.566903
O O3 0.665187 0.265638 0.571757
O O4 0.566651 0.318877 0.489822
O O5 0.783051 0.647715 0.250000
O O6 0.800411 0.586539 0.064335
O O7 0.812711 0.675948 0.005708
O O8 0.319703 0.200130 0.750000
O O9 0.428830 0.204590 0.903002
O O10 0.000000 0.647808 0.454293
O O11 0.000000 0.744383 0.417464
O O12 0.930498 0.432733 0.953774
O O13 0.000000 0.406568 0.750000
O O14 0.842538 0.500000 0.500000
O O15 0.858006 0.464084 0.750000
O O16 0.000000 0.814813 0.250000
#
# Coordination Sequence:
#
# PCOD9469050 Si02
#       7
#    16  16  16   8   8  16   8
#     4   9  19  34  50  71 102 136 163 197 245 301
#     4  10  20  34  52  71  96 132 169 203 250 307
#     4  10  19  30  46  71 102 132 168 210 247 285
#     4  10  18  31  46  69 101 139 176 205 243 288
#     4  10  18  32  51  69  94 130 174 215 245 283
#     4  10  21  36  52  72  96 128 171 216 258 298
#     4  10  20  31  51  78 103 132 167 205 241 288
#
# _framework density 16.019418999999999
#
# number of rings (size 3 to 8) (size 9 to 14) (size 15 to 20)
#    0.000    2.182    1.818    1.636    0.000    6.545 
#    0.000    0.000    0.000    0.000    0.000    0.636 
#    0.000    0.000    0.000    0.000    0.000    0.000 
#
# Total GULP energy -245325.324778 kJ/mol
# GULP energy per Si atom -5575.575563 kJ/mol
# Density = 1.598296 g / cm^3
# Si number density = 16.019419 Si / 1000 Ang^3
#
#
#
# Elastic Constant Matrix: (Units=GPa)
#
#
# Indices 1 2 3 4 5 6 
#
# 1 93.1702 66.8344 64.0360 0.0000 0.0000 0.0000
# 2 66.8344 91.4815 53.8187 0.0000 0.0000 0.0000
# 3 64.0360 53.8187 74.8101 0.0000 0.0000 0.0000
# 4 0.0000 0.0000 0.0000 19.1173 0.0000 0.0000
# 5 0.0000 0.0000 0.0000 0.0000 4.4151 0.0000
# 6 0.0000 0.0000 0.0000 0.0000 0.0000 17.7200
#
#
#
# Elastic Compliance Matrix: (Units=1/GPa)
#
#
# Indices 1 2 3 4 5 6 
#
# 1 0.033131 -0.013039 -0.018979 0.000000 0.000000 0.000000
# 2 -0.013039 0.024084 -0.006165 0.000000 0.000000 0.000000
# 3 -0.018979 -0.006165 0.034048 0.000000 0.000000 0.000000
# 4 0.000000 0.000000 0.000000 0.052309 0.000000 0.000000
# 5 0.000000 0.000000 0.000000 0.000000 0.226498 0.000000
# 6 0.000000 0.000000 0.000000 0.000000 0.000000 0.056434
#
#
# Mechanical properties :
#
#
# Convention : Reuss Voigt Hill
#
# Bulk Modulus (GPa) = 67.12881 69.87112 68.49997
# Shear Modulus (GPa) = 9.84573 13.23531 11.54052
#
# Velocity S-wave (km/s) = 2.48183 2.87749 2.68695
# Velocity P-wave (km/s) = 7.08578 7.39940 7.24429
#
# Compressibility (1/GPa) = 0.01489673
#
# Stress axis : x y z
#
# Youngs Moduli (GPa) = 30.18338 41.52086 29.37063
#
# Poissons Ratio (x) = 0.54141 0.55742
# Poissons Ratio (y) = 0.39357 0.18107
# Poissons Ratio (z) = 0.57284 0.25597
#
# Static dielectric constant tensor:
#      x y z
#    x 1.557550 0.000000 0.000000 
#    y 0.000000 1.518190 0.000000 
#    z 0.000000 0.000000 1.536470 
# 
# From -- ./inp_files/6917.got.cif
#   From: 2010.05.17/outbox.cif.g08.bks.cpg/sg63_4_cif.got.tgz:6917.got - 2010.06.03 15:47:04.
