data_PCOD9469766
_publ_section_title
;
Structure prediction by ZEFSAII (Michael W. Deem and Ramdas Pophale) SiO2 
 PCOD9469766
Probable space group: C M C M
;
_chemical_formula_sum "Si O2"
_cell_formula_units_Z 80
_cell_length_a 7.782047
_cell_length_b 27.744200
_cell_length_c 19.079697
_cell_angle_alpha 90.000000
_cell_angle_beta 90.000000
_cell_angle_gamma 90.000000
_cell_volume 4119.433813
_symmetry_space_group_name_H-M "C M C M"
_symmetry_group_IT_number 63
_symmetry_cell_setting 'orthorhombic'
loop_
_space_group_symop_operation_xyz
x,y,z
-x,-y,1/2+z
x,-y,-z
-x,y,1/2-z
-x,-y,-z
x,y,1/2-z
-x,y,z
x,-y,1/2+z
1/2+x,1/2+y,z
1/2-x,1/2-y,1/2+z
1/2+x,1/2-y,-z
1/2-x,1/2+y,1/2-z
1/2-x,1/2-y,-z
1/2+x,1/2+y,1/2-z
1/2-x,1/2+y,z
1/2+x,1/2-y,1/2+z
loop_
_atom_site_type_symbol
_atom_site_label
_atom_site_fract_x
_atom_site_fract_y
_atom_site_fract_z
Si Si1 0.788809 0.651989 0.467220
Si Si2 0.798844 0.298790 0.672238
Si Si3 0.205718 0.096683 0.828303
Si Si4 0.706025 0.949556 0.470717
Si Si5 0.701025 0.199153 0.891256
O O1 0.726850 0.669804 0.391882
O O2 0.732217 0.598244 0.488385
O O3 0.734108 0.687731 0.530129
O O4 0.000000 0.652588 0.468122
O O5 0.723029 0.304605 0.750000
O O6 0.788102 0.243322 0.647842
O O7 0.000000 0.311479 0.676755
O O8 0.263034 0.083639 0.750000
O O9 0.256685 0.059661 0.889077
O O10 0.277757 0.148968 0.849942
O O11 0.000000 0.100726 0.828542
O O12 0.500000 0.950010 0.479036
O O13 0.774248 0.000000 0.500000
O O14 0.500000 0.210942 0.895424
#
# Coordination Sequence:
#
# PCOD9469766 Si02
#       5
#    16  16  16  16  16
#     4   8  16  31  48  68  94 124 158 194 236 287
#     4  10  19  30  45  66  95 129 161 193 231 282
#     4  10  20  33  50  74 102 129 160 200 245 293
#     4   9  18  34  55  76  98 125 161 206 250 293
#     4  10  19  31  49  70  95 127 161 200 242 284
#
# _framework density 19.420142999999999
#
# number of rings (size 3 to 8) (size 9 to 14) (size 15 to 20)
#    0.000    2.600    0.000    3.600    0.000    4.800 
#    0.000    5.000    0.000    3.600    0.000    0.000 
#    0.000    0.000    0.000    0.000    0.000    0.000 
#
# Total GULP energy -223165.197176 kJ/mol
# GULP energy per Si atom -5579.129929 kJ/mol
# Density = 1.937594 g / cm^3
# Si number density = 19.420143 Si / 1000 Ang^3
#
#
#
# Elastic Constant Matrix: (Units=GPa)
#
#
# Indices 1 2 3 4 5 6 
#
# 1 22.4732 -4.3534 -7.3924 0.0000 0.0000 0.0000
# 2 -4.3534 73.9268 82.7533 0.0000 0.0000 0.0000
# 3 -7.3924 82.7533 192.7398 0.0000 0.0000 0.0000
# 4 0.0000 0.0000 0.0000 19.4828 0.0000 0.0000
# 5 0.0000 0.0000 0.0000 0.0000 15.9306 0.0000
# 6 0.0000 0.0000 0.0000 0.0000 0.0000 13.3406
#
#
#
# Elastic Compliance Matrix: (Units=1/GPa)
#
#
# Indices 1 2 3 4 5 6 
#
# 1 0.045140 0.001387 0.001136 0.000000 0.000000 0.000000
# 2 0.001387 0.026087 -0.011147 0.000000 0.000000 0.000000
# 3 0.001136 -0.011147 0.010018 0.000000 0.000000 0.000000
# 4 0.000000 0.000000 0.000000 0.051327 0.000000 0.000000
# 5 0.000000 0.000000 0.000000 0.000000 0.062772 0.000000
# 6 0.000000 0.000000 0.000000 0.000000 0.000000 0.074959
#
#
# Mechanical properties :
#
#
# Convention : Reuss Voigt Hill
#
# Bulk Modulus (GPa) = 15.62621 47.90609 31.76615
# Shear Modulus (GPa) = 16.18732 24.29298 20.24015
#
# Velocity S-wave (km/s) = 2.89023 3.54067 3.23185
# Velocity P-wave (km/s) = 4.38198 6.43715 5.50630
#
# Compressibility (1/GPa) = 0.06399506
#
# Stress axis : x y z
#
# Youngs Moduli (GPa) = 22.15345 38.33375 99.82039
#
# Poissons Ratio (x) = -0.05315 -0.11339
# Poissons Ratio (y) = -0.03072 1.11272
# Poissons Ratio (z) = -0.02517 0.42731
#
# Static dielectric constant tensor:
#      x y z
#    x 1.722770 0.000000 0.000000 
#    y 0.000000 1.651670 0.000000 
#    z 0.000000 0.000000 1.705150 
# 
# From -- ./inp_files/40471.got.cif
#   From: 2010.05.17/outbox.cif.g08.bks.cpg/sg63_21_cif.got.tgz:40471.got - 2010.06.03 15:47:04.
