data_PCOD9469006
_publ_section_title
;
Structure prediction by ZEFSAII (Michael W. Deem and Ramdas Pophale) SiO2 
 PCOD9469006
Probable space group: C M C M
;
_chemical_formula_sum "Si O2"
_cell_formula_units_Z 104
_cell_length_a 29.295139
_cell_length_b 20.013105
_cell_length_c 8.919494
_cell_angle_alpha 90.000000
_cell_angle_beta 90.000000
_cell_angle_gamma 90.000000
_cell_volume 5229.380639
_symmetry_space_group_name_H-M "C M C M"
_symmetry_group_IT_number 63
_symmetry_cell_setting 'orthorhombic'
loop_
_space_group_symop_operation_xyz
x,y,z
-x,-y,1/2+z
x,-y,-z
-x,y,1/2-z
-x,-y,-z
x,y,1/2-z
-x,y,z
x,-y,1/2+z
1/2+x,1/2+y,z
1/2-x,1/2-y,1/2+z
1/2+x,1/2-y,-z
1/2-x,1/2+y,1/2-z
1/2-x,1/2-y,-z
1/2+x,1/2+y,1/2-z
1/2-x,1/2+y,z
1/2+x,1/2-y,1/2+z
loop_
_atom_site_type_symbol
_atom_site_label
_atom_site_fract_x
_atom_site_fract_y
_atom_site_fract_z
Si Si1 0.119569 0.425759 0.431203
Si Si2 0.410542 0.431313 0.579687
Si Si3 0.622972 0.711938 0.078019
Si Si4 0.774833 0.572656 0.929918
Si Si5 0.054425 0.687946 0.430952
Si Si6 0.716353 0.697749 0.928390
Si Si7 0.500000 0.573629 0.573094
O O1 0.113289 0.500000 0.500000
O O2 0.114502 0.427198 0.250000
O O3 0.172602 0.405850 0.465519
O O4 0.083189 0.374782 0.503390
O O5 0.395901 0.500000 0.500000
O O6 0.423978 0.448738 0.750000
O O7 0.377565 0.368931 0.583514
O O8 0.453420 0.399663 0.492192
O O9 0.627262 0.736018 0.250000
O O10 0.579383 0.747986 0.005020
O O11 0.667186 0.723164 0.979591
O O12 0.772850 0.566773 0.750000
O O13 0.736097 0.625348 0.978156
O O14 0.767482 0.500000 0.000000
O O15 0.058661 0.690164 0.250000
O O16 0.000000 0.685130 0.466186
O O17 0.718517 0.697804 0.750000
O O18 0.750000 0.750000 0.000000
O O19 0.500000 0.500000 0.500000
O O20 0.500000 0.574068 0.750000
#
# Coordination Sequence:
#
# PCOD9469006 Si02
#       7
#    16  16  16  16  16  16   8
#     4  10  20  38  65  95 128 164 203 248 302 366
#     4  10  21  37  57  82 113 151 196 245 296 353
#     4  11  25  42  61  87 120 160 205 252 307 367
#     4   9  20  37  60  92 125 159 199 244 297 359
#     4  11  25  43  63  90 122 159 207 260 316 373
#     4  11  23  40  63  90 122 159 202 249 301 363
#     4  10  18  30  52  78 106 140 183 232 283 340
#
# _framework density 19.887633000000001
#
# number of rings (size 3 to 8) (size 9 to 14) (size 15 to 20)
#    0.000    1.692    0.000    4.846    1.077    7.692 
#    0.000    3.077    0.000    0.000    0.000    0.000 
#    0.000    0.000    0.000    0.000    0.000    0.000 
#
# Total GULP energy -290002.113018 kJ/mol
# GULP energy per Si atom -5576.963712 kJ/mol
# Density = 1.984237 g / cm^3
# Si number density = 19.887633 Si / 1000 Ang^3
#
#
#
# Elastic Constant Matrix: (Units=GPa)
#
#
# Indices 1 2 3 4 5 6 
#
# 1 70.5749 27.1480 32.5358 0.0000 0.0000 0.0000
# 2 27.1480 93.2988 30.5934 0.0000 0.0000 0.0000
# 3 32.5358 30.5934 107.9081 0.0000 0.0000 0.0000
# 4 0.0000 0.0000 0.0000 32.3702 0.0000 0.0000
# 5 0.0000 0.0000 0.0000 0.0000 23.8140 0.0000
# 6 0.0000 0.0000 0.0000 0.0000 0.0000 30.2883
#
#
#
# Elastic Compliance Matrix: (Units=1/GPa)
#
#
# Indices 1 2 3 4 5 6 
#
# 1 0.017554 -0.003718 -0.004239 0.000000 0.000000 0.000000
# 2 -0.003718 0.012604 -0.002452 0.000000 0.000000 0.000000
# 3 -0.004239 -0.002452 0.011240 0.000000 0.000000 0.000000
# 4 0.000000 0.000000 0.000000 0.030893 0.000000 0.000000
# 5 0.000000 0.000000 0.000000 0.000000 0.041992 0.000000
# 6 0.000000 0.000000 0.000000 0.000000 0.000000 0.033016
#
#
# Mechanical properties :
#
#
# Convention : Reuss Voigt Hill
#
# Bulk Modulus (GPa) = 48.58990 50.25956 49.42473
# Shear Modulus (GPa) = 28.57520 29.39481 28.98500
#
# Velocity S-wave (km/s) = 3.79467 3.84871 3.82178
# Velocity P-wave (km/s) = 6.60943 6.71392 6.66188
#
# Compressibility (1/GPa) = 0.02058041
#
# Stress axis : x y z
#
# Youngs Moduli (GPa) = 56.96864 79.33834 88.96449
#
# Poissons Ratio (x) = 0.29497 0.37708
# Poissons Ratio (y) = 0.21180 0.21818
# Poissons Ratio (z) = 0.24147 0.19458
#
# Static dielectric constant tensor:
#      x y z
#    x 1.752870 0.000000 0.000000 
#    y 0.000000 1.501200 0.000000 
#    z 0.000000 0.000000 1.682470 
# 
# From -- ./inp_files/12565.got.cif
#   From: 2010.05.17/outbox.cif.g08.bks.cpg/sg63_7_cif.got.tgz:12565.got - 2010.06.03 15:47:04.
