data_PCOD9469294
_publ_section_title
;
Structure prediction by ZEFSAII (Michael W. Deem and Ramdas Pophale) SiO2 
 PCOD9469294
Probable space group: C M C M
;
_chemical_formula_sum "Si O2"
_cell_formula_units_Z 96
_cell_length_a 7.609316
_cell_length_b 30.481560
_cell_length_c 19.077513
_cell_angle_alpha 90.000000
_cell_angle_beta 90.000000
_cell_angle_gamma 90.000000
_cell_volume 4424.911284
_symmetry_space_group_name_H-M "C M C M"
_symmetry_group_IT_number 63
_symmetry_cell_setting 'orthorhombic'
loop_
_space_group_symop_operation_xyz
x,y,z
-x,-y,1/2+z
x,-y,-z
-x,y,1/2-z
-x,-y,-z
x,y,1/2-z
-x,y,z
x,-y,1/2+z
1/2+x,1/2+y,z
1/2-x,1/2-y,1/2+z
1/2+x,1/2-y,-z
1/2-x,1/2+y,1/2-z
1/2-x,1/2-y,-z
1/2+x,1/2+y,1/2-z
1/2-x,1/2+y,z
1/2+x,1/2-y,1/2+z
loop_
_atom_site_type_symbol
_atom_site_label
_atom_site_fract_x
_atom_site_fract_y
_atom_site_fract_z
Si Si1 0.284962 0.406157 0.084567
Si Si2 0.715039 0.512658 0.828527
Si Si3 0.798557 0.059457 0.436285
Si Si4 0.711651 0.691502 0.560203
Si Si5 0.703349 0.869936 0.672491
Si Si6 0.207497 0.786171 0.902834
O O1 0.500000 0.405169 0.082089
O O2 0.236346 0.438421 0.147400
O O3 0.226525 0.355709 0.087084
O O4 0.222317 0.428002 0.011538
O O5 0.774503 0.501973 0.750000
O O6 0.500000 0.510042 0.827964
O O7 0.778687 0.478729 0.887727
O O8 0.796680 0.102781 0.388170
O O9 0.000000 0.046290 0.450402
O O10 0.500000 0.690402 0.557195
O O11 0.760876 0.734435 0.604230
O O12 0.775579 0.700016 0.480377
O O13 0.775699 0.878697 0.750000
O O14 0.500000 0.883396 0.671228
O O15 0.713038 0.818645 0.654019
O O16 0.000000 0.793931 0.901842
#
# Coordination Sequence:
#
# PCOD9469294 Si02
#       6
#    16  16  16  16  16  16
#     4   9  16  29  49  75 106 139 176 218 262 309
#     4   9  17  28  47  77 108 137 172 218 267 312
#     4  10  18  32  53  78 103 135 179 222 262 310
#     4   9  17  31  51  76 104 135 171 214 261 309
#     4  11  23  36  51  75 108 142 174 216 272 325
#     4  10  19  33  53  77 103 135 174 215 261 312
#
# _framework density 21.695350999999999
#
# number of rings (size 3 to 8) (size 9 to 14) (size 15 to 20)
#    0.000    2.333    1.667    2.000    0.000    4.667 
#    0.000    0.833    0.000    6.000    0.000    0.000 
#    0.000    0.000    0.000    0.000    0.000    0.000 
#
# Total GULP energy -268018.033880 kJ/mol
# GULP energy per Si atom -5583.709039 kJ/mol
# Density = 2.164597 g / cm^3
# Si number density = 21.695351 Si / 1000 Ang^3
#
#
#
# Elastic Constant Matrix: (Units=GPa)
#
#
# Indices 1 2 3 4 5 6 
#
# 1 50.2981 -3.7814 -2.9008 0.0000 0.0000 0.0000
# 2 -3.7814 125.9939 11.5189 0.0000 0.0000 0.0000
# 3 -2.9008 11.5189 37.3796 0.0000 0.0000 0.0000
# 4 0.0000 0.0000 0.0000 -9.1103 0.0000 0.0000
# 5 0.0000 0.0000 0.0000 0.0000 0.0588 0.0000
# 6 0.0000 0.0000 0.0000 0.0000 0.0000 12.8278
#
#
#
# Elastic Compliance Matrix: (Units=1/GPa)
#
#
# Indices 1 2 3 4 5 6 
#
# 1 0.019998 0.000472 0.001407 0.000000 0.000000 0.000000
# 2 0.000472 0.008178 -0.002484 0.000000 0.000000 0.000000
# 3 0.001407 -0.002484 0.027627 0.000000 0.000000 0.000000
# 4 0.000000 0.000000 0.000000 -0.109766 0.000000 0.000000
# 5 0.000000 0.000000 0.000000 0.000000 16.992992 0.000000
# 6 0.000000 0.000000 0.000000 0.000000 0.000000 0.077956
#
#
# Mechanical properties :
#
#
# Convention : Reuss Voigt Hill
#
# Bulk Modulus (GPa) = 18.31753 24.81609 21.56681
# Shear Modulus (GPa) = 0.29349 14.67760 7.48555
#
# Velocity S-wave (km/s) = 0.36820 2.60384 1.85951
# Velocity P-wave (km/s) = 2.93975 4.52805 3.81742
#
# Compressibility (1/GPa) = 0.05459251
#
# Stress axis : x y z
#
# Youngs Moduli (GPa) = 50.00487 122.27769 36.19638
#
# Poissons Ratio (x) = -0.05767 -0.05091
# Poissons Ratio (y) = -0.02358 0.08990
# Poissons Ratio (z) = -0.07034 0.30368
#
# Static dielectric constant tensor:
#      x y z
#    x 1.828870 0.000000 0.000000 
#    y 0.000000 1.799360 0.000000 
#    z 0.000000 0.000000 1.756410 
# 
# From -- ./inp_files/51293.got.cif
#   From: 2010.05.17/outbox.cif.g08.bks.cpg/sg63_26_cif.got.tgz:51293.got - 2010.06.03 15:47:04.
