data_PCOD9469880
_publ_section_title
;
Structure prediction by ZEFSAII (Michael W. Deem and Ramdas Pophale) SiO2 
 PCOD9469880
Probable space group: C M C M
;
_chemical_formula_sum "Si O2"
_cell_formula_units_Z 96
_cell_length_a 9.440694
_cell_length_b 23.773642
_cell_length_c 26.462439
_cell_angle_alpha 90.000000
_cell_angle_beta 90.000000
_cell_angle_gamma 90.000000
_cell_volume 5939.221325
_symmetry_space_group_name_H-M "C M C M"
_symmetry_group_IT_number 63
_symmetry_cell_setting 'orthorhombic'
loop_
_space_group_symop_operation_xyz
x,y,z
-x,-y,1/2+z
x,-y,-z
-x,y,1/2-z
-x,-y,-z
x,y,1/2-z
-x,y,z
x,-y,1/2+z
1/2+x,1/2+y,z
1/2-x,1/2-y,1/2+z
1/2+x,1/2-y,-z
1/2-x,1/2+y,1/2-z
1/2-x,1/2-y,-z
1/2+x,1/2+y,1/2-z
1/2-x,1/2+y,z
1/2+x,1/2-y,1/2+z
loop_
_atom_site_type_symbol
_atom_site_label
_atom_site_fract_x
_atom_site_fract_y
_atom_site_fract_z
Si Si1 0.836040 0.241851 0.372943
Si Si2 0.830655 0.518267 0.442426
Si Si3 0.666451 0.149521 0.425348
Si Si4 0.168439 0.919726 0.394945
Si Si5 0.331208 0.331963 0.191090
Si Si6 0.661662 0.833470 0.039975
O O1 0.759640 0.183526 0.385621
O O2 0.754001 0.279562 0.332012
O O3 0.830942 0.279327 0.424318
O O4 0.000000 0.234433 0.359213
O O5 0.793696 0.500000 0.500000
O O6 0.798936 0.583706 0.432329
O O7 0.747917 0.478043 0.404111
O O8 0.000000 0.510677 0.437308
O O9 0.500000 0.154355 0.412466
O O10 0.685954 0.176463 0.481068
O O11 0.202052 0.886884 0.342854
O O12 0.227991 0.878125 0.438198
O O13 0.000000 0.926443 0.398776
O O14 0.300097 0.340224 0.250000
O O15 0.500000 0.321707 0.185340
O O16 0.500000 0.856776 0.044303
#
# Coordination Sequence:
#
# PCOD9469880 Si02
#       6
#    16  16  16  16  16  16
#     4  10  20  31  48  75 103 127 161 211 257 294
#     4  10  19  33  50  68  99 143 179 204 238 294
#     4  10  19  31  48  67  97 141 177 199 237 296
#     4  10  19  30  49  77 102 126 165 216 257 291
#     4   9  19  37  58  76  97 128 164 204 256 313
#     4   9  17  31  47  66  98 138 170 199 240 296
#
# _framework density 16.163734999999999
#
# number of rings (size 3 to 8) (size 9 to 14) (size 15 to 20)
#    0.000    2.333    1.667    1.500    0.000    3.333 
#    0.000    0.000    0.000    1.000    0.000    4.667 
#    0.000    0.000    0.000    0.000    0.000    0.000 
#
# Total GULP energy -267633.475060 kJ/mol
# GULP energy per Si atom -5575.697397 kJ/mol
# Density = 1.612695 g / cm^3
# Si number density = 16.163735 Si / 1000 Ang^3
#
#
#
# Elastic Constant Matrix: (Units=GPa)
#
#
# Indices 1 2 3 4 5 6 
#
# 1 60.6950 51.7927 53.9266 0.0000 0.0000 0.0000
# 2 51.7927 80.9741 45.4513 0.0000 0.0000 0.0000
# 3 53.9266 45.4513 87.4257 0.0000 0.0000 0.0000
# 4 0.0000 0.0000 0.0000 13.3490 0.0000 0.0000
# 5 0.0000 0.0000 0.0000 0.0000 20.3705 0.0000
# 6 0.0000 0.0000 0.0000 0.0000 0.0000 31.7292
#
#
#
# Elastic Compliance Matrix: (Units=1/GPa)
#
#
# Indices 1 2 3 4 5 6 
#
# 1 0.056852 -0.023553 -0.022823 0.000000 0.000000 0.000000
# 2 -0.023553 0.027196 0.000389 0.000000 0.000000 0.000000
# 3 -0.022823 0.000389 0.025314 0.000000 0.000000 0.000000
# 4 0.000000 0.000000 0.000000 0.074912 0.000000 0.000000
# 5 0.000000 0.000000 0.000000 0.000000 0.049091 0.000000
# 6 0.000000 0.000000 0.000000 0.000000 0.000000 0.031517
#
#
# Mechanical properties :
#
#
# Convention : Reuss Voigt Hill
#
# Bulk Modulus (GPa) = 57.50953 59.04844 58.27898
# Shear Modulus (GPa) = 13.78734 18.28469 16.03601
#
# Velocity S-wave (km/s) = 2.92375 3.36701 3.15318
# Velocity P-wave (km/s) = 6.85962 7.19210 7.02783
#
# Compressibility (1/GPa) = 0.01738842
#
# Stress axis : x y z
#
# Youngs Moduli (GPa) = 17.58943 36.76990 39.50414
#
# Poissons Ratio (x) = 0.86605 0.90161
# Poissons Ratio (y) = 0.41429 -0.01538
# Poissons Ratio (z) = 0.40145 -0.01432
#
# Static dielectric constant tensor:
#      x y z
#    x 1.543850 0.000000 0.000000 
#    y 0.000000 1.545250 0.000000 
#    z 0.000000 0.000000 1.524060 
# 
# From -- ./inp_files/67010.got.cif
#   From: 2010.05.17/outbox.cif.g08.bks.cpg/sg63_34_cif.got.tgz:67010.got - 2010.06.03 15:47:04.
