data_PCOD9469666
_publ_section_title
;
Structure prediction by ZEFSAII (Michael W. Deem and Ramdas Pophale) SiO2 
 PCOD9469666
Probable space group: C M C M
;
_chemical_formula_sum "Si O2"
_cell_formula_units_Z 80
_cell_length_a 19.171218
_cell_length_b 23.162718
_cell_length_c 9.391801
_cell_angle_alpha 90.000000
_cell_angle_beta 90.000000
_cell_angle_gamma 90.000000
_cell_volume 4170.499825
_symmetry_space_group_name_H-M "C M C M"
_symmetry_group_IT_number 63
_symmetry_cell_setting 'orthorhombic'
loop_
_space_group_symop_operation_xyz
x,y,z
-x,-y,1/2+z
x,-y,-z
-x,y,1/2-z
-x,-y,-z
x,y,1/2-z
-x,y,z
x,-y,1/2+z
1/2+x,1/2+y,z
1/2-x,1/2-y,1/2+z
1/2+x,1/2-y,-z
1/2-x,1/2+y,1/2-z
1/2-x,1/2-y,-z
1/2+x,1/2+y,1/2-z
1/2-x,1/2+y,z
1/2+x,1/2-y,1/2+z
loop_
_atom_site_type_symbol
_atom_site_label
_atom_site_fract_x
_atom_site_fract_y
_atom_site_fract_z
Si Si1 0.861342 0.732237 0.583820
Si Si2 0.422670 0.939259 0.920138
Si Si3 0.000000 0.125944 0.588092
Si Si4 0.711018 0.861929 0.921035
Si Si5 0.500000 0.766658 0.913266
Si Si6 0.636900 0.628273 0.415009
O O1 0.865292 0.716703 0.750000
O O2 0.800488 0.697121 0.506629
O O3 0.931241 0.716130 0.497996
O O4 0.857317 0.801682 0.576401
O O5 0.420255 0.948263 0.750000
O O6 0.500000 0.914211 0.953088
O O7 0.355869 0.900828 0.956758
O O8 0.418009 0.000000 0.000000
O O9 0.000000 0.196357 0.590329
O O10 0.928828 0.109073 0.507926
O O11 0.000000 0.105517 0.750000
O O12 0.711555 0.850811 0.750000
O O13 0.785215 0.891092 0.956881
O O14 0.500000 0.787657 0.750000
O O15 0.623875 0.613596 0.250000
#
# Coordination Sequence:
#
# PCOD9469666 Si02
#       6
#    16  16   8  16   8  16
#     4  10  19  29  43  67  98 131 166 207 245 283
#     4   9  19  36  55  74  97 127 165 208 253 299
#     4   9  17  29  47  67  90 125 166 201 238 282
#     4  10  20  32  49  72  97 130 167 201 247 303
#     4   9  17  29  43  59  86 127 168 203 237 284
#     4   9  18  32  47  67  99 135 168 202 241 291
#
# _framework density 19.182354
#
# number of rings (size 3 to 8) (size 9 to 14) (size 15 to 20)
#    0.000    2.600    0.000    1.800    1.400    4.800 
#    0.000    0.000    0.000    0.000    0.000    0.700 
#    0.000    0.000    0.000    0.000    0.000    0.000 
#
# Total GULP energy -223099.795354 kJ/mol
# GULP energy per Si atom -5577.494884 kJ/mol
# Density = 1.913869 g / cm^3
# Si number density = 19.182354 Si / 1000 Ang^3
#
#
#
# Elastic Constant Matrix: (Units=GPa)
#
#
# Indices 1 2 3 4 5 6 
#
# 1 177.6482 20.5759 68.5711 0.0000 0.0000 0.0000
# 2 20.5759 21.8581 7.0669 0.0000 0.0000 0.0000
# 3 68.5711 7.0669 61.9874 0.0000 0.0000 0.0000
# 4 0.0000 0.0000 0.0000 14.1520 0.0000 0.0000
# 5 0.0000 0.0000 0.0000 0.0000 24.7447 0.0000
# 6 0.0000 0.0000 0.0000 0.0000 0.0000 17.6990
#
#
#
# Elastic Compliance Matrix: (Units=1/GPa)
#
#
# Indices 1 2 3 4 5 6 
#
# 1 0.010631 -0.006443 -0.011026 0.000000 0.000000 0.000000
# 2 -0.006443 0.051405 0.001267 0.000000 0.000000 0.000000
# 3 -0.011026 0.001267 0.028185 0.000000 0.000000 0.000000
# 4 0.000000 0.000000 0.000000 0.070661 0.000000 0.000000
# 5 0.000000 0.000000 0.000000 0.000000 0.040413 0.000000
# 6 0.000000 0.000000 0.000000 0.000000 0.000000 0.056500
#
#
# Mechanical properties :
#
#
# Convention : Reuss Voigt Hill
#
# Bulk Modulus (GPa) = 17.29592 50.43575 33.86583
# Shear Modulus (GPa) = 16.15655 22.33779 19.24717
#
# Velocity S-wave (km/s) = 2.90532 3.41617 3.17105
# Velocity P-wave (km/s) = 4.50452 6.47381 5.57678
#
# Compressibility (1/GPa) = 0.05781711
#
# Stress axis : x y z
#
# Youngs Moduli (GPa) = 94.06208 19.45332 35.48004
#
# Poissons Ratio (x) = 0.12534 0.39120
# Poissons Ratio (y) = 0.60603 -0.04494
# Poissons Ratio (z) = 1.03712 -0.02464
#
# Static dielectric constant tensor:
#      x y z
#    x 1.706040 0.000000 0.000000 
#    y 0.000000 1.666830 0.000000 
#    z 0.000000 0.000000 1.634920 
# 
# From -- ./inp_files/8457.got.cif
#   From: 2010.05.17/outbox.cif.g08.bks.cpg/sg63_5_cif.got.tgz:8457.got - 2010.06.03 15:47:04.
