data_PCOD9469107
_publ_section_title
;
Structure prediction by ZEFSAII (Michael W. Deem and Ramdas Pophale) SiO2 
 PCOD9469107
Probable space group: C M C M
;
_chemical_formula_sum "Si O2"
_cell_formula_units_Z 96
_cell_length_a 7.384323
_cell_length_b 23.160071
_cell_length_c 24.604993
_cell_angle_alpha 90.000000
_cell_angle_beta 90.000000
_cell_angle_gamma 90.000000
_cell_volume 4207.981456
_symmetry_space_group_name_H-M "C M C M"
_symmetry_group_IT_number 63
_symmetry_cell_setting 'orthorhombic'
loop_
_space_group_symop_operation_xyz
x,y,z
-x,-y,1/2+z
x,-y,-z
-x,y,1/2-z
-x,-y,-z
x,y,1/2-z
-x,y,z
x,-y,1/2+z
1/2+x,1/2+y,z
1/2-x,1/2-y,1/2+z
1/2+x,1/2-y,-z
1/2-x,1/2+y,1/2-z
1/2-x,1/2-y,-z
1/2+x,1/2+y,1/2-z
1/2-x,1/2+y,z
1/2+x,1/2-y,1/2+z
loop_
_atom_site_type_symbol
_atom_site_label
_atom_site_fract_x
_atom_site_fract_y
_atom_site_fract_z
Si Si1 0.220818 0.466120 0.642590
Si Si2 0.786446 0.795279 0.953072
Si Si3 0.721332 0.208975 0.862851
Si Si4 0.220452 0.583609 0.905190
Si Si5 0.215975 0.397751 0.750000
Si Si6 0.217375 0.759703 0.750000
Si Si7 0.204501 0.576723 0.026550
O O1 0.266615 0.534093 0.638462
O O2 0.283756 0.429728 0.694932
O O3 0.286416 0.442408 0.584101
O O4 0.000000 0.461822 0.642951
O O5 0.722069 0.763237 0.899322
O O6 0.696232 0.854548 0.968489
O O7 0.000000 0.806649 0.948392
O O8 0.750000 0.750000 0.000000
O O9 0.500000 0.207322 0.864315
O O10 0.781124 0.147409 0.887145
O O11 0.781292 0.225364 0.802838
O O12 0.000000 0.585575 0.908716
O O13 0.283044 0.565969 0.966282
O O14 0.245106 0.328573 0.750000
O O15 0.000000 0.405888 0.750000
O O16 0.000000 0.756013 0.750000
O O17 0.000000 0.553595 0.026787
#
# Coordination Sequence:
#
# PCOD9469107 Si02
#       7
#    16  16  16  16   8   8  16
#     4   9  18  30  50  76 102 134 169 208 255 300
#     4  11  20  32  50  75 104 135 168 208 254 303
#     4   9  18  31  49  76 103 128 167 211 250 296
#     4   9  16  29  49  75 104 130 164 211 251 293
#     4  10  20  35  51  75 103 126 167 214 250 299
#     4  10  20  35  55  75  99 134 169 206 256 307
#     4  10  18  31  51  76 103 133 169 209 254 303
#
# _framework density 22.813787000000001
#
# number of rings (size 3 to 8) (size 9 to 14) (size 15 to 20)
#    0.000    2.333    1.667    2.000    0.000    2.667 
#    0.000    4.167    0.000    3.000    0.000    1.167 
#    0.000    0.000    0.000    0.000    0.000    0.000 
#
# Total GULP energy -267995.357727 kJ/mol
# GULP energy per Si atom -5583.236619 kJ/mol
# Density = 2.276186 g / cm^3
# Si number density = 22.813787 Si / 1000 Ang^3
#
#
#
# Elastic Constant Matrix: (Units=GPa)
#
#
# Indices 1 2 3 4 5 6 
#
# 1 83.5031 2.1652 6.3135 0.0000 0.0000 0.0000
# 2 2.1652 104.5131 45.8421 0.0000 0.0000 0.0000
# 3 6.3135 45.8421 172.6532 0.0000 0.0000 0.0000
# 4 0.0000 0.0000 0.0000 38.8235 0.0000 0.0000
# 5 0.0000 0.0000 0.0000 0.0000 -2.7787 0.0000
# 6 0.0000 0.0000 0.0000 0.0000 0.0000 2.6759
#
#
#
# Elastic Compliance Matrix: (Units=1/GPa)
#
#
# Indices 1 2 3 4 5 6 
#
# 1 0.012009 -0.000064 -0.000422 0.000000 0.000000 0.000000
# 2 -0.000064 0.010830 -0.002873 0.000000 0.000000 0.000000
# 3 -0.000422 -0.002873 0.006570 0.000000 0.000000 0.000000
# 4 0.000000 0.000000 0.000000 0.025758 0.000000 0.000000
# 5 0.000000 0.000000 0.000000 0.000000 -0.359880 0.000000
# 6 0.000000 0.000000 0.000000 0.000000 0.000000 0.373713
#
#
# Mechanical properties :
#
#
# Convention : Reuss Voigt Hill
#
# Bulk Modulus (GPa) = 44.06992 52.14567 48.10780
# Shear Modulus (GPa) = 60.03792 28.16737 44.10265
#
# Velocity S-wave (km/s) = 5.13553 3.51759 4.40154
# Velocity P-wave (km/s) = 7.38404 6.27731 6.85305
#
# Compressibility (1/GPa) = 0.02269121
#
# Stress axis : x y z
#
# Youngs Moduli (GPa) = 83.26962 92.33844 152.20093
#
# Poissons Ratio (x) = 0.00587 0.06427
# Poissons Ratio (y) = 0.00529 0.43729
# Poissons Ratio (z) = 0.03516 0.26530
#
# Static dielectric constant tensor:
#      x y z
#    x 1.894790 0.000000 0.000000 
#    y 0.000000 1.818610 0.000000 
#    z 0.000000 0.000000 1.997910 
# 
# From -- ./inp_files/60022.got.cif
#   From: 2010.05.17/outbox.cif.g08.bks.cpg/sg63_31_cif.got.tgz:60022.got - 2010.06.03 15:47:04.
