data_PCOD9469584
_publ_section_title
;
Structure prediction by ZEFSAII (Michael W. Deem and Ramdas Pophale) SiO2 
 PCOD9469584
Probable space group: C M C M
;
_chemical_formula_sum "Si O2"
_cell_formula_units_Z 76
_cell_length_a 11.295776
_cell_length_b 31.283124
_cell_length_c 12.322966
_cell_angle_alpha 90.000000
_cell_angle_beta 90.000000
_cell_angle_gamma 90.000000
_cell_volume 4354.531514
_symmetry_space_group_name_H-M "C M C M"
_symmetry_group_IT_number 63
_symmetry_cell_setting 'orthorhombic'
loop_
_space_group_symop_operation_xyz
x,y,z
-x,-y,1/2+z
x,-y,-z
-x,y,1/2-z
-x,-y,-z
x,y,1/2-z
-x,y,z
x,-y,1/2+z
1/2+x,1/2+y,z
1/2-x,1/2-y,1/2+z
1/2+x,1/2-y,-z
1/2-x,1/2+y,1/2-z
1/2-x,1/2-y,-z
1/2+x,1/2+y,1/2-z
1/2-x,1/2+y,z
1/2+x,1/2-y,1/2+z
loop_
_atom_site_type_symbol
_atom_site_label
_atom_site_fract_x
_atom_site_fract_y
_atom_site_fract_z
Si Si1 0.856801 0.629376 0.122321
Si Si2 0.357856 0.952024 0.020385
Si Si3 0.000000 0.172830 0.873839
Si Si4 0.249229 0.299124 0.033845
Si Si5 0.000000 0.910802 0.250000
Si Si6 0.238615 0.576772 0.750000
Si Si7 0.362519 0.169384 0.750000
O O1 0.827450 0.628984 0.250000
O O2 0.000000 0.632464 0.112861
O O3 0.818861 0.585278 0.062546
O O4 0.800124 0.669147 0.058513
O O5 0.500000 0.953168 0.011921
O O6 0.322847 0.939210 0.141479
O O7 0.312804 0.000000 0.000000
O O8 0.881795 0.187019 0.933733
O O9 0.000000 0.121819 0.852433
O O10 0.000000 0.190981 0.750000
O O11 0.168538 0.305431 0.140917
O O12 0.250000 0.250000 0.000000
O O13 0.123289 0.935042 0.250000
O O14 0.222716 0.628050 0.750000
O O15 0.500000 0.155916 0.750000
#
# Coordination Sequence:
#
# PCOD9469584 Si02
#       7
#    16  16   8  16   4   8   8
#     4  10  22  40  58  86 126 162 195 246 311 371
#     4  10  21  36  61  94 123 154 194 252 314 370
#     4  10  20  42  61  83 118 160 205 259 297 361
#     4  12  25  39  60  89 119 161 207 251 305 361
#     4  10  18  38  64  84 114 160 206 254 294 358
#     4  12  20  38  64  91 117 159 209 254 306 364
#     4  12  22  40  62  89 117 148 208 261 303 353
#
# _framework density 17.453082999999999
#
# number of rings (size 3 to 8) (size 9 to 14) (size 15 to 20)
#    0.316    0.842    5.263    1.579    5.895    0.000 
#    0.000    1.053    0.000    0.000    0.000    0.000 
#    0.000    0.000    0.000    0.000    0.000    0.000 
#
# Total GULP energy -212068.003150 kJ/mol
# GULP energy per Si atom -5580.736925 kJ/mol
# Density = 1.741336 g / cm^3
# Si number density = 17.453083 Si / 1000 Ang^3
#
#
#
# Elastic Constant Matrix: (Units=GPa)
#
#
# Indices 1 2 3 4 5 6 
#
# 1 45.3765 7.6404 20.1280 0.0000 0.0000 0.0000
# 2 7.6404 139.4297 83.0304 0.0000 0.0000 0.0000
# 3 20.1280 83.0304 159.2804 0.0000 0.0000 0.0000
# 4 0.0000 0.0000 0.0000 15.5286 0.0000 0.0000
# 5 0.0000 0.0000 0.0000 0.0000 30.4234 0.0000
# 6 0.0000 0.0000 0.0000 0.0000 0.0000 21.5123
#
#
#
# Elastic Compliance Matrix: (Units=1/GPa)
#
#
# Indices 1 2 3 4 5 6 
#
# 1 0.023393 0.000694 -0.003318 0.000000 0.000000 0.000000
# 2 0.000694 0.010421 -0.005520 0.000000 0.000000 0.000000
# 3 -0.003318 -0.005520 0.009575 0.000000 0.000000 0.000000
# 4 0.000000 0.000000 0.000000 0.064397 0.000000 0.000000
# 5 0.000000 0.000000 0.000000 0.000000 0.032869 0.000000
# 6 0.000000 0.000000 0.000000 0.000000 0.000000 0.046485
#
#
# Mechanical properties :
#
#
# Convention : Reuss Voigt Hill
#
# Bulk Modulus (GPa) = 36.89910 62.85383 49.87646
# Shear Modulus (GPa) = 23.53352 29.04536 26.28944
#
# Velocity S-wave (km/s) = 3.67602 4.08388 3.88531
# Velocity P-wave (km/s) = 6.26141 7.63732 6.98334
#
# Compressibility (1/GPa) = 0.02710093
#
# Stress axis : x y z
#
# Youngs Moduli (GPa) = 42.74837 95.95727 104.43785
#
# Poissons Ratio (x) = -0.06658 0.34651
# Poissons Ratio (y) = -0.02966 0.57651
# Poissons Ratio (z) = 0.14183 0.52970
#
# Static dielectric constant tensor:
#      x y z
#    x 1.594360 0.000000 0.000000 
#    y 0.000000 1.600660 0.000000 
#    z 0.000000 0.000000 1.558090 
# 
# From -- ./inp_files/17928.got.cif
#   From: 2010.05.17/outbox.cif.g08.bks.cpg/sg63_9_cif.got.tgz:17928.got - 2010.06.03 15:47:04.
