data_PCOD9469757
_publ_section_title
;
Structure prediction by ZEFSAII (Michael W. Deem and Ramdas Pophale) SiO2 
 PCOD9469757
Probable space group: C M C M
;
_chemical_formula_sum "Si O2"
_cell_formula_units_Z 104
_cell_length_a 25.027024
_cell_length_b 33.883899
_cell_length_c 8.684754
_cell_angle_alpha 90.000000
_cell_angle_beta 90.000000
_cell_angle_gamma 90.000000
_cell_volume 7364.785627
_symmetry_space_group_name_H-M "C M C M"
_symmetry_group_IT_number 63
_symmetry_cell_setting 'orthorhombic'
loop_
_space_group_symop_operation_xyz
x,y,z
-x,-y,1/2+z
x,-y,-z
-x,y,1/2-z
-x,-y,-z
x,y,1/2-z
-x,y,z
x,-y,1/2+z
1/2+x,1/2+y,z
1/2-x,1/2-y,1/2+z
1/2+x,1/2-y,-z
1/2-x,1/2+y,1/2-z
1/2-x,1/2-y,-z
1/2+x,1/2+y,1/2-z
1/2-x,1/2+y,z
1/2+x,1/2-y,1/2+z
loop_
_atom_site_type_symbol
_atom_site_label
_atom_site_fract_x
_atom_site_fract_y
_atom_site_fract_z
Si Si1 0.939509 0.159655 0.567334
Si Si2 0.940480 0.752902 0.932330
Si Si3 0.232273 0.188849 0.565780
Si Si4 0.000000 0.955680 0.064675
Si Si5 0.332537 0.768125 0.565991
Si Si6 0.881275 0.955817 0.434891
Si Si7 0.335676 0.380560 0.568266
O O1 0.929979 0.154169 0.750000
O O2 0.938357 0.205904 0.525028
O O3 0.892388 0.139419 0.474512
O O4 0.000000 0.145399 0.533826
O O5 0.935192 0.761191 0.750000
O O6 0.000000 0.735868 0.957506
O O7 0.890331 0.727819 0.989283
O O8 0.236244 0.188256 0.750000
O O9 0.288857 0.200888 0.493445
O O10 0.191572 0.224756 0.524171
O O11 0.208504 0.148013 0.505367
O O12 0.941297 0.940682 0.018749
O O13 0.000000 0.955555 0.250000
O O14 0.000000 0.000000 0.000000
O O15 0.336887 0.769879 0.750000
O O16 0.879145 0.956989 0.250000
O O17 0.839387 0.924409 0.499083
O O18 0.874683 0.000000 0.500000
O O19 0.328743 0.382081 0.750000
#
# Coordination Sequence:
#
# PCOD9469757 Si02
#       7
#    16  16  16   8  16  16  16
#     4  10  20  32  44  59  82 111 143 181 225 267
#     4  10  19  30  45  65  89 116 146 180 218 262
#     4  10  20  33  48  65  86 114 145 182 222 262
#     4   8  16  30  48  64  80 104 134 172 216 268
#     4  10  19  31  48  66  88 116 145 180 221 262
#     4  10  20  35  50  65  84 109 140 177 222 269
#     4  12  23  33  47  66  87 110 143 181 222 270
#
# _framework density 14.121252
#
# number of rings (size 3 to 8) (size 9 to 14) (size 15 to 20)
#    0.000    1.846    1.538    3.692    1.077    3.692 
#    0.000    0.000    0.000    0.000    0.000    0.000 
#    0.000    0.000    0.000    0.000    0.000    0.769 
#
# Total GULP energy -290164.340377 kJ/mol
# GULP energy per Si atom -5580.083469 kJ/mol
# Density = 1.408911 g / cm^3
# Si number density = 14.121252 Si / 1000 Ang^3
#
#
#
# Elastic Constant Matrix: (Units=GPa)
#
#
# Indices 1 2 3 4 5 6 
#
# 1 83.3065 37.2942 24.9513 0.0000 0.0000 0.0000
# 2 37.2942 65.7762 17.0957 0.0000 0.0000 0.0000
# 3 24.9513 17.0957 42.2821 0.0000 0.0000 0.0000
# 4 0.0000 0.0000 0.0000 19.2301 0.0000 0.0000
# 5 0.0000 0.0000 0.0000 0.0000 22.3904 0.0000
# 6 0.0000 0.0000 0.0000 0.0000 0.0000 26.1768
#
#
#
# Elastic Compliance Matrix: (Units=1/GPa)
#
#
# Indices 1 2 3 4 5 6 
#
# 1 0.017854 -0.008252 -0.007200 0.000000 0.000000 0.000000
# 2 -0.008252 0.020802 -0.003541 0.000000 0.000000 0.000000
# 3 -0.007200 -0.003541 0.029331 0.000000 0.000000 0.000000
# 4 0.000000 0.000000 0.000000 0.052002 0.000000 0.000000
# 5 0.000000 0.000000 0.000000 0.000000 0.044662 0.000000
# 6 0.000000 0.000000 0.000000 0.000000 0.000000 0.038202
#
#
# Mechanical properties :
#
#
# Convention : Reuss Voigt Hill
#
# Bulk Modulus (GPa) = 33.33117 38.89415 36.11266
# Shear Modulus (GPa) = 19.93304 21.02770 20.48037
#
# Velocity S-wave (km/s) = 3.76115 3.86305 3.81244
# Velocity P-wave (km/s) = 6.52047 6.89205 6.70883
#
# Compressibility (1/GPa) = 0.03000195
#
# Stress axis : x y z
#
# Youngs Moduli (GPa) = 56.00845 48.07179 34.09350
#
# Poissons Ratio (x) = 0.39669 0.24546
# Poissons Ratio (y) = 0.46218 0.12073
# Poissons Ratio (z) = 0.40324 0.17023
#
# Static dielectric constant tensor:
#      x y z
#    x 1.475150 0.000000 0.000000 
#    y 0.000000 1.460710 0.000000 
#    z 0.000000 0.000000 1.466930 
# 
# From -- ./inp_files/11116.got.cif
#   From: 2010.05.17/outbox.cif.g08.bks.cpg/sg63_6_cif.got.tgz:11116.got - 2010.06.03 15:47:04.
