data_PCOD9469299
_publ_section_title
;
Structure prediction by ZEFSAII (Michael W. Deem and Ramdas Pophale) SiO2 
 PCOD9469299
Probable space group: C M C M
;
_chemical_formula_sum "Si O2"
_cell_formula_units_Z 128
_cell_length_a 24.303707
_cell_length_b 13.142133
_cell_length_c 23.737829
_cell_angle_alpha 90.000000
_cell_angle_beta 90.000000
_cell_angle_gamma 90.000000
_cell_volume 7581.923109
_symmetry_space_group_name_H-M "C M C M"
_symmetry_group_IT_number 63
_symmetry_cell_setting 'orthorhombic'
loop_
_space_group_symop_operation_xyz
x,y,z
-x,-y,1/2+z
x,-y,-z
-x,y,1/2-z
-x,-y,-z
x,y,1/2-z
-x,y,z
x,-y,1/2+z
1/2+x,1/2+y,z
1/2-x,1/2-y,1/2+z
1/2+x,1/2-y,-z
1/2-x,1/2+y,1/2-z
1/2-x,1/2-y,-z
1/2+x,1/2+y,1/2-z
1/2-x,1/2+y,z
1/2+x,1/2-y,1/2+z
loop_
_atom_site_type_symbol
_atom_site_label
_atom_site_fract_x
_atom_site_fract_y
_atom_site_fract_z
Si Si1 0.845781 0.619561 0.501316
Si Si2 0.276862 0.150688 0.609699
Si Si3 0.666391 0.683561 0.314019
Si Si4 0.064082 0.916131 0.632353
Si Si5 0.563632 0.651997 0.607569
Si Si6 0.226880 0.547519 0.314583
Si Si7 0.168253 0.718611 0.379298
Si Si8 0.436613 0.286027 0.979222
O O1 0.859217 0.500000 0.500000
O O2 0.796309 0.636917 0.545501
O O3 0.832448 0.658368 0.438622
O O4 0.895981 0.690378 0.522021
O O5 0.316914 0.230141 0.641481
O O6 0.215764 0.196533 0.615015
O O7 0.280049 0.044800 0.642645
O O8 0.670423 0.722542 0.250000
O O9 0.606931 0.637011 0.326342
O O10 0.712112 0.595122 0.320123
O O11 0.073650 0.864429 0.571296
O O12 0.000000 0.899773 0.647299
O O13 0.073330 0.036904 0.627536
O O14 0.500000 0.679233 0.620691
O O15 0.609612 0.728456 0.630759
O O16 0.569670 0.659073 0.539653
O O17 0.218680 0.515549 0.250000
O O18 0.186195 0.639059 0.331678
O O19 0.500000 0.252046 0.974939
#
# Coordination Sequence:
#
# PCOD9469299 Si02
#       8
#    16  16  16  16  16  16  16  16
#     4  11  20  34  53  78 111 141 171 221 271 320
#     4  11  20  36  54  77 108 140 177 214 267 318
#     4  10  21  35  53  77 104 138 179 220 258 310
#     4  10  18  32  53  78 108 139 175 217 261 312
#     4   9  18  33  54  80 108 139 173 214 265 320
#     4  10  21  37  57  77 102 139 182 221 260 311
#     4  10  21  35  54  81 110 139 173 219 267 317
#     4   9  18  32  51  77 107 142 180 214 258 315
#
# _framework density 16.882259999999999
#
# number of rings (size 3 to 8) (size 9 to 14) (size 15 to 20)
#    0.000    2.000    2.500    1.875    0.000    2.500 
#    0.000    0.625    0.000    1.875    0.000    0.000 
#    0.000    0.000    0.000    0.000    0.000    0.000 
#
# Total GULP energy -357005.008754 kJ/mol
# GULP energy per Si atom -5578.203262 kJ/mol
# Density = 1.684384 g / cm^3
# Si number density = 16.882260 Si / 1000 Ang^3
#
#
#
# Elastic Constant Matrix: (Units=GPa)
#
#
# Indices 1 2 3 4 5 6 
#
# 1 68.3907 34.6333 12.3272 0.0000 0.0000 0.0000
# 2 34.6333 71.4935 3.4277 0.0000 0.0000 0.0000
# 3 12.3272 3.4277 23.1132 0.0000 0.0000 0.0000
# 4 0.0000 0.0000 0.0000 13.7314 0.0000 0.0000
# 5 0.0000 0.0000 0.0000 0.0000 20.1636 0.0000
# 6 0.0000 0.0000 0.0000 0.0000 0.0000 20.6591
#
#
#
# Elastic Compliance Matrix: (Units=1/GPa)
#
#
# Indices 1 2 3 4 5 6 
#
# 1 0.021434 -0.009905 -0.009962 0.000000 0.000000 0.000000
# 2 -0.009905 0.018665 0.002515 0.000000 0.000000 0.000000
# 3 -0.009962 0.002515 0.048206 0.000000 0.000000 0.000000
# 4 0.000000 0.000000 0.000000 0.072826 0.000000 0.000000
# 5 0.000000 0.000000 0.000000 0.000000 0.049594 0.000000
# 6 0.000000 0.000000 0.000000 0.000000 0.000000 0.048405
#
#
# Mechanical properties :
#
#
# Convention : Reuss Voigt Hill
#
# Bulk Modulus (GPa) = 18.65722 29.30821 23.98271
# Shear Modulus (GPa) = 16.04096 18.41808 17.22952
#
# Velocity S-wave (km/s) = 3.08582 3.30657 3.19810
# Velocity P-wave (km/s) = 4.87563 5.65473 5.27957
#
# Compressibility (1/GPa) = 0.05359857
#
# Stress axis : x y z
#
# Youngs Moduli (GPa) = 46.65546 53.57577 20.74444
#
# Poissons Ratio (x) = 0.53069 0.20667
# Poissons Ratio (y) = 0.46214 -0.05217
# Poissons Ratio (z) = 0.46481 -0.13474
#
# Static dielectric constant tensor:
#      x y z
#    x 1.562240 0.000000 0.000000 
#    y 0.000000 1.541140 0.000000 
#    z 0.000000 0.000000 1.553740 
# 
# From -- ./inp_files/65145.got.cif
#   From: 2010.05.17/outbox.cif.g08.bks.cpg/sg63_33_cif.got.tgz:65145.got - 2010.06.03 15:47:04.
