data_PCOD9469919
_publ_section_title
;
Structure prediction by ZEFSAII (Michael W. Deem and Ramdas Pophale) SiO2 
 PCOD9469919
Probable space group: C M C M
;
_chemical_formula_sum "Si O2"
_cell_formula_units_Z 80
_cell_length_a 24.476301
_cell_length_b 25.271112
_cell_length_c 7.683698
_cell_angle_alpha 90.000000
_cell_angle_beta 90.000000
_cell_angle_gamma 90.000000
_cell_volume 4752.700255
_symmetry_space_group_name_H-M "C M C M"
_symmetry_group_IT_number 63
_symmetry_cell_setting 'orthorhombic'
loop_
_space_group_symop_operation_xyz
x,y,z
-x,-y,1/2+z
x,-y,-z
-x,y,1/2-z
-x,-y,-z
x,y,1/2-z
-x,y,z
x,-y,1/2+z
1/2+x,1/2+y,z
1/2-x,1/2-y,1/2+z
1/2+x,1/2-y,-z
1/2-x,1/2+y,1/2-z
1/2-x,1/2-y,-z
1/2+x,1/2+y,1/2-z
1/2-x,1/2+y,z
1/2+x,1/2-y,1/2+z
loop_
_atom_site_type_symbol
_atom_site_label
_atom_site_fract_x
_atom_site_fract_y
_atom_site_fract_z
Si Si1 0.222085 0.332792 0.544994
Si Si2 0.237549 0.058853 0.459300
Si Si3 0.060238 0.831175 0.455297
Si Si4 0.888035 0.940949 0.542718
Si Si5 0.167085 0.228631 0.962487
O O1 0.210099 0.337256 0.750000
O O2 0.226882 0.392082 0.472704
O O3 0.180673 0.288241 0.476142
O O4 0.282391 0.307521 0.523196
O O5 0.234896 0.063575 0.250000
O O6 0.174709 0.063124 0.524425
O O7 0.257571 0.000000 0.500000
O O8 0.057694 0.819324 0.250000
O O9 0.076680 0.892633 0.472962
O O10 0.110320 0.796152 0.525318
O O11 0.000000 0.821938 0.530527
O O12 0.886671 0.935525 0.750000
O O13 0.908019 0.000000 0.500000
O O14 0.168110 0.227886 0.750000
#
# Coordination Sequence:
#
# PCOD9469919 Si02
#       5
#    16  16  16  16  16
#     4   9  16  28  44  63  84 105 132 168 206 248
#     4   9  17  27  41  61  85 108 132 166 203 243
#     4  10  20  32  44  60  83 110 142 177 209 245
#     4  10  19  31  45  60  80 109 144 180 214 245
#     4   9  17  28  44  62  81 107 136 167 207 247
#
# _framework density 16.832536000000001
#
# number of rings (size 3 to 8) (size 9 to 14) (size 15 to 20)
#    0.000    2.600    2.000    0.600    0.000    2.400 
#    0.000    0.000    0.000    0.000    0.000    0.000 
#    0.000    0.800    0.000    0.600    0.000    1.200 
#
# Total GULP energy -222937.468763 kJ/mol
# GULP energy per Si atom -5573.436719 kJ/mol
# Density = 1.679422 g / cm^3
# Si number density = 16.832536 Si / 1000 Ang^3
#
#
#
# Elastic Constant Matrix: (Units=GPa)
#
#
# Indices 1 2 3 4 5 6 
#
# 1 86.3475 61.2567 -5.5289 0.0000 0.0000 0.0000
# 2 61.2567 125.6620 -12.7061 0.0000 0.0000 0.0000
# 3 -5.5289 -12.7061 26.0041 0.0000 0.0000 0.0000
# 4 0.0000 0.0000 0.0000 11.0882 0.0000 0.0000
# 5 0.0000 0.0000 0.0000 0.0000 6.2957 0.0000
# 6 0.0000 0.0000 0.0000 0.0000 0.0000 88.3504
#
#
#
# Elastic Compliance Matrix: (Units=1/GPa)
#
#
# Indices 1 2 3 4 5 6 
#
# 1 0.017709 -0.008681 -0.000476 0.000000 0.000000 0.000000
# 2 -0.008681 0.012627 0.004324 0.000000 0.000000 0.000000
# 3 -0.000476 0.004324 0.040467 0.000000 0.000000 0.000000
# 4 0.000000 0.000000 0.000000 0.090186 0.000000 0.000000
# 5 0.000000 0.000000 0.000000 0.000000 0.158837 0.000000
# 6 0.000000 0.000000 0.000000 0.000000 0.000000 0.011319
#
#
# Mechanical properties :
#
#
# Convention : Reuss Voigt Hill
#
# Bulk Modulus (GPa) = 16.35692 36.00632 26.18162
# Shear Modulus (GPa) = 13.84316 34.14634 23.99475
#
# Velocity S-wave (km/s) = 2.87087 4.50887 3.77967
# Velocity P-wave (km/s) = 4.55277 6.96735 5.88522
#
# Compressibility (1/GPa) = 0.06113622
#
# Stress axis : x y z
#
# Youngs Moduli (GPa) = 56.46876 79.19731 24.71153
#
# Poissons Ratio (x) = 0.68749 0.01177
# Poissons Ratio (y) = 0.49019 -0.10685
# Poissons Ratio (z) = 0.02690 -0.34245
#
# Static dielectric constant tensor:
#      x y z
#    x 1.564480 0.000000 0.000000 
#    y 0.000000 1.602280 0.000000 
#    z 0.000000 0.000000 1.620380 
# 
# From -- ./inp_files/14293.got.cif
#   From: 2010.05.17/outbox.cif.g08.bks.cpg/sg63_8_cif.got.tgz:14293.got - 2010.06.03 15:47:04.
