data_PCOD9469263
_publ_section_title
;
Structure prediction by ZEFSAII (Michael W. Deem and Ramdas Pophale) SiO2 
 PCOD9469263
Probable space group: C M C M
;
_chemical_formula_sum "Si O2"
_cell_formula_units_Z 120
_cell_length_a 28.511346
_cell_length_b 28.482886
_cell_length_c 8.711122
_cell_angle_alpha 90.000000
_cell_angle_beta 90.000000
_cell_angle_gamma 90.000000
_cell_volume 7074.175149
_symmetry_space_group_name_H-M "C M C M"
_symmetry_group_IT_number 63
_symmetry_cell_setting 'orthorhombic'
loop_
_space_group_symop_operation_xyz
x,y,z
-x,-y,1/2+z
x,-y,-z
-x,y,1/2-z
-x,-y,-z
x,y,1/2-z
-x,y,z
x,-y,1/2+z
1/2+x,1/2+y,z
1/2-x,1/2-y,1/2+z
1/2+x,1/2-y,-z
1/2-x,1/2+y,1/2-z
1/2-x,1/2-y,-z
1/2+x,1/2+y,1/2-z
1/2-x,1/2+y,z
1/2+x,1/2-y,1/2+z
loop_
_atom_site_type_symbol
_atom_site_label
_atom_site_fract_x
_atom_site_fract_y
_atom_site_fract_z
Si Si1 0.500000 0.946938 0.432040
Si Si2 0.283757 0.550869 0.565647
Si Si3 0.867056 0.121371 0.564930
Si Si4 0.707949 0.808826 0.928196
Si Si5 0.944459 0.948288 0.934067
Si Si6 0.314929 0.905060 0.430297
Si Si7 0.181002 0.211983 0.069537
Si Si8 0.905963 0.448004 0.569481
O O1 0.500000 0.949239 0.250000
O O2 0.452008 0.925230 0.493569
O O3 0.500000 0.000000 0.500000
O O4 0.294391 0.500000 0.500000
O O5 0.283896 0.548698 0.750000
O O6 0.322984 0.588328 0.519983
O O7 0.232138 0.567986 0.517872
O O8 0.869402 0.124433 0.750000
O O9 0.912573 0.093377 0.503197
O O10 0.853897 0.172402 0.496782
O O11 0.697834 0.819706 0.750000
O O12 0.764426 0.804165 0.943009
O O13 0.693165 0.850456 0.039579
O O14 0.682319 0.760852 0.977331
O O15 0.938764 0.949230 0.750000
O O16 0.000000 0.941449 0.968744
O O17 0.931141 0.000000 0.000000
O O18 0.322505 0.914784 0.250000
O O19 0.359213 0.921102 0.526743
O O20 0.171401 0.219547 0.250000
O O21 0.900697 0.500000 0.500000
O O22 0.913136 0.451685 0.750000
#
# Coordination Sequence:
#
# PCOD9469263 Si02
#       8
#     8  16  16  16  16  16  16  16
#     4  10  18  32  52  74  98 130 170 214 260 300
#     4  10  22  34  47  69 103 142 177 213 253 304
#     4  11  21  35  54  79 107 141 181 223 268 320
#     4  10  20  34  53  77 105 139 176 219 263 310
#     4  10  21  37  56  80 110 144 183 227 275 328
#     4  11  21  35  51  73 105 141 178 215 260 313
#     4  10  20  34  54  78 105 138 175 218 264 311
#     4  11  21  34  51  75 104 137 176 217 260 307
#
# _framework density 16.963108999999999
#
# number of rings (size 3 to 8) (size 9 to 14) (size 15 to 20)
#    0.000    1.600    1.333    5.400    0.000    6.133 
#    0.000    0.000    0.000    0.000    1.733    0.000 
#    0.000    0.000    0.000    0.000    0.000    0.000 
#
# Total GULP energy -334920.780315 kJ/mol
# GULP energy per Si atom -5582.013005 kJ/mol
# Density = 1.692450 g / cm^3
# Si number density = 16.963109 Si / 1000 Ang^3
#
#
#
# Elastic Constant Matrix: (Units=GPa)
#
#
# Indices 1 2 3 4 5 6 
#
# 1 52.7825 -9.0385 18.0777 0.0000 0.0000 0.0000
# 2 -9.0385 28.8743 -1.8198 0.0000 0.0000 0.0000
# 3 18.0777 -1.8198 74.4349 0.0000 0.0000 0.0000
# 4 0.0000 0.0000 0.0000 30.5314 0.0000 0.0000
# 5 0.0000 0.0000 0.0000 0.0000 77.0548 0.0000
# 6 0.0000 0.0000 0.0000 0.0000 0.0000 243.0051
#
#
#
# Elastic Compliance Matrix: (Units=1/GPa)
#
#
# Indices 1 2 3 4 5 6 
#
# 1 0.021820 0.006506 -0.005140 0.000000 0.000000 0.000000
# 2 0.006506 0.036626 -0.000685 0.000000 0.000000 0.000000
# 3 -0.005140 -0.000685 0.014666 0.000000 0.000000 0.000000
# 4 0.000000 0.000000 0.000000 0.032753 0.000000 0.000000
# 5 0.000000 0.000000 0.000000 0.000000 0.012978 0.000000
# 6 0.000000 0.000000 0.000000 0.000000 0.000000 0.004115
#
#
# Mechanical properties :
#
#
# Convention : Reuss Voigt Hill
#
# Bulk Modulus (GPa) = 13.42721 18.94784 16.18753
# Shear Modulus (GPa) = 34.14797 80.04308 57.09553
#
# Velocity S-wave (km/s) = 4.49160 6.87670 5.80790
# Velocity P-wave (km/s) = 5.90186 8.61663 7.38506
#
# Compressibility (1/GPa) = 0.07447563
#
# Stress axis : x y z
#
# Youngs Moduli (GPa) = 45.82874 27.30273 68.18389
#
# Poissons Ratio (x) = -0.17764 0.35049
# Poissons Ratio (y) = -0.29818 0.04669
# Poissons Ratio (z) = 0.23558 0.01870
#
# Static dielectric constant tensor:
#      x y z
#    x 1.592400 0.000000 0.000000 
#    y 0.000000 1.547380 0.000000 
#    z 0.000000 0.000000 1.573320 
# 
# From -- ./inp_files/13149.got.cif
#   From: 2010.05.17/outbox.cif.g08.bks.cpg/sg63_7_cif.got.tgz:13149.got - 2010.06.03 15:47:04.
