data_PCOD9469945
_publ_section_title
;
Structure prediction by ZEFSAII (Michael W. Deem and Ramdas Pophale) SiO2 
 PCOD9469945
Probable space group: C M C M
;
_chemical_formula_sum "Si O2"
_cell_formula_units_Z 96
_cell_length_a 25.380091
_cell_length_b 25.389686
_cell_length_c 8.947517
_cell_angle_alpha 90.000000
_cell_angle_beta 90.000000
_cell_angle_gamma 90.000000
_cell_volume 5765.713217
_symmetry_space_group_name_H-M "C M C M"
_symmetry_group_IT_number 63
_symmetry_cell_setting 'orthorhombic'
loop_
_space_group_symop_operation_xyz
x,y,z
-x,-y,1/2+z
x,-y,-z
-x,y,1/2-z
-x,-y,-z
x,y,1/2-z
-x,y,z
x,-y,1/2+z
1/2+x,1/2+y,z
1/2-x,1/2-y,1/2+z
1/2+x,1/2-y,-z
1/2-x,1/2+y,1/2-z
1/2-x,1/2-y,-z
1/2+x,1/2+y,1/2-z
1/2-x,1/2+y,z
1/2+x,1/2-y,1/2+z
loop_
_atom_site_type_symbol
_atom_site_label
_atom_site_fract_x
_atom_site_fract_y
_atom_site_fract_z
Si Si1 0.268534 0.446635 0.419842
Si Si2 0.605737 0.550597 0.582118
Si Si3 0.667184 0.238300 0.072356
Si Si4 0.440852 0.232867 0.927991
Si Si5 0.439902 0.345542 0.422934
Si Si6 0.270611 0.667670 0.428141
O O1 0.247815 0.500000 0.500000
O O2 0.248036 0.442359 0.250000
O O3 0.331555 0.454557 0.409400
O O4 0.263673 0.390944 0.505412
O O5 0.583771 0.500000 0.500000
O O6 0.584361 0.552899 0.750000
O O7 0.593705 0.606930 0.511863
O O8 0.661735 0.244343 0.250000
O O9 0.716220 0.199390 0.043919
O O10 0.613291 0.214188 0.004972
O O11 0.684309 0.295147 0.002888
O O12 0.437031 0.227231 0.750000
O O13 0.500000 0.213258 0.973742
O O14 0.439436 0.293808 0.977966
O O15 0.424166 0.332943 0.250000
O O16 0.500000 0.364354 0.417597
O O17 0.279914 0.664949 0.250000
#
# Coordination Sequence:
#
# PCOD9469945 Si02
#       6
#    16  16  16  16  16  16
#     4  10  19  31  47  66  91 123 158 195 236 282
#     4   9  18  29  40  56  77 105 143 184 225 268
#     4  10  20  33  50  72  98 129 161 195 241 293
#     4  10  20  32  47  68  92 119 153 192 232 276
#     4   9  17  29  43  58  79 109 145 185 229 275
#     4  10  20  33  50  73  99 126 160 201 242 287
#
# _framework density 16.650151000000001
#
# number of rings (size 3 to 8) (size 9 to 14) (size 15 to 20)
#    0.000    2.333    0.000    3.000    0.000    6.000 
#    0.000    0.000    0.000    0.000    0.000    0.000 
#    0.000    0.667    0.000    2.167    0.000    3.167 
#
# Total GULP energy -267271.336999 kJ/mol
# GULP energy per Si atom -5568.152854 kJ/mol
# Density = 1.661225 g / cm^3
# Si number density = 16.650151 Si / 1000 Ang^3
#
#
#
# Elastic Constant Matrix: (Units=GPa)
#
#
# Indices 1 2 3 4 5 6 
#
# 1 74.8175 3.2995 25.8877 0.0000 0.0000 0.0000
# 2 3.2995 62.4839 27.0655 0.0000 0.0000 0.0000
# 3 25.8877 27.0655 65.4638 0.0000 0.0000 0.0000
# 4 0.0000 0.0000 0.0000 23.9173 0.0000 0.0000
# 5 0.0000 0.0000 0.0000 0.0000 21.3073 0.0000
# 6 0.0000 0.0000 0.0000 0.0000 0.0000 19.2887
#
#
#
# Elastic Compliance Matrix: (Units=1/GPa)
#
#
# Indices 1 2 3 4 5 6 
#
# 1 0.015745 0.002273 -0.007166 0.000000 0.000000 0.000000
# 2 0.002273 0.019824 -0.009095 0.000000 0.000000 0.000000
# 3 -0.007166 -0.009095 0.021870 0.000000 0.000000 0.000000
# 4 0.000000 0.000000 0.000000 0.041811 0.000000 0.000000
# 5 0.000000 0.000000 0.000000 0.000000 0.046932 0.000000
# 6 0.000000 0.000000 0.000000 0.000000 0.000000 0.051844
#
#
# Mechanical properties :
#
#
# Convention : Reuss Voigt Hill
#
# Bulk Modulus (GPa) = 33.94181 35.03006 34.48593
# Shear Modulus (GPa) = 21.20244 22.67014 21.93629
#
# Velocity S-wave (km/s) = 3.57236 3.69393 3.63365
# Velocity P-wave (km/s) = 6.11925 6.26722 6.19368
#
# Compressibility (1/GPa) = 0.02946219
#
# Stress axis : x y z
#
# Youngs Moduli (GPa) = 63.51162 50.44505 45.72572
#
# Poissons Ratio (x) = -0.11464 0.32767
# Poissons Ratio (y) = -0.14434 0.41586
# Poissons Ratio (z) = 0.45513 0.45878
#
# Static dielectric constant tensor:
#      x y z
#    x 1.612380 0.000000 0.000000 
#    y 0.000000 1.568340 0.000000 
#    z 0.000000 0.000000 1.587440 
# 
# From -- ./inp_files/10496.got.cif
#   From: 2010.05.17/outbox.cif.g08.bks.cpg/sg63_6_cif.got.tgz:10496.got - 2010.06.03 15:47:04.
