data_PCOD9469077
_publ_section_title
;
Structure prediction by ZEFSAII (Michael W. Deem and Ramdas Pophale) SiO2 
 PCOD9469077
Probable space group: C M C M
;
_chemical_formula_sum "Si O2"
_cell_formula_units_Z 96
_cell_length_a 13.061929
_cell_length_b 24.124522
_cell_length_c 19.577418
_cell_angle_alpha 90.000000
_cell_angle_beta 90.000000
_cell_angle_gamma 90.000000
_cell_volume 6169.094876
_symmetry_space_group_name_H-M "C M C M"
_symmetry_group_IT_number 63
_symmetry_cell_setting 'orthorhombic'
loop_
_space_group_symop_operation_xyz
x,y,z
-x,-y,1/2+z
x,-y,-z
-x,y,1/2-z
-x,-y,-z
x,y,1/2-z
-x,y,z
x,-y,1/2+z
1/2+x,1/2+y,z
1/2-x,1/2-y,1/2+z
1/2+x,1/2-y,-z
1/2-x,1/2+y,1/2-z
1/2-x,1/2-y,-z
1/2+x,1/2+y,1/2-z
1/2-x,1/2+y,z
1/2+x,1/2-y,1/2+z
loop_
_atom_site_type_symbol
_atom_site_label
_atom_site_fract_x
_atom_site_fract_y
_atom_site_fract_z
Si Si1 0.251365 0.356331 0.330754
Si Si2 0.114858 0.747894 0.330698
Si Si3 0.738944 0.315869 0.572967
Si Si4 0.881132 0.074360 0.435230
Si Si5 0.378818 0.202263 0.558247
Si Si6 0.620003 0.550697 0.902698
O O1 0.228573 0.359793 0.250000
O O2 0.337088 0.308523 0.341470
O O3 0.157125 0.333560 0.376032
O O4 0.302397 0.412364 0.359113
O O5 0.113244 0.738053 0.250000
O O6 0.186073 0.704135 0.367734
O O7 0.000000 0.746113 0.358248
O O8 0.687789 0.374547 0.586439
O O9 0.654416 0.266864 0.566356
O O10 0.807641 0.317831 0.504441
O O11 0.872497 0.067914 0.517508
O O12 0.000000 0.086008 0.420366
O O13 0.856431 0.014890 0.402013
O O14 0.500000 0.197514 0.546386
O O15 0.500000 0.558604 0.882439
#
# Coordination Sequence:
#
# PCOD9469077 Si02
#       6
#    16  16  16  16  16  16
#     4  10  19  32  50  72  99 130 163 205 248 287
#     4   9  18  31  48  72  99 127 160 200 247 292
#     4  10  18  31  50  73 100 130 162 200 242 294
#     4   9  17  30  50  73  99 127 155 195 245 294
#     4  10  20  31  47  74 101 130 166 202 242 291
#     4   9  17  30  49  73  98 125 158 197 245 293
#
# _framework density 15.561439999999999
#
# number of rings (size 3 to 8) (size 9 to 14) (size 15 to 20)
#    0.000    2.500    1.667    2.500    0.000    1.333 
#    0.000    0.833    0.000    5.500    0.000    0.000 
#    0.000    0.000    0.000    0.000    0.000    0.000 
#
# Total GULP energy -267493.103083 kJ/mol
# GULP energy per Si atom -5572.772981 kJ/mol
# Density = 1.552602 g / cm^3
# Si number density = 15.561440 Si / 1000 Ang^3
#
#
#
# Elastic Constant Matrix: (Units=GPa)
#
#
# Indices 1 2 3 4 5 6 
#
# 1 85.9430 56.2460 34.8183 0.0000 0.0000 0.0000
# 2 56.2460 98.2575 38.6416 0.0000 0.0000 0.0000
# 3 34.8183 38.6416 44.3377 0.0000 0.0000 0.0000
# 4 0.0000 0.0000 0.0000 20.9157 0.0000 0.0000
# 5 0.0000 0.0000 0.0000 0.0000 18.7059 0.0000
# 6 0.0000 0.0000 0.0000 0.0000 0.0000 18.1317
#
#
#
# Elastic Compliance Matrix: (Units=1/GPa)
#
#
# Indices 1 2 3 4 5 6 
#
# 1 0.020742 -0.008319 -0.009038 0.000000 0.000000 0.000000
# 2 -0.008319 0.018821 -0.009870 0.000000 0.000000 0.000000
# 3 -0.009038 -0.009870 0.038254 0.000000 0.000000 0.000000
# 4 0.000000 0.000000 0.000000 0.047811 0.000000 0.000000
# 5 0.000000 0.000000 0.000000 0.000000 0.053459 0.000000
# 6 0.000000 0.000000 0.000000 0.000000 0.000000 0.055152
#
#
# Mechanical properties :
#
#
# Convention : Reuss Voigt Hill
#
# Bulk Modulus (GPa) = 42.80452 54.21666 48.51059
# Shear Modulus (GPa) = 16.86449 18.13948 17.50199
#
# Velocity S-wave (km/s) = 3.29559 3.41789 3.35730
# Velocity P-wave (km/s) = 6.48442 7.10577 6.80219
#
# Compressibility (1/GPa) = 0.02336202
#
# Stress axis : x y z
#
# Youngs Moduli (GPa) = 48.21239 53.13228 26.14090
#
# Poissons Ratio (x) = 0.44199 0.23627
# Poissons Ratio (y) = 0.40106 0.25802
# Poissons Ratio (z) = 0.43576 0.52443
#
# Static dielectric constant tensor:
#      x y z
#    x 1.503410 0.000000 0.000000 
#    y 0.000000 1.505970 0.000000 
#    z 0.000000 0.000000 1.527410 
# 
# From -- ./inp_files/42478.got.cif
#   From: 2010.05.17/outbox.cif.g08.bks.cpg/sg63_22_cif.got.tgz:42478.got - 2010.06.03 15:47:04.
