data_PCOD9469621
_publ_section_title
;
Structure prediction by ZEFSAII (Michael W. Deem and Ramdas Pophale) SiO2 
 PCOD9469621
Probable space group: C M C M
;
_chemical_formula_sum "Si O2"
_cell_formula_units_Z 96
_cell_length_a 27.579169
_cell_length_b 23.455006
_cell_length_c 8.535671
_cell_angle_alpha 90.000000
_cell_angle_beta 90.000000
_cell_angle_gamma 90.000000
_cell_volume 5521.465867
_symmetry_space_group_name_H-M "C M C M"
_symmetry_group_IT_number 63
_symmetry_cell_setting 'orthorhombic'
loop_
_space_group_symop_operation_xyz
x,y,z
-x,-y,1/2+z
x,-y,-z
-x,y,1/2-z
-x,-y,-z
x,y,1/2-z
-x,y,z
x,-y,1/2+z
1/2+x,1/2+y,z
1/2-x,1/2-y,1/2+z
1/2+x,1/2-y,-z
1/2-x,1/2+y,1/2-z
1/2-x,1/2-y,-z
1/2+x,1/2+y,1/2-z
1/2-x,1/2+y,z
1/2+x,1/2-y,1/2+z
loop_
_atom_site_type_symbol
_atom_site_label
_atom_site_fract_x
_atom_site_fract_y
_atom_site_fract_z
Si Si1 0.635542 0.147948 0.573562
Si Si2 0.698646 0.261930 0.572800
Si Si3 0.381649 0.335385 0.432121
Si Si4 0.181034 0.935571 0.439028
Si Si5 0.714099 0.064140 0.436069
Si Si6 0.556032 0.770354 0.939530
O O1 0.624920 0.127896 0.750000
O O2 0.670907 0.202268 0.582472
O O3 0.667242 0.100861 0.484346
O O4 0.587666 0.175913 0.497379
O O5 0.700896 0.286154 0.750000
O O6 0.750000 0.250000 0.500000
O O7 0.667974 0.300568 0.455522
O O8 0.394046 0.343512 0.250000
O O9 0.364366 0.396764 0.495738
O O10 0.421018 0.290253 0.498205
O O11 0.181370 0.935004 0.250000
O O12 0.234218 0.913972 0.495244
O O13 0.176516 0.000000 0.500000
O O14 0.718704 0.063111 0.250000
O O15 0.708504 0.000000 0.500000
O O16 0.559213 0.769308 0.750000
O O17 0.500000 0.774713 0.985286
#
# Coordination Sequence:
#
# PCOD9469621 Si02
#       6
#    16  16  16  16  16  16
#     4  10  20  33  48  70  99 128 160 197 240 290
#     4  10  19  28  42  65  94 126 156 191 234 283
#     4   9  18  31  47  68  94 124 159 200 243 288
#     4  10  19  31  47  69  99 134 169 202 239 284
#     4  11  21  33  50  72 100 134 169 201 236 280
#     4   9  18  34  55  76  96 122 160 205 252 298
#
# _framework density 17.386686999999998
#
# number of rings (size 3 to 8) (size 9 to 14) (size 15 to 20)
#    0.000    2.167    0.000    5.000    0.000    7.667 
#    0.000    0.000    0.000    1.000    0.000    0.000 
#    0.000    0.000    0.000    0.000    0.000    0.667 
#
# Total GULP energy -267329.700335 kJ/mol
# GULP energy per Si atom -5569.368757 kJ/mol
# Density = 1.734711 g / cm^3
# Si number density = 17.386687 Si / 1000 Ang^3
#
#
#
# Elastic Constant Matrix: (Units=GPa)
#
#
# Indices 1 2 3 4 5 6 
#
# 1 79.9448 21.4817 21.1049 0.0000 0.0000 0.0000
# 2 21.4817 61.0663 16.4711 0.0000 0.0000 0.0000
# 3 21.1049 16.4711 59.5097 0.0000 0.0000 0.0000
# 4 0.0000 0.0000 0.0000 10.7124 0.0000 0.0000
# 5 0.0000 0.0000 0.0000 0.0000 13.0114 0.0000
# 6 0.0000 0.0000 0.0000 0.0000 0.0000 23.8946
#
#
#
# Elastic Compliance Matrix: (Units=1/GPa)
#
#
# Indices 1 2 3 4 5 6 
#
# 1 0.014678 -0.004063 -0.004081 0.000000 0.000000 0.000000
# 2 -0.004063 0.018821 -0.003769 0.000000 0.000000 0.000000
# 3 -0.004081 -0.003769 0.019294 0.000000 0.000000 0.000000
# 4 0.000000 0.000000 0.000000 0.093350 0.000000 0.000000
# 5 0.000000 0.000000 0.000000 0.000000 0.076856 0.000000
# 6 0.000000 0.000000 0.000000 0.000000 0.000000 0.041850
#
#
# Mechanical properties :
#
#
# Convention : Reuss Voigt Hill
#
# Bulk Modulus (GPa) = 34.51955 35.40403 34.96179
# Shear Modulus (GPa) = 16.76000 18.95455 17.85727
#
# Velocity S-wave (km/s) = 3.10813 3.30536 3.20826
# Velocity P-wave (km/s) = 5.72519 5.91390 5.82031
#
# Compressibility (1/GPa) = 0.02896909
#
# Stress axis : x y z
#
# Youngs Moduli (GPa) = 68.13101 53.13148 51.82860
#
# Poissons Ratio (x) = 0.21585 0.21151
# Poissons Ratio (y) = 0.27678 0.19532
# Poissons Ratio (z) = 0.27804 0.20023
#
# Static dielectric constant tensor:
#      x y z
#    x 1.554960 0.000000 0.000000 
#    y 0.000000 1.616550 0.000000 
#    z 0.000000 0.000000 1.630530 
# 
# From -- ./inp_files/10691.got.cif
#   From: 2010.05.17/outbox.cif.g08.bks.cpg/sg63_6_cif.got.tgz:10691.got - 2010.06.03 15:47:04.
