data_PCOD9469120
_publ_section_title
;
Structure prediction by ZEFSAII (Michael W. Deem and Ramdas Pophale) SiO2 
 PCOD9469120
Probable space group: C M C M
;
_chemical_formula_sum "Si O2"
_cell_formula_units_Z 88
_cell_length_a 20.735222
_cell_length_b 26.933318
_cell_length_c 8.931327
_cell_angle_alpha 90.000000
_cell_angle_beta 90.000000
_cell_angle_gamma 90.000000
_cell_volume 4987.863256
_symmetry_space_group_name_H-M "C M C M"
_symmetry_group_IT_number 63
_symmetry_cell_setting 'orthorhombic'
loop_
_space_group_symop_operation_xyz
x,y,z
-x,-y,1/2+z
x,-y,-z
-x,y,1/2-z
-x,-y,-z
x,y,1/2-z
-x,y,z
x,-y,1/2+z
1/2+x,1/2+y,z
1/2-x,1/2-y,1/2+z
1/2+x,1/2-y,-z
1/2-x,1/2+y,1/2-z
1/2-x,1/2-y,-z
1/2+x,1/2+y,1/2-z
1/2-x,1/2+y,z
1/2+x,1/2-y,1/2+z
loop_
_atom_site_type_symbol
_atom_site_label
_atom_site_fract_x
_atom_site_fract_y
_atom_site_fract_z
Si Si1 0.500000 0.944267 0.070268
Si Si2 0.633856 0.665839 0.928482
Si Si3 0.263416 0.136945 0.428528
Si Si4 0.630462 0.054308 0.071205
Si Si5 0.133920 0.281925 0.569974
Si Si6 0.500000 0.214531 0.578660
Si Si7 0.500000 0.664597 0.421794
O O1 0.500000 0.945561 0.250000
O O2 0.566519 0.922799 0.005956
O O3 0.500000 0.000000 0.000000
O O4 0.630520 0.663237 0.750000
O O5 0.643227 0.724161 0.970858
O O6 0.695294 0.636759 0.989978
O O7 0.565790 0.649130 0.997219
O O8 0.252655 0.141463 0.250000
O O9 0.308171 0.089153 0.454357
O O10 0.306518 0.184098 0.478719
O O11 0.619403 0.050068 0.250000
O O12 0.640519 0.000000 0.000000
O O13 0.129281 0.285230 0.750000
O O14 0.066146 0.299810 0.502154
O O15 0.500000 0.197382 0.750000
O O16 0.500000 0.274980 0.576142
O O17 0.500000 0.648528 0.250000
#
# Coordination Sequence:
#
# PCOD9469120 Si02
#       7
#     8  16  16  16  16   8   8
#     4  10  18  31  52  73  95 125 162 205 248 289
#     4  10  19  31  50  74  99 126 160 201 239 278
#     4  10  21  34  49  70  97 130 163 195 242 296
#     4  10  20  35  53  72  96 127 164 205 245 288
#     4   9  18  32  47  66  96 132 165 198 237 284
#     4   9  17  28  44  67  93 127 168 205 239 275
#     4   9  17  31  50  68  94 130 164 196 232 282
#
# _framework density 17.642825999999999
#
# number of rings (size 3 to 8) (size 9 to 14) (size 15 to 20)
#    0.000    2.364    0.000    4.091    0.000    5.818 
#    0.000    3.636    0.000    0.000    0.000    0.636 
#    0.000    0.000    0.000    0.000    0.000    0.000 
#
# Total GULP energy -245556.672013 kJ/mol
# GULP energy per Si atom -5580.833455 kJ/mol
# Density = 1.760267 g / cm^3
# Si number density = 17.642826 Si / 1000 Ang^3
#
#
#
# Elastic Constant Matrix: (Units=GPa)
#
#
# Indices 1 2 3 4 5 6 
#
# 1 173.4975 38.7374 74.4203 0.0000 0.0000 0.0000
# 2 38.7374 39.7172 35.2796 0.0000 0.0000 0.0000
# 3 74.4203 35.2796 77.9320 0.0000 0.0000 0.0000
# 4 0.0000 0.0000 0.0000 14.9495 0.0000 0.0000
# 5 0.0000 0.0000 0.0000 0.0000 30.2864 0.0000
# 6 0.0000 0.0000 0.0000 0.0000 0.0000 -8.2135
#
#
#
# Elastic Compliance Matrix: (Units=1/GPa)
#
#
# Indices 1 2 3 4 5 6 
#
# 1 0.009866 -0.002097 -0.008472 0.000000 0.000000 0.000000
# 2 -0.002097 0.042558 -0.017263 0.000000 0.000000 0.000000
# 3 -0.008472 -0.017263 0.028737 0.000000 0.000000 0.000000
# 4 0.000000 0.000000 0.000000 0.066892 0.000000 0.000000
# 5 0.000000 0.000000 0.000000 0.000000 0.033018 0.000000
# 6 0.000000 0.000000 0.000000 0.000000 0.000000 -0.121750
#
#
# Mechanical properties :
#
#
# Convention : Reuss Voigt Hill
#
# Bulk Modulus (GPa) = 39.22180 65.33572 52.27876
# Shear Modulus (GPa) = 40.49108 16.91844 28.70476
#
# Velocity S-wave (km/s) = 4.79586 3.10004 4.03798
# Velocity P-wave (km/s) = 7.27642 7.06587 7.17192
#
# Compressibility (1/GPa) = 0.02549603
#
# Stress axis : x y z
#
# Youngs Moduli (GPa) = 101.35778 23.49750 34.79836
#
# Poissons Ratio (x) = 0.04928 0.29481
# Poissons Ratio (y) = 0.21256 0.60073
# Poissons Ratio (z) = 0.85871 0.40564
#
# Static dielectric constant tensor:
#      x y z
#    x 1.597100 0.000000 0.000000 
#    y 0.000000 1.613470 0.000000 
#    z 0.000000 0.000000 1.590080 
# 
# From -- ./inp_files/6935.got.cif
#   From: 2010.05.17/outbox.cif.g08.bks.cpg/sg63_4_cif.got.tgz:6935.got - 2010.06.03 15:47:04.
