data_PCOD9469470
_publ_section_title
;
Structure prediction by ZEFSAII (Michael W. Deem and Ramdas Pophale) SiO2 
 PCOD9469470
Probable space group: C M C M
;
_chemical_formula_sum "Si O2"
_cell_formula_units_Z 96
_cell_length_a 8.093396
_cell_length_b 25.863119
_cell_length_c 24.511880
_cell_angle_alpha 90.000000
_cell_angle_beta 90.000000
_cell_angle_gamma 90.000000
_cell_volume 5130.838092
_symmetry_space_group_name_H-M "C M C M"
_symmetry_group_IT_number 63
_symmetry_cell_setting 'orthorhombic'
loop_
_space_group_symop_operation_xyz
x,y,z
-x,-y,1/2+z
x,-y,-z
-x,y,1/2-z
-x,-y,-z
x,y,1/2-z
-x,y,z
x,-y,1/2+z
1/2+x,1/2+y,z
1/2-x,1/2-y,1/2+z
1/2+x,1/2-y,-z
1/2-x,1/2+y,1/2-z
1/2-x,1/2-y,-z
1/2+x,1/2+y,1/2-z
1/2-x,1/2+y,z
1/2+x,1/2-y,1/2+z
loop_
_atom_site_type_symbol
_atom_site_label
_atom_site_fract_x
_atom_site_fract_y
_atom_site_fract_z
Si Si1 0.196643 0.099152 0.636222
Si Si2 0.300422 0.310521 0.558081
Si Si3 0.298210 0.496199 0.062218
Si Si4 0.308605 0.945060 0.250000
Si Si5 0.297559 0.404148 0.632546
Si Si6 0.697501 0.807493 0.436173
Si Si7 0.304196 0.562276 0.250000
O O1 0.257065 0.055005 0.594036
O O2 0.267901 0.087008 0.695638
O O3 0.237479 0.154262 0.609989
O O4 0.000000 0.093923 0.640691
O O5 0.500000 0.310004 0.559169
O O6 0.242957 0.351966 0.602512
O O7 0.241911 0.251878 0.568747
O O8 0.249405 0.325714 0.496724
O O9 0.500000 0.495017 0.061084
O O10 0.249157 0.546557 0.096297
O O11 0.241132 0.500000 0.000000
O O12 0.500000 0.958354 0.250000
O O13 0.216101 0.000223 0.250000
O O14 0.500000 0.403567 0.633511
O O15 0.237546 0.413541 0.694018
O O16 0.500000 0.807024 0.433461
O O17 0.500000 0.572505 0.250000
#
# Coordination Sequence:
#
# PCOD9469470 Si02
#       7
#    16  16  16   8  16  16   8
#     4  11  21  36  58  80 106 144 188 225 268 327
#     4   9  18  34  56  80 108 146 186 224 271 328
#     4   9  16  26  48  80 105 127 168 225 269 307
#     4  12  24  38  55  78 113 147 178 222 274 325
#     4   9  16  29  52  79 103 132 182 231 261 309
#     4  10  20  34  53  81 114 145 180 226 279 326
#     4  10  18  34  57  78 101 137 182 222 264 319
#
# _framework density 18.710391999999999
#
# number of rings (size 3 to 8) (size 9 to 14) (size 15 to 20)
#    0.000    2.167    1.667    2.750    0.000    3.333 
#    0.000    1.667    0.000    5.000    0.000    0.000 
#    0.000    0.000    0.000    0.000    0.000    0.000 
#
# Total GULP energy -267937.564340 kJ/mol
# GULP energy per Si atom -5582.032590 kJ/mol
# Density = 1.866781 g / cm^3
# Si number density = 18.710392 Si / 1000 Ang^3
#
#
#
# Elastic Constant Matrix: (Units=GPa)
#
#
# Indices 1 2 3 4 5 6 
#
# 1 10.5260 -5.7269 1.6776 0.0000 0.0000 0.0000
# 2 -5.7269 76.9628 59.2180 0.0000 0.0000 0.0000
# 3 1.6776 59.2180 159.0335 0.0000 0.0000 0.0000
# 4 0.0000 0.0000 0.0000 23.6622 0.0000 0.0000
# 5 0.0000 0.0000 0.0000 0.0000 14.2432 0.0000
# 6 0.0000 0.0000 0.0000 0.0000 0.0000 16.9065
#
#
#
# Elastic Compliance Matrix: (Units=1/GPa)
#
#
# Indices 1 2 3 4 5 6 
#
# 1 0.102316 0.011835 -0.005486 0.000000 0.000000 0.000000
# 2 0.011835 0.019580 -0.007416 0.000000 0.000000 0.000000
# 3 -0.005486 -0.007416 0.009107 0.000000 0.000000 0.000000
# 4 0.000000 0.000000 0.000000 0.042261 0.000000 0.000000
# 5 0.000000 0.000000 0.000000 0.000000 0.070209 0.000000
# 6 0.000000 0.000000 0.000000 0.000000 0.000000 0.059149
#
#
# Mechanical properties :
#
#
# Convention : Reuss Voigt Hill
#
# Bulk Modulus (GPa) = 7.75983 39.65108 23.70545
# Shear Modulus (GPa) = 14.37968 23.71927 19.04948
#
# Velocity S-wave (km/s) = 2.77526 3.56435 3.19427
# Velocity P-wave (km/s) = 3.79813 6.17879 5.12851
#
# Compressibility (1/GPa) = 0.12886885
#
# Stress axis : x y z
#
# Youngs Moduli (GPa) = 9.77364 51.07315 109.80391
#
# Poissons Ratio (x) = -0.60443 0.60239
# Poissons Ratio (y) = -0.11567 0.81426
# Poissons Ratio (z) = 0.05362 0.37874
#
# Static dielectric constant tensor:
#      x y z
#    x 1.670890 0.000000 0.000000 
#    y 0.000000 1.641370 0.000000 
#    z 0.000000 0.000000 1.629090 
# 
# From -- ./inp_files/59999.got.cif
#   From: 2010.05.17/outbox.cif.g08.bks.cpg/sg63_30_cif.got.tgz:59999.got - 2010.06.03 15:47:04.
