data_PCOD9469300
_publ_section_title
;
Structure prediction by ZEFSAII (Michael W. Deem and Ramdas Pophale) SiO2 
 PCOD9469300
Probable space group: C M C M
;
_chemical_formula_sum "Si O2"
_cell_formula_units_Z 72
_cell_length_a 17.771047
_cell_length_b 13.868974
_cell_length_c 14.908575
_cell_angle_alpha 90.000000
_cell_angle_beta 90.000000
_cell_angle_gamma 90.000000
_cell_volume 3674.459661
_symmetry_space_group_name_H-M "C M C M"
_symmetry_group_IT_number 63
_symmetry_cell_setting 'orthorhombic'
loop_
_space_group_symop_operation_xyz
x,y,z
-x,-y,1/2+z
x,-y,-z
-x,y,1/2-z
-x,-y,-z
x,y,1/2-z
-x,y,z
x,-y,1/2+z
1/2+x,1/2+y,z
1/2-x,1/2-y,1/2+z
1/2+x,1/2-y,-z
1/2-x,1/2+y,1/2-z
1/2-x,1/2-y,-z
1/2+x,1/2+y,1/2-z
1/2-x,1/2+y,z
1/2+x,1/2-y,1/2+z
loop_
_atom_site_type_symbol
_atom_site_label
_atom_site_fract_x
_atom_site_fract_y
_atom_site_fract_z
Si Si1 0.631015 0.789982 0.009683
Si Si2 0.228711 0.212948 0.854238
Si Si3 0.770360 0.009332 0.350286
Si Si4 0.857145 0.500000 0.500000
Si Si5 0.918976 0.912354 0.928388
O O1 0.694673 0.787696 0.087898
O O2 0.583761 0.693644 0.027309
O O3 0.670984 0.774046 0.913469
O O4 0.599538 0.899013 0.012786
O O5 0.237596 0.240882 0.750000
O O6 0.202420 0.101593 0.855661
O O7 0.743813 0.027493 0.250000
O O8 0.701558 0.017059 0.418520
O O9 0.842073 0.074511 0.373366
O O10 0.000000 0.921512 0.880440
O O11 0.915969 0.000000 0.000000
#
# Coordination Sequence:
#
# PCOD9469300 Si02
#       5
#    16  16  16   8  16
#     4  10  19  33  50  73 103 136 170 209 259 300
#     4   9  17  30  52  77 104 132 165 211 262 314
#     4  10  18  32  53  81 107 133 169 212 267 315
#     4  10  20  34  52  80 108 132 166 218 264 308
#     4  11  21  35  52  72 103 141 173 209 249 298
#
# _framework density 19.594716999999999
#
# number of rings (size 3 to 8) (size 9 to 14) (size 15 to 20)
#    0.000    2.000    3.333    2.667    0.000    4.000 
#    0.000    0.556    0.000    0.667    0.000    0.000 
#    0.000    5.333    0.000    0.000    0.000    0.000 
#
# Total GULP energy -200559.257433 kJ/mol
# GULP energy per Si atom -5571.090484 kJ/mol
# Density = 1.955012 g / cm^3
# Si number density = 19.594717 Si / 1000 Ang^3
#
#
#
# Elastic Constant Matrix: (Units=GPa)
#
#
# Indices 1 2 3 4 5 6 
#
# 1 36.8109 21.2540 18.2258 0.0000 0.0000 0.0000
# 2 21.2540 177.6225 19.4978 0.0000 0.0000 0.0000
# 3 18.2258 19.4978 124.5436 0.0000 0.0000 0.0000
# 4 0.0000 0.0000 0.0000 19.9794 0.0000 0.0000
# 5 0.0000 0.0000 0.0000 0.0000 -8.3778 0.0000
# 6 0.0000 0.0000 0.0000 0.0000 0.0000 -9.8931
#
#
#
# Elastic Compliance Matrix: (Units=1/GPa)
#
#
# Indices 1 2 3 4 5 6 
#
# 1 0.031052 -0.003273 -0.004032 0.000000 0.000000 0.000000
# 2 -0.003273 0.006073 -0.000472 0.000000 0.000000 0.000000
# 3 -0.004032 -0.000472 0.008693 0.000000 0.000000 0.000000
# 4 0.000000 0.000000 0.000000 0.050052 0.000000 0.000000
# 5 0.000000 0.000000 0.000000 0.000000 -0.119363 0.000000
# 6 0.000000 0.000000 0.000000 0.000000 0.000000 -0.101081
#
#
# Mechanical properties :
#
#
# Convention : Reuss Voigt Hill
#
# Bulk Modulus (GPa) = 33.04125 50.77024 41.90574
# Shear Modulus (GPa) = -50.53947 19.00834 -15.76556
#
# Velocity S-wave (km/s) = -5.08413 3.11798 -2.83959
# Velocity P-wave (km/s) = 4.19113 6.23930 3.26827
#
# Compressibility (1/GPa) = 0.03026520
#
# Stress axis : x y z
#
# Youngs Moduli (GPa) = 32.20417 164.65363 115.03259
#
# Poissons Ratio (x) = 0.53892 0.46378
# Poissons Ratio (y) = 0.10541 0.05428
# Poissons Ratio (z) = 0.12984 0.07769
#
# Static dielectric constant tensor:
#      x y z
#    x 1.667600 0.000000 0.000000 
#    y 0.000000 1.779800 0.000000 
#    z 0.000000 0.000000 1.673100 
# 
# From -- ./inp_files/33659.got.cif
#   From: 2010.05.17/outbox.cif.g08.bks.cpg/sg63_17_cif.got.tgz:33659.got - 2010.06.03 15:47:04.
