data_PCOD9469198
_publ_section_title
;
Structure prediction by ZEFSAII (Michael W. Deem and Ramdas Pophale) SiO2 
 PCOD9469198
Probable space group: C M C M
;
_chemical_formula_sum "Si O2"
_cell_formula_units_Z 80
_cell_length_a 28.611799
_cell_length_b 8.878068
_cell_length_c 16.545245
_cell_angle_alpha 90.000000
_cell_angle_beta 90.000000
_cell_angle_gamma 90.000000
_cell_volume 4202.781724
_symmetry_space_group_name_H-M "C M C M"
_symmetry_group_IT_number 63
_symmetry_cell_setting 'orthorhombic'
loop_
_space_group_symop_operation_xyz
x,y,z
-x,-y,1/2+z
x,-y,-z
-x,y,1/2-z
-x,-y,-z
x,y,1/2-z
-x,y,z
x,-y,1/2+z
1/2+x,1/2+y,z
1/2-x,1/2-y,1/2+z
1/2+x,1/2-y,-z
1/2-x,1/2+y,1/2-z
1/2-x,1/2-y,-z
1/2+x,1/2+y,1/2-z
1/2-x,1/2+y,z
1/2+x,1/2-y,1/2+z
loop_
_atom_site_type_symbol
_atom_site_label
_atom_site_fract_x
_atom_site_fract_y
_atom_site_fract_z
Si Si1 0.294546 0.683154 0.097046
Si Si2 0.445633 0.672989 0.505819
Si Si3 0.875694 0.401041 0.079600
Si Si4 0.697951 0.337291 0.099205
Si Si5 0.099869 0.699970 0.157596
O O1 0.333661 0.806367 0.118012
O O2 0.300743 0.511838 0.125226
O O3 0.244317 0.746199 0.123301
O O4 0.299851 0.672084 0.998879
O O5 0.429577 0.500000 0.500000
O O6 0.500000 0.681493 0.483468
O O7 0.413800 0.782337 0.452191
O O8 0.437320 0.727478 0.597080
O O9 0.897370 0.522275 0.139755
O O10 0.860178 0.500000 0.000000
O O11 0.650637 0.264319 0.131693
O O12 0.090399 0.733150 0.250000
#
# Coordination Sequence:
#
# PCOD9469198 Si02
#       5
#    16  16  16  16  16
#     4  10  18  31  56  82 108 148 202 242 276 330
#     4  10  21  40  66  90 111 145 198 246 284 340
#     4  10  19  34  57  84 113 149 190 236 279 339
#     4  10  19  31  54  83 113 149 195 241 282 333
#     4  11  23  38  56  86 125 155 187 236 299 350
#
# _framework density 19.035011999999998
#
# number of rings (size 3 to 8) (size 9 to 14) (size 15 to 20)
#    0.000    1.800    4.000    2.400    2.800    4.000 
#    0.000    8.000    0.000    1.200    0.000    0.000 
#    0.000    0.000    0.000    0.000    0.000    0.000 
#
# Total GULP energy -223312.469918 kJ/mol
# GULP energy per Si atom -5582.811748 kJ/mol
# Density = 1.899169 g / cm^3
# Si number density = 19.035012 Si / 1000 Ang^3
#
#
#
# Elastic Constant Matrix: (Units=GPa)
#
#
# Indices 1 2 3 4 5 6 
#
# 1 48.0454 33.8013 -9.9578 0.0000 0.0000 0.0000
# 2 33.8013 145.4214 -1.9006 0.0000 0.0000 0.0000
# 3 -9.9578 -1.9006 10.4761 0.0000 0.0000 0.0000
# 4 0.0000 0.0000 0.0000 3.8247 0.0000 0.0000
# 5 0.0000 0.0000 0.0000 0.0000 6.6320 0.0000
# 6 0.0000 0.0000 0.0000 0.0000 0.0000 28.6983
#
#
#
# Elastic Compliance Matrix: (Units=1/GPa)
#
#
# Indices 1 2 3 4 5 6 
#
# 1 0.031722 -0.006996 0.028883 0.000000 0.000000 0.000000
# 2 -0.006996 0.008436 -0.005119 0.000000 0.000000 0.000000
# 3 0.028883 -0.005119 0.121981 0.000000 0.000000 0.000000
# 4 0.000000 0.000000 0.000000 0.261461 0.000000 0.000000
# 5 0.000000 0.000000 0.000000 0.000000 0.150785 0.000000
# 6 0.000000 0.000000 0.000000 0.000000 0.000000 0.034845
#
#
# Mechanical properties :
#
#
# Convention : Reuss Voigt Hill
#
# Bulk Modulus (GPa) = 5.11053 27.53653 16.32353
# Shear Modulus (GPa) = 7.80131 19.96432 13.88281
#
# Velocity S-wave (km/s) = 2.02665 3.24206 2.70354
# Velocity P-wave (km/s) = 2.85780 5.33969 4.28248
#
# Compressibility (1/GPa) = 0.19567454
#
# Stress axis : x y z
#
# Youngs Moduli (GPa) = 31.52421 118.54326 8.19800
#
# Poissons Ratio (x) = 0.82930 -0.23678
# Poissons Ratio (y) = 0.22054 0.04197
# Poissons Ratio (z) = -0.91052 0.60686
#
# Static dielectric constant tensor:
#      x y z
#    x 1.643920 0.000000 0.000000 
#    y 0.000000 1.668830 0.000000 
#    z 0.000000 0.000000 1.669280 
# 
# From -- ./inp_files/48808.got.cif
#   From: 2010.05.17/outbox.cif.g08.bks.cpg/sg63_25_cif.got.tgz:48808.got - 2010.06.03 15:47:04.
