data_PCOD9469013
_publ_section_title
;
Structure prediction by ZEFSAII (Michael W. Deem and Ramdas Pophale) SiO2 
 PCOD9469013
Probable space group: C M C M
;
_chemical_formula_sum "Si O2"
_cell_formula_units_Z 116
_cell_length_a 30.322744
_cell_length_b 10.972173
_cell_length_c 18.138310
_cell_angle_alpha 90.000000
_cell_angle_beta 90.000000
_cell_angle_gamma 90.000000
_cell_volume 6034.731695
_symmetry_space_group_name_H-M "C M C M"
_symmetry_group_IT_number 63
_symmetry_cell_setting 'orthorhombic'
loop_
_space_group_symop_operation_xyz
x,y,z
-x,-y,1/2+z
x,-y,-z
-x,y,1/2-z
-x,-y,-z
x,y,1/2-z
-x,y,z
x,-y,1/2+z
1/2+x,1/2+y,z
1/2-x,1/2-y,1/2+z
1/2+x,1/2-y,-z
1/2-x,1/2+y,1/2-z
1/2-x,1/2-y,-z
1/2+x,1/2+y,1/2-z
1/2-x,1/2+y,z
1/2+x,1/2-y,1/2+z
loop_
_atom_site_type_symbol
_atom_site_label
_atom_site_fract_x
_atom_site_fract_y
_atom_site_fract_z
Si Si1 0.692594 0.494943 0.836059
Si Si2 0.135690 0.169756 0.072988
Si Si3 0.050825 0.296083 0.022637
Si Si4 0.431329 0.961216 0.883169
Si Si5 0.500000 0.924981 0.750000
Si Si6 0.283042 0.888345 0.831334
Si Si7 0.846935 0.407118 0.167159
Si Si8 0.792029 0.204751 0.951433
O O1 0.687669 0.531035 0.750000
O O2 0.648152 0.439369 0.871503
O O3 0.730191 0.389779 0.837200
O O4 0.711783 0.597209 0.891101
O O5 0.085460 0.192652 0.047601
O O6 0.148938 0.295223 0.113155
O O7 0.168873 0.162338 0.004514
O O8 0.053318 0.410566 0.079511
O O9 0.000000 0.255811 0.018249
O O10 0.065523 0.357189 0.945342
O O11 0.461905 0.929816 0.814832
O O12 0.382253 0.990550 0.855906
O O13 0.295370 0.840082 0.750000
O O14 0.303310 0.818895 0.899806
O O15 0.300194 0.026605 0.833319
O O16 0.857068 0.365292 0.250000
O O17 0.750000 0.250000 0.000000
#
# Coordination Sequence:
#
# PCOD9469013 Si02
#       8
#    16  16  16  16   4  16  16  16
#     4  11  24  42  61  84 118 152 195 249 304 368
#     4  11  23  36  60  87 118 161 201 245 306 363
#     4  10  19  35  53  82 121 160 205 259 309 362
#     4  10  18  30  52  81 122 165 205 250 308 363
#     4  12  16  26  52  84 120 170 206 244 308 370
#     4  10  22  37  57  83 115 156 195 244 305 351
#     4  10  20  34  53  85 123 159 199 245 296 367
#     4  12  23  39  62  86 114 149 200 252 297 362
#
# _framework density 19.222064
#
# number of rings (size 3 to 8) (size 9 to 14) (size 15 to 20)
#    0.000    1.379    3.448    3.310    0.000    2.759 
#    0.000    0.000    0.000    1.655    0.000    0.000 
#    0.000    0.000    0.000    0.000    0.000    0.000 
#
# Total GULP energy -322978.213463 kJ/mol
# GULP energy per Si atom -5568.589887 kJ/mol
# Density = 1.917831 g / cm^3
# Si number density = 19.222064 Si / 1000 Ang^3
#
#
#
# Elastic Constant Matrix: (Units=GPa)
#
#
# Indices 1 2 3 4 5 6 
#
# 1 96.7851 13.7156 31.3252 0.0000 0.0000 0.0000
# 2 13.7156 37.1044 25.8266 0.0000 0.0000 0.0000
# 3 31.3252 25.8266 137.7801 0.0000 0.0000 0.0000
# 4 0.0000 0.0000 0.0000 -114.8256 0.0000 0.0000
# 5 0.0000 0.0000 0.0000 0.0000 14.6855 0.0000
# 6 0.0000 0.0000 0.0000 0.0000 0.0000 20.1904
#
#
#
# Elastic Compliance Matrix: (Units=1/GPa)
#
#
# Indices 1 2 3 4 5 6 
#
# 1 0.011395 -0.002770 -0.002071 0.000000 0.000000 0.000000
# 2 -0.002770 0.031669 -0.005306 0.000000 0.000000 0.000000
# 3 -0.002071 -0.005306 0.008724 0.000000 0.000000 0.000000
# 4 0.000000 0.000000 0.000000 -0.008709 0.000000 0.000000
# 5 0.000000 0.000000 0.000000 0.000000 0.068094 0.000000
# 6 0.000000 0.000000 0.000000 0.000000 0.000000 0.049528
#
#
# Mechanical properties :
#
#
# Convention : Reuss Voigt Hill
#
# Bulk Modulus (GPa) = 31.75517 45.93382 38.84450
# Shear Modulus (GPa) = 26.11039 -2.60313 11.75363
#
# Velocity S-wave (km/s) = 3.68959 -1.16498 2.47547
# Velocity P-wave (km/s) = 5.89124 4.70518 5.33130
#
# Compressibility (1/GPa) = 0.03149093
#
# Stress axis : x y z
#
# Youngs Moduli (GPa) = 87.75612 31.57708 114.63198
#
# Poissons Ratio (x) = 0.08748 0.23746
# Poissons Ratio (y) = 0.24312 0.60828
# Poissons Ratio (z) = 0.18178 0.16756
#
# Static dielectric constant tensor:
#      x y z
#    x 1.681410 0.000000 0.000000 
#    y 0.000000 1.700220 0.000000 
#    z 0.000000 0.000000 1.687980 
# 
# From -- ./inp_files/49096.got.cif
#   From: 2010.05.17/outbox.cif.g08.bks.cpg/sg63_25_cif.got.tgz:49096.got - 2010.06.03 15:47:04.
