data_PCOD9469387
_publ_section_title
;
Structure prediction by ZEFSAII (Michael W. Deem and Ramdas Pophale) SiO2 
 PCOD9469387
Probable space group: C M C M
;
_chemical_formula_sum "Si O2"
_cell_formula_units_Z 100
_cell_length_a 12.657006
_cell_length_b 15.051961
_cell_length_c 29.910706
_cell_angle_alpha 90.000000
_cell_angle_beta 90.000000
_cell_angle_gamma 90.000000
_cell_volume 5698.371174
_symmetry_space_group_name_H-M "C M C M"
_symmetry_group_IT_number 63
_symmetry_cell_setting 'orthorhombic'
loop_
_space_group_symop_operation_xyz
x,y,z
-x,-y,1/2+z
x,-y,-z
-x,y,1/2-z
-x,-y,-z
x,y,1/2-z
-x,y,z
x,-y,1/2+z
1/2+x,1/2+y,z
1/2-x,1/2-y,1/2+z
1/2+x,1/2-y,-z
1/2-x,1/2+y,1/2-z
1/2-x,1/2-y,-z
1/2+x,1/2+y,1/2-z
1/2-x,1/2+y,z
1/2+x,1/2-y,1/2+z
loop_
_atom_site_type_symbol
_atom_site_label
_atom_site_fract_x
_atom_site_fract_y
_atom_site_fract_z
Si Si1 0.377922 0.618576 0.537434
Si Si2 0.313340 0.570225 0.060496
Si Si3 0.500000 0.200446 0.250000
Si Si4 0.622358 0.615147 0.159333
Si Si5 0.878121 0.690626 0.428107
Si Si6 0.177750 0.730959 0.173316
Si Si7 0.874941 0.079837 0.803405
O O1 0.500000 0.612047 0.552375
O O2 0.371648 0.602077 0.484396
O O3 0.317602 0.536554 0.560163
O O4 0.339939 0.716539 0.550112
O O5 0.364792 0.607836 0.105689
O O6 0.196228 0.610004 0.057822
O O7 0.593502 0.204522 0.211095
O O8 0.500000 0.634524 0.170728
O O9 0.708506 0.683908 0.177858
O O10 0.649574 0.517207 0.178119
O O11 0.866470 0.702938 0.374963
O O12 0.000000 0.677361 0.440322
O O13 0.186340 0.837892 0.175403
O O14 0.860479 0.081863 0.750000
O O15 0.000000 0.096213 0.811855
#
# Coordination Sequence:
#
# PCOD9469387 Si02
#       7
#    16  16   4  16  16  16  16
#     4  10  19  33  56  79 108 143 183 220 260 316
#     4  10  19  33  54  80 111 142 178 221 268 319
#     4  12  20  36  58  84 100 142 188 226 284 312
#     4  10  22  35  56  84 112 141 178 226 279 324
#     4  10  20  34  53  79 104 139 181 222 265 317
#     4  11  20  35  59  78 108 138 182 229 268 324
#     4  10  18  33  54  77  99 133 181 223 261 315
#
# _framework density 17.548873
#
# number of rings (size 3 to 8) (size 9 to 14) (size 15 to 20)
#    0.000    1.760    2.400    3.360    1.120    2.560 
#    0.000    1.600    1.760   11.520    0.000    0.000 
#    0.000    0.000    0.000    0.000    0.000    0.000 
#
# Total GULP energy -278450.311091 kJ/mol
# GULP energy per Si atom -5569.006222 kJ/mol
# Density = 1.750893 g / cm^3
# Si number density = 17.548873 Si / 1000 Ang^3
#
#
#
# Elastic Constant Matrix: (Units=GPa)
#
#
# Indices 1 2 3 4 5 6 
#
# 1 97.3202 63.9000 12.2502 0.0000 0.0000 0.0000
# 2 63.9000 95.2279 16.1371 0.0000 0.0000 0.0000
# 3 12.2502 16.1371 38.2037 0.0000 0.0000 0.0000
# 4 0.0000 0.0000 0.0000 2.3620 0.0000 0.0000
# 5 0.0000 0.0000 0.0000 0.0000 -0.0503 0.0000
# 6 0.0000 0.0000 0.0000 0.0000 0.0000 15.1997
#
#
#
# Elastic Compliance Matrix: (Units=1/GPa)
#
#
# Indices 1 2 3 4 5 6 
#
# 1 0.018387 -0.012213 -0.000737 0.000000 0.000000 0.000000
# 2 -0.012213 0.019423 -0.004288 0.000000 0.000000 0.000000
# 3 -0.000737 -0.004288 0.028223 0.000000 0.000000 0.000000
# 4 0.000000 0.000000 0.000000 0.423379 0.000000 0.000000
# 5 0.000000 0.000000 0.000000 0.000000-19.893434 0.000000
# 6 0.000000 0.000000 0.000000 0.000000 0.000000 0.065791
#
#
# Mechanical properties :
#
#
# Convention : Reuss Voigt Hill
#
# Bulk Modulus (GPa) = 31.68908 46.14738 38.91823
# Shear Modulus (GPa) = -0.25916 12.73325 6.23705
#
# Velocity S-wave (km/s) = -0.38471 2.69660 1.88728
# Velocity P-wave (km/s) = 4.23078 6.00409 5.19368
#
# Compressibility (1/GPa) = 0.03155661
#
# Stress axis : x y z
#
# Youngs Moduli (GPa) = 54.38492 51.48462 35.43203
#
# Poissons Ratio (x) = 0.62881 0.02612
# Poissons Ratio (y) = 0.66423 0.15193
# Poissons Ratio (z) = 0.04009 0.22077
#
# Static dielectric constant tensor:
#      x y z
#    x 1.588280 0.000000 0.000000 
#    y 0.000000 1.601280 0.000000 
#    z 0.000000 0.000000 1.671360 
# 
# From -- ./inp_files/72805.got.cif
#   From: 2010.05.17/outbox.cif.g08.bks.cpg/sg63_37_cif.got.tgz:72805.got - 2010.06.03 15:47:04.
