data_PCOD9469867
_publ_section_title
;
Structure prediction by ZEFSAII (Michael W. Deem and Ramdas Pophale) SiO2 
 PCOD9469867
Probable space group: C M C M
;
_chemical_formula_sum "Si O2"
_cell_formula_units_Z 96
_cell_length_a 9.164593
_cell_length_b 28.280610
_cell_length_c 20.013953
_cell_angle_alpha 90.000000
_cell_angle_beta 90.000000
_cell_angle_gamma 90.000000
_cell_volume 5187.221951
_symmetry_space_group_name_H-M "C M C M"
_symmetry_group_IT_number 63
_symmetry_cell_setting 'orthorhombic'
loop_
_space_group_symop_operation_xyz
x,y,z
-x,-y,1/2+z
x,-y,-z
-x,y,1/2-z
-x,-y,-z
x,y,1/2-z
-x,y,z
x,-y,1/2+z
1/2+x,1/2+y,z
1/2-x,1/2-y,1/2+z
1/2+x,1/2-y,-z
1/2-x,1/2+y,1/2-z
1/2-x,1/2-y,-z
1/2+x,1/2+y,1/2-z
1/2-x,1/2+y,z
1/2+x,1/2-y,1/2+z
loop_
_atom_site_type_symbol
_atom_site_label
_atom_site_fract_x
_atom_site_fract_y
_atom_site_fract_z
Si Si1 0.824023 0.257517 0.829200
Si Si2 0.163648 0.564010 0.879209
Si Si3 0.160932 0.848960 0.329104
Si Si4 0.324430 0.292545 0.542190
Si Si5 0.832224 0.977130 0.575007
Si Si6 0.333800 0.889920 0.526006
O O1 0.791487 0.264236 0.750000
O O2 0.790062 0.203152 0.850443
O O3 0.732596 0.288210 0.881212
O O4 0.000000 0.263598 0.837027
O O5 0.234165 0.607773 0.841490
O O6 0.259939 0.516973 0.878863
O O7 0.000000 0.553849 0.856709
O O8 0.158001 0.583277 0.955165
O O9 0.145392 0.843812 0.250000
O O10 0.000000 0.858817 0.358612
O O11 0.500000 0.289841 0.537496
O O12 0.250000 0.250000 0.500000
O O13 0.262823 0.343075 0.517920
O O14 0.000000 0.968328 0.592071
O O15 0.829913 0.000000 0.500000
O O16 0.741713 0.928614 0.573573
O O17 0.500000 0.877979 0.546293
#
# Coordination Sequence:
#
# PCOD9469867 Si02
#       6
#    16  16  16  16  16  16
#     4   9  19  37  58  78 104 140 179 218 265 321
#     4  10  19  30  48  74 102 132 165 205 252 300
#     4   9  18  32  50  72  98 130 167 206 250 303
#     4  12  24  36  53  79 110 142 179 223 269 314
#     4   9  17  30  49  72  98 130 164 198 243 302
#     4  10  20  34  51  74 104 134 168 211 257 305
#
# _framework density 18.507016
#
# number of rings (size 3 to 8) (size 9 to 14) (size 15 to 20)
#    0.000    2.167    0.000    5.000    0.000    8.000 
#    0.000    1.667    0.000    1.000    0.000    0.000 
#    0.000    0.000    0.000    0.000    0.000    0.000 
#
# Total GULP energy -267647.561751 kJ/mol
# GULP energy per Si atom -5575.990870 kJ/mol
# Density = 1.846489 g / cm^3
# Si number density = 18.507016 Si / 1000 Ang^3
#
#
#
# Elastic Constant Matrix: (Units=GPa)
#
#
# Indices 1 2 3 4 5 6 
#
# 1 108.7049 44.4756 14.0214 0.0000 0.0000 0.0000
# 2 44.4756 74.0740 3.4940 0.0000 0.0000 0.0000
# 3 14.0214 3.4940 25.8983 0.0000 0.0000 0.0000
# 4 0.0000 0.0000 0.0000 23.8514 0.0000 0.0000
# 5 0.0000 0.0000 0.0000 0.0000 20.7289 0.0000
# 6 0.0000 0.0000 0.0000 0.0000 0.0000 33.9088
#
#
#
# Elastic Compliance Matrix: (Units=1/GPa)
#
#
# Indices 1 2 3 4 5 6 
#
# 1 0.013076 -0.007565 -0.006059 0.000000 0.000000 0.000000
# 2 -0.007565 0.017964 0.001672 0.000000 0.000000 0.000000
# 3 -0.006059 0.001672 0.041667 0.000000 0.000000 0.000000
# 4 0.000000 0.000000 0.000000 0.041926 0.000000 0.000000
# 5 0.000000 0.000000 0.000000 0.000000 0.048242 0.000000
# 6 0.000000 0.000000 0.000000 0.000000 0.000000 0.029491
#
#
# Mechanical properties :
#
#
# Convention : Reuss Voigt Hill
#
# Bulk Modulus (GPa) = 20.49037 36.96212 28.72624
# Shear Modulus (GPa) = 21.50198 25.47691 23.48945
#
# Velocity S-wave (km/s) = 3.41226 3.71429 3.56647
# Velocity P-wave (km/s) = 5.15950 6.19757 5.70221
#
# Compressibility (1/GPa) = 0.04880342
#
# Stress axis : x y z
#
# Youngs Moduli (GPa) = 76.47604 55.66843 23.99968
#
# Poissons Ratio (x) = 0.42115 0.14541
# Poissons Ratio (y) = 0.57857 -0.04014
# Poissons Ratio (z) = 0.46335 -0.09310
#
# Static dielectric constant tensor:
#      x y z
#    x 1.652190 0.000000 0.000000 
#    y 0.000000 1.672240 0.000000 
#    z 0.000000 0.000000 1.676360 
# 
# From -- ./inp_files/51271.got.cif
#   From: 2010.05.17/outbox.cif.g08.bks.cpg/sg63_26_cif.got.tgz:51271.got - 2010.06.03 15:47:04.
