data_PCOD9469844
_publ_section_title
;
Structure prediction by ZEFSAII (Michael W. Deem and Ramdas Pophale) SiO2 
 PCOD9469844
Probable space group: C M C M
;
_chemical_formula_sum "Si O2"
_cell_formula_units_Z 80
_cell_length_a 9.025773
_cell_length_b 19.543440
_cell_length_c 26.703408
_cell_angle_alpha 90.000000
_cell_angle_beta 90.000000
_cell_angle_gamma 90.000000
_cell_volume 4710.338390
_symmetry_space_group_name_H-M "C M C M"
_symmetry_group_IT_number 63
_symmetry_cell_setting 'orthorhombic'
loop_
_space_group_symop_operation_xyz
x,y,z
-x,-y,1/2+z
x,-y,-z
-x,y,1/2-z
-x,-y,-z
x,y,1/2-z
-x,y,z
x,-y,1/2+z
1/2+x,1/2+y,z
1/2-x,1/2-y,1/2+z
1/2+x,1/2-y,-z
1/2-x,1/2+y,1/2-z
1/2-x,1/2-y,-z
1/2+x,1/2+y,1/2-z
1/2-x,1/2+y,z
1/2+x,1/2-y,1/2+z
loop_
_atom_site_type_symbol
_atom_site_label
_atom_site_fract_x
_atom_site_fract_y
_atom_site_fract_z
Si Si1 0.679601 0.579933 0.554819
Si Si2 0.829590 0.669083 0.750000
Si Si3 0.328790 0.664510 0.250000
Si Si4 0.177986 0.827727 0.353072
Si Si5 0.320863 0.420384 0.558212
Si Si6 0.823059 0.333800 0.853652
O O1 0.500000 0.582546 0.554527
O O2 0.731162 0.629031 0.599196
O O3 0.725270 0.599665 0.498433
O O4 0.718249 0.500647 0.564013
O O5 0.825144 0.752315 0.750000
O O6 0.749237 0.647768 0.698925
O O7 0.000000 0.647543 0.750000
O O8 0.500000 0.642932 0.250000
O O9 0.247288 0.642995 0.300859
O O10 0.211181 0.747166 0.359761
O O11 0.000000 0.834132 0.349137
O O12 0.500000 0.414597 0.561821
O O13 0.245250 0.375444 0.600540
O O14 0.000000 0.341174 0.851906
#
# Coordination Sequence:
#
# PCOD9469844 Si02
#       6
#    16   8   8  16  16  16
#     4   8  16  32  52  70  90 124 167 201 228 269
#     4   9  17  29  46  71  98 121 151 193 238 279
#     4   9  17  31  50  69  92 125 161 193 228 275
#     4   9  17  31  50  70  94 125 158 191 232 282
#     4   9  17  32  52  70  92 125 164 200 231 271
#     4  10  19  30  47  73 101 124 150 191 241 287
#
# _framework density 16.983917000000002
#
# number of rings (size 3 to 8) (size 9 to 14) (size 15 to 20)
#    0.000    3.000    0.000    2.400    0.000    4.000 
#    0.000    5.000    0.000    2.400    0.000    0.000 
#    0.000    0.000    0.000    0.000    0.000    0.000 
#
# Total GULP energy -222875.491447 kJ/mol
# GULP energy per Si atom -5571.887286 kJ/mol
# Density = 1.694526 g / cm^3
# Si number density = 16.983917 Si / 1000 Ang^3
#
#
#
# Elastic Constant Matrix: (Units=GPa)
#
#
# Indices 1 2 3 4 5 6 
#
# 1 44.0950 37.4769 66.3721 0.0000 0.0000 0.0000
# 2 37.4769 51.4923 89.0461 0.0000 0.0000 0.0000
# 3 66.3721 89.0461 219.0530 0.0000 0.0000 0.0000
# 4 0.0000 0.0000 0.0000 -42.0602 0.0000 0.0000
# 5 0.0000 0.0000 0.0000 0.0000 28.5351 0.0000
# 6 0.0000 0.0000 0.0000 0.0000 0.0000 15.9727
#
#
#
# Elastic Compliance Matrix: (Units=1/GPa)
#
#
# Indices 1 2 3 4 5 6 
#
# 1 0.059591 -0.040896 -0.001431 0.000000 0.000000 0.000000
# 2 -0.040896 0.093448 -0.025596 0.000000 0.000000 0.000000
# 3 -0.001431 -0.025596 0.015404 0.000000 0.000000 0.000000
# 4 0.000000 0.000000 0.000000 -0.023775 0.000000 0.000000
# 5 0.000000 0.000000 0.000000 0.000000 0.035045 0.000000
# 6 0.000000 0.000000 0.000000 0.000000 0.000000 0.062607
#
#
# Mechanical properties :
#
#
# Convention : Reuss Voigt Hill
#
# Bulk Modulus (GPa) = 30.67815 77.82564 54.25189
# Shear Modulus (GPa) = 12.85248 8.60587 10.72918
#
# Velocity S-wave (km/s) = 2.75388 2.25346 2.51614
# Velocity P-wave (km/s) = 5.31169 7.25902 6.36033
#
# Compressibility (1/GPa) = 0.03259649
#
# Stress axis : x y z
#
# Youngs Moduli (GPa) = 16.78115 10.70111 64.91945
#
# Poissons Ratio (x) = 0.43763 0.09293
# Poissons Ratio (y) = 0.68628 1.66168
# Poissons Ratio (z) = 0.02402 0.27391
#
# Static dielectric constant tensor:
#      x y z
#    x 1.564260 0.000000 0.000000 
#    y 0.000000 1.560980 0.000000 
#    z 0.000000 0.000000 1.567710 
# 
# From -- ./inp_files/59475.got.cif
#   From: 2010.05.17/outbox.cif.g08.bks.cpg/sg63_30_cif.got.tgz:59475.got - 2010.06.03 15:47:04.
