data_PCOD9469968
_publ_section_title
;
Structure prediction by ZEFSAII (Michael W. Deem and Ramdas Pophale) SiO2 
 PCOD9469968
Probable space group: C M C M
;
_chemical_formula_sum "Si O2"
_cell_formula_units_Z 96
_cell_length_a 8.042084
_cell_length_b 24.438693
_cell_length_c 27.146700
_cell_angle_alpha 90.000000
_cell_angle_beta 90.000000
_cell_angle_gamma 90.000000
_cell_volume 5335.358721
_symmetry_space_group_name_H-M "C M C M"
_symmetry_group_IT_number 63
_symmetry_cell_setting 'orthorhombic'
loop_
_space_group_symop_operation_xyz
x,y,z
-x,-y,1/2+z
x,-y,-z
-x,y,1/2-z
-x,-y,-z
x,y,1/2-z
-x,y,z
x,-y,1/2+z
1/2+x,1/2+y,z
1/2-x,1/2-y,1/2+z
1/2+x,1/2-y,-z
1/2-x,1/2+y,1/2-z
1/2-x,1/2-y,-z
1/2+x,1/2+y,1/2-z
1/2-x,1/2+y,z
1/2+x,1/2-y,1/2+z
loop_
_atom_site_type_symbol
_atom_site_label
_atom_site_fract_x
_atom_site_fract_y
_atom_site_fract_z
Si Si1 0.802393 0.246130 0.376866
Si Si2 0.700771 0.522453 0.446281
Si Si3 0.698008 0.147081 0.430689
Si Si4 0.201611 0.916361 0.392761
Si Si5 0.300829 0.338692 0.194564
Si Si6 0.698274 0.821999 0.036039
O O1 0.761325 0.182757 0.384871
O O2 0.735564 0.280169 0.330628
O O3 0.732727 0.277694 0.425480
O O4 0.000000 0.252738 0.376124
O O5 0.757649 0.500000 0.500000
O O6 0.500000 0.523641 0.448185
O O7 0.758594 0.583306 0.433689
O O8 0.751467 0.478253 0.404822
O O9 0.500000 0.151751 0.431336
O O10 0.768512 0.174415 0.481158
O O11 0.260283 0.885977 0.343044
O O12 0.266824 0.879594 0.437684
O O13 0.000000 0.914070 0.393346
O O14 0.234254 0.342608 0.250000
O O15 0.500000 0.344477 0.196830
O O16 0.500000 0.813626 0.032452
#
# Coordination Sequence:
#
# PCOD9469968 Si02
#       6
#    16  16  16  16  16  16
#     4  10  20  33  49  71  99 129 164 205 249 297
#     4  10  19  31  47  69  99 137 174 206 243 291
#     4  11  21  31  46  69 100 137 172 203 244 294
#     4   9  17  30  49  72  98 129 165 203 246 296
#     4   9  18  34  56  78  98 122 156 203 256 304
#     4   9  18  30  45  68  98 131 165 203 243 289
#
# _framework density 17.993168000000001
#
# number of rings (size 3 to 8) (size 9 to 14) (size 15 to 20)
#    0.000    2.333    1.667    1.500    0.000    2.667 
#    0.000    0.000    0.000    1.000    0.000    2.333 
#    0.000    0.000    0.000    0.000    0.000    0.000 
#
# Total GULP energy -267576.681683 kJ/mol
# GULP energy per Si atom -5574.514202 kJ/mol
# Density = 1.795221 g / cm^3
# Si number density = 17.993168 Si / 1000 Ang^3
#
#
#
# Elastic Constant Matrix: (Units=GPa)
#
#
# Indices 1 2 3 4 5 6 
#
# 1 13.2303 0.3559 8.5464 0.0000 0.0000 0.0000
# 2 0.3559 62.0334 34.8060 0.0000 0.0000 0.0000
# 3 8.5464 34.8060 103.8066 0.0000 0.0000 0.0000
# 4 0.0000 0.0000 0.0000 11.9661 0.0000 0.0000
# 5 0.0000 0.0000 0.0000 0.0000 14.4807 0.0000
# 6 0.0000 0.0000 0.0000 0.0000 0.0000 24.0532
#
#
#
# Elastic Compliance Matrix: (Units=1/GPa)
#
#
# Indices 1 2 3 4 5 6 
#
# 1 0.080635 0.004018 -0.007986 0.000000 0.000000 0.000000
# 2 0.004018 0.020056 -0.007056 0.000000 0.000000 0.000000
# 3 -0.007986 -0.007056 0.012656 0.000000 0.000000 0.000000
# 4 0.000000 0.000000 0.000000 0.083570 0.000000 0.000000
# 5 0.000000 0.000000 0.000000 0.000000 0.069057 0.000000
# 6 0.000000 0.000000 0.000000 0.000000 0.000000 0.041574
#
#
# Mechanical properties :
#
#
# Convention : Reuss Voigt Hill
#
# Bulk Modulus (GPa) = 10.95282 29.60964 20.28123
# Shear Modulus (GPa) = 13.88778 19.12413 16.50596
#
# Velocity S-wave (km/s) = 2.78121 3.26368 3.03206
# Velocity P-wave (km/s) = 4.05141 5.54021 4.85324
#
# Compressibility (1/GPa) = 0.09130069
#
# Stress axis : x y z
#
# Youngs Moduli (GPa) = 12.40161 49.86024 79.01084
#
# Poissons Ratio (x) = -0.20035 0.63098
# Poissons Ratio (y) = -0.04983 0.55747
# Poissons Ratio (z) = 0.09904 0.35179
#
# Static dielectric constant tensor:
#      x y z
#    x 1.632060 0.000000 0.000000 
#    y 0.000000 1.639960 0.000000 
#    z 0.000000 0.000000 1.631520 
# 
# From -- ./inp_files/59953.got.cif
#   From: 2010.05.17/outbox.cif.g08.bks.cpg/sg63_30_cif.got.tgz:59953.got - 2010.06.03 15:47:04.
