data_PCOD9469999
_publ_section_title
;
Structure prediction by ZEFSAII (Michael W. Deem and Ramdas Pophale) SiO2 
 PCOD9469999
Probable space group: C M C M
;
_chemical_formula_sum "Si O2"
_cell_formula_units_Z 96
_cell_length_a 8.696153
_cell_length_b 24.512317
_cell_length_c 26.602209
_cell_angle_alpha 90.000000
_cell_angle_beta 90.000000
_cell_angle_gamma 90.000000
_cell_volume 5670.602927
_symmetry_space_group_name_H-M "C M C M"
_symmetry_group_IT_number 63
_symmetry_cell_setting 'orthorhombic'
loop_
_space_group_symop_operation_xyz
x,y,z
-x,-y,1/2+z
x,-y,-z
-x,y,1/2-z
-x,-y,-z
x,y,1/2-z
-x,y,z
x,-y,1/2+z
1/2+x,1/2+y,z
1/2-x,1/2-y,1/2+z
1/2+x,1/2-y,-z
1/2-x,1/2+y,1/2-z
1/2-x,1/2-y,-z
1/2+x,1/2+y,1/2-z
1/2-x,1/2+y,z
1/2+x,1/2-y,1/2+z
loop_
_atom_site_type_symbol
_atom_site_label
_atom_site_fract_x
_atom_site_fract_y
_atom_site_fract_z
Si Si1 0.682632 0.730292 0.446048
Si Si2 0.315635 0.493193 0.887048
Si Si3 0.180978 0.580263 0.540738
Si Si4 0.819314 0.388399 0.925922
Si Si5 0.312991 0.584289 0.807204
Si Si6 0.317212 0.329276 0.110943
O O1 0.500000 0.729015 0.450997
O O2 0.750000 0.750000 0.500000
O O3 0.745012 0.671092 0.430498
O O4 0.732976 0.774002 0.404002
O O5 0.500000 0.494493 0.891317
O O6 0.241716 0.525209 0.934139
O O7 0.257563 0.431298 0.887982
O O8 0.269994 0.530383 0.839043
O O9 0.197937 0.585308 0.481382
O O10 0.277841 0.628381 0.566438
O O11 0.000000 0.587131 0.552635
O O12 0.000000 0.383048 0.915204
O O13 0.257750 0.583935 0.750000
O O14 0.500000 0.584955 0.806447
O O15 0.266813 0.637868 0.839064
O O16 0.500000 0.320051 0.113210
#
# Coordination Sequence:
#
# PCOD9469999 Si02
#       6
#    16  16  16  16  16  16
#     4  12  23  35  52  74 106 144 181 217 255 309
#     4  10  20  32  50  76 104 135 173 218 263 311
#     4  10  19  31  48  70 102 141 176 212 252 302
#     4  11  22  34  49  71 104 144 179 212 253 306
#     4   8  16  33  57  82 105 132 169 215 268 319
#     4  10  19  32  53  79 106 137 176 220 262 306
#
# _framework density 16.929417000000001
#
# number of rings (size 3 to 8) (size 9 to 14) (size 15 to 20)
#    0.000    1.833    1.667    5.000    0.000    4.000 
#    0.000    0.000    0.000   19.000    0.000    0.000 
#    0.000    0.000    0.000    0.000    0.000    0.000 
#
# Total GULP energy -267817.914789 kJ/mol
# GULP energy per Si atom -5579.539891 kJ/mol
# Density = 1.689088 g / cm^3
# Si number density = 16.929417 Si / 1000 Ang^3
#
#
#
# Elastic Constant Matrix: (Units=GPa)
#
#
# Indices 1 2 3 4 5 6 
#
# 1 46.3167 34.7949 35.0626 0.0000 0.0000 0.0000
# 2 34.7949 145.5197 59.1125 0.0000 0.0000 0.0000
# 3 35.0626 59.1125 81.6110 0.0000 0.0000 0.0000
# 4 0.0000 0.0000 0.0000 7.0406 0.0000 0.0000
# 5 0.0000 0.0000 0.0000 0.0000 10.7677 0.0000
# 6 0.0000 0.0000 0.0000 0.0000 0.0000 32.8724
#
#
#
# Elastic Compliance Matrix: (Units=1/GPa)
#
#
# Indices 1 2 3 4 5 6 
#
# 1 0.032903 -0.003011 -0.011955 0.000000 0.000000 0.000000
# 2 -0.003011 0.010012 -0.005959 0.000000 0.000000 0.000000
# 3 -0.011955 -0.005959 0.021705 0.000000 0.000000 0.000000
# 4 0.000000 0.000000 0.000000 0.142033 0.000000 0.000000
# 5 0.000000 0.000000 0.000000 0.000000 0.092871 0.000000
# 6 0.000000 0.000000 0.000000 0.000000 0.000000 0.030421
#
#
# Mechanical properties :
#
#
# Convention : Reuss Voigt Hill
#
# Bulk Modulus (GPa) = 43.91506 59.04305 51.47906
# Shear Modulus (GPa) = 13.17925 19.76796 16.47361
#
# Velocity S-wave (km/s) = 2.79316 3.42082 3.12280
# Velocity P-wave (km/s) = 6.03313 7.11016 6.59368
#
# Compressibility (1/GPa) = 0.02277123
#
# Stress axis : x y z
#
# Youngs Moduli (GPa) = 30.39267 99.87705 46.07139
#
# Poissons Ratio (x) = 0.30072 0.55079
# Poissons Ratio (y) = 0.09151 0.27452
# Poissons Ratio (z) = 0.36335 0.59512
#
# Static dielectric constant tensor:
#      x y z
#    x 1.573490 0.000000 0.000000 
#    y 0.000000 1.593720 0.000000 
#    z 0.000000 0.000000 1.567990 
# 
# From -- ./inp_files/66920.got.cif
#   From: 2010.05.17/outbox.cif.g08.bks.cpg/sg63_34_cif.got.tgz:66920.got - 2010.06.03 15:47:04.
