data_PCOD9469796
_publ_section_title
;
Structure prediction by ZEFSAII (Michael W. Deem and Ramdas Pophale) SiO2 
 PCOD9469796
Probable space group: C M C M
;
_chemical_formula_sum "Si O2"
_cell_formula_units_Z 112
_cell_length_a 13.552435
_cell_length_b 28.928617
_cell_length_c 19.202964
_cell_angle_alpha 90.000000
_cell_angle_beta 90.000000
_cell_angle_gamma 90.000000
_cell_volume 7528.583515
_symmetry_space_group_name_H-M "C M C M"
_symmetry_group_IT_number 63
_symmetry_cell_setting 'orthorhombic'
loop_
_space_group_symop_operation_xyz
x,y,z
-x,-y,1/2+z
x,-y,-z
-x,y,1/2-z
-x,-y,-z
x,y,1/2-z
-x,y,z
x,-y,1/2+z
1/2+x,1/2+y,z
1/2-x,1/2-y,1/2+z
1/2+x,1/2-y,-z
1/2-x,1/2+y,1/2-z
1/2-x,1/2-y,-z
1/2+x,1/2+y,1/2-z
1/2-x,1/2+y,z
1/2+x,1/2-y,1/2+z
loop_
_atom_site_type_symbol
_atom_site_label
_atom_site_fract_x
_atom_site_fract_y
_atom_site_fract_z
Si Si1 0.880919 0.444684 0.830901
Si Si2 0.619355 0.850572 0.594779
Si Si3 0.767446 0.162790 0.831493
Si Si4 0.778042 0.478084 0.075289
Si Si5 0.383405 0.243831 0.166828
Si Si6 0.383602 0.431968 0.169073
Si Si7 0.618024 0.879200 0.438312
O O1 0.854554 0.450206 0.750000
O O2 0.848543 0.394565 0.859550
O O3 0.834898 0.484485 0.878070
O O4 0.000000 0.446859 0.836367
O O5 0.500000 0.849939 0.598700
O O6 0.651703 0.801581 0.625790
O O7 0.645188 0.859644 0.514587
O O8 0.738840 0.164649 0.750000
O O9 0.820237 0.210806 0.849995
O O10 0.845364 0.120705 0.838664
O O11 0.675510 0.149701 0.879777
O O12 0.680355 0.462506 0.116543
O O13 0.844597 0.432081 0.066407
O O14 0.757786 0.500000 0.000000
O O15 0.376050 0.235374 0.250000
O O16 0.500000 0.251811 0.152007
O O17 0.364380 0.445105 0.250000
O O18 0.500000 0.434872 0.156556
O O19 0.500000 0.877413 0.430247
#
# Coordination Sequence:
#
# PCOD9469796 Si02
#       7
#    16  16  16  16  16  16  16
#     4  10  19  30  46  69  96 126 161 198 233 274
#     4   9  17  29  45  67  94 123 153 190 237 280
#     4   9  18  31  48  70  92 119 154 190 234 284
#     4  11  20  31  48  69  95 127 160 192 232 282
#     4   9  16  28  48  71  93 117 149 192 239 284
#     4   9  18  33  50  68  92 119 150 192 237 279
#     4  10  20  32  46  66  96 130 159 190 232 280
#
# _framework density 14.876636
#
# number of rings (size 3 to 8) (size 9 to 14) (size 15 to 20)
#    0.000    2.429    1.429    1.714    0.000    5.714 
#    0.000    0.000    0.000    0.000    0.000    1.000 
#    0.000    2.286    0.000    0.000    0.000    0.000 
#
# Total GULP energy -312135.452103 kJ/mol
# GULP energy per Si atom -5573.847359 kJ/mol
# Density = 1.484278 g / cm^3
# Si number density = 14.876636 Si / 1000 Ang^3
#
#
#
# Elastic Constant Matrix: (Units=GPa)
#
#
# Indices 1 2 3 4 5 6 
#
# 1 73.2990 49.5925 62.6125 0.0000 0.0000 0.0000
# 2 49.5925 130.3412 84.9358 0.0000 0.0000 0.0000
# 3 62.6125 84.9358 122.2404 0.0000 0.0000 0.0000
# 4 0.0000 0.0000 0.0000 30.8002 0.0000 0.0000
# 5 0.0000 0.0000 0.0000 0.0000 18.9058 0.0000
# 6 0.0000 0.0000 0.0000 0.0000 0.0000 18.2192
#
#
#
# Elastic Compliance Matrix: (Units=1/GPa)
#
#
# Indices 1 2 3 4 5 6 
#
# 1 0.024565 -0.002097 -0.011125 0.000000 0.000000 0.000000
# 2 -0.002097 0.014199 -0.008792 0.000000 0.000000 0.000000
# 3 -0.011125 -0.008792 0.019988 0.000000 0.000000 0.000000
# 4 0.000000 0.000000 0.000000 0.032467 0.000000 0.000000
# 5 0.000000 0.000000 0.000000 0.000000 0.052894 0.000000
# 6 0.000000 0.000000 0.000000 0.000000 0.000000 0.054887
#
#
# Mechanical properties :
#
#
# Convention : Reuss Voigt Hill
#
# Bulk Modulus (GPa) = 67.91758 80.01801 73.96780
# Shear Modulus (GPa) = 20.16645 22.16767 21.16706
#
# Velocity S-wave (km/s) = 3.68581 3.86437 3.77615
# Velocity P-wave (km/s) = 7.99166 8.59160 8.29705
#
# Compressibility (1/GPa) = 0.01472373
#
# Stress axis : x y z
#
# Youngs Moduli (GPa) = 40.70885 70.42661 50.02977
#
# Poissons Ratio (x) = 0.14766 0.55660
# Poissons Ratio (y) = 0.08535 0.43986
# Poissons Ratio (z) = 0.45290 0.61920
#
# Static dielectric constant tensor:
#      x y z
#    x 1.461370 0.000000 0.000000 
#    y 0.000000 1.483440 0.000000 
#    z 0.000000 0.000000 1.490680 
# 
# From -- ./inp_files/32779.got.cif
#   From: 2010.05.17/outbox.cif.g08.bks.cpg/sg63_17_cif.got.tgz:32779.got - 2010.06.03 15:47:04.
