data_PCOD9469015
_publ_section_title
;
Structure prediction by ZEFSAII (Michael W. Deem and Ramdas Pophale) SiO2 
 PCOD9469015
Probable space group: C M C M
;
_chemical_formula_sum "Si O2"
_cell_formula_units_Z 40
_cell_length_a 11.103952
_cell_length_b 19.272436
_cell_length_c 8.787380
_cell_angle_alpha 90.000000
_cell_angle_beta 90.000000
_cell_angle_gamma 90.000000
_cell_volume 1880.501115
_symmetry_space_group_name_H-M "C M C M"
_symmetry_group_IT_number 63
_symmetry_cell_setting 'orthorhombic'
loop_
_space_group_symop_operation_xyz
x,y,z
-x,-y,1/2+z
x,-y,-z
-x,y,1/2-z
-x,-y,-z
x,y,1/2-z
-x,y,z
x,-y,1/2+z
1/2+x,1/2+y,z
1/2-x,1/2-y,1/2+z
1/2+x,1/2-y,-z
1/2-x,1/2+y,1/2-z
1/2-x,1/2-y,-z
1/2+x,1/2+y,1/2-z
1/2-x,1/2+y,z
1/2+x,1/2-y,1/2+z
loop_
_atom_site_type_symbol
_atom_site_label
_atom_site_fract_x
_atom_site_fract_y
_atom_site_fract_z
Si Si1 0.751802 0.575660 0.069897
Si Si2 0.000000 0.577958 0.568227
Si Si3 0.631745 0.715437 0.431152
O O1 0.773203 0.567405 0.250000
O O2 0.649301 0.632686 0.046441
O O3 0.726692 0.500000 0.000000
O O4 0.873991 0.605923 0.994147
O O5 0.000000 0.500000 0.500000
O O6 0.000000 0.578224 0.750000
O O7 0.633251 0.728485 0.250000
O O8 0.500000 0.737239 0.490319
O O9 0.750000 0.750000 0.500000
#
# Coordination Sequence:
#
# PCOD9469015 Si02
#       3
#    16   8  16
#     4  10  20  36  59  88 123 158 200 251 305 362
#     4  10  18  30  52  84 120 156 197 242 293 354
#     4  10  24  44  64  90 124 162 205 255 308 366
#
# _framework density 21.270925999999999
#
# number of rings (size 3 to 8) (size 9 to 14) (size 15 to 20)
#    0.000    2.000    0.000    5.400    2.800    4.800 
#    0.000    0.000    0.000    0.000    0.000    0.000 
#    0.000    0.000    0.000    0.000    0.000    0.000 
#
# Total GULP energy -111686.351690 kJ/mol
# GULP energy per Si atom -5584.317584 kJ/mol
# Density = 2.122251 g / cm^3
# Si number density = 21.270926 Si / 1000 Ang^3
#
#
#
# Elastic Constant Matrix: (Units=GPa)
#
#
# Indices 1 2 3 4 5 6 
#
# 1 175.4575 57.5970 53.0983 0.0000 0.0000 0.0000
# 2 57.5970 85.2499 39.7198 0.0000 0.0000 0.0000
# 3 53.0983 39.7198 97.1077 0.0000 0.0000 0.0000
# 4 0.0000 0.0000 0.0000 27.3774 0.0000 0.0000
# 5 0.0000 0.0000 0.0000 0.0000 25.6250 0.0000
# 6 0.0000 0.0000 0.0000 0.0000 0.0000 22.8954
#
#
#
# Elastic Compliance Matrix: (Units=1/GPa)
#
#
# Indices 1 2 3 4 5 6 
#
# 1 0.007827 -0.004069 -0.002615 0.000000 0.000000 0.000000
# 2 -0.004069 0.016608 -0.004568 0.000000 0.000000 0.000000
# 3 -0.002615 -0.004568 0.013596 0.000000 0.000000 0.000000
# 4 0.000000 0.000000 0.000000 0.036527 0.000000 0.000000
# 5 0.000000 0.000000 0.000000 0.000000 0.039024 0.000000
# 6 0.000000 0.000000 0.000000 0.000000 0.000000 0.043677
#
#
# Mechanical properties :
#
#
# Convention : Reuss Voigt Hill
#
# Bulk Modulus (GPa) = 64.40885 73.18282 68.79583
# Shear Modulus (GPa) = 27.03597 29.00622 28.02110
#
# Velocity S-wave (km/s) = 3.56902 3.69678 3.63346
# Velocity P-wave (km/s) = 6.87967 7.25957 7.07217
#
# Compressibility (1/GPa) = 0.01552582
#
# Stress axis : x y z
#
# Youngs Moduli (GPa) = 127.76851 60.21210 73.55011
#
# Poissons Ratio (x) = 0.24503 0.19234
# Poissons Ratio (y) = 0.51995 0.33597
# Poissons Ratio (z) = 0.33412 0.27505
#
# Static dielectric constant tensor:
#      x y z
#    x 1.808850 0.000000 0.000000 
#    y 0.000000 1.891370 0.000000 
#    z 0.000000 0.000000 1.720030 
# 
# From -- ./inp_files/2434.got.cif
#   From: 2010.05.17/outbox.cif.g08.bks.cpg/sg63_2_cif.got.tgz:2434.got - 2010.06.03 15:47:04.
