data_PCOD9469549
_publ_section_title
;
Structure prediction by ZEFSAII (Michael W. Deem and Ramdas Pophale) SiO2 
 PCOD9469549
Probable space group: C M C M
;
_chemical_formula_sum "Si O2"
_cell_formula_units_Z 96
_cell_length_a 7.807775
_cell_length_b 25.912953
_cell_length_c 24.253419
_cell_angle_alpha 90.000000
_cell_angle_beta 90.000000
_cell_angle_gamma 90.000000
_cell_volume 4907.012526
_symmetry_space_group_name_H-M "C M C M"
_symmetry_group_IT_number 63
_symmetry_cell_setting 'orthorhombic'
loop_
_space_group_symop_operation_xyz
x,y,z
-x,-y,1/2+z
x,-y,-z
-x,y,1/2-z
-x,-y,-z
x,y,1/2-z
-x,y,z
x,-y,1/2+z
1/2+x,1/2+y,z
1/2-x,1/2-y,1/2+z
1/2+x,1/2-y,-z
1/2-x,1/2+y,1/2-z
1/2-x,1/2-y,-z
1/2+x,1/2+y,1/2-z
1/2-x,1/2+y,z
1/2+x,1/2-y,1/2+z
loop_
_atom_site_type_symbol
_atom_site_label
_atom_site_fract_x
_atom_site_fract_y
_atom_site_fract_z
Si Si1 0.204612 0.569581 0.133441
Si Si2 0.202847 0.139850 0.565984
Si Si3 0.794242 0.024078 0.557633
Si Si4 0.304371 0.612384 0.250000
Si Si5 0.292570 0.834605 0.942229
Si Si6 0.710659 0.737405 0.631292
Si Si7 0.698175 0.771976 0.750000
O O1 0.256155 0.515599 0.106466
O O2 0.269200 0.580256 0.194841
O O3 0.265566 0.615761 0.093191
O O4 0.000000 0.572491 0.135139
O O5 0.274199 0.081735 0.567603
O O6 0.227163 0.161031 0.504198
O O7 0.270566 0.182353 0.608512
O O8 0.000000 0.135962 0.576827
O O9 0.000000 0.028032 0.552031
O O10 0.728087 0.000000 0.500000
O O11 0.500000 0.629201 0.250000
O O12 0.200807 0.665841 0.250000
O O13 0.500000 0.835329 0.944014
O O14 0.238250 0.782901 0.910647
O O15 0.500000 0.737936 0.631585
O O16 0.771972 0.751316 0.692594
O O17 0.500000 0.755432 0.750000
#
# Coordination Sequence:
#
# PCOD9469549 Si02
#       7
#    16  16  16   8  16  16   8
#     4  11  22  37  59  84 111 146 188 230 277 332
#     4  10  20  34  53  79 113 150 186 226 281 336
#     4  10  20  35  54  80 115 151 188 236 283 328
#     4  12  24  38  59  86 115 143 180 228 284 335
#     4  10  19  32  53  81 110 140 182 231 278 329
#     4   9  18  33  54  79 107 143 187 231 274 333
#     4  10  18  36  59  78 107 143 182 226 272 329
#
# _framework density 19.563836999999999
#
# number of rings (size 3 to 8) (size 9 to 14) (size 15 to 20)
#    0.000    1.833    3.333    1.750    0.000    1.667 
#    0.000    1.667    0.000    3.000    0.000    0.000 
#    0.000    0.000    0.000    0.000    0.000    0.000 
#
# Total GULP energy -268091.626806 kJ/mol
# GULP energy per Si atom -5585.242225 kJ/mol
# Density = 1.951931 g / cm^3
# Si number density = 19.563837 Si / 1000 Ang^3
#
#
#
# Elastic Constant Matrix: (Units=GPa)
#
#
# Indices 1 2 3 4 5 6 
#
# 1 18.8127 5.6072 -12.6907 0.0000 0.0000 0.0000
# 2 5.6072 158.8889 84.8793 0.0000 0.0000 0.0000
# 3 -12.6907 84.8793 138.7840 0.0000 0.0000 0.0000
# 4 0.0000 0.0000 0.0000 35.0850 0.0000 0.0000
# 5 0.0000 0.0000 0.0000 0.0000 18.2319 0.0000
# 6 0.0000 0.0000 0.0000 0.0000 0.0000 -5.9236
#
#
#
# Elastic Compliance Matrix: (Units=1/GPa)
#
#
# Indices 1 2 3 4 5 6 
#
# 1 0.062572 -0.007820 0.010504 0.000000 0.000000 0.000000
# 2 -0.007820 0.010325 -0.007030 0.000000 0.000000 0.000000
# 3 0.010504 -0.007030 0.012465 0.000000 0.000000 0.000000
# 4 0.000000 0.000000 0.000000 0.028502 0.000000 0.000000
# 5 0.000000 0.000000 0.000000 0.000000 0.054849 0.000000
# 6 0.000000 0.000000 0.000000 0.000000 0.000000 -0.168816
#
#
# Mechanical properties :
#
#
# Convention : Reuss Voigt Hill
#
# Bulk Modulus (GPa) = 13.04255 52.45301 32.74778
# Shear Modulus (GPa) = 146.43229 25.39132 85.91181
#
# Velocity S-wave (km/s) = 8.66089 3.60650 6.63392
# Velocity P-wave (km/s) = 10.32936 6.64920 8.68642
#
# Compressibility (1/GPa) = 0.07667212
#
# Stress axis : x y z
#
# Youngs Moduli (GPa) = 15.98156 96.85259 80.22281
#
# Poissons Ratio (x) = 0.75734 -0.84267
# Poissons Ratio (y) = 0.12497 0.56394
# Poissons Ratio (z) = -0.16787 0.68085
#
# Static dielectric constant tensor:
#      x y z
#    x 1.711220 0.000000 0.000000 
#    y 0.000000 1.686590 0.000000 
#    z 0.000000 0.000000 1.659910 
# 
# From -- ./inp_files/60095.got.cif
#   From: 2010.05.17/outbox.cif.g08.bks.cpg/sg63_31_cif.got.tgz:60095.got - 2010.06.03 15:47:04.
