data_PCOD9469340
_publ_section_title
;
Structure prediction by ZEFSAII (Michael W. Deem and Ramdas Pophale) SiO2 
 PCOD9469340
Probable space group: C M C M
;
_chemical_formula_sum "Si O2"
_cell_formula_units_Z 84
_cell_length_a 21.409444
_cell_length_b 11.780068
_cell_length_c 14.485806
_cell_angle_alpha 90.000000
_cell_angle_beta 90.000000
_cell_angle_gamma 90.000000
_cell_volume 3653.388446
_symmetry_space_group_name_H-M "C M C M"
_symmetry_group_IT_number 63
_symmetry_cell_setting 'orthorhombic'
loop_
_space_group_symop_operation_xyz
x,y,z
-x,-y,1/2+z
x,-y,-z
-x,y,1/2-z
-x,-y,-z
x,y,1/2-z
-x,y,z
x,-y,1/2+z
1/2+x,1/2+y,z
1/2-x,1/2-y,1/2+z
1/2+x,1/2-y,-z
1/2-x,1/2+y,1/2-z
1/2-x,1/2-y,-z
1/2+x,1/2+y,1/2-z
1/2-x,1/2+y,z
1/2+x,1/2-y,1/2+z
loop_
_atom_site_type_symbol
_atom_site_label
_atom_site_fract_x
_atom_site_fract_y
_atom_site_fract_z
Si Si1 0.567241 0.039790 0.108558
Si Si2 0.690209 0.064921 0.901586
Si Si3 0.500000 0.219383 0.750000
Si Si4 0.568622 0.309010 0.098140
Si Si5 0.389413 0.283818 0.608418
Si Si6 0.671432 0.515390 0.887608
O O1 0.500000 0.002291 0.147997
O O2 0.570787 0.175066 0.118158
O O3 0.630841 0.991182 0.147942
O O4 0.565721 0.000000 0.000000
O O5 0.666483 0.193987 0.911937
O O6 0.758243 0.047072 0.859693
O O7 0.693462 0.000000 0.000000
O O8 0.443836 0.232641 0.670907
O O9 0.500000 0.352305 0.124898
O O10 0.624210 0.383916 0.137517
O O11 0.577773 0.314989 0.988028
O O12 0.356788 0.396956 0.646512
O O13 0.672404 0.500000 0.000000
#
# Coordination Sequence:
#
# PCOD9469340 Si02
#       6
#    16  16   4  16  16  16
#     4   9  16  26  48  82 116 151 168 210 291 348
#     4  10  19  33  58  87 123 146 173 235 303 359
#     4  12  28  40  60  80 106 164 204 248 252 334
#     4  10  18  32  55  85 124 142 183 232 293 353
#     4  11  22  38  56  84 119 149 201 229 280 338
#     4   9  22  32  55  90 122 147 172 238 303 350
#
# _framework density 22.992353999999999
#
# number of rings (size 3 to 8) (size 9 to 14) (size 15 to 20)
#    0.000    2.095    4.762    0.000    5.333    3.429 
#    0.000    0.952    0.000    0.000    0.000    1.333 
#    0.000    0.000    0.000    0.000    0.000    0.000 
#
# Total GULP energy -233981.394642 kJ/mol
# GULP energy per Si atom -5570.985587 kJ/mol
# Density = 2.294002 g / cm^3
# Si number density = 22.992354 Si / 1000 Ang^3
#
#
#
# Elastic Constant Matrix: (Units=GPa)
#
#
# Indices 1 2 3 4 5 6 
#
# 1 266.1292 96.5214 7.0592 0.0000 0.0000 0.0000
# 2 96.5214 134.7454 1.7284 0.0000 0.0000 0.0000
# 3 7.0592 1.7284 86.5916 0.0000 0.0000 0.0000
# 4 0.0000 0.0000 0.0000 -33.1435 0.0000 0.0000
# 5 0.0000 0.0000 0.0000 0.0000 -83.4063 0.0000
# 6 0.0000 0.0000 0.0000 0.0000 0.0000 -14.1634
#
#
#
# Elastic Compliance Matrix: (Units=1/GPa)
#
#
# Indices 1 2 3 4 5 6 
#
# 1 0.005087 -0.003639 -0.000342 0.000000 0.000000 0.000000
# 2 -0.003639 0.010027 0.000097 0.000000 0.000000 0.000000
# 3 -0.000342 0.000097 0.011574 0.000000 0.000000 0.000000
# 4 0.000000 0.000000 0.000000 -0.030172 0.000000 0.000000
# 5 0.000000 0.000000 0.000000 0.000000 -0.011990 0.000000
# 6 0.000000 0.000000 0.000000 0.000000 0.000000 -0.070604
#
#
# Mechanical properties :
#
#
# Convention : Reuss Voigt Hill
#
# Bulk Modulus (GPa) = 52.85814 77.56492 65.21153
# Shear Modulus (GPa) = -69.44253 -0.66551 -35.05402
#
# Velocity S-wave (km/s) = -5.50164 -0.53859 -3.90884
# Velocity P-wave (km/s) = 4.16149 5.78114 2.83757
#
# Compressibility (1/GPa) = 0.01891856
#
# Stress axis : x y z
#
# Youngs Moduli (GPa) = 196.59709 99.73034 86.39737
#
# Poissons Ratio (x) = 0.36294 0.02955
# Poissons Ratio (y) = 0.71546 -0.00834
# Poissons Ratio (z) = 0.06724 -0.00963
#
# Static dielectric constant tensor:
#      x y z
#    x 1.844390 0.000000 0.000000 
#    y 0.000000 1.886780 0.000000 
#    z 0.000000 0.000000 1.876560 
# 
# From -- ./inp_files/46842.got.cif
#   From: 2010.05.17/outbox.cif.g08.bks.cpg/sg63_24_cif.got.tgz:46842.got - 2010.06.03 15:47:04.
