data_PCOD9469012
_publ_section_title
;
Structure prediction by ZEFSAII (Michael W. Deem and Ramdas Pophale) SiO2 
 PCOD9469012
Probable space group: C M C M
;
_chemical_formula_sum "Si O2"
_cell_formula_units_Z 56
_cell_length_a 31.037537
_cell_length_b 8.780799
_cell_length_c 10.710289
_cell_angle_alpha 90.000000
_cell_angle_beta 90.000000
_cell_angle_gamma 90.000000
_cell_volume 2918.921906
_symmetry_space_group_name_H-M "C M C M"
_symmetry_group_IT_number 63
_symmetry_cell_setting 'orthorhombic'
loop_
_space_group_symop_operation_xyz
x,y,z
-x,-y,1/2+z
x,-y,-z
-x,y,1/2-z
-x,-y,-z
x,y,1/2-z
-x,y,z
x,-y,1/2+z
1/2+x,1/2+y,z
1/2-x,1/2-y,1/2+z
1/2+x,1/2-y,-z
1/2-x,1/2+y,1/2-z
1/2-x,1/2-y,-z
1/2+x,1/2+y,1/2-z
1/2-x,1/2+y,z
1/2+x,1/2-y,1/2+z
loop_
_atom_site_type_symbol
_atom_site_label
_atom_site_fract_x
_atom_site_fract_y
_atom_site_fract_z
Si Si1 0.811136 0.254050 0.608139
Si Si2 0.549298 0.317153 0.250000
Si Si3 0.549866 0.311870 0.750000
Si Si4 0.250358 0.500000 0.500000
Si Si5 0.899757 0.814665 0.000280
O O1 0.827020 0.247361 0.750000
O O2 0.780607 0.397633 0.584889
O O3 0.781127 0.109178 0.579558
O O4 0.851861 0.250471 0.515952
O O5 0.500000 0.265149 0.250000
O O6 0.548917 0.502685 0.250000
O O7 0.573241 0.270784 0.376713
O O8 0.500000 0.260983 0.750000
O O9 0.575539 0.266995 0.625150
O O10 0.896196 0.000000 0.000000
#
# Coordination Sequence:
#
# PCOD9469012 Si02
#       5
#    16   8   8   8  16
#     4  11  21  40  58  85 115 152 194 239 286 344
#     4   9  16  28  48  76 110 147 184 231 287 339
#     4   9  18  30  46  78 118 151 182 225 285 341
#     4  10  24  38  58  84 114 152 192 240 292 338
#     4  10  18  30  52  80 114 149 186 234 282 340
#
# _framework density 19.185167
#
# number of rings (size 3 to 8) (size 9 to 14) (size 15 to 20)
#    0.000    2.000    2.857    1.714    0.000    3.429 
#   12.857    0.000    0.000    0.000    0.000    6.000 
#    0.000    0.000    0.000    0.000    0.000    0.000 
#
# Total GULP energy -156294.673999 kJ/mol
# GULP energy per Si atom -5581.952643 kJ/mol
# Density = 1.914150 g / cm^3
# Si number density = 19.185167 Si / 1000 Ang^3
#
#
#
# Elastic Constant Matrix: (Units=GPa)
#
#
# Indices 1 2 3 4 5 6 
#
# 1 175.1317 26.2698 78.3194 0.0000 0.0000 0.0000
# 2 26.2698 35.1022 16.2401 0.0000 0.0000 0.0000
# 3 78.3194 16.2401 149.1276 0.0000 0.0000 0.0000
# 4 0.0000 0.0000 0.0000 -1.3516 0.0000 0.0000
# 5 0.0000 0.0000 0.0000 0.0000 37.9963 0.0000
# 6 0.0000 0.0000 0.0000 0.0000 0.0000 3.2534
#
#
#
# Elastic Compliance Matrix: (Units=1/GPa)
#
#
# Indices 1 2 3 4 5 6 
#
# 1 0.008028 -0.004273 -0.003751 0.000000 0.000000 0.000000
# 2 -0.004273 0.032274 -0.001271 0.000000 0.000000 0.000000
# 3 -0.003751 -0.001271 0.008814 0.000000 0.000000 0.000000
# 4 0.000000 0.000000 0.000000 -0.739841 0.000000 0.000000
# 5 0.000000 0.000000 0.000000 0.000000 0.026318 0.000000
# 6 0.000000 0.000000 0.000000 0.000000 0.000000 0.307374
#
#
# Mechanical properties :
#
#
# Convention : Reuss Voigt Hill
#
# Bulk Modulus (GPa) = 32.75766 66.78000 49.76883
# Shear Modulus (GPa) = -15.23145 23.88175 4.32515
#
# Velocity S-wave (km/s) = -2.82071 3.53200 1.50310
# Velocity P-wave (km/s) = 2.55010 7.17754 5.38610
#
# Compressibility (1/GPa) = 0.03052721
#
# Stress axis : x y z
#
# Youngs Moduli (GPa) = 124.55780 30.98484 113.45544
#
# Poissons Ratio (x) = 0.13239 0.42558
# Poissons Ratio (y) = 0.53222 0.14416
# Poissons Ratio (z) = 0.46722 0.03937
#
# Static dielectric constant tensor:
#      x y z
#    x 1.643230 0.000000 0.000000 
#    y 0.000000 1.648180 0.000000 
#    z 0.000000 0.000000 1.653560 
# 
# From -- ./inp_files/25442.got.cif
#   From: 2010.05.17/outbox.cif.g08.bks.cpg/sg63_13_cif.got.tgz:25442.got - 2010.06.03 15:47:04.
