data_PCOD9469712
_publ_section_title
;
Structure prediction by ZEFSAII (Michael W. Deem and Ramdas Pophale) SiO2 
 PCOD9469712
Probable space group: C M C M
;
_chemical_formula_sum "Si O2"
_cell_formula_units_Z 128
_cell_length_a 21.275114
_cell_length_b 13.068233
_cell_length_c 23.626000
_cell_angle_alpha 90.000000
_cell_angle_beta 90.000000
_cell_angle_gamma 90.000000
_cell_volume 6568.692998
_symmetry_space_group_name_H-M "C M C M"
_symmetry_group_IT_number 63
_symmetry_cell_setting 'orthorhombic'
loop_
_space_group_symop_operation_xyz
x,y,z
-x,-y,1/2+z
x,-y,-z
-x,y,1/2-z
-x,-y,-z
x,y,1/2-z
-x,y,z
x,-y,1/2+z
1/2+x,1/2+y,z
1/2-x,1/2-y,1/2+z
1/2+x,1/2-y,-z
1/2-x,1/2+y,1/2-z
1/2-x,1/2-y,-z
1/2+x,1/2+y,1/2-z
1/2-x,1/2+y,z
1/2+x,1/2-y,1/2+z
loop_
_atom_site_type_symbol
_atom_site_label
_atom_site_fract_x
_atom_site_fract_y
_atom_site_fract_z
Si Si1 0.856807 0.763426 0.314069
Si Si2 0.750206 0.611894 0.024262
Si Si3 0.928037 0.882736 0.490203
Si Si4 0.424118 0.177412 0.682080
Si Si5 0.571166 0.055606 0.318623
Si Si6 0.180550 0.227246 0.571712
Si Si7 0.074024 0.022760 0.684913
Si Si8 0.129397 0.147862 0.104607
O O1 0.833320 0.755499 0.250000
O O2 0.888325 0.655894 0.331652
O O3 0.806608 0.785529 0.362471
O O4 0.904942 0.858768 0.316079
O O5 0.813314 0.656228 0.051489
O O6 0.695672 0.630437 0.071816
O O7 0.754802 0.500000 0.000000
O O8 0.731010 0.672377 0.967558
O O9 0.884828 0.824474 0.445728
O O10 0.918380 0.835249 0.552156
O O11 0.000000 0.884729 0.472338
O O12 0.906264 0.000000 0.500000
O O13 0.414603 0.188890 0.750000
O O14 0.500000 0.193187 0.672661
O O15 0.382447 0.257836 0.647052
O O16 0.408687 0.059483 0.665398
O O17 0.568783 0.053698 0.250000
O O18 0.500000 0.071214 0.339416
O O19 0.084767 0.986925 0.750000
O O20 0.000000 0.013752 0.672952
O O21 0.111311 0.953540 0.640234
#
# Coordination Sequence:
#
# PCOD9469712 Si02
#       8
#    16  16  16  16  16  16  16  16
#     4  10  19  33  53  80 113 142 178 229 283 342
#     4  10  22  42  62  78 102 149 205 241 280 336
#     4  10  20  34  57  87 117 146 180 230 290 348
#     4   9  17  30  50  78 117 158 191 229 285 353
#     4   8  15  29  48  71 106 154 191 211 253 334
#     4  10  21  39  59  83 107 146 192 237 279 343
#     4  10  19  29  49  85 124 155 182 226 294 360
#     4  11  19  32  54  81 110 146 191 243 284 332
#
# _framework density 19.486373
#
# number of rings (size 3 to 8) (size 9 to 14) (size 15 to 20)
#    0.000    2.250    0.000    5.625    0.000    4.500 
#    6.750    1.250    0.000    1.125    0.000    0.000 
#    0.000    0.000    0.000    0.000    0.000    0.000 
#
# Total GULP energy -356635.985209 kJ/mol
# GULP energy per Si atom -5572.437269 kJ/mol
# Density = 1.944202 g / cm^3
# Si number density = 19.486373 Si / 1000 Ang^3
#
#
#
# Elastic Constant Matrix: (Units=GPa)
#
#
# Indices 1 2 3 4 5 6 
#
# 1 41.6044 30.9692 31.4084 0.0000 0.0000 0.0000
# 2 30.9692 112.1113 49.5817 0.0000 0.0000 0.0000
# 3 31.4084 49.5817 128.6997 0.0000 0.0000 0.0000
# 4 0.0000 0.0000 0.0000 18.7448 0.0000 0.0000
# 5 0.0000 0.0000 0.0000 0.0000 0.9500 0.0000
# 6 0.0000 0.0000 0.0000 0.0000 0.0000 247.3596
#
#
#
# Elastic Compliance Matrix: (Units=1/GPa)
#
#
# Indices 1 2 3 4 5 6 
#
# 1 0.033210 -0.006737 -0.005509 0.000000 0.000000 0.000000
# 2 -0.006737 0.012118 -0.003024 0.000000 0.000000 0.000000
# 3 -0.005509 -0.003024 0.010280 0.000000 0.000000 0.000000
# 4 0.000000 0.000000 0.000000 0.053348 0.000000 0.000000
# 5 0.000000 0.000000 0.000000 0.000000 1.052655 0.000000
# 6 0.000000 0.000000 0.000000 0.000000 0.000000 0.004043
#
#
# Mechanical properties :
#
#
# Convention : Reuss Voigt Hill
#
# Bulk Modulus (GPa) = 39.89429 56.25935 48.07682
# Shear Modulus (GPa) = 4.15092 64.77460 34.46276
#
# Velocity S-wave (km/s) = 1.46109 5.77175 4.20998
# Velocity P-wave (km/s) = 4.83361 8.56454 6.95396
#
# Compressibility (1/GPa) = 0.02506624
#
# Stress axis : x y z
#
# Youngs Moduli (GPa) = 30.11134 82.51935 97.27952
#
# Poissons Ratio (x) = 0.55597 0.53593
# Poissons Ratio (y) = 0.20287 0.29421
# Poissons Ratio (z) = 0.16589 0.24957
#
# Static dielectric constant tensor:
#      x y z
#    x 1.683010 0.000000 0.000000 
#    y 0.000000 1.815290 0.000000 
#    z 0.000000 0.000000 1.704430 
# 
# From -- ./inp_files/65172.got.cif
#   From: 2010.05.17/outbox.cif.g08.bks.cpg/sg63_33_cif.got.tgz:65172.got - 2010.06.03 15:47:04.
