data_PCOD9469055
_publ_section_title
;
Structure prediction by ZEFSAII (Michael W. Deem and Ramdas Pophale) SiO2 
 PCOD9469055
Probable space group: C M C M
;
_chemical_formula_sum "Si O2"
_cell_formula_units_Z 72
_cell_length_a 23.528309
_cell_length_b 12.116473
_cell_length_c 14.924451
_cell_angle_alpha 90.000000
_cell_angle_beta 90.000000
_cell_angle_gamma 90.000000
_cell_volume 4254.664293
_symmetry_space_group_name_H-M "C M C M"
_symmetry_group_IT_number 63
_symmetry_cell_setting 'orthorhombic'
loop_
_space_group_symop_operation_xyz
x,y,z
-x,-y,1/2+z
x,-y,-z
-x,y,1/2-z
-x,-y,-z
x,y,1/2-z
-x,y,z
x,-y,1/2+z
1/2+x,1/2+y,z
1/2-x,1/2-y,1/2+z
1/2+x,1/2-y,-z
1/2-x,1/2+y,1/2-z
1/2-x,1/2-y,-z
1/2+x,1/2+y,1/2-z
1/2-x,1/2+y,z
1/2+x,1/2-y,1/2+z
loop_
_atom_site_type_symbol
_atom_site_label
_atom_site_fract_x
_atom_site_fract_y
_atom_site_fract_z
Si Si1 0.933368 0.392263 0.440877
Si Si2 0.235387 0.527705 0.250000
Si Si3 0.620150 0.068117 0.750000
Si Si4 0.744720 0.594208 0.933321
Si Si5 0.326398 0.306753 0.750000
Si Si6 0.660528 0.284723 0.945271
O O1 0.921228 0.500000 0.500000
O O2 0.916623 0.424325 0.339248
O O3 0.894184 0.288704 0.468164
O O4 0.000000 0.366316 0.447130
O O5 0.167033 0.527862 0.250000
O O6 0.257552 0.463112 0.337237
O O7 0.262166 0.649391 0.250000
O O8 0.659526 0.177667 0.750000
O O9 0.788411 0.696036 0.929649
O O10 0.768246 0.500000 0.000000
O O11 0.686095 0.636239 0.978399
O O12 0.349624 0.342554 0.651810
#
# Coordination Sequence:
#
# PCOD9469055 Si02
#       6
#    16   8   8  16   8  16
#     4  10  20  36  55  76 101 136 178 217 258 303
#     4  12  20  31  49  77 107 138 169 203 255 316
#     4  10  21  34  50  77 108 135 174 211 258 305
#     4  11  20  31  50  74 107 137 167 208 258 317
#     4  10  18  31  47  72 101 137 166 204 247 313
#     4  10  20  32  50  75 103 135 172 209 262 308
#
# _framework density 16.922604
#
# number of rings (size 3 to 8) (size 9 to 14) (size 15 to 20)
#    0.000    1.556    6.667    1.000    0.000    0.000 
#    0.000    0.000    0.000    0.667    0.000    0.000 
#    0.000    0.000    0.000    0.000    0.000    0.000 
#
# Total GULP energy -200501.842642 kJ/mol
# GULP energy per Si atom -5569.495629 kJ/mol
# Density = 1.688409 g / cm^3
# Si number density = 16.922604 Si / 1000 Ang^3
#
#
#
# Elastic Constant Matrix: (Units=GPa)
#
#
# Indices 1 2 3 4 5 6 
#
# 1 75.9287 18.5593 17.8929 0.0000 0.0000 0.0000
# 2 18.5593 31.3191 19.9981 0.0000 0.0000 0.0000
# 3 17.8929 19.9981 122.3157 0.0000 0.0000 0.0000
# 4 0.0000 0.0000 0.0000 21.2206 0.0000 0.0000
# 5 0.0000 0.0000 0.0000 0.0000 20.9400 0.0000
# 6 0.0000 0.0000 0.0000 0.0000 0.0000 33.7759
#
#
#
# Elastic Compliance Matrix: (Units=1/GPa)
#
#
# Indices 1 2 3 4 5 6 
#
# 1 0.015480 -0.008628 -0.000854 0.000000 0.000000 0.000000
# 2 -0.008628 0.040460 -0.005353 0.000000 0.000000 0.000000
# 3 -0.000854 -0.005353 0.009176 0.000000 0.000000 0.000000
# 4 0.000000 0.000000 0.000000 0.047124 0.000000 0.000000
# 5 0.000000 0.000000 0.000000 0.000000 0.047756 0.000000
# 6 0.000000 0.000000 0.000000 0.000000 0.000000 0.029607
#
#
# Mechanical properties :
#
#
# Convention : Reuss Voigt Hill
#
# Bulk Modulus (GPa) = 28.21167 38.05157 33.13162
# Shear Modulus (GPa) = 21.63675 26.72820 24.18248
#
# Velocity S-wave (km/s) = 3.57959 3.97853 3.78432
# Velocity P-wave (km/s) = 5.81307 6.60601 6.22218
#
# Compressibility (1/GPa) = 0.03544633
#
# Stress axis : x y z
#
# Youngs Moduli (GPa) = 64.59748 24.71558 108.98414
#
# Poissons Ratio (x) = 0.21325 0.09306
# Poissons Ratio (y) = 0.55737 0.58338
# Poissons Ratio (z) = 0.05516 0.13230
#
# Static dielectric constant tensor:
#      x y z
#    x 1.562120 0.000000 0.000000 
#    y 0.000000 1.594790 0.000000 
#    z 0.000000 0.000000 1.631770 
# 
# From -- ./inp_files/36412.got.cif
#   From: 2010.05.17/outbox.cif.g08.bks.cpg/sg63_19_cif.got.tgz:36412.got - 2010.06.03 15:47:04.
