data_PCOD9469520
_publ_section_title
;
Structure prediction by ZEFSAII (Michael W. Deem and Ramdas Pophale) SiO2 
 PCOD9469520
Probable space group: C M C M
;
_chemical_formula_sum "Si O2"
_cell_formula_units_Z 72
_cell_length_a 15.058870
_cell_length_b 26.251336
_cell_length_c 10.307608
_cell_angle_alpha 90.000000
_cell_angle_beta 90.000000
_cell_angle_gamma 90.000000
_cell_volume 4074.756758
_symmetry_space_group_name_H-M "C M C M"
_symmetry_group_IT_number 63
_symmetry_cell_setting 'orthorhombic'
loop_
_space_group_symop_operation_xyz
x,y,z
-x,-y,1/2+z
x,-y,-z
-x,y,1/2-z
-x,-y,-z
x,y,1/2-z
-x,y,z
x,-y,1/2+z
1/2+x,1/2+y,z
1/2-x,1/2-y,1/2+z
1/2+x,1/2-y,-z
1/2-x,1/2+y,1/2-z
1/2-x,1/2-y,-z
1/2+x,1/2+y,1/2-z
1/2-x,1/2+y,z
1/2+x,1/2-y,1/2+z
loop_
_atom_site_type_symbol
_atom_site_label
_atom_site_fract_x
_atom_site_fract_y
_atom_site_fract_z
Si Si1 0.308903 0.442033 0.250000
Si Si2 0.606073 0.657530 0.250000
Si Si3 0.789957 0.193920 0.497504
Si Si4 0.500000 0.950303 0.093294
Si Si5 0.812096 0.591372 0.990827
Si Si6 0.222350 0.943804 0.750000
Si Si7 0.397682 0.339195 0.250000
O O1 0.250673 0.429540 0.376645
O O2 0.326089 0.501916 0.250000
O O3 0.387304 0.400763 0.250000
O O4 0.500000 0.655564 0.250000
O O5 0.645550 0.685382 0.375684
O O6 0.650095 0.601301 0.250000
O O7 0.750000 0.250000 0.500000
O O8 0.713220 0.150675 0.490479
O O9 0.846627 0.182076 0.625403
O O10 0.500000 0.960869 0.250000
O O11 0.411784 0.919322 0.054010
O O12 0.500000 0.000000 0.000000
O O13 0.784164 0.562988 0.123327
O O14 0.500000 0.324811 0.250000
#
# Coordination Sequence:
#
# PCOD9469520 Si02
#       7
#     8   8  16   8  16   8   8
#     4  10  18  35  56  81 111 152 182 223 286 345
#     4  10  21  38  59  90 114 145 190 236 282 349
#     4  10  21  41  62  80 115 153 190 238 294 341
#     4  12  24  38  58  86 122 156 198 248 293 347
#     4  10  22  36  55  83 111 149 198 235 281 350
#     4  10  20  35  58  81 117 152 184 225 288 347
#     4  10  21  36  59  88 114 141 190 234 278 341
#
# _framework density 17.669765999999999
#
# number of rings (size 3 to 8) (size 9 to 14) (size 15 to 20)
#    0.000    1.778    1.111    3.333    1.556    0.444 
#    4.000    0.000    0.000    8.000    0.000    0.000 
#    0.000    0.000    0.000    0.000    0.000    0.000 
#
# Total GULP energy -200966.062787 kJ/mol
# GULP energy per Si atom -5582.390633 kJ/mol
# Density = 1.762955 g / cm^3
# Si number density = 17.669766 Si / 1000 Ang^3
#
#
#
# Elastic Constant Matrix: (Units=GPa)
#
#
# Indices 1 2 3 4 5 6 
#
# 1 120.5769 44.9659 49.2508 0.0000 0.0000 0.0000
# 2 44.9659 134.1814 41.8726 0.0000 0.0000 0.0000
# 3 49.2508 41.8726 164.5994 0.0000 0.0000 0.0000
# 4 0.0000 0.0000 0.0000 23.7968 0.0000 0.0000
# 5 0.0000 0.0000 0.0000 0.0000 20.8732 0.0000
# 6 0.0000 0.0000 0.0000 0.0000 0.0000 10.7099
#
#
#
# Elastic Compliance Matrix: (Units=1/GPa)
#
#
# Indices 1 2 3 4 5 6 
#
# 1 0.010275 -0.002698 -0.002388 0.000000 0.000000 0.000000
# 2 -0.002698 0.008804 -0.001432 0.000000 0.000000 0.000000
# 3 -0.002388 -0.001432 0.007154 0.000000 0.000000 0.000000
# 4 0.000000 0.000000 0.000000 0.042023 0.000000 0.000000
# 5 0.000000 0.000000 0.000000 0.000000 0.047908 0.000000
# 6 0.000000 0.000000 0.000000 0.000000 0.000000 0.093371
#
#
# Mechanical properties :
#
#
# Convention : Reuss Voigt Hill
#
# Bulk Modulus (GPa) = 75.77967 76.83737 76.30852
# Shear Modulus (GPa) = 22.02926 29.96053 25.99490
#
# Velocity S-wave (km/s) = 3.53472 4.12221 3.83972
# Velocity P-wave (km/s) = 7.72261 8.13858 7.93332
#
# Compressibility (1/GPa) = 0.01319615
#
# Stress axis : x y z
#
# Youngs Moduli (GPa) = 97.32278 113.58840 139.77656
#
# Poissons Ratio (x) = 0.30647 0.33380
# Poissons Ratio (y) = 0.26258 0.20020
# Poissons Ratio (z) = 0.23242 0.16269
#
# Static dielectric constant tensor:
#      x y z
#    x 1.564820 0.000000 0.000000 
#    y 0.000000 1.603090 0.000000 
#    z 0.000000 0.000000 1.509600 
# 
# From -- ./inp_files/4753.got.cif
#   From: 2010.05.17/outbox.cif.g08.bks.cpg/sg63_3_cif.got.tgz:4753.got - 2010.06.03 15:47:04.
