data_PCOD9469390
_publ_section_title
;
Structure prediction by ZEFSAII (Michael W. Deem and Ramdas Pophale) SiO2 
 PCOD9469390
Probable space group: C M C M
;
_chemical_formula_sum "Si O2"
_cell_formula_units_Z 116
_cell_length_a 7.773567
_cell_length_b 24.398157
_cell_length_c 29.910448
_cell_angle_alpha 90.000000
_cell_angle_beta 90.000000
_cell_angle_gamma 90.000000
_cell_volume 5672.836748
_symmetry_space_group_name_H-M "C M C M"
_symmetry_group_IT_number 63
_symmetry_cell_setting 'orthorhombic'
loop_
_space_group_symop_operation_xyz
x,y,z
-x,-y,1/2+z
x,-y,-z
-x,y,1/2-z
-x,-y,-z
x,y,1/2-z
-x,y,z
x,-y,1/2+z
1/2+x,1/2+y,z
1/2-x,1/2-y,1/2+z
1/2+x,1/2-y,-z
1/2-x,1/2+y,1/2-z
1/2-x,1/2-y,-z
1/2+x,1/2+y,1/2-z
1/2-x,1/2+y,z
1/2+x,1/2-y,1/2+z
loop_
_atom_site_type_symbol
_atom_site_label
_atom_site_fract_x
_atom_site_fract_y
_atom_site_fract_z
Si Si1 0.790993 0.540491 0.301017
Si Si2 0.794678 0.213615 0.436920
Si Si3 0.300174 0.829383 0.466458
Si Si4 0.693478 0.969133 0.542341
Si Si5 0.792689 0.612679 0.114497
Si Si6 0.500000 0.880653 0.250000
Si Si7 0.692667 0.430041 0.084705
Si Si8 0.197750 0.086544 0.684100
O O1 0.745128 0.556834 0.250000
O O2 0.735534 0.582907 0.339835
O O3 0.719817 0.479424 0.309406
O O4 0.000000 0.536277 0.302559
O O5 0.717916 0.186443 0.481728
O O6 0.734957 0.276753 0.438437
O O7 0.751535 0.175860 0.394604
O O8 0.000000 0.214913 0.442623
O O9 0.500000 0.838074 0.455956
O O10 0.207995 0.885245 0.453879
O O11 0.500000 0.952055 0.527902
O O12 0.774597 0.920311 0.570719
O O13 0.777187 0.000000 0.500000
O O14 0.684548 0.018836 0.577490
O O15 0.000000 0.607482 0.113448
O O16 0.653039 0.885342 0.211941
O O17 0.500000 0.453022 0.086123
O O18 0.724584 0.401776 0.131845
O O19 0.000000 0.100573 0.695872
#
# Coordination Sequence:
#
# PCOD9469390 Si02
#       8
#    16  16  16  16  16   4  16  16
#     4  10  18  33  54  79 109 149 188 232 286 338
#     4  10  21  37  56  82 109 142 187 238 284 328
#     4  10  21  37  59  79 107 146 189 232 281 342
#     4  10  20  32  49  74 111 154 188 217 269 345
#     4  10  20  32  52  79 112 148 188 227 277 344
#     4  12  22  36  60  78 114 160 182 244 288 346
#     4  11  23  35  53  83 113 144 184 234 282 334
#     4  11  22  35  55  85 115 147 194 236 285 345
#
# _framework density 20.448322000000001
#
# number of rings (size 3 to 8) (size 9 to 14) (size 15 to 20)
#    0.000    1.655    2.759    2.276    1.931    4.138 
#    0.000    0.000    0.000    0.000    1.793    0.000 
#    0.000    0.000    0.000    0.000    0.000    0.000 
#
# Total GULP energy -323182.575948 kJ/mol
# GULP energy per Si atom -5572.113378 kJ/mol
# Density = 2.040178 g / cm^3
# Si number density = 20.448322 Si / 1000 Ang^3
#
#
#
# Elastic Constant Matrix: (Units=GPa)
#
#
# Indices 1 2 3 4 5 6 
#
# 1 67.8233 -9.0187 3.7646 0.0000 0.0000 0.0000
# 2 -9.0187 62.9455 -3.3587 0.0000 0.0000 0.0000
# 3 3.7646 -3.3587 53.9051 0.0000 0.0000 0.0000
# 4 0.0000 0.0000 0.0000 3.6326 0.0000 0.0000
# 5 0.0000 0.0000 0.0000 0.0000 24.0533 0.0000
# 6 0.0000 0.0000 0.0000 0.0000 0.0000 13.8534
#
#
#
# Elastic Compliance Matrix: (Units=1/GPa)
#
#
# Indices 1 2 3 4 5 6 
#
# 1 0.015076 0.002111 -0.000921 0.000000 0.000000 0.000000
# 2 0.002111 0.016235 0.000864 0.000000 0.000000 0.000000
# 3 -0.000921 0.000864 0.018669 0.000000 0.000000 0.000000
# 4 0.000000 0.000000 0.000000 0.275285 0.000000 0.000000
# 5 0.000000 0.000000 0.000000 0.000000 0.041574 0.000000
# 6 0.000000 0.000000 0.000000 0.000000 0.000000 0.072184
#
#
# Mechanical properties :
#
#
# Convention : Reuss Voigt Hill
#
# Bulk Modulus (GPa) = 18.48836 18.60537 18.54687
# Shear Modulus (GPa) = 11.03883 21.19364 16.11624
#
# Velocity S-wave (km/s) = 2.32597 3.22289 2.81044
# Velocity P-wave (km/s) = 4.03418 4.79247 4.42958
#
# Compressibility (1/GPa) = 0.05408808
#
# Stress axis : x y z
#
# Youngs Moduli (GPa) = 66.33050 61.59413 53.56386
#
# Poissons Ratio (x) = -0.13002 0.04935
# Poissons Ratio (y) = -0.14002 -0.04629
# Poissons Ratio (z) = 0.06111 -0.05323
#
# Static dielectric constant tensor:
#      x y z
#    x 1.762160 0.000000 0.000000 
#    y 0.000000 1.719340 0.000000 
#    z 0.000000 0.000000 1.773860 
# 
# From -- ./inp_files/72079.got.cif
#   From: 2010.05.17/outbox.cif.g08.bks.cpg/sg63_37_cif.got.tgz:72079.got - 2010.06.03 15:47:04.
