data_PCOD9469742
_publ_section_title
;
Structure prediction by ZEFSAII (Michael W. Deem and Ramdas Pophale) SiO2 
 PCOD9469742
Probable space group: C M C M
;
_chemical_formula_sum "Si O2"
_cell_formula_units_Z 80
_cell_length_a 7.284673
_cell_length_b 14.466667
_cell_length_c 28.487309
_cell_angle_alpha 90.000000
_cell_angle_beta 90.000000
_cell_angle_gamma 90.000000
_cell_volume 3002.133307
_symmetry_space_group_name_H-M "C M C M"
_symmetry_group_IT_number 63
_symmetry_cell_setting 'orthorhombic'
loop_
_space_group_symop_operation_xyz
x,y,z
-x,-y,1/2+z
x,-y,-z
-x,y,1/2-z
-x,-y,-z
x,y,1/2-z
-x,y,z
x,-y,1/2+z
1/2+x,1/2+y,z
1/2-x,1/2-y,1/2+z
1/2+x,1/2-y,-z
1/2-x,1/2+y,1/2-z
1/2-x,1/2-y,-z
1/2+x,1/2+y,1/2-z
1/2-x,1/2+y,z
1/2+x,1/2-y,1/2+z
loop_
_atom_site_type_symbol
_atom_site_label
_atom_site_fract_x
_atom_site_fract_y
_atom_site_fract_z
Si Si1 0.703676 0.492320 0.448841
Si Si2 0.775013 0.266964 0.250000
Si Si3 0.792260 0.241435 0.149384
Si Si4 0.708154 0.513927 0.750000
Si Si5 0.218639 0.283342 0.447470
Si Si6 0.724733 0.461181 0.149953
O O1 0.795088 0.500000 0.500000
O O2 0.500000 0.536618 0.452709
O O3 0.688724 0.382251 0.444199
O O4 0.782532 0.513592 0.397526
O O5 0.714709 0.221230 0.201005
O O6 0.706662 0.373072 0.250000
O O7 0.000000 0.270518 0.250000
O O8 0.716483 0.223154 0.097135
O O9 0.793164 0.354957 0.149794
O O10 0.000000 0.204280 0.149804
O O11 0.500000 0.477458 0.750000
O O12 0.786216 0.493341 0.801273
O O13 0.250000 0.250000 0.500000
O O14 0.000000 0.294664 0.441648
O O15 0.500000 0.458129 0.149935
#
# Coordination Sequence:
#
# PCOD9469742 Si02
#       6
#    16   8  16   8  16  16
#     4   9  17  29  44  62  85 112 141 173 209 248
#     4   8  12  20  34  52  75 100 125 157 201 247
#     4   8  14  23  36  55  78 103 130 163 203 246
#     4   8  12  18  30  50  75 100 125 155 195 241
#     4  10  19  30  44  63  87 114 144 176 210 249
#     4   8  13  21  34  53  77 103 129 160 199 242
#
# _framework density 26.647718000000001
#
# number of rings (size 3 to 8) (size 9 to 14) (size 15 to 20)
#    0.000    3.400    0.000    0.600    0.000    1.200 
#    0.000    0.000    0.000    0.000    0.000    1.400 
#    0.000    8.000    0.000    0.000    0.000    1.200 
#
# Total GULP energy -222957.568738 kJ/mol
# GULP energy per Si atom -5573.939218 kJ/mol
# Density = 2.658707 g / cm^3
# Si number density = 26.647718 Si / 1000 Ang^3
#
#
#
# Elastic Constant Matrix: (Units=GPa)
#
#
# Indices 1 2 3 4 5 6 
#
# 1 137.6388 -6.3589 7.9377 0.0000 0.0000 0.0000
# 2 -6.3589 86.6841 2.6004 0.0000 0.0000 0.0000
# 3 7.9377 2.6004 365.3629 0.0000 0.0000 0.0000
# 4 0.0000 0.0000 0.0000 11.4178 0.0000 0.0000
# 5 0.0000 0.0000 0.0000 0.0000 -46.0352 0.0000
# 6 0.0000 0.0000 0.0000 0.0000 0.0000 -8.9176
#
#
#
# Elastic Compliance Matrix: (Units=1/GPa)
#
#
# Indices 1 2 3 4 5 6 
#
# 1 0.007300 0.000540 -0.000162 0.000000 0.000000 0.000000
# 2 0.000540 0.011579 -0.000094 0.000000 0.000000 0.000000
# 3 -0.000162 -0.000094 0.002741 0.000000 0.000000 0.000000
# 4 0.000000 0.000000 0.000000 0.087582 0.000000 0.000000
# 5 0.000000 0.000000 0.000000 0.000000 -0.021722 0.000000
# 6 0.000000 0.000000 0.000000 0.000000 0.000000 -0.112138
#
#
# Mechanical properties :
#
#
# Convention : Reuss Voigt Hill
#
# Bulk Modulus (GPa) = 45.07126 66.44935 55.76030
# Shear Modulus (GPa) = -280.42128 30.32677 -125.04726
#
# Velocity S-wave (km/s) = -10.26943 3.37718 -6.85769
# Velocity P-wave (km/s) = 11.12045 6.34015 6.46015
#
# Compressibility (1/GPa) = 0.02218709
#
# Stress axis : x y z
#
# Youngs Moduli (GPa) = 136.99144 86.36615 364.80320
#
# Poissons Ratio (x) = -0.04667 0.05926
# Poissons Ratio (y) = -0.07402 0.03435
# Poissons Ratio (z) = 0.02225 0.00813
#
# Static dielectric constant tensor:
#      x y z
#    x 2.106720 0.000000 0.000000 
#    y 0.000000 2.111880 0.000000 
#    z 0.000000 0.000000 2.251520 
# 
# From -- ./inp_files/66812.got.cif
#   From: 2010.05.17/outbox.cif.g08.bks.cpg/sg63_34_cif.got.tgz:66812.got - 2010.06.03 15:47:04.
