data_PCOD9469151
_publ_section_title
;
Structure prediction by ZEFSAII (Michael W. Deem and Ramdas Pophale) SiO2 
 PCOD9469151
Probable space group: C M C M
;
_chemical_formula_sum "Si O2"
_cell_formula_units_Z 80
_cell_length_a 12.155504
_cell_length_b 20.503876
_cell_length_c 18.197743
_cell_angle_alpha 90.000000
_cell_angle_beta 90.000000
_cell_angle_gamma 90.000000
_cell_volume 4535.513507
_symmetry_space_group_name_H-M "C M C M"
_symmetry_group_IT_number 63
_symmetry_cell_setting 'orthorhombic'
loop_
_space_group_symop_operation_xyz
x,y,z
-x,-y,1/2+z
x,-y,-z
-x,y,1/2-z
-x,-y,-z
x,y,1/2-z
-x,y,z
x,-y,1/2+z
1/2+x,1/2+y,z
1/2-x,1/2-y,1/2+z
1/2+x,1/2-y,-z
1/2-x,1/2+y,1/2-z
1/2-x,1/2-y,-z
1/2+x,1/2+y,1/2-z
1/2-x,1/2+y,z
1/2+x,1/2-y,1/2+z
loop_
_atom_site_type_symbol
_atom_site_label
_atom_site_fract_x
_atom_site_fract_y
_atom_site_fract_z
Si Si1 0.740865 0.574513 0.026885
Si Si2 0.125995 0.307588 0.041919
Si Si3 0.500000 0.643175 0.833722
Si Si4 0.673739 0.747602 0.615869
Si Si5 0.500000 0.576791 0.513443
Si Si6 0.628597 0.890548 0.666576
O O1 0.790476 0.576876 0.108392
O O2 0.744123 0.500000 0.000000
O O3 0.815995 0.623957 0.979529
O O4 0.615416 0.600719 0.020511
O O5 0.200547 0.272683 0.102850
O O6 0.000000 0.316544 0.062732
O O7 0.131255 0.264860 0.966697
O O8 0.500000 0.618981 0.750000
O O9 0.395341 0.689672 0.848615
O O10 0.500000 0.591326 0.899646
O O11 0.653812 0.813442 0.660744
O O12 0.500000 0.500000 0.500000
O O13 0.643080 0.912864 0.750000
O O14 0.500000 0.899695 0.645566
#
# Coordination Sequence:
#
# PCOD9469151 Si02
#       6
#    16  16   8  16   8  16
#     4  10  20  36  58  80 109 145 189 232 270 325
#     4  10  19  31  53  83 113 144 184 225 274 323
#     4  12  20  34  62  86 107 147 188 227 284 331
#     4  10  18  31  52  85 113 141 180 224 270 326
#     4  10  22  40  56  84 110 141 186 241 276 325
#     4  10  20  35  56  84 115 145 181 228 278 331
#
# _framework density 17.638577000000002
#
# number of rings (size 3 to 8) (size 9 to 14) (size 15 to 20)
#    0.000    1.800    4.000    2.400    0.000    1.600 
#    0.000    4.500    0.000    1.800    0.000    0.000 
#    0.000    0.000    0.000    0.000    0.000    0.000 
#
# Total GULP energy -223103.304784 kJ/mol
# GULP energy per Si atom -5577.582620 kJ/mol
# Density = 1.759843 g / cm^3
# Si number density = 17.638577 Si / 1000 Ang^3
#
#
#
# Elastic Constant Matrix: (Units=GPa)
#
#
# Indices 1 2 3 4 5 6 
#
# 1 173.8816 24.8578 54.4282 0.0000 0.0000 0.0000
# 2 24.8578 56.6024 25.9348 0.0000 0.0000 0.0000
# 3 54.4282 25.9348 102.4325 0.0000 0.0000 0.0000
# 4 0.0000 0.0000 0.0000 7.1917 0.0000 0.0000
# 5 0.0000 0.0000 0.0000 0.0000 17.8743 0.0000
# 6 0.0000 0.0000 0.0000 0.0000 0.0000 21.7356
#
#
#
# Elastic Compliance Matrix: (Units=1/GPa)
#
#
# Indices 1 2 3 4 5 6 
#
# 1 0.007017 -0.001553 -0.003335 0.000000 0.000000 0.000000
# 2 -0.001553 0.020330 -0.004322 0.000000 0.000000 0.000000
# 3 -0.003335 -0.004322 0.012629 0.000000 0.000000 0.000000
# 4 0.000000 0.000000 0.000000 0.139050 0.000000 0.000000
# 5 0.000000 0.000000 0.000000 0.000000 0.055946 0.000000
# 6 0.000000 0.000000 0.000000 0.000000 0.000000 0.046008
#
#
# Mechanical properties :
#
#
# Convention : Reuss Voigt Hill
#
# Bulk Modulus (GPa) = 46.39381 60.37312 53.38346
# Shear Modulus (GPa) = 16.30870 24.54003 20.42436
#
# Velocity S-wave (km/s) = 3.04403 3.73402 3.40654
# Velocity P-wave (km/s) = 6.22209 7.27274 6.76783
#
# Compressibility (1/GPa) = 0.02155460
#
# Stress axis : x y z
#
# Youngs Moduli (GPa) = 142.50856 49.18949 79.18306
#
# Poissons Ratio (x) = 0.07641 0.26410
# Poissons Ratio (y) = 0.22138 0.34221
# Poissons Ratio (z) = 0.47530 0.21259
#
# Static dielectric constant tensor:
#      x y z
#    x 1.627070 0.000000 0.000000 
#    y 0.000000 1.608820 0.000000 
#    z 0.000000 0.000000 1.596800 
# 
# From -- ./inp_files/42425.got.cif
#   From: 2010.05.17/outbox.cif.g08.bks.cpg/sg63_22_cif.got.tgz:42425.got - 2010.06.03 15:47:04.
