data_PCOD9469983
_publ_section_title
;
Structure prediction by ZEFSAII (Michael W. Deem and Ramdas Pophale) SiO2 
 PCOD9469983
Probable space group: C M C M
;
_chemical_formula_sum "Si O2"
_cell_formula_units_Z 96
_cell_length_a 12.992401
_cell_length_b 20.732043
_cell_length_c 20.211686
_cell_angle_alpha 90.000000
_cell_angle_beta 90.000000
_cell_angle_gamma 90.000000
_cell_volume 5444.199857
_symmetry_space_group_name_H-M "C M C M"
_symmetry_group_IT_number 63
_symmetry_cell_setting 'orthorhombic'
loop_
_space_group_symop_operation_xyz
x,y,z
-x,-y,1/2+z
x,-y,-z
-x,y,1/2-z
-x,-y,-z
x,y,1/2-z
-x,y,z
x,-y,1/2+z
1/2+x,1/2+y,z
1/2-x,1/2-y,1/2+z
1/2+x,1/2-y,-z
1/2-x,1/2+y,1/2-z
1/2-x,1/2-y,-z
1/2+x,1/2+y,1/2-z
1/2-x,1/2+y,z
1/2+x,1/2-y,1/2+z
loop_
_atom_site_type_symbol
_atom_site_label
_atom_site_fract_x
_atom_site_fract_y
_atom_site_fract_z
Si Si1 0.295505 0.029443 0.427487
Si Si2 0.613772 0.099943 0.871417
Si Si3 0.385773 0.696725 0.540673
Si Si4 0.833423 0.867228 0.177620
Si Si5 0.382796 0.482396 0.673957
Si Si6 0.831983 0.657904 0.011046
O O1 0.350709 0.096962 0.441944
O O2 0.266733 0.000000 0.500000
O O3 0.362987 0.974144 0.392261
O O4 0.197305 0.040864 0.380803
O O5 0.500000 0.106212 0.842734
O O6 0.709967 0.123708 0.828497
O O7 0.621401 0.140174 0.939700
O O8 0.500000 0.678105 0.517804
O O9 0.371255 0.674398 0.616259
O O10 0.291499 0.664974 0.500453
O O11 0.372332 0.773622 0.535169
O O12 0.860906 0.841912 0.250000
O O13 0.877711 0.939542 0.170761
O O14 0.354644 0.465027 0.750000
O O15 0.500000 0.461680 0.661814
#
# Coordination Sequence:
#
# PCOD9469983 Si02
#       6
#    16  16  16  16  16  16
#     4   9  18  30  46  71  97 120 153 195 235 278
#     4   9  17  30  49  70  93 122 152 187 237 284
#     4  10  19  31  48  67  91 125 157 188 233 279
#     4   9  18  31  46  68  94 117 152 196 228 269
#     4   9  17  30  48  68  92 122 151 185 234 283
#     4   9  19  32  45  69  97 120 153 195 233 274
#
# _framework density 17.633444999999998
#
# number of rings (size 3 to 8) (size 9 to 14) (size 15 to 20)
#    0.000    2.833    0.000    2.000    0.000    6.000 
#    0.000    0.833    0.000    0.000    0.000    2.333 
#    0.000    0.000    0.000    0.000    0.000    0.000 
#
# Total GULP energy -267518.082848 kJ/mol
# GULP energy per Si atom -5573.293393 kJ/mol
# Density = 1.759331 g / cm^3
# Si number density = 17.633445 Si / 1000 Ang^3
#
#
#
# Elastic Constant Matrix: (Units=GPa)
#
#
# Indices 1 2 3 4 5 6 
#
# 1 93.7623 -17.1618 -5.9366 0.0000 0.0000 0.0000
# 2 -17.1618 46.7638 1.5843 0.0000 0.0000 0.0000
# 3 -5.9366 1.5843 36.2251 0.0000 0.0000 0.0000
# 4 0.0000 0.0000 0.0000 18.7950 0.0000 0.0000
# 5 0.0000 0.0000 0.0000 0.0000 5.0669 0.0000
# 6 0.0000 0.0000 0.0000 0.0000 0.0000 5.5633
#
#
#
# Elastic Compliance Matrix: (Units=1/GPa)
#
#
# Indices 1 2 3 4 5 6 
#
# 1 0.011538 0.004176 0.001708 0.000000 0.000000 0.000000
# 2 0.004176 0.022928 -0.000318 0.000000 0.000000 0.000000
# 3 0.001708 -0.000318 0.027899 0.000000 0.000000 0.000000
# 4 0.000000 0.000000 0.000000 0.053206 0.000000 0.000000
# 5 0.000000 0.000000 0.000000 0.000000 0.197359 0.000000
# 6 0.000000 0.000000 0.000000 0.000000 0.000000 0.179748
#
#
# Mechanical properties :
#
#
# Convention : Reuss Voigt Hill
#
# Bulk Modulus (GPa) = 13.60600 14.85810 14.23205
# Shear Modulus (GPa) = 9.88056 19.10274 14.49165
#
# Velocity S-wave (km/s) = 2.36970 3.29496 2.86986
# Velocity P-wave (km/s) = 3.90129 4.78749 4.36693
#
# Compressibility (1/GPa) = 0.07349697
#
# Stress axis : x y z
#
# Youngs Moduli (GPa) = 86.67125 43.61564 35.84359
#
# Poissons Ratio (x) = -0.18216 -0.06123
# Poissons Ratio (y) = -0.36197 0.01141
# Poissons Ratio (z) = -0.14805 0.01388
#
# Static dielectric constant tensor:
#      x y z
#    x 1.630890 0.000000 0.000000 
#    y 0.000000 1.580100 0.000000 
#    z 0.000000 0.000000 1.580430 
# 
# From -- ./inp_files/52881.got.cif
#   From: 2010.05.17/outbox.cif.g08.bks.cpg/sg63_27_cif.got.tgz:52881.got - 2010.06.03 15:47:04.
