data_PCOD9469947
_publ_section_title
;
Structure prediction by ZEFSAII (Michael W. Deem and Ramdas Pophale) SiO2 
 PCOD9469947
Probable space group: C M C M
;
_chemical_formula_sum "Si O2"
_cell_formula_units_Z 80
_cell_length_a 25.061650
_cell_length_b 24.148773
_cell_length_c 8.733335
_cell_angle_alpha 90.000000
_cell_angle_beta 90.000000
_cell_angle_gamma 90.000000
_cell_volume 5285.485055
_symmetry_space_group_name_H-M "C M C M"
_symmetry_group_IT_number 63
_symmetry_cell_setting 'orthorhombic'
loop_
_space_group_symop_operation_xyz
x,y,z
-x,-y,1/2+z
x,-y,-z
-x,y,1/2-z
-x,-y,-z
x,y,1/2-z
-x,y,z
x,-y,1/2+z
1/2+x,1/2+y,z
1/2-x,1/2-y,1/2+z
1/2+x,1/2-y,-z
1/2-x,1/2+y,1/2-z
1/2-x,1/2-y,-z
1/2+x,1/2+y,1/2-z
1/2-x,1/2+y,z
1/2+x,1/2-y,1/2+z
loop_
_atom_site_type_symbol
_atom_site_label
_atom_site_fract_x
_atom_site_fract_y
_atom_site_fract_z
Si Si1 0.559477 0.235394 0.565305
Si Si2 0.828845 0.223652 0.433780
Si Si3 0.559327 0.888336 0.934791
Si Si4 0.330325 0.940723 0.933228
Si Si5 0.767467 0.338032 0.432054
O O1 0.561777 0.230292 0.750000
O O2 0.500000 0.255184 0.523209
O O3 0.609331 0.273265 0.519075
O O4 0.566131 0.174020 0.496650
O O5 0.825297 0.216509 0.250000
O O6 0.803746 0.284135 0.470333
O O7 0.791663 0.178466 0.513350
O O8 0.560234 0.886406 0.750000
O O9 0.500000 0.907735 0.982842
O O10 0.609446 0.924756 0.986036
O O11 0.330073 0.942976 0.750000
O O12 0.291783 0.891699 0.988314
O O13 0.315119 0.000000 0.000000
O O14 0.768980 0.345294 0.250000
#
# Coordination Sequence:
#
# PCOD9469947 Si02
#       5
#    16  16  16  16  16
#     4   9  16  27  45  68  93 120 150 185 225 269
#     4   9  17  29  46  68  93 119 148 185 228 275
#     4   9  18  31  45  62  86 117 154 194 232 268
#     4  11  22  34  48  64  88 119 155 197 236 273
#     4  10  19  31  47  67  89 117 154 190 229 273
#
# _framework density 15.135792
#
# number of rings (size 3 to 8) (size 9 to 14) (size 15 to 20)
#    0.000    2.400    2.000    1.200    0.000    2.800 
#    0.000    0.000    0.000    0.000    0.000    0.000 
#    0.000    0.800    0.000    2.200    0.000    3.200 
#
# Total GULP energy -222984.884251 kJ/mol
# GULP energy per Si atom -5574.622106 kJ/mol
# Density = 1.510134 g / cm^3
# Si number density = 15.135792 Si / 1000 Ang^3
#
#
#
# Elastic Constant Matrix: (Units=GPa)
#
#
# Indices 1 2 3 4 5 6 
#
# 1 101.1241 52.8881 29.0546 0.0000 0.0000 0.0000
# 2 52.8881 78.6640 29.8672 0.0000 0.0000 0.0000
# 3 29.0546 29.8672 21.7766 0.0000 0.0000 0.0000
# 4 0.0000 0.0000 0.0000 20.9121 0.0000 0.0000
# 5 0.0000 0.0000 0.0000 0.0000 16.5261 0.0000
# 6 0.0000 0.0000 0.0000 0.0000 0.0000 16.1579
#
#
#
# Elastic Compliance Matrix: (Units=1/GPa)
#
#
# Indices 1 2 3 4 5 6 
#
# 1 0.017286 -0.005979 -0.014864 0.000000 0.000000 0.000000
# 2 -0.005979 0.028593 -0.031239 0.000000 0.000000 0.000000
# 3 -0.014864 -0.031239 0.108597 0.000000 0.000000 0.000000
# 4 0.000000 0.000000 0.000000 0.047819 0.000000 0.000000
# 5 0.000000 0.000000 0.000000 0.000000 0.060510 0.000000
# 6 0.000000 0.000000 0.000000 0.000000 0.000000 0.061889
#
#
# Mechanical properties :
#
#
# Convention : Reuss Voigt Hill
#
# Bulk Modulus (GPa) = 19.87531 47.24271 33.55901
# Shear Modulus (GPa) = 11.22012 16.70290 13.96151
#
# Velocity S-wave (km/s) = 2.72563 3.32556 3.04043
# Velocity P-wave (km/s) = 4.80263 6.78425 5.87756
#
# Compressibility (1/GPa) = 0.05031367
#
# Stress axis : x y z
#
# Youngs Moduli (GPa) = 57.84946 34.97398 9.20834
#
# Poissons Ratio (x) = 0.20910 0.13687
# Poissons Ratio (y) = 0.34586 0.28766
# Poissons Ratio (z) = 0.85986 1.09255
#
# Static dielectric constant tensor:
#      x y z
#    x 1.538950 0.000000 0.000000 
#    y 0.000000 1.457920 0.000000 
#    z 0.000000 0.000000 1.502230 
# 
# From -- ./inp_files/12004.got.cif
#   From: 2010.05.17/outbox.cif.g08.bks.cpg/sg63_7_cif.got.tgz:12004.got - 2010.06.03 15:47:04.
