data_PCOD9469977
_publ_section_title
;
Structure prediction by ZEFSAII (Michael W. Deem and Ramdas Pophale) SiO2 
 PCOD9469977
Probable space group: C M C M
;
_chemical_formula_sum "Si O2"
_cell_formula_units_Z 104
_cell_length_a 29.375857
_cell_length_b 24.751305
_cell_length_c 8.725148
_cell_angle_alpha 90.000000
_cell_angle_beta 90.000000
_cell_angle_gamma 90.000000
_cell_volume 6343.974807
_symmetry_space_group_name_H-M "C M C M"
_symmetry_group_IT_number 63
_symmetry_cell_setting 'orthorhombic'
loop_
_space_group_symop_operation_xyz
x,y,z
-x,-y,1/2+z
x,-y,-z
-x,y,1/2-z
-x,-y,-z
x,y,1/2-z
-x,y,z
x,-y,1/2+z
1/2+x,1/2+y,z
1/2-x,1/2-y,1/2+z
1/2+x,1/2-y,-z
1/2-x,1/2+y,1/2-z
1/2-x,1/2-y,-z
1/2+x,1/2+y,1/2-z
1/2-x,1/2+y,z
1/2+x,1/2-y,1/2+z
loop_
_atom_site_type_symbol
_atom_site_label
_atom_site_fract_x
_atom_site_fract_y
_atom_site_fract_z
Si Si1 0.590291 0.625916 0.435409
Si Si2 0.374655 0.060680 0.565930
Si Si3 0.000000 0.060090 0.434982
Si Si4 0.946436 0.759609 0.566389
Si Si5 0.325176 0.560918 0.565772
Si Si6 0.774783 0.560431 0.934249
Si Si7 0.947282 0.356814 0.933139
O O1 0.592581 0.624392 0.250000
O O2 0.545453 0.592068 0.482041
O O3 0.582252 0.688106 0.481379
O O4 0.634805 0.598238 0.503268
O O5 0.376785 0.057913 0.750000
O O6 0.324218 0.083125 0.520325
O O7 0.413963 0.099170 0.504467
O O8 0.379055 0.000000 0.500000
O O9 0.000000 0.057931 0.250000
O O10 0.000000 0.000000 0.500000
O O11 0.941989 0.753096 0.750000
O O12 0.934286 0.703482 0.486632
O O13 0.000000 0.770808 0.535516
O O14 0.329954 0.500000 0.500000
O O15 0.327644 0.557888 0.750000
O O16 0.274726 0.582924 0.520482
O O17 0.774763 0.558167 0.750000
O O18 0.774818 0.500000 0.000000
O O19 0.945400 0.360103 0.750000
O O20 0.000000 0.365411 0.981581
#
# Coordination Sequence:
#
# PCOD9469977 Si02
#       7
#    16  16   8  16  16  16  16
#     4  10  19  32  49  69  95 127 165 207 249 294
#     4  10  19  33  54  78 103 132 163 196 238 288
#     4  10  20  32  44  64  96 130 161 200 247 294
#     4   9  17  33  54  71  91 126 169 208 245 289
#     4  10  19  31  47  70  99 129 162 203 249 295
#     4   8  16  30  48  70  96 126 161 199 239 286
#     4  10  21  35  51  75 105 132 160 198 239 286
#
# _framework density 16.393507
#
# number of rings (size 3 to 8) (size 9 to 14) (size 15 to 20)
#    0.000    2.462    0.769    1.846    0.000    4.923 
#    0.000    0.000    0.000    0.923    0.000    0.000 
#    0.000    0.000    0.000    0.000    0.000    0.000 
#
# Total GULP energy -289762.987650 kJ/mol
# GULP energy per Si atom -5572.365147 kJ/mol
# Density = 1.635619 g / cm^3
# Si number density = 16.393507 Si / 1000 Ang^3
#
#
#
# Elastic Constant Matrix: (Units=GPa)
#
#
# Indices 1 2 3 4 5 6 
#
# 1 156.0349 92.0479 41.6776 0.0000 0.0000 0.0000
# 2 92.0479 104.9351 35.7681 0.0000 0.0000 0.0000
# 3 41.6776 35.7681 28.6417 0.0000 0.0000 0.0000
# 4 0.0000 0.0000 0.0000 26.7883 0.0000 0.0000
# 5 0.0000 0.0000 0.0000 0.0000 19.8380 0.0000
# 6 0.0000 0.0000 0.0000 0.0000 0.0000 5.7388
#
#
#
# Elastic Compliance Matrix: (Units=1/GPa)
#
#
# Indices 1 2 3 4 5 6 
#
# 1 0.014527 -0.009642 -0.009098 0.000000 0.000000 0.000000
# 2 -0.009642 0.022992 -0.014683 0.000000 0.000000 0.000000
# 3 -0.009098 -0.014683 0.066489 0.000000 0.000000 0.000000
# 4 0.000000 0.000000 0.000000 0.037330 0.000000 0.000000
# 5 0.000000 0.000000 0.000000 0.000000 0.050408 0.000000
# 6 0.000000 0.000000 0.000000 0.000000 0.000000 0.174253
#
#
# Mechanical properties :
#
#
# Convention : Reuss Voigt Hill
#
# Bulk Modulus (GPa) = 26.90843 69.84433 48.37638
# Shear Modulus (GPa) = 11.23013 18.48089 14.85551
#
# Velocity S-wave (km/s) = 2.62016 3.36122 3.01355
# Velocity P-wave (km/s) = 5.05997 7.60007 6.45618
#
# Compressibility (1/GPa) = 0.03716307
#
# Stress axis : x y z
#
# Youngs Moduli (GPa) = 68.83926 43.49353 15.04010
#
# Poissons Ratio (x) = 0.41934 0.13683
# Poissons Ratio (y) = 0.66371 0.22083
# Poissons Ratio (z) = 0.62629 0.63861
#
# Static dielectric constant tensor:
#      x y z
#    x 1.578810 0.000000 0.000000 
#    y 0.000000 1.512220 0.000000 
#    z 0.000000 0.000000 1.553260 
# 
# From -- ./inp_files/12844.got.cif
#   From: 2010.05.17/outbox.cif.g08.bks.cpg/sg63_7_cif.got.tgz:12844.got - 2010.06.03 15:47:04.
