data_PCOD9469749
_publ_section_title
;
Structure prediction by ZEFSAII (Michael W. Deem and Ramdas Pophale) SiO2 
 PCOD9469749
Probable space group: C M C M
;
_chemical_formula_sum "Si O2"
_cell_formula_units_Z 80
_cell_length_a 25.424428
_cell_length_b 22.801675
_cell_length_c 10.155343
_cell_angle_alpha 90.000000
_cell_angle_beta 90.000000
_cell_angle_gamma 90.000000
_cell_volume 5887.250816
_symmetry_space_group_name_H-M "C M C M"
_symmetry_group_IT_number 63
_symmetry_cell_setting 'orthorhombic'
loop_
_space_group_symop_operation_xyz
x,y,z
-x,-y,1/2+z
x,-y,-z
-x,y,1/2-z
-x,-y,-z
x,y,1/2-z
-x,y,z
x,-y,1/2+z
1/2+x,1/2+y,z
1/2-x,1/2-y,1/2+z
1/2+x,1/2-y,-z
1/2-x,1/2+y,1/2-z
1/2-x,1/2-y,-z
1/2+x,1/2+y,1/2-z
1/2-x,1/2+y,z
1/2+x,1/2-y,1/2+z
loop_
_atom_site_type_symbol
_atom_site_label
_atom_site_fract_x
_atom_site_fract_y
_atom_site_fract_z
Si Si1 0.731281 0.055778 0.090879
Si Si2 0.563757 0.917299 0.250000
Si Si3 0.121901 0.617529 0.014547
Si Si4 0.211781 0.174822 0.101977
Si Si5 0.172562 0.736013 0.099118
Si Si6 0.561984 0.056395 0.250000
O O1 0.724607 0.044434 0.250000
O O2 0.677232 0.083066 0.032337
O O3 0.775053 0.106743 0.078285
O O4 0.743710 0.000000 0.000000
O O5 0.500000 0.908721 0.250000
O O6 0.592821 0.891202 0.377009
O O7 0.574293 0.987286 0.250000
O O8 0.134557 0.685263 0.045207
O O9 0.085486 0.588273 0.124068
O O10 0.190571 0.182172 0.250000
O O11 0.269210 0.206318 0.100238
O O12 0.177000 0.207706 0.994222
O O13 0.159419 0.750291 0.250000
O O14 0.500000 0.061726 0.250000
#
# Coordination Sequence:
#
# PCOD9469749 Si02
#       6
#    16   8  16  16  16   8
#     4  10  19  30  44  65  89 113 143 176 210 251
#     4  11  24  34  44  61  80 108 147 184 227 271
#     4  11  20  32  45  63  80 107 145 187 217 257
#     4   8  16  28  42  61  85 108 133 170 209 245
#     4   9  16  29  44  61  81 103 137 175 211 251
#     4  11  20  34  48  57  80 110 139 182 233 263
#
# _framework density 13.588685
#
# number of rings (size 3 to 8) (size 9 to 14) (size 15 to 20)
#    0.000    2.200    2.000    3.600    2.800    2.400 
#    3.600    0.000    0.000    0.000    0.000    0.000 
#    0.000    0.000    0.000    0.000    0.000    6.000 
#
# Total GULP energy -222829.623313 kJ/mol
# GULP energy per Si atom -5570.740583 kJ/mol
# Density = 1.355776 g / cm^3
# Si number density = 13.588685 Si / 1000 Ang^3
#
#
#
# Elastic Constant Matrix: (Units=GPa)
#
#
# Indices 1 2 3 4 5 6 
#
# 1 38.5186 35.1770 47.7054 0.0000 0.0000 0.0000
# 2 35.1770 92.5596 78.2002 0.0000 0.0000 0.0000
# 3 47.7054 78.2002 157.6498 0.0000 0.0000 0.0000
# 4 0.0000 0.0000 0.0000 28.4149 0.0000 0.0000
# 5 0.0000 0.0000 0.0000 0.0000 -1.4955 0.0000
# 6 0.0000 0.0000 0.0000 0.0000 0.0000 22.1392
#
#
#
# Elastic Compliance Matrix: (Units=1/GPa)
#
#
# Indices 1 2 3 4 5 6 
#
# 1 0.046259 -0.009905 -0.009085 0.000000 0.000000 0.000000
# 2 -0.009905 0.020719 -0.007280 0.000000 0.000000 0.000000
# 3 -0.009085 -0.007280 0.012703 0.000000 0.000000 0.000000
# 4 0.000000 0.000000 0.000000 0.035193 0.000000 0.000000
# 5 0.000000 0.000000 0.000000 0.000000 -0.668657 0.000000
# 6 0.000000 0.000000 0.000000 0.000000 0.000000 0.045169
#
#
# Mechanical properties :
#
#
# Convention : Reuss Voigt Hill
#
# Bulk Modulus (GPa) = 36.84417 67.87704 52.36061
# Shear Modulus (GPa) = -11.18500 18.32139 3.56820
#
# Velocity S-wave (km/s) = -2.87210 3.67588 1.62221
# Velocity P-wave (km/s) = 4.02170 8.25080 6.49037
#
# Compressibility (1/GPa) = 0.02714133
#
# Stress axis : x y z
#
# Youngs Moduli (GPa) = 21.61743 48.26511 78.71891
#
# Poissons Ratio (x) = 0.47807 0.71515
# Poissons Ratio (y) = 0.21412 0.57307
# Poissons Ratio (z) = 0.19639 0.35137
#
# Static dielectric constant tensor:
#      x y z
#    x 1.417670 0.000000 0.000000 
#    y 0.000000 1.444310 0.000000 
#    z 0.000000 0.000000 1.498850 
# 
# From -- ./inp_files/8055.got.cif
#   From: 2010.05.17/outbox.cif.g08.bks.cpg/sg63_5_cif.got.tgz:8055.got - 2010.06.03 15:47:04.
