data_PCOD9469188
_publ_section_title
;
Structure prediction by ZEFSAII (Michael W. Deem and Ramdas Pophale) SiO2 
 PCOD9469188
Probable space group: C M C M
;
_chemical_formula_sum "Si O2"
_cell_formula_units_Z 80
_cell_length_a 12.932118
_cell_length_b 12.339361
_cell_length_c 23.409542
_cell_angle_alpha 90.000000
_cell_angle_beta 90.000000
_cell_angle_gamma 90.000000
_cell_volume 3735.555952
_symmetry_space_group_name_H-M "C M C M"
_symmetry_group_IT_number 63
_symmetry_cell_setting 'orthorhombic'
loop_
_space_group_symop_operation_xyz
x,y,z
-x,-y,1/2+z
x,-y,-z
-x,y,1/2-z
-x,-y,-z
x,y,1/2-z
-x,y,z
x,-y,1/2+z
1/2+x,1/2+y,z
1/2-x,1/2-y,1/2+z
1/2+x,1/2-y,-z
1/2-x,1/2+y,1/2-z
1/2-x,1/2-y,-z
1/2+x,1/2+y,1/2-z
1/2-x,1/2+y,z
1/2+x,1/2-y,1/2+z
loop_
_atom_site_type_symbol
_atom_site_label
_atom_site_fract_x
_atom_site_fract_y
_atom_site_fract_z
Si Si1 0.170091 0.357435 0.186429
Si Si2 0.119088 0.921176 0.136925
Si Si3 0.116464 0.605006 0.316173
Si Si4 0.882591 0.129706 0.509602
Si Si5 0.189786 0.163597 0.110204
O O1 0.146631 0.318135 0.250000
O O2 0.293013 0.382685 0.180139
O O3 0.118974 0.474501 0.177967
O O4 0.140493 0.267604 0.140463
O O5 0.000000 0.900687 0.152155
O O6 0.132912 0.050498 0.126403
O O7 0.144311 0.862820 0.076240
O O8 0.146462 0.628397 0.250000
O O9 0.197959 0.649859 0.361081
O O10 0.000000 0.643945 0.325470
O O11 0.813447 0.173788 0.458138
O O12 0.000000 0.170893 0.501730
O O13 0.885010 0.000000 0.500000
#
# Coordination Sequence:
#
# PCOD9469188 Si02
#       5
#    16  16  16  16  16
#     4  10  21  34  50  76 105 133 171 215 255 298
#     4   9  19  36  56  78 106 137 168 207 257 309
#     4   9  19  35  50  67 100 141 173 207 256 308
#     4   8  15  30  53  79 104 131 165 208 258 306
#     4  10  18  31  55  78 101 132 172 214 254 300
#
# _framework density 21.415821999999999
#
# number of rings (size 3 to 8) (size 9 to 14) (size 15 to 20)
#    0.000    2.800    0.000    2.400    0.000    4.400 
#    0.000    0.000    0.000   20.400    0.000    0.000 
#    0.000    0.000    0.000    0.000    0.000    0.000 
#
# Total GULP energy -223312.868477 kJ/mol
# GULP energy per Si atom -5582.821712 kJ/mol
# Density = 2.136708 g / cm^3
# Si number density = 21.415822 Si / 1000 Ang^3
#
#
#
# Elastic Constant Matrix: (Units=GPa)
#
#
# Indices 1 2 3 4 5 6 
#
# 1 92.3762 5.0703 37.1952 0.0000 0.0000 0.0000
# 2 5.0703 81.4556 20.8211 0.0000 0.0000 0.0000
# 3 37.1952 20.8211 88.8173 0.0000 0.0000 0.0000
# 4 0.0000 0.0000 0.0000 31.1422 0.0000 0.0000
# 5 0.0000 0.0000 0.0000 0.0000 21.2152 0.0000
# 6 0.0000 0.0000 0.0000 0.0000 0.0000 -11.8788
#
#
#
# Elastic Compliance Matrix: (Units=1/GPa)
#
#
# Indices 1 2 3 4 5 6 
#
# 1 0.013050 0.000622 -0.005611 0.000000 0.000000 0.000000
# 2 0.000622 0.013089 -0.003329 0.000000 0.000000 0.000000
# 3 -0.005611 -0.003329 0.014389 0.000000 0.000000 0.000000
# 4 0.000000 0.000000 0.000000 0.032111 0.000000 0.000000
# 5 0.000000 0.000000 0.000000 0.000000 0.047136 0.000000
# 6 0.000000 0.000000 0.000000 0.000000 0.000000 -0.084184
#
#
# Mechanical properties :
#
#
# Convention : Reuss Voigt Hill
#
# Bulk Modulus (GPa) = 41.85405 43.20248 42.52826
# Shear Modulus (GPa) = 83.06799 21.39991 52.23395
#
# Velocity S-wave (km/s) = 6.23477 3.16453 4.94402
# Velocity P-wave (km/s) = 8.45078 5.79390 7.24517
#
# Compressibility (1/GPa) = 0.02389255
#
# Stress axis : x y z
#
# Youngs Moduli (GPa) = 76.62557 76.40124 69.49628
#
# Poissons Ratio (x) = -0.04752 0.38995
# Poissons Ratio (y) = -0.04766 0.23134
# Poissons Ratio (z) = 0.42995 0.25432
#
# Static dielectric constant tensor:
#      x y z
#    x 1.793450 0.000000 0.000000 
#    y 0.000000 1.805880 0.000000 
#    z 0.000000 0.000000 1.749180 
# 
# From -- ./inp_files/54003.got.cif
#   From: 2010.05.17/outbox.cif.g08.bks.cpg/sg63_28_cif.got.tgz:54003.got - 2010.06.03 15:47:04.
