data_PCOD9469145
_publ_section_title
;
Structure prediction by ZEFSAII (Michael W. Deem and Ramdas Pophale) SiO2 
 PCOD9469145
Probable space group: C M C M
;
_chemical_formula_sum "Si O2"
_cell_formula_units_Z 104
_cell_length_a 17.820348
_cell_length_b 13.442212
_cell_length_c 20.270108
_cell_angle_alpha 90.000000
_cell_angle_beta 90.000000
_cell_angle_gamma 90.000000
_cell_volume 4855.600907
_symmetry_space_group_name_H-M "C M C M"
_symmetry_group_IT_number 63
_symmetry_cell_setting 'orthorhombic'
loop_
_space_group_symop_operation_xyz
x,y,z
-x,-y,1/2+z
x,-y,-z
-x,y,1/2-z
-x,-y,-z
x,y,1/2-z
-x,y,z
x,-y,1/2+z
1/2+x,1/2+y,z
1/2-x,1/2-y,1/2+z
1/2+x,1/2-y,-z
1/2-x,1/2+y,1/2-z
1/2-x,1/2-y,-z
1/2+x,1/2+y,1/2-z
1/2-x,1/2+y,z
1/2+x,1/2-y,1/2+z
loop_
_atom_site_type_symbol
_atom_site_label
_atom_site_fract_x
_atom_site_fract_y
_atom_site_fract_z
Si Si1 0.859313 0.500000 0.000000
Si Si2 0.350842 0.317232 0.597576
Si Si3 0.000000 0.406058 0.174940
Si Si4 0.500000 0.665072 0.173738
Si Si5 0.086127 0.703549 0.322609
Si Si6 0.086213 0.721910 0.030693
Si Si7 0.263285 0.923030 0.819898
Si Si8 0.333943 0.095171 0.870045
O O1 0.901440 0.601325 0.025312
O O2 0.814112 0.451546 0.059562
O O3 0.425877 0.359763 0.631817
O O4 0.364893 0.282961 0.522328
O O5 0.283620 0.388211 0.617579
O O6 0.330399 0.212557 0.632531
O O7 0.000000 0.285792 0.176879
O O8 0.077924 0.432288 0.140183
O O9 0.000000 0.443380 0.250000
O O10 0.500000 0.629449 0.250000
O O11 0.090207 0.754759 0.250000
O O12 0.096792 0.755917 0.393567
O O13 0.154032 0.625626 0.321978
O O14 0.000000 0.663043 0.326477
O O15 0.000000 0.738713 0.010927
O O16 0.226995 0.893057 0.750000
O O17 0.279596 0.039672 0.820982
#
# Coordination Sequence:
#
# PCOD9469145 Si02
#       8
#     8  16   8   8  16  16  16  16
#     4  10  19  28  48  76 108 143 178 218 275 332
#     4  10  21  35  54  82 113 148 190 228 277 330
#     4   9  18  29  49  75 104 140 171 208 271 337
#     4   9  16  32  51  75 111 146 177 221 270 329
#     4   9  19  34  51  76 109 146 185 228 275 333
#     4  10  18  31  52  77 113 147 183 225 275 334
#     4  11  22  35  53  80 113 151 186 228 280 331
#     4  10  21  34  50  79 111 143 180 225 274 331
#
# _framework density 21.418565000000001
#
# number of rings (size 3 to 8) (size 9 to 14) (size 15 to 20)
#    0.000    2.154    2.308    1.154    5.385    2.462 
#    0.000    0.000    0.000    0.000    2.000    0.000 
#    0.000    3.077    0.000    0.000    0.000    0.000 
#
# Total GULP energy -289612.738508 kJ/mol
# GULP energy per Si atom -5569.475741 kJ/mol
# Density = 2.136981 g / cm^3
# Si number density = 21.418565 Si / 1000 Ang^3
#
#
#
# Elastic Constant Matrix: (Units=GPa)
#
#
# Indices 1 2 3 4 5 6 
#
# 1 60.5551 25.3968 27.3052 0.0000 0.0000 0.0000
# 2 25.3968 23.5851 18.6543 0.0000 0.0000 0.0000
# 3 27.3052 18.6543 132.6241 0.0000 0.0000 0.0000
# 4 0.0000 0.0000 0.0000 10.2115 0.0000 0.0000
# 5 0.0000 0.0000 0.0000 0.0000 22.2013 0.0000
# 6 0.0000 0.0000 0.0000 0.0000 0.0000 10.7932
#
#
#
# Elastic Compliance Matrix: (Units=1/GPa)
#
#
# Indices 1 2 3 4 5 6 
#
# 1 0.030520 -0.031386 -0.001869 0.000000 0.000000 0.000000
# 2 -0.031386 0.079984 -0.004788 0.000000 0.000000 0.000000
# 3 -0.001869 -0.004788 0.008598 0.000000 0.000000 0.000000
# 4 0.000000 0.000000 0.000000 0.097929 0.000000 0.000000
# 5 0.000000 0.000000 0.000000 0.000000 0.045042 0.000000
# 6 0.000000 0.000000 0.000000 0.000000 0.000000 0.092651
#
#
# Mechanical properties :
#
#
# Convention : Reuss Voigt Hill
#
# Bulk Modulus (GPa) = 23.24738 39.94189 31.59463
# Shear Modulus (GPa) = 11.23216 18.33506 14.78361
#
# Velocity S-wave (km/s) = 2.29249 2.92898 2.63006
# Velocity P-wave (km/s) = 4.22904 5.48884 4.89960
#
# Compressibility (1/GPa) = 0.04301560
#
# Stress axis : x y z
#
# Youngs Moduli (GPa) = 32.76537 12.50247 116.30079
#
# Poissons Ratio (x) = 0.39241 0.21736
# Poissons Ratio (y) = 1.02838 0.55688
# Poissons Ratio (z) = 0.06124 0.05987
#
# Static dielectric constant tensor:
#      x y z
#    x 1.805180 0.000000 0.000000 
#    y 0.000000 1.759810 0.000000 
#    z 0.000000 0.000000 1.900550 
# 
# From -- ./inp_files/55651.got.cif
#   From: 2010.05.17/outbox.cif.g08.bks.cpg/sg63_28_cif.got.tgz:55651.got - 2010.06.03 15:47:04.
