data_PCOD9469897
_publ_section_title
;
Structure prediction by ZEFSAII (Michael W. Deem and Ramdas Pophale) SiO2 
 PCOD9469897
Probable space group: C M C M
;
_chemical_formula_sum "Si O2"
_cell_formula_units_Z 88
_cell_length_a 20.870690
_cell_length_b 8.283416
_cell_length_c 29.795222
_cell_angle_alpha 90.000000
_cell_angle_beta 90.000000
_cell_angle_gamma 90.000000
_cell_volume 5151.016079
_symmetry_space_group_name_H-M "C M C M"
_symmetry_group_IT_number 63
_symmetry_cell_setting 'orthorhombic'
loop_
_space_group_symop_operation_xyz
x,y,z
-x,-y,1/2+z
x,-y,-z
-x,y,1/2-z
-x,-y,-z
x,y,1/2-z
-x,y,z
x,-y,1/2+z
1/2+x,1/2+y,z
1/2-x,1/2-y,1/2+z
1/2+x,1/2-y,-z
1/2-x,1/2+y,1/2-z
1/2-x,1/2-y,-z
1/2+x,1/2+y,1/2-z
1/2-x,1/2+y,z
1/2+x,1/2-y,1/2+z
loop_
_atom_site_type_symbol
_atom_site_label
_atom_site_fract_x
_atom_site_fract_y
_atom_site_fract_z
Si Si1 0.177568 0.525869 0.400402
Si Si2 0.220842 0.182358 0.845229
Si Si3 0.924144 0.267160 0.122067
Si Si4 0.147042 0.500000 0.000000
Si Si5 0.923342 0.165357 0.476355
Si Si6 0.664244 0.378768 0.802153
O O1 0.180821 0.697561 0.376394
O O2 0.234319 0.422797 0.378037
O O3 0.111345 0.435476 0.388722
O O4 0.185301 0.525742 0.453870
O O5 0.270190 0.282788 0.814259
O O6 0.178298 0.062948 0.815803
O O7 0.911244 0.161086 0.077251
O O8 0.000000 0.284789 0.127356
O O9 0.890237 0.191203 0.165244
O O10 0.106804 0.666355 0.993767
O O11 0.000000 0.175802 0.483017
O O12 0.900540 0.000000 0.500000
O O13 0.649149 0.361045 0.750000
#
# Coordination Sequence:
#
# PCOD9469897 Si02
#       6
#    16  16  16   8  16  16
#     4   9  19  34  52  76 105 144 175 220 266 314
#     4   9  19  35  52  75 106 132 179 220 260 314
#     4   9  19  35  52  77 107 134 172 218 266 317
#     4  10  19  30  50  78 108 144 181 222 272 324
#     4   9  18  32  50  74 105 145 187 219 255 316
#     4  10  19  33  56  77  99 134 172 217 266 315
#
# _framework density 17.084008999999998
#
# number of rings (size 3 to 8) (size 9 to 14) (size 15 to 20)
#    0.000    2.727    0.000    0.818    2.545    1.818 
#    0.000    1.818    0.000    0.000    0.000    0.000 
#    0.000    0.000    0.000    0.000    0.000    0.000 
#
# Total GULP energy -245234.403587 kJ/mol
# GULP energy per Si atom -5573.509172 kJ/mol
# Density = 1.704513 g / cm^3
# Si number density = 17.084009 Si / 1000 Ang^3
#
#
#
# Elastic Constant Matrix: (Units=GPa)
#
#
# Indices 1 2 3 4 5 6 
#
# 1 44.2874 12.7683 35.9252 0.0000 0.0000 0.0000
# 2 12.7683 84.5219 48.9535 0.0000 0.0000 0.0000
# 3 35.9252 48.9535 142.8097 0.0000 0.0000 0.0000
# 4 0.0000 0.0000 0.0000 21.9760 0.0000 0.0000
# 5 0.0000 0.0000 0.0000 0.0000 15.6342 0.0000
# 6 0.0000 0.0000 0.0000 0.0000 0.0000 2.3222
#
#
#
# Elastic Compliance Matrix: (Units=1/GPa)
#
#
# Indices 1 2 3 4 5 6 
#
# 1 0.028371 -0.000190 -0.007072 0.000000 0.000000 0.000000
# 2 -0.000190 0.014763 -0.005013 0.000000 0.000000 0.000000
# 3 -0.007072 -0.005013 0.010500 0.000000 0.000000 0.000000
# 4 0.000000 0.000000 0.000000 0.045504 0.000000 0.000000
# 5 0.000000 0.000000 0.000000 0.000000 0.063962 0.000000
# 6 0.000000 0.000000 0.000000 0.000000 0.000000 0.430617
#
#
# Mechanical properties :
#
#
# Convention : Reuss Voigt Hill
#
# Bulk Modulus (GPa) = 34.38241 51.87922 43.13082
# Shear Modulus (GPa) = 7.96226 19.58463 13.77345
#
# Velocity S-wave (km/s) = 2.16120 3.38948 2.84248
# Velocity P-wave (km/s) = 5.13779 6.76396 6.00617
#
# Compressibility (1/GPa) = 0.02908464
#
# Stress axis : x y z
#
# Youngs Moduli (GPa) = 35.24700 67.73540 95.24069
#
# Poissons Ratio (x) = 0.01287 0.67354
# Poissons Ratio (y) = 0.00669 0.47743
# Poissons Ratio (z) = 0.24926 0.33955
#
# Static dielectric constant tensor:
#      x y z
#    x 1.561450 0.000000 0.000000 
#    y 0.000000 1.588940 0.000000 
#    z 0.000000 0.000000 1.571830 
# 
# From -- ./inp_files/70325.got.cif
#   From: 2010.05.17/outbox.cif.g08.bks.cpg/sg63_36_cif.got.tgz:70325.got - 2010.06.03 15:47:04.
