data_PCOD9469991
_publ_section_title
;
Structure prediction by ZEFSAII (Michael W. Deem and Ramdas Pophale) SiO2 
 PCOD9469991
Probable space group: C M C M
;
_chemical_formula_sum "Si O2"
_cell_formula_units_Z 72
_cell_length_a 14.194278
_cell_length_b 16.844950
_cell_length_c 13.357862
_cell_angle_alpha 90.000000
_cell_angle_beta 90.000000
_cell_angle_gamma 90.000000
_cell_volume 3193.890227
_symmetry_space_group_name_H-M "C M C M"
_symmetry_group_IT_number 63
_symmetry_cell_setting 'orthorhombic'
loop_
_space_group_symop_operation_xyz
x,y,z
-x,-y,1/2+z
x,-y,-z
-x,y,1/2-z
-x,-y,-z
x,y,1/2-z
-x,y,z
x,-y,1/2+z
1/2+x,1/2+y,z
1/2-x,1/2-y,1/2+z
1/2+x,1/2-y,-z
1/2-x,1/2+y,1/2-z
1/2-x,1/2-y,-z
1/2+x,1/2+y,1/2-z
1/2-x,1/2+y,z
1/2+x,1/2-y,1/2+z
loop_
_atom_site_type_symbol
_atom_site_label
_atom_site_fract_x
_atom_site_fract_y
_atom_site_fract_z
Si Si1 0.893427 0.416169 0.025102
Si Si2 0.110547 0.918769 0.941002
Si Si3 0.244454 0.907294 0.750000
Si Si4 0.159129 0.426137 0.250000
Si Si5 0.780995 0.738392 0.750000
Si Si6 0.387335 0.750107 0.459964
O O1 0.894191 0.412282 0.145690
O O2 0.851647 0.331782 0.989488
O O3 0.000000 0.420727 0.984220
O O4 0.845427 0.500000 0.000000
O O5 0.177943 0.918408 0.846156
O O6 0.130334 0.837454 0.003526
O O7 0.000000 0.913529 0.910561
O O8 0.122293 0.000000 0.000000
O O9 0.284868 0.816848 0.750000
O O10 0.313639 0.981718 0.750000
O O11 0.240426 0.356490 0.250000
O O12 0.843752 0.750607 0.650735
O O13 0.500000 0.759780 0.453786
#
# Coordination Sequence:
#
# PCOD9469991 Si02
#       6
#    16  16   8   8   8  16
#     4   9  17  30  49  71  93 118 150 188 228 269
#     4   9  17  30  49  71  93 118 150 188 228 269
#     4  10  19  31  48  69  94 121 151 188 228 270
#     4  10  19  31  48  69  94 121 151 188 228 270
#     4   8  15  28  44  64  87 116 154 190 224 258
#     4   8  13  24  45  69  89 111 146 191 229 260
#
# _framework density 22.543042
#
# number of rings (size 3 to 8) (size 9 to 14) (size 15 to 20)
#    0.000    3.111    0.000    1.000    0.000    6.222 
#    0.000    2.222    0.000    8.000    0.000    9.333 
#    0.000    0.000    0.000    0.000    0.000    0.000 
#
# Total GULP energy -200413.333358 kJ/mol
# GULP energy per Si atom -5567.037038 kJ/mol
# Density = 2.249173 g / cm^3
# Si number density = 22.543042 Si / 1000 Ang^3
#
#
#
# Elastic Constant Matrix: (Units=GPa)
#
#
# Indices 1 2 3 4 5 6 
#
# 1 53.3201 -0.7935 -9.5069 0.0000 0.0000 0.0000
# 2 -0.7935 258.6424 7.8996 0.0000 0.0000 0.0000
# 3 -9.5069 7.8996 38.3849 0.0000 0.0000 0.0000
# 4 0.0000 0.0000 0.0000 26.3080 0.0000 0.0000
# 5 0.0000 0.0000 0.0000 0.0000 33.5126 0.0000
# 6 0.0000 0.0000 0.0000 0.0000 0.0000 10.1368
#
#
#
# Elastic Compliance Matrix: (Units=1/GPa)
#
#
# Indices 1 2 3 4 5 6 
#
# 1 0.019623 -0.000089 0.004878 0.000000 0.000000 0.000000
# 2 -0.000089 0.003891 -0.000823 0.000000 0.000000 0.000000
# 3 0.004878 -0.000823 0.027429 0.000000 0.000000 0.000000
# 4 0.000000 0.000000 0.000000 0.038011 0.000000 0.000000
# 5 0.000000 0.000000 0.000000 0.000000 0.029839 0.000000
# 6 0.000000 0.000000 0.000000 0.000000 0.000000 0.098651
#
#
# Mechanical properties :
#
#
# Convention : Reuss Voigt Hill
#
# Bulk Modulus (GPa) = 16.98446 38.39399 27.68922
# Shear Modulus (GPa) = 21.82097 37.50804 29.66450
#
# Velocity S-wave (km/s) = 3.11460 4.08345 3.63148
# Velocity P-wave (km/s) = 4.52602 6.26906 5.46745
#
# Compressibility (1/GPa) = 0.05887735
#
# Stress axis : x y z
#
# Youngs Moduli (GPa) = 50.96028 256.99012 36.45716
#
# Poissons Ratio (x) = 0.02282 -0.17785
# Poissons Ratio (y) = 0.00452 0.03000
# Poissons Ratio (z) = -0.24860 0.21145
#
# Static dielectric constant tensor:
#      x y z
#    x 1.802060 0.000000 0.000000 
#    y 0.000000 1.997460 0.000000 
#    z 0.000000 0.000000 1.804630 
# 
# From -- ./inp_files/33696.got.cif
#   From: 2010.05.17/outbox.cif.g08.bks.cpg/sg63_17_cif.got.tgz:33696.got - 2010.06.03 15:47:04.
