data_PCOD9469476
_publ_section_title
;
Structure prediction by ZEFSAII (Michael W. Deem and Ramdas Pophale) SiO2 
 PCOD9469476
Probable space group: C M C M
;
_chemical_formula_sum "Si O2"
_cell_formula_units_Z 72
_cell_length_a 31.746909
_cell_length_b 12.202360
_cell_length_c 9.224880
_cell_angle_alpha 90.000000
_cell_angle_beta 90.000000
_cell_angle_gamma 90.000000
_cell_volume 3573.600549
_symmetry_space_group_name_H-M "C M C M"
_symmetry_group_IT_number 63
_symmetry_cell_setting 'orthorhombic'
loop_
_space_group_symop_operation_xyz
x,y,z
-x,-y,1/2+z
x,-y,-z
-x,y,1/2-z
-x,-y,-z
x,y,1/2-z
-x,y,z
x,-y,1/2+z
1/2+x,1/2+y,z
1/2-x,1/2-y,1/2+z
1/2+x,1/2-y,-z
1/2-x,1/2+y,1/2-z
1/2-x,1/2-y,-z
1/2+x,1/2+y,1/2-z
1/2-x,1/2+y,z
1/2+x,1/2-y,1/2+z
loop_
_atom_site_type_symbol
_atom_site_label
_atom_site_fract_x
_atom_site_fract_y
_atom_site_fract_z
Si Si1 0.602635 0.817784 0.509278
Si Si2 0.151989 0.816175 0.250000
Si Si3 0.344499 0.192855 0.750000
Si Si4 0.750019 0.348273 0.250000
Si Si5 0.547402 0.210618 0.750000
Si Si6 0.775132 0.000000 0.500000
Si Si7 0.049727 0.555193 0.250000
Si Si8 0.166482 0.929601 0.750000
O O1 0.629387 0.737837 0.612299
O O2 0.636603 0.864608 0.392672
O O3 0.569543 0.759991 0.401201
O O4 0.575473 0.897932 0.611839
O O5 0.203016 0.795279 0.250000
O O6 0.146872 0.948122 0.250000
O O7 0.294589 0.209410 0.750000
O O8 0.359928 0.319712 0.750000
O O9 0.750420 0.422869 0.106409
O O10 0.500000 0.248401 0.750000
O O11 0.549182 0.076515 0.750000
O O12 0.804788 0.930473 0.606183
O O13 0.000000 0.589529 0.250000
#
# Coordination Sequence:
#
# PCOD9469476 Si02
#       8
#    16   8   8   8   8   8   8   8
#     4  10  21  35  53  90 115 141 193 239 280 327
#     4   9  20  37  58  80 112 150 196 251 283 331
#     4  11  22  35  54  84 116 151 197 246 284 331
#     4  10  20  38  54  78 113 160 196 233 298 344
#     4  10  20  37  62  88 118 153 185 224 286 370
#     4   8  18  34  54  76 100 146 206 238 280 344
#     4  10  20  39  64  84 115 158 187 221 283 366
#     4  10  18  34  58  78 103 148 203 243 269 334
#
# _framework density 20.147746000000001
#
# number of rings (size 3 to 8) (size 9 to 14) (size 15 to 20)
#    0.000    2.444    0.000    4.000    0.000    5.333 
#    8.000    2.222    0.000    0.000    0.000   54.444 
#    0.000    0.000    0.000    0.000    0.000    0.000 
#
# Total GULP energy -200574.748087 kJ/mol
# GULP energy per Si atom -5571.520780 kJ/mol
# Density = 2.010189 g / cm^3
# Si number density = 20.147746 Si / 1000 Ang^3
#
#
#
# Elastic Constant Matrix: (Units=GPa)
#
#
# Indices 1 2 3 4 5 6 
#
# 1 144.8123 37.8582 59.3593 0.0000 0.0000 0.0000
# 2 37.8582 46.1042 32.4323 0.0000 0.0000 0.0000
# 3 59.3593 32.4323 168.6576 0.0000 0.0000 0.0000
# 4 0.0000 0.0000 0.0000 -9.7286 0.0000 0.0000
# 5 0.0000 0.0000 0.0000 0.0000 64.7413 0.0000
# 6 0.0000 0.0000 0.0000 0.0000 0.0000 19.4139
#
#
#
# Elastic Compliance Matrix: (Units=1/GPa)
#
#
# Indices 1 2 3 4 5 6 
#
# 1 0.009400 -0.006235 -0.002109 0.000000 0.000000 0.000000
# 2 -0.006235 0.029219 -0.003424 0.000000 0.000000 0.000000
# 3 -0.002109 -0.003424 0.007330 0.000000 0.000000 0.000000
# 4 0.000000 0.000000 0.000000 -0.102790 0.000000 0.000000
# 5 0.000000 0.000000 0.000000 0.000000 0.015446 0.000000
# 6 0.000000 0.000000 0.000000 0.000000 0.000000 0.051509
#
#
# Mechanical properties :
#
#
# Convention : Reuss Voigt Hill
#
# Bulk Modulus (GPa) = 44.61989 68.76375 56.69182
# Shear Modulus (GPa) = 121.58951 30.21361 75.90156
#
# Velocity S-wave (km/s) = 7.77689 3.87667 6.14445
# Velocity P-wave (km/s) = 10.14073 7.36491 8.86218
#
# Compressibility (1/GPa) = 0.02241153
#
# Stress axis : x y z
#
# Youngs Moduli (GPa) = 106.38104 34.22474 136.42457
#
# Poissons Ratio (x) = 0.21339 0.28778
# Poissons Ratio (y) = 0.66329 0.46715
# Poissons Ratio (z) = 0.22440 0.11719
#
# Static dielectric constant tensor:
#      x y z
#    x 1.738410 0.000000 0.000000 
#    y 0.000000 1.722610 0.000000 
#    z 0.000000 0.000000 1.794300 
# 
# From -- ./inp_files/13976.got.cif
#   From: 2010.05.17/outbox.cif.g08.bks.cpg/sg63_7_cif.got.tgz:13976.got - 2010.06.03 15:47:04.
