data_PCOD9469170
_publ_section_title
;
Structure prediction by ZEFSAII (Michael W. Deem and Ramdas Pophale) SiO2 
 PCOD9469170
Probable space group: C M C M
;
_chemical_formula_sum "Si O2"
_cell_formula_units_Z 64
_cell_length_a 8.662606
_cell_length_b 18.318259
_cell_length_c 21.477571
_cell_angle_alpha 90.000000
_cell_angle_beta 90.000000
_cell_angle_gamma 90.000000
_cell_volume 3408.143877
_symmetry_space_group_name_H-M "C M C M"
_symmetry_group_IT_number 63
_symmetry_cell_setting 'orthorhombic'
loop_
_space_group_symop_operation_xyz
x,y,z
-x,-y,1/2+z
x,-y,-z
-x,y,1/2-z
-x,-y,-z
x,y,1/2-z
-x,y,z
x,-y,1/2+z
1/2+x,1/2+y,z
1/2-x,1/2-y,1/2+z
1/2+x,1/2-y,-z
1/2-x,1/2+y,1/2-z
1/2-x,1/2-y,-z
1/2+x,1/2+y,1/2-z
1/2-x,1/2+y,z
1/2+x,1/2-y,1/2+z
loop_
_atom_site_type_symbol
_atom_site_label
_atom_site_fract_x
_atom_site_fract_y
_atom_site_fract_z
Si Si1 0.684462 0.832893 0.500227
Si Si2 0.184058 0.925781 0.250000
Si Si3 0.317439 0.085342 0.250000
Si Si4 0.815527 0.830016 0.128074
Si Si5 0.684281 0.666038 0.370167
O O1 0.500000 0.831672 0.500181
O O2 0.750000 0.750000 0.500000
O O3 0.747804 0.864347 0.435421
O O4 0.747163 0.864681 0.564913
O O5 0.216788 0.878389 0.311489
O O6 0.000000 0.942579 0.250000
O O7 0.278473 0.000021 0.250000
O O8 0.500000 0.098536 0.250000
O O9 0.243760 0.121537 0.311184
O O10 0.742786 0.749629 0.136242
O O11 0.000000 0.821682 0.121432
O O12 0.500000 0.665644 0.373409
#
# Coordination Sequence:
#
# PCOD9469170 Si02
#       5
#    16   8   8  16  16
#     4  10  18  31  53  83 115 144 181 227 276 325
#     4  10  23  40  57  79 111 149 185 226 275 328
#     4  12  25  40  57  79 111 147 185 230 277 328
#     4  10  19  35  59  86 115 146 184 228 276 327
#     4  11  21  36  59  85 113 145 185 228 274 328
#
# _framework density 18.778549000000002
#
# number of rings (size 3 to 8) (size 9 to 14) (size 15 to 20)
#    0.000    1.500    0.000   10.125    0.000    3.000 
#    0.000    1.250    0.000    7.500    0.000    0.000 
#    0.000    0.000    0.000    0.000    0.000    0.000 
#
# Total GULP energy -178771.660762 kJ/mol
# GULP energy per Si atom -5586.614399 kJ/mol
# Density = 1.873581 g / cm^3
# Si number density = 18.778549 Si / 1000 Ang^3
#
#
#
# Elastic Constant Matrix: (Units=GPa)
#
#
# Indices 1 2 3 4 5 6 
#
# 1 176.1851 47.8323 101.5628 0.0000 0.0000 0.0000
# 2 47.8323 45.0358 50.1190 0.0000 0.0000 0.0000
# 3 101.5628 50.1190 211.0415 0.0000 0.0000 0.0000
# 4 0.0000 0.0000 0.0000 -10.7478 0.0000 0.0000
# 5 0.0000 0.0000 0.0000 0.0000 39.5209 0.0000
# 6 0.0000 0.0000 0.0000 0.0000 0.0000 26.0811
#
#
#
# Elastic Compliance Matrix: (Units=1/GPa)
#
#
# Indices 1 2 3 4 5 6 
#
# 1 0.009063 -0.006486 -0.002821 0.000000 0.000000 0.000000
# 2 -0.006486 0.034823 -0.005148 0.000000 0.000000 0.000000
# 3 -0.002821 -0.005148 0.007319 0.000000 0.000000 0.000000
# 4 0.000000 0.000000 0.000000 -0.093043 0.000000 0.000000
# 5 0.000000 0.000000 0.000000 0.000000 0.025303 0.000000
# 6 0.000000 0.000000 0.000000 0.000000 0.000000 0.038342
#
#
# Mechanical properties :
#
#
# Convention : Reuss Voigt Hill
#
# Bulk Modulus (GPa) = 44.85670 92.36563 68.61117
# Shear Modulus (GPa) = 85.98417 26.48739 56.23578
#
# Velocity S-wave (km/s) = 6.77406 3.75975 5.47831
# Velocity P-wave (km/s) = 9.22621 8.25477 8.75398
#
# Compressibility (1/GPa) = 0.02229321
#
# Stress axis : x y z
#
# Youngs Moduli (GPa) = 110.33775 28.71652 136.63504
#
# Poissons Ratio (x) = 0.18626 0.38547
# Poissons Ratio (y) = 0.71568 0.70346
# Poissons Ratio (z) = 0.31128 0.14785
#
# Static dielectric constant tensor:
#      x y z
#    x 1.627900 0.000000 0.000000 
#    y 0.000000 1.618970 0.000000 
#    z 0.000000 0.000000 1.691060 
# 
# From -- ./inp_files/50358.got.cif
#   From: 2010.05.17/outbox.cif.g08.bks.cpg/sg63_26_cif.got.tgz:50358.got - 2010.06.03 15:47:04.
