data_PCOD9469697
_publ_section_title
;
Structure prediction by ZEFSAII (Michael W. Deem and Ramdas Pophale) SiO2 
 PCOD9469697
Probable space group: C M C M
;
_chemical_formula_sum "Si O2"
_cell_formula_units_Z 128
_cell_length_a 29.554105
_cell_length_b 28.912664
_cell_length_c 7.564262
_cell_angle_alpha 90.000000
_cell_angle_beta 90.000000
_cell_angle_gamma 90.000000
_cell_volume 6463.570410
_symmetry_space_group_name_H-M "C M C M"
_symmetry_group_IT_number 63
_symmetry_cell_setting 'orthorhombic'
loop_
_space_group_symop_operation_xyz
x,y,z
-x,-y,1/2+z
x,-y,-z
-x,y,1/2-z
-x,-y,-z
x,y,1/2-z
-x,y,z
x,-y,1/2+z
1/2+x,1/2+y,z
1/2-x,1/2-y,1/2+z
1/2+x,1/2-y,-z
1/2-x,1/2+y,1/2-z
1/2-x,1/2-y,-z
1/2+x,1/2+y,1/2-z
1/2-x,1/2+y,z
1/2+x,1/2-y,1/2+z
loop_
_atom_site_type_symbol
_atom_site_label
_atom_site_fract_x
_atom_site_fract_y
_atom_site_fract_z
Si Si1 0.787865 0.115224 0.037050
Si Si2 0.050637 0.673909 0.034124
Si Si3 0.948799 0.950030 0.461978
Si Si4 0.272353 0.799290 0.961456
Si Si5 0.948879 0.780605 0.034742
Si Si6 0.353632 0.860649 0.966270
Si Si7 0.108696 0.134832 0.539428
Si Si8 0.791848 0.553616 0.038386
O O1 0.786796 0.114744 0.250000
O O2 0.761270 0.160708 0.974347
O O3 0.757663 0.071612 0.975896
O O4 0.839520 0.121544 0.987026
O O5 0.050481 0.673241 0.250000
O O6 0.056957 0.727507 0.979112
O O7 0.094632 0.645536 0.975363
O O8 0.000000 0.659084 0.978205
O O9 0.951063 0.945717 0.250000
O O10 0.921230 0.907023 0.533114
O O11 0.000000 0.949984 0.531695
O O12 0.927856 0.000000 0.500000
O O13 0.274338 0.801885 0.750000
O O14 0.322139 0.816690 0.021008
O O15 0.250000 0.750000 0.000000
O O16 0.947817 0.779564 0.250000
O O17 0.910663 0.816273 0.971907
O O18 0.000000 0.795994 0.985749
O O19 0.354167 0.861029 0.750000
O O20 0.328493 0.907996 0.023626
O O21 0.101621 0.136765 0.750000
O O22 0.791883 0.557621 0.250000
O O23 0.800616 0.500000 0.000000
#
# Coordination Sequence:
#
# PCOD9469697 Si02
#       8
#    16  16  16  16  16  16  16  16
#     4   9  20  35  45  63  95 125 150 185 235 279
#     4   8  13  22  40  68  98 124 151 184 224 273
#     4   9  18  32  47  63  85 113 149 194 242 288
#     4   9  18  31  47  66  93 126 156 188 226 268
#     4   8  14  24  39  64  95 121 149 190 235 270
#     4   8  15  28  45  67  96 126 153 185 233 279
#     4  10  19  29  46  69  90 116 154 197 236 272
#     4   9  18  34  53  69  90 122 156 192 232 276
#
# _framework density 19.803296
#
# number of rings (size 3 to 8) (size 9 to 14) (size 15 to 20)
#    0.000    3.250    0.000    2.625    1.750    3.500 
#    0.000    4.375    0.000    1.500    0.000    0.000 
#    0.000    1.500    0.000    0.000    0.000    0.000 
#
# Total GULP energy -356509.133608 kJ/mol
# GULP energy per Si atom -5570.455213 kJ/mol
# Density = 1.975822 g / cm^3
# Si number density = 19.803296 Si / 1000 Ang^3
#
#
#
# Elastic Constant Matrix: (Units=GPa)
#
#
# Indices 1 2 3 4 5 6 
#
# 1 146.4168 72.9552 -0.7230 0.0000 0.0000 0.0000
# 2 72.9552 112.8405 1.0385 0.0000 0.0000 0.0000
# 3 -0.7230 1.0385 41.2026 0.0000 0.0000 0.0000
# 4 0.0000 0.0000 0.0000 13.5153 0.0000 0.0000
# 5 0.0000 0.0000 0.0000 0.0000 -2.7136 0.0000
# 6 0.0000 0.0000 0.0000 0.0000 0.0000 17.7085
#
#
#
# Elastic Compliance Matrix: (Units=1/GPa)
#
#
# Indices 1 2 3 4 5 6 
#
# 1 0.010080 -0.006521 0.000341 0.000000 0.000000 0.000000
# 2 -0.006521 0.013082 -0.000444 0.000000 0.000000 0.000000
# 3 0.000341 -0.000444 0.024287 0.000000 0.000000 0.000000
# 4 0.000000 0.000000 0.000000 0.073990 0.000000 0.000000
# 5 0.000000 0.000000 0.000000 0.000000 -0.368511 0.000000
# 6 0.000000 0.000000 0.000000 0.000000 0.000000 0.056470
#
#
# Mechanical properties :
#
#
# Convention : Reuss Voigt Hill
#
# Bulk Modulus (GPa) = 29.23721 49.66682 39.45202
# Shear Modulus (GPa) = -30.12892 20.84798 -4.64047
#
# Velocity S-wave (km/s) = -3.90476 3.24814 -1.53244
# Velocity P-wave (km/s) = 2.35237 6.26113 4.10293
#
# Compressibility (1/GPa) = 0.03420299
#
# Stress axis : x y z
#
# Youngs Moduli (GPa) = 99.20161 76.44156 41.17347
#
# Poissons Ratio (x) = 0.49844 -0.01405
# Poissons Ratio (y) = 0.64685 0.01829
# Poissons Ratio (z) = -0.03385 0.03395
#
# Static dielectric constant tensor:
#      x y z
#    x 1.714300 0.000000 0.000000 
#    y 0.000000 1.692430 0.000000 
#    z 0.000000 0.000000 1.764680 
# 
# From -- ./inp_files/25312.got.cif
#   From: 2010.05.17/outbox.cif.g08.bks.cpg/sg63_13_cif.got.tgz:25312.got - 2010.06.03 15:47:04.
