data_PCOD9469253
_publ_section_title
;
Structure prediction by ZEFSAII (Michael W. Deem and Ramdas Pophale) SiO2 
 PCOD9469253
Probable space group: C M C M
;
_chemical_formula_sum "Si O2"
_cell_formula_units_Z 72
_cell_length_a 33.827705
_cell_length_b 14.940860
_cell_length_c 8.582322
_cell_angle_alpha 90.000000
_cell_angle_beta 90.000000
_cell_angle_gamma 90.000000
_cell_volume 4337.634312
_symmetry_space_group_name_H-M "C M C M"
_symmetry_group_IT_number 63
_symmetry_cell_setting 'orthorhombic'
loop_
_space_group_symop_operation_xyz
x,y,z
-x,-y,1/2+z
x,-y,-z
-x,y,1/2-z
-x,-y,-z
x,y,1/2-z
-x,y,z
x,-y,1/2+z
1/2+x,1/2+y,z
1/2-x,1/2-y,1/2+z
1/2+x,1/2-y,-z
1/2-x,1/2+y,1/2-z
1/2-x,1/2-y,-z
1/2+x,1/2+y,1/2-z
1/2-x,1/2+y,z
1/2+x,1/2-y,1/2+z
loop_
_atom_site_type_symbol
_atom_site_label
_atom_site_fract_x
_atom_site_fract_y
_atom_site_fract_z
Si Si1 0.416827 0.398508 0.063889
Si Si2 0.000000 0.101657 0.436304
Si Si3 0.773113 0.902702 0.937532
Si Si4 0.654694 0.720180 0.062763
Si Si5 0.682034 0.097690 0.437055
O O1 0.418056 0.402790 0.250000
O O2 0.411638 0.500000 0.000000
O O3 0.458685 0.361142 0.000138
O O4 0.381249 0.336792 0.005978
O O5 0.000000 0.101619 0.250000
O O6 0.000000 0.000000 0.500000
O O7 0.773236 0.905611 0.750000
O O8 0.804463 0.828476 0.988004
O O9 0.727891 0.886679 0.988353
O O10 0.785352 0.000000 0.000000
O O11 0.652735 0.718303 0.250000
O O12 0.656342 0.821475 0.003259
O O13 0.680845 0.097691 0.250000
O O14 0.670652 0.000000 0.500000
#
# Coordination Sequence:
#
# PCOD9469253 Si02
#       5
#    16   8  16  16  16
#     4  11  21  34  51  75 105 136 166 200 241 292
#     4  10  18  32  52  74 101 134 165 196 236 290
#     4   9  19  32  48  69  97 130 166 205 249 296
#     4  11  21  33  49  73 100 130 167 209 250 294
#     4  10  20  35  51  69  93 128 169 212 256 299
#
# _framework density 16.59891
#
# number of rings (size 3 to 8) (size 9 to 14) (size 15 to 20)
#    0.000    1.778    0.000    7.000    0.000    4.444 
#    0.000    0.000    0.000    0.000    0.000    0.778 
#    0.000    0.000    0.000    0.000    0.000    0.000 
#
# Total GULP energy -201011.994556 kJ/mol
# GULP energy per Si atom -5583.666515 kJ/mol
# Density = 1.656113 g / cm^3
# Si number density = 16.598910 Si / 1000 Ang^3
#
#
#
# Elastic Constant Matrix: (Units=GPa)
#
#
# Indices 1 2 3 4 5 6 
#
# 1 79.3828 67.1913 38.7768 0.0000 0.0000 0.0000
# 2 67.1913 113.6381 42.1539 0.0000 0.0000 0.0000
# 3 38.7768 42.1539 97.5299 0.0000 0.0000 0.0000
# 4 0.0000 0.0000 0.0000 27.0072 0.0000 0.0000
# 5 0.0000 0.0000 0.0000 0.0000 25.5941 0.0000
# 6 0.0000 0.0000 0.0000 0.0000 0.0000 17.3784
#
#
#
# Elastic Compliance Matrix: (Units=1/GPa)
#
#
# Indices 1 2 3 4 5 6 
#
# 1 0.026802 -0.014165 -0.004534 0.000000 0.000000 0.000000
# 2 -0.014165 0.017967 -0.002134 0.000000 0.000000 0.000000
# 3 -0.004534 -0.002134 0.012978 0.000000 0.000000 0.000000
# 4 0.000000 0.000000 0.000000 0.037027 0.000000 0.000000
# 5 0.000000 0.000000 0.000000 0.000000 0.039071 0.000000
# 6 0.000000 0.000000 0.000000 0.000000 0.000000 0.057543
#
#
# Mechanical properties :
#
#
# Convention : Reuss Voigt Hill
#
# Bulk Modulus (GPa) = 62.18340 65.19942 63.69141
# Shear Modulus (GPa) = 20.97199 23.49121 22.23160
#
# Velocity S-wave (km/s) = 3.55837 3.76603 3.66367
# Velocity P-wave (km/s) = 7.37742 7.63382 7.50672
#
# Compressibility (1/GPa) = 0.01608146
#
# Stress axis : x y z
#
# Youngs Moduli (GPa) = 37.31121 55.65780 77.05400
#
# Poissons Ratio (x) = 0.78841 0.34933
# Poissons Ratio (y) = 0.52853 0.16440
# Poissons Ratio (z) = 0.16915 0.11875
#
# Static dielectric constant tensor:
#      x y z
#    x 1.578210 0.000000 0.000000 
#    y 0.000000 1.523410 0.000000 
#    z 0.000000 0.000000 1.551430 
# 
# From -- ./inp_files/13894.got.cif
#   From: 2010.05.17/outbox.cif.g08.bks.cpg/sg63_7_cif.got.tgz:13894.got - 2010.06.03 15:47:04.
