data_PCOD9469146
_publ_section_title
;
Structure prediction by ZEFSAII (Michael W. Deem and Ramdas Pophale) SiO2 
 PCOD9469146
Probable space group: C M C M
;
_chemical_formula_sum "Si O2"
_cell_formula_units_Z 80
_cell_length_a 21.312713
_cell_length_b 7.459498
_cell_length_c 22.421925
_cell_angle_alpha 90.000000
_cell_angle_beta 90.000000
_cell_angle_gamma 90.000000
_cell_volume 3564.685619
_symmetry_space_group_name_H-M "C M C M"
_symmetry_group_IT_number 63
_symmetry_cell_setting 'orthorhombic'
loop_
_space_group_symop_operation_xyz
x,y,z
-x,-y,1/2+z
x,-y,-z
-x,y,1/2-z
-x,-y,-z
x,y,1/2-z
-x,y,z
x,-y,1/2+z
1/2+x,1/2+y,z
1/2-x,1/2-y,1/2+z
1/2+x,1/2-y,-z
1/2-x,1/2+y,1/2-z
1/2-x,1/2-y,-z
1/2+x,1/2+y,1/2-z
1/2-x,1/2+y,z
1/2+x,1/2-y,1/2+z
loop_
_atom_site_type_symbol
_atom_site_label
_atom_site_fract_x
_atom_site_fract_y
_atom_site_fract_z
Si Si1 0.143904 0.363028 0.750000
Si Si2 0.807361 0.072009 0.373224
Si Si3 0.273185 0.225442 0.750000
Si Si4 0.428099 0.991452 0.142008
Si Si5 0.187686 0.578365 0.935400
Si Si6 0.570017 0.567764 0.179086
O O1 0.197380 0.211063 0.750000
O O2 0.188674 0.540554 0.750000
O O3 0.098546 0.382598 0.693923
O O4 0.791807 0.172942 0.310872
O O5 0.818692 0.209210 0.427714
O O6 0.746714 0.963042 0.392469
O O7 0.873866 0.982427 0.358831
O O8 0.500000 0.030222 0.126410
O O9 0.376915 0.001522 0.089942
O O10 0.426574 0.784040 0.166436
O O11 0.200051 0.500000 0.000000
O O12 0.577684 0.541032 0.250000
O O13 0.500000 0.508791 0.162441
#
# Coordination Sequence:
#
# PCOD9469146 Si02
#       6
#     8  16   8  16  16  16
#     4  12  19  32  54  88 115 133 175 217 284 324
#     4  11  19  35  54  80 107 132 176 221 275 317
#     4  12  18  32  54  88 106 135 167 225 277 316
#     4  10  18  31  52  78 108 139 174 224 270 313
#     4  11  23  36  53  77 107 146 184 220 260 316
#     4   9  15  26  49  79 106 129 166 217 268 316
#
# _framework density 22.442371999999999
#
# number of rings (size 3 to 8) (size 9 to 14) (size 15 to 20)
#    0.000    1.400    8.000    0.900    0.000    0.400 
#    0.000    0.000    0.000    1.800    0.000    2.800 
#    0.000    0.000    0.000    0.000    0.000    0.000 
#
# Total GULP energy -223690.381005 kJ/mol
# GULP energy per Si atom -5592.259525 kJ/mol
# Density = 2.239129 g / cm^3
# Si number density = 22.442372 Si / 1000 Ang^3
#
#
#
# Elastic Constant Matrix: (Units=GPa)
#
#
# Indices 1 2 3 4 5 6 
#
# 1 246.0544 25.0491 53.3004 0.0000 0.0000 0.0000
# 2 25.0491 42.8124 10.1999 0.0000 0.0000 0.0000
# 3 53.3004 10.1999 68.0282 0.0000 0.0000 0.0000
# 4 0.0000 0.0000 0.0000 17.6570 0.0000 0.0000
# 5 0.0000 0.0000 0.0000 0.0000 22.3493 0.0000
# 6 0.0000 0.0000 0.0000 0.0000 0.0000 24.6384
#
#
#
# Elastic Compliance Matrix: (Units=1/GPa)
#
#
# Indices 1 2 3 4 5 6 
#
# 1 0.005070 -0.002095 -0.003658 0.000000 0.000000 0.000000
# 2 -0.002095 0.025089 -0.002120 0.000000 0.000000 0.000000
# 3 -0.003658 -0.002120 0.017884 0.000000 0.000000 0.000000
# 4 0.000000 0.000000 0.000000 0.056635 0.000000 0.000000
# 5 0.000000 0.000000 0.000000 0.000000 0.044744 0.000000
# 6 0.000000 0.000000 0.000000 0.000000 0.000000 0.040587
#
#
# Mechanical properties :
#
#
# Convention : Reuss Voigt Hill
#
# Bulk Modulus (GPa) = 30.96402 59.33264 45.14833
# Shear Modulus (GPa) = 23.09257 30.81866 26.95561
#
# Velocity S-wave (km/s) = 3.21124 3.70974 3.46945
# Velocity P-wave (km/s) = 5.25133 6.69662 6.01752
#
# Compressibility (1/GPa) = 0.03229555
#
# Stress axis : x y z
#
# Youngs Moduli (GPa) = 197.24549 39.85889 55.91625
#
# Poissons Ratio (x) = 0.08349 0.20455
# Poissons Ratio (y) = 0.41318 0.11857
# Poissons Ratio (z) = 0.72155 0.08452
#
# Static dielectric constant tensor:
#      x y z
#    x 1.879070 0.000000 0.000000 
#    y 0.000000 1.929010 0.000000 
#    z 0.000000 0.000000 1.783330 
# 
# From -- ./inp_files/64287.got.cif
#   From: 2010.05.17/outbox.cif.g08.bks.cpg/sg63_33_cif.got.tgz:64287.got - 2010.06.03 15:47:04.
