data_PCOD9469869
_publ_section_title
;
Structure prediction by ZEFSAII (Michael W. Deem and Ramdas Pophale) SiO2 
 PCOD9469869
Probable space group: C M C M
;
_chemical_formula_sum "Si O2"
_cell_formula_units_Z 96
_cell_length_a 30.420848
_cell_length_b 20.641033
_cell_length_c 8.913476
_cell_angle_alpha 90.000000
_cell_angle_beta 90.000000
_cell_angle_gamma 90.000000
_cell_volume 5596.929594
_symmetry_space_group_name_H-M "C M C M"
_symmetry_group_IT_number 63
_symmetry_cell_setting 'orthorhombic'
loop_
_space_group_symop_operation_xyz
x,y,z
-x,-y,1/2+z
x,-y,-z
-x,y,1/2-z
-x,-y,-z
x,y,1/2-z
-x,y,z
x,-y,1/2+z
1/2+x,1/2+y,z
1/2-x,1/2-y,1/2+z
1/2+x,1/2-y,-z
1/2-x,1/2+y,1/2-z
1/2-x,1/2-y,-z
1/2+x,1/2+y,1/2-z
1/2-x,1/2+y,z
1/2+x,1/2-y,1/2+z
loop_
_atom_site_type_symbol
_atom_site_label
_atom_site_fract_x
_atom_site_fract_y
_atom_site_fract_z
Si Si1 0.137644 0.740069 0.576680
Si Si2 0.548923 0.596997 0.575449
Si Si3 0.951208 0.254454 0.576030
Si Si4 0.276906 0.809189 0.571782
Si Si5 0.639526 0.602961 0.424754
Si Si6 0.269667 0.432719 0.428554
O O1 0.146279 0.724294 0.750000
O O2 0.088372 0.722935 0.527277
O O3 0.172905 0.705053 0.472352
O O4 0.141359 0.818417 0.561488
O O5 0.553982 0.577625 0.750000
O O6 0.500000 0.576490 0.522881
O O7 0.548554 0.675764 0.572649
O O8 0.591736 0.579089 0.480100
O O9 0.943784 0.272443 0.750000
O O10 0.000000 0.275931 0.530406
O O11 0.270677 0.810282 0.750000
O O12 0.250000 0.750000 0.500000
O O13 0.257866 0.874144 0.499385
O O14 0.646199 0.586517 0.250000
O O15 0.679418 0.576778 0.523517
O O16 0.254489 0.500000 0.500000
O O17 0.265985 0.432815 0.250000
#
# Coordination Sequence:
#
# PCOD9469869 Si02
#       6
#    16  16  16  16  16  16
#     4  10  19  30  48  75 106 138 176 219 263 311
#     4   8  14  25  42  65  94 129 170 214 262 312
#     4   8  14  25  41  64  98 137 173 211 259 311
#     4  12  23  37  57  81 108 140 179 222 269 318
#     4  10  19  31  49  73 102 134 174 218 263 315
#     4  12  25  41  59  78 105 139 176 221 269 322
#
# _framework density 17.152260999999999
#
# number of rings (size 3 to 8) (size 9 to 14) (size 15 to 20)
#    0.000    2.000    1.667    5.000    0.000    2.000 
#    0.000    3.333    0.000    0.500    0.000    0.000 
#    0.000    0.667    0.000    2.500    0.000    3.833 
#
# Total GULP energy -267996.180637 kJ/mol
# GULP energy per Si atom -5583.253763 kJ/mol
# Density = 1.711322 g / cm^3
# Si number density = 17.152261 Si / 1000 Ang^3
#
#
#
# Elastic Constant Matrix: (Units=GPa)
#
#
# Indices 1 2 3 4 5 6 
#
# 1 85.3719 36.9502 50.4184 0.0000 0.0000 0.0000
# 2 36.9502 73.9261 52.2753 0.0000 0.0000 0.0000
# 3 50.4184 52.2753 137.2291 0.0000 0.0000 0.0000
# 4 0.0000 0.0000 0.0000 17.5522 0.0000 0.0000
# 5 0.0000 0.0000 0.0000 0.0000 32.3415 0.0000
# 6 0.0000 0.0000 0.0000 0.0000 0.0000 -1.6807
#
#
#
# Elastic Compliance Matrix: (Units=1/GPa)
#
#
# Indices 1 2 3 4 5 6 
#
# 1 0.016388 -0.005384 -0.003970 0.000000 0.000000 0.000000
# 2 -0.005384 0.020283 -0.005748 0.000000 0.000000 0.000000
# 3 -0.003970 -0.005748 0.010936 0.000000 0.000000 0.000000
# 4 0.000000 0.000000 0.000000 0.056973 0.000000 0.000000
# 5 0.000000 0.000000 0.000000 0.000000 0.030920 0.000000
# 6 0.000000 0.000000 0.000000 0.000000 0.000000 -0.594980
#
#
# Mechanical properties :
#
#
# Convention : Reuss Voigt Hill
#
# Bulk Modulus (GPa) = 57.46539 63.97943 60.72241
# Shear Modulus (GPa) = -11.80708 20.10148 4.14720
#
# Velocity S-wave (km/s) = -2.62652 3.42708 1.55664
# Velocity P-wave (km/s) = 4.93737 7.28297 6.22171
#
# Compressibility (1/GPa) = 0.01740178
#
# Stress axis : x y z
#
# Youngs Moduli (GPa) = 61.01879 49.30262 91.44494
#
# Poissons Ratio (x) = 0.26544 0.36306
# Poissons Ratio (y) = 0.32852 0.52566
# Poissons Ratio (z) = 0.24226 0.28341
#
# Static dielectric constant tensor:
#      x y z
#    x 1.605300 0.000000 0.000000 
#    y 0.000000 1.542280 0.000000 
#    z 0.000000 0.000000 1.574250 
# 
# From -- ./inp_files/12306.got.cif
#   From: 2010.05.17/outbox.cif.g08.bks.cpg/sg63_7_cif.got.tgz:12306.got - 2010.06.03 15:47:04.
