data_PCOD9469924
_publ_section_title
;
Structure prediction by ZEFSAII (Michael W. Deem and Ramdas Pophale) SiO2 
 PCOD9469924
Probable space group: C M C M
;
_chemical_formula_sum "Si O2"
_cell_formula_units_Z 56
_cell_length_a 20.863639
_cell_length_b 18.039731
_cell_length_c 5.465576
_cell_angle_alpha 90.000000
_cell_angle_beta 90.000000
_cell_angle_gamma 90.000000
_cell_volume 2057.103080
_symmetry_space_group_name_H-M "C M C M"
_symmetry_group_IT_number 63
_symmetry_cell_setting 'orthorhombic'
loop_
_space_group_symop_operation_xyz
x,y,z
-x,-y,1/2+z
x,-y,-z
-x,y,1/2-z
-x,-y,-z
x,y,1/2-z
-x,y,z
x,-y,1/2+z
1/2+x,1/2+y,z
1/2-x,1/2-y,1/2+z
1/2+x,1/2-y,-z
1/2-x,1/2+y,1/2-z
1/2-x,1/2-y,-z
1/2+x,1/2+y,1/2-z
1/2-x,1/2+y,z
1/2+x,1/2-y,1/2+z
loop_
_atom_site_type_symbol
_atom_site_label
_atom_site_fract_x
_atom_site_fract_y
_atom_site_fract_z
Si Si1 0.070647 0.411511 0.250000
Si Si2 0.122214 0.208242 0.750000
Si Si3 0.095448 0.751398 0.750000
Si Si4 0.718310 0.452995 0.750000
Si Si5 0.241778 0.291827 0.250000
Si Si6 0.642293 0.112639 0.250000
Si Si7 0.427455 0.450573 0.750000
O O1 0.057587 0.323574 0.250000
O O2 0.110132 0.421347 0.504752
O O3 0.000000 0.448444 0.250000
O O4 0.087178 0.199880 0.493381
O O5 0.190145 0.163616 0.750000
O O6 0.131332 0.298697 0.750000
O O7 0.165158 0.708358 0.750000
O O8 0.725396 0.500000 0.500000
O O9 0.781073 0.400217 0.750000
O O10 0.646784 0.419390 0.750000
O O11 0.250000 0.250000 0.500000
O O12 0.426551 0.500000 0.500000
O O13 0.500000 0.416638 0.750000
#
# Coordination Sequence:
#
# PCOD9469924 Si02
#       7
#     8   8   8   8   8   8   8
#     4  10  19  31  46  62  83 113 150 193 237 271
#     4   8  14  23  37  57  80 103 127 161 202 248
#     4   8  14  23  37  57  78 101 129 163 205 251
#     4  10  19  31  48  67  88 114 143 182 228 270
#     4   8  12  20  34  54  79 100 119 148 191 240
#     4  10  19  31  46  64  85 111 148 189 231 276
#     4   8  14  25  42  65  89 108 127 154 195 250
#
# _framework density 27.222749
#
# number of rings (size 3 to 8) (size 9 to 14) (size 15 to 20)
#    0.000    3.143    0.000    1.286    0.000    0.000 
#    0.000    0.000    0.000    8.571    0.000    1.000 
#    0.000    0.000    0.000   56.000    0.000    4.000 
#
# Total GULP energy -155924.087023 kJ/mol
# GULP energy per Si atom -5568.717394 kJ/mol
# Density = 2.716079 g / cm^3
# Si number density = 27.222749 Si / 1000 Ang^3
#
#
#
# Elastic Constant Matrix: (Units=GPa)
#
#
# Indices 1 2 3 4 5 6 
#
# 1 255.3698 37.5827 60.5341 0.0000 0.0000 0.0000
# 2 37.5827 62.8625 41.6160 0.0000 0.0000 0.0000
# 3 60.5341 41.6160 275.3353 0.0000 0.0000 0.0000
# 4 0.0000 0.0000 0.0000 -3.5704 0.0000 0.0000
# 5 0.0000 0.0000 0.0000 0.0000 105.8686 0.0000
# 6 0.0000 0.0000 0.0000 0.0000 0.0000 -0.0828
#
#
#
# Elastic Compliance Matrix: (Units=1/GPa)
#
#
# Indices 1 2 3 4 5 6 
#
# 1 0.004390 -0.002207 -0.000632 0.000000 0.000000 0.000000
# 2 -0.002207 0.018786 -0.002354 0.000000 0.000000 0.000000
# 3 -0.000632 -0.002354 0.004127 0.000000 0.000000 0.000000
# 4 0.000000 0.000000 0.000000 -0.280084 0.000000 0.000000
# 5 0.000000 0.000000 0.000000 0.000000 0.009446 0.000000
# 6 0.000000 0.000000 0.000000 0.000000 0.000000-12.077577
#
#
# Mechanical properties :
#
#
# Convention : Reuss Voigt Hill
#
# Bulk Modulus (GPa) = 59.11068 97.00371 78.05719
# Shear Modulus (GPa) = -0.40634 50.69874 25.14620
#
# Velocity S-wave (km/s) = -0.38677 4.32020 3.04257
# Velocity P-wave (km/s) = 4.64342 7.78435 6.40927
#
# Compressibility (1/GPa) = 0.01691742
#
# Stress axis : x y z
#
# Youngs Moduli (GPa) = 227.77056 53.23254 242.32675
#
# Poissons Ratio (x) = 0.11746 0.15309
# Poissons Ratio (y) = 0.50260 0.57049
# Poissons Ratio (z) = 0.14389 0.12532
#
# Static dielectric constant tensor:
#      x y z
#    x 2.495600 0.000000 0.000000 
#    y 0.000000 2.276220 0.000000 
#    z 0.000000 0.000000 2.478790 
# 
# From -- ./inp_files/832.got.cif
#   From: 2010.05.17/outbox.cif.g08.bks.cpg/sg63_1_cif.got.tgz:832.got - 2010.06.03 15:47:04.
