data_PCOD9469024
_publ_section_title
;
Structure prediction by ZEFSAII (Michael W. Deem and Ramdas Pophale) SiO2 
 PCOD9469024
Probable space group: C M C M
;
_chemical_formula_sum "Si O2"
_cell_formula_units_Z 96
_cell_length_a 10.692407
_cell_length_b 19.711091
_cell_length_c 19.432738
_cell_angle_alpha 90.000000
_cell_angle_beta 90.000000
_cell_angle_gamma 90.000000
_cell_volume 4095.624572
_symmetry_space_group_name_H-M "C M C M"
_symmetry_group_IT_number 63
_symmetry_cell_setting 'orthorhombic'
loop_
_space_group_symop_operation_xyz
x,y,z
-x,-y,1/2+z
x,-y,-z
-x,y,1/2-z
-x,-y,-z
x,y,1/2-z
-x,y,z
x,-y,1/2+z
1/2+x,1/2+y,z
1/2-x,1/2-y,1/2+z
1/2+x,1/2-y,-z
1/2-x,1/2+y,1/2-z
1/2-x,1/2-y,-z
1/2+x,1/2+y,1/2-z
1/2-x,1/2+y,z
1/2+x,1/2-y,1/2+z
loop_
_atom_site_type_symbol
_atom_site_label
_atom_site_fract_x
_atom_site_fract_y
_atom_site_fract_z
Si Si1 0.500000 0.815499 0.516866
Si Si2 0.000000 0.237046 0.324824
Si Si3 0.150863 0.538310 0.168418
Si Si4 0.000000 0.704331 0.178874
Si Si5 0.263036 0.856853 0.551928
Si Si6 0.145337 0.077906 0.832862
Si Si7 0.500000 0.338479 0.963862
Si Si8 0.263955 0.719988 0.865616
O O1 0.500000 0.821488 0.600240
O O2 0.374834 0.854447 0.496766
O O3 0.500000 0.736293 0.498894
O O4 0.000000 0.179279 0.382418
O O5 0.874461 0.280598 0.334097
O O6 0.000000 0.205243 0.250000
O O7 0.168903 0.552485 0.250000
O O8 0.200481 0.597900 0.118002
O O9 0.245820 0.476607 0.153268
O O10 0.000000 0.526734 0.157155
O O11 0.873115 0.746665 0.179825
O O12 0.000000 0.662696 0.250000
O O13 0.252333 0.776999 0.574484
O O14 0.128537 0.876551 0.523542
O O15 0.150882 0.092624 0.750000
O O16 0.000000 0.058113 0.847230
O O17 0.181768 0.145576 0.874110
#
# Coordination Sequence:
#
# PCOD9469024 Si02
#       8
#     8   8  16   8  16  16   8  16
#     4  10  20  36  57  84 116 150 194 238 288 344
#     4  10  20  32  49  80 117 146 182 234 290 340
#     4  10  22  37  53  80 118 157 193 234 287 348
#     4  10  18  30  53  84 113 138 182 242 290 332
#     4  10  21  37  57  84 111 148 194 238 289 341
#     4  10  20  33  51  77 114 155 190 231 287 345
#     4  10  22  36  55  84 120 152 190 236 296 346
#     4  10  20  33  53  83 115 148 188 238 289 337
#
# _framework density 23.439648999999999
#
# number of rings (size 3 to 8) (size 9 to 14) (size 15 to 20)
#    0.000    2.000    1.667    2.000    2.333    6.000 
#    0.000    0.000    0.000    0.000    0.000   28.000 
#    0.000    0.000    0.000    0.000    0.000    0.000 
#
# Total GULP energy -267616.258552 kJ/mol
# GULP energy per Si atom -5575.338720 kJ/mol
# Density = 2.338630 g / cm^3
# Si number density = 23.439649 Si / 1000 Ang^3
#
#
#
# Elastic Constant Matrix: (Units=GPa)
#
#
# Indices 1 2 3 4 5 6 
#
# 1 233.1037 34.0257 6.5058 0.0000 0.0000 0.0000
# 2 34.0257 92.5566 8.0171 0.0000 0.0000 0.0000
# 3 6.5058 8.0171 65.1454 0.0000 0.0000 0.0000
# 4 0.0000 0.0000 0.0000 10.4948 0.0000 0.0000
# 5 0.0000 0.0000 0.0000 0.0000 37.7255 0.0000
# 6 0.0000 0.0000 0.0000 0.0000 0.0000 28.6303
#
#
#
# Elastic Compliance Matrix: (Units=1/GPa)
#
#
# Indices 1 2 3 4 5 6 
#
# 1 0.004537 -0.001646 -0.000251 0.000000 0.000000 0.000000
# 2 -0.001646 0.011518 -0.001253 0.000000 0.000000 0.000000
# 3 -0.000251 -0.001253 0.015530 0.000000 0.000000 0.000000
# 4 0.000000 0.000000 0.000000 0.095286 0.000000 0.000000
# 5 0.000000 0.000000 0.000000 0.000000 0.026507 0.000000
# 6 0.000000 0.000000 0.000000 0.000000 0.000000 0.034928
#
#
# Mechanical properties :
#
#
# Convention : Reuss Voigt Hill
#
# Bulk Modulus (GPa) = 39.54916 54.21145 46.88030
# Shear Modulus (GPa) = 24.62645 38.18724 31.40685
#
# Velocity S-wave (km/s) = 3.24486 4.04068 3.66444
# Velocity P-wave (km/s) = 5.56311 6.70431 6.16019
#
# Compressibility (1/GPa) = 0.02528499
#
# Stress axis : x y z
#
# Youngs Moduli (GPa) = 220.39872 86.82109 64.39352
#
# Poissons Ratio (x) = 0.14293 0.01613
# Poissons Ratio (y) = 0.36284 0.08069
# Poissons Ratio (z) = 0.05521 0.10879
#
# Static dielectric constant tensor:
#      x y z
#    x 2.081170 0.000000 0.000000 
#    y 0.000000 1.863910 0.000000 
#    z 0.000000 0.000000 1.954440 
# 
# From -- ./inp_files/61741.got.cif
#   From: 2010.05.17/outbox.cif.g08.bks.cpg/sg63_31_cif.got.tgz:61741.got - 2010.06.03 15:47:04.
