data_PCOD9469541
_publ_section_title
;
Structure prediction by ZEFSAII (Michael W. Deem and Ramdas Pophale) SiO2 
 PCOD9469541
Probable space group: C M C M
;
_chemical_formula_sum "Si O2"
_cell_formula_units_Z 64
_cell_length_a 15.343898
_cell_length_b 20.057800
_cell_length_c 10.544453
_cell_angle_alpha 90.000000
_cell_angle_beta 90.000000
_cell_angle_gamma 90.000000
_cell_volume 3245.211862
_symmetry_space_group_name_H-M "C M C M"
_symmetry_group_IT_number 63
_symmetry_cell_setting 'orthorhombic'
loop_
_space_group_symop_operation_xyz
x,y,z
-x,-y,1/2+z
x,-y,-z
-x,y,1/2-z
-x,-y,-z
x,y,1/2-z
-x,y,z
x,-y,1/2+z
1/2+x,1/2+y,z
1/2-x,1/2-y,1/2+z
1/2+x,1/2-y,-z
1/2-x,1/2+y,1/2-z
1/2-x,1/2-y,-z
1/2+x,1/2+y,1/2-z
1/2-x,1/2+y,z
1/2+x,1/2-y,1/2+z
loop_
_atom_site_type_symbol
_atom_site_label
_atom_site_fract_x
_atom_site_fract_y
_atom_site_fract_z
Si Si1 0.691530 0.447507 0.395667
Si Si2 0.000000 0.096816 0.538701
Si Si3 0.361511 0.759618 0.250000
Si Si4 0.168192 0.302274 0.750000
Si Si5 0.799707 0.320535 0.020776
Si Si6 0.000000 0.791034 0.250000
Si Si7 0.500000 0.643801 0.250000
O O1 0.723669 0.500000 0.500000
O O2 0.707178 0.467388 0.250000
O O3 0.588193 0.438900 0.417822
O O4 0.736074 0.376223 0.422986
O O5 0.000000 0.164821 0.621669
O O6 0.000000 0.106198 0.385642
O O7 0.259953 0.737751 0.250000
O O8 0.373355 0.802776 0.376512
O O9 0.417120 0.692903 0.250000
O O10 0.167642 0.341586 0.617829
O O11 0.087149 0.252476 0.750000
O O12 0.750000 0.250000 0.000000
#
# Coordination Sequence:
#
# PCOD9469541 Si02
#       7
#    16   8   8   8  16   4   4
#     4  12  26  43  62  89 128 177 221 261 318 387
#     4  12  23  38  59  86 135 178 215 255 305 387
#     4  10  18  36  52  88 125 162 205 263 314 363
#     4  10  20  32  58  90 125 158 207 257 316 381
#     4  10  20  37  62  85 119 159 208 267 313 360
#     4  12  20  38  63  98 131 178 208 258 332 380
#     4  12  24  34  63 100 131 172 214 258 330 384
#
# _framework density 19.721364000000001
#
# number of rings (size 3 to 8) (size 9 to 14) (size 15 to 20)
#    0.000    1.000    2.500    7.875    3.500    0.000 
#    0.000    0.000    0.000    0.000    0.000    5.250 
#    0.000    0.000    0.000    0.000    0.000    0.000 
#
# Total GULP energy -178588.485349 kJ/mol
# GULP energy per Si atom -5580.890167 kJ/mol
# Density = 1.967648 g / cm^3
# Si number density = 19.721364 Si / 1000 Ang^3
#
#
#
# Elastic Constant Matrix: (Units=GPa)
#
#
# Indices 1 2 3 4 5 6 
#
# 1 45.9742 14.3579 3.6149 0.0000 0.0000 0.0000
# 2 14.3579 65.7771 25.4300 0.0000 0.0000 0.0000
# 3 3.6149 25.4300 213.6780 0.0000 0.0000 0.0000
# 4 0.0000 0.0000 0.0000 37.7554 0.0000 0.0000
# 5 0.0000 0.0000 0.0000 0.0000 20.5877 0.0000
# 6 0.0000 0.0000 0.0000 0.0000 0.0000 23.6392
#
#
#
# Elastic Compliance Matrix: (Units=1/GPa)
#
#
# Indices 1 2 3 4 5 6 
#
# 1 0.023353 -0.005183 0.000222 0.000000 0.000000 0.000000
# 2 -0.005183 0.017087 -0.001946 0.000000 0.000000 0.000000
# 3 0.000222 -0.001946 0.004908 0.000000 0.000000 0.000000
# 4 0.000000 0.000000 0.000000 0.026486 0.000000 0.000000
# 5 0.000000 0.000000 0.000000 0.000000 0.048573 0.000000
# 6 0.000000 0.000000 0.000000 0.000000 0.000000 0.042303
#
#
# Mechanical properties :
#
#
# Convention : Reuss Voigt Hill
#
# Bulk Modulus (GPa) = 31.71332 45.80388 38.75860
# Shear Modulus (GPa) = 26.73315 35.19823 30.96569
#
# Velocity S-wave (km/s) = 3.68576 4.22924 3.96682
# Velocity P-wave (km/s) = 5.85053 6.86474 6.37783
#
# Compressibility (1/GPa) = 0.03153250
#
# Stress axis : x y z
#
# Youngs Moduli (GPa) = 42.82174 58.52565 203.75907
#
# Poissons Ratio (x) = 0.30335 -0.04519
# Poissons Ratio (y) = 0.22195 0.39647
# Poissons Ratio (z) = -0.00950 0.11388
#
# Static dielectric constant tensor:
#      x y z
#    x 1.658040 0.000000 0.000000 
#    y 0.000000 1.683920 0.000000 
#    z 0.000000 0.000000 -0.029640 
# 
# From -- ./inp_files/19036.got.cif
#   From: 2010.05.17/outbox.cif.g08.bks.cpg/sg63_10_cif.got.tgz:19036.got - 2010.06.03 15:47:04.
