data_PCOD9469966
_publ_section_title
;
Structure prediction by ZEFSAII (Michael W. Deem and Ramdas Pophale) SiO2 
 PCOD9469966
Probable space group: C M C M
;
_chemical_formula_sum "Si O2"
_cell_formula_units_Z 116
_cell_length_a 8.033340
_cell_length_b 32.527504
_cell_length_c 27.023641
_cell_angle_alpha 90.000000
_cell_angle_beta 90.000000
_cell_angle_gamma 90.000000
_cell_volume 7061.398972
_symmetry_space_group_name_H-M "C M C M"
_symmetry_group_IT_number 63
_symmetry_cell_setting 'orthorhombic'
loop_
_space_group_symop_operation_xyz
x,y,z
-x,-y,1/2+z
x,-y,-z
-x,y,1/2-z
-x,-y,-z
x,y,1/2-z
-x,y,z
x,-y,1/2+z
1/2+x,1/2+y,z
1/2-x,1/2-y,1/2+z
1/2+x,1/2-y,-z
1/2-x,1/2+y,1/2-z
1/2-x,1/2-y,-z
1/2+x,1/2+y,1/2-z
1/2-x,1/2+y,z
1/2+x,1/2-y,1/2+z
loop_
_atom_site_type_symbol
_atom_site_label
_atom_site_fract_x
_atom_site_fract_y
_atom_site_fract_z
Si Si1 0.000000 0.774289 0.250000
Si Si2 0.196029 0.886839 0.194505
Si Si3 0.801513 0.016357 0.446523
Si Si4 0.186951 0.295188 0.319354
Si Si5 0.801890 0.190402 0.474901
Si Si6 0.698985 0.097796 0.490655
Si Si7 0.305123 0.732571 0.922966
Si Si8 0.696566 0.064588 0.901808
O O1 0.151459 0.776451 0.207973
O O2 0.234658 0.903385 0.250000
O O3 0.293895 0.844316 0.187527
O O4 0.228017 0.916371 0.148007
O O5 0.000000 0.875982 0.194684
O O6 0.754503 0.063952 0.450306
O O7 0.000000 0.012609 0.444397
O O8 0.740032 0.000000 0.500000
O O9 0.728734 0.984269 0.407355
O O10 0.205899 0.283380 0.376381
O O11 0.000000 0.283046 0.303443
O O12 0.759386 0.142631 0.475405
O O13 0.719392 0.219085 0.433525
O O14 0.746367 0.209067 0.527669
O O15 0.000000 0.195856 0.471057
O O16 0.500000 0.097243 0.493063
O O17 0.761249 0.085060 0.546336
O O18 0.500000 0.723362 0.916312
O O19 0.500000 0.072071 0.899822
#
# Coordination Sequence:
#
# PCOD9469966 Si02
#       8
#     4  16  16  16  16  16  16  16
#     4  12  22  40  52  78 104 132 180 220 258 308
#     4  11  21  35  49  70 102 133 171 213 249 294
#     4   9  17  30  47  67  93 126 161 199 243 292
#     4  12  22  36  56  75 103 140 174 216 263 308
#     4  10  20  32  49  73 102 138 176 212 254 310
#     4  10  19  31  47  69  99 131 165 206 247 296
#     4  10  20  35  51  72 105 138 173 216 258 306
#     4  10  20  31  47  71  98 132 169 203 249 301
#
# _framework density 16.427339
#
# number of rings (size 3 to 8) (size 9 to 14) (size 15 to 20)
#    0.000    1.655    2.069    3.517    0.000    8.000 
#    0.000    0.000    0.000    0.000    0.000    0.000 
#    2.069    0.000    1.655    0.276    0.000    0.138 
#
# Total GULP energy -322871.262719 kJ/mol
# GULP energy per Si atom -5566.745909 kJ/mol
# Density = 1.638995 g / cm^3
# Si number density = 16.427339 Si / 1000 Ang^3
#
#
#
# Elastic Constant Matrix: (Units=GPa)
#
#
# Indices 1 2 3 4 5 6 
#
# 1 76.6138 -3.3898 19.1371 0.0000 0.0000 0.0000
# 2 -3.3898 67.9921 13.3949 0.0000 0.0000 0.0000
# 3 19.1371 13.3949 72.0066 0.0000 0.0000 0.0000
# 4 0.0000 0.0000 0.0000 128.7929 0.0000 0.0000
# 5 0.0000 0.0000 0.0000 0.0000 14.9355 0.0000
# 6 0.0000 0.0000 0.0000 0.0000 0.0000 21.8785
#
#
#
# Elastic Compliance Matrix: (Units=1/GPa)
#
#
# Indices 1 2 3 4 5 6 
#
# 1 0.014126 0.001499 -0.004033 0.000000 0.000000 0.000000
# 2 0.001499 0.015426 -0.003268 0.000000 0.000000 0.000000
# 3 -0.004033 -0.003268 0.015567 0.000000 0.000000 0.000000
# 4 0.000000 0.000000 0.000000 0.007764 0.000000 0.000000
# 5 0.000000 0.000000 0.000000 0.000000 0.066954 0.000000
# 6 0.000000 0.000000 0.000000 0.000000 0.000000 0.045707
#
#
# Mechanical properties :
#
#
# Convention : Reuss Voigt Hill
#
# Bulk Modulus (GPa) = 29.83718 30.54411 30.19064
# Shear Modulus (GPa) = 26.55029 45.61939 36.08484
#
# Velocity S-wave (km/s) = 4.02459 5.27548 4.69191
# Velocity P-wave (km/s) = 6.30865 7.46602 6.91160
#
# Compressibility (1/GPa) = 0.03351523
#
# Stress axis : x y z
#
# Youngs Moduli (GPa) = 70.79031 64.82510 64.23673
#
# Poissons Ratio (x) = -0.09716 0.25908
# Poissons Ratio (y) = -0.10610 0.20992
# Poissons Ratio (z) = 0.28551 0.21185
#
# Static dielectric constant tensor:
#      x y z
#    x 1.578690 0.000000 0.000000 
#    y 0.000000 1.555580 0.000000 
#    z 0.000000 0.000000 1.508540 
# 
# From -- ./inp_files/60604.got.cif
#   From: 2010.05.17/outbox.cif.g08.bks.cpg/sg63_31_cif.got.tgz:60604.got - 2010.06.03 15:47:04.
