data_PCOD9469383
_publ_section_title
;
Structure prediction by ZEFSAII (Michael W. Deem and Ramdas Pophale) SiO2 
 PCOD9469383
Probable space group: C M C M
;
_chemical_formula_sum "Si O2"
_cell_formula_units_Z 84
_cell_length_a 14.500917
_cell_length_b 19.375641
_cell_length_c 14.849959
_cell_angle_alpha 90.000000
_cell_angle_beta 90.000000
_cell_angle_gamma 90.000000
_cell_volume 4172.312226
_symmetry_space_group_name_H-M "C M C M"
_symmetry_group_IT_number 63
_symmetry_cell_setting 'orthorhombic'
loop_
_space_group_symop_operation_xyz
x,y,z
-x,-y,1/2+z
x,-y,-z
-x,y,1/2-z
-x,-y,-z
x,y,1/2-z
-x,y,z
x,-y,1/2+z
1/2+x,1/2+y,z
1/2-x,1/2-y,1/2+z
1/2+x,1/2-y,-z
1/2-x,1/2+y,1/2-z
1/2-x,1/2-y,-z
1/2+x,1/2+y,1/2-z
1/2-x,1/2+y,z
1/2+x,1/2-y,1/2+z
loop_
_atom_site_type_symbol
_atom_site_label
_atom_site_fract_x
_atom_site_fract_y
_atom_site_fract_z
Si Si1 0.267795 0.393499 0.854414
Si Si2 0.500000 0.991181 0.750000
Si Si3 0.389543 0.832804 0.145121
Si Si4 0.108196 0.717935 0.146092
Si Si5 0.890780 0.801761 0.524577
Si Si6 0.843866 0.517991 0.898710
O O1 0.297652 0.384289 0.750000
O O2 0.173921 0.348078 0.865485
O O3 0.337097 0.362851 0.927480
O O4 0.245089 0.472700 0.874474
O O5 0.420221 0.994725 0.827709
O O6 0.369533 0.819618 0.250000
O O7 0.500000 0.849067 0.139436
O O8 0.372524 0.765947 0.085784
O O9 0.335841 0.899887 0.111926
O O10 0.115975 0.739936 0.250000
O O11 0.000000 0.699658 0.129394
O O12 0.134880 0.777543 0.075954
O O13 0.000000 0.815198 0.525774
O O14 0.871176 0.500000 0.000000
#
# Coordination Sequence:
#
# PCOD9469383 Si02
#       6
#    16   4  16  16  16  16
#     4  11  22  36  56  86 126 160 197 248 296 358
#     4  12  22  40  56  90 130 156 202 234 300 374
#     4  10  18  33  53  81 116 150 189 239 293 353
#     4   9  19  33  53  79 114 156 197 241 297 361
#     4  10  21  37  60  89 118 158 205 246 299 352
#     4  12  23  36  59  88 123 162 198 241 300 365
#
# _framework density 20.132722999999999
#
# number of rings (size 3 to 8) (size 9 to 14) (size 15 to 20)
#    0.000    1.524    2.857    2.571    1.333    1.143 
#    0.000    0.000    2.095    0.571    0.000    1.333 
#    0.000    4.571    0.000    0.000    0.000    0.000 
#
# Total GULP energy -234288.983517 kJ/mol
# GULP energy per Si atom -5578.309131 kJ/mol
# Density = 2.008690 g / cm^3
# Si number density = 20.132723 Si / 1000 Ang^3
#
#
#
# Elastic Constant Matrix: (Units=GPa)
#
#
# Indices 1 2 3 4 5 6 
#
# 1 35.3632 13.0389 9.8527 0.0000 0.0000 0.0000
# 2 13.0389 52.7550 -2.0804 0.0000 0.0000 0.0000
# 3 9.8527 -2.0804 112.7737 0.0000 0.0000 0.0000
# 4 0.0000 0.0000 0.0000 -5.9390 0.0000 0.0000
# 5 0.0000 0.0000 0.0000 0.0000 25.4241 0.0000
# 6 0.0000 0.0000 0.0000 0.0000 0.0000 27.6182
#
#
#
# Elastic Compliance Matrix: (Units=1/GPa)
#
#
# Indices 1 2 3 4 5 6 
#
# 1 0.032065 -0.008041 -0.002950 0.000000 0.000000 0.000000
# 2 -0.008041 0.020986 0.001090 0.000000 0.000000 0.000000
# 3 -0.002950 0.001090 0.009145 0.000000 0.000000 0.000000
# 4 0.000000 0.000000 0.000000 -0.168378 0.000000 0.000000
# 5 0.000000 0.000000 0.000000 0.000000 0.039333 0.000000
# 6 0.000000 0.000000 0.000000 0.000000 0.000000 0.036208
#
#
# Mechanical properties :
#
#
# Convention : Reuss Voigt Hill
#
# Bulk Modulus (GPa) = 23.58879 26.94603 25.26741
# Shear Modulus (GPa) = 1518.37202 21.42604 769.89903
#
# Velocity S-wave (km/s) = 27.49215 3.26581 19.57657
# Velocity P-wave (km/s) = 31.92961 5.25680 22.88159
#
# Compressibility (1/GPa) = 0.04239301
#
# Stress axis : x y z
#
# Youngs Moduli (GPa) = 31.18684 47.65078 109.34786
#
# Poissons Ratio (x) = 0.38318 0.32255
# Poissons Ratio (y) = 0.25079 -0.11915
# Poissons Ratio (z) = 0.09199 -0.05192
#
# Static dielectric constant tensor:
#      x y z
#    x 1.730040 0.000000 0.000000 
#    y 0.000000 1.726010 0.000000 
#    z 0.000000 0.000000 1.715250 
# 
# From -- ./inp_files/31774.got.cif
#   From: 2010.05.17/outbox.cif.g08.bks.cpg/sg63_16_cif.got.tgz:31774.got - 2010.06.03 15:47:04.
