data_PCOD9469819
_publ_section_title
;
Structure prediction by ZEFSAII (Michael W. Deem and Ramdas Pophale) SiO2 
 PCOD9469819
Probable space group: C M C M
;
_chemical_formula_sum "Si O2"
_cell_formula_units_Z 96
_cell_length_a 9.057624
_cell_length_b 25.932065
_cell_length_c 25.815015
_cell_angle_alpha 90.000000
_cell_angle_beta 90.000000
_cell_angle_gamma 90.000000
_cell_volume 6063.505440
_symmetry_space_group_name_H-M "C M C M"
_symmetry_group_IT_number 63
_symmetry_cell_setting 'orthorhombic'
loop_
_space_group_symop_operation_xyz
x,y,z
-x,-y,1/2+z
x,-y,-z
-x,y,1/2-z
-x,-y,-z
x,y,1/2-z
-x,y,z
x,-y,1/2+z
1/2+x,1/2+y,z
1/2-x,1/2-y,1/2+z
1/2+x,1/2-y,-z
1/2-x,1/2+y,1/2-z
1/2-x,1/2-y,-z
1/2+x,1/2+y,1/2-z
1/2-x,1/2+y,z
1/2+x,1/2-y,1/2+z
loop_
_atom_site_type_symbol
_atom_site_label
_atom_site_fract_x
_atom_site_fract_y
_atom_site_fract_z
Si Si1 0.678374 0.138506 0.188861
Si Si2 0.176801 0.554209 0.891517
Si Si3 0.668809 0.437515 0.003865
Si Si4 0.669843 0.746271 0.687125
Si Si5 0.322236 0.558173 0.111497
Si Si6 0.822612 0.358854 0.190243
O O1 0.712226 0.132363 0.250000
O O2 0.500000 0.134891 0.183784
O O3 0.722390 0.196611 0.171831
O O4 0.757816 0.095852 0.154648
O O5 0.228713 0.574931 0.947619
O O6 0.252871 0.498773 0.883152
O O7 0.221902 0.594584 0.847140
O O8 0.000000 0.548000 0.890720
O O9 0.500000 0.420882 0.013813
O O10 0.666882 0.500000 0.000000
O O11 0.715899 0.420964 0.946331
O O12 0.670873 0.747326 0.750000
O O13 0.500000 0.740166 0.670651
O O14 0.761589 0.696272 0.671630
O O15 0.500000 0.554465 0.113904
O O16 0.774061 0.367094 0.250000
O O17 0.000000 0.356731 0.190246
#
# Coordination Sequence:
#
# PCOD9469819 Si02
#       6
#    16  16  16  16  16  16
#     4   9  18  32  49  70  96 123 151 187 230 273
#     4  10  19  30  47  70  94 123 157 190 228 275
#     4   8  16  31  47  64  89 119 153 194 233 268
#     4   8  15  29  48  68  89 117 154 189 222 266
#     4  10  20  32  47  69  95 123 155 190 230 275
#     4   9  18  31  46  67  95 123 150 184 227 271
#
# _framework density 15.832426
#
# number of rings (size 3 to 8) (size 9 to 14) (size 15 to 20)
#    0.000    3.000    0.000    3.000    0.000    6.667 
#    0.000    3.333    0.000    1.000    0.000    0.000 
#    0.000    0.000    0.000    0.000    0.000    0.000 
#
# Total GULP energy -267237.876311 kJ/mol
# GULP energy per Si atom -5567.455756 kJ/mol
# Density = 1.579639 g / cm^3
# Si number density = 15.832426 Si / 1000 Ang^3
#
#
#
# Elastic Constant Matrix: (Units=GPa)
#
#
# Indices 1 2 3 4 5 6 
#
# 1 39.6157 45.4813 43.9061 0.0000 0.0000 0.0000
# 2 45.4813 109.2499 71.3500 0.0000 0.0000 0.0000
# 3 43.9061 71.3500 98.0343 0.0000 0.0000 0.0000
# 4 0.0000 0.0000 0.0000 -2.7752 0.0000 0.0000
# 5 0.0000 0.0000 0.0000 0.0000 24.8356 0.0000
# 6 0.0000 0.0000 0.0000 0.0000 0.0000 26.5944
#
#
#
# Elastic Compliance Matrix: (Units=1/GPa)
#
#
# Indices 1 2 3 4 5 6 
#
# 1 0.059666 -0.014079 -0.016475 0.000000 0.000000 0.000000
# 2 -0.014079 0.020768 -0.008809 0.000000 0.000000 0.000000
# 3 -0.016475 -0.008809 0.023991 0.000000 0.000000 0.000000
# 4 0.000000 0.000000 0.000000 -0.360333 0.000000 0.000000
# 5 0.000000 0.000000 0.000000 0.000000 0.040265 0.000000
# 6 0.000000 0.000000 0.000000 0.000000 0.000000 0.037602
#
#
# Mechanical properties :
#
#
# Convention : Reuss Voigt Hill
#
# Bulk Modulus (GPa) = 38.91561 63.15274 51.03418
# Shear Modulus (GPa) = -55.09761 15.47513 -19.81124
#
# Velocity S-wave (km/s) = -5.90559 3.12978 -3.54122
# Velocity P-wave (km/s) = 4.67636 7.28255 3.94761
#
# Compressibility (1/GPa) = 0.02569663
#
# Stress axis : x y z
#
# Youngs Moduli (GPa) = 16.75997 48.15098 41.68289
#
# Poissons Ratio (x) = 0.67794 0.68673
# Poissons Ratio (y) = 0.23597 0.36720
# Poissons Ratio (z) = 0.27612 0.42418
#
# Static dielectric constant tensor:
#      x y z
#    x 1.532620 0.000000 0.000000 
#    y 0.000000 1.515790 0.000000 
#    z 0.000000 0.000000 1.537360 
# 
# From -- ./inp_files/59925.got.cif
#   From: 2010.05.17/outbox.cif.g08.bks.cpg/sg63_30_cif.got.tgz:59925.got - 2010.06.03 15:47:04.
