data_PCOD9469329
_publ_section_title
;
Structure prediction by ZEFSAII (Michael W. Deem and Ramdas Pophale) SiO2 
 PCOD9469329
Probable space group: C M C M
;
_chemical_formula_sum "Si O2"
_cell_formula_units_Z 96
_cell_length_a 27.583822
_cell_length_b 10.432259
_cell_length_c 18.418482
_cell_angle_alpha 90.000000
_cell_angle_beta 90.000000
_cell_angle_gamma 90.000000
_cell_volume 5300.131395
_symmetry_space_group_name_H-M "C M C M"
_symmetry_group_IT_number 63
_symmetry_cell_setting 'orthorhombic'
loop_
_space_group_symop_operation_xyz
x,y,z
-x,-y,1/2+z
x,-y,-z
-x,y,1/2-z
-x,-y,-z
x,y,1/2-z
-x,y,z
x,-y,1/2+z
1/2+x,1/2+y,z
1/2-x,1/2-y,1/2+z
1/2+x,1/2-y,-z
1/2-x,1/2+y,1/2-z
1/2-x,1/2-y,-z
1/2+x,1/2+y,1/2-z
1/2-x,1/2+y,z
1/2+x,1/2-y,1/2+z
loop_
_atom_site_type_symbol
_atom_site_label
_atom_site_fract_x
_atom_site_fract_y
_atom_site_fract_z
Si Si1 0.618817 0.658522 0.335331
Si Si2 0.056340 0.335758 0.948345
Si Si3 0.901471 0.581122 0.599414
Si Si4 0.555641 0.452738 0.083299
Si Si5 0.298635 0.995603 0.161839
Si Si6 0.227930 0.782785 0.662439
O O1 0.620891 0.636781 0.250000
O O2 0.592289 0.794019 0.350766
O O3 0.591386 0.542735 0.372835
O O4 0.674217 0.675461 0.362927
O O5 0.063557 0.458055 0.896369
O O6 0.068086 0.197946 0.914880
O O7 0.000000 0.330155 0.972440
O O8 0.089874 0.363988 0.018203
O O9 0.848675 0.526049 0.619677
O O10 0.500000 0.467834 0.108862
O O11 0.557048 0.500000 0.000000
O O12 0.307647 0.998893 0.250000
O O13 0.266881 0.867877 0.147029
O O14 0.269964 0.121928 0.138006
O O15 0.227191 0.794424 0.750000
#
# Coordination Sequence:
#
# PCOD9469329 Si02
#       6
#    16  16  16  16  16  16
#     4  10  20  35  57  83 110 141 183 230 272 315
#     4  10  21  36  56  76 102 146 187 217 265 337
#     4  10  18  32  55  80 106 134 182 226 264 319
#     4  10  20  36  56  78 107 146 187 223 270 329
#     4   9  17  31  52  76 104 139 177 218 266 319
#     4   8  16  30  49  74 103 138 175 211 262 326
#
# _framework density 18.112759
#
# number of rings (size 3 to 8) (size 9 to 14) (size 15 to 20)
#    0.000    2.500    1.667    2.500    0.000    2.333 
#    0.000    3.333    3.667   17.000    0.000    0.000 
#    0.000    0.000    0.000    0.000    0.000    0.000 
#
# Total GULP energy -267329.195334 kJ/mol
# GULP energy per Si atom -5569.358236 kJ/mol
# Density = 1.807153 g / cm^3
# Si number density = 18.112759 Si / 1000 Ang^3
#
#
#
# Elastic Constant Matrix: (Units=GPa)
#
#
# Indices 1 2 3 4 5 6 
#
# 1 37.2996 21.2116 18.2187 0.0000 0.0000 0.0000
# 2 21.2116 83.0586 4.0867 0.0000 0.0000 0.0000
# 3 18.2187 4.0867 21.2208 0.0000 0.0000 0.0000
# 4 0.0000 0.0000 0.0000 24.3559 0.0000 0.0000
# 5 0.0000 0.0000 0.0000 0.0000 29.6484 0.0000
# 6 0.0000 0.0000 0.0000 0.0000 0.0000 36.0862
#
#
#
# Elastic Compliance Matrix: (Units=1/GPa)
#
#
# Indices 1 2 3 4 5 6 
#
# 1 0.056025 -0.012055 -0.045778 0.000000 0.000000 0.000000
# 2 -0.012055 0.014749 0.007510 0.000000 0.000000 0.000000
# 3 -0.045778 0.007510 0.084979 0.000000 0.000000 0.000000
# 4 0.000000 0.000000 0.000000 0.041058 0.000000 0.000000
# 5 0.000000 0.000000 0.000000 0.000000 0.033729 0.000000
# 6 0.000000 0.000000 0.000000 0.000000 0.000000 0.027711
#
#
# Mechanical properties :
#
#
# Convention : Reuss Voigt Hill
#
# Bulk Modulus (GPa) = 18.14686 25.40145 21.77416
# Shear Modulus (GPa) = 13.25321 24.55559 18.90440
#
# Velocity S-wave (km/s) = 2.70794 3.68599 3.23415
# Velocity P-wave (km/s) = 4.45172 5.67185 5.09842
#
# Compressibility (1/GPa) = 0.05510594
#
# Stress axis : x y z
#
# Youngs Moduli (GPa) = 17.84904 67.80162 11.76761
#
# Poissons Ratio (x) = 0.81738 0.53870
# Poissons Ratio (y) = 0.21518 -0.08837
# Poissons Ratio (z) = 0.81709 -0.50916
#
# Static dielectric constant tensor:
#      x y z
#    x 1.625930 0.000000 0.000000 
#    y 0.000000 1.645780 0.000000 
#    z 0.000000 0.000000 1.612940 
# 
# From -- ./inp_files/47993.got.cif
#   From: 2010.05.17/outbox.cif.g08.bks.cpg/sg63_24_cif.got.tgz:47993.got - 2010.06.03 15:47:04.
