data_PCOD9469104
_publ_section_title
;
Structure prediction by ZEFSAII (Michael W. Deem and Ramdas Pophale) SiO2 
 PCOD9469104
Probable space group: C M C M
;
_chemical_formula_sum "Si O2"
_cell_formula_units_Z 96
_cell_length_a 12.712717
_cell_length_b 23.090676
_cell_length_c 14.350499
_cell_angle_alpha 90.000000
_cell_angle_beta 90.000000
_cell_angle_gamma 90.000000
_cell_volume 4212.520520
_symmetry_space_group_name_H-M "C M C M"
_symmetry_group_IT_number 63
_symmetry_cell_setting 'orthorhombic'
loop_
_space_group_symop_operation_xyz
x,y,z
-x,-y,1/2+z
x,-y,-z
-x,y,1/2-z
-x,-y,-z
x,y,1/2-z
-x,y,z
x,-y,1/2+z
1/2+x,1/2+y,z
1/2-x,1/2-y,1/2+z
1/2+x,1/2-y,-z
1/2-x,1/2+y,1/2-z
1/2-x,1/2-y,-z
1/2+x,1/2+y,1/2-z
1/2-x,1/2+y,z
1/2+x,1/2-y,1/2+z
loop_
_atom_site_type_symbol
_atom_site_label
_atom_site_fract_x
_atom_site_fract_y
_atom_site_fract_z
Si Si1 0.500000 0.396573 0.365058
Si Si2 0.500000 0.469893 0.635942
Si Si3 0.382846 0.927874 0.894304
Si Si4 0.116620 0.746754 0.635545
Si Si5 0.381955 0.939611 0.117644
Si Si6 0.785381 0.842421 0.144852
Si Si7 0.335743 0.624159 0.140951
O O1 0.500000 0.397329 0.250000
O O2 0.500000 0.463698 0.395490
O O3 0.605027 0.363585 0.397004
O O4 0.500000 0.473328 0.750000
O O5 0.600327 0.431597 0.605036
O O6 0.500000 0.909305 0.865549
O O7 0.287807 0.886832 0.867737
O O8 0.364459 0.993239 0.858029
O O9 0.382204 0.933961 0.005893
O O10 0.118937 0.744491 0.750000
O O11 0.211416 0.706529 0.600529
O O12 0.131678 0.812994 0.604920
O O13 0.000000 0.726134 0.607284
O O14 0.500000 0.923158 0.148381
O O15 0.290389 0.898183 0.151002
O O16 0.810457 0.822331 0.250000
O O17 0.363196 0.626561 0.250000
#
# Coordination Sequence:
#
# PCOD9469104 Si02
#       7
#     8   8  16  16  16  16  16
#     4   9  18  30  45  73 107 135 158 195 256 308
#     4   9  16  28  49  73 101 131 162 205 252 296
#     4   9  19  34  50  72 103 135 165 203 261 314
#     4   9  17  31  50  74 101 129 168 214 256 292
#     4   9  18  34  53  72 100 134 166 208 259 304
#     4  10  19  32  52  76 101 131 169 209 250 303
#     4  10  18  31  51  75 101 132 172 212 246 295
#
# _framework density 22.789206
#
# number of rings (size 3 to 8) (size 9 to 14) (size 15 to 20)
#    0.000    2.667    0.833    2.500    0.000    3.333 
#    1.500    3.333    0.000    3.000    0.000    0.000 
#    0.000    0.000    0.000    0.000    0.000    0.000 
#
# Total GULP energy -268145.548706 kJ/mol
# GULP energy per Si atom -5586.365598 kJ/mol
# Density = 2.273734 g / cm^3
# Si number density = 22.789206 Si / 1000 Ang^3
#
#
#
# Elastic Constant Matrix: (Units=GPa)
#
#
# Indices 1 2 3 4 5 6 
#
# 1 191.5541 98.4883 0.0313 0.0000 0.0000 0.0000
# 2 98.4883 119.1061 12.7277 0.0000 0.0000 0.0000
# 3 0.0313 12.7277 63.7364 0.0000 0.0000 0.0000
# 4 0.0000 0.0000 0.0000 2.4895 0.0000 0.0000
# 5 0.0000 0.0000 0.0000 0.0000 -7.6979 0.0000
# 6 0.0000 0.0000 0.0000 0.0000 0.0000 28.2753
#
#
#
# Elastic Compliance Matrix: (Units=1/GPa)
#
#
# Indices 1 2 3 4 5 6 
#
# 1 0.009229 -0.007798 0.001553 0.000000 0.000000 0.000000
# 2 -0.007798 0.015167 -0.003025 0.000000 0.000000 0.000000
# 3 0.001553 -0.003025 0.016293 0.000000 0.000000 0.000000
# 4 0.000000 0.000000 0.000000 0.401682 0.000000 0.000000
# 5 0.000000 0.000000 0.000000 0.000000 -0.129906 0.000000
# 6 0.000000 0.000000 0.000000 0.000000 0.000000 0.035367
#
#
# Mechanical properties :
#
#
# Convention : Reuss Voigt Hill
#
# Bulk Modulus (GPa) = 45.14804 66.32125 55.73465
# Shear Modulus (GPa) = 13.37776 22.15667 17.76722
#
# Velocity S-wave (km/s) = 2.42548 3.12147 2.79522
# Velocity P-wave (km/s) = 5.26290 6.49281 5.90994
#
# Compressibility (1/GPa) = 0.02214935
#
# Stress axis : x y z
#
# Youngs Moduli (GPa) = 108.34928 65.93268 61.37642
#
# Poissons Ratio (x) = 0.51412 -0.09529
# Poissons Ratio (y) = 0.84487 0.18566
# Poissons Ratio (z) = -0.16822 0.19944
#
# Static dielectric constant tensor:
#      x y z
#    x 1.827620 0.000000 0.000000 
#    y 0.000000 1.812000 0.000000 
#    z 0.000000 0.000000 1.881470 
# 
# From -- ./inp_files/42588.got.cif
#   From: 2010.05.17/outbox.cif.g08.bks.cpg/sg63_22_cif.got.tgz:42588.got - 2010.06.03 15:47:04.
