data_PCOD9469980
_publ_section_title
;
Structure prediction by ZEFSAII (Michael W. Deem and Ramdas Pophale) SiO2 
 PCOD9469980
Probable space group: C M C M
;
_chemical_formula_sum "Si O2"
_cell_formula_units_Z 80
_cell_length_a 18.759243
_cell_length_b 22.988625
_cell_length_c 9.552193
_cell_angle_alpha 90.000000
_cell_angle_beta 90.000000
_cell_angle_gamma 90.000000
_cell_volume 4119.375614
_symmetry_space_group_name_H-M "C M C M"
_symmetry_group_IT_number 63
_symmetry_cell_setting 'orthorhombic'
loop_
_space_group_symop_operation_xyz
x,y,z
-x,-y,1/2+z
x,-y,-z
-x,y,1/2-z
-x,-y,-z
x,y,1/2-z
-x,y,z
x,-y,1/2+z
1/2+x,1/2+y,z
1/2-x,1/2-y,1/2+z
1/2+x,1/2-y,-z
1/2-x,1/2+y,1/2-z
1/2-x,1/2-y,-z
1/2+x,1/2+y,1/2-z
1/2-x,1/2+y,z
1/2+x,1/2-y,1/2+z
loop_
_atom_site_type_symbol
_atom_site_label
_atom_site_fract_x
_atom_site_fract_y
_atom_site_fract_z
Si Si1 0.921677 0.939941 0.416649
Si Si2 0.500000 0.123378 0.912029
Si Si3 0.865152 0.234727 0.909355
Si Si4 0.500000 0.734822 0.408076
Si Si5 0.277028 0.371690 0.414845
Si Si6 0.859783 0.625047 0.087087
O O1 0.920046 0.950912 0.250000
O O2 0.851873 0.902536 0.448176
O O3 0.000000 0.913443 0.448452
O O4 0.917387 0.000000 0.500000
O O5 0.500000 0.103473 0.750000
O O6 0.500000 0.194184 0.907498
O O7 0.429161 0.106578 0.998324
O O8 0.887223 0.219825 0.750000
O O9 0.795068 0.196606 0.936500
O O10 0.857157 0.304127 0.915933
O O11 0.928481 0.217759 0.012371
O O12 0.500000 0.713715 0.250000
O O13 0.259969 0.380002 0.250000
O O14 0.212741 0.393373 0.510426
O O15 0.864196 0.607585 0.250000
#
# Coordination Sequence:
#
# PCOD9469980 Si02
#       6
#    16   8  16   8  16  16
#     4   9  19  36  56  76  99 130 170 215 262 308
#     4   9  17  31  49  65  92 133 172 203 237 288
#     4   9  18  30  45  65  96 136 170 205 247 297
#     4   9  17  27  41  63  90 125 168 209 244 284
#     4  10  20  32  50  73  97 131 171 207 252 309
#     4  10  19  31  47  72 103 134 169 209 251 293
#
# _framework density 19.420418000000002
#
# number of rings (size 3 to 8) (size 9 to 14) (size 15 to 20)
#    0.000    2.600    0.000    1.800    1.400    4.800 
#    0.000    0.000    0.000    0.000    0.000    0.700 
#    0.000    0.000    0.000    0.000    0.000    0.000 
#
# Total GULP energy -223070.017950 kJ/mol
# GULP energy per Si atom -5576.750449 kJ/mol
# Density = 1.937622 g / cm^3
# Si number density = 19.420418 Si / 1000 Ang^3
#
#
#
# Elastic Constant Matrix: (Units=GPa)
#
#
# Indices 1 2 3 4 5 6 
#
# 1 157.3473 12.6880 101.8606 0.0000 0.0000 0.0000
# 2 12.6880 15.3626 8.3008 0.0000 0.0000 0.0000
# 3 101.8606 8.3008 122.2639 0.0000 0.0000 0.0000
# 4 0.0000 0.0000 0.0000 14.5051 0.0000 0.0000
# 5 0.0000 0.0000 0.0000 0.0000 36.7158 0.0000
# 6 0.0000 0.0000 0.0000 0.0000 0.0000 15.1518
#
#
#
# Elastic Compliance Matrix: (Units=1/GPa)
#
#
# Indices 1 2 3 4 5 6 
#
# 1 0.014238 -0.005554 -0.011485 0.000000 0.000000 0.000000
# 2 -0.005554 0.069738 -0.000108 0.000000 0.000000 0.000000
# 3 -0.011485 -0.000108 0.017755 0.000000 0.000000 0.000000
# 4 0.000000 0.000000 0.000000 0.068941 0.000000 0.000000
# 5 0.000000 0.000000 0.000000 0.000000 0.027236 0.000000
# 6 0.000000 0.000000 0.000000 0.000000 0.000000 0.065999
#
#
# Mechanical properties :
#
#
# Convention : Reuss Voigt Hill
#
# Bulk Modulus (GPa) = 14.82842 60.07474 37.45158
# Shear Modulus (GPa) = 15.59188 24.74952 20.17070
#
# Velocity S-wave (km/s) = 2.83655 3.57376 3.22628
# Velocity P-wave (km/s) = 4.28720 6.93036 5.76238
#
# Compressibility (1/GPa) = 0.06743809
#
# Stress axis : x y z
#
# Youngs Moduli (GPa) = 70.23366 14.33933 56.32282
#
# Poissons Ratio (x) = 0.07964 0.64687
# Poissons Ratio (y) = 0.39005 0.00607
# Poissons Ratio (z) = 0.80664 0.00155
#
# Static dielectric constant tensor:
#      x y z
#    x 1.676620 0.000000 0.000000 
#    y 0.000000 1.687880 0.000000 
#    z 0.000000 0.000000 1.661140 
# 
# From -- ./inp_files/6550.got.cif
#   From: 2010.05.17/outbox.cif.g08.bks.cpg/sg63_4_cif.got.tgz:6550.got - 2010.06.03 15:47:04.
