data_PCOD9469172
_publ_section_title
;
Structure prediction by ZEFSAII (Michael W. Deem and Ramdas Pophale) SiO2 
 PCOD9469172
Probable space group: C M C M
;
_chemical_formula_sum "Si O2"
_cell_formula_units_Z 88
_cell_length_a 25.217401
_cell_length_b 8.777038
_cell_length_c 20.685619
_cell_angle_alpha 90.000000
_cell_angle_beta 90.000000
_cell_angle_gamma 90.000000
_cell_volume 4578.432592
_symmetry_space_group_name_H-M "C M C M"
_symmetry_group_IT_number 63
_symmetry_cell_setting 'orthorhombic'
loop_
_space_group_symop_operation_xyz
x,y,z
-x,-y,1/2+z
x,-y,-z
-x,y,1/2-z
-x,-y,-z
x,y,1/2-z
-x,y,z
x,-y,1/2+z
1/2+x,1/2+y,z
1/2-x,1/2-y,1/2+z
1/2+x,1/2-y,-z
1/2-x,1/2+y,1/2-z
1/2-x,1/2-y,-z
1/2+x,1/2+y,1/2-z
1/2-x,1/2+y,z
1/2+x,1/2-y,1/2+z
loop_
_atom_site_type_symbol
_atom_site_label
_atom_site_fract_x
_atom_site_fract_y
_atom_site_fract_z
Si Si1 0.308924 0.182828 0.750000
Si Si2 0.881452 0.329379 0.500004
Si Si3 0.191069 0.682862 0.250000
Si Si4 0.500000 0.330567 0.144779
Si Si5 0.000000 0.250747 0.500004
Si Si6 0.117785 0.184489 0.638756
Si Si7 0.117782 0.184528 0.361235
Si Si8 0.500000 0.330488 0.644803
O O1 0.249996 0.249976 0.750000
O O2 0.340560 0.245857 0.811933
O O3 0.307842 0.999983 0.750000
O O4 0.858783 0.500000 0.500000
O O5 0.869369 0.239959 0.566081
O O6 0.869387 0.239997 0.433913
O O7 0.945425 0.340446 0.500023
O O8 0.159432 0.745884 0.311932
O O9 0.500000 0.340779 0.066604
O O10 0.442184 0.261309 0.158688
O O11 0.500000 0.500027 0.173032
O O12 0.000000 0.159356 0.433372
O O13 0.117568 0.999981 0.640789
O O14 0.057820 0.238741 0.341283
#
# Coordination Sequence:
#
# PCOD9469172 Si02
#       8
#     8  16   8   8   8  16  16   8
#     4  12  26  45  64  83 109 148 194 244 297 350
#     4  10  18  31  53  86 122 156 193 236 282 334
#     4  12  26  45  64  83 109 148 194 244 297 350
#     4   8  15  28  52  84 119 154 190 228 276 336
#     4   8  14  24  44  76 119 160 191 226 275 330
#     4  10  20  37  60  88 120 157 195 235 282 340
#     4  10  20  37  60  88 120 157 195 235 282 340
#     4   8  15  28  52  84 119 154 190 228 276 336
#
# _framework density 19.220551
#
# number of rings (size 3 to 8) (size 9 to 14) (size 15 to 20)
#    0.000    2.182    0.000    3.818    0.000    5.091 
#    0.000    7.273    0.000    0.000    0.000    0.000 
#    0.000    0.000    0.000    0.000    0.000    0.000 
#
# Total GULP energy -245237.601679 kJ/mol
# GULP energy per Si atom -5573.581856 kJ/mol
# Density = 1.917680 g / cm^3
# Si number density = 19.220551 Si / 1000 Ang^3
#
#
#
# Elastic Constant Matrix: (Units=GPa)
#
#
# Indices 1 2 3 4 5 6 
#
# 1 149.9582 51.1357 85.8197 0.0000 0.0000 0.0000
# 2 51.1357 126.6188 57.9383 0.0000 0.0000 0.0000
# 3 85.8197 57.9383 143.8155 0.0000 0.0000 0.0000
# 4 0.0000 0.0000 0.0000 24.4897 0.0000 0.0000
# 5 0.0000 0.0000 0.0000 0.0000 76.7307 0.0000
# 6 0.0000 0.0000 0.0000 0.0000 0.0000 6.2751
#
#
#
# Elastic Compliance Matrix: (Units=1/GPa)
#
#
# Indices 1 2 3 4 5 6 
#
# 1 0.010407 -0.001669 -0.005538 0.000000 0.000000 0.000000
# 2 -0.001669 0.009950 -0.003013 0.000000 0.000000 0.000000
# 3 -0.005538 -0.003013 0.011472 0.000000 0.000000 0.000000
# 4 0.000000 0.000000 0.000000 0.040833 0.000000 0.000000
# 5 0.000000 0.000000 0.000000 0.000000 0.013033 0.000000
# 6 0.000000 0.000000 0.000000 0.000000 0.000000 0.159361
#
#
# Mechanical properties :
#
#
# Convention : Reuss Voigt Hill
#
# Bulk Modulus (GPa) = 87.79655 90.01998 88.90827
# Shear Modulus (GPa) = 18.56726 36.53235 27.54981
#
# Velocity S-wave (km/s) = 3.11144 4.36442 3.79007
# Velocity P-wave (km/s) = 7.66066 8.50497 8.09383
#
# Compressibility (1/GPa) = 0.01138997
#
# Stress axis : x y z
#
# Youngs Moduli (GPa) = 96.09070 100.49973 87.17129
#
# Poissons Ratio (x) = 0.16772 0.48274
# Poissons Ratio (y) = 0.16036 0.26262
# Poissons Ratio (z) = 0.53213 0.30278
#
# Static dielectric constant tensor:
#      x y z
#    x 1.677920 0.000000 0.000000 
#    y 0.000000 1.682410 0.000000 
#    z 0.000000 0.000000 1.669030 
# 
# From -- ./inp_files/57427.got.cif
#   From: 2010.05.17/outbox.cif.g08.bks.cpg/sg63_29_cif.got.tgz:57427.got - 2010.06.03 15:47:04.
