data_PCOD9469833
_publ_section_title
;
Structure prediction by ZEFSAII (Michael W. Deem and Ramdas Pophale) SiO2 
 PCOD9469833
Probable space group: C M C M
;
_chemical_formula_sum "Si O2"
_cell_formula_units_Z 80
_cell_length_a 19.214630
_cell_length_b 27.543464
_cell_length_c 8.827132
_cell_angle_alpha 90.000000
_cell_angle_beta 90.000000
_cell_angle_gamma 90.000000
_cell_volume 4671.649004
_symmetry_space_group_name_H-M "C M C M"
_symmetry_group_IT_number 63
_symmetry_cell_setting 'orthorhombic'
loop_
_space_group_symop_operation_xyz
x,y,z
-x,-y,1/2+z
x,-y,-z
-x,y,1/2-z
-x,-y,-z
x,y,1/2-z
-x,y,z
x,-y,1/2+z
1/2+x,1/2+y,z
1/2-x,1/2-y,1/2+z
1/2+x,1/2-y,-z
1/2-x,1/2+y,1/2-z
1/2-x,1/2-y,-z
1/2+x,1/2+y,1/2-z
1/2-x,1/2+y,z
1/2+x,1/2-y,1/2+z
loop_
_atom_site_type_symbol
_atom_site_label
_atom_site_fract_x
_atom_site_fract_y
_atom_site_fract_z
Si Si1 0.783636 0.893602 0.568242
Si Si2 0.921428 0.350694 0.432799
Si Si3 0.357838 0.947642 0.930338
Si Si4 0.077333 0.053575 0.067490
Si Si5 0.217830 0.701516 0.930919
O O1 0.784136 0.885218 0.750000
O O2 0.722700 0.932863 0.538133
O O3 0.858441 0.913341 0.519321
O O4 0.762612 0.844505 0.485058
O O5 0.918423 0.354614 0.250000
O O6 0.902006 0.403218 0.500988
O O7 0.861336 0.312554 0.479097
O O8 0.000000 0.336945 0.476104
O O9 0.367568 0.949122 0.750000
O O10 0.374048 0.000000 0.000000
O O11 0.080116 0.050075 0.250000
O O12 0.000000 0.071580 0.025321
O O13 0.085451 0.000000 0.000000
O O14 0.218530 0.705371 0.750000
O O15 0.250000 0.750000 0.000000
#
# Coordination Sequence:
#
# PCOD9469833 Si02
#       5
#    16  16  16  16  16
#     4   9  18  32  49  70  97 128 164 204 242 284
#     4   9  19  36  55  74  97 126 161 199 238 282
#     4  10  19  30  47  72 101 133 166 199 237 282
#     4   9  17  29  46  69  98 132 166 200 240 284
#     4  10  20  35  56  77  96 122 157 198 244 290
#
# _framework density 17.124573999999999
#
# number of rings (size 3 to 8) (size 9 to 14) (size 15 to 20)
#    0.000    2.600    0.000    1.800    0.000    3.200 
#    0.000    1.000    0.000    6.000    0.000    0.000 
#    0.000    0.000    0.000    0.000    0.000    0.000 
#
# Total GULP energy -223034.427915 kJ/mol
# GULP energy per Si atom -5575.860698 kJ/mol
# Density = 1.708560 g / cm^3
# Si number density = 17.124574 Si / 1000 Ang^3
#
#
#
# Elastic Constant Matrix: (Units=GPa)
#
#
# Indices 1 2 3 4 5 6 
#
# 1 163.1326 71.6205 35.9424 0.0000 0.0000 0.0000
# 2 71.6205 105.6102 31.5055 0.0000 0.0000 0.0000
# 3 35.9424 31.5055 19.9343 0.0000 0.0000 0.0000
# 4 0.0000 0.0000 0.0000 32.2392 0.0000 0.0000
# 5 0.0000 0.0000 0.0000 0.0000 20.2368 0.0000
# 6 0.0000 0.0000 0.0000 0.0000 0.0000 11.3516
#
#
#
# Elastic Compliance Matrix: (Units=1/GPa)
#
#
# Indices 1 2 3 4 5 6 
#
# 1 0.010594 -0.002812 -0.014657 0.000000 0.000000 0.000000
# 2 -0.002812 0.018662 -0.024425 0.000000 0.000000 0.000000
# 3 -0.014657 -0.024425 0.115195 0.000000 0.000000 0.000000
# 4 0.000000 0.000000 0.000000 0.031018 0.000000 0.000000
# 5 0.000000 0.000000 0.000000 0.000000 0.049415 0.000000
# 6 0.000000 0.000000 0.000000 0.000000 0.000000 0.088093
#
#
# Mechanical properties :
#
#
# Convention : Reuss Voigt Hill
#
# Bulk Modulus (GPa) = 16.48446 62.97931 39.73188
# Shear Modulus (GPa) = 11.99080 22.73944 17.36512
#
# Velocity S-wave (km/s) = 2.64902 3.64797 3.18787
# Velocity P-wave (km/s) = 4.35930 7.38922 6.06647
#
# Compressibility (1/GPa) = 0.06066321
#
# Stress axis : x y z
#
# Youngs Moduli (GPa) = 94.39491 53.58474 8.68092
#
# Poissons Ratio (x) = 0.15067 0.12724
# Poissons Ratio (y) = 0.26542 0.21203
# Poissons Ratio (z) = 1.38356 1.30881
#
# Static dielectric constant tensor:
#      x y z
#    x 1.609920 0.000000 0.000000 
#    y 0.000000 1.533120 0.000000 
#    z 0.000000 0.000000 1.564750 
# 
# From -- ./inp_files/6379.got.cif
#   From: 2010.05.17/outbox.cif.g08.bks.cpg/sg63_4_cif.got.tgz:6379.got - 2010.06.03 15:47:04.
