data_PCOD9469918
_publ_section_title
;
Structure prediction by ZEFSAII (Michael W. Deem and Ramdas Pophale) SiO2 
 PCOD9469918
Probable space group: C M C M
;
_chemical_formula_sum "Si O2"
_cell_formula_units_Z 104
_cell_length_a 25.310700
_cell_length_b 34.722762
_cell_length_c 7.545937
_cell_angle_alpha 90.000000
_cell_angle_beta 90.000000
_cell_angle_gamma 90.000000
_cell_volume 6631.802664
_symmetry_space_group_name_H-M "C M C M"
_symmetry_group_IT_number 63
_symmetry_cell_setting 'orthorhombic'
loop_
_space_group_symop_operation_xyz
x,y,z
-x,-y,1/2+z
x,-y,-z
-x,y,1/2-z
-x,-y,-z
x,y,1/2-z
-x,y,z
x,-y,1/2+z
1/2+x,1/2+y,z
1/2-x,1/2-y,1/2+z
1/2+x,1/2-y,-z
1/2-x,1/2+y,1/2-z
1/2-x,1/2-y,-z
1/2+x,1/2+y,1/2-z
1/2-x,1/2+y,z
1/2+x,1/2-y,1/2+z
loop_
_atom_site_type_symbol
_atom_site_label
_atom_site_fract_x
_atom_site_fract_y
_atom_site_fract_z
Si Si1 0.000000 0.045711 0.461586
Si Si2 0.170409 0.733028 0.535898
Si Si3 0.168643 0.882954 0.547402
Si Si4 0.557669 0.745404 0.035945
Si Si5 0.941194 0.845723 0.040361
Si Si6 0.228444 0.189479 0.460016
Si Si7 0.115403 0.045086 0.036345
O O1 0.057181 0.058103 0.531798
O O2 0.000000 0.051760 0.250000
O O3 0.000000 0.000000 0.500000
O O4 0.170441 0.734115 0.750000
O O5 0.109953 0.732488 0.474226
O O6 0.196715 0.773166 0.470161
O O7 0.210084 0.699060 0.483862
O O8 0.186656 0.888713 0.750000
O O9 0.109726 0.864584 0.547792
O O10 0.206483 0.850576 0.465130
O O11 0.159172 0.925214 0.467700
O O12 0.557436 0.747159 0.250000
O O13 0.500000 0.758767 0.972475
O O14 0.562632 0.700338 0.987492
O O15 0.938733 0.853205 0.250000
O O16 0.000000 0.857718 0.975333
O O17 0.217127 0.188481 0.250000
O O18 0.113801 0.048766 0.250000
O O19 0.123500 0.000000 0.000000
#
# Coordination Sequence:
#
# PCOD9469918 Si02
#       7
#     8  16  16  16  16  16  16
#     4   8  14  26  40  56  70  88 116 146 188 232
#     4   9  16  27  41  58  77 100 128 156 191 227
#     4  10  19  31  45  58  73  97 132 161 191 237
#     4   9  16  28  44  58  75 101 131 160 190 231
#     4  10  20  29  37  55  79  99 123 160 203 237
#     4   9  17  28  40  57  76  99 129 160 190 223
#     4   9  18  30  44  58  73  94 121 156 194 236
#
# _framework density 15.68201
#
# number of rings (size 3 to 8) (size 9 to 14) (size 15 to 20)
#    0.000    2.769    1.538    0.462    1.077    2.769 
#    0.000    0.000    0.000    0.000    0.000    0.000 
#    0.000    0.000    0.000    0.000    0.000    0.769 
#
# Total GULP energy -289787.952258 kJ/mol
# GULP energy per Si atom -5572.845236 kJ/mol
# Density = 1.564632 g / cm^3
# Si number density = 15.682010 Si / 1000 Ang^3
#
#
#
# Elastic Constant Matrix: (Units=GPa)
#
#
# Indices 1 2 3 4 5 6 
#
# 1 86.2206 52.3442 -0.4534 0.0000 0.0000 0.0000
# 2 52.3442 89.9442 1.2262 0.0000 0.0000 0.0000
# 3 -0.4534 1.2262 44.2866 0.0000 0.0000 0.0000
# 4 0.0000 0.0000 0.0000 10.7767 0.0000 0.0000
# 5 0.0000 0.0000 0.0000 0.0000 10.0580 0.0000
# 6 0.0000 0.0000 0.0000 0.0000 0.0000 31.3998
#
#
#
# Elastic Compliance Matrix: (Units=1/GPa)
#
#
# Indices 1 2 3 4 5 6 
#
# 1 0.017944 -0.010449 0.000473 0.000000 0.000000 0.000000
# 2 -0.010449 0.017207 -0.000583 0.000000 0.000000 0.000000
# 3 0.000473 -0.000583 0.022601 0.000000 0.000000 0.000000
# 4 0.000000 0.000000 0.000000 0.092792 0.000000 0.000000
# 5 0.000000 0.000000 0.000000 0.000000 0.099423 0.000000
# 6 0.000000 0.000000 0.000000 0.000000 0.000000 0.031847
#
#
# Mechanical properties :
#
#
# Convention : Reuss Voigt Hill
#
# Bulk Modulus (GPa) = 27.29772 36.29840 31.79806
# Shear Modulus (GPa) = 15.86565 21.60255 18.73410
#
# Velocity S-wave (km/s) = 3.18419 3.71555 3.46008
# Velocity P-wave (km/s) = 5.56449 6.45010 6.02359
#
# Compressibility (1/GPa) = 0.03663310
#
# Stress axis : x y z
#
# Youngs Moduli (GPa) = 55.72745 58.11530 44.24550
#
# Poissons Ratio (x) = 0.60727 -0.02093
# Poissons Ratio (y) = 0.58232 0.02581
# Poissons Ratio (z) = -0.02636 0.03391
#
# Static dielectric constant tensor:
#      x y z
#    x 1.548840 0.000000 0.000000 
#    y 0.000000 1.535700 0.000000 
#    z 0.000000 0.000000 1.586220 
# 
# From -- ./inp_files/13301.got.cif
#   From: 2010.05.17/outbox.cif.g08.bks.cpg/sg63_7_cif.got.tgz:13301.got - 2010.06.03 15:47:04.
