data_PCOD9469708
_publ_section_title
;
Structure prediction by ZEFSAII (Michael W. Deem and Ramdas Pophale) SiO2 
 PCOD9469708
Probable space group: C M C M
;
_chemical_formula_sum "Si O2"
_cell_formula_units_Z 72
_cell_length_a 15.745401
_cell_length_b 29.698711
_cell_length_c 7.391034
_cell_angle_alpha 90.000000
_cell_angle_beta 90.000000
_cell_angle_gamma 90.000000
_cell_volume 3456.181379
_symmetry_space_group_name_H-M "C M C M"
_symmetry_group_IT_number 63
_symmetry_cell_setting 'orthorhombic'
loop_
_space_group_symop_operation_xyz
x,y,z
-x,-y,1/2+z
x,-y,-z
-x,y,1/2-z
-x,-y,-z
x,y,1/2-z
-x,y,z
x,-y,1/2+z
1/2+x,1/2+y,z
1/2-x,1/2-y,1/2+z
1/2+x,1/2-y,-z
1/2-x,1/2+y,1/2-z
1/2-x,1/2-y,-z
1/2+x,1/2+y,1/2-z
1/2-x,1/2+y,z
1/2+x,1/2-y,1/2+z
loop_
_atom_site_type_symbol
_atom_site_label
_atom_site_fract_x
_atom_site_fract_y
_atom_site_fract_z
Si Si1 0.314663 0.052917 0.967389
Si Si2 0.500000 0.053599 0.965182
Si Si3 0.595772 0.291396 0.470224
Si Si4 0.768569 0.862318 0.042058
Si Si5 0.595660 0.187378 0.031071
O O1 0.317845 0.057751 0.750000
O O2 0.408218 0.067685 0.038074
O O3 0.244587 0.087810 0.036774
O O4 0.301024 0.000000 0.000000
O O5 0.500000 0.061832 0.750000
O O6 0.500000 0.000000 0.000000
O O7 0.599539 0.290214 0.250000
O O8 0.500000 0.304698 0.520631
O O9 0.665928 0.326356 0.537906
O O10 0.608543 0.239519 0.525681
O O11 0.796077 0.868125 0.250000
O O12 0.674596 0.840835 0.039003
O O13 0.597503 0.185733 0.250000
O O14 0.500000 0.173212 0.974881
#
# Coordination Sequence:
#
# PCOD9469708 Si02
#       5
#    16   8  16  16  16
#     4   9  18  30  44  63  88 117 150 186 227 269
#     4   8  14  26  40  54  78 110 138 172 212 256
#     4   8  15  30  49  68  93 123 155 189 226 273
#     4  10  19  29  48  73  92 118 156 196 232 265
#     4   9  18  31  46  67  97 129 154 180 222 277
#
# _framework density 20.832241
#
# number of rings (size 3 to 8) (size 9 to 14) (size 15 to 20)
#    0.000    3.111    0.000    2.000    1.556    1.333 
#    0.000    0.000    0.000    2.667    0.000    0.000 
#    0.000    0.000    0.000    0.000    0.000    0.000 
#
# Total GULP energy -200773.777275 kJ/mol
# GULP energy per Si atom -5577.049369 kJ/mol
# Density = 2.078483 g / cm^3
# Si number density = 20.832241 Si / 1000 Ang^3
#
#
#
# Elastic Constant Matrix: (Units=GPa)
#
#
# Indices 1 2 3 4 5 6 
#
# 1 65.1283 56.3514 -9.9612 0.0000 0.0000 0.0000
# 2 56.3514 100.4493 -6.9838 0.0000 0.0000 0.0000
# 3 -9.9612 -6.9838 76.7472 0.0000 0.0000 0.0000
# 4 0.0000 0.0000 0.0000 8.2803 0.0000 0.0000
# 5 0.0000 0.0000 0.0000 0.0000 7.3260 0.0000
# 6 0.0000 0.0000 0.0000 0.0000 0.0000 37.2867
#
#
#
# Elastic Compliance Matrix: (Units=1/GPa)
#
#
# Indices 1 2 3 4 5 6 
#
# 1 0.030269 -0.016814 0.002399 0.000000 0.000000 0.000000
# 2 -0.016814 0.019359 -0.000421 0.000000 0.000000 0.000000
# 3 0.002399 -0.000421 0.013303 0.000000 0.000000 0.000000
# 4 0.000000 0.000000 0.000000 0.120768 0.000000 0.000000
# 5 0.000000 0.000000 0.000000 0.000000 0.136501 0.000000
# 6 0.000000 0.000000 0.000000 0.000000 0.000000 0.026819
#
#
# Mechanical properties :
#
#
# Convention : Reuss Voigt Hill
#
# Bulk Modulus (GPa) = 30.06758 35.68197 32.87477
# Shear Modulus (GPa) = 12.89399 24.10650 18.50025
#
# Velocity S-wave (km/s) = 2.49056 3.40541 2.98326
# Velocity P-wave (km/s) = 4.76813 5.71208 5.26132
#
# Compressibility (1/GPa) = 0.03325841
#
# Stress axis : x y z
#
# Youngs Moduli (GPa) = 33.03662 51.65642 75.17197
#
# Poissons Ratio (x) = 0.86856 -0.18031
# Poissons Ratio (y) = 0.55548 0.03163
# Poissons Ratio (z) = -0.07924 0.02173
#
# Static dielectric constant tensor:
#      x y z
#    x 1.740950 0.000000 0.000000 
#    y 0.000000 1.766660 0.000000 
#    z 0.000000 0.000000 1.788820 
# 
# From -- ./inp_files/4649.got.cif
#   From: 2010.05.17/outbox.cif.g08.bks.cpg/sg63_3_cif.got.tgz:4649.got - 2010.06.03 15:47:04.
