data_PCOD9469984
_publ_section_title
;
Structure prediction by ZEFSAII (Michael W. Deem and Ramdas Pophale) SiO2 
 PCOD9469984
Probable space group: C M C M
;
_chemical_formula_sum "Si O2"
_cell_formula_units_Z 88
_cell_length_a 19.760951
_cell_length_b 28.398497
_cell_length_c 8.127345
_cell_angle_alpha 90.000000
_cell_angle_beta 90.000000
_cell_angle_gamma 90.000000
_cell_volume 4560.914095
_symmetry_space_group_name_H-M "C M C M"
_symmetry_group_IT_number 63
_symmetry_cell_setting 'orthorhombic'
loop_
_space_group_symop_operation_xyz
x,y,z
-x,-y,1/2+z
x,-y,-z
-x,y,1/2-z
-x,-y,-z
x,y,1/2-z
-x,y,z
x,-y,1/2+z
1/2+x,1/2+y,z
1/2-x,1/2-y,1/2+z
1/2+x,1/2-y,-z
1/2-x,1/2+y,1/2-z
1/2-x,1/2-y,-z
1/2+x,1/2+y,1/2-z
1/2-x,1/2+y,z
1/2+x,1/2-y,1/2+z
loop_
_atom_site_type_symbol
_atom_site_label
_atom_site_fract_x
_atom_site_fract_y
_atom_site_fract_z
Si Si1 0.670387 0.346701 0.053863
Si Si2 0.855306 0.415049 0.556748
Si Si3 0.422900 0.266262 0.451865
Si Si4 0.689860 0.807626 0.557530
Si Si5 0.500000 0.053710 0.448693
Si Si6 0.786184 0.948266 0.442019
O O1 0.664313 0.351409 0.250000
O O2 0.605566 0.317306 0.996025
O O3 0.682606 0.399491 0.984199
O O4 0.736676 0.314114 0.023283
O O5 0.852538 0.428418 0.750000
O O6 0.841450 0.359706 0.545586
O O7 0.929721 0.424972 0.490091
O O8 0.794268 0.442169 0.470291
O O9 0.423302 0.264457 0.250000
O O10 0.500000 0.257305 0.505200
O O11 0.366317 0.228566 0.507296
O O12 0.701492 0.796581 0.750000
O O13 0.500000 0.059166 0.250000
O O14 0.500000 0.000000 0.500000
O O15 0.800123 0.947065 0.250000
O O16 0.807878 0.000000 0.500000
#
# Coordination Sequence:
#
# PCOD9469984 Si02
#       6
#    16  16  16  16   8  16
#     4   9  18  32  49  71  98 126 156 194 237 280
#     4   9  18  30  44  65  92 120 153 192 231 272
#     4   9  17  29  49  75  99 125 159 195 231 277
#     4   9  17  29  49  73  95 124 159 194 230 273
#     4  10  20  30  40  56  84 120 154 190 229 268
#     4  10  19  31  48  68  90 117 153 195 237 280
#
# _framework density 19.294377999999998
#
# number of rings (size 3 to 8) (size 9 to 14) (size 15 to 20)
#    0.000    2.727    0.000    1.636    1.273    2.909 
#    0.000    0.000    0.000    2.727    0.000    0.000 
#    0.000    0.000    0.000    0.000    0.000    0.545 
#
# Total GULP energy -245166.642197 kJ/mol
# GULP energy per Si atom -5571.969141 kJ/mol
# Density = 1.925046 g / cm^3
# Si number density = 19.294378 Si / 1000 Ang^3
#
#
#
# Elastic Constant Matrix: (Units=GPa)
#
#
# Indices 1 2 3 4 5 6 
#
# 1 40.5370 29.7135 0.1977 0.0000 0.0000 0.0000
# 2 29.7135 94.4038 14.7561 0.0000 0.0000 0.0000
# 3 0.1977 14.7561 7.3605 0.0000 0.0000 0.0000
# 4 0.0000 0.0000 0.0000 11.8419 0.0000 0.0000
# 5 0.0000 0.0000 0.0000 0.0000 12.9816 0.0000
# 6 0.0000 0.0000 0.0000 0.0000 0.0000 12.0185
#
#
#
# Elastic Compliance Matrix: (Units=1/GPa)
#
#
# Indices 1 2 3 4 5 6 
#
# 1 0.036667 -0.016584 0.032261 0.000000 0.000000 0.000000
# 2 -0.016584 0.022927 -0.045519 0.000000 0.000000 0.000000
# 3 0.032261 -0.045519 0.226249 0.000000 0.000000 0.000000
# 4 0.000000 0.000000 0.000000 0.084446 0.000000 0.000000
# 5 0.000000 0.000000 0.000000 0.000000 0.077032 0.000000
# 6 0.000000 0.000000 0.000000 0.000000 0.000000 0.083205
#
#
# Mechanical properties :
#
#
# Convention : Reuss Voigt Hill
#
# Bulk Modulus (GPa) = 4.42162 25.73732 15.07947
# Shear Modulus (GPa) = 7.51206 13.87733 10.69470
#
# Velocity S-wave (km/s) = 1.97531 2.68478 2.35689
# Velocity P-wave (km/s) = 2.73845 4.79364 3.90372
#
# Compressibility (1/GPa) = 0.22616142
#
# Stress axis : x y z
#
# Youngs Moduli (GPa) = 27.27236 43.61586 4.41991
#
# Poissons Ratio (x) = 0.72331 -0.14259
# Poissons Ratio (y) = 0.45228 0.20119
# Poissons Ratio (z) = -0.87984 1.98534
#
# Static dielectric constant tensor:
#      x y z
#    x 1.632060 0.000000 0.000000 
#    y 0.000000 1.710660 0.000000 
#    z 0.000000 0.000000 1.697310 
# 
# From -- ./inp_files/6786.got.cif
#   From: 2010.05.17/outbox.cif.g08.bks.cpg/sg63_4_cif.got.tgz:6786.got - 2010.06.03 15:47:04.
