data_PCOD9469955
_publ_section_title
;
Structure prediction by ZEFSAII (Michael W. Deem and Ramdas Pophale) SiO2 
 PCOD9469955
Probable space group: C M C M
;
_chemical_formula_sum "Si O2"
_cell_formula_units_Z 88
_cell_length_a 20.741600
_cell_length_b 31.252531
_cell_length_c 8.357402
_cell_angle_alpha 90.000000
_cell_angle_beta 90.000000
_cell_angle_gamma 90.000000
_cell_volume 5417.497780
_symmetry_space_group_name_H-M "C M C M"
_symmetry_group_IT_number 63
_symmetry_cell_setting 'orthorhombic'
loop_
_space_group_symop_operation_xyz
x,y,z
-x,-y,1/2+z
x,-y,-z
-x,y,1/2-z
-x,-y,-z
x,y,1/2-z
-x,y,z
x,-y,1/2+z
1/2+x,1/2+y,z
1/2-x,1/2-y,1/2+z
1/2+x,1/2-y,-z
1/2-x,1/2+y,1/2-z
1/2-x,1/2-y,-z
1/2+x,1/2+y,1/2-z
1/2-x,1/2+y,z
1/2+x,1/2-y,1/2+z
loop_
_atom_site_type_symbol
_atom_site_label
_atom_site_fract_x
_atom_site_fract_y
_atom_site_fract_z
Si Si1 0.572027 0.330513 0.060563
Si Si2 0.788408 0.707660 0.444995
Si Si3 0.642379 0.451771 0.059941
Si Si4 0.000000 0.049229 0.943301
Si Si5 0.430025 0.227680 0.059113
Si Si6 0.798693 0.129889 0.436663
O O1 0.580556 0.340598 0.250000
O O2 0.500000 0.345305 0.015088
O O3 0.573156 0.279142 0.043712
O O4 0.631382 0.348990 0.964696
O O5 0.788070 0.708260 0.250000
O O6 0.750000 0.750000 0.500000
O O7 0.862491 0.709516 0.502645
O O8 0.752108 0.664722 0.500902
O O9 0.639233 0.453576 0.250000
O O10 0.570953 0.435825 0.001721
O O11 0.653240 0.500000 0.000000
O O12 0.695253 0.417044 0.011292
O O13 0.000000 0.052650 0.750000
O O14 0.000000 0.000000 0.000000
O O15 0.431150 0.218945 0.250000
O O16 0.500000 0.213707 0.992961
O O17 0.786015 0.124682 0.250000
#
# Coordination Sequence:
#
# PCOD9469955 Si02
#       6
#    16  16  16   8  16  16
#     4   9  17  29  45  63  85 119 163 200 229 267
#     4  10  19  31  47  67  94 123 155 193 230 272
#     4  10  20  35  51  66  87 117 153 195 234 275
#     4   8  16  30  48  66  82 108 148 190 232 266
#     4   8  14  27  47  66  85 117 159 197 229 263
#     4  11  22  31  43  68  95 123 153 189 237 283
#
# _framework density 16.243660999999999
#
# number of rings (size 3 to 8) (size 9 to 14) (size 15 to 20)
#    0.000    2.545    1.818    2.182    1.273    1.818 
#    0.000    0.000    0.000    0.545    0.000    0.000 
#    0.000    0.727    0.000    1.273    0.000    1.818 
#
# Total GULP energy -245147.978938 kJ/mol
# GULP energy per Si atom -5571.544976 kJ/mol
# Density = 1.620669 g / cm^3
# Si number density = 16.243661 Si / 1000 Ang^3
#
#
#
# Elastic Constant Matrix: (Units=GPa)
#
#
# Indices 1 2 3 4 5 6 
#
# 1 115.9536 62.1941 9.9730 0.0000 0.0000 0.0000
# 2 62.1941 94.8998 19.2908 0.0000 0.0000 0.0000
# 3 9.9730 19.2908 10.2284 0.0000 0.0000 0.0000
# 4 0.0000 0.0000 0.0000 20.0208 0.0000 0.0000
# 5 0.0000 0.0000 0.0000 0.0000 12.6522 0.0000
# 6 0.0000 0.0000 0.0000 0.0000 0.0000 26.3877
#
#
#
# Elastic Compliance Matrix: (Units=1/GPa)
#
#
# Indices 1 2 3 4 5 6 
#
# 1 0.013502 -0.010010 0.005715 0.000000 0.000000 0.000000
# 2 -0.010010 0.024511 -0.036467 0.000000 0.000000 0.000000
# 3 0.005715 -0.036467 0.160971 0.000000 0.000000 0.000000
# 4 0.000000 0.000000 0.000000 0.049948 0.000000 0.000000
# 5 0.000000 0.000000 0.000000 0.000000 0.079037 0.000000
# 6 0.000000 0.000000 0.000000 0.000000 0.000000 0.037896
#
#
# Mechanical properties :
#
#
# Convention : Reuss Voigt Hill
#
# Bulk Modulus (GPa) = 8.51359 44.88863 26.70111
# Shear Modulus (GPa) = 10.27657 20.45375 15.36516
#
# Velocity S-wave (km/s) = 2.51798 3.55235 3.07891
# Velocity P-wave (km/s) = 3.70219 6.67234 5.39566
#
# Compressibility (1/GPa) = 0.11745929
#
# Stress axis : x y z
#
# Youngs Moduli (GPa) = 74.06372 40.79843 6.21228
#
# Poissons Ratio (x) = 0.40841 -0.03550
# Poissons Ratio (y) = 0.74141 0.22654
# Poissons Ratio (z) = -0.42327 1.48780
#
# Static dielectric constant tensor:
#      x y z
#    x 1.579310 0.000000 0.000000 
#    y 0.000000 1.556640 0.000000 
#    z 0.000000 0.000000 1.682490 
# 
# From -- ./inp_files/8950.got.cif
#   From: 2010.05.17/outbox.cif.g08.bks.cpg/sg63_5_cif.got.tgz:8950.got - 2010.06.03 15:47:04.
