data_PCOD9469346
_publ_section_title
;
Structure prediction by ZEFSAII (Michael W. Deem and Ramdas Pophale) SiO2 
 PCOD9469346
Probable space group: C M C M
;
_chemical_formula_sum "Si O2"
_cell_formula_units_Z 88
_cell_length_a 18.617605
_cell_length_b 30.220550
_cell_length_c 8.800619
_cell_angle_alpha 90.000000
_cell_angle_beta 90.000000
_cell_angle_gamma 90.000000
_cell_volume 4951.529783
_symmetry_space_group_name_H-M "C M C M"
_symmetry_group_IT_number 63
_symmetry_cell_setting 'orthorhombic'
loop_
_space_group_symop_operation_xyz
x,y,z
-x,-y,1/2+z
x,-y,-z
-x,y,1/2-z
-x,-y,-z
x,y,1/2-z
-x,y,z
x,-y,1/2+z
1/2+x,1/2+y,z
1/2-x,1/2-y,1/2+z
1/2+x,1/2-y,-z
1/2-x,1/2+y,1/2-z
1/2-x,1/2-y,-z
1/2+x,1/2+y,1/2-z
1/2-x,1/2+y,z
1/2+x,1/2-y,1/2+z
loop_
_atom_site_type_symbol
_atom_site_label
_atom_site_fract_x
_atom_site_fract_y
_atom_site_fract_z
Si Si1 0.584635 0.742999 0.575508
Si Si2 0.775919 0.116086 0.567362
Si Si3 0.794039 0.290853 0.431300
Si Si4 0.148722 0.450701 0.433128
Si Si5 0.000000 0.449910 0.932773
Si Si6 0.582283 0.353843 0.931762
O O1 0.609472 0.739675 0.750000
O O2 0.500000 0.750921 0.573682
O O3 0.626379 0.781772 0.491397
O O4 0.596662 0.695455 0.496660
O O5 0.784097 0.116419 0.750000
O O6 0.739574 0.162629 0.520642
O O7 0.719099 0.077894 0.528454
O O8 0.854833 0.114929 0.494466
O O9 0.792628 0.288877 0.250000
O O10 0.750000 0.250000 0.500000
O O11 0.156729 0.500000 0.500000
O O12 0.141184 0.452505 0.250000
O O13 0.075034 0.430845 0.503782
O O14 0.000000 0.450745 0.750000
O O15 0.000000 0.500000 0.000000
O O16 0.585490 0.352308 0.750000
O O17 0.500000 0.365653 0.976375
#
# Coordination Sequence:
#
# PCOD9469346 Si02
#       6
#    16  16  16  16   8  16
#     4  10  20  34  51  71 101 141 181 221 264 311
#     4  10  22  37  55  79 108 142 178 217 271 325
#     4  11  21  34  52  76 105 141 179 220 266 315
#     4  10  20  37  59  83 110 141 178 222 267 320
#     4  10  18  32  56  84 110 142 178 218 264 316
#     4  10  20  33  53  80 106 137 180 225 265 313
#
# _framework density 17.772286000000001
#
# number of rings (size 3 to 8) (size 9 to 14) (size 15 to 20)
#    0.000    1.818    1.818    4.091    0.000    4.364 
#    1.636    0.000    0.000    0.545    0.000    0.000 
#    0.000    0.000    0.000    0.000    0.000    0.000 
#
# Total GULP energy -245525.679153 kJ/mol
# GULP energy per Si atom -5580.129072 kJ/mol
# Density = 1.773184 g / cm^3
# Si number density = 17.772286 Si / 1000 Ang^3
#
#
#
# Elastic Constant Matrix: (Units=GPa)
#
#
# Indices 1 2 3 4 5 6 
#
# 1 153.4388 53.9741 54.5523 0.0000 0.0000 0.0000
# 2 53.9741 60.5512 29.3114 0.0000 0.0000 0.0000
# 3 54.5523 29.3114 70.1888 0.0000 0.0000 0.0000
# 4 0.0000 0.0000 0.0000 20.8234 0.0000 0.0000
# 5 0.0000 0.0000 0.0000 0.0000 36.1728 0.0000
# 6 0.0000 0.0000 0.0000 0.0000 0.0000 32.6695
#
#
#
# Elastic Compliance Matrix: (Units=1/GPa)
#
#
# Indices 1 2 3 4 5 6 
#
# 1 0.011001 -0.007103 -0.005584 0.000000 0.000000 0.000000
# 2 -0.007103 0.025286 -0.005039 0.000000 0.000000 0.000000
# 3 -0.005584 -0.005039 0.020692 0.000000 0.000000 0.000000
# 4 0.000000 0.000000 0.000000 0.048023 0.000000 0.000000
# 5 0.000000 0.000000 0.000000 0.000000 0.027645 0.000000
# 6 0.000000 0.000000 0.000000 0.000000 0.000000 0.030610
#
#
# Mechanical properties :
#
#
# Convention : Reuss Voigt Hill
#
# Bulk Modulus (GPa) = 46.45434 62.20604 54.33019
# Shear Modulus (GPa) = 24.28559 27.68921 25.98740
#
# Velocity S-wave (km/s) = 3.70061 3.95143 3.82808
# Velocity P-wave (km/s) = 6.66744 7.47637 7.08346
#
# Compressibility (1/GPa) = 0.02152651
#
# Stress axis : x y z
#
# Youngs Moduli (GPa) = 90.89948 39.54803 48.32882
#
# Poissons Ratio (x) = 0.28091 0.26987
# Poissons Ratio (y) = 0.64567 0.24352
# Poissons Ratio (z) = 0.50759 0.19928
#
# Static dielectric constant tensor:
#      x y z
#    x 1.678850 0.000000 0.000000 
#    y 0.000000 1.581920 0.000000 
#    z 0.000000 0.000000 1.601260 
# 
# From -- ./inp_files/6791.got.cif
#   From: 2010.05.17/outbox.cif.g08.bks.cpg/sg63_4_cif.got.tgz:6791.got - 2010.06.03 15:47:04.
