data_PCOD9469169
_publ_section_title
;
Structure prediction by ZEFSAII (Michael W. Deem and Ramdas Pophale) SiO2 
 PCOD9469169
Probable space group: C M C M
;
_chemical_formula_sum "Si O2"
_cell_formula_units_Z 120
_cell_length_a 20.314521
_cell_length_b 18.451473
_cell_length_c 18.749408
_cell_angle_alpha 90.000000
_cell_angle_beta 90.000000
_cell_angle_gamma 90.000000
_cell_volume 7027.893769
_symmetry_space_group_name_H-M "C M C M"
_symmetry_group_IT_number 63
_symmetry_cell_setting 'orthorhombic'
loop_
_space_group_symop_operation_xyz
x,y,z
-x,-y,1/2+z
x,-y,-z
-x,y,1/2-z
-x,-y,-z
x,y,1/2-z
-x,y,z
x,-y,1/2+z
1/2+x,1/2+y,z
1/2-x,1/2-y,1/2+z
1/2+x,1/2-y,-z
1/2-x,1/2+y,1/2-z
1/2-x,1/2-y,-z
1/2+x,1/2+y,1/2-z
1/2-x,1/2+y,z
1/2+x,1/2-y,1/2+z
loop_
_atom_site_type_symbol
_atom_site_label
_atom_site_fract_x
_atom_site_fract_y
_atom_site_fract_z
Si Si1 0.809533 0.230126 0.834635
Si Si2 0.866681 0.000000 0.000000
Si Si3 0.355467 0.919776 0.523558
Si Si4 0.788522 0.457392 0.670639
Si Si5 0.814923 0.835582 0.830216
Si Si6 0.424648 0.350019 0.947601
Si Si7 0.239061 0.914419 0.409197
Si Si8 0.075992 0.722846 0.436132
O O1 0.819030 0.218419 0.750000
O O2 0.746156 0.281886 0.843701
O O3 0.791714 0.157510 0.877254
O O4 0.873473 0.264912 0.871346
O O5 0.817867 0.965177 0.058469
O O6 0.908700 0.067913 0.027882
O O7 0.331522 0.929030 0.605014
O O8 0.292282 0.903361 0.472775
O O9 0.403624 0.851209 0.523023
O O10 0.380275 0.000000 0.500000
O O11 0.815938 0.445583 0.750000
O O12 0.719752 0.414052 0.667547
O O13 0.774969 0.540946 0.653214
O O14 0.839491 0.822452 0.750000
O O15 0.871795 0.830015 0.887578
O O16 0.500000 0.345788 0.922512
O O17 0.417090 0.292166 0.011588
O O18 0.000000 0.718423 0.413484
#
# Coordination Sequence:
#
# PCOD9469169 Si02
#       8
#    16   8  16  16  16  16  16  16
#     4  11  23  37  58  84 113 150 188 235 291 343
#     4  12  19  34  56  84 111 148 192 228 275 332
#     4  10  20  35  58  86 112 147 184 236 297 339
#     4  10  18  31  53  83 113 140 176 226 280 333
#     4  10  20  35  57  83 107 139 186 231 276 333
#     4  11  23  38  56  80 115 154 189 230 278 334
#     4  11  19  34  57  85 115 144 187 236 281 334
#     4  11  24  38  56  81 112 152 193 237 286 341
#
# _framework density 17.074816999999999
#
# number of rings (size 3 to 8) (size 9 to 14) (size 15 to 20)
#    0.000    1.333    6.000    1.400    0.000    1.867 
#    0.000    0.000    0.000    0.000    0.000    0.000 
#    0.000    0.000    0.000    0.000    0.000    0.000 
#
# Total GULP energy -334636.314516 kJ/mol
# GULP energy per Si atom -5577.271909 kJ/mol
# Density = 1.703595 g / cm^3
# Si number density = 17.074817 Si / 1000 Ang^3
#
#
#
# Elastic Constant Matrix: (Units=GPa)
#
#
# Indices 1 2 3 4 5 6 
#
# 1 85.3207 46.0248 54.5119 0.0000 0.0000 0.0000
# 2 46.0248 107.9141 45.9693 0.0000 0.0000 0.0000
# 3 54.5119 45.9693 107.1341 0.0000 0.0000 0.0000
# 4 0.0000 0.0000 0.0000 17.5576 0.0000 0.0000
# 5 0.0000 0.0000 0.0000 0.0000 13.6888 0.0000
# 6 0.0000 0.0000 0.0000 0.0000 0.0000 21.9880
#
#
#
# Elastic Compliance Matrix: (Units=1/GPa)
#
#
# Indices 1 2 3 4 5 6 
#
# 1 0.019315 -0.004957 -0.007701 0.000000 0.000000 0.000000
# 2 -0.004957 0.012612 -0.002889 0.000000 0.000000 0.000000
# 3 -0.007701 -0.002889 0.014492 0.000000 0.000000 0.000000
# 4 0.000000 0.000000 0.000000 0.056955 0.000000 0.000000
# 5 0.000000 0.000000 0.000000 0.000000 0.073053 0.000000
# 6 0.000000 0.000000 0.000000 0.000000 0.000000 0.045479
#
#
# Mechanical properties :
#
#
# Convention : Reuss Voigt Hill
#
# Bulk Modulus (GPa) = 65.25576 65.93120 65.59348
# Shear Modulus (GPa) = 19.37180 20.90439 20.13810
#
# Velocity S-wave (km/s) = 3.37192 3.50277 3.43797
# Velocity P-wave (km/s) = 7.31166 7.41998 7.36602
#
# Compressibility (1/GPa) = 0.01532432
#
# Stress axis : x y z
#
# Youngs Moduli (GPa) = 51.77453 79.29240 69.00408
#
# Poissons Ratio (x) = 0.39307 0.53137
# Poissons Ratio (y) = 0.25666 0.19935
# Poissons Ratio (z) = 0.39869 0.22908
#
# Static dielectric constant tensor:
#      x y z
#    x 1.550380 0.000000 0.000000 
#    y 0.000000 1.612870 0.000000 
#    z 0.000000 0.000000 1.577670 
# 
# From -- ./inp_files/46176.got.cif
#   From: 2010.05.17/outbox.cif.g08.bks.cpg/sg63_24_cif.got.tgz:46176.got - 2010.06.03 15:47:04.
