data_PCOD9469284
_publ_section_title
;
Structure prediction by ZEFSAII (Michael W. Deem and Ramdas Pophale) SiO2 
 PCOD9469284
Probable space group: C M C M
;
_chemical_formula_sum "Si O2"
_cell_formula_units_Z 80
_cell_length_a 8.667958
_cell_length_b 27.705812
_cell_length_c 19.063764
_cell_angle_alpha 90.000000
_cell_angle_beta 90.000000
_cell_angle_gamma 90.000000
_cell_volume 4578.216585
_symmetry_space_group_name_H-M "C M C M"
_symmetry_group_IT_number 63
_symmetry_cell_setting 'orthorhombic'
loop_
_space_group_symop_operation_xyz
x,y,z
-x,-y,1/2+z
x,-y,-z
-x,y,1/2-z
-x,-y,-z
x,y,1/2-z
-x,y,z
x,-y,1/2+z
1/2+x,1/2+y,z
1/2-x,1/2-y,1/2+z
1/2+x,1/2-y,-z
1/2-x,1/2+y,1/2-z
1/2-x,1/2-y,-z
1/2+x,1/2+y,1/2-z
1/2-x,1/2+y,z
1/2+x,1/2-y,1/2+z
loop_
_atom_site_type_symbol
_atom_site_label
_atom_site_fract_x
_atom_site_fract_y
_atom_site_fract_z
Si Si1 0.187328 0.574904 0.750000
Si Si2 0.684391 0.224567 0.607404
Si Si3 0.187407 0.525233 0.606325
Si Si4 0.683253 0.316976 0.250000
Si Si5 0.686463 0.925924 0.539778
Si Si6 0.184166 0.822790 0.970133
O O1 0.239665 0.547464 0.679576
O O2 0.245591 0.629459 0.750000
O O3 0.000000 0.575584 0.750000
O O4 0.500000 0.221273 0.613753
O O5 0.760144 0.210188 0.680338
O O6 0.739547 0.189262 0.545137
O O7 0.725852 0.278492 0.581314
O O8 0.233778 0.470123 0.590244
O O9 0.232074 0.557401 0.539020
O O10 0.000000 0.525210 0.606862
O O11 0.500000 0.320352 0.250000
O O12 0.500000 0.922269 0.541468
O O13 0.758636 0.874444 0.556019
O O14 0.000000 0.822663 0.978306
#
# Coordination Sequence:
#
# PCOD9469284 Si02
#       6
#     8  16  16   8  16  16
#     4  10  18  32  53  74  99 133 170 207 253 304
#     4  10  21  37  55  75 104 141 175 208 255 314
#     4   8  16  29  48  73  98 130 173 209 239 297
#     4  12  24  36  53  80 109 133 168 217 261 304
#     4   9  16  30  50  71  99 135 171 206 249 300
#     4  10  20  34  54  80 105 132 173 220 261 303
#
# _framework density 17.474052
#
# number of rings (size 3 to 8) (size 9 to 14) (size 15 to 20)
#    0.000    2.400    0.000    4.500    0.000    4.000 
#    0.000    4.000    0.000    1.200    0.000    0.000 
#    0.000    0.000    0.000    0.000    0.000    0.000 
#
# Total GULP energy -223210.733236 kJ/mol
# GULP energy per Si atom -5580.268331 kJ/mol
# Density = 1.743428 g / cm^3
# Si number density = 17.474052 Si / 1000 Ang^3
#
#
#
# Elastic Constant Matrix: (Units=GPa)
#
#
# Indices 1 2 3 4 5 6 
#
# 1 30.0651 27.2761 30.6011 0.0000 0.0000 0.0000
# 2 27.2761 122.1083 59.0522 0.0000 0.0000 0.0000
# 3 30.6011 59.0522 128.8294 0.0000 0.0000 0.0000
# 4 0.0000 0.0000 0.0000 13.2612 0.0000 0.0000
# 5 0.0000 0.0000 0.0000 0.0000 18.8378 0.0000
# 6 0.0000 0.0000 0.0000 0.0000 0.0000 27.9357
#
#
#
# Elastic Compliance Matrix: (Units=1/GPa)
#
#
# Indices 1 2 3 4 5 6 
#
# 1 0.047734 -0.006654 -0.008288 0.000000 0.000000 0.000000
# 2 -0.006654 0.011450 -0.003668 0.000000 0.000000 0.000000
# 3 -0.008288 -0.003668 0.011412 0.000000 0.000000 0.000000
# 4 0.000000 0.000000 0.000000 0.075408 0.000000 0.000000
# 5 0.000000 0.000000 0.000000 0.000000 0.053085 0.000000
# 6 0.000000 0.000000 0.000000 0.000000 0.000000 0.035797
#
#
# Mechanical properties :
#
#
# Convention : Reuss Voigt Hill
#
# Bulk Modulus (GPa) = 29.96214 57.20684 43.58449
# Shear Modulus (GPa) = 17.65348 22.94517 20.29932
#
# Velocity S-wave (km/s) = 3.18192 3.62760 3.41205
# Velocity P-wave (km/s) = 5.53926 7.09614 6.36548
#
# Compressibility (1/GPa) = 0.03337545
#
# Stress axis : x y z
#
# Youngs Moduli (GPa) = 20.94931 87.33976 87.62696
#
# Poissons Ratio (x) = 0.58120 0.72627
# Poissons Ratio (y) = 0.13941 0.32137
# Poissons Ratio (z) = 0.17363 0.32032
#
# Static dielectric constant tensor:
#      x y z
#    x 1.588200 0.000000 0.000000 
#    y 0.000000 1.584820 0.000000 
#    z 0.000000 0.000000 1.575470 
# 
# From -- ./inp_files/40586.got.cif
#   From: 2010.05.17/outbox.cif.g08.bks.cpg/sg63_21_cif.got.tgz:40586.got - 2010.06.03 15:47:04.
