data_PCOD9469347
_publ_section_title
;
Structure prediction by ZEFSAII (Michael W. Deem and Ramdas Pophale) SiO2 
 PCOD9469347
Probable space group: C M C M
;
_chemical_formula_sum "Si O2"
_cell_formula_units_Z 104
_cell_length_a 19.405910
_cell_length_b 30.367548
_cell_length_c 8.692948
_cell_angle_alpha 90.000000
_cell_angle_beta 90.000000
_cell_angle_gamma 90.000000
_cell_volume 5122.840346
_symmetry_space_group_name_H-M "C M C M"
_symmetry_group_IT_number 63
_symmetry_cell_setting 'orthorhombic'
loop_
_space_group_symop_operation_xyz
x,y,z
-x,-y,1/2+z
x,-y,-z
-x,y,1/2-z
-x,-y,-z
x,y,1/2-z
-x,y,z
x,-y,1/2+z
1/2+x,1/2+y,z
1/2-x,1/2-y,1/2+z
1/2+x,1/2-y,-z
1/2-x,1/2+y,1/2-z
1/2-x,1/2-y,-z
1/2+x,1/2+y,1/2-z
1/2-x,1/2+y,z
1/2+x,1/2-y,1/2+z
loop_
_atom_site_type_symbol
_atom_site_label
_atom_site_fract_x
_atom_site_fract_y
_atom_site_fract_z
Si Si1 0.578476 0.292213 0.072004
Si Si2 0.000000 0.565177 0.069171
Si Si3 0.500000 0.450628 0.935904
Si Si4 0.500000 0.157308 0.925281
Si Si5 0.381922 0.382546 0.932312
Si Si6 0.768787 0.627772 0.933818
Si Si7 0.849686 0.544873 0.065270
Si Si8 0.643421 0.789833 0.430336
O O1 0.589642 0.304452 0.250000
O O2 0.500000 0.274783 0.057995
O O3 0.583860 0.335545 0.968942
O O4 0.632798 0.255180 0.022133
O O5 0.928319 0.547713 0.004155
O O6 0.000000 0.555216 0.250000
O O7 0.000000 0.617394 0.043127
O O8 0.500000 0.452457 0.750000
O O9 0.432961 0.421862 0.982292
O O10 0.500000 0.500000 0.000000
O O11 0.500000 0.139241 0.750000
O O12 0.430165 0.185043 0.941971
O O13 0.370243 0.386996 0.750000
O O14 0.309490 0.380562 0.018865
O O15 0.777069 0.626168 0.750000
O O16 0.798697 0.675471 0.983761
O O17 0.812684 0.588754 0.008596
O O18 0.849177 0.543793 0.250000
O O19 0.817670 0.500000 0.000000
O O20 0.654936 0.779701 0.250000
#
# Coordination Sequence:
#
# PCOD9469347 Si02
#       8
#    16   8   8   8  16  16  16  16
#     4  11  23  38  63  97 128 163 209 262 316 371
#     4  10  21  35  56  85 117 155 205 259 307 354
#     4  10  24  45  74 105 128 158 204 258 319 387
#     4  10  18  32  56  84 116 159 208 253 298 349
#     4  11  24  45  69  95 128 165 204 253 316 387
#     4  11  24  42  63  91 127 168 211 260 317 382
#     4  11  23  39  59  86 120 163 211 262 317 373
#     4  10  21  37  60  90 126 169 214 257 308 369
#
# _framework density 20.301238000000001
#
# number of rings (size 3 to 8) (size 9 to 14) (size 15 to 20)
#    0.000    1.385    3.077    2.077    0.000    5.538 
#    0.000    1.538    0.000    0.000    0.000    0.000 
#    0.000    0.000    0.000    0.000    0.000    0.000 
#
# Total GULP energy -290542.544159 kJ/mol
# GULP energy per Si atom -5587.356618 kJ/mol
# Density = 2.025503 g / cm^3
# Si number density = 20.301238 Si / 1000 Ang^3
#
#
#
# Elastic Constant Matrix: (Units=GPa)
#
#
# Indices 1 2 3 4 5 6 
#
# 1 97.1073 35.9675 16.9248 0.0000 0.0000 0.0000
# 2 35.9675 116.8106 23.4956 0.0000 0.0000 0.0000
# 3 16.9248 23.4956 34.0714 0.0000 0.0000 0.0000
# 4 0.0000 0.0000 0.0000 35.6554 0.0000 0.0000
# 5 0.0000 0.0000 0.0000 0.0000 20.0859 0.0000
# 6 0.0000 0.0000 0.0000 0.0000 0.0000 2.2341
#
#
#
# Elastic Compliance Matrix: (Units=1/GPa)
#
#
# Indices 1 2 3 4 5 6 
#
# 1 0.012073 -0.002915 -0.003986 0.000000 0.000000 0.000000
# 2 -0.002915 0.010644 -0.005892 0.000000 0.000000 0.000000
# 3 -0.003986 -0.005892 0.035393 0.000000 0.000000 0.000000
# 4 0.000000 0.000000 0.000000 0.028046 0.000000 0.000000
# 5 0.000000 0.000000 0.000000 0.000000 0.049786 0.000000
# 6 0.000000 0.000000 0.000000 0.000000 0.000000 0.447609
#
#
# Mechanical properties :
#
#
# Convention : Reuss Voigt Hill
#
# Bulk Modulus (GPa) = 30.74807 44.52946 37.63877
# Shear Modulus (GPa) = 8.06480 23.03516 15.54998
#
# Velocity S-wave (km/s) = 1.99529 3.37214 2.77060
# Velocity P-wave (km/s) = 4.52626 6.09457 5.36800
#
# Compressibility (1/GPa) = 0.03252237
#
# Stress axis : x y z
#
# Youngs Moduli (GPa) = 82.83264 93.95290 28.25393
#
# Poissons Ratio (x) = 0.27391 0.11263
# Poissons Ratio (y) = 0.24149 0.16646
# Poissons Ratio (z) = 0.33021 0.55353
#
# Static dielectric constant tensor:
#      x y z
#    x 1.751210 0.000000 0.000000 
#    y 0.000000 1.715780 0.000000 
#    z 0.000000 0.000000 1.688140 
# 
# From -- ./inp_files/9196.got.cif
#   From: 2010.05.17/outbox.cif.g08.bks.cpg/sg63_5_cif.got.tgz:9196.got - 2010.06.03 15:47:04.
