data_PCOD9469174
_publ_section_title
;
Structure prediction by ZEFSAII (Michael W. Deem and Ramdas Pophale) SiO2 
 PCOD9469174
Probable space group: C M C M
;
_chemical_formula_sum "Si O2"
_cell_formula_units_Z 96
_cell_length_a 7.619315
_cell_length_b 25.802795
_cell_length_c 24.492690
_cell_angle_alpha 90.000000
_cell_angle_beta 90.000000
_cell_angle_gamma 90.000000
_cell_volume 4815.253620
_symmetry_space_group_name_H-M "C M C M"
_symmetry_group_IT_number 63
_symmetry_cell_setting 'orthorhombic'
loop_
_space_group_symop_operation_xyz
x,y,z
-x,-y,1/2+z
x,-y,-z
-x,y,1/2-z
-x,-y,-z
x,y,1/2-z
-x,y,z
x,-y,1/2+z
1/2+x,1/2+y,z
1/2-x,1/2-y,1/2+z
1/2+x,1/2-y,-z
1/2-x,1/2+y,1/2-z
1/2-x,1/2-y,-z
1/2+x,1/2+y,1/2-z
1/2-x,1/2+y,z
1/2+x,1/2-y,1/2+z
loop_
_atom_site_type_symbol
_atom_site_label
_atom_site_fract_x
_atom_site_fract_y
_atom_site_fract_z
Si Si1 0.794176 0.012297 0.632717
Si Si2 0.294636 0.890494 0.435629
Si Si3 0.214385 0.179633 0.132233
Si Si4 0.787303 0.081326 0.058478
Si Si5 0.285279 0.521049 0.250000
Si Si6 0.213971 0.142222 0.250000
Si Si7 0.788900 0.273601 0.440612
O O1 0.779568 0.069114 0.607730
O O2 0.000000 0.999458 0.636876
O O3 0.722640 0.969880 0.589873
O O4 0.722431 0.004737 0.693697
O O5 0.500000 0.886870 0.423840
O O6 0.272287 0.913124 0.496441
O O7 0.220088 0.832122 0.435200
O O8 0.266166 0.131641 0.093508
O O9 0.272459 0.169027 0.193984
O O10 0.274401 0.233050 0.104897
O O11 0.000000 0.179890 0.132572
O O12 0.000000 0.080418 0.056524
O O13 0.500000 0.518664 0.250000
O O14 0.236769 0.581703 0.250000
O O15 0.000000 0.143208 0.250000
O O16 0.750000 0.250000 0.500000
O O17 0.000000 0.275966 0.436290
#
# Coordination Sequence:
#
# PCOD9469174 Si02
#       7
#    16  16  16  16   8   8  16
#     4  10  20  34  54  79 104 132 172 218 261 308
#     4  11  23  35  48  73 110 146 176 206 251 313
#     4   9  16  28  50  79 105 125 159 213 266 303
#     4  10  18  31  54  80 103 130 169 216 262 307
#     4   9  16  30  52  79 103 125 165 216 261 308
#     4   9  14  26  51  81 105 123 155 218 275 300
#     4  10  20  34  52  75 102 135 174 212 253 305
#
# _framework density 19.936644999999999
#
# number of rings (size 3 to 8) (size 9 to 14) (size 15 to 20)
#    0.000    2.167    3.333    1.000    0.000    3.333 
#    0.000    1.250    0.000    2.000    0.000    2.333 
#    0.000    0.000    0.000    0.000    0.000    0.000 
#
# Total GULP energy -268011.687550 kJ/mol
# GULP energy per Si atom -5583.576824 kJ/mol
# Density = 1.989127 g / cm^3
# Si number density = 19.936645 Si / 1000 Ang^3
#
#
#
# Elastic Constant Matrix: (Units=GPa)
#
#
# Indices 1 2 3 4 5 6 
#
# 1 33.8542 -7.2689 -9.7301 0.0000 0.0000 0.0000
# 2 -7.2689 154.9102 88.3829 0.0000 0.0000 0.0000
# 3 -9.7301 88.3829 168.3966 0.0000 0.0000 0.0000
# 4 0.0000 0.0000 0.0000 35.3336 0.0000 0.0000
# 5 0.0000 0.0000 0.0000 0.0000 -7.2164 0.0000
# 6 0.0000 0.0000 0.0000 0.0000 0.0000 13.3508
#
#
#
# Elastic Compliance Matrix: (Units=1/GPa)
#
#
# Indices 1 2 3 4 5 6 
#
# 1 0.030076 0.000599 0.001423 0.000000 0.000000 0.000000
# 2 0.000599 0.009227 -0.004808 0.000000 0.000000 0.000000
# 3 0.001423 -0.004808 0.008544 0.000000 0.000000 0.000000
# 4 0.000000 0.000000 0.000000 0.028302 0.000000 0.000000
# 5 0.000000 0.000000 0.000000 0.000000 -0.138574 0.000000
# 6 0.000000 0.000000 0.000000 0.000000 0.000000 0.074902
#
#
# Mechanical properties :
#
#
# Convention : Reuss Voigt Hill
#
# Bulk Modulus (GPa) = 23.65407 55.54764 39.60085
# Shear Modulus (GPa) = 155.57150 27.34540 91.45845
#
# Velocity S-wave (km/s) = 8.84321 3.70755 6.78042
# Velocity P-wave (km/s) = 10.77776 6.80077 9.01140
#
# Compressibility (1/GPa) = 0.04227602
#
# Stress axis : x y z
#
# Youngs Moduli (GPa) = 33.24889 108.38199 117.04027
#
# Poissons Ratio (x) = -0.06494 -0.16659
# Poissons Ratio (y) = -0.01992 0.56273
# Poissons Ratio (z) = -0.04732 0.52110
#
# Static dielectric constant tensor:
#      x y z
#    x 1.766010 0.000000 0.000000 
#    y 0.000000 1.697250 0.000000 
#    z 0.000000 0.000000 1.674640 
# 
# From -- ./inp_files/60062.got.cif
#   From: 2010.05.17/outbox.cif.g08.bks.cpg/sg63_31_cif.got.tgz:60062.got - 2010.06.03 15:47:04.
