data_PCOD9469037
_publ_section_title
;
Structure prediction by ZEFSAII (Michael W. Deem and Ramdas Pophale) SiO2 
 PCOD9469037
Probable space group: C M C M
;
_chemical_formula_sum "Si O2"
_cell_formula_units_Z 112
_cell_length_a 29.355951
_cell_length_b 5.779372
_cell_length_c 28.134756
_cell_angle_alpha 90.000000
_cell_angle_beta 90.000000
_cell_angle_gamma 90.000000
_cell_volume 4773.313478
_symmetry_space_group_name_H-M "C M C M"
_symmetry_group_IT_number 63
_symmetry_cell_setting 'orthorhombic'
loop_
_space_group_symop_operation_xyz
x,y,z
-x,-y,1/2+z
x,-y,-z
-x,y,1/2-z
-x,-y,-z
x,y,1/2-z
-x,y,z
x,-y,1/2+z
1/2+x,1/2+y,z
1/2-x,1/2-y,1/2+z
1/2+x,1/2-y,-z
1/2-x,1/2+y,1/2-z
1/2-x,1/2-y,-z
1/2+x,1/2+y,1/2-z
1/2-x,1/2+y,z
1/2+x,1/2-y,1/2+z
loop_
_atom_site_type_symbol
_atom_site_label
_atom_site_fract_x
_atom_site_fract_y
_atom_site_fract_z
Si Si1 0.230169 0.863576 0.564986
Si Si2 0.049283 0.005904 0.303775
Si Si3 0.049186 0.304641 0.539938
Si Si4 0.737109 0.835709 0.676709
Si Si5 0.371530 0.506655 0.062482
Si Si6 0.575256 0.134332 0.880354
Si Si7 0.134595 0.274985 0.840808
O O1 0.251509 0.111175 0.548732
O O2 0.242088 0.857277 0.622248
O O3 0.176961 0.882664 0.550195
O O4 0.052668 0.096433 0.250000
O O5 0.092706 0.844763 0.313711
O O6 0.000000 0.883156 0.307906
O O7 0.049771 0.210227 0.342293
O O8 0.047189 0.500000 0.500000
O O9 0.096892 0.170946 0.533237
O O10 0.051846 0.422960 0.592237
O O11 0.000000 0.176815 0.538738
O O12 0.741806 0.096889 0.696031
O O13 0.683740 0.780201 0.681076
O O14 0.406963 0.700476 0.078410
O O15 0.359694 0.361634 0.109881
O O16 0.618928 0.032406 0.853496
#
# Coordination Sequence:
#
# PCOD9469037 Si02
#       7
#    16  16  16  16  16  16  16
#     4  10  18  30  56  90 127 164 210 265 323 399
#     4  10  23  41  60  88 127 167 210 263 326 396
#     4  10  23  41  60  88 128 172 220 280 348 409
#     4  10  18  30  56  90 126 164 211 261 323 394
#     4  10  20  34  58  91 124 160 215 268 324 392
#     4  10  21  36  64  91 123 165 218 271 329 405
#     4  10  20  34  58  90 123 160 210 263 319 391
#
# _framework density 23.463784
#
# number of rings (size 3 to 8) (size 9 to 14) (size 15 to 20)
#    0.000    2.000    2.857    2.143    4.000    7.429 
#    0.000    2.857    0.000    1.714    0.000    0.000 
#    0.000    0.000    0.000    0.000    0.000    0.000 
#
# Total GULP energy -312338.370295 kJ/mol
# GULP energy per Si atom -5577.470898 kJ/mol
# Density = 2.341038 g / cm^3
# Si number density = 23.463784 Si / 1000 Ang^3
#
#
#
# Elastic Constant Matrix: (Units=GPa)
#
#
# Indices 1 2 3 4 5 6 
#
# 1 129.5543 29.5461 34.3009 0.0000 0.0000 0.0000
# 2 29.5461 119.5278 27.2610 0.0000 0.0000 0.0000
# 3 34.3009 27.2610 94.2130 0.0000 0.0000 0.0000
# 4 0.0000 0.0000 0.0000 -72.2487 0.0000 0.0000
# 5 0.0000 0.0000 0.0000 0.0000 32.6363 0.0000
# 6 0.0000 0.0000 0.0000 0.0000 0.0000 27.9468
#
#
#
# Elastic Compliance Matrix: (Units=1/GPa)
#
#
# Indices 1 2 3 4 5 6 
#
# 1 0.008801 -0.001547 -0.002757 0.000000 0.000000 0.000000
# 2 -0.001547 0.009229 -0.002107 0.000000 0.000000 0.000000
# 3 -0.002757 -0.002107 0.012228 0.000000 0.000000 0.000000
# 4 0.000000 0.000000 0.000000 -0.013841 0.000000 0.000000
# 5 0.000000 0.000000 0.000000 0.000000 0.030641 0.000000
# 6 0.000000 0.000000 0.000000 0.000000 0.000000 0.035782
#
#
# Mechanical properties :
#
#
# Convention : Reuss Voigt Hill
#
# Bulk Modulus (GPa) = 57.35150 58.39012 57.87081
# Shear Modulus (GPa) = 49.27340 14.47933 31.87636
#
# Velocity S-wave (km/s) = 4.58752 2.48683 3.68983
# Velocity P-wave (km/s) = 7.24956 5.76064 6.54756
#
# Compressibility (1/GPa) = 0.01743633
#
# Stress axis : x y z
#
# Youngs Moduli (GPa) = 113.61767 108.35106 81.78141
#
# Poissons Ratio (x) = 0.16761 0.22546
# Poissons Ratio (y) = 0.17575 0.17234
# Poissons Ratio (z) = 0.31322 0.22833
#
# Static dielectric constant tensor:
#      x y z
#    x 1.938250 0.000000 0.000000 
#    y 0.000000 1.931450 0.000000 
#    z 0.000000 0.000000 1.917980 
# 
# From -- ./inp_files/74535.got.cif
#   From: 2010.05.17/outbox.cif.g08.bks.cpg/sg63_38_cif.got.tgz:74535.got - 2010.06.03 15:47:04.
