data_PCOD9469779
_publ_section_title
;
Structure prediction by ZEFSAII (Michael W. Deem and Ramdas Pophale) SiO2 
 PCOD9469779
Probable space group: C M C M
;
_chemical_formula_sum "Si O2"
_cell_formula_units_Z 96
_cell_length_a 14.475115
_cell_length_b 18.161356
_cell_length_c 16.004548
_cell_angle_alpha 90.000000
_cell_angle_beta 90.000000
_cell_angle_gamma 90.000000
_cell_volume 4207.399080
_symmetry_space_group_name_H-M "C M C M"
_symmetry_group_IT_number 63
_symmetry_cell_setting 'orthorhombic'
loop_
_space_group_symop_operation_xyz
x,y,z
-x,-y,1/2+z
x,-y,-z
-x,y,1/2-z
-x,-y,-z
x,y,1/2-z
-x,y,z
x,-y,1/2+z
1/2+x,1/2+y,z
1/2-x,1/2-y,1/2+z
1/2+x,1/2-y,-z
1/2-x,1/2+y,1/2-z
1/2-x,1/2-y,-z
1/2+x,1/2+y,1/2-z
1/2-x,1/2+y,z
1/2+x,1/2-y,1/2+z
loop_
_atom_site_type_symbol
_atom_site_label
_atom_site_fract_x
_atom_site_fract_y
_atom_site_fract_z
Si Si1 0.302151 0.496477 0.655124
Si Si2 0.346116 0.644157 0.424083
Si Si3 0.861574 0.315570 0.891042
Si Si4 0.900496 0.697694 0.589801
Si Si5 0.097375 0.524883 0.346395
Si Si6 0.309403 0.658475 0.879481
O O1 0.294503 0.468229 0.750000
O O2 0.364611 0.438611 0.605091
O O3 0.197124 0.497689 0.616852
O O4 0.334910 0.580204 0.658112
O O5 0.245779 0.663839 0.388563
O O6 0.403922 0.714336 0.396489
O O7 0.333557 0.649010 0.523035
O O8 0.905155 0.386269 0.848533
O O9 0.863679 0.232948 0.854523
O O10 0.891100 0.313610 0.988968
O O11 0.802550 0.670219 0.627701
O O12 0.000000 0.666853 0.618007
O O13 0.098463 0.499657 0.250000
O O14 0.000000 0.500026 0.386030
#
# Coordination Sequence:
#
# PCOD9469779 Si02
#       6
#    16  16  16  16  16  16
#     4  10  19  30  46  66  90 122 154 181 214 263
#     4   8  16  31  47  65  90 120 152 182 215 262
#     4   8  15  28  45  65  89 116 149 185 218 262
#     4   9  16  28  49  72  90 112 145 186 231 271
#     4   9  17  28  42  62  90 122 150 178 218 267
#     4   9  17  29  47  70  93 115 144 189 231 259
#
# _framework density 22.816946000000002
#
# number of rings (size 3 to 8) (size 9 to 14) (size 15 to 20)
#    0.000    3.167    0.000    3.000    0.000    1.333 
#    0.000    2.500    0.000   16.500    0.000    0.000 
#    0.000    0.000    0.000    0.000    0.000    0.000 
#
# Total GULP energy -267221.375764 kJ/mol
# GULP energy per Si atom -5567.111995 kJ/mol
# Density = 2.276501 g / cm^3
# Si number density = 22.816946 Si / 1000 Ang^3
#
#
#
# Elastic Constant Matrix: (Units=GPa)
#
#
# Indices 1 2 3 4 5 6 
#
# 1 39.8496 -0.9328 -7.5979 0.0000 0.0000 0.0000
# 2 -0.9328 146.2845 4.0860 0.0000 0.0000 0.0000
# 3 -7.5979 4.0860 17.2030 0.0000 0.0000 0.0000
# 4 0.0000 0.0000 0.0000 137.7670 0.0000 0.0000
# 5 0.0000 0.0000 0.0000 0.0000 -5.1087 0.0000
# 6 0.0000 0.0000 0.0000 0.0000 0.0000 -20.1262
#
#
#
# Elastic Compliance Matrix: (Units=1/GPa)
#
#
# Indices 1 2 3 4 5 6 
#
# 1 0.027406 -0.000164 0.012143 0.000000 0.000000 0.000000
# 2 -0.000164 0.006883 -0.001707 0.000000 0.000000 0.000000
# 3 0.012143 -0.001707 0.063898 0.000000 0.000000 0.000000
# 4 0.000000 0.000000 0.000000 0.007259 0.000000 0.000000
# 5 0.000000 0.000000 0.000000 0.000000 -0.195745 0.000000
# 6 0.000000 0.000000 0.000000 0.000000 0.000000 -0.049686
#
#
# Mechanical properties :
#
#
# Convention : Reuss Voigt Hill
#
# Bulk Modulus (GPa) = 8.42252 21.60528 15.01390
# Shear Modulus (GPa) = -41.33858 36.35854 -2.49002
#
# Velocity S-wave (km/s) = -4.26108 3.99618 -1.04579
# Velocity P-wave (km/s) = 4.52877 5.54817 2.26632
#
# Compressibility (1/GPa) = 0.11872931
#
# Stress axis : x y z
#
# Youngs Moduli (GPa) = 36.48863 145.29322 15.64993
#
# Poissons Ratio (x) = 0.02389 -0.19004
# Poissons Ratio (y) = 0.00600 0.02672
# Poissons Ratio (z) = -0.44309 0.24807
#
# Static dielectric constant tensor:
#      x y z
#    x 1.921760 0.000000 0.000000 
#    y 0.000000 1.910430 0.000000 
#    z 0.000000 0.000000 1.841660 
# 
# From -- ./inp_files/45755.got.cif
#   From: 2010.05.17/outbox.cif.g08.bks.cpg/sg63_23_cif.got.tgz:45755.got - 2010.06.03 15:47:04.
