data_PCOD9469643
_publ_section_title
;
Structure prediction by ZEFSAII (Michael W. Deem and Ramdas Pophale) SiO2 
 PCOD9469643
Probable space group: C M C M
;
_chemical_formula_sum "Si O2"
_cell_formula_units_Z 104
_cell_length_a 8.405283
_cell_length_b 28.490064
_cell_length_c 21.739197
_cell_angle_alpha 90.000000
_cell_angle_beta 90.000000
_cell_angle_gamma 90.000000
_cell_volume 5205.821388
_symmetry_space_group_name_H-M "C M C M"
_symmetry_group_IT_number 63
_symmetry_cell_setting 'orthorhombic'
loop_
_space_group_symop_operation_xyz
x,y,z
-x,-y,1/2+z
x,-y,-z
-x,y,1/2-z
-x,-y,-z
x,y,1/2-z
-x,y,z
x,-y,1/2+z
1/2+x,1/2+y,z
1/2-x,1/2-y,1/2+z
1/2+x,1/2-y,-z
1/2-x,1/2+y,1/2-z
1/2-x,1/2-y,-z
1/2+x,1/2+y,1/2-z
1/2-x,1/2+y,z
1/2+x,1/2-y,1/2+z
loop_
_atom_site_type_symbol
_atom_site_label
_atom_site_fract_x
_atom_site_fract_y
_atom_site_fract_z
Si Si1 0.500000 0.059184 0.324323
Si Si2 0.678244 0.385066 0.824751
Si Si3 0.166903 0.943566 0.006638
Si Si4 0.185555 0.685221 0.824414
Si Si5 0.500000 0.056705 0.505953
Si Si6 0.325407 0.587995 0.648510
Si Si7 0.315443 0.786663 0.824893
Si Si8 0.500000 0.048285 0.649377
O O1 0.500000 0.054985 0.250000
O O2 0.665148 0.084903 0.341096
O O3 0.500000 0.007525 0.352173
O O4 0.677039 0.384974 0.750000
O O5 0.500000 0.400711 0.843345
O O6 0.713636 0.331582 0.844879
O O7 0.333220 0.925399 0.980273
O O8 0.000000 0.925666 0.980844
O O9 0.168073 0.931734 0.079065
O O10 0.167609 0.000000 0.000000
O O11 0.198508 0.682631 0.750000
O O12 0.291663 0.643473 0.851184
O O13 0.244179 0.736640 0.843912
O O14 0.000000 0.678188 0.840263
O O15 0.500000 0.000000 0.500000
O O16 0.500000 0.066705 0.579044
O O17 0.500000 0.578333 0.676083
O O18 0.166197 0.565711 0.677854
O O19 0.313350 0.786834 0.750000
O O20 0.500000 0.791522 0.843339
#
# Coordination Sequence:
#
# PCOD9469643 Si02
#       8
#     8  16  16  16   8  16  16   8
#     4  10  20  32  44  60  84 118 156 192 224 259
#     4   9  16  28  45  62  81 106 144 192 234 267
#     4   8  14  25  42  62  81 105 139 170 218 265
#     4  10  19  29  41  59  86 120 157 191 222 264
#     4   8  14  26  44  62  80 106 138 176 222 261
#     4  10  19  31  45  61  86 119 153 184 225 262
#     4   9  15  25  42  63  83 105 142 190 233 269
#     4  10  20  32  44  62  88 120 154 186 221 262
#
# _framework density 19.977636
#
# number of rings (size 3 to 8) (size 9 to 14) (size 15 to 20)
#    0.000    2.769    1.538    0.923    0.000    4.000 
#    0.000    0.000    0.000    0.000    0.000    0.000 
#    0.000    0.000    0.000   22.154   39.692    1.846 
#
# Total GULP energy -289667.152144 kJ/mol
# GULP energy per Si atom -5570.522157 kJ/mol
# Density = 1.993217 g / cm^3
# Si number density = 19.977636 Si / 1000 Ang^3
#
#
#
# Elastic Constant Matrix: (Units=GPa)
#
#
# Indices 1 2 3 4 5 6 
#
# 1 236.8046 48.3057 9.9554 0.0000 0.0000 0.0000
# 2 48.3057 90.5181 5.4319 0.0000 0.0000 0.0000
# 3 9.9554 5.4319 58.8138 0.0000 0.0000 0.0000
# 4 0.0000 0.0000 0.0000 40.8507 0.0000 0.0000
# 5 0.0000 0.0000 0.0000 0.0000 -18.0587 0.0000
# 6 0.0000 0.0000 0.0000 0.0000 0.0000 85.7896
#
#
#
# Elastic Compliance Matrix: (Units=1/GPa)
#
#
# Indices 1 2 3 4 5 6 
#
# 1 0.004758 -0.002505 -0.000574 0.000000 0.000000 0.000000
# 2 -0.002505 0.012428 -0.000724 0.000000 0.000000 0.000000
# 3 -0.000574 -0.000724 0.017167 0.000000 0.000000 0.000000
# 4 0.000000 0.000000 0.000000 0.024479 0.000000 0.000000
# 5 0.000000 0.000000 0.000000 0.000000 -0.055375 0.000000
# 6 0.000000 0.000000 0.000000 0.000000 0.000000 0.011656
#
#
# Mechanical properties :
#
#
# Convention : Reuss Voigt Hill
#
# Bulk Modulus (GPa) = 37.38695 57.05805 47.22250
# Shear Modulus (GPa) = 158.05757 43.21255 100.63506
#
# Velocity S-wave (km/s) = 8.90444 4.65590 7.10515
# Velocity P-wave (km/s) = 11.15678 7.58460 9.53939
#
# Compressibility (1/GPa) = 0.02674730
#
# Stress axis : x y z
#
# Youngs Moduli (GPa) = 210.17448 80.46611 58.25189
#
# Poissons Ratio (x) = 0.20154 0.03344
# Poissons Ratio (y) = 0.52642 0.04216
# Poissons Ratio (z) = 0.12065 0.05824
#
# Static dielectric constant tensor:
#      x y z
#    x 1.854130 0.000000 0.000000 
#    y 0.000000 1.664790 0.000000 
#    z 0.000000 0.000000 1.629320 
# 
# From -- ./inp_files/67413.got.cif
#   From: 2010.05.17/outbox.cif.g08.bks.cpg/sg63_34_cif.got.tgz:67413.got - 2010.06.03 15:47:04.
