data_PCOD9469209
_publ_section_title
;
Structure prediction by ZEFSAII (Michael W. Deem and Ramdas Pophale) SiO2 
 PCOD9469209
Probable space group: C M C M
;
_chemical_formula_sum "Si O2"
_cell_formula_units_Z 64
_cell_length_a 10.445271
_cell_length_b 18.711892
_cell_length_c 14.823883
_cell_angle_alpha 90.000000
_cell_angle_beta 90.000000
_cell_angle_gamma 90.000000
_cell_volume 2897.339537
_symmetry_space_group_name_H-M "C M C M"
_symmetry_group_IT_number 63
_symmetry_cell_setting 'orthorhombic'
loop_
_space_group_symop_operation_xyz
x,y,z
-x,-y,1/2+z
x,-y,-z
-x,y,1/2-z
-x,-y,-z
x,y,1/2-z
-x,y,z
x,-y,1/2+z
1/2+x,1/2+y,z
1/2-x,1/2-y,1/2+z
1/2+x,1/2-y,-z
1/2-x,1/2+y,1/2-z
1/2-x,1/2-y,-z
1/2+x,1/2+y,1/2-z
1/2-x,1/2+y,z
1/2+x,1/2-y,1/2+z
loop_
_atom_site_type_symbol
_atom_site_label
_atom_site_fract_x
_atom_site_fract_y
_atom_site_fract_z
Si Si1 0.789577 0.929965 0.649030
Si Si2 0.767645 0.910935 0.142626
Si Si3 0.142637 0.810460 0.998429
Si Si4 0.000000 0.418089 0.461335
Si Si5 0.000000 0.388683 0.846718
O O1 0.837747 0.913764 0.750000
O O2 0.826964 0.870470 0.577301
O O3 0.634292 0.930437 0.655888
O O4 0.825123 0.010415 0.622959
O O5 0.758835 0.903475 0.250000
O O6 0.627419 0.907390 0.096733
O O7 0.849121 0.850468 0.094166
O O8 0.000000 0.783934 0.980574
O O9 0.250000 0.750000 0.000000
O O10 0.000000 0.500000 0.500000
O O11 0.000000 0.365576 0.548753
O O12 0.000000 0.346408 0.750000
#
# Coordination Sequence:
#
# PCOD9469209 Si02
#       5
#    16  16  16   8   8
#     4  10  21  41  71 105 137 175 228 291 351 411
#     4  11  23  41  70 106 140 181 234 294 353 412
#     4  12  29  48  69  98 138 187 233 284 354 428
#     4  12  17  31  64 105 151 176 219 275 343 410
#     4  10  18  31  62 107 144 176 216 271 341 410
#
# _framework density 22.089230000000001
#
# number of rings (size 3 to 8) (size 9 to 14) (size 15 to 20)
#    0.000    1.000    5.000    1.125    3.500    4.000 
#    0.000    2.500    0.000    0.000    0.000    0.000 
#    0.000    0.000    0.000    0.000    0.000    0.000 
#
# Total GULP energy -178715.856391 kJ/mol
# GULP energy per Si atom -5584.870512 kJ/mol
# Density = 2.203895 g / cm^3
# Si number density = 22.089230 Si / 1000 Ang^3
#
#
#
# Elastic Constant Matrix: (Units=GPa)
#
#
# Indices 1 2 3 4 5 6 
#
# 1 117.4717 40.1766 26.4722 0.0000 0.0000 0.0000
# 2 40.1766 107.5183 70.1406 0.0000 0.0000 0.0000
# 3 26.4722 70.1406 173.1906 0.0000 0.0000 0.0000
# 4 0.0000 0.0000 0.0000 13.1856 0.0000 0.0000
# 5 0.0000 0.0000 0.0000 0.0000 21.4324 0.0000
# 6 0.0000 0.0000 0.0000 0.0000 0.0000 12.0683
#
#
#
# Elastic Compliance Matrix: (Units=1/GPa)
#
#
# Indices 1 2 3 4 5 6 
#
# 1 0.009760 -0.003634 -0.000020 0.000000 0.000000 0.000000
# 2 -0.003634 0.013993 -0.005112 0.000000 0.000000 0.000000
# 3 -0.000020 -0.005112 0.007847 0.000000 0.000000 0.000000
# 4 0.000000 0.000000 0.000000 0.075840 0.000000 0.000000
# 5 0.000000 0.000000 0.000000 0.000000 0.046658 0.000000
# 6 0.000000 0.000000 0.000000 0.000000 0.000000 0.082862
#
#
# Mechanical properties :
#
#
# Convention : Reuss Voigt Hill
#
# Bulk Modulus (GPa) = 71.07775 74.63992 72.85883
# Shear Modulus (GPa) = 19.29143 26.76333 23.02738
#
# Velocity S-wave (km/s) = 2.95844 3.48458 3.23223
# Velocity P-wave (km/s) = 6.62701 7.07484 6.85458
#
# Compressibility (1/GPa) = 0.01406910
#
# Stress axis : x y z
#
# Youngs Moduli (GPa) = 102.45836 71.46266 127.43300
#
# Poissons Ratio (x) = 0.25969 0.00256
# Poissons Ratio (y) = 0.37233 0.65140
# Poissons Ratio (z) = 0.00206 0.36530
#
# Static dielectric constant tensor:
#      x y z
#    x 1.709300 0.000000 0.000000 
#    y 0.000000 1.835270 0.000000 
#    z 0.000000 0.000000 1.838900 
# 
# From -- ./inp_files/41719.got.cif
#   From: 2010.05.17/outbox.cif.g08.bks.cpg/sg63_21_cif.got.tgz:41719.got - 2010.06.03 15:47:04.
