data_PCOD9469365
_publ_section_title
;
Structure prediction by ZEFSAII (Michael W. Deem and Ramdas Pophale) SiO2 
 PCOD9469365
Probable space group: C M C M
;
_chemical_formula_sum "Si O2"
_cell_formula_units_Z 116
_cell_length_a 18.005381
_cell_length_b 14.403356
_cell_length_c 22.052577
_cell_angle_alpha 90.000000
_cell_angle_beta 90.000000
_cell_angle_gamma 90.000000
_cell_volume 5719.069284
_symmetry_space_group_name_H-M "C M C M"
_symmetry_group_IT_number 63
_symmetry_cell_setting 'orthorhombic'
loop_
_space_group_symop_operation_xyz
x,y,z
-x,-y,1/2+z
x,-y,-z
-x,y,1/2-z
-x,-y,-z
x,y,1/2-z
-x,y,z
x,-y,1/2+z
1/2+x,1/2+y,z
1/2-x,1/2-y,1/2+z
1/2+x,1/2-y,-z
1/2-x,1/2+y,1/2-z
1/2-x,1/2-y,-z
1/2+x,1/2+y,1/2-z
1/2-x,1/2+y,z
1/2+x,1/2-y,1/2+z
loop_
_atom_site_type_symbol
_atom_site_label
_atom_site_fract_x
_atom_site_fract_y
_atom_site_fract_z
Si Si1 0.712969 0.697985 0.817991
Si Si2 0.188276 0.745502 0.447243
Si Si3 0.413449 0.892524 0.018232
Si Si4 0.587663 0.647194 0.131127
Si Si5 0.000000 0.600466 0.750000
Si Si6 0.870328 0.650093 0.843758
Si Si7 0.414826 0.452451 0.179766
Si Si8 0.415045 0.609688 0.993171
O O1 0.714225 0.740561 0.750000
O O2 0.714980 0.763371 0.877859
O O3 0.785839 0.632975 0.824091
O O4 0.639001 0.635378 0.822181
O O5 0.250000 0.750000 0.500000
O O6 0.131605 0.666817 0.469084
O O7 0.144391 0.842861 0.450761
O O8 0.500000 0.864472 0.018602
O O9 0.382190 0.875779 0.085849
O O10 0.408444 0.000000 0.000000
O O11 0.500000 0.646686 0.146446
O O12 0.620629 0.737633 0.162302
O O13 0.615351 0.544310 0.146678
O O14 0.594460 0.656526 0.058891
O O15 0.065818 0.605530 0.697123
O O16 0.419455 0.479993 0.250000
O O17 0.500000 0.433258 0.159055
O O18 0.500000 0.625129 0.974050
O O19 0.404658 0.500000 0.000000
#
# Coordination Sequence:
#
# PCOD9469365 Si02
#       8
#    16  16  16  16   4  16  16  16
#     4  11  24  42  62  93 138 174 213 263 327 401
#     4  12  23  40  64  94 126 172 211 267 327 391
#     4  11  24  45  71  94 127 172 233 283 333 388
#     4  10  18  32  59  91 128 155 207 264 320 383
#     4  12  24  36  78  92 128 168 216 280 338 392
#     4  12  22  41  65 100 126 167 214 277 342 387
#     4   9  20  36  57  88 130 177 211 245 308 398
#     4  10  20  34  57  90 124 161 202 257 312 371
#
# _framework density 20.283021000000002
#
# number of rings (size 3 to 8) (size 9 to 14) (size 15 to 20)
#    0.000    1.241    4.828    1.241    0.966    2.759 
#    4.966    0.000    1.517    0.000    0.000    0.000 
#    0.000    0.000    0.000    0.000    0.000    0.000 
#
# Total GULP energy -323267.891870 kJ/mol
# GULP energy per Si atom -5573.584343 kJ/mol
# Density = 2.023686 g / cm^3
# Si number density = 20.283021 Si / 1000 Ang^3
#
#
#
# Elastic Constant Matrix: (Units=GPa)
#
#
# Indices 1 2 3 4 5 6 
#
# 1 89.0510 12.2538 28.4996 0.0000 0.0000 0.0000
# 2 12.2538 35.2477 13.4820 0.0000 0.0000 0.0000
# 3 28.4996 13.4820 158.5766 0.0000 0.0000 0.0000
# 4 0.0000 0.0000 0.0000 18.9945 0.0000 0.0000
# 5 0.0000 0.0000 0.0000 0.0000 32.5493 0.0000
# 6 0.0000 0.0000 0.0000 0.0000 0.0000 -27.9928
#
#
#
# Elastic Compliance Matrix: (Units=1/GPa)
#
#
# Indices 1 2 3 4 5 6 
#
# 1 0.012331 -0.003555 -0.001914 0.000000 0.000000 0.000000
# 2 -0.003555 0.030349 -0.001941 0.000000 0.000000 0.000000
# 3 -0.001914 -0.001941 0.006815 0.000000 0.000000 0.000000
# 4 0.000000 0.000000 0.000000 0.052647 0.000000 0.000000
# 5 0.000000 0.000000 0.000000 0.000000 0.030723 0.000000
# 6 0.000000 0.000000 0.000000 0.000000 0.000000 -0.035723
#
#
# Mechanical properties :
#
#
# Convention : Reuss Voigt Hill
#
# Bulk Modulus (GPa) = 28.83919 43.48290 36.16105
# Shear Modulus (GPa) = 40.47927 19.95286 30.21606
#
# Velocity S-wave (km/s) = 4.47220 3.13984 3.86388
# Velocity P-wave (km/s) = 6.39661 5.88467 6.14598
#
# Compressibility (1/GPa) = 0.03467503
#
# Stress axis : x y z
#
# Youngs Moduli (GPa) = 81.09497 32.95000 146.73231
#
# Poissons Ratio (x) = 0.11713 0.28084
# Poissons Ratio (y) = 0.28828 0.28486
# Poissons Ratio (z) = 0.15521 0.06397
#
# Static dielectric constant tensor:
#      x y z
#    x 1.742190 0.000000 0.000000 
#    y 0.000000 1.720360 0.000000 
#    z 0.000000 0.000000 1.789200 
# 
# From -- ./inp_files/63943.got.cif
#   From: 2010.05.17/outbox.cif.g08.bks.cpg/sg63_32_cif.got.tgz:63943.got - 2010.06.03 15:47:04.
