data_PCOD9469258
_publ_section_title
;
Structure prediction by ZEFSAII (Michael W. Deem and Ramdas Pophale) SiO2 
 PCOD9469258
Probable space group: C M C M
;
_chemical_formula_sum "Si O2"
_cell_formula_units_Z 72
_cell_length_a 15.940533
_cell_length_b 29.168393
_cell_length_c 8.583777
_cell_angle_alpha 90.000000
_cell_angle_beta 90.000000
_cell_angle_gamma 90.000000
_cell_volume 3991.110646
_symmetry_space_group_name_H-M "C M C M"
_symmetry_group_IT_number 63
_symmetry_cell_setting 'orthorhombic'
loop_
_space_group_symop_operation_xyz
x,y,z
-x,-y,1/2+z
x,-y,-z
-x,y,1/2-z
-x,-y,-z
x,y,1/2-z
-x,y,z
x,-y,1/2+z
1/2+x,1/2+y,z
1/2-x,1/2-y,1/2+z
1/2+x,1/2-y,-z
1/2-x,1/2+y,1/2-z
1/2-x,1/2-y,-z
1/2+x,1/2+y,1/2-z
1/2-x,1/2+y,z
1/2+x,1/2-y,1/2+z
loop_
_atom_site_type_symbol
_atom_site_label
_atom_site_fract_x
_atom_site_fract_y
_atom_site_fract_z
Si Si1 0.246724 0.363025 0.936305
Si Si2 0.094112 0.196499 0.060495
Si Si3 0.596147 0.803253 0.062457
Si Si4 0.176103 0.051334 0.934669
Si Si5 0.500000 0.551981 0.064301
O O1 0.251508 0.367548 0.750000
O O2 0.327881 0.333846 0.992373
O O3 0.164114 0.335461 0.983553
O O4 0.253569 0.413060 0.012190
O O5 0.093107 0.194584 0.250000
O O6 0.107777 0.249788 0.017850
O O7 0.000000 0.182619 0.008727
O O8 0.605268 0.805870 0.250000
O O9 0.500000 0.815631 0.024006
O O10 0.169174 0.048539 0.750000
O O11 0.087976 0.070691 0.003145
O O12 0.188527 0.000000 0.000000
O O13 0.500000 0.552905 0.250000
O O14 0.500000 0.500000 0.000000
#
# Coordination Sequence:
#
# PCOD9469258 Si02
#       5
#    16  16  16  16   8
#     4  11  21  32  53  82 109 142 182 225 273 321
#     4   8  16  31  51  77 109 145 181 217 264 320
#     4   9  18  35  56  76 104 143 184 225 272 322
#     4  11  22  37  54  76 107 142 182 223 268 319
#     4  10  18  32  52  74 102 138 176 214 260 312
#
# _framework density 18.040091
#
# number of rings (size 3 to 8) (size 9 to 14) (size 15 to 20)
#    0.000    2.222    0.000    7.000    1.556    0.444 
#    0.000    1.111    0.000    3.333    0.000    0.000 
#    0.000    0.000    0.000    0.000    0.000    0.000 
#
# Total GULP energy -200948.195048 kJ/mol
# GULP energy per Si atom -5581.894307 kJ/mol
# Density = 1.799903 g / cm^3
# Si number density = 18.040091 Si / 1000 Ang^3
#
#
#
# Elastic Constant Matrix: (Units=GPa)
#
#
# Indices 1 2 3 4 5 6 
#
# 1 90.6682 69.7590 36.5647 0.0000 0.0000 0.0000
# 2 69.7590 96.7579 37.0144 0.0000 0.0000 0.0000
# 3 36.5647 37.0144 88.6799 0.0000 0.0000 0.0000
# 4 0.0000 0.0000 0.0000 18.7491 0.0000 0.0000
# 5 0.0000 0.0000 0.0000 0.0000 29.0699 0.0000
# 6 0.0000 0.0000 0.0000 0.0000 0.0000 28.2499
#
#
#
# Elastic Compliance Matrix: (Units=1/GPa)
#
#
# Indices 1 2 3 4 5 6 
#
# 1 0.025598 -0.017157 -0.003393 0.000000 0.000000 0.000000
# 2 -0.017157 0.023799 -0.002859 0.000000 0.000000 0.000000
# 3 -0.003393 -0.002859 0.013869 0.000000 0.000000 0.000000
# 4 0.000000 0.000000 0.000000 0.053336 0.000000 0.000000
# 5 0.000000 0.000000 0.000000 0.000000 0.034400 0.000000
# 6 0.000000 0.000000 0.000000 0.000000 0.000000 0.035398
#
#
# Mechanical properties :
#
#
# Convention : Reuss Voigt Hill
#
# Bulk Modulus (GPa) = 60.80349 62.53137 61.66743
# Shear Modulus (GPa) = 20.94662 24.06498 22.50580
#
# Velocity S-wave (km/s) = 3.41121 3.65632 3.53589
# Velocity P-wave (km/s) = 7.02089 7.25001 7.13637
#
# Compressibility (1/GPa) = 0.01644642
#
# Stress axis : x y z
#
# Youngs Moduli (GPa) = 39.06486 42.01914 72.10311
#
# Poissons Ratio (x) = 0.72094 0.24468
# Poissons Ratio (y) = 0.67025 0.20614
# Poissons Ratio (z) = 0.13256 0.12013
#
# Static dielectric constant tensor:
#      x y z
#    x 1.626890 0.000000 0.000000 
#    y 0.000000 1.614700 0.000000 
#    z 0.000000 0.000000 1.640510 
# 
# From -- ./inp_files/4608.got.cif
#   From: 2010.05.17/outbox.cif.g08.bks.cpg/sg63_3_cif.got.tgz:4608.got - 2010.06.03 15:47:04.
