data_PCOD9469820
_publ_section_title
;
Structure prediction by ZEFSAII (Michael W. Deem and Ramdas Pophale) SiO2 
 PCOD9469820
Probable space group: C M C M
;
_chemical_formula_sum "Si O2"
_cell_formula_units_Z 80
_cell_length_a 7.509146
_cell_length_b 28.154120
_cell_length_c 18.850371
_cell_angle_alpha 90.000000
_cell_angle_beta 90.000000
_cell_angle_gamma 90.000000
_cell_volume 3985.220979
_symmetry_space_group_name_H-M "C M C M"
_symmetry_group_IT_number 63
_symmetry_cell_setting 'orthorhombic'
loop_
_space_group_symop_operation_xyz
x,y,z
-x,-y,1/2+z
x,-y,-z
-x,y,1/2-z
-x,-y,-z
x,y,1/2-z
-x,y,z
x,-y,1/2+z
1/2+x,1/2+y,z
1/2-x,1/2-y,1/2+z
1/2+x,1/2-y,-z
1/2-x,1/2+y,1/2-z
1/2-x,1/2-y,-z
1/2+x,1/2+y,1/2-z
1/2-x,1/2+y,z
1/2+x,1/2-y,1/2+z
loop_
_atom_site_type_symbol
_atom_site_label
_atom_site_fract_x
_atom_site_fract_y
_atom_site_fract_z
Si Si1 0.282120 0.399852 0.170589
Si Si2 0.284993 0.696614 0.905652
Si Si3 0.206052 0.953564 0.463837
Si Si4 0.292379 0.140937 0.044686
Si Si5 0.218211 0.294138 0.832018
O O1 0.223330 0.409736 0.250000
O O2 0.500000 0.400497 0.169852
O O3 0.231415 0.347172 0.144852
O O4 0.216226 0.436129 0.110860
O O5 0.500000 0.697751 0.908117
O O6 0.224271 0.745902 0.871833
O O7 0.224642 0.681861 0.984365
O O8 0.208706 0.907088 0.513988
O O9 0.000000 0.965354 0.448735
O O10 0.286980 0.000000 0.500000
O O11 0.500000 0.130215 0.053187
O O12 0.223653 0.162123 0.118497
O O13 0.274032 0.295726 0.750000
O O14 0.000000 0.293887 0.832226
#
# Coordination Sequence:
#
# PCOD9469820 Si02
#       5
#    16  16  16  16  16
#     4   8  13  23  43  69  89 108 143 190 231 264
#     4   9  16  28  48  69  91 122 158 192 222 261
#     4   9  18  33  51  68  88 117 155 197 236 277
#     4  10  19  30  47  70  95 122 152 190 234 278
#     4   9  17  29  46  69  96 128 163 189 213 260
#
# _framework density 20.074169999999999
#
# number of rings (size 3 to 8) (size 9 to 14) (size 15 to 20)
#    0.000    3.000    0.000    3.000    0.000    2.800 
#    0.000    2.000    0.000   21.000    0.000    0.000 
#    0.000    0.000    0.000    0.000    0.000    0.000 
#
# Total GULP energy -223110.653380 kJ/mol
# GULP energy per Si atom -5577.766334 kJ/mol
# Density = 2.002848 g / cm^3
# Si number density = 20.074170 Si / 1000 Ang^3
#
#
#
# Elastic Constant Matrix: (Units=GPa)
#
#
# Indices 1 2 3 4 5 6 
#
# 1 51.1819 -6.3909 -6.9818 0.0000 0.0000 0.0000
# 2 -6.3909 82.1265 73.7021 0.0000 0.0000 0.0000
# 3 -6.9818 73.7021 138.6937 0.0000 0.0000 0.0000
# 4 0.0000 0.0000 0.0000 19.8972 0.0000 0.0000
# 5 0.0000 0.0000 0.0000 0.0000 12.2376 0.0000
# 6 0.0000 0.0000 0.0000 0.0000 0.0000 8.2866
#
#
#
# Elastic Compliance Matrix: (Units=1/GPa)
#
#
# Indices 1 2 3 4 5 6 
#
# 1 0.019738 0.001232 0.000339 0.000000 0.000000 0.000000
# 2 0.001232 0.023354 -0.012348 0.000000 0.000000 0.000000
# 3 0.000339 -0.012348 0.013789 0.000000 0.000000 0.000000
# 4 0.000000 0.000000 0.000000 0.050258 0.000000 0.000000
# 5 0.000000 0.000000 0.000000 0.000000 0.081715 0.000000
# 6 0.000000 0.000000 0.000000 0.000000 0.000000 0.120677
#
#
# Mechanical properties :
#
#
# Convention : Reuss Voigt Hill
#
# Bulk Modulus (GPa) = 28.30766 43.62898 35.96832
# Shear Modulus (GPa) = 14.58311 22.19579 18.38945
#
# Velocity S-wave (km/s) = 2.69822 3.32880 3.02996
# Velocity P-wave (km/s) = 4.88255 6.04612 5.49522
#
# Compressibility (1/GPa) = 0.03532613
#
# Stress axis : x y z
#
# Youngs Moduli (GPa) = 50.66317 42.81964 72.52114
#
# Poissons Ratio (x) = -0.05274 -0.02459
# Poissons Ratio (y) = -0.06240 0.89551
# Poissons Ratio (z) = -0.01718 0.52875
#
# Static dielectric constant tensor:
#      x y z
#    x 1.752070 0.000000 0.000000 
#    y 0.000000 1.689870 0.000000 
#    z 0.000000 0.000000 1.706310 
# 
# From -- ./inp_files/40717.got.cif
#   From: 2010.05.17/outbox.cif.g08.bks.cpg/sg63_21_cif.got.tgz:40717.got - 2010.06.03 15:47:04.
