data_PCOD9469057
_publ_section_title
;
Structure prediction by ZEFSAII (Michael W. Deem and Ramdas Pophale) SiO2 
 PCOD9469057
Probable space group: C M C M
;
_chemical_formula_sum "Si O2"
_cell_formula_units_Z 80
_cell_length_a 14.908347
_cell_length_b 9.932866
_cell_length_c 25.529858
_cell_angle_alpha 90.000000
_cell_angle_beta 90.000000
_cell_angle_gamma 90.000000
_cell_volume 3780.528083
_symmetry_space_group_name_H-M "C M C M"
_symmetry_group_IT_number 63
_symmetry_cell_setting 'orthorhombic'
loop_
_space_group_symop_operation_xyz
x,y,z
-x,-y,1/2+z
x,-y,-z
-x,y,1/2-z
-x,-y,-z
x,y,1/2-z
-x,y,z
x,-y,1/2+z
1/2+x,1/2+y,z
1/2-x,1/2-y,1/2+z
1/2+x,1/2-y,-z
1/2-x,1/2+y,1/2-z
1/2-x,1/2-y,-z
1/2+x,1/2+y,1/2-z
1/2-x,1/2+y,z
1/2+x,1/2-y,1/2+z
loop_
_atom_site_type_symbol
_atom_site_label
_atom_site_fract_x
_atom_site_fract_y
_atom_site_fract_z
Si Si1 0.901627 0.589937 0.052529
Si Si2 0.704623 0.906301 0.116207
Si Si3 0.104001 0.769431 0.810361
Si Si4 0.847259 0.216051 0.476052
Si Si5 0.104083 0.005213 0.896481
O O1 0.827050 0.553706 0.095560
O O2 0.000000 0.555874 0.073513
O O3 0.884485 0.500000 0.000000
O O4 0.904629 0.735849 0.025468
O O5 0.667778 0.851710 0.170655
O O6 0.651423 0.812633 0.074705
O O7 0.811428 0.896083 0.111281
O O8 0.120650 0.805047 0.750000
O O9 0.114655 0.898186 0.848417
O O10 0.000000 0.726443 0.815597
O O11 0.750000 0.250000 0.500000
O O12 0.873778 0.075203 0.450443
O O13 0.000000 0.049463 0.895690
#
# Coordination Sequence:
#
# PCOD9469057 Si02
#       5
#    16  16  16  16  16
#     4   9  16  27  46  69  94 127 165 203 247 290
#     4  10  19  31  52  75 101 129 169 214 252 301
#     4   9  19  36  57  78  98 125 167 217 265 311
#     4  10  18  31  48  69 104 140 171 207 246 297
#     4  10  20  34  52  75 105 140 176 212 252 309
#
# _framework density 21.161065000000001
#
# number of rings (size 3 to 8) (size 9 to 14) (size 15 to 20)
#    0.000    2.400    2.000    1.200    0.000    5.600 
#    0.000    3.000    0.000    0.000    0.000    0.000 
#    0.000    0.000    0.000    0.000    0.000    0.000 
#
# Total GULP energy -222780.923086 kJ/mol
# GULP energy per Si atom -5569.523077 kJ/mol
# Density = 2.111290 g / cm^3
# Si number density = 21.161065 Si / 1000 Ang^3
#
#
#
# Elastic Constant Matrix: (Units=GPa)
#
#
# Indices 1 2 3 4 5 6 
#
# 1 125.8401 13.4413 32.5924 0.0000 0.0000 0.0000
# 2 13.4413 33.8189 29.5617 0.0000 0.0000 0.0000
# 3 32.5924 29.5617 108.9514 0.0000 0.0000 0.0000
# 4 0.0000 0.0000 0.0000 27.8488 0.0000 0.0000
# 5 0.0000 0.0000 0.0000 0.0000 27.7921 0.0000
# 6 0.0000 0.0000 0.0000 0.0000 0.0000 22.4151
#
#
#
# Elastic Compliance Matrix: (Units=1/GPa)
#
#
# Indices 1 2 3 4 5 6 
#
# 1 0.008675 -0.001546 -0.002176 0.000000 0.000000 0.000000
# 2 -0.001546 0.039038 -0.010130 0.000000 0.000000 0.000000
# 3 -0.002176 -0.010130 0.012578 0.000000 0.000000 0.000000
# 4 0.000000 0.000000 0.000000 0.035908 0.000000 0.000000
# 5 0.000000 0.000000 0.000000 0.000000 0.035981 0.000000
# 6 0.000000 0.000000 0.000000 0.000000 0.000000 0.044613
#
#
# Mechanical properties :
#
#
# Convention : Reuss Voigt Hill
#
# Bulk Modulus (GPa) = 30.68594 46.64457 38.66526
# Shear Modulus (GPa) = 23.21700 28.47888 25.84794
#
# Velocity S-wave (km/s) = 3.31593 3.67252 3.49877
# Velocity P-wave (km/s) = 5.40307 6.33038 5.88501
#
# Compressibility (1/GPa) = 0.03258821
#
# Stress axis : x y z
#
# Youngs Moduli (GPa) = 115.27072 25.61584 79.50559
#
# Poissons Ratio (x) = 0.03961 0.17297
# Poissons Ratio (y) = 0.17823 0.80537
# Poissons Ratio (z) = 0.25079 0.25948
#
# Static dielectric constant tensor:
#      x y z
#    x 1.870570 0.000000 0.000000 
#    y 0.000000 1.961830 0.000000 
#    z 0.000000 0.000000 1.759730 
# 
# From -- ./inp_files/62559.got.cif
#   From: 2010.05.17/outbox.cif.g08.bks.cpg/sg63_32_cif.got.tgz:62559.got - 2010.06.03 15:47:04.
