data_PCOD9469091
_publ_section_title
;
Structure prediction by ZEFSAII (Michael W. Deem and Ramdas Pophale) SiO2 
 PCOD9469091
Probable space group: C M C M
;
_chemical_formula_sum "Si O2"
_cell_formula_units_Z 80
_cell_length_a 18.815149
_cell_length_b 16.726561
_cell_length_c 14.823980
_cell_angle_alpha 90.000000
_cell_angle_beta 90.000000
_cell_angle_gamma 90.000000
_cell_volume 4665.295326
_symmetry_space_group_name_H-M "C M C M"
_symmetry_group_IT_number 63
_symmetry_cell_setting 'orthorhombic'
loop_
_space_group_symop_operation_xyz
x,y,z
-x,-y,1/2+z
x,-y,-z
-x,y,1/2-z
-x,-y,-z
x,y,1/2-z
-x,y,z
x,-y,1/2+z
1/2+x,1/2+y,z
1/2-x,1/2-y,1/2+z
1/2+x,1/2-y,-z
1/2-x,1/2+y,1/2-z
1/2-x,1/2-y,-z
1/2+x,1/2+y,1/2-z
1/2-x,1/2+y,z
1/2+x,1/2-y,1/2+z
loop_
_atom_site_type_symbol
_atom_site_label
_atom_site_fract_x
_atom_site_fract_y
_atom_site_fract_z
Si Si1 0.158458 0.030759 0.644319
Si Si2 0.000000 0.181890 0.139369
Si Si3 0.868602 0.713051 0.647393
Si Si4 0.293288 0.912599 0.029719
Si Si5 0.733863 0.638943 0.348866
Si Si6 0.000000 0.002553 0.860116
O O1 0.164885 0.055302 0.750000
O O2 0.218072 0.073415 0.582899
O O3 0.178378 0.935712 0.642546
O O4 0.076392 0.040021 0.613912
O O5 0.067541 0.233216 0.110353
O O6 0.000000 0.090085 0.109447
O O7 0.000000 0.178165 0.250000
O O8 0.886230 0.689773 0.750000
O O9 0.846163 0.636376 0.591799
O O10 0.804229 0.776108 0.650499
O O11 0.281559 0.866321 0.936576
O O12 0.318621 0.000000 0.000000
O O13 0.768168 0.627652 0.250000
O O14 0.000000 0.002512 0.750000
#
# Coordination Sequence:
#
# PCOD9469091 Si02
#       6
#    16   8  16  16  16   8
#     4   9  16  28  46  70 100 130 158 193 240 287
#     4   9  16  28  50  76  95 122 165 206 243 277
#     4  10  18  31  51  72  94 122 160 206 244 280
#     4  10  20  31  44  70 102 129 156 191 243 300
#     4   9  17  30  48  67  91 126 166 204 237 272
#     4   9  14  26  48  71 100 133 164 196 232 282
#
# _framework density 17.147897
#
# number of rings (size 3 to 8) (size 9 to 14) (size 15 to 20)
#    0.000    2.600    2.000    1.200    0.000    0.800 
#    0.000    6.000    0.000    0.000    0.000    0.700 
#    0.000    0.000    0.000    3.200    0.000    0.000 
#
# Total GULP energy -222784.962950 kJ/mol
# GULP energy per Si atom -5569.624074 kJ/mol
# Density = 1.710887 g / cm^3
# Si number density = 17.147897 Si / 1000 Ang^3
#
#
#
# Elastic Constant Matrix: (Units=GPa)
#
#
# Indices 1 2 3 4 5 6 
#
# 1 19.5384 12.5491 6.5447 0.0000 0.0000 0.0000
# 2 12.5491 36.1583 15.3338 0.0000 0.0000 0.0000
# 3 6.5447 15.3338 66.3111 0.0000 0.0000 0.0000
# 4 0.0000 0.0000 0.0000 20.3934 0.0000 0.0000
# 5 0.0000 0.0000 0.0000 0.0000 -32.0753 0.0000
# 6 0.0000 0.0000 0.0000 0.0000 0.0000 1.6366
#
#
#
# Elastic Compliance Matrix: (Units=1/GPa)
#
#
# Indices 1 2 3 4 5 6 
#
# 1 0.065971 -0.022324 -0.001349 0.000000 0.000000 0.000000
# 2 -0.022324 0.038217 -0.006634 0.000000 0.000000 0.000000
# 3 -0.001349 -0.006634 0.016748 0.000000 0.000000 0.000000
# 4 0.000000 0.000000 0.000000 0.049036 0.000000 0.000000
# 5 0.000000 0.000000 0.000000 0.000000 -0.031177 0.000000
# 6 0.000000 0.000000 0.000000 0.000000 0.000000 0.611037
#
#
# Mechanical properties :
#
#
# Convention : Reuss Voigt Hill
#
# Bulk Modulus (GPa) = 16.57763 21.20700 18.89231
# Shear Modulus (GPa) = 6.02008 3.82960 4.92484
#
# Velocity S-wave (km/s) = 1.87571 1.49604 1.69653
# Velocity P-wave (km/s) = 3.79203 3.92150 3.85731
#
# Compressibility (1/GPa) = 0.06032224
#
# Stress axis : x y z
#
# Youngs Moduli (GPa) = 15.15808 26.16616 59.70997
#
# Poissons Ratio (x) = 0.58413 0.08055
# Poissons Ratio (y) = 0.33839 0.39612
# Poissons Ratio (z) = 0.02045 0.17359
#
# Static dielectric constant tensor:
#      x y z
#    x 1.592740 0.000000 0.000000 
#    y 0.000000 1.560050 0.000000 
#    z 0.000000 0.000000 1.621240 
# 
# From -- ./inp_files/33912.got.cif
#   From: 2010.05.17/outbox.cif.g08.bks.cpg/sg63_17_cif.got.tgz:33912.got - 2010.06.03 15:47:04.
