data_PCOD9469970
_publ_section_title
;
Structure prediction by ZEFSAII (Michael W. Deem and Ramdas Pophale) SiO2 
 PCOD9469970
Probable space group: C M C M
;
_chemical_formula_sum "Si O2"
_cell_formula_units_Z 96
_cell_length_a 26.471618
_cell_length_b 24.169370
_cell_length_c 7.676433
_cell_angle_alpha 90.000000
_cell_angle_beta 90.000000
_cell_angle_gamma 90.000000
_cell_volume 4911.399719
_symmetry_space_group_name_H-M "C M C M"
_symmetry_group_IT_number 63
_symmetry_cell_setting 'orthorhombic'
loop_
_space_group_symop_operation_xyz
x,y,z
-x,-y,1/2+z
x,-y,-z
-x,y,1/2-z
-x,-y,-z
x,y,1/2-z
-x,y,z
x,-y,1/2+z
1/2+x,1/2+y,z
1/2-x,1/2-y,1/2+z
1/2+x,1/2-y,-z
1/2-x,1/2+y,1/2-z
1/2-x,1/2-y,-z
1/2+x,1/2+y,1/2-z
1/2-x,1/2+y,z
1/2+x,1/2-y,1/2+z
loop_
_atom_site_type_symbol
_atom_site_label
_atom_site_fract_x
_atom_site_fract_y
_atom_site_fract_z
Si Si1 0.443338 0.564026 0.540345
Si Si2 0.650085 0.864073 0.463774
Si Si3 0.690384 0.746726 0.042516
Si Si4 0.754120 0.435639 0.040759
Si Si5 0.942710 0.436932 0.459387
Si Si6 0.845371 0.874720 0.456528
O O1 0.431274 0.500000 0.500000
O O2 0.445546 0.569383 0.750000
O O3 0.500000 0.575593 0.472849
O O4 0.398702 0.603285 0.472899
O O5 0.649485 0.863855 0.250000
O O6 0.661801 0.801712 0.521965
O O7 0.697021 0.902089 0.521060
O O8 0.598181 0.892611 0.522519
O O9 0.686495 0.746545 0.250000
O O10 0.750000 0.750000 0.000000
O O11 0.666237 0.689808 0.978268
O O12 0.753648 0.429377 0.250000
O O13 0.702466 0.408727 0.971258
O O14 0.757340 0.500000 0.000000
O O15 0.926844 0.500000 0.500000
O O16 0.944545 0.432390 0.250000
O O17 0.000000 0.429306 0.526279
O O18 0.846745 0.886046 0.250000
#
# Coordination Sequence:
#
# PCOD9469970 Si02
#       6
#    16  16  16  16  16  16
#     4   9  18  33  54  78 106 139 173 213 262 313
#     4   9  18  33  50  70 100 131 162 204 251 295
#     4  11  21  36  55  74 100 136 176 213 257 308
#     4  10  19  31  47  70 100 129 159 204 254 300
#     4   9  17  31  52  75 100 131 163 198 244 295
#     4  10  20  35  52  73 104 137 171 212 259 305
#
# _framework density 19.546361999999998
#
# number of rings (size 3 to 8) (size 9 to 14) (size 15 to 20)
#    0.000    2.333    1.667    1.500    0.000    1.333 
#    0.000    2.500    0.000    1.000    0.000    0.000 
#    0.000    0.000    0.000    0.000    0.000    0.000 
#
# Total GULP energy -267912.601107 kJ/mol
# GULP energy per Si atom -5581.512523 kJ/mol
# Density = 1.950187 g / cm^3
# Si number density = 19.546362 Si / 1000 Ang^3
#
#
#
# Elastic Constant Matrix: (Units=GPa)
#
#
# Indices 1 2 3 4 5 6 
#
# 1 142.9407 79.2069 -1.5701 0.0000 0.0000 0.0000
# 2 79.2069 112.9541 -22.1985 0.0000 0.0000 0.0000
# 3 -1.5701 -22.1985 29.2329 0.0000 0.0000 0.0000
# 4 0.0000 0.0000 0.0000 26.7881 0.0000 0.0000
# 5 0.0000 0.0000 0.0000 0.0000 0.1289 0.0000
# 6 0.0000 0.0000 0.0000 0.0000 0.0000 22.6015
#
#
#
# Elastic Compliance Matrix: (Units=1/GPa)
#
#
# Indices 1 2 3 4 5 6 
#
# 1 0.012575 -0.010209 -0.007077 0.000000 0.000000 0.000000
# 2 -0.010209 0.018694 0.013647 0.000000 0.000000 0.000000
# 3 -0.007077 0.013647 0.044191 0.000000 0.000000 0.000000
# 4 0.000000 0.000000 0.000000 0.037330 0.000000 0.000000
# 5 0.000000 0.000000 0.000000 0.000000 7.759782 0.000000
# 6 0.000000 0.000000 0.000000 0.000000 0.000000 0.044245
#
#
# Mechanical properties :
#
#
# Convention : Reuss Voigt Hill
#
# Bulk Modulus (GPa) = 14.66632 44.00048 29.33340
# Shear Modulus (GPa) = 0.62918 25.21631 12.92275
#
# Velocity S-wave (km/s) = 0.56797 3.59566 2.57404
# Velocity P-wave (km/s) = 2.81953 6.30857 4.88609
#
# Compressibility (1/GPa) = 0.06818344
#
# Stress axis : x y z
#
# Youngs Moduli (GPa) = 79.52173 53.49302 22.62892
#
# Poissons Ratio (x) = 0.54611 0.16014
# Poissons Ratio (y) = 0.81183 -0.30882
# Poissons Ratio (z) = 0.56277 -0.73004
#
# Static dielectric constant tensor:
#      x y z
#    x 1.692330 0.000000 0.000000 
#    y 0.000000 1.635790 0.000000 
#    z 0.000000 0.000000 1.709940 
# 
# From -- ./inp_files/10423.got.cif
#   From: 2010.05.17/outbox.cif.g08.bks.cpg/sg63_6_cif.got.tgz:10423.got - 2010.06.03 15:47:04.
