data_PCOD9469527
_publ_section_title
;
Structure prediction by ZEFSAII (Michael W. Deem and Ramdas Pophale) SiO2 
 PCOD9469527
Probable space group: C M C M
;
_chemical_formula_sum "Si O2"
_cell_formula_units_Z 84
_cell_length_a 7.307885
_cell_length_b 23.987831
_cell_length_c 20.721958
_cell_angle_alpha 90.000000
_cell_angle_beta 90.000000
_cell_angle_gamma 90.000000
_cell_volume 3632.565668
_symmetry_space_group_name_H-M "C M C M"
_symmetry_group_IT_number 63
_symmetry_cell_setting 'orthorhombic'
loop_
_space_group_symop_operation_xyz
x,y,z
-x,-y,1/2+z
x,-y,-z
-x,y,1/2-z
-x,-y,-z
x,y,1/2-z
-x,y,z
x,-y,1/2+z
1/2+x,1/2+y,z
1/2-x,1/2-y,1/2+z
1/2+x,1/2-y,-z
1/2-x,1/2+y,1/2-z
1/2-x,1/2-y,-z
1/2+x,1/2+y,1/2-z
1/2-x,1/2+y,z
1/2+x,1/2-y,1/2+z
loop_
_atom_site_type_symbol
_atom_site_label
_atom_site_fract_x
_atom_site_fract_y
_atom_site_fract_z
Si Si1 0.777194 0.161472 0.377849
Si Si2 0.777344 0.963623 0.438179
Si Si3 0.209367 0.719227 0.653781
Si Si4 0.223282 0.958288 0.823057
Si Si5 0.721015 0.339734 0.473915
Si Si6 0.500000 0.675109 0.750000
O O1 0.723703 0.216873 0.339258
O O2 0.719729 0.102928 0.347367
O O3 0.717456 0.165672 0.452285
O O4 0.000000 0.161429 0.378117
O O5 0.720074 0.900185 0.447431
O O6 0.000000 0.963388 0.437968
O O7 0.721687 0.000000 0.500000
O O8 0.717764 0.994700 0.373475
O O9 0.215245 0.705364 0.577652
O O10 0.340925 0.679452 0.693572
O O11 0.000000 0.715197 0.674816
O O12 0.281418 0.968404 0.750000
O O13 0.000000 0.958236 0.823678
O O14 0.500000 0.338163 0.474793
#
# Coordination Sequence:
#
# PCOD9469527 Si02
#       6
#    16  16  16  16  16   4
#     4   9  18  32  58  87 123 165 210 265 322 380
#     4   9  15  27  50  81 119 168 216 262 315 371
#     4  11  24  42  64  94 126 168 211 259 321 381
#     4   9  16  27  45  80 120 161 215 270 318 378
#     4  10  18  35  59  90 127 167 216 266 314 375
#     4  12  26  48  64  90 130 170 216 260 312 396
#
# _framework density 23.124153
#
# number of rings (size 3 to 8) (size 9 to 14) (size 15 to 20)
#    0.000    2.286    2.857    0.857    1.333    0.000 
#    3.429    0.000    0.000    0.571    2.476    0.000 
#    0.000    0.000    0.000    0.000    0.000    0.000 
#
# Total GULP energy -234409.089796 kJ/mol
# GULP energy per Si atom -5581.168805 kJ/mol
# Density = 2.307152 g / cm^3
# Si number density = 23.124153 Si / 1000 Ang^3
#
#
#
# Elastic Constant Matrix: (Units=GPa)
#
#
# Indices 1 2 3 4 5 6 
#
# 1 116.8361 -1.5515 8.6057 0.0000 0.0000 0.0000
# 2 -1.5515 78.0930 9.2000 0.0000 0.0000 0.0000
# 3 8.6057 9.2000 136.3683 0.0000 0.0000 0.0000
# 4 0.0000 0.0000 0.0000 -19.7914 0.0000 0.0000
# 5 0.0000 0.0000 0.0000 0.0000 -40.8355 0.0000
# 6 0.0000 0.0000 0.0000 0.0000 0.0000 47.4165
#
#
#
# Elastic Compliance Matrix: (Units=1/GPa)
#
#
# Indices 1 2 3 4 5 6 
#
# 1 0.008603 0.000237 -0.000559 0.000000 0.000000 0.000000
# 2 0.000237 0.012914 -0.000886 0.000000 0.000000 0.000000
# 3 -0.000559 -0.000886 0.007428 0.000000 0.000000 0.000000
# 4 0.000000 0.000000 0.000000 -0.050527 0.000000 0.000000
# 5 0.000000 0.000000 0.000000 0.000000 -0.024488 0.000000
# 6 0.000000 0.000000 0.000000 0.000000 0.000000 0.021090
#
#
# Mechanical properties :
#
#
# Convention : Reuss Voigt Hill
#
# Bulk Modulus (GPa) = 37.69440 40.42287 39.05864
# Shear Modulus (GPa) = -364.42341 18.36080 -173.03130
#
# Velocity S-wave (km/s) = -12.56727 2.82087 -8.65965
# Velocity P-wave (km/s) = 13.93720 5.30363 9.11365
#
# Compressibility (1/GPa) = 0.02652914
#
# Stress axis : x y z
#
# Youngs Moduli (GPa) = 116.23431 77.43322 134.62319
#
# Poissons Ratio (x) = -0.01833 0.07524
# Poissons Ratio (y) = -0.02752 0.11930
# Poissons Ratio (z) = 0.06496 0.06862
#
# Static dielectric constant tensor:
#      x y z
#    x 1.897460 0.000000 0.000000 
#    y 0.000000 1.849830 0.000000 
#    z 0.000000 0.000000 1.825220 
# 
# From -- ./inp_files/50923.got.cif
#   From: 2010.05.17/outbox.cif.g08.bks.cpg/sg63_26_cif.got.tgz:50923.got - 2010.06.03 15:47:04.
