data_PCOD9469570
_publ_section_title
;
Structure prediction by ZEFSAII (Michael W. Deem and Ramdas Pophale) SiO2 
 PCOD9469570
Probable space group: C M C M
;
_chemical_formula_sum "Si O2"
_cell_formula_units_Z 68
_cell_length_a 11.972276
_cell_length_b 19.263405
_cell_length_c 14.027897
_cell_angle_alpha 90.000000
_cell_angle_beta 90.000000
_cell_angle_gamma 90.000000
_cell_volume 3235.209015
_symmetry_space_group_name_H-M "C M C M"
_symmetry_group_IT_number 63
_symmetry_cell_setting 'orthorhombic'
loop_
_space_group_symop_operation_xyz
x,y,z
-x,-y,1/2+z
x,-y,-z
-x,y,1/2-z
-x,-y,-z
x,y,1/2-z
-x,y,z
x,-y,1/2+z
1/2+x,1/2+y,z
1/2-x,1/2-y,1/2+z
1/2+x,1/2-y,-z
1/2-x,1/2+y,1/2-z
1/2-x,1/2-y,-z
1/2+x,1/2+y,1/2-z
1/2-x,1/2+y,z
1/2+x,1/2-y,1/2+z
loop_
_atom_site_type_symbol
_atom_site_label
_atom_site_fract_x
_atom_site_fract_y
_atom_site_fract_z
Si Si1 0.500000 0.856332 0.250000
Si Si2 0.628886 0.680602 0.935215
Si Si3 0.373343 0.927517 0.882634
Si Si4 0.326453 0.084710 0.896060
Si Si5 0.284296 0.699372 0.354854
O O1 0.597803 0.865171 0.332850
O O2 0.500000 0.675914 0.909756
O O3 0.701058 0.613150 0.906334
O O4 0.691926 0.742866 0.881129
O O5 0.640468 0.694155 0.049748
O O6 0.500000 0.914851 0.851088
O O7 0.283284 0.872499 0.848819
O O8 0.339565 0.006334 0.858873
O O9 0.372043 0.918705 0.996743
O O10 0.336915 0.712845 0.250000
#
# Coordination Sequence:
#
# PCOD9469570 Si02
#       5
#     4  16  16  16  16
#     4  12  20  34  58  96 126 152 204 250 306 370
#     4  10  23  45  62  87 127 167 203 243 301 375
#     4  10  18  37  59  89 122 153 198 265 316 351
#     4  10  21  35  58  92 122 157 199 248 310 362
#     4  10  23  40  63  92 117 155 208 256 311 351
#
# _framework density 21.018733999999998
#
# number of rings (size 3 to 8) (size 9 to 14) (size 15 to 20)
#    0.000    1.882    2.353    1.412    3.294    2.353 
#    2.118    9.412    0.000    0.000    0.000    0.000 
#    0.000    0.000    0.000    0.000    0.000    0.000 
#
# Total GULP energy -189360.815935 kJ/mol
# GULP energy per Si atom -5569.435763 kJ/mol
# Density = 2.097089 g / cm^3
# Si number density = 21.018734 Si / 1000 Ang^3
#
#
#
# Elastic Constant Matrix: (Units=GPa)
#
#
# Indices 1 2 3 4 5 6 
#
# 1 103.0777 -1.9466 -14.1216 0.0000 0.0000 0.0000
# 2 -1.9466 33.8548 -10.5970 0.0000 0.0000 0.0000
# 3 -14.1216 -10.5970 128.0412 0.0000 0.0000 0.0000
# 4 0.0000 0.0000 0.0000 2.4188 0.0000 0.0000
# 5 0.0000 0.0000 0.0000 0.0000 7.6917 0.0000
# 6 0.0000 0.0000 0.0000 0.0000 0.0000 6.3777
#
#
#
# Elastic Compliance Matrix: (Units=1/GPa)
#
#
# Indices 1 2 3 4 5 6 
#
# 1 0.009879 0.000933 0.001167 0.000000 0.000000 0.000000
# 2 0.000933 0.030412 0.002620 0.000000 0.000000 0.000000
# 3 0.001167 0.002620 0.008155 0.000000 0.000000 0.000000
# 4 0.000000 0.000000 0.000000 0.413426 0.000000 0.000000
# 5 0.000000 0.000000 0.000000 0.000000 0.130011 0.000000
# 6 0.000000 0.000000 0.000000 0.000000 0.000000 0.156797
#
#
# Mechanical properties :
#
#
# Convention : Reuss Voigt Hill
#
# Bulk Modulus (GPa) = 17.27538 23.51590 20.39564
# Shear Modulus (GPa) = 6.59166 22.74024 14.66595
#
# Velocity S-wave (km/s) = 1.77282 3.29280 2.64437
# Velocity P-wave (km/s) = 3.52525 5.06646 4.36443
#
# Compressibility (1/GPa) = 0.05788583
#
# Stress axis : x y z
#
# Youngs Moduli (GPa) = 101.22595 32.88216 122.61669
#
# Poissons Ratio (x) = -0.03069 -0.14307
# Poissons Ratio (y) = -0.09447 -0.32124
# Poissons Ratio (z) = -0.11811 -0.08615
#
# Static dielectric constant tensor:
#      x y z
#    x 1.689320 0.000000 0.000000 
#    y 0.000000 1.796980 0.000000 
#    z 0.000000 0.000000 1.864730 
# 
# From -- ./inp_files/29395.got.cif
#   From: 2010.05.17/outbox.cif.g08.bks.cpg/sg63_15_cif.got.tgz:29395.got - 2010.06.03 15:47:04.
