data_PCOD9469498
_publ_section_title
;
Structure prediction by ZEFSAII (Michael W. Deem and Ramdas Pophale) SiO2 
 PCOD9469498
Probable space group: C M C M
;
_chemical_formula_sum "Si O2"
_cell_formula_units_Z 88
_cell_length_a 18.991929
_cell_length_b 30.285826
_cell_length_c 8.444936
_cell_angle_alpha 90.000000
_cell_angle_beta 90.000000
_cell_angle_gamma 90.000000
_cell_volume 4857.411129
_symmetry_space_group_name_H-M "C M C M"
_symmetry_group_IT_number 63
_symmetry_cell_setting 'orthorhombic'
loop_
_space_group_symop_operation_xyz
x,y,z
-x,-y,1/2+z
x,-y,-z
-x,y,1/2-z
-x,-y,-z
x,y,1/2-z
-x,y,z
x,-y,1/2+z
1/2+x,1/2+y,z
1/2-x,1/2-y,1/2+z
1/2+x,1/2-y,-z
1/2-x,1/2+y,1/2-z
1/2-x,1/2-y,-z
1/2+x,1/2+y,1/2-z
1/2-x,1/2+y,z
1/2+x,1/2-y,1/2+z
loop_
_atom_site_type_symbol
_atom_site_label
_atom_site_fract_x
_atom_site_fract_y
_atom_site_fract_z
Si Si1 0.209578 0.207003 0.940302
Si Si2 0.649579 0.550205 0.438375
Si Si3 0.079618 0.258363 0.940699
Si Si4 0.919988 0.643369 0.940429
Si Si5 0.771372 0.613549 0.557647
Si Si6 0.000000 0.050689 0.938634
O O1 0.214290 0.205952 0.750000
O O2 0.129990 0.218425 0.987320
O O3 0.240341 0.160873 0.996988
O O4 0.250000 0.250000 0.000000
O O5 0.654815 0.500000 0.500000
O O6 0.646100 0.549692 0.250000
O O7 0.718077 0.576889 0.494623
O O8 0.574923 0.569519 0.502279
O O9 0.083755 0.263376 0.750000
O O10 0.000000 0.248940 0.986260
O O11 0.097924 0.306008 0.013862
O O12 0.922406 0.640963 0.750000
O O13 0.853810 0.613382 0.992554
O O14 0.000000 0.633979 0.999704
O O15 0.770005 0.611906 0.750000
O O16 0.000000 0.050853 0.750000
O O17 0.000000 0.000000 0.000000
#
# Coordination Sequence:
#
# PCOD9469498 Si02
#       6
#    16  16  16  16  16   8
#     4  10  19  31  48  71 102 138 176 218 265 315
#     4  11  22  38  60  84 110 139 176 219 264 315
#     4   9  17  29  45  66  96 134 177 218 257 306
#     4   9  17  30  50  74 101 136 179 223 266 315
#     4  10  20  34  51  77 108 140 180 222 272 326
#     4  10  18  34  60  86 112 142 174 212 258 310
#
# _framework density 18.116644999999998
#
# number of rings (size 3 to 8) (size 9 to 14) (size 15 to 20)
#    0.000    2.182    1.818    3.545    0.000    1.455 
#    1.636    0.000    0.000    0.545    0.000    0.000 
#    0.000    0.000    0.000    0.000    0.000    0.000 
#
# Total GULP energy -245192.832535 kJ/mol
# GULP energy per Si atom -5572.564376 kJ/mol
# Density = 1.807541 g / cm^3
# Si number density = 18.116645 Si / 1000 Ang^3
#
#
#
# Elastic Constant Matrix: (Units=GPa)
#
#
# Indices 1 2 3 4 5 6 
#
# 1 167.0239 59.3842 38.5886 0.0000 0.0000 0.0000
# 2 59.3842 60.2112 15.6605 0.0000 0.0000 0.0000
# 3 38.5886 15.6605 44.3605 0.0000 0.0000 0.0000
# 4 0.0000 0.0000 0.0000 21.5499 0.0000 0.0000
# 5 0.0000 0.0000 0.0000 0.0000 23.4022 0.0000
# 6 0.0000 0.0000 0.0000 0.0000 0.0000 32.5659
#
#
#
# Elastic Compliance Matrix: (Units=1/GPa)
#
#
# Indices 1 2 3 4 5 6 
#
# 1 0.010509 -0.008794 -0.006037 0.000000 0.000000 0.000000
# 2 -0.008794 0.025647 -0.001404 0.000000 0.000000 0.000000
# 3 -0.006037 -0.001404 0.028289 0.000000 0.000000 0.000000
# 4 0.000000 0.000000 0.000000 0.046404 0.000000 0.000000
# 5 0.000000 0.000000 0.000000 0.000000 0.042731 0.000000
# 6 0.000000 0.000000 0.000000 0.000000 0.000000 0.030707
#
#
# Mechanical properties :
#
#
# Convention : Reuss Voigt Hill
#
# Bulk Modulus (GPa) = 31.27449 55.42914 43.35182
# Shear Modulus (GPa) = 21.98625 26.03441 24.01033
#
# Velocity S-wave (km/s) = 3.48745 3.79495 3.64444
# Velocity P-wave (km/s) = 5.78936 7.06147 6.45682
#
# Compressibility (1/GPa) = 0.03197494
#
# Stress axis : x y z
#
# Youngs Moduli (GPa) = 95.16065 38.99136 35.34883
#
# Poissons Ratio (x) = 0.34289 0.21339
# Poissons Ratio (y) = 0.83685 0.04963
# Poissons Ratio (z) = 0.57446 0.05475
#
# Static dielectric constant tensor:
#      x y z
#    x 1.707700 0.000000 0.000000 
#    y 0.000000 1.590220 0.000000 
#    z 0.000000 0.000000 1.615290 
# 
# From -- ./inp_files/6809.got.cif
#   From: 2010.05.17/outbox.cif.g08.bks.cpg/sg63_4_cif.got.tgz:6809.got - 2010.06.03 15:47:04.
