data_PCOD9469726
_publ_section_title
;
Structure prediction by ZEFSAII (Michael W. Deem and Ramdas Pophale) SiO2 
 PCOD9469726
Probable space group: C M C M
;
_chemical_formula_sum "Si O2"
_cell_formula_units_Z 96
_cell_length_a 24.608253
_cell_length_b 25.208944
_cell_length_c 9.758384
_cell_angle_alpha 90.000000
_cell_angle_beta 90.000000
_cell_angle_gamma 90.000000
_cell_volume 6053.594698
_symmetry_space_group_name_H-M "C M C M"
_symmetry_group_IT_number 63
_symmetry_cell_setting 'orthorhombic'
loop_
_space_group_symop_operation_xyz
x,y,z
-x,-y,1/2+z
x,-y,-z
-x,y,1/2-z
-x,-y,-z
x,y,1/2-z
-x,y,z
x,-y,1/2+z
1/2+x,1/2+y,z
1/2-x,1/2-y,1/2+z
1/2+x,1/2-y,-z
1/2-x,1/2+y,1/2-z
1/2-x,1/2-y,-z
1/2+x,1/2+y,1/2-z
1/2-x,1/2+y,z
1/2+x,1/2-y,1/2+z
loop_
_atom_site_type_symbol
_atom_site_label
_atom_site_fract_x
_atom_site_fract_y
_atom_site_fract_z
Si Si1 0.936653 0.369680 0.601217
Si Si2 0.897881 0.453756 0.097233
Si Si3 0.767893 0.547099 0.596103
Si Si4 0.244724 0.670258 0.913728
Si Si5 0.833519 0.765554 0.586640
Si Si6 0.937415 0.757747 0.092448
O O1 0.913343 0.386185 0.750000
O O2 0.908631 0.398319 0.476120
O O3 0.935056 0.306380 0.593237
O O4 0.000000 0.384910 0.598761
O O5 0.920471 0.456027 0.250000
O O6 0.832988 0.460216 0.104874
O O7 0.920152 0.500000 0.000000
O O8 0.746690 0.500000 0.500000
O O9 0.745627 0.541824 0.750000
O O10 0.759789 0.608108 0.551157
O O11 0.257299 0.674492 0.750000
O O12 0.189963 0.705415 0.933763
O O13 0.290214 0.697530 0.007769
O O14 0.834935 0.775161 0.750000
O O15 0.891537 0.774332 0.514776
O O16 0.925702 0.774815 0.250000
O O17 0.000000 0.772726 0.060139
#
# Coordination Sequence:
#
# PCOD9469726 Si02
#       6
#    16  16  16  16  16  16
#     4   9  18  31  44  58  77 104 141 182 222 264
#     4  10  19  30  43  59  79 105 140 181 224 266
#     4   9  18  31  46  64  87 115 147 183 222 267
#     4   9  18  32  47  66  95 126 153 186 232 280
#     4  10  19  30  47  71  95 121 156 194 229 269
#     4   9  18  32  48  65  88 119 150 181 224 276
#
# _framework density 15.858345999999999
#
# number of rings (size 3 to 8) (size 9 to 14) (size 15 to 20)
#    0.000    2.667    0.000    3.000    0.000    5.000 
#    0.000    1.667    0.000    0.000    0.000    0.000 
#    0.000    0.667    0.000    2.167    0.000    2.667 
#
# Total GULP energy -267318.549212 kJ/mol
# GULP energy per Si atom -5569.136442 kJ/mol
# Density = 1.582225 g / cm^3
# Si number density = 15.858346 Si / 1000 Ang^3
#
#
#
# Elastic Constant Matrix: (Units=GPa)
#
#
# Indices 1 2 3 4 5 6 
#
# 1 59.3079 5.8983 41.7513 0.0000 0.0000 0.0000
# 2 5.8983 62.4948 33.3142 0.0000 0.0000 0.0000
# 3 41.7513 33.3142 94.4680 0.0000 0.0000 0.0000
# 4 0.0000 0.0000 0.0000 23.3262 0.0000 0.0000
# 5 0.0000 0.0000 0.0000 0.0000 19.9640 0.0000
# 6 0.0000 0.0000 0.0000 0.0000 0.0000 15.5772
#
#
#
# Elastic Compliance Matrix: (Units=1/GPa)
#
#
# Indices 1 2 3 4 5 6 
#
# 1 0.025432 0.004423 -0.012800 0.000000 0.000000 0.000000
# 2 0.004423 0.020475 -0.009175 0.000000 0.000000 0.000000
# 3 -0.012800 -0.009175 0.019478 0.000000 0.000000 0.000000
# 4 0.000000 0.000000 0.000000 0.042870 0.000000 0.000000
# 5 0.000000 0.000000 0.000000 0.000000 0.050090 0.000000
# 6 0.000000 0.000000 0.000000 0.000000 0.000000 0.064197
#
#
# Mechanical properties :
#
#
# Convention : Reuss Voigt Hill
#
# Bulk Modulus (GPa) = 33.02400 42.02202 37.52301
# Shear Modulus (GPa) = 18.67483 20.79392 19.73437
#
# Velocity S-wave (km/s) = 3.43534 3.62502 3.53145
# Velocity P-wave (km/s) = 6.05021 6.63904 6.35145
#
# Compressibility (1/GPa) = 0.03028101
#
# Stress axis : x y z
#
# Youngs Moduli (GPa) = 39.32057 48.84011 51.33933
#
# Poissons Ratio (x) = -0.21601 0.65713
# Poissons Ratio (y) = -0.17391 0.47105
# Poissons Ratio (z) = 0.50329 0.44812
#
# Static dielectric constant tensor:
#      x y z
#    x 1.529360 0.000000 0.000000 
#    y 0.000000 1.528540 0.000000 
#    z 0.000000 0.000000 1.561930 
# 
# From -- ./inp_files/8507.got.cif
#   From: 2010.05.17/outbox.cif.g08.bks.cpg/sg63_5_cif.got.tgz:8507.got - 2010.06.03 15:47:04.
