data_PCOD9469422
_publ_section_title
;
Structure prediction by ZEFSAII (Michael W. Deem and Ramdas Pophale) SiO2 
 PCOD9469422
Probable space group: C M C M
;
_chemical_formula_sum "Si O2"
_cell_formula_units_Z 80
_cell_length_a 21.241631
_cell_length_b 14.281886
_cell_length_c 15.257549
_cell_angle_alpha 90.000000
_cell_angle_beta 90.000000
_cell_angle_gamma 90.000000
_cell_volume 4628.691068
_symmetry_space_group_name_H-M "C M C M"
_symmetry_group_IT_number 63
_symmetry_cell_setting 'orthorhombic'
loop_
_space_group_symop_operation_xyz
x,y,z
-x,-y,1/2+z
x,-y,-z
-x,y,1/2-z
-x,-y,-z
x,y,1/2-z
-x,y,z
x,-y,1/2+z
1/2+x,1/2+y,z
1/2-x,1/2-y,1/2+z
1/2+x,1/2-y,-z
1/2-x,1/2+y,1/2-z
1/2-x,1/2-y,-z
1/2+x,1/2+y,1/2-z
1/2-x,1/2+y,z
1/2+x,1/2-y,1/2+z
loop_
_atom_site_type_symbol
_atom_site_label
_atom_site_fract_x
_atom_site_fract_y
_atom_site_fract_z
Si Si1 0.302079 0.698079 0.154368
Si Si2 0.649984 0.602405 0.521778
Si Si3 0.207776 0.403630 0.408026
Si Si4 0.829694 0.607445 0.391064
Si Si5 0.925806 0.760921 0.350789
O O1 0.326027 0.668401 0.250000
O O2 0.303236 0.809922 0.145720
O O3 0.229652 0.665521 0.145156
O O4 0.336336 0.653737 0.070477
O O5 0.623383 0.500000 0.500000
O O6 0.717759 0.586718 0.569759
O O7 0.607719 0.667090 0.583327
O O8 0.176013 0.389740 0.503352
O O9 0.181162 0.499041 0.367225
O O10 0.892115 0.660313 0.362030
O O11 0.916381 0.791292 0.250000
O O12 0.000000 0.755047 0.367985
#
# Coordination Sequence:
#
# PCOD9469422 Si02
#       5
#    16  16  16  16  16
#     4  11  20  31  55  88 118 145 179 231 294 338
#     4  11  20  38  58  82 117 144 184 238 282 333
#     4  10  18  33  57  88 115 146 181 227 291 340
#     4  10  18  35  57  84 115 147 181 229 282 334
#     4  11  24  40  59  82 111 152 194 229 271 330
#
# _framework density 17.283503
#
# number of rings (size 3 to 8) (size 9 to 14) (size 15 to 20)
#    0.000    1.400    8.000    1.800    0.000    2.800 
#    0.000    2.000    0.000    0.600    0.000    0.000 
#    0.000    0.000    0.000    0.000    0.000    0.000 
#
# Total GULP energy -223217.144481 kJ/mol
# GULP energy per Si atom -5580.428612 kJ/mol
# Density = 1.724417 g / cm^3
# Si number density = 17.283503 Si / 1000 Ang^3
#
#
#
# Elastic Constant Matrix: (Units=GPa)
#
#
# Indices 1 2 3 4 5 6 
#
# 1 87.5701 50.9833 59.3487 0.0000 0.0000 0.0000
# 2 50.9833 147.5987 50.9079 0.0000 0.0000 0.0000
# 3 59.3487 50.9079 97.2628 0.0000 0.0000 0.0000
# 4 0.0000 0.0000 0.0000 -8.4154 0.0000 0.0000
# 5 0.0000 0.0000 0.0000 0.0000 -21.3280 0.0000
# 6 0.0000 0.0000 0.0000 0.0000 0.0000 8.6186
#
#
#
# Elastic Compliance Matrix: (Units=1/GPa)
#
#
# Indices 1 2 3 4 5 6 
#
# 1 0.020801 -0.003426 -0.010899 0.000000 0.000000 0.000000
# 2 -0.003426 0.008832 -0.002532 0.000000 0.000000 0.000000
# 3 -0.010899 -0.002532 0.018257 0.000000 0.000000 0.000000
# 4 0.000000 0.000000 0.000000 -0.118830 0.000000 0.000000
# 5 0.000000 0.000000 0.000000 0.000000 -0.046887 0.000000
# 6 0.000000 0.000000 0.000000 0.000000 0.000000 0.116028
#
#
# Mechanical properties :
#
#
# Convention : Reuss Voigt Hill
#
# Bulk Modulus (GPa) = 70.54498 72.76794 71.65646
# Shear Modulus (GPa) = 136.46025 7.18782 71.82403
#
# Velocity S-wave (km/s) = 8.89525 2.04152 6.45342
# Velocity P-wave (km/s) = 12.09982 6.91021 9.85283
#
# Compressibility (1/GPa) = 0.01417535
#
# Stress axis : x y z
#
# Youngs Moduli (GPa) = 48.07551 113.22674 54.77202
#
# Poissons Ratio (x) = 0.38788 0.59698
# Poissons Ratio (y) = 0.16469 0.13870
# Poissons Ratio (z) = 0.52399 0.28673
#
# Static dielectric constant tensor:
#      x y z
#    x 1.550840 0.000000 0.000000 
#    y 0.000000 1.609390 0.000000 
#    z 0.000000 0.000000 1.610340 
# 
# From -- ./inp_files/35103.got.cif
#   From: 2010.05.17/outbox.cif.g08.bks.cpg/sg63_18_cif.got.tgz:35103.got - 2010.06.03 15:47:04.
