data_PCOD9469741
_publ_section_title
;
Structure prediction by ZEFSAII (Michael W. Deem and Ramdas Pophale) SiO2 
 PCOD9469741
Probable space group: C M C M
;
_chemical_formula_sum "Si O2"
_cell_formula_units_Z 72
_cell_length_a 35.148450
_cell_length_b 14.923325
_cell_length_c 7.651343
_cell_angle_alpha 90.000000
_cell_angle_beta 90.000000
_cell_angle_gamma 90.000000
_cell_volume 4013.372277
_symmetry_space_group_name_H-M "C M C M"
_symmetry_group_IT_number 63
_symmetry_cell_setting 'orthorhombic'
loop_
_space_group_symop_operation_xyz
x,y,z
-x,-y,1/2+z
x,-y,-z
-x,y,1/2-z
-x,-y,-z
x,y,1/2-z
-x,y,z
x,-y,1/2+z
1/2+x,1/2+y,z
1/2-x,1/2-y,1/2+z
1/2+x,1/2-y,-z
1/2-x,1/2+y,1/2-z
1/2-x,1/2-y,-z
1/2+x,1/2+y,1/2-z
1/2-x,1/2+y,z
1/2+x,1/2-y,1/2+z
loop_
_atom_site_type_symbol
_atom_site_label
_atom_site_fract_x
_atom_site_fract_y
_atom_site_fract_z
Si Si1 0.500000 0.105700 0.540748
Si Si2 0.151698 0.273727 0.453309
Si Si3 0.721655 0.103576 0.458670
Si Si4 0.692015 0.602703 0.460275
Si Si5 0.583279 0.894459 0.461033
O O1 0.500000 0.118500 0.750000
O O2 0.541373 0.136353 0.475043
O O3 0.500000 0.000000 0.500000
O O4 0.141908 0.259010 0.250000
O O5 0.190030 0.332460 0.462077
O O6 0.162982 0.177154 0.529518
O O7 0.117310 0.332388 0.529704
O O8 0.720874 0.115542 0.250000
O O9 0.764726 0.120409 0.523650
O O10 0.712780 0.000000 0.500000
O O11 0.682332 0.500000 0.500000
O O12 0.693479 0.611305 0.250000
O O13 0.583039 0.889199 0.250000
O O14 0.589048 0.000000 0.500000
#
# Coordination Sequence:
#
# PCOD9469741 Si02
#       5
#     8  16  16  16  16
#     4   8  14  26  42  60  83 112 138 160 193 242
#     4  10  19  30  44  64  87 110 139 178 215 248
#     4  10  19  30  44  62  85 114 143 173 209 251
#     4   9  19  33  46  60  81 110 145 181 215 248
#     4   9  17  28  43  63  88 113 137 165 200 244
#
# _framework density 17.940024000000001
#
# number of rings (size 3 to 8) (size 9 to 14) (size 15 to 20)
#    0.000    2.667    0.000    2.000    0.000    4.444 
#    0.000    0.000    0.000    0.000    0.000    0.778 
#    0.000    0.000    0.000    0.000    0.000    0.000 
#
# Total GULP energy -200680.867127 kJ/mol
# GULP energy per Si atom -5574.468531 kJ/mol
# Density = 1.789919 g / cm^3
# Si number density = 17.940024 Si / 1000 Ang^3
#
#
#
# Elastic Constant Matrix: (Units=GPa)
#
#
# Indices 1 2 3 4 5 6 
#
# 1 133.5154 101.2420 4.3749 0.0000 0.0000 0.0000
# 2 101.2420 99.0090 -6.0545 0.0000 0.0000 0.0000
# 3 4.3749 -6.0545 36.5590 0.0000 0.0000 0.0000
# 4 0.0000 0.0000 0.0000 14.9520 0.0000 0.0000
# 5 0.0000 0.0000 0.0000 0.0000 8.8525 0.0000
# 6 0.0000 0.0000 0.0000 0.0000 0.0000 19.7484
#
#
#
# Elastic Compliance Matrix: (Units=1/GPa)
#
#
# Indices 1 2 3 4 5 6 
#
# 1 0.037168 -0.038670 -0.010852 0.000000 0.000000 0.000000
# 2 -0.038670 0.050436 0.012980 0.000000 0.000000 0.000000
# 3 -0.010852 0.012980 0.030801 0.000000 0.000000 0.000000
# 4 0.000000 0.000000 0.000000 0.066881 0.000000 0.000000
# 5 0.000000 0.000000 0.000000 0.000000 0.112963 0.000000
# 6 0.000000 0.000000 0.000000 0.000000 0.000000 0.050637
#
#
# Mechanical properties :
#
#
# Convention : Reuss Voigt Hill
#
# Bulk Modulus (GPa) = 22.06437 52.02312 37.04375
# Shear Modulus (GPa) = 11.43968 20.01197 15.72583
#
# Velocity S-wave (km/s) = 2.52794 3.34352 2.96392
# Velocity P-wave (km/s) = 4.56577 6.63075 5.69268
#
# Compressibility (1/GPa) = 0.04532193
#
# Stress axis : x y z
#
# Youngs Moduli (GPa) = 26.90506 19.82728 32.46621
#
# Poissons Ratio (x) = 0.76671 0.35232
# Poissons Ratio (y) = 1.04041 -0.42141
# Poissons Ratio (z) = 0.29197 -0.25736
#
# Static dielectric constant tensor:
#      x y z
#    x 1.655810 0.000000 0.000000 
#    y 0.000000 1.612350 0.000000 
#    z 0.000000 0.000000 1.677070 
# 
# From -- ./inp_files/13923.got.cif
#   From: 2010.05.17/outbox.cif.g08.bks.cpg/sg63_7_cif.got.tgz:13923.got - 2010.06.03 15:47:04.
