data_PCOD9469988
_publ_section_title
;
Structure prediction by ZEFSAII (Michael W. Deem and Ramdas Pophale) SiO2 
 PCOD9469988
Probable space group: C M C M
;
_chemical_formula_sum "Si O2"
_cell_formula_units_Z 96
_cell_length_a 23.087403
_cell_length_b 7.199346
_cell_length_c 21.394598
_cell_angle_alpha 90.000000
_cell_angle_beta 90.000000
_cell_angle_gamma 90.000000
_cell_volume 3556.086043
_symmetry_space_group_name_H-M "C M C M"
_symmetry_group_IT_number 63
_symmetry_cell_setting 'orthorhombic'
loop_
_space_group_symop_operation_xyz
x,y,z
-x,-y,1/2+z
x,-y,-z
-x,y,1/2-z
-x,-y,-z
x,y,1/2-z
-x,y,z
x,-y,1/2+z
1/2+x,1/2+y,z
1/2-x,1/2-y,1/2+z
1/2+x,1/2-y,-z
1/2-x,1/2+y,1/2-z
1/2-x,1/2-y,-z
1/2+x,1/2+y,1/2-z
1/2-x,1/2+y,z
1/2+x,1/2-y,1/2+z
loop_
_atom_site_type_symbol
_atom_site_label
_atom_site_fract_x
_atom_site_fract_y
_atom_site_fract_z
Si Si1 0.438274 0.224416 0.510624
Si Si2 0.315903 0.786666 0.822250
Si Si3 0.937611 0.882774 0.847640
Si Si4 0.683975 0.212934 0.984474
Si Si5 0.312981 0.614771 0.350716
Si Si6 0.438518 0.825428 0.825321
O O1 0.500000 0.291825 0.483416
O O2 0.438156 0.292708 0.582940
O O3 0.375801 0.294719 0.486638
O O4 0.439185 0.000000 0.500000
O O5 0.325634 0.726666 0.750000
O O6 0.314627 0.604297 0.864423
O O7 0.251341 0.866808 0.822620
O O8 0.373931 0.898963 0.841667
O O9 0.874550 0.838426 0.818296
O O10 0.938176 0.108465 0.845168
O O11 0.000000 0.827630 0.819114
O O12 0.684279 0.264216 0.912200
O O13 0.750000 0.250000 0.000000
O O14 0.677780 0.000000 0.000000
O O15 0.441380 0.836160 0.750000
O O16 0.500000 0.905792 0.849517
#
# Coordination Sequence:
#
# PCOD9469988 Si02
#       6
#    16  16  16  16  16  16
#     4   8  14  25  42  63  85 113 150 186 221 266
#     4  10  19  31  48  69  93 120 150 187 229 272
#     4   8  14  25  42  64  87 111 145 190 229 258
#     4  10  19  31  48  69  94 123 154 190 230 273
#     4  10  19  31  48  70  95 122 153 189 230 275
#     4   8  14  25  42  63  84 110 148 187 218 254
#
# _framework density 26.995971999999998
#
# number of rings (size 3 to 8) (size 9 to 14) (size 15 to 20)
#    0.000    3.000    0.000    1.500    0.000    0.667 
#    0.000    0.000    0.000    2.500    0.000    0.000 
#    0.000    0.000    0.000    0.000    0.000    0.000 
#
# Total GULP energy -267445.024277 kJ/mol
# GULP energy per Si atom -5571.771339 kJ/mol
# Density = 2.693453 g / cm^3
# Si number density = 26.995972 Si / 1000 Ang^3
#
#
#
# Elastic Constant Matrix: (Units=GPa)
#
#
# Indices 1 2 3 4 5 6 
#
# 1 419.3939 33.0230 45.1200 0.0000 0.0000 0.0000
# 2 33.0230 83.8389 -10.7320 0.0000 0.0000 0.0000
# 3 45.1200 -10.7320 87.2800 0.0000 0.0000 0.0000
# 4 0.0000 0.0000 0.0000 -2.1353 0.0000 0.0000
# 5 0.0000 0.0000 0.0000 0.0000 12.8650 0.0000
# 6 0.0000 0.0000 0.0000 0.0000 0.0000 15.4380
#
#
#
# Elastic Compliance Matrix: (Units=1/GPa)
#
#
# Indices 1 2 3 4 5 6 
#
# 1 0.002645 -0.001236 -0.001519 0.000000 0.000000 0.000000
# 2 -0.001236 0.012696 0.002200 0.000000 0.000000 0.000000
# 3 -0.001519 0.002200 0.012513 0.000000 0.000000 0.000000
# 4 0.000000 0.000000 0.000000 -0.468322 0.000000 0.000000
# 5 0.000000 0.000000 0.000000 0.000000 0.077730 0.000000
# 6 0.000000 0.000000 0.000000 0.000000 0.000000 0.064775
#
#
# Mechanical properties :
#
#
# Convention : Reuss Voigt Hill
#
# Bulk Modulus (GPa) = 37.39189 80.59277 58.99233
# Shear Modulus (GPa) = -17.36499 40.10698 11.37100
#
# Velocity S-wave (km/s) = -2.53898 3.85861 2.05457
# Velocity P-wave (km/s) = 2.29908 7.05481 5.24672
#
# Compressibility (1/GPa) = 0.02674377
#
# Stress axis : x y z
#
# Youngs Moduli (GPa) = 378.03999 78.76305 79.91409
#
# Poissons Ratio (x) = 0.09738 0.12143
# Poissons Ratio (y) = 0.46742 -0.17584
# Poissons Ratio (z) = 0.57443 -0.17330
#
# Static dielectric constant tensor:
#      x y z
#    x 2.196820 0.000000 0.000000 
#    y 0.000000 2.102860 0.000000 
#    z 0.000000 0.000000 2.098070 
# 
# From -- ./inp_files/69885.got.cif
#   From: 2010.05.17/outbox.cif.g08.bks.cpg/sg63_35_cif.got.tgz:69885.got - 2010.06.03 15:47:04.
