data_PCOD9469960
_publ_section_title
;
Structure prediction by ZEFSAII (Michael W. Deem and Ramdas Pophale) SiO2 
 PCOD9469960
Probable space group: C M C M
;
_chemical_formula_sum "Si O2"
_cell_formula_units_Z 80
_cell_length_a 25.150771
_cell_length_b 24.064186
_cell_length_c 8.729683
_cell_angle_alpha 90.000000
_cell_angle_beta 90.000000
_cell_angle_gamma 90.000000
_cell_volume 5283.490759
_symmetry_space_group_name_H-M "C M C M"
_symmetry_group_IT_number 63
_symmetry_cell_setting 'orthorhombic'
loop_
_space_group_symop_operation_xyz
x,y,z
-x,-y,1/2+z
x,-y,-z
-x,y,1/2-z
-x,-y,-z
x,y,1/2-z
-x,y,z
x,-y,1/2+z
1/2+x,1/2+y,z
1/2-x,1/2-y,1/2+z
1/2+x,1/2-y,-z
1/2-x,1/2+y,1/2-z
1/2-x,1/2-y,-z
1/2+x,1/2+y,1/2-z
1/2-x,1/2+y,z
1/2+x,1/2-y,1/2+z
loop_
_atom_site_type_symbol
_atom_site_label
_atom_site_fract_x
_atom_site_fract_y
_atom_site_fract_z
Si Si1 0.058939 0.235872 0.065682
Si Si2 0.939655 0.888203 0.433339
Si Si3 0.334449 0.559619 0.432047
Si Si4 0.271124 0.338036 0.432969
Si Si5 0.828437 0.729465 0.565662
O O1 0.059886 0.228042 0.250000
O O2 0.109407 0.273798 0.025663
O O3 0.000000 0.256698 0.023626
O O4 0.066057 0.175456 0.989621
O O5 0.934079 0.890051 0.250000
O O6 0.893233 0.923755 0.508874
O O7 0.000000 0.905965 0.473468
O O8 0.319786 0.500000 0.500000
O O9 0.334848 0.557611 0.250000
O O10 0.294666 0.607635 0.488671
O O11 0.275467 0.343933 0.250000
O O12 0.210456 0.321396 0.474047
O O13 0.305286 0.284712 0.486697
O O14 0.824093 0.736972 0.750000
#
# Coordination Sequence:
#
# PCOD9469960 Si02
#       5
#    16  16  16  16  16
#     4   9  16  27  45  69  96 125 155 188 226 269
#     4  10  20  33  48  67  91 120 156 196 235 273
#     4  12  24  37  51  66  88 119 158 199 241 280
#     4  10  19  31  47  68  93 121 156 193 232 275
#     4   9  17  29  47  70  95 124 154 188 229 277
#
# _framework density 15.141503999999999
#
# number of rings (size 3 to 8) (size 9 to 14) (size 15 to 20)
#    0.000    2.000    2.000    3.000    0.000    2.400 
#    0.000    0.000    0.000    0.000    0.000    0.000 
#    0.000    0.800    0.000    1.400    0.000    2.000 
#
# Total GULP energy -223085.393433 kJ/mol
# GULP energy per Si atom -5577.134836 kJ/mol
# Density = 1.510704 g / cm^3
# Si number density = 15.141504 Si / 1000 Ang^3
#
#
#
# Elastic Constant Matrix: (Units=GPa)
#
#
# Indices 1 2 3 4 5 6 
#
# 1 116.0519 63.8081 44.8220 0.0000 0.0000 0.0000
# 2 63.8081 82.2463 38.9354 0.0000 0.0000 0.0000
# 3 44.8220 38.9354 54.5586 0.0000 0.0000 0.0000
# 4 0.0000 0.0000 0.0000 19.5635 0.0000 0.0000
# 5 0.0000 0.0000 0.0000 0.0000 17.4105 0.0000
# 6 0.0000 0.0000 0.0000 0.0000 0.0000 16.7884
#
#
#
# Elastic Compliance Matrix: (Units=1/GPa)
#
#
# Indices 1 2 3 4 5 6 
#
# 1 0.016492 -0.009636 -0.006672 0.000000 0.000000 0.000000
# 2 -0.009636 0.023992 -0.009206 0.000000 0.000000 0.000000
# 3 -0.006672 -0.009206 0.030380 0.000000 0.000000 0.000000
# 4 0.000000 0.000000 0.000000 0.051116 0.000000 0.000000
# 5 0.000000 0.000000 0.000000 0.000000 0.057437 0.000000
# 6 0.000000 0.000000 0.000000 0.000000 0.000000 0.059565
#
#
# Mechanical properties :
#
#
# Convention : Reuss Voigt Hill
#
# Bulk Modulus (GPa) = 50.41173 60.88752 55.64962
# Shear Modulus (GPa) = 16.85655 17.77190 17.31422
#
# Velocity S-wave (km/s) = 3.34019 3.42968 3.38523
# Velocity P-wave (km/s) = 6.94563 7.48219 7.21890
#
# Compressibility (1/GPa) = 0.01983665
#
# Stress axis : x y z
#
# Youngs Moduli (GPa) = 60.63581 41.67984 32.91680
#
# Poissons Ratio (x) = 0.40164 0.21962
# Poissons Ratio (y) = 0.58430 0.30302
# Poissons Ratio (z) = 0.40456 0.38368
#
# Static dielectric constant tensor:
#      x y z
#    x 1.546440 0.000000 0.000000 
#    y 0.000000 1.462410 0.000000 
#    z 0.000000 0.000000 1.503650 
# 
# From -- ./inp_files/12069.got.cif
#   From: 2010.05.17/outbox.cif.g08.bks.cpg/sg63_7_cif.got.tgz:12069.got - 2010.06.03 15:47:04.
