data_PCOD9469167
_publ_section_title
;
Structure prediction by ZEFSAII (Michael W. Deem and Ramdas Pophale) SiO2 
 PCOD9469167
Probable space group: C M C M
;
_chemical_formula_sum "Si O2"
_cell_formula_units_Z 116
_cell_length_a 24.200018
_cell_length_b 27.290201
_cell_length_c 7.356503
_cell_angle_alpha 90.000000
_cell_angle_beta 90.000000
_cell_angle_gamma 90.000000
_cell_volume 4858.406395
_symmetry_space_group_name_H-M "C M C M"
_symmetry_group_IT_number 63
_symmetry_cell_setting 'orthorhombic'
loop_
_space_group_symop_operation_xyz
x,y,z
-x,-y,1/2+z
x,-y,-z
-x,y,1/2-z
-x,-y,-z
x,y,1/2-z
-x,y,z
x,-y,1/2+z
1/2+x,1/2+y,z
1/2-x,1/2-y,1/2+z
1/2+x,1/2-y,-z
1/2-x,1/2+y,1/2-z
1/2-x,1/2-y,-z
1/2+x,1/2+y,1/2-z
1/2-x,1/2+y,z
1/2+x,1/2-y,1/2+z
loop_
_atom_site_type_symbol
_atom_site_label
_atom_site_fract_x
_atom_site_fract_y
_atom_site_fract_z
Si Si1 0.597276 0.573816 0.538947
Si Si2 0.887088 0.286309 0.471299
Si Si3 0.665442 0.943272 0.034016
Si Si4 0.563818 0.315111 0.530492
Si Si5 0.559706 0.883482 0.028496
Si Si6 0.216156 0.904269 0.472150
Si Si7 0.000000 0.000000 0.500000
Si Si8 0.265850 0.805660 0.034248
O O1 0.596835 0.558720 0.750000
O O2 0.583171 0.631600 0.531971
O O3 0.659597 0.570717 0.464185
O O4 0.548688 0.541141 0.458293
O O5 0.884928 0.284194 0.250000
O O6 0.900248 0.231365 0.533145
O O7 0.932555 0.326463 0.519616
O O8 0.828604 0.308338 0.534080
O O9 0.667586 0.933669 0.250000
O O10 0.613160 0.912983 0.963502
O O11 0.726553 0.928886 0.967928
O O12 0.655869 0.000000 0.000000
O O13 0.565985 0.315721 0.750000
O O14 0.500000 0.307576 0.477432
O O15 0.560251 0.885956 0.250000
O O16 0.500000 0.902027 0.967756
O O17 0.212716 0.905719 0.250000
O O18 0.223965 0.847435 0.531494
O O19 0.268338 0.813392 0.250000
O O20 0.250000 0.750000 0.000000
#
# Coordination Sequence:
#
# PCOD9469167 Si02
#       8
#    16  16  16  16  16  16   4  16
#     4  11  24  42  62  81 107 145 186 233 290 348
#     4   9  16  29  51  80 114 149 183 225 268 319
#     4  10  20  36  57  81 110 145 186 232 277 328
#     4  10  20  34  54  83 116 145 181 232 282 330
#     4   9  16  29  53  83 112 146 187 225 266 319
#     4   9  19  37  59  82 110 146 186 227 280 341
#     4  12  26  40  60  82 102 140 198 246 276 336
#     4  10  18  31  53  81 113 146 181 222 270 327
#
# _framework density 23.876142999999999
#
# number of rings (size 3 to 8) (size 9 to 14) (size 15 to 20)
#    0.000    2.207    2.069    1.448    0.966    3.034 
#    0.000    1.379    0.000    0.828    0.000    0.000 
#    0.000    0.000    0.000    0.000    0.000    0.000 
#
# Total GULP energy -323594.402534 kJ/mol
# GULP energy per Si atom -5579.213837 kJ/mol
# Density = 2.382180 g / cm^3
# Si number density = 23.876143 Si / 1000 Ang^3
#
#
#
# Elastic Constant Matrix: (Units=GPa)
#
#
# Indices 1 2 3 4 5 6 
#
# 1 220.2391 84.9767 14.7284 0.0000 0.0000 0.0000
# 2 84.9767 151.1646 -3.9049 0.0000 0.0000 0.0000
# 3 14.7284 -3.9049 88.6930 0.0000 0.0000 0.0000
# 4 0.0000 0.0000 0.0000 38.7425 0.0000 0.0000
# 5 0.0000 0.0000 0.0000 0.0000 -7.7408 0.0000
# 6 0.0000 0.0000 0.0000 0.0000 0.0000 45.3056
#
#
#
# Elastic Compliance Matrix: (Units=1/GPa)
#
#
# Indices 1 2 3 4 5 6 
#
# 1 0.005909 -0.003351 -0.001129 0.000000 0.000000 0.000000
# 2 -0.003351 0.008523 0.000932 0.000000 0.000000 0.000000
# 3 -0.001129 0.000932 0.011503 0.000000 0.000000 0.000000
# 4 0.000000 0.000000 0.000000 0.025811 0.000000 0.000000
# 5 0.000000 0.000000 0.000000 0.000000 -0.129185 0.000000
# 6 0.000000 0.000000 0.000000 0.000000 0.000000 0.022072
#
#
# Mechanical properties :
#
#
# Convention : Reuss Voigt Hill
#
# Bulk Modulus (GPa) = 53.08018 72.41079 62.74548
# Shear Modulus (GPa) = -119.07417 39.54789 -39.76314
#
# Velocity S-wave (km/s) = -7.06964 4.07428 -4.08535
# Velocity P-wave (km/s) = 6.66034 7.24752 2.02069
#
# Compressibility (1/GPa) = 0.01883943
#
# Stress axis : x y z
#
# Youngs Moduli (GPa) = 169.23684 117.32925 86.93155
#
# Poissons Ratio (x) = 0.39315 0.09812
# Poissons Ratio (y) = 0.56708 -0.08099
# Poissons Ratio (z) = 0.19103 -0.10931
#
# Static dielectric constant tensor:
#      x y z
#    x 1.906000 0.000000 0.000000 
#    y 0.000000 1.870540 0.000000 
#    z 0.000000 0.000000 1.937610 
# 
# From -- ./inp_files/10937.got.cif
#   From: 2010.05.17/outbox.cif.g08.bks.cpg/sg63_6_cif.got.tgz:10937.got - 2010.06.03 15:47:04.
