data_PCOD9469516
_publ_section_title
;
Structure prediction by ZEFSAII (Michael W. Deem and Ramdas Pophale) SiO2 
 PCOD9469516
Probable space group: C M C M
;
_chemical_formula_sum "Si O2"
_cell_formula_units_Z 112
_cell_length_a 25.087750
_cell_length_b 10.960252
_cell_length_c 22.705429
_cell_angle_alpha 90.000000
_cell_angle_beta 90.000000
_cell_angle_gamma 90.000000
_cell_volume 6243.267812
_symmetry_space_group_name_H-M "C M C M"
_symmetry_group_IT_number 63
_symmetry_cell_setting 'orthorhombic'
loop_
_space_group_symop_operation_xyz
x,y,z
-x,-y,1/2+z
x,-y,-z
-x,y,1/2-z
-x,-y,-z
x,y,1/2-z
-x,y,z
x,-y,1/2+z
1/2+x,1/2+y,z
1/2-x,1/2-y,1/2+z
1/2+x,1/2-y,-z
1/2-x,1/2+y,1/2-z
1/2-x,1/2-y,-z
1/2+x,1/2+y,1/2-z
1/2-x,1/2+y,z
1/2+x,1/2-y,1/2+z
loop_
_atom_site_type_symbol
_atom_site_label
_atom_site_fract_x
_atom_site_fract_y
_atom_site_fract_z
Si Si1 0.827412 0.635996 0.684067
Si Si2 0.322132 0.617525 0.373649
Si Si3 0.294790 0.823697 0.579771
Si Si4 0.148448 0.857483 0.503519
Si Si5 0.298030 0.366072 0.179742
Si Si6 0.438058 0.814447 0.979176
Si Si7 0.614340 0.014125 0.579233
O O1 0.838810 0.597164 0.750000
O O2 0.827179 0.782084 0.676831
O O3 0.765320 0.604528 0.670813
O O4 0.869332 0.578573 0.639340
O O5 0.264970 0.634839 0.406405
O O6 0.360174 0.657154 0.426707
O O7 0.327504 0.483057 0.347731
O O8 0.306417 0.725259 0.528071
O O9 0.311058 0.752553 0.640297
O O10 0.330975 0.940259 0.564769
O O11 0.094531 0.810430 0.472505
O O12 0.160870 0.000000 0.500000
O O13 0.306294 0.350525 0.250000
O O14 0.500000 0.799937 0.991310
O O15 0.408001 0.888773 0.031940
O O16 0.428257 0.903932 0.923570
#
# Coordination Sequence:
#
# PCOD9469516 Si02
#       7
#    16  16  16  16  16  16  16
#     4  10  20  32  50  78 109 148 186 218 251 312
#     4  11  19  34  49  76 113 152 185 214 259 316
#     4  10  21  32  49  80 113 147 179 219 266 319
#     4  11  21  35  55  81 111 138 180 227 278 332
#     4  10  20  33  49  72 113 157 190 215 250 305
#     4  10  22  39  61  81 104 135 177 232 288 335
#     4  10  18  35  55  79 106 138 176 219 275 326
#
# _framework density 17.939323999999999
#
# number of rings (size 3 to 8) (size 9 to 14) (size 15 to 20)
#    0.000    1.714    4.286    1.714    0.000    1.429 
#    5.143    0.000    0.000    1.714    0.000    0.000 
#    0.000    1.429    0.000    0.000    0.000    0.000 
#
# Total GULP energy -311747.215468 kJ/mol
# GULP energy per Si atom -5566.914562 kJ/mol
# Density = 1.789849 g / cm^3
# Si number density = 17.939324 Si / 1000 Ang^3
#
#
#
# Elastic Constant Matrix: (Units=GPa)
#
#
# Indices 1 2 3 4 5 6 
#
# 1 58.5293 14.1825 17.1681 0.0000 0.0000 0.0000
# 2 14.1825 52.2446 3.9487 0.0000 0.0000 0.0000
# 3 17.1681 3.9487 78.1841 0.0000 0.0000 0.0000
# 4 0.0000 0.0000 0.0000 21.8017 0.0000 0.0000
# 5 0.0000 0.0000 0.0000 0.0000 12.7749 0.0000
# 6 0.0000 0.0000 0.0000 0.0000 0.0000 11.7470
#
#
#
# Elastic Compliance Matrix: (Units=1/GPa)
#
#
# Indices 1 2 3 4 5 6 
#
# 1 0.019473 -0.004982 -0.004024 0.000000 0.000000 0.000000
# 2 -0.004982 0.020489 0.000059 0.000000 0.000000 0.000000
# 3 -0.004024 0.000059 0.013671 0.000000 0.000000 0.000000
# 4 0.000000 0.000000 0.000000 0.045868 0.000000 0.000000
# 5 0.000000 0.000000 0.000000 0.000000 0.078279 0.000000
# 6 0.000000 0.000000 0.000000 0.000000 0.000000 0.085128
#
#
# Mechanical properties :
#
#
# Convention : Reuss Voigt Hill
#
# Bulk Modulus (GPa) = 27.98115 28.83962 28.41038
# Shear Modulus (GPa) = 17.08147 19.50863 18.29505
#
# Velocity S-wave (km/s) = 3.08909 3.30127 3.19694
# Velocity P-wave (km/s) = 5.32492 5.53555 5.43126
#
# Compressibility (1/GPa) = 0.03573835
#
# Stress axis : x y z
#
# Youngs Moduli (GPa) = 51.35279 48.80734 73.14735
#
# Poissons Ratio (x) = 0.24316 0.29437
# Poissons Ratio (y) = 0.25584 -0.00433
# Poissons Ratio (z) = 0.20666 -0.00289
#
# Static dielectric constant tensor:
#      x y z
#    x 1.601780 0.000000 0.000000 
#    y 0.000000 1.678840 0.000000 
#    z 0.000000 0.000000 1.665370 
# 
# From -- ./inp_files/57590.got.cif
#   From: 2010.05.17/outbox.cif.g08.bks.cpg/sg63_29_cif.got.tgz:57590.got - 2010.06.03 15:47:04.
