data_PCOD9469204
_publ_section_title
;
Structure prediction by ZEFSAII (Michael W. Deem and Ramdas Pophale) SiO2 
 PCOD9469204
Probable space group: C M C M
;
_chemical_formula_sum "Si O2"
_cell_formula_units_Z 104
_cell_length_a 27.713263
_cell_length_b 8.836470
_cell_length_c 21.711764
_cell_angle_alpha 90.000000
_cell_angle_beta 90.000000
_cell_angle_gamma 90.000000
_cell_volume 5316.937807
_symmetry_space_group_name_H-M "C M C M"
_symmetry_group_IT_number 63
_symmetry_cell_setting 'orthorhombic'
loop_
_space_group_symop_operation_xyz
x,y,z
-x,-y,1/2+z
x,-y,-z
-x,y,1/2-z
-x,-y,-z
x,y,1/2-z
-x,y,z
x,-y,1/2+z
1/2+x,1/2+y,z
1/2-x,1/2-y,1/2+z
1/2+x,1/2-y,-z
1/2-x,1/2+y,1/2-z
1/2-x,1/2-y,-z
1/2+x,1/2+y,1/2-z
1/2-x,1/2+y,z
1/2+x,1/2-y,1/2+z
loop_
_atom_site_type_symbol
_atom_site_label
_atom_site_fract_x
_atom_site_fract_y
_atom_site_fract_z
Si Si1 0.405900 0.139533 0.032698
Si Si2 0.187118 0.603238 0.390344
Si Si3 0.307047 0.154361 0.250000
Si Si4 0.216755 0.047503 0.613972
Si Si5 0.943213 0.904421 0.121341
Si Si6 0.131243 0.887967 0.555854
Si Si7 0.887092 0.084666 0.750000
Si Si8 0.706570 0.549711 0.250000
O O1 0.362317 0.076765 0.074500
O O2 0.433259 0.258534 0.077294
O O3 0.381894 0.233467 0.976787
O O4 0.432965 0.000000 0.000000
O O5 0.182734 0.578155 0.316577
O O6 0.199967 0.782215 0.401048
O O7 0.231647 0.500462 0.412455
O O8 0.346497 0.286489 0.250000
O O9 0.248380 0.177965 0.250000
O O10 0.177825 0.916456 0.597771
O O11 0.218593 0.038141 0.687490
O O12 0.918440 0.894758 0.188514
O O13 0.000000 0.927579 0.126766
O O14 0.915585 0.043612 0.089186
O O15 0.142883 0.000000 0.500000
O O16 0.852039 0.934996 0.750000
#
# Coordination Sequence:
#
# PCOD9469204 Si02
#       8
#    16  16   8  16  16  16   8   8
#     4  11  24  40  58  87 123 162 205 250 298 366
#     4  11  21  35  55  86 120 163 203 242 302 365
#     4  10  18  33  59  82 117 159 194 242 296 355
#     4  11  20  34  55  83 121 162 196 248 297 360
#     4  11  23  41  69  93 113 155 204 259 316 354
#     4  10  20  39  58  82 121 154 200 249 300 352
#     4  12  17  40  66  94 128 144 199 260 294 362
#     4  10  18  31  57  84 117 159 188 234 302 355
#
# _framework density 19.560130000000001
#
# number of rings (size 3 to 8) (size 9 to 14) (size 15 to 20)
#    0.000    1.231    7.692    0.231    2.154    4.308 
#    0.000    0.000    0.000    0.923    0.000    2.154 
#    0.000    0.000    0.000    0.000    0.000    0.000 
#
# Total GULP energy -289610.617913 kJ/mol
# GULP energy per Si atom -5569.434960 kJ/mol
# Density = 1.951561 g / cm^3
# Si number density = 19.560130 Si / 1000 Ang^3
#
#
#
# Elastic Constant Matrix: (Units=GPa)
#
#
# Indices 1 2 3 4 5 6 
#
# 1 117.0588 -4.1739 39.4031 0.0000 0.0000 0.0000
# 2 -4.1739 30.5078 33.0037 0.0000 0.0000 0.0000
# 3 39.4031 33.0037 95.5410 0.0000 0.0000 0.0000
# 4 0.0000 0.0000 0.0000 13.1143 0.0000 0.0000
# 5 0.0000 0.0000 0.0000 0.0000 -6.9948 0.0000
# 6 0.0000 0.0000 0.0000 0.0000 0.0000 19.3000
#
#
#
# Elastic Compliance Matrix: (Units=1/GPa)
#
#
# Indices 1 2 3 4 5 6 
#
# 1 0.011869 0.011048 -0.008711 0.000000 0.000000 0.000000
# 2 0.011048 0.062620 -0.026188 0.000000 0.000000 0.000000
# 3 -0.008711 -0.026188 0.023106 0.000000 0.000000 0.000000
# 4 0.000000 0.000000 0.000000 0.076252 0.000000 0.000000
# 5 0.000000 0.000000 0.000000 0.000000 -0.142963 0.000000
# 6 0.000000 0.000000 0.000000 0.000000 0.000000 0.051813
#
#
# Mechanical properties :
#
#
# Convention : Reuss Voigt Hill
#
# Bulk Modulus (GPa) = 20.04313 42.17482 31.10898
# Shear Modulus (GPa) = 34.00609 16.74222 25.37415
#
# Velocity S-wave (km/s) = 4.17411 2.92881 3.60563
# Velocity P-wave (km/s) = 5.78792 5.74854 5.76826
#
# Compressibility (1/GPa) = 0.04989240
#
# Stress axis : x y z
#
# Youngs Moduli (GPa) = 84.25299 15.96922 43.27901
#
# Poissons Ratio (x) = -0.17643 0.37702
# Poissons Ratio (y) = -0.93083 1.13339
# Poissons Ratio (z) = 0.73397 0.41820
#
# Static dielectric constant tensor:
#      x y z
#    x 1.679930 0.000000 0.000000 
#    y 0.000000 1.774430 0.000000 
#    z 0.000000 0.000000 1.736470 
# 
# From -- ./inp_files/58230.got.cif
#   From: 2010.05.17/outbox.cif.g08.bks.cpg/sg63_30_cif.got.tgz:58230.got - 2010.06.03 15:47:04.
