data_PCOD9469474
_publ_section_title
;
Structure prediction by ZEFSAII (Michael W. Deem and Ramdas Pophale) SiO2 
 PCOD9469474
Probable space group: C M C M
;
_chemical_formula_sum "Si O2"
_cell_formula_units_Z 88
_cell_length_a 13.130708
_cell_length_b 23.783774
_cell_length_c 12.694092
_cell_angle_alpha 90.000000
_cell_angle_beta 90.000000
_cell_angle_gamma 90.000000
_cell_volume 3964.336897
_symmetry_space_group_name_H-M "C M C M"
_symmetry_group_IT_number 63
_symmetry_cell_setting 'orthorhombic'
loop_
_space_group_symop_operation_xyz
x,y,z
-x,-y,1/2+z
x,-y,-z
-x,y,1/2-z
-x,-y,-z
x,y,1/2-z
-x,y,z
x,-y,1/2+z
1/2+x,1/2+y,z
1/2-x,1/2-y,1/2+z
1/2+x,1/2-y,-z
1/2-x,1/2+y,1/2-z
1/2-x,1/2-y,-z
1/2+x,1/2+y,1/2-z
1/2-x,1/2+y,z
1/2+x,1/2-y,1/2+z
loop_
_atom_site_type_symbol
_atom_site_label
_atom_site_fract_x
_atom_site_fract_y
_atom_site_fract_z
Si Si1 0.379447 0.206166 0.250000
Si Si2 0.833312 0.563486 0.014379
Si Si3 0.877790 0.766683 0.029947
Si Si4 0.121166 0.329208 0.369969
Si Si5 0.106526 0.924947 0.750000
Si Si6 0.178418 0.585795 0.250000
Si Si7 0.885291 0.107350 0.482639
O O1 0.500000 0.187835 0.250000
O O2 0.362236 0.240905 0.144722
O O3 0.305834 0.152794 0.250000
O O4 0.867860 0.612317 0.934532
O O5 0.709481 0.565895 0.001176
O O6 0.868481 0.500000 0.000000
O O7 0.866943 0.577162 0.134444
O O8 0.850756 0.832093 0.023286
O O9 0.000000 0.768393 0.014855
O O10 0.839273 0.723463 0.940354
O O11 0.162914 0.331727 0.250000
O O12 0.000000 0.320601 0.360696
O O13 0.218243 0.951891 0.750000
O O14 0.105858 0.889289 0.643789
O O15 0.000000 0.958964 0.750000
O O16 0.000000 0.092322 0.521657
#
# Coordination Sequence:
#
# PCOD9469474 Si02
#       7
#     8  16  16  16   8   8  16
#     4  10  18  34  57  84 119 150 182 235 289 347
#     4  11  24  40  60  84 116 155 198 243 283 331
#     4   9  18  34  58  86 119 152 186 231 288 350
#     4  10  22  40  60  87 120 152 188 235 293 349
#     4   8  16  32  54  78 112 147 188 235 272 326
#     4  10  20  38  57  84 109 149 198 236 281 341
#     4   9  19  37  59  88 118 151 191 234 289 346
#
# _framework density 22.197911999999999
#
# number of rings (size 3 to 8) (size 9 to 14) (size 15 to 20)
#    0.000    2.364    1.818    0.000    2.545    1.455 
#    1.636    0.000    0.000    0.000    0.000    0.000 
#    0.000    0.000    0.000    0.000    0.000    0.000 
#
# Total GULP energy -245168.079752 kJ/mol
# GULP energy per Si atom -5572.001813 kJ/mol
# Density = 2.214739 g / cm^3
# Si number density = 22.197912 Si / 1000 Ang^3
#
#
#
# Elastic Constant Matrix: (Units=GPa)
#
#
# Indices 1 2 3 4 5 6 
#
# 1 74.1922 -15.1407 -10.1360 0.0000 0.0000 0.0000
# 2 -15.1407 96.1260 38.6649 0.0000 0.0000 0.0000
# 3 -10.1360 38.6649 120.4707 0.0000 0.0000 0.0000
# 4 0.0000 0.0000 0.0000 1.6654 0.0000 0.0000
# 5 0.0000 0.0000 0.0000 0.0000 21.7540 0.0000
# 6 0.0000 0.0000 0.0000 0.0000 0.0000 11.4165
#
#
#
# Elastic Compliance Matrix: (Units=1/GPa)
#
#
# Indices 1 2 3 4 5 6 
#
# 1 0.013956 0.001982 0.000538 0.000000 0.000000 0.000000
# 2 0.001982 0.012226 -0.003757 0.000000 0.000000 0.000000
# 3 0.000538 -0.003757 0.009552 0.000000 0.000000 0.000000
# 4 0.000000 0.000000 0.000000 0.600460 0.000000 0.000000
# 5 0.000000 0.000000 0.000000 0.000000 0.045968 0.000000
# 6 0.000000 0.000000 0.000000 0.000000 0.000000 0.087592
#
#
# Mechanical properties :
#
#
# Convention : Reuss Voigt Hill
#
# Bulk Modulus (GPa) = 30.06594 35.28501 32.67547
# Shear Modulus (GPa) = 6.38311 25.46058 15.92185
#
# Velocity S-wave (km/s) = 1.69758 3.39038 2.68109
# Velocity P-wave (km/s) = 4.17328 5.59075 4.93319
#
# Compressibility (1/GPa) = 0.03326023
#
# Stress axis : x y z
#
# Youngs Moduli (GPa) = 71.65141 81.78975 104.69049
#
# Poissons Ratio (x) = -0.16209 -0.05634
# Poissons Ratio (y) = -0.14200 0.39336
# Poissons Ratio (z) = -0.03856 0.30731
#
# Static dielectric constant tensor:
#      x y z
#    x 1.994770 0.000000 0.000000 
#    y 0.000000 1.807130 0.000000 
#    z 0.000000 0.000000 1.800110 
# 
# From -- ./inp_files/19551.got.cif
#   From: 2010.05.17/outbox.cif.g08.bks.cpg/sg63_10_cif.got.tgz:19551.got - 2010.06.03 15:47:04.
