data_PCOD9469191
_publ_section_title
;
Structure prediction by ZEFSAII (Michael W. Deem and Ramdas Pophale) SiO2 
 PCOD9469191
Probable space group: C M C M
;
_chemical_formula_sum "Si O2"
_cell_formula_units_Z 96
_cell_length_a 7.582207
_cell_length_b 31.433354
_cell_length_c 19.608147
_cell_angle_alpha 90.000000
_cell_angle_beta 90.000000
_cell_angle_gamma 90.000000
_cell_volume 4673.291965
_symmetry_space_group_name_H-M "C M C M"
_symmetry_group_IT_number 63
_symmetry_cell_setting 'orthorhombic'
loop_
_space_group_symop_operation_xyz
x,y,z
-x,-y,1/2+z
x,-y,-z
-x,y,1/2-z
-x,-y,-z
x,y,1/2-z
-x,y,z
x,-y,1/2+z
1/2+x,1/2+y,z
1/2-x,1/2-y,1/2+z
1/2+x,1/2-y,-z
1/2-x,1/2+y,1/2-z
1/2-x,1/2-y,-z
1/2+x,1/2+y,1/2-z
1/2-x,1/2+y,z
1/2+x,1/2-y,1/2+z
loop_
_atom_site_type_symbol
_atom_site_label
_atom_site_fract_x
_atom_site_fract_y
_atom_site_fract_z
Si Si1 0.716287 0.696174 0.171237
Si Si2 0.285101 0.529121 0.170972
Si Si3 0.211489 0.729490 0.573371
Si Si4 0.206257 0.888328 0.905141
Si Si5 0.793124 0.634381 0.943272
Si Si6 0.713120 0.433393 0.172130
O O1 0.768961 0.695416 0.250000
O O2 0.500000 0.696348 0.169485
O O3 0.777083 0.738214 0.131216
O O4 0.778245 0.653992 0.131356
O O5 0.238842 0.537498 0.250000
O O6 0.500000 0.527971 0.167806
O O7 0.220006 0.567339 0.123537
O O8 0.226570 0.481242 0.153329
O O9 0.250000 0.750000 0.500000
O O10 0.280202 0.681231 0.574194
O O11 0.000000 0.727444 0.581673
O O12 0.000000 0.889057 0.886427
O O13 0.217634 0.883364 0.986125
O O14 0.769451 0.601791 0.881596
O O15 0.000000 0.639631 0.956516
O O16 0.770858 0.424655 0.250000
O O17 0.500000 0.433789 0.172499
#
# Coordination Sequence:
#
# PCOD9469191 Si02
#       6
#    16  16  16  16  16  16
#     4   9  17  30  52  81 104 127 168 219 266 311
#     4   8  15  30  54  82 106 131 172 226 274 309
#     4  10  20  35  54  75 103 140 176 216 260 309
#     4  10  18  31  55  81 105 136 173 218 265 316
#     4  11  23  35  51  77 110 146 177 213 261 315
#     4   9  19  37  58  78 103 136 177 224 267 312
#
# _framework density 20.542263999999999
#
# number of rings (size 3 to 8) (size 9 to 14) (size 15 to 20)
#    0.000    2.500    1.667    2.000    0.000    4.333 
#    0.000    5.833    0.000    4.500    0.000    0.000 
#    0.000    0.000    0.000    0.000    0.000    0.000 
#
# Total GULP energy -267930.235462 kJ/mol
# GULP energy per Si atom -5581.879905 kJ/mol
# Density = 2.049551 g / cm^3
# Si number density = 20.542264 Si / 1000 Ang^3
#
#
#
# Elastic Constant Matrix: (Units=GPa)
#
#
# Indices 1 2 3 4 5 6 
#
# 1 39.1305 -3.6420 -14.9265 0.0000 0.0000 0.0000
# 2 -3.6420 206.8933 110.6546 0.0000 0.0000 0.0000
# 3 -14.9265 110.6546 131.9248 0.0000 0.0000 0.0000
# 4 0.0000 0.0000 0.0000 44.1174 0.0000 0.0000
# 5 0.0000 0.0000 0.0000 0.0000 2.6574 0.0000
# 6 0.0000 0.0000 0.0000 0.0000 0.0000 8.0902
#
#
#
# Elastic Compliance Matrix: (Units=1/GPa)
#
#
# Indices 1 2 3 4 5 6 
#
# 1 0.027210 -0.002118 0.004855 0.000000 0.000000 0.000000
# 2 -0.002118 0.008931 -0.007730 0.000000 0.000000 0.000000
# 3 0.004855 -0.007730 0.014613 0.000000 0.000000 0.000000
# 4 0.000000 0.000000 0.000000 0.022667 0.000000 0.000000
# 5 0.000000 0.000000 0.000000 0.000000 0.376312 0.000000
# 6 0.000000 0.000000 0.000000 0.000000 0.000000 0.123606
#
#
# Mechanical properties :
#
#
# Convention : Reuss Voigt Hill
#
# Bulk Modulus (GPa) = 24.52898 62.45789 43.49344
# Shear Modulus (GPa) = 8.37640 30.03050 19.20345
#
# Velocity S-wave (km/s) = 2.02151 3.82761 3.06081
# Velocity P-wave (km/s) = 4.17317 7.07140 5.80603
#
# Compressibility (1/GPa) = 0.04076810
#
# Stress axis : x y z
#
# Youngs Moduli (GPa) = 36.75081 111.97443 68.43066
#
# Poissons Ratio (x) = 0.23711 -0.33222
# Poissons Ratio (y) = 0.07782 0.52899
# Poissons Ratio (z) = -0.17842 0.86560
#
# Static dielectric constant tensor:
#      x y z
#    x 1.821070 0.000000 0.000000 
#    y 0.000000 1.739090 0.000000 
#    z 0.000000 0.000000 1.672360 
# 
# From -- ./inp_files/51279.got.cif
#   From: 2010.05.17/outbox.cif.g08.bks.cpg/sg63_26_cif.got.tgz:51279.got - 2010.06.03 15:47:04.
