data_PCOD9469759
_publ_section_title
;
Structure prediction by ZEFSAII (Michael W. Deem and Ramdas Pophale) SiO2 
 PCOD9469759
Probable space group: C M C M
;
_chemical_formula_sum "Si O2"
_cell_formula_units_Z 96
_cell_length_a 7.325108
_cell_length_b 32.136449
_cell_length_c 18.535765
_cell_angle_alpha 90.000000
_cell_angle_beta 90.000000
_cell_angle_gamma 90.000000
_cell_volume 4363.373941
_symmetry_space_group_name_H-M "C M C M"
_symmetry_group_IT_number 63
_symmetry_cell_setting 'orthorhombic'
loop_
_space_group_symop_operation_xyz
x,y,z
-x,-y,1/2+z
x,-y,-z
-x,y,1/2-z
-x,-y,-z
x,y,1/2-z
-x,y,z
x,-y,1/2+z
1/2+x,1/2+y,z
1/2-x,1/2-y,1/2+z
1/2+x,1/2-y,-z
1/2-x,1/2+y,1/2-z
1/2-x,1/2-y,-z
1/2+x,1/2+y,1/2-z
1/2-x,1/2+y,z
1/2+x,1/2-y,1/2+z
loop_
_atom_site_type_symbol
_atom_site_label
_atom_site_fract_x
_atom_site_fract_y
_atom_site_fract_z
Si Si1 0.277047 0.318279 0.931441
Si Si2 0.712595 0.513133 0.162239
Si Si3 0.776442 0.922379 0.166018
Si Si4 0.722919 0.395991 0.666651
Si Si5 0.783362 0.160769 0.590519
Si Si6 0.781735 0.255255 0.169732
O O1 0.500000 0.317141 0.932705
O O2 0.223007 0.358132 0.883910
O O3 0.214181 0.276562 0.891177
O O4 0.212691 0.324039 0.013145
O O5 0.718596 0.513039 0.250000
O O6 0.500000 0.513267 0.140649
O O7 0.786740 0.468089 0.140270
O O8 0.787054 0.558298 0.141118
O O9 0.724938 0.916801 0.250000
O O10 0.713514 0.883349 0.119267
O O11 0.000000 0.923220 0.165156
O O12 0.777668 0.389482 0.750000
O O13 0.500000 0.397141 0.666848
O O14 0.755323 0.197477 0.647651
O O15 0.000000 0.155182 0.581872
O O16 0.712344 0.245808 0.250000
O O17 0.000000 0.250131 0.172069
#
# Coordination Sequence:
#
# PCOD9469759 Si02
#       6
#    16  16  16  16  16  16
#     4   9  17  28  41  60  86 113 141 175 216 257
#     4   7  10  17  31  52  78 109 142 172 203 242
#     4   8  13  22  36  55  81 112 142 170 204 247
#     4   8  12  20  36  56  80 113 148 176 206 250
#     4  10  19  30  45  65  90 117 141 170 213 261
#     4  10  20  33  48  64  83 110 145 183 217 249
#
# _framework density 22.001321999999998
#
# number of rings (size 3 to 8) (size 9 to 14) (size 15 to 20)
#    0.000    3.333    0.000    3.500    0.000    3.000 
#    0.000    0.833    0.000    5.000    0.000    0.000 
#    0.000    4.000    0.000   10.667    0.000    8.333 
#
# Total GULP energy -267809.334007 kJ/mol
# GULP energy per Si atom -5579.361125 kJ/mol
# Density = 2.195125 g / cm^3
# Si number density = 22.001322 Si / 1000 Ang^3
#
#
#
# Elastic Constant Matrix: (Units=GPa)
#
#
# Indices 1 2 3 4 5 6 
#
# 1 83.8286 -6.3595 -5.6316 0.0000 0.0000 0.0000
# 2 -6.3595 85.3584 -7.9560 0.0000 0.0000 0.0000
# 3 -5.6316 -7.9560 38.8796 0.0000 0.0000 0.0000
# 4 0.0000 0.0000 0.0000 -53.3259 0.0000 0.0000
# 5 0.0000 0.0000 0.0000 0.0000 -6.4749 0.0000
# 6 0.0000 0.0000 0.0000 0.0000 0.0000 -10.0655
#
#
#
# Elastic Compliance Matrix: (Units=1/GPa)
#
#
# Indices 1 2 3 4 5 6 
#
# 1 0.012145 0.001090 0.001982 0.000000 0.000000 0.000000
# 2 0.001090 0.012041 0.002622 0.000000 0.000000 0.000000
# 3 0.001982 0.002622 0.026544 0.000000 0.000000 0.000000
# 4 0.000000 0.000000 0.000000 -0.018753 0.000000 0.000000
# 5 0.000000 0.000000 0.000000 0.000000 -0.154443 0.000000
# 6 0.000000 0.000000 0.000000 0.000000 0.000000 -0.099349
#
#
# Mechanical properties :
#
#
# Convention : Reuss Voigt Hill
#
# Bulk Modulus (GPa) = 16.09870 18.68581 17.39226
# Shear Modulus (GPa) = -23.52986 1.22765 -11.15110
#
# Velocity S-wave (km/s) = -3.27383 0.74780 -2.25375
# Velocity P-wave (km/s) = 2.63772 3.04254 1.07226
#
# Compressibility (1/GPa) = 0.06211680
#
# Stress axis : x y z
#
# Youngs Moduli (GPa) = 82.33897 83.05057 37.67322
#
# Poissons Ratio (x) = -0.09049 -0.07467
# Poissons Ratio (y) = -0.08972 -0.09877
# Poissons Ratio (z) = -0.16321 -0.21774
#
# Static dielectric constant tensor:
#      x y z
#    x 1.938720 0.000000 0.000000 
#    y 0.000000 1.799670 0.000000 
#    z 0.000000 0.000000 1.759310 
# 
# From -- ./inp_files/53289.got.cif
#   From: 2010.05.17/outbox.cif.g08.bks.cpg/sg63_27_cif.got.tgz:53289.got - 2010.06.03 15:47:04.
