data_PCOD9469973
_publ_section_title
;
Structure prediction by ZEFSAII (Michael W. Deem and Ramdas Pophale) SiO2 
 PCOD9469973
Probable space group: C M C M
;
_chemical_formula_sum "Si O2"
_cell_formula_units_Z 80
_cell_length_a 28.153988
_cell_length_b 18.375302
_cell_length_c 8.742828
_cell_angle_alpha 90.000000
_cell_angle_beta 90.000000
_cell_angle_gamma 90.000000
_cell_volume 4522.997432
_symmetry_space_group_name_H-M "C M C M"
_symmetry_group_IT_number 63
_symmetry_cell_setting 'orthorhombic'
loop_
_space_group_symop_operation_xyz
x,y,z
-x,-y,1/2+z
x,-y,-z
-x,y,1/2-z
-x,-y,-z
x,y,1/2-z
-x,y,z
x,-y,1/2+z
1/2+x,1/2+y,z
1/2-x,1/2-y,1/2+z
1/2+x,1/2-y,-z
1/2-x,1/2+y,1/2-z
1/2-x,1/2-y,-z
1/2+x,1/2+y,1/2-z
1/2-x,1/2+y,z
1/2+x,1/2-y,1/2+z
loop_
_atom_site_type_symbol
_atom_site_label
_atom_site_fract_x
_atom_site_fract_y
_atom_site_fract_z
Si Si1 0.552369 0.266329 0.434092
Si Si2 0.912264 0.074415 0.932978
Si Si3 0.286974 0.077978 0.566049
Si Si4 0.813622 0.126976 0.433769
Si Si5 0.350411 0.785640 0.066353
O O1 0.554309 0.261709 0.250000
O O2 0.500000 0.242673 0.485389
O O3 0.560052 0.351588 0.474037
O O4 0.596787 0.222807 0.500842
O O5 0.909876 0.069589 0.750000
O O6 0.859532 0.085600 0.001235
O O7 0.932783 0.000000 0.000000
O O8 0.285899 0.075372 0.750000
O O9 0.234606 0.097095 0.504743
O O10 0.322387 0.142614 0.516726
O O11 0.301397 0.000000 0.500000
O O12 0.812379 0.120305 0.250000
O O13 0.821782 0.211996 0.475605
O O14 0.353424 0.786465 0.250000
#
# Coordination Sequence:
#
# PCOD9469973 Si02
#       5
#    16  16  16  16  16
#     4   9  19  35  54  75  98 127 165 208 254 301
#     4  10  19  31  47  70 103 138 170 205 244 287
#     4  11  22  35  51  75 105 134 166 203 246 294
#     4  10  19  33  52  74 101 135 172 204 241 288
#     4   9  20  36  54  76 101 130 166 207 247 293
#
# _framework density 17.687386
#
# number of rings (size 3 to 8) (size 9 to 14) (size 15 to 20)
#    0.000    2.200    0.000    3.000    0.000    4.000 
#    0.000    0.000    0.000    0.600    0.000    0.000 
#    0.000    0.000    0.000    0.000    0.000    0.000 
#
# Total GULP energy -223336.676761 kJ/mol
# GULP energy per Si atom -5583.416919 kJ/mol
# Density = 1.764713 g / cm^3
# Si number density = 17.687386 Si / 1000 Ang^3
#
#
#
# Elastic Constant Matrix: (Units=GPa)
#
#
# Indices 1 2 3 4 5 6 
#
# 1 60.2766 19.0441 10.8497 0.0000 0.0000 0.0000
# 2 19.0441 75.6496 18.3078 0.0000 0.0000 0.0000
# 3 10.8497 18.3078 32.5674 0.0000 0.0000 0.0000
# 4 0.0000 0.0000 0.0000 26.9837 0.0000 0.0000
# 5 0.0000 0.0000 0.0000 0.0000 24.1061 0.0000
# 6 0.0000 0.0000 0.0000 0.0000 0.0000 2.2115
#
#
#
# Elastic Compliance Matrix: (Units=1/GPa)
#
#
# Indices 1 2 3 4 5 6 
#
# 1 0.018485 -0.003661 -0.004100 0.000000 0.000000 0.000000
# 2 -0.003661 0.016025 -0.007789 0.000000 0.000000 0.000000
# 3 -0.004100 -0.007789 0.036450 0.000000 0.000000 0.000000
# 4 0.000000 0.000000 0.000000 0.037059 0.000000 0.000000
# 5 0.000000 0.000000 0.000000 0.000000 0.041483 0.000000
# 6 0.000000 0.000000 0.000000 0.000000 0.000000 0.452178
#
#
# Mechanical properties :
#
#
# Convention : Reuss Voigt Hill
#
# Bulk Modulus (GPa) = 25.08781 29.43297 27.26039
# Shear Modulus (GPa) = 7.73912 18.67973 13.20943
#
# Velocity S-wave (km/s) = 2.09404 3.25330 2.73578
# Velocity P-wave (km/s) = 4.47900 5.54876 5.04233
#
# Compressibility (1/GPa) = 0.03985999
#
# Stress axis : x y z
#
# Youngs Moduli (GPa) = 54.09819 62.40058 27.43477
#
# Poissons Ratio (x) = 0.22846 0.11248
# Poissons Ratio (y) = 0.19806 0.21369
# Poissons Ratio (z) = 0.22181 0.48604
#
# Static dielectric constant tensor:
#      x y z
#    x 1.580960 0.000000 0.000000 
#    y 0.000000 1.611090 0.000000 
#    z 0.000000 0.000000 1.592310 
# 
# From -- ./inp_files/11976.got.cif
#   From: 2010.05.17/outbox.cif.g08.bks.cpg/sg63_6_cif.got.tgz:11976.got - 2010.06.03 15:47:04.
