data_PCOD9469645
_publ_section_title
;
Structure prediction by ZEFSAII (Michael W. Deem and Ramdas Pophale) SiO2 
 PCOD9469645
Probable space group: C M C M
;
_chemical_formula_sum "Si O2"
_cell_formula_units_Z 128
_cell_length_a 18.495549
_cell_length_b 26.229754
_cell_length_c 19.056279
_cell_angle_alpha 90.000000
_cell_angle_beta 90.000000
_cell_angle_gamma 90.000000
_cell_volume 9244.843146
_symmetry_space_group_name_H-M "C M C M"
_symmetry_group_IT_number 63
_symmetry_cell_setting 'orthorhombic'
loop_
_space_group_symop_operation_xyz
x,y,z
-x,-y,1/2+z
x,-y,-z
-x,y,1/2-z
-x,-y,-z
x,y,1/2-z
-x,y,z
x,-y,1/2+z
1/2+x,1/2+y,z
1/2-x,1/2-y,1/2+z
1/2+x,1/2-y,-z
1/2-x,1/2+y,1/2-z
1/2-x,1/2-y,-z
1/2+x,1/2+y,1/2-z
1/2-x,1/2+y,z
1/2+x,1/2-y,1/2+z
loop_
_atom_site_type_symbol
_atom_site_label
_atom_site_fract_x
_atom_site_fract_y
_atom_site_fract_z
Si Si1 0.667950 0.025950 0.574816
Si Si2 0.585312 0.865957 0.061742
Si Si3 0.418086 0.362562 0.164773
Si Si4 0.716266 0.575640 0.830675
Si Si5 0.913469 0.556409 0.168846
Si Si6 0.166680 0.759930 0.334707
Si Si7 0.691962 0.181233 0.830157
Si Si8 0.414953 0.165456 0.100016
O O1 0.622045 0.078117 0.565531
O O2 0.740895 0.039862 0.616474
O O3 0.681109 0.000000 0.500000
O O4 0.623503 0.986463 0.622172
O O5 0.500000 0.869878 0.077770
O O6 0.627498 0.829638 0.116223
O O7 0.592969 0.844792 0.982824
O O8 0.418485 0.362630 0.250000
O O9 0.500000 0.367762 0.139867
O O10 0.363559 0.407871 0.145053
O O11 0.382941 0.308456 0.144589
O O12 0.714629 0.556532 0.750000
O O13 0.760944 0.628956 0.828675
O O14 0.891865 0.551933 0.250000
O O15 0.897330 0.612677 0.139550
O O16 0.000000 0.550117 0.164366
O O17 0.161461 0.754238 0.250000
O O18 0.249731 0.775436 0.350412
O O19 0.135708 0.710376 0.372281
O O20 0.667214 0.190300 0.750000
O O21 0.500000 0.177396 0.114226
#
# Coordination Sequence:
#
# PCOD9469645 Si02
#       8
#    16  16  16  16  16  16  16  16
#     4  11  19  30  45  58  81 117 151 181 217 255
#     4  10  20  31  44  62  86 115 147 182 221 256
#     4   8  13  23  42  66  87 107 131 162 206 259
#     4   8  15  27  42  62  85 106 135 175 211 249
#     4  10  20  31  43  61  84 112 148 185 216 250
#     4   9  16  27  44  64  88 115 138 165 207 258
#     4   8  16  30  45  63  85 109 141 178 210 249
#     4  10  19  29  41  62  91 117 140 173 214 257
#
# _framework density 13.845556
#
# number of rings (size 3 to 8) (size 9 to 14) (size 15 to 20)
#    0.000    2.750    1.250    3.000    0.000    3.000 
#    0.000    0.000    0.000    0.375    0.000    0.000 
#    0.000    1.000    0.000    4.375    0.000    0.000 
#
# Total GULP energy -356405.129237 kJ/mol
# GULP energy per Si atom -5568.830144 kJ/mol
# Density = 1.381404 g / cm^3
# Si number density = 13.845556 Si / 1000 Ang^3
#
#
#
# Elastic Constant Matrix: (Units=GPa)
#
#
# Indices 1 2 3 4 5 6 
#
# 1 90.7667 53.9666 52.2177 0.0000 0.0000 0.0000
# 2 53.9666 82.4382 52.1011 0.0000 0.0000 0.0000
# 3 52.2177 52.1011 81.3841 0.0000 0.0000 0.0000
# 4 0.0000 0.0000 0.0000 -1.0282 0.0000 0.0000
# 5 0.0000 0.0000 0.0000 0.0000 18.1252 0.0000
# 6 0.0000 0.0000 0.0000 0.0000 0.0000 23.6574
#
#
#
# Elastic Compliance Matrix: (Units=1/GPa)
#
#
# Indices 1 2 3 4 5 6 
#
# 1 0.020547 -0.008597 -0.007679 0.000000 0.000000 0.000000
# 2 -0.008597 0.023971 -0.009830 0.000000 0.000000 0.000000
# 3 -0.007679 -0.009830 0.023508 0.000000 0.000000 0.000000
# 4 0.000000 0.000000 0.000000 -0.972531 0.000000 0.000000
# 5 0.000000 0.000000 0.000000 0.000000 0.055172 0.000000
# 6 0.000000 0.000000 0.000000 0.000000 0.000000 0.042270
#
#
# Mechanical properties :
#
#
# Convention : Reuss Voigt Hill
#
# Bulk Modulus (GPa) = 63.24108 63.46221 63.35165
# Shear Modulus (GPa) = -6.67039 14.57111 3.95036
#
# Velocity S-wave (km/s) = -2.19731 3.24760 1.69096
# Velocity P-wave (km/s) = 6.27198 7.74583 7.04753
#
# Compressibility (1/GPa) = 0.01581251
#
# Stress axis : x y z
#
# Youngs Moduli (GPa) = 48.66957 41.71788 42.53959
#
# Poissons Ratio (x) = 0.35865 0.32668
# Poissons Ratio (y) = 0.41842 0.41815
# Poissons Ratio (z) = 0.37376 0.41007
#
# Static dielectric constant tensor:
#      x y z
#    x 1.456830 0.000000 0.000000 
#    y 0.000000 1.438500 0.000000 
#    z 0.000000 0.000000 1.449130 
# 
# From -- ./inp_files/47575.got.cif
#   From: 2010.05.17/outbox.cif.g08.bks.cpg/sg63_24_cif.got.tgz:47575.got - 2010.06.03 15:47:04.
