data_PCOD9469675
_publ_section_title
;
Structure prediction by ZEFSAII (Michael W. Deem and Ramdas Pophale) SiO2 
 PCOD9469675
Probable space group: C M C M
;
_chemical_formula_sum "Si O2"
_cell_formula_units_Z 80
_cell_length_a 7.522664
_cell_length_b 19.857780
_cell_length_c 26.520616
_cell_angle_alpha 90.000000
_cell_angle_beta 90.000000
_cell_angle_gamma 90.000000
_cell_volume 3961.739967
_symmetry_space_group_name_H-M "C M C M"
_symmetry_group_IT_number 63
_symmetry_cell_setting 'orthorhombic'
loop_
_space_group_symop_operation_xyz
x,y,z
-x,-y,1/2+z
x,-y,-z
-x,y,1/2-z
-x,-y,-z
x,y,1/2-z
-x,y,z
x,-y,1/2+z
1/2+x,1/2+y,z
1/2-x,1/2-y,1/2+z
1/2+x,1/2-y,-z
1/2-x,1/2+y,1/2-z
1/2-x,1/2-y,-z
1/2+x,1/2+y,1/2-z
1/2-x,1/2+y,z
1/2+x,1/2-y,1/2+z
loop_
_atom_site_type_symbol
_atom_site_label
_atom_site_fract_x
_atom_site_fract_y
_atom_site_fract_z
Si Si1 0.292594 0.107672 0.193788
Si Si2 0.294740 0.268323 0.872920
Si Si3 0.217188 0.517583 0.397702
Si Si4 0.715092 0.139102 0.033321
Si Si5 0.718090 0.133995 0.918479
O O1 0.215487 0.106745 0.250000
O O2 0.500000 0.090307 0.198063
O O3 0.285478 0.181046 0.167852
O O4 0.217957 0.055162 0.152829
O O5 0.500000 0.261812 0.858822
O O6 0.282012 0.305943 0.926978
O O7 0.220384 0.193862 0.882031
O O8 0.266619 0.566087 0.444269
O O9 0.274613 0.440885 0.403340
O O10 0.000000 0.517166 0.397053
O O11 0.500000 0.142525 0.034385
O O12 0.773796 0.148098 0.976072
O O13 0.500000 0.135132 0.918293
#
# Coordination Sequence:
#
# PCOD9469675 Si02
#       5
#    16  16  16  16  16
#     4   9  18  34  54  69  82 110 153 194 229 270
#     4  10  19  29  44  69  98 123 147 180 223 268
#     4   8  14  26  46  70  90 111 148 193 227 256
#     4   9  16  28  47  67  91 127 160 181 208 255
#     4   9  16  26  43  70  99 121 146 184 225 262
#
# _framework density 20.193148000000001
#
# number of rings (size 3 to 8) (size 9 to 14) (size 15 to 20)
#    0.000    3.000    0.000    3.000    0.000    2.800 
#    0.000    2.000    0.000   22.800    0.000    0.000 
#    0.000    0.000    0.000    0.000    0.000    0.000 
#
# Total GULP energy -223113.673485 kJ/mol
# GULP energy per Si atom -5577.841837 kJ/mol
# Density = 2.014719 g / cm^3
# Si number density = 20.193148 Si / 1000 Ang^3
#
#
#
# Elastic Constant Matrix: (Units=GPa)
#
#
# Indices 1 2 3 4 5 6 
#
# 1 47.7168 -14.0467 -6.5363 0.0000 0.0000 0.0000
# 2 -14.0467 68.7593 -16.1707 0.0000 0.0000 0.0000
# 3 -6.5363 -16.1707 66.3873 0.0000 0.0000 0.0000
# 4 0.0000 0.0000 0.0000 5.2853 0.0000 0.0000
# 5 0.0000 0.0000 0.0000 0.0000 3.9995 0.0000
# 6 0.0000 0.0000 0.0000 0.0000 0.0000 13.0344
#
#
#
# Elastic Compliance Matrix: (Units=1/GPa)
#
#
# Indices 1 2 3 4 5 6 
#
# 1 0.023095 0.005572 0.003631 0.000000 0.000000 0.000000
# 2 0.005572 0.016772 0.004634 0.000000 0.000000 0.000000
# 3 0.003631 0.004634 0.016549 0.000000 0.000000 0.000000
# 4 0.000000 0.000000 0.000000 0.189206 0.000000 0.000000
# 5 0.000000 0.000000 0.000000 0.000000 0.250034 0.000000
# 6 0.000000 0.000000 0.000000 0.000000 0.000000 0.076720
#
#
# Mechanical properties :
#
#
# Convention : Reuss Voigt Hill
#
# Bulk Modulus (GPa) = 11.89217 12.15067 12.02142
# Shear Modulus (GPa) = 8.73010 19.10497 13.91754
#
# Velocity S-wave (km/s) = 2.08151 3.07923 2.62815
# Velocity P-wave (km/s) = 3.41744 4.32117 3.89560
#
# Compressibility (1/GPa) = 0.08408895
#
# Stress axis : x y z
#
# Youngs Moduli (GPa) = 43.30019 59.62483 60.42539
#
# Poissons Ratio (x) = -0.33222 -0.21941
# Poissons Ratio (y) = -0.24126 -0.28000
# Poissons Ratio (z) = -0.15722 -0.27629
#
# Static dielectric constant tensor:
#      x y z
#    x 1.781150 0.000000 0.000000 
#    y 0.000000 1.710780 0.000000 
#    z 0.000000 0.000000 1.697490 
# 
# From -- ./inp_files/66552.got.cif
#   From: 2010.05.17/outbox.cif.g08.bks.cpg/sg63_34_cif.got.tgz:66552.got - 2010.06.03 15:47:04.
