data_PCOD9469954
_publ_section_title
;
Structure prediction by ZEFSAII (Michael W. Deem and Ramdas Pophale) SiO2 
 PCOD9469954
Probable space group: C M C M
;
_chemical_formula_sum "Si O2"
_cell_formula_units_Z 104
_cell_length_a 26.510800
_cell_length_b 21.906615
_cell_length_c 9.413220
_cell_angle_alpha 90.000000
_cell_angle_beta 90.000000
_cell_angle_gamma 90.000000
_cell_volume 5466.839428
_symmetry_space_group_name_H-M "C M C M"
_symmetry_group_IT_number 63
_symmetry_cell_setting 'orthorhombic'
loop_
_space_group_symop_operation_xyz
x,y,z
-x,-y,1/2+z
x,-y,-z
-x,y,1/2-z
-x,-y,-z
x,y,1/2-z
-x,y,z
x,-y,1/2+z
1/2+x,1/2+y,z
1/2-x,1/2-y,1/2+z
1/2+x,1/2-y,-z
1/2-x,1/2+y,1/2-z
1/2-x,1/2-y,-z
1/2+x,1/2+y,1/2-z
1/2-x,1/2+y,z
1/2+x,1/2-y,1/2+z
loop_
_atom_site_type_symbol
_atom_site_label
_atom_site_fract_x
_atom_site_fract_y
_atom_site_fract_z
Si Si1 0.000000 0.565148 0.076782
Si Si2 0.893575 0.378562 0.921708
Si Si3 0.624779 0.440698 0.912596
Si Si4 0.786932 0.161032 0.413361
Si Si5 0.856136 0.752825 0.081697
Si Si6 0.708316 0.939179 0.579062
Si Si7 0.057791 0.145697 0.915948
O O1 0.050785 0.601198 0.034123
O O2 0.000000 0.558238 0.250000
O O3 0.000000 0.500000 0.000000
O O4 0.895262 0.373851 0.750000
O O5 0.874004 0.312899 0.973180
O O6 0.850269 0.427433 0.955436
O O7 0.614710 0.456860 0.750000
O O8 0.669010 0.390390 0.915683
O O9 0.639966 0.500000 0.000000
O O10 0.576927 0.409113 0.986367
O O11 0.778930 0.180141 0.250000
O O12 0.808371 0.216744 0.504716
O O13 0.738437 0.122431 0.462161
O O14 0.845348 0.748446 0.250000
O O15 0.903754 0.798282 0.063366
O O16 0.714548 0.945815 0.750000
O O17 0.726316 0.000000 0.500000
O O18 0.061703 0.127893 0.750000
O O19 0.000000 0.162663 0.944903
#
# Coordination Sequence:
#
# PCOD9469954 Si02
#       7
#     8  16  16  16  16  16  16
#     4  10  20  36  58  82 112 146 181 222 269 316
#     4   9  19  34  55  82 109 140 176 220 268 313
#     4  10  19  31  47  67  93 127 166 208 256 307
#     4   9  19  34  51  73 104 138 170 212 263 309
#     4   9  18  33  53  77 103 133 174 215 257 312
#     4  10  20  35  54  78 108 141 178 218 262 313
#     4   9  18  31  48  69  93 124 164 211 255 303
#
# _framework density 19.023790000000002
#
# number of rings (size 3 to 8) (size 9 to 14) (size 15 to 20)
#    0.000    2.615    0.000    1.385    1.077    2.462 
#    0.000    1.538    0.000    0.000    0.000    0.000 
#    0.000    0.000    0.000    0.000    0.000    0.000 
#
# Total GULP energy -290061.984825 kJ/mol
# GULP energy per Si atom -5578.115093 kJ/mol
# Density = 1.898049 g / cm^3
# Si number density = 19.023790 Si / 1000 Ang^3
#
#
#
# Elastic Constant Matrix: (Units=GPa)
#
#
# Indices 1 2 3 4 5 6 
#
# 1 124.2681 40.0856 29.4312 0.0000 0.0000 0.0000
# 2 40.0856 104.7391 39.3154 0.0000 0.0000 0.0000
# 3 29.4312 39.3154 39.8098 0.0000 0.0000 0.0000
# 4 0.0000 0.0000 0.0000 24.1728 0.0000 0.0000
# 5 0.0000 0.0000 0.0000 0.0000 17.3742 0.0000
# 6 0.0000 0.0000 0.0000 0.0000 0.0000 16.0720
#
#
#
# Elastic Compliance Matrix: (Units=1/GPa)
#
#
# Indices 1 2 3 4 5 6 
#
# 1 0.009934 -0.001661 -0.005704 0.000000 0.000000 0.000000
# 2 -0.001661 0.015449 -0.014030 0.000000 0.000000 0.000000
# 3 -0.005704 -0.014030 0.043192 0.000000 0.000000 0.000000
# 4 0.000000 0.000000 0.000000 0.041369 0.000000 0.000000
# 5 0.000000 0.000000 0.000000 0.000000 0.057557 0.000000
# 6 0.000000 0.000000 0.000000 0.000000 0.000000 0.062220
#
#
# Mechanical properties :
#
#
# Convention : Reuss Voigt Hill
#
# Bulk Modulus (GPa) = 38.78038 54.05350 46.41694
# Shear Modulus (GPa) = 17.78699 22.18945 19.98822
#
# Velocity S-wave (km/s) = 3.06107 3.41897 3.24496
# Velocity P-wave (km/s) = 5.73786 6.63786 6.20420
#
# Compressibility (1/GPa) = 0.02578623
#
# Stress axis : x y z
#
# Youngs Moduli (GPa) = 100.66735 64.72727 23.15260
#
# Poissons Ratio (x) = 0.10750 0.13206
# Poissons Ratio (y) = 0.16719 0.32482
# Poissons Ratio (z) = 0.57418 0.90811
#
# Static dielectric constant tensor:
#      x y z
#    x 1.681940 0.000000 0.000000 
#    y 0.000000 1.656280 0.000000 
#    z 0.000000 0.000000 1.637550 
# 
# From -- ./inp_files/12521.got.cif
#   From: 2010.05.17/outbox.cif.g08.bks.cpg/sg63_7_cif.got.tgz:12521.got - 2010.06.03 15:47:04.
