data_PCOD9469426
_publ_section_title
;
Structure prediction by ZEFSAII (Michael W. Deem and Ramdas Pophale) SiO2 
 PCOD9469426
Probable space group: C M C M
;
_chemical_formula_sum "Si O2"
_cell_formula_units_Z 64
_cell_length_a 8.802621
_cell_length_b 20.635713
_cell_length_c 19.905771
_cell_angle_alpha 90.000000
_cell_angle_beta 90.000000
_cell_angle_gamma 90.000000
_cell_volume 3615.850669
_symmetry_space_group_name_H-M "C M C M"
_symmetry_group_IT_number 63
_symmetry_cell_setting 'orthorhombic'
loop_
_space_group_symop_operation_xyz
x,y,z
-x,-y,1/2+z
x,-y,-z
-x,y,1/2-z
-x,-y,-z
x,y,1/2-z
-x,y,z
x,-y,1/2+z
1/2+x,1/2+y,z
1/2-x,1/2-y,1/2+z
1/2+x,1/2-y,-z
1/2-x,1/2+y,1/2-z
1/2-x,1/2-y,-z
1/2+x,1/2+y,1/2-z
1/2-x,1/2+y,z
1/2+x,1/2-y,1/2+z
loop_
_atom_site_type_symbol
_atom_site_label
_atom_site_fract_x
_atom_site_fract_y
_atom_site_fract_z
Si Si1 0.180071 0.310564 0.039237
Si Si2 0.315177 0.489555 0.824945
Si Si3 0.180298 0.931323 0.537763
Si Si4 0.816955 0.859325 0.173132
O O1 0.242580 0.317259 0.115017
O O2 0.000000 0.305174 0.040459
O O3 0.250000 0.250000 0.000000
O O4 0.231455 0.375411 0.000334
O O5 0.265419 0.470619 0.750000
O O6 0.500000 0.489058 0.825647
O O7 0.266438 0.444301 0.886026
O O8 0.272534 0.564847 0.836411
O O9 0.000000 0.915150 0.537445
O O10 0.195604 0.000000 0.500000
O O11 0.777839 0.841506 0.250000
O O12 0.000000 0.856379 0.166738
#
# Coordination Sequence:
#
# PCOD9469426 Si02
#       4
#    16  16  16  16
#     4  12  25  39  56  80 115 153 196 239 284 336
#     4   8  14  27  52  84 113 143 180 223 274 336
#     4  10  18  33  58  84 112 145 185 229 282 343
#     4   9  17  34  60  86 112 144 184 228 280 341
#
# _framework density 17.699845
#
# number of rings (size 3 to 8) (size 9 to 14) (size 15 to 20)
#    0.000    2.250    2.500    3.750    0.000    1.000 
#    0.000    1.250    0.000    5.250    0.000    0.000 
#    0.000    0.000    0.000    0.000    0.000    0.000 
#
# Total GULP energy -178522.825340 kJ/mol
# GULP energy per Si atom -5578.838292 kJ/mol
# Density = 1.765956 g / cm^3
# Si number density = 17.699845 Si / 1000 Ang^3
#
#
#
# Elastic Constant Matrix: (Units=GPa)
#
#
# Indices 1 2 3 4 5 6 
#
# 1 65.5930 43.5380 61.5090 0.0000 0.0000 0.0000
# 2 43.5380 66.1505 60.3520 0.0000 0.0000 0.0000
# 3 61.5090 60.3520 172.6993 0.0000 0.0000 0.0000
# 4 0.0000 0.0000 0.0000 28.8912 0.0000 0.0000
# 5 0.0000 0.0000 0.0000 0.0000 23.8393 0.0000
# 6 0.0000 0.0000 0.0000 0.0000 0.0000 20.7913
#
#
#
# Elastic Compliance Matrix: (Units=1/GPa)
#
#
# Indices 1 2 3 4 5 6 
#
# 1 0.030393 -0.014868 -0.005629 0.000000 0.000000 0.000000
# 2 -0.014868 0.029466 -0.005002 0.000000 0.000000 0.000000
# 3 -0.005629 -0.005002 0.009543 0.000000 0.000000 0.000000
# 4 0.000000 0.000000 0.000000 0.034613 0.000000 0.000000
# 5 0.000000 0.000000 0.000000 0.000000 0.041947 0.000000
# 6 0.000000 0.000000 0.000000 0.000000 0.000000 0.048097
#
#
# Mechanical properties :
#
#
# Convention : Reuss Voigt Hill
#
# Bulk Modulus (GPa) = 54.33469 70.58231 62.45850
# Shear Modulus (GPa) = 19.90512 23.97394 21.93953
#
# Velocity S-wave (km/s) = 3.35713 3.68431 3.52452
# Velocity P-wave (km/s) = 6.76695 7.61989 7.20605
#
# Compressibility (1/GPa) = 0.01840445
#
# Stress axis : x y z
#
# Youngs Moduli (GPa) = 32.90257 33.93733 104.78649
#
# Poissons Ratio (x) = 0.50458 0.58984
# Poissons Ratio (y) = 0.48919 0.52413
# Poissons Ratio (z) = 0.18521 0.16975
#
# Static dielectric constant tensor:
#      x y z
#    x 1.593690 0.000000 0.000000 
#    y 0.000000 1.571740 0.000000 
#    z 0.000000 0.000000 1.636530 
# 
# From -- ./inp_files/39836.got.cif
#   From: 2010.05.17/outbox.cif.g08.bks.cpg/sg63_20_cif.got.tgz:39836.got - 2010.06.03 15:47:04.
