data_PCOD9469256
_publ_section_title
;
Structure prediction by ZEFSAII (Michael W. Deem and Ramdas Pophale) SiO2 
 PCOD9469256
Probable space group: C M C M
;
_chemical_formula_sum "Si O2"
_cell_formula_units_Z 80
_cell_length_a 8.622092
_cell_length_b 26.453574
_cell_length_c 20.453994
_cell_angle_alpha 90.000000
_cell_angle_beta 90.000000
_cell_angle_gamma 90.000000
_cell_volume 4665.252264
_symmetry_space_group_name_H-M "C M C M"
_symmetry_group_IT_number 63
_symmetry_cell_setting 'orthorhombic'
loop_
_space_group_symop_operation_xyz
x,y,z
-x,-y,1/2+z
x,-y,-z
-x,y,1/2-z
-x,-y,-z
x,y,1/2-z
-x,y,z
x,-y,1/2+z
1/2+x,1/2+y,z
1/2-x,1/2-y,1/2+z
1/2+x,1/2-y,-z
1/2-x,1/2+y,1/2-z
1/2-x,1/2-y,-z
1/2+x,1/2+y,1/2-z
1/2-x,1/2+y,z
1/2+x,1/2-y,1/2+z
loop_
_atom_site_type_symbol
_atom_site_label
_atom_site_fract_x
_atom_site_fract_y
_atom_site_fract_z
Si Si1 0.685816 0.345300 0.600820
Si Si2 0.812524 0.020508 0.927778
Si Si3 0.314354 0.059397 0.324720
Si Si4 0.188273 0.867270 0.450304
Si Si5 0.686358 0.258297 0.073410
O O1 0.500000 0.345210 0.602015
O O2 0.749814 0.387310 0.649313
O O3 0.734960 0.360910 0.526555
O O4 0.746631 0.288648 0.613572
O O5 0.759428 0.078789 0.923395
O O6 0.000000 0.018927 0.923348
O O7 0.745193 0.984262 0.872765
O O8 0.771412 0.000000 0.000000
O O9 0.264846 0.050573 0.250000
O O10 0.500000 0.060901 0.327081
O O11 0.233132 0.816267 0.411707
O O12 0.000000 0.868446 0.450824
O O13 0.500000 0.255387 0.073070
O O14 0.750000 0.250000 0.000000
#
# Coordination Sequence:
#
# PCOD9469256 Si02
#       5
#    16  16  16  16  16
#     4  10  18  32  52  74 102 135 174 218 265 317
#     4  10  18  33  56  79 105 138 177 221 263 313
#     4  11  24  38  51  74 108 142 177 221 272 325
#     4   8  15  28  48  76 106 134 165 210 260 307
#     4   9  16  27  45  73 107 138 168 206 256 310
#
# _framework density 17.148053999999998
#
# number of rings (size 3 to 8) (size 9 to 14) (size 15 to 20)
#    0.000    2.400    2.000    3.000    0.000    2.000 
#    0.000    2.000    0.000    1.200    0.000    2.800 
#    0.000    0.000    0.000    0.000    0.000    0.000 
#
# Total GULP energy -222912.521099 kJ/mol
# GULP energy per Si atom -5572.813027 kJ/mol
# Density = 1.710902 g / cm^3
# Si number density = 17.148054 Si / 1000 Ang^3
#
#
#
# Elastic Constant Matrix: (Units=GPa)
#
#
# Indices 1 2 3 4 5 6 
#
# 1 33.2476 41.2435 30.8100 0.0000 0.0000 0.0000
# 2 41.2435 200.1487 75.1105 0.0000 0.0000 0.0000
# 3 30.8100 75.1105 89.9749 0.0000 0.0000 0.0000
# 4 0.0000 0.0000 0.0000 17.2333 0.0000 0.0000
# 5 0.0000 0.0000 0.0000 0.0000 17.8124 0.0000
# 6 0.0000 0.0000 0.0000 0.0000 0.0000 29.9036
#
#
#
# Elastic Compliance Matrix: (Units=1/GPa)
#
#
# Indices 1 2 3 4 5 6 
#
# 1 0.047746 -0.005393 -0.011848 0.000000 0.000000 0.000000
# 2 -0.005393 0.007885 -0.004735 0.000000 0.000000 0.000000
# 3 -0.011848 -0.004735 0.019124 0.000000 0.000000 0.000000
# 4 0.000000 0.000000 0.000000 0.058027 0.000000 0.000000
# 5 0.000000 0.000000 0.000000 0.000000 0.056141 0.000000
# 6 0.000000 0.000000 0.000000 0.000000 0.000000 0.033441
#
#
# Mechanical properties :
#
#
# Convention : Reuss Voigt Hill
#
# Bulk Modulus (GPa) = 32.46416 68.63325 50.54871
# Shear Modulus (GPa) = 18.07773 24.73701 21.40737
#
# Velocity S-wave (km/s) = 3.25039 3.80222 3.53708
# Velocity P-wave (km/s) = 5.74974 7.70627 6.79875
#
# Compressibility (1/GPa) = 0.03080320
#
# Stress axis : x y z
#
# Youngs Moduli (GPa) = 20.94410 126.82974 52.28915
#
# Poissons Ratio (x) = 0.68394 0.61952
# Poissons Ratio (y) = 0.11294 0.24761
# Poissons Ratio (z) = 0.24815 0.60060
#
# Static dielectric constant tensor:
#      x y z
#    x 1.583380 0.000000 0.000000 
#    y 0.000000 1.625110 0.000000 
#    z 0.000000 0.000000 1.563560 
# 
# From -- ./inp_files/40413.got.cif
#   From: 2010.05.17/outbox.cif.g08.bks.cpg/sg63_21_cif.got.tgz:40413.got - 2010.06.03 15:47:04.
