data_PCOD9469934
_publ_section_title
;
Structure prediction by ZEFSAII (Michael W. Deem and Ramdas Pophale) SiO2 
 PCOD9469934
Probable space group: C M C M
;
_chemical_formula_sum "Si O2"
_cell_formula_units_Z 72
_cell_length_a 34.409445
_cell_length_b 15.004942
_cell_length_c 8.676598
_cell_angle_alpha 90.000000
_cell_angle_beta 90.000000
_cell_angle_gamma 90.000000
_cell_volume 4479.829293
_symmetry_space_group_name_H-M "C M C M"
_symmetry_group_IT_number 63
_symmetry_cell_setting 'orthorhombic'
loop_
_space_group_symop_operation_xyz
x,y,z
-x,-y,1/2+z
x,-y,-z
-x,y,1/2-z
-x,-y,-z
x,y,1/2-z
-x,y,z
x,-y,1/2+z
1/2+x,1/2+y,z
1/2-x,1/2-y,1/2+z
1/2+x,1/2-y,-z
1/2-x,1/2+y,1/2-z
1/2-x,1/2-y,-z
1/2+x,1/2+y,1/2-z
1/2-x,1/2+y,z
1/2+x,1/2-y,1/2+z
loop_
_atom_site_type_symbol
_atom_site_label
_atom_site_fract_x
_atom_site_fract_y
_atom_site_fract_z
Si Si1 0.227528 0.596497 0.435043
Si Si2 0.414617 0.899475 0.065142
Si Si3 0.000000 0.599967 0.935438
Si Si4 0.154755 0.718227 0.435555
Si Si5 0.686537 0.403593 0.434964
O O1 0.215427 0.500000 0.500000
O O2 0.230696 0.592020 0.250000
O O3 0.194907 0.668116 0.477099
O O4 0.269858 0.615698 0.504703
O O5 0.413142 0.905164 0.250000
O O6 0.457680 0.863804 0.017667
O O7 0.380971 0.835027 0.006606
O O8 0.409769 0.000000 0.000000
O O9 0.000000 0.597790 0.750000
O O10 0.000000 0.500000 0.000000
O O11 0.151441 0.714364 0.250000
O O12 0.159233 0.821375 0.481585
O O13 0.675070 0.500000 0.500000
O O14 0.687942 0.407897 0.250000
#
# Coordination Sequence:
#
# PCOD9469934 Si02
#       5
#    16  16   8  16  16
#     4  10  19  31  46  65  91 122 154 189 229 274
#     4  10  19  31  49  71  98 127 154 184 221 268
#     4   8  16  30  46  68  95 124 153 180 215 264
#     4  10  21  33  46  68  95 121 154 194 232 271
#     4  10  20  34  49  65  88 119 157 199 236 274
#
# _framework density 16.072040999999999
#
# number of rings (size 3 to 8) (size 9 to 14) (size 15 to 20)
#    0.000    2.222    0.000    4.667    0.000    6.222 
#    0.000    0.000    0.000    0.000    0.000    0.778 
#    0.000    0.000    0.000    0.000    0.000    0.000 
#
# Total GULP energy -200750.026576 kJ/mol
# GULP energy per Si atom -5576.389627 kJ/mol
# Density = 1.603546 g / cm^3
# Si number density = 16.072041 Si / 1000 Ang^3
#
#
#
# Elastic Constant Matrix: (Units=GPa)
#
#
# Indices 1 2 3 4 5 6 
#
# 1 90.3636 86.6016 31.0342 0.0000 0.0000 0.0000
# 2 86.6016 117.9353 37.6500 0.0000 0.0000 0.0000
# 3 31.0342 37.6500 36.5202 0.0000 0.0000 0.0000
# 4 0.0000 0.0000 0.0000 19.7351 0.0000 0.0000
# 5 0.0000 0.0000 0.0000 0.0000 14.9153 0.0000
# 6 0.0000 0.0000 0.0000 0.0000 0.0000 10.1030
#
#
#
# Elastic Compliance Matrix: (Units=1/GPa)
#
#
# Indices 1 2 3 4 5 6 
#
# 1 0.038019 -0.026240 -0.005256 0.000000 0.000000 0.000000
# 2 -0.026240 0.030749 -0.009402 0.000000 0.000000 0.000000
# 3 -0.005256 -0.009402 0.041542 0.000000 0.000000 0.000000
# 4 0.000000 0.000000 0.000000 0.050671 0.000000 0.000000
# 5 0.000000 0.000000 0.000000 0.000000 0.067045 0.000000
# 6 0.000000 0.000000 0.000000 0.000000 0.000000 0.098981
#
#
# Mechanical properties :
#
#
# Convention : Reuss Voigt Hill
#
# Bulk Modulus (GPa) = 35.07128 61.71008 48.39068
# Shear Modulus (GPa) = 11.95290 14.91957 13.43624
#
# Velocity S-wave (km/s) = 2.73006 3.05010 2.89450
# Velocity P-wave (km/s) = 5.63971 7.13326 6.43000
#
# Compressibility (1/GPa) = 0.02851336
#
# Stress axis : x y z
#
# Youngs Moduli (GPa) = 26.30254 32.52117 24.07210
#
# Poissons Ratio (x) = 0.85335 0.12653
# Poissons Ratio (y) = 0.69018 0.22633
# Poissons Ratio (z) = 0.13825 0.30577
#
# Static dielectric constant tensor:
#      x y z
#    x 1.548930 0.000000 0.000000 
#    y 0.000000 1.530440 0.000000 
#    z 0.000000 0.000000 1.552040 
# 
# From -- ./inp_files/13921.got.cif
#   From: 2010.05.17/outbox.cif.g08.bks.cpg/sg63_7_cif.got.tgz:13921.got - 2010.06.03 15:47:04.
