data_PCOD9469127
_publ_section_title
;
Structure prediction by ZEFSAII (Michael W. Deem and Ramdas Pophale) SiO2 
 PCOD9469127
Probable space group: C M C M
;
_chemical_formula_sum "Si O2"
_cell_formula_units_Z 96
_cell_length_a 7.372817
_cell_length_b 20.881822
_cell_length_c 29.235103
_cell_angle_alpha 90.000000
_cell_angle_beta 90.000000
_cell_angle_gamma 90.000000
_cell_volume 4500.973668
_symmetry_space_group_name_H-M "C M C M"
_symmetry_group_IT_number 63
_symmetry_cell_setting 'orthorhombic'
loop_
_space_group_symop_operation_xyz
x,y,z
-x,-y,1/2+z
x,-y,-z
-x,y,1/2-z
-x,-y,-z
x,y,1/2-z
-x,y,z
x,-y,1/2+z
1/2+x,1/2+y,z
1/2-x,1/2-y,1/2+z
1/2+x,1/2-y,-z
1/2-x,1/2+y,1/2-z
1/2-x,1/2-y,-z
1/2+x,1/2+y,1/2-z
1/2-x,1/2+y,z
1/2+x,1/2-y,1/2+z
loop_
_atom_site_type_symbol
_atom_site_label
_atom_site_fract_x
_atom_site_fract_y
_atom_site_fract_z
Si Si1 0.288828 0.379927 0.398594
Si Si2 0.278852 0.367318 0.592221
Si Si3 0.717103 0.325862 0.494377
Si Si4 0.278772 0.696438 0.250000
Si Si5 0.221020 0.047480 0.250000
Si Si6 0.221990 0.008126 0.350365
Si Si7 0.780951 0.747824 0.653713
O O1 0.500000 0.394263 0.407430
O O2 0.211061 0.354620 0.446810
O O3 0.213748 0.443888 0.375428
O O4 0.278690 0.321049 0.363559
O O5 0.500000 0.367682 0.592163
O O6 0.217772 0.362157 0.539844
O O7 0.222759 0.429565 0.620561
O O8 0.221975 0.303003 0.618525
O O9 0.500000 0.332552 0.493355
O O10 0.750000 0.250000 0.500000
O O11 0.500000 0.695903 0.250000
O O12 0.223713 0.622126 0.250000
O O13 0.220168 0.732052 0.295885
O O14 0.000000 0.047059 0.250000
O O15 0.279389 0.015277 0.297534
O O16 0.000000 0.007671 0.349559
O O17 0.000000 0.747840 0.653664
#
# Coordination Sequence:
#
# PCOD9469127 Si02
#       7
#    16  16  16   8   8  16  16
#     4  10  21  33  47  74 107 132 157 198 252 301
#     4   9  16  28  49  72  93 124 165 204 240 279
#     4  10  19  31  49  73  99 129 164 202 246 294
#     4   9  16  27  49  79  97 118 167 218 242 272
#     4   9  14  25  46  71  97 124 159 202 244 288
#     4   9  17  29  46  71 101 128 159 203 250 292
#     4  10  18  31  52  75  97 125 166 207 241 282
#
# _framework density 21.328719
#
# number of rings (size 3 to 8) (size 9 to 14) (size 15 to 20)
#    0.000    2.500    3.333    0.000    0.000    1.333 
#    0.000    4.583    0.000    2.000    0.000    2.333 
#    0.000    0.000    0.000    0.000    0.000    0.000 
#
# Total GULP energy -268103.465538 kJ/mol
# GULP energy per Si atom -5585.488865 kJ/mol
# Density = 2.128017 g / cm^3
# Si number density = 21.328719 Si / 1000 Ang^3
#
#
#
# Elastic Constant Matrix: (Units=GPa)
#
#
# Indices 1 2 3 4 5 6 
#
# 1 75.5908 -3.4570 5.1893 0.0000 0.0000 0.0000
# 2 -3.4570 148.8394 77.8075 0.0000 0.0000 0.0000
# 3 5.1893 77.8075 188.8605 0.0000 0.0000 0.0000
# 4 0.0000 0.0000 0.0000 30.8930 0.0000 0.0000
# 5 0.0000 0.0000 0.0000 0.0000 -4.7163 0.0000
# 6 0.0000 0.0000 0.0000 0.0000 0.0000 12.7120
#
#
#
# Elastic Compliance Matrix: (Units=1/GPa)
#
#
# Indices 1 2 3 4 5 6 
#
# 1 0.013301 0.000637 -0.000628 0.000000 0.000000 0.000000
# 2 0.000637 0.008593 -0.003558 0.000000 0.000000 0.000000
# 3 -0.000628 -0.003558 0.006778 0.000000 0.000000 0.000000
# 4 0.000000 0.000000 0.000000 0.032370 0.000000 0.000000
# 5 0.000000 0.000000 0.000000 0.000000 -0.212030 0.000000
# 6 0.000000 0.000000 0.000000 0.000000 0.000000 0.078666
#
#
# Mechanical properties :
#
#
# Convention : Reuss Voigt Hill
#
# Bulk Modulus (GPa) = 46.34896 63.59671 54.97283
# Shear Modulus (GPa) = -86.15872 30.02779 -28.06547
#
# Velocity S-wave (km/s) = -6.36265 3.75621 -3.63140
# Velocity P-wave (km/s) = 5.67449 6.97813 2.87180
#
# Compressibility (1/GPa) = 0.02157546
#
# Stress axis : x y z
#
# Youngs Moduli (GPa) = 75.18018 116.36904 147.53745
#
# Poissons Ratio (x) = -0.07416 0.09266
# Poissons Ratio (y) = -0.04791 0.52491
# Poissons Ratio (z) = 0.04721 0.41402
#
# Static dielectric constant tensor:
#      x y z
#    x 1.880520 0.000000 0.000000 
#    y 0.000000 1.704930 0.000000 
#    z 0.000000 0.000000 1.758740 
# 
# From -- ./inp_files/68387.got.cif
#   From: 2010.05.17/outbox.cif.g08.bks.cpg/sg63_35_cif.got.tgz:68387.got - 2010.06.03 15:47:04.
