data_PCOD9469434
_publ_section_title
;
Structure prediction by ZEFSAII (Michael W. Deem and Ramdas Pophale) SiO2 
 PCOD9469434
Probable space group: C M C M
;
_chemical_formula_sum "Si O2"
_cell_formula_units_Z 84
_cell_length_a 17.609974
_cell_length_b 15.881458
_cell_length_c 12.340460
_cell_angle_alpha 90.000000
_cell_angle_beta 90.000000
_cell_angle_gamma 90.000000
_cell_volume 3451.281900
_symmetry_space_group_name_H-M "C M C M"
_symmetry_group_IT_number 63
_symmetry_cell_setting 'orthorhombic'
loop_
_space_group_symop_operation_xyz
x,y,z
-x,-y,1/2+z
x,-y,-z
-x,y,1/2-z
-x,-y,-z
x,y,1/2-z
-x,y,z
x,-y,1/2+z
1/2+x,1/2+y,z
1/2-x,1/2-y,1/2+z
1/2+x,1/2-y,-z
1/2-x,1/2+y,1/2-z
1/2-x,1/2-y,-z
1/2+x,1/2+y,1/2-z
1/2-x,1/2+y,z
1/2+x,1/2-y,1/2+z
loop_
_atom_site_type_symbol
_atom_site_label
_atom_site_fract_x
_atom_site_fract_y
_atom_site_fract_z
Si Si1 0.082294 0.814266 0.466969
Si Si2 0.702290 0.103744 0.628149
Si Si3 0.216860 0.199473 0.129543
Si Si4 0.500000 0.936796 0.750000
Si Si5 0.121691 0.375470 0.580980
Si Si6 0.634380 0.527604 0.873730
O O1 0.149832 0.827707 0.551689
O O2 0.087089 0.718553 0.426956
O O3 0.095661 0.880562 0.372344
O O4 0.000000 0.828065 0.517810
O O5 0.672511 0.099293 0.750000
O O6 0.731661 0.200675 0.610065
O O7 0.637891 0.090859 0.539476
O O8 0.774663 0.043055 0.619976
O O9 0.187227 0.194121 0.250000
O O10 0.292542 0.144318 0.121817
O O11 0.567245 0.928293 0.656242
O O12 0.619860 0.490615 0.750000
O O13 0.611977 0.500000 0.000000
#
# Coordination Sequence:
#
# PCOD9469434 Si02
#       6
#    16  16  16   4  16  16
#     4  11  22  36  58  86 124 165 209 253 299 365
#     4   9  18  36  61  82 116 160 205 249 305 370
#     4  10  18  33  59  87 121 161 195 250 315 373
#     4  12  24  28  58 104 134 148 182 246 314 386
#     4  11  19  35  56  95 125 150 198 241 311 377
#     4  11  24  41  61  87 121 166 230 266 305 352
#
# _framework density 24.338784
#
# number of rings (size 3 to 8) (size 9 to 14) (size 15 to 20)
#    0.000    1.524    5.714    1.143    1.333    1.905 
#    1.714    0.476    0.000    0.000    0.000    0.667 
#    0.000    0.000    0.000    0.000    0.000    0.000 
#
# Total GULP energy -234001.866798 kJ/mol
# GULP energy per Si atom -5571.473019 kJ/mol
# Density = 2.428339 g / cm^3
# Si number density = 24.338784 Si / 1000 Ang^3
#
#
#
# Elastic Constant Matrix: (Units=GPa)
#
#
# Indices 1 2 3 4 5 6 
#
# 1 129.4801 27.2480 54.7291 0.0000 0.0000 0.0000
# 2 27.2480 53.2085 16.4761 0.0000 0.0000 0.0000
# 3 54.7291 16.4761 196.2481 0.0000 0.0000 0.0000
# 4 0.0000 0.0000 0.0000 20.2150 0.0000 0.0000
# 5 0.0000 0.0000 0.0000 0.0000 456.0317 0.0000
# 6 0.0000 0.0000 0.0000 0.0000 0.0000 -4.5738
#
#
#
# Elastic Compliance Matrix: (Units=1/GPa)
#
#
# Indices 1 2 3 4 5 6 
#
# 1 0.009586 -0.004190 -0.002322 0.000000 0.000000 0.000000
# 2 -0.004190 0.021127 -0.000605 0.000000 0.000000 0.000000
# 3 -0.002322 -0.000605 0.005794 0.000000 0.000000 0.000000
# 4 0.000000 0.000000 0.000000 0.049468 0.000000 0.000000
# 5 0.000000 0.000000 0.000000 0.000000 0.002193 0.000000
# 6 0.000000 0.000000 0.000000 0.000000 0.000000 -0.218635
#
#
# Mechanical properties :
#
#
# Convention : Reuss Voigt Hill
#
# Bulk Modulus (GPa) = 44.89686 63.98257 54.43971
# Shear Modulus (GPa) = -45.95231 113.03349 33.54059
#
# Velocity S-wave (km/s) = -4.34986 6.82221 3.71627
# Velocity P-wave (km/s) = 2.59648 9.40224 6.38985
#
# Compressibility (1/GPa) = 0.02227327
#
# Stress axis : x y z
#
# Youngs Moduli (GPa) = 104.31556 47.33239 172.59706
#
# Poissons Ratio (x) = 0.19833 0.40070
# Poissons Ratio (y) = 0.43711 0.10445
# Poissons Ratio (z) = 0.24218 0.02864
#
# Static dielectric constant tensor:
#      x y z
#    x 1.900260 0.000000 0.000000 
#    y 0.000000 2.066790 0.000000 
#    z 0.000000 0.000000 1.987690 
# 
# From -- ./inp_files/21049.got.cif
#   From: 2010.05.17/outbox.cif.g08.bks.cpg/sg63_11_cif.got.tgz:21049.got - 2010.06.03 15:47:04.
