data_PCOD9469920
_publ_section_title
;
Structure prediction by ZEFSAII (Michael W. Deem and Ramdas Pophale) SiO2 
 PCOD9469920
Probable space group: C M C M
;
_chemical_formula_sum "Si O2"
_cell_formula_units_Z 80
_cell_length_a 19.626653
_cell_length_b 29.510040
_cell_length_c 10.055542
_cell_angle_alpha 90.000000
_cell_angle_beta 90.000000
_cell_angle_gamma 90.000000
_cell_volume 5824.002151
_symmetry_space_group_name_H-M "C M C M"
_symmetry_group_IT_number 63
_symmetry_cell_setting 'orthorhombic'
loop_
_space_group_symop_operation_xyz
x,y,z
-x,-y,1/2+z
x,-y,-z
-x,y,1/2-z
-x,-y,-z
x,y,1/2-z
-x,y,z
x,-y,1/2+z
1/2+x,1/2+y,z
1/2-x,1/2-y,1/2+z
1/2+x,1/2-y,-z
1/2-x,1/2+y,1/2-z
1/2-x,1/2-y,-z
1/2+x,1/2+y,1/2-z
1/2-x,1/2+y,z
1/2+x,1/2-y,1/2+z
loop_
_atom_site_type_symbol
_atom_site_label
_atom_site_fract_x
_atom_site_fract_y
_atom_site_fract_z
Si Si1 0.373906 0.395248 0.034249
Si Si2 0.650491 0.762498 0.093388
Si Si3 0.500000 0.753829 0.093501
Si Si4 0.000000 0.830546 0.399079
Si Si5 0.081864 0.963935 0.250000
Si Si6 0.581270 0.427889 0.750000
Si Si7 0.786838 0.814153 0.406386
O O1 0.386022 0.407211 0.881715
O O2 0.434401 0.361975 0.081720
O O3 0.383997 0.439983 0.122878
O O4 0.306670 0.365589 0.059468
O O5 0.654998 0.749231 0.250000
O O6 0.572709 0.777316 0.066773
O O7 0.708111 0.800470 0.071732
O O8 0.670223 0.720138 0.999633
O O9 0.500000 0.742469 0.250000
O O10 0.500000 0.708405 0.007645
O O11 0.000000 0.811502 0.250000
O O12 0.000000 0.954470 0.250000
O O13 0.089531 0.017797 0.250000
O O14 0.500000 0.418312 0.750000
O O15 0.802365 0.806397 0.250000
#
# Coordination Sequence:
#
# PCOD9469920 Si02
#       7
#    16  16   8   8   8   8  16
#     4  12  20  32  47  63  84 117 153 185 216 256
#     4   9  19  31  44  64  87 112 144 183 221 252
#     4  10  20  30  46  63  89 113 146 189 221 251
#     4  12  20  28  41  64  85 117 154 179 209 255
#     4  11  20  36  46  63  86 113 147 188 225 259
#     4  11  24  32  46  63  88 115 147 188 227 255
#     4  10  19  31  45  62  86 115 147 181 215 255
#
# _framework density 13.736259
#
# number of rings (size 3 to 8) (size 9 to 14) (size 15 to 20)
#    0.000    1.400    6.000    0.600    2.800    1.600 
#    0.000    0.000    0.000    0.000    0.000    0.000 
#    0.000    0.000    0.000    5.400    0.000    0.100 
#
# Total GULP energy -223015.843233 kJ/mol
# GULP energy per Si atom -5575.396081 kJ/mol
# Density = 1.370499 g / cm^3
# Si number density = 13.736259 Si / 1000 Ang^3
#
#
#
# Elastic Constant Matrix: (Units=GPa)
#
#
# Indices 1 2 3 4 5 6 
#
# 1 92.4080 32.3533 33.2756 0.0000 0.0000 0.0000
# 2 32.3533 46.0037 21.7352 0.0000 0.0000 0.0000
# 3 33.2756 21.7352 76.2242 0.0000 0.0000 0.0000
# 4 0.0000 0.0000 0.0000 -29.9032 0.0000 0.0000
# 5 0.0000 0.0000 0.0000 0.0000 15.7138 0.0000
# 6 0.0000 0.0000 0.0000 0.0000 0.0000 21.2562
#
#
#
# Elastic Compliance Matrix: (Units=1/GPa)
#
#
# Indices 1 2 3 4 5 6 
#
# 1 0.015445 -0.008871 -0.004213 0.000000 0.000000 0.000000
# 2 -0.008871 0.030218 -0.004744 0.000000 0.000000 0.000000
# 3 -0.004213 -0.004744 0.016311 0.000000 0.000000 0.000000
# 4 0.000000 0.000000 0.000000 -0.033441 0.000000 0.000000
# 5 0.000000 0.000000 0.000000 0.000000 0.063638 0.000000
# 6 0.000000 0.000000 0.000000 0.000000 0.000000 0.047045
#
#
# Mechanical properties :
#
#
# Convention : Reuss Voigt Hill
#
# Bulk Modulus (GPa) = 37.99748 43.26270 40.63009
# Shear Modulus (GPa) = 27.22667 9.89814 18.56240
#
# Velocity S-wave (km/s) = 4.45691 2.68728 3.68005
# Velocity P-wave (km/s) = 7.36258 6.41812 6.90652
#
# Compressibility (1/GPa) = 0.02631753
#
# Stress axis : x y z
#
# Youngs Moduli (GPa) = 64.74791 33.09323 61.30877
#
# Poissons Ratio (x) = 0.29358 0.25827
# Poissons Ratio (y) = 0.57441 0.29083
# Poissons Ratio (z) = 0.27276 0.15699
#
# Static dielectric constant tensor:
#      x y z
#    x 1.476820 0.000000 0.000000 
#    y 0.000000 1.431510 0.000000 
#    z 0.000000 0.000000 1.466990 
# 
# From -- ./inp_files/8486.got.cif
#   From: 2010.05.17/outbox.cif.g08.bks.cpg/sg63_5_cif.got.tgz:8486.got - 2010.06.03 15:47:04.
