data_PCOD9469631
_publ_section_title
;
Structure prediction by ZEFSAII (Michael W. Deem and Ramdas Pophale) SiO2 
 PCOD9469631
Probable space group: C M C M
;
_chemical_formula_sum "Si O2"
_cell_formula_units_Z 96
_cell_length_a 9.296199
_cell_length_b 20.182275
_cell_length_c 30.492241
_cell_angle_alpha 90.000000
_cell_angle_beta 90.000000
_cell_angle_gamma 90.000000
_cell_volume 5720.906831
_symmetry_space_group_name_H-M "C M C M"
_symmetry_group_IT_number 63
_symmetry_cell_setting 'orthorhombic'
loop_
_space_group_symop_operation_xyz
x,y,z
-x,-y,1/2+z
x,-y,-z
-x,y,1/2-z
-x,-y,-z
x,y,1/2-z
-x,y,z
x,-y,1/2+z
1/2+x,1/2+y,z
1/2-x,1/2-y,1/2+z
1/2+x,1/2-y,-z
1/2-x,1/2+y,1/2-z
1/2-x,1/2-y,-z
1/2+x,1/2+y,1/2-z
1/2-x,1/2+y,z
1/2+x,1/2-y,1/2+z
loop_
_atom_site_type_symbol
_atom_site_label
_atom_site_fract_x
_atom_site_fract_y
_atom_site_fract_z
Si Si1 0.330245 0.192600 0.026511
Si Si2 0.168364 0.560163 0.968989
Si Si3 0.333191 0.983107 0.298502
Si Si4 0.171830 0.858749 0.612415
Si Si5 0.832562 0.643961 0.200805
Si Si6 0.169986 0.017445 0.885290
O O1 0.500000 0.206884 0.032895
O O2 0.253133 0.177279 0.072692
O O3 0.250000 0.250000 0.000000
O O4 0.318963 0.126926 0.996579
O O5 0.258170 0.557118 0.924753
O O6 0.000000 0.549101 0.958306
O O7 0.216917 0.500000 0.000000
O O8 0.286559 0.960811 0.250000
O O9 0.500000 0.964419 0.304912
O O10 0.328781 0.063515 0.298199
O O11 0.237093 0.961452 0.338955
O O12 0.234733 0.836526 0.659624
O O13 0.199788 0.938333 0.608443
O O14 0.000000 0.848785 0.610200
O O15 0.788825 0.666183 0.250000
O O16 0.000000 0.662615 0.193832
O O17 0.000000 0.025844 0.885123
#
# Coordination Sequence:
#
# PCOD9469631 Si02
#       6
#    16  16  16  16  16  16
#     4  11  23  38  55  74 100 134 171 213 257 304
#     4  10  20  35  54  74  97 131 172 208 246 298
#     4   8  14  25  41  62  93 132 168 202 244 298
#     4  10  19  30  46  71 102 134 167 205 253 301
#     4   8  14  25  42  65  94 129 167 205 247 295
#     4  10  19  28  45  73 102 131 164 210 256 295
#
# _framework density 16.780556000000001
#
# number of rings (size 3 to 8) (size 9 to 14) (size 15 to 20)
#    0.000    2.500    1.667    2.500    0.000    3.667 
#    0.000    3.333    0.000    0.000    0.000    1.167 
#    0.000    1.333    0.000    0.000    0.000    0.000 
#
# Total GULP energy -267531.666728 kJ/mol
# GULP energy per Si atom -5573.576390 kJ/mol
# Density = 1.674236 g / cm^3
# Si number density = 16.780556 Si / 1000 Ang^3
#
#
#
# Elastic Constant Matrix: (Units=GPa)
#
#
# Indices 1 2 3 4 5 6 
#
# 1 84.6552 22.5256 85.9716 0.0000 0.0000 0.0000
# 2 22.5256 21.2654 18.3112 0.0000 0.0000 0.0000
# 3 85.9716 18.3112 164.7452 0.0000 0.0000 0.0000
# 4 0.0000 0.0000 0.0000 13.0582 0.0000 0.0000
# 5 0.0000 0.0000 0.0000 0.0000 21.4484 0.0000
# 6 0.0000 0.0000 0.0000 0.0000 0.0000 17.0655
#
#
#
# Elastic Compliance Matrix: (Units=1/GPa)
#
#
# Indices 1 2 3 4 5 6 
#
# 1 0.032213 -0.021726 -0.014395 0.000000 0.000000 0.000000
# 2 -0.021726 0.066655 0.003929 0.000000 0.000000 0.000000
# 3 -0.014395 0.003929 0.013145 0.000000 0.000000 0.000000
# 4 0.000000 0.000000 0.000000 0.076580 0.000000 0.000000
# 5 0.000000 0.000000 0.000000 0.000000 0.046624 0.000000
# 6 0.000000 0.000000 0.000000 0.000000 0.000000 0.058598
#
#
# Mechanical properties :
#
#
# Convention : Reuss Voigt Hill
#
# Bulk Modulus (GPa) = 20.99576 58.25363 39.62469
# Shear Modulus (GPa) = 13.36625 19.90491 16.63558
#
# Velocity S-wave (km/s) = 2.82535 3.44785 3.15200
# Velocity P-wave (km/s) = 4.81483 7.11621 6.07549
#
# Compressibility (1/GPa) = 0.04762866
#
# Stress axis : x y z
#
# Youngs Moduli (GPa) = 31.04341 15.00252 76.07221
#
# Poissons Ratio (x) = 0.32595 1.09509
# Poissons Ratio (y) = 0.67446 -0.29890
# Poissons Ratio (z) = 0.44688 -0.05895
#
# Static dielectric constant tensor:
#      x y z
#    x 1.556390 0.000000 0.000000 
#    y 0.000000 1.547320 0.000000 
#    z 0.000000 0.000000 1.576310 
# 
# From -- ./inp_files/67217.got.cif
#   From: 2010.05.17/outbox.cif.g08.bks.cpg/sg63_34_cif.got.tgz:67217.got - 2010.06.03 15:47:04.
