data_PCOD9469733
_publ_section_title
;
Structure prediction by ZEFSAII (Michael W. Deem and Ramdas Pophale) SiO2 
 PCOD9469733
Probable space group: C M C M
;
_chemical_formula_sum "Si O2"
_cell_formula_units_Z 60
_cell_length_a 22.914587
_cell_length_b 21.154762
_cell_length_c 5.487118
_cell_angle_alpha 90.000000
_cell_angle_beta 90.000000
_cell_angle_gamma 90.000000
_cell_volume 2659.894905
_symmetry_space_group_name_H-M "C M C M"
_symmetry_group_IT_number 63
_symmetry_cell_setting 'orthorhombic'
loop_
_space_group_symop_operation_xyz
x,y,z
-x,-y,1/2+z
x,-y,-z
-x,y,1/2-z
-x,-y,-z
x,y,1/2-z
-x,y,z
x,-y,1/2+z
1/2+x,1/2+y,z
1/2-x,1/2-y,1/2+z
1/2+x,1/2-y,-z
1/2-x,1/2+y,1/2-z
1/2-x,1/2-y,-z
1/2+x,1/2+y,1/2-z
1/2-x,1/2+y,z
1/2+x,1/2-y,1/2+z
loop_
_atom_site_type_symbol
_atom_site_label
_atom_site_fract_x
_atom_site_fract_y
_atom_site_fract_z
Si Si1 0.388096 0.717186 0.750000
Si Si2 0.249167 0.309597 0.250000
Si Si3 0.729362 0.663537 0.250000
Si Si4 0.403317 0.647713 0.250000
Si Si5 0.676984 0.983816 0.750000
Si Si6 0.096357 0.633206 0.250000
Si Si7 0.500000 0.459410 0.750000
Si Si8 0.062262 0.573554 0.750000
O O1 0.318888 0.701489 0.750000
O O2 0.413219 0.687267 0.500124
O O3 0.392973 0.792392 0.750000
O O4 0.237245 0.345699 0.497753
O O5 0.219219 0.240832 0.250000
O O6 0.666166 0.631877 0.250000
O O7 0.443845 0.586643 0.250000
O O8 0.618071 0.027513 0.750000
O O9 0.709294 0.000000 0.500000
O O10 0.651469 0.913895 0.750000
O O11 0.065666 0.614712 0.504375
O O12 0.500000 0.500000 0.500000
O O13 0.000000 0.538555 0.750000
#
# Coordination Sequence:
#
# PCOD9469733 Si02
#       8
#     8   8   8   8   8   8   4   8
#     4  10  19  34  51  78 115 141 165 214 275 346
#     4   8  14  25  47  75 107 137 161 188 244 319
#     4   8  14  27  49  78 103 131 162 198 246 308
#     4  10  21  38  58  79 108 135 173 227 280 335
#     4   8  16  27  42  56  78 113 161 213 241 262
#     4  10  19  30  43  65  91 127 164 199 257 316
#     4  12  26  46  66  82 102 148 202 240 290 358
#     4  10  19  31  42  57  82 121 178 231 247 271
#
# _framework density 22.557279999999999
#
# number of rings (size 3 to 8) (size 9 to 14) (size 15 to 20)
#    0.000    2.667    0.000    2.000    0.000    4.800 
#    7.200    0.000    0.000    0.000    0.000    5.600 
#    0.000    0.000    0.000    0.000    0.000    0.000 
#
# Total GULP energy -167551.116850 kJ/mol
# GULP energy per Si atom -5585.037228 kJ/mol
# Density = 2.250594 g / cm^3
# Si number density = 22.557280 Si / 1000 Ang^3
#
#
#
# Elastic Constant Matrix: (Units=GPa)
#
#
# Indices 1 2 3 4 5 6 
#
# 1 54.3245 44.8045 35.0998 0.0000 0.0000 0.0000
# 2 44.8045 131.4410 75.1807 0.0000 0.0000 0.0000
# 3 35.0998 75.1807 272.9258 0.0000 0.0000 0.0000
# 4 0.0000 0.0000 0.0000 38.0844 0.0000 0.0000
# 5 0.0000 0.0000 0.0000 0.0000 18.2559 0.0000
# 6 0.0000 0.0000 0.0000 0.0000 0.0000 29.3121
#
#
#
# Elastic Compliance Matrix: (Units=1/GPa)
#
#
# Indices 1 2 3 4 5 6 
#
# 1 0.025865 -0.008207 -0.001066 0.000000 0.000000 0.000000
# 2 -0.008207 0.011635 -0.002150 0.000000 0.000000 0.000000
# 3 -0.001066 -0.002150 0.004393 0.000000 0.000000 0.000000
# 4 0.000000 0.000000 0.000000 0.026257 0.000000 0.000000
# 5 0.000000 0.000000 0.000000 0.000000 0.054777 0.000000
# 6 0.000000 0.000000 0.000000 0.000000 0.000000 0.034116
#
#
# Mechanical properties :
#
#
# Convention : Reuss Voigt Hill
#
# Bulk Modulus (GPa) = 52.49676 85.42903 68.96290
# Shear Modulus (GPa) = 26.84736 37.37090 32.10913
#
# Velocity S-wave (km/s) = 3.45365 4.07469 3.77695
# Velocity P-wave (km/s) = 6.26313 7.75188 7.04693
#
# Compressibility (1/GPa) = 0.01904879
#
# Stress axis : x y z
#
# Youngs Moduli (GPa) = 38.66160 85.94705 227.62658
#
# Poissons Ratio (x) = 0.70539 0.24257
# Poissons Ratio (y) = 0.31731 0.48929
# Poissons Ratio (z) = 0.04120 0.18474
#
# Static dielectric constant tensor:
#      x y z
#    x 1.716570 0.000000 0.000000 
#    y 0.000000 1.783220 0.000000 
#    z 0.000000 0.000000 1.964930 
# 
# From -- ./inp_files/1262.got.cif
#   From: 2010.05.17/outbox.cif.g08.bks.cpg/sg63_1_cif.got.tgz:1262.got - 2010.06.03 15:47:04.
