data_PCOD9469128
_publ_section_title
;
Structure prediction by ZEFSAII (Michael W. Deem and Ramdas Pophale) SiO2 
 PCOD9469128
Probable space group: C M C M
;
_chemical_formula_sum "Si O2"
_cell_formula_units_Z 96
_cell_length_a 12.204833
_cell_length_b 26.046023
_cell_length_c 17.679745
_cell_angle_alpha 90.000000
_cell_angle_beta 90.000000
_cell_angle_gamma 90.000000
_cell_volume 5620.167482
_symmetry_space_group_name_H-M "C M C M"
_symmetry_group_IT_number 63
_symmetry_cell_setting 'orthorhombic'
loop_
_space_group_symop_operation_xyz
x,y,z
-x,-y,1/2+z
x,-y,-z
-x,y,1/2-z
-x,-y,-z
x,y,1/2-z
-x,y,z
x,-y,1/2+z
1/2+x,1/2+y,z
1/2-x,1/2-y,1/2+z
1/2+x,1/2-y,-z
1/2-x,1/2+y,1/2-z
1/2-x,1/2-y,-z
1/2+x,1/2+y,1/2-z
1/2-x,1/2+y,z
1/2+x,1/2-y,1/2+z
loop_
_atom_site_type_symbol
_atom_site_label
_atom_site_fract_x
_atom_site_fract_y
_atom_site_fract_z
Si Si1 0.128584 0.791562 0.840849
Si Si2 0.500000 0.012702 0.661991
Si Si3 0.774869 0.315260 0.341538
Si Si4 0.500000 0.864626 0.338567
Si Si5 0.233967 0.501354 0.408585
Si Si6 0.373180 0.598877 0.906409
Si Si7 0.873450 0.099699 0.411210
O O1 0.131983 0.796365 0.750000
O O2 0.207045 0.744228 0.862287
O O3 0.160274 0.845321 0.878267
O O4 0.000000 0.780293 0.860395
O O5 0.500000 0.998104 0.750000
O O6 0.500000 0.074514 0.657031
O O7 0.611644 0.995358 0.622724
O O8 0.769495 0.318341 0.250000
O O9 0.675553 0.348259 0.374215
O O10 0.886951 0.342581 0.369567
O O11 0.500000 0.849071 0.250000
O O12 0.231005 0.500000 0.500000
O O13 0.297075 0.449464 0.382845
O O14 0.301529 0.551717 0.385426
O O15 0.500000 0.590930 0.884309
O O16 0.369300 0.601361 0.997630
O O17 0.000000 0.091292 0.388932
#
# Coordination Sequence:
#
# PCOD9469128 Si02
#       7
#    16   8  16   8  16  16  16
#     4   9  17  31  53  76  97 127 169 213 253 295
#     4  11  21  33  53  79 103 129 165 211 257 301
#     4  10  18  31  52  76 100 128 165 210 258 301
#     4   9  16  29  49  75  99 121 158 209 261 297
#     4  10  20  35  54  75 103 137 170 206 253 307
#     4  10  20  33  51  75 105 137 167 206 255 303
#     4   9  19  35  53  75 102 134 173 210 248 297
#
# _framework density 17.081341999999999
#
# number of rings (size 3 to 8) (size 9 to 14) (size 15 to 20)
#    0.000    2.333    2.500    0.750    0.000    3.667 
#    0.000    0.000    1.833    3.000    0.000    0.000 
#    0.000    0.000    0.000    0.000    0.000    0.000 
#
# Total GULP energy -267555.124388 kJ/mol
# GULP energy per Si atom -5574.065091 kJ/mol
# Density = 1.704246 g / cm^3
# Si number density = 17.081342 Si / 1000 Ang^3
#
#
#
# Elastic Constant Matrix: (Units=GPa)
#
#
# Indices 1 2 3 4 5 6 
#
# 1 115.6357 75.8143 22.9560 0.0000 0.0000 0.0000
# 2 75.8143 122.7665 31.7620 0.0000 0.0000 0.0000
# 3 22.9560 31.7620 11.6990 0.0000 0.0000 0.0000
# 4 0.0000 0.0000 0.0000 23.7366 0.0000 0.0000
# 5 0.0000 0.0000 0.0000 0.0000 17.2999 0.0000
# 6 0.0000 0.0000 0.0000 0.0000 0.0000 25.1743
#
#
#
# Elastic Compliance Matrix: (Units=1/GPa)
#
#
# Indices 1 2 3 4 5 6 
#
# 1 0.015242 -0.005628 -0.014628 0.000000 0.000000 0.000000
# 2 -0.005628 0.029449 -0.068910 0.000000 0.000000 0.000000
# 3 -0.014628 -0.068910 0.301268 0.000000 0.000000 0.000000
# 4 0.000000 0.000000 0.000000 0.042129 0.000000 0.000000
# 5 0.000000 0.000000 0.000000 0.000000 0.057804 0.000000
# 6 0.000000 0.000000 0.000000 0.000000 0.000000 0.039723
#
#
# Mechanical properties :
#
#
# Convention : Reuss Voigt Hill
#
# Bulk Modulus (GPa) = 5.96563 56.79618 31.38090
# Shear Modulus (GPa) = 6.94615 21.21341 14.07978
#
# Velocity S-wave (km/s) = 2.01875 3.52789 2.87414
# Velocity P-wave (km/s) = 2.98896 7.06522 5.42453
#
# Compressibility (1/GPa) = 0.16762699
#
# Stress axis : x y z
#
# Youngs Moduli (GPa) = 65.60973 33.95660 3.31930
#
# Poissons Ratio (x) = 0.19110 0.04856
# Poissons Ratio (y) = 0.36924 0.22873
# Poissons Ratio (z) = 0.95975 2.33995
#
# Static dielectric constant tensor:
#      x y z
#    x 1.577120 0.000000 0.000000 
#    y 0.000000 1.575990 0.000000 
#    z 0.000000 0.000000 1.572090 
# 
# From -- ./inp_files/42749.got.cif
#   From: 2010.05.17/outbox.cif.g08.bks.cpg/sg63_22_cif.got.tgz:42749.got - 2010.06.03 15:47:04.
