data_PCOD9469096
_publ_section_title
;
Structure prediction by ZEFSAII (Michael W. Deem and Ramdas Pophale) SiO2 
 PCOD9469096
Probable space group: C M C M
;
_chemical_formula_sum "Si O2"
_cell_formula_units_Z 88
_cell_length_a 16.159338
_cell_length_b 35.356657
_cell_length_c 7.576816
_cell_angle_alpha 90.000000
_cell_angle_beta 90.000000
_cell_angle_gamma 90.000000
_cell_volume 4328.939349
_symmetry_space_group_name_H-M "C M C M"
_symmetry_group_IT_number 63
_symmetry_cell_setting 'orthorhombic'
loop_
_space_group_symop_operation_xyz
x,y,z
-x,-y,1/2+z
x,-y,-z
-x,y,1/2-z
-x,-y,-z
x,y,1/2-z
-x,y,z
x,-y,1/2+z
1/2+x,1/2+y,z
1/2-x,1/2-y,1/2+z
1/2+x,1/2-y,-z
1/2-x,1/2+y,1/2-z
1/2-x,1/2-y,-z
1/2+x,1/2+y,1/2-z
1/2-x,1/2+y,z
1/2+x,1/2-y,1/2+z
loop_
_atom_site_type_symbol
_atom_site_label
_atom_site_fract_x
_atom_site_fract_y
_atom_site_fract_z
Si Si1 0.749072 0.119304 0.538159
Si Si2 0.907472 0.832493 0.466100
Si Si3 0.590837 0.830312 0.538454
Si Si4 0.000000 0.955244 0.460731
Si Si5 0.847669 0.249529 0.961640
Si Si6 0.181253 0.044066 0.538014
O O1 0.755076 0.118962 0.750000
O O2 0.830160 0.142153 0.474268
O O3 0.665210 0.141119 0.497267
O O4 0.755012 0.075887 0.475832
O O5 0.906900 0.833220 0.250000
O O6 0.889126 0.789375 0.523717
O O7 0.000000 0.844519 0.520115
O O8 0.586661 0.827165 0.750000
O O9 0.500000 0.842091 0.473991
O O10 0.613383 0.788427 0.469575
O O11 0.910203 0.943270 0.528520
O O12 0.000000 0.948064 0.250000
O O13 0.000000 0.000000 0.500000
O O14 0.857673 0.249409 0.750000
O O15 0.750000 0.250000 0.000000
O O16 0.177405 0.045774 0.750000
O O17 0.196994 0.000000 0.500000
#
# Coordination Sequence:
#
# PCOD9469096 Si02
#       6
#    16  16  16   8  16  16
#     4  10  20  33  52  79 104 130 170 216 256 298
#     4   9  17  29  48  73 101 134 169 203 241 289
#     4  10  21  36  54  75 102 137 175 214 258 306
#     4   8  14  26  44  68  98 130 164 198 234 288
#     4  10  18  31  51  73 100 134 172 209 247 294
#     4   9  18  31  49  73 102 134 169 206 250 304
#
# _framework density 20.328306000000001
#
# number of rings (size 3 to 8) (size 9 to 14) (size 15 to 20)
#    0.000    2.545    1.818    0.545    1.273    3.273 
#    0.000    0.000    0.000    3.818    0.000    0.000 
#    0.000    0.000    0.000    0.000    0.000    0.000 
#
# Total GULP energy -245442.749643 kJ/mol
# GULP energy per Si atom -5578.244310 kJ/mol
# Density = 2.028204 g / cm^3
# Si number density = 20.328306 Si / 1000 Ang^3
#
#
#
# Elastic Constant Matrix: (Units=GPa)
#
#
# Indices 1 2 3 4 5 6 
#
# 1 168.3733 92.8786 3.7277 0.0000 0.0000 0.0000
# 2 92.8786 149.0371 9.0828 0.0000 0.0000 0.0000
# 3 3.7277 9.0828 45.0257 0.0000 0.0000 0.0000
# 4 0.0000 0.0000 0.0000 11.1946 0.0000 0.0000
# 5 0.0000 0.0000 0.0000 0.0000 14.4005 0.0000
# 6 0.0000 0.0000 0.0000 0.0000 0.0000 23.1889
#
#
#
# Elastic Compliance Matrix: (Units=1/GPa)
#
#
# Indices 1 2 3 4 5 6 
#
# 1 0.009057 -0.005668 0.000394 0.000000 0.000000 0.000000
# 2 -0.005668 0.010341 -0.001617 0.000000 0.000000 0.000000
# 3 0.000394 -0.001617 0.022503 0.000000 0.000000 0.000000
# 4 0.000000 0.000000 0.000000 0.089329 0.000000 0.000000
# 5 0.000000 0.000000 0.000000 0.000000 0.069442 0.000000
# 6 0.000000 0.000000 0.000000 0.000000 0.000000 0.043124
#
#
# Mechanical properties :
#
#
# Convention : Reuss Voigt Hill
#
# Bulk Modulus (GPa) = 35.56427 63.75714 49.66070
# Shear Modulus (GPa) = 18.73000 26.87328 22.80164
#
# Velocity S-wave (km/s) = 3.03871 3.63983 3.35277
# Velocity P-wave (km/s) = 5.46302 7.00687 6.28255
#
# Compressibility (1/GPa) = 0.02811811
#
# Stress axis : x y z
#
# Youngs Moduli (GPa) = 110.40822 96.70464 44.43839
#
# Poissons Ratio (x) = 0.54816 -0.01749
# Poissons Ratio (y) = 0.62584 0.07184
# Poissons Ratio (z) = -0.04346 0.15634
#
# Static dielectric constant tensor:
#      x y z
#    x 1.719820 0.000000 0.000000 
#    y 0.000000 1.735660 0.000000 
#    z 0.000000 0.000000 1.750400 
# 
# From -- ./inp_files/19904.got.cif
#   From: 2010.05.17/outbox.cif.g08.bks.cpg/sg63_10_cif.got.tgz:19904.got - 2010.06.03 15:47:04.
