data_PCOD9469355
_publ_section_title
;
Structure prediction by ZEFSAII (Michael W. Deem and Ramdas Pophale) SiO2 
 PCOD9469355
Probable space group: C M C M
;
_chemical_formula_sum "Si O2"
_cell_formula_units_Z 112
_cell_length_a 14.600635
_cell_length_b 25.705064
_cell_length_c 14.276540
_cell_angle_alpha 90.000000
_cell_angle_beta 90.000000
_cell_angle_gamma 90.000000
_cell_volume 5358.131898
_symmetry_space_group_name_H-M "C M C M"
_symmetry_group_IT_number 63
_symmetry_cell_setting 'orthorhombic'
loop_
_space_group_symop_operation_xyz
x,y,z
-x,-y,1/2+z
x,-y,-z
-x,y,1/2-z
-x,-y,-z
x,y,1/2-z
-x,y,z
x,-y,1/2+z
1/2+x,1/2+y,z
1/2-x,1/2-y,1/2+z
1/2+x,1/2-y,-z
1/2-x,1/2+y,1/2-z
1/2-x,1/2-y,-z
1/2+x,1/2+y,1/2-z
1/2-x,1/2+y,z
1/2+x,1/2-y,1/2+z
loop_
_atom_site_type_symbol
_atom_site_label
_atom_site_fract_x
_atom_site_fract_y
_atom_site_fract_z
Si Si1 0.605590 0.866049 0.864288
Si Si2 0.241261 0.215477 0.138104
Si Si3 0.808270 0.474446 0.857977
Si Si4 0.396338 0.648839 0.019470
Si Si5 0.899755 0.967387 0.904222
Si Si6 0.741218 0.338001 0.361185
Si Si7 0.395548 0.918702 0.135520
O O1 0.605107 0.866429 0.750000
O O2 0.500000 0.863428 0.894441
O O3 0.667801 0.816635 0.890330
O O4 0.654896 0.919496 0.896932
O O5 0.228312 0.208338 0.250000
O O6 0.248742 0.276658 0.120276
O O7 0.158430 0.189694 0.082372
O O8 0.838793 0.473470 0.750000
O O9 0.698248 0.478711 0.858449
O O10 0.851695 0.527005 0.898374
O O11 0.500000 0.665637 0.003040
O O12 0.342875 0.641910 0.922396
O O13 0.397166 0.593717 0.072214
O O14 0.000000 0.978258 0.859348
O O15 0.899041 0.000000 0.000000
O O16 0.726436 0.345144 0.250000
O O17 0.830910 0.370481 0.389485
O O18 0.396210 0.919658 0.250000
O O19 0.500000 0.913732 0.104311
#
# Coordination Sequence:
#
# PCOD9469355 Si02
#       7
#    16  16  16  16  16  16  16
#     4   9  17  31  54  84 116 150 187 233 292 353
#     4  10  21  39  61  88 121 157 197 245 305 366
#     4  10  18  32  57  84 114 150 191 245 302 362
#     4  11  23  39  60  86 119 157 202 253 297 353
#     4  10  21  36  54  77 113 159 196 240 300 352
#     4  10  22  40  62  86 118 159 203 252 300 354
#     4   9  18  34  58  87 117 154 199 248 305 363
#
# _framework density 20.902806999999999
#
# number of rings (size 3 to 8) (size 9 to 14) (size 15 to 20)
#    0.000    2.143    1.429    1.714    0.000    3.714 
#    0.000    5.000    0.000    6.857    0.000    0.000 
#    0.000    0.000    0.000    0.000    0.000    0.000 
#
# Total GULP energy -312829.834937 kJ/mol
# GULP energy per Si atom -5586.247052 kJ/mol
# Density = 2.085523 g / cm^3
# Si number density = 20.902807 Si / 1000 Ang^3
#
#
#
# Elastic Constant Matrix: (Units=GPa)
#
#
# Indices 1 2 3 4 5 6 
#
# 1 197.1583 68.0003 24.3249 0.0000 0.0000 0.0000
# 2 68.0003 101.0499 25.9220 0.0000 0.0000 0.0000
# 3 24.3249 25.9220 49.7376 0.0000 0.0000 0.0000
# 4 0.0000 0.0000 0.0000 18.1273 0.0000 0.0000
# 5 0.0000 0.0000 0.0000 0.0000 35.8082 0.0000
# 6 0.0000 0.0000 0.0000 0.0000 0.0000 14.8527
#
#
#
# Elastic Compliance Matrix: (Units=1/GPa)
#
#
# Indices 1 2 3 4 5 6 
#
# 1 0.006653 -0.004205 -0.001063 0.000000 0.000000 0.000000
# 2 -0.004205 0.014081 -0.005282 0.000000 0.000000 0.000000
# 3 -0.001063 -0.005282 0.023378 0.000000 0.000000 0.000000
# 4 0.000000 0.000000 0.000000 0.055165 0.000000 0.000000
# 5 0.000000 0.000000 0.000000 0.000000 0.027927 0.000000
# 6 0.000000 0.000000 0.000000 0.000000 0.000000 0.067328
#
#
# Mechanical properties :
#
#
# Convention : Reuss Voigt Hill
#
# Bulk Modulus (GPa) = 43.45306 64.93781 54.19543
# Shear Modulus (GPa) = 22.39122 29.07087 25.73104
#
# Velocity S-wave (km/s) = 3.27648 3.73334 3.51235
# Velocity P-wave (km/s) = 5.92849 7.05108 6.51402
#
# Compressibility (1/GPa) = 0.02301334
#
# Stress axis : x y z
#
# Youngs Moduli (GPa) = 150.29941 71.01955 42.77519
#
# Poissons Ratio (x) = 0.29862 0.04545
# Poissons Ratio (y) = 0.63197 0.22594
# Poissons Ratio (z) = 0.15970 0.37513
#
# Static dielectric constant tensor:
#      x y z
#    x 1.724460 0.000000 0.000000 
#    y 0.000000 1.725170 0.000000 
#    z 0.000000 0.000000 3.161420 
# 
# From -- ./inp_files/32279.got.cif
#   From: 2010.05.17/outbox.cif.g08.bks.cpg/sg63_17_cif.got.tgz:32279.got - 2010.06.03 15:47:04.
