data_PCOD9469396
_publ_section_title
;
Structure prediction by ZEFSAII (Michael W. Deem and Ramdas Pophale) SiO2 
 PCOD9469396
Probable space group: C M C M
;
_chemical_formula_sum "Si O2"
_cell_formula_units_Z 96
_cell_length_a 7.656230
_cell_length_b 26.789003
_cell_length_c 23.837318
_cell_angle_alpha 90.000000
_cell_angle_beta 90.000000
_cell_angle_gamma 90.000000
_cell_volume 4889.099914
_symmetry_space_group_name_H-M "C M C M"
_symmetry_group_IT_number 63
_symmetry_cell_setting 'orthorhombic'
loop_
_space_group_symop_operation_xyz
x,y,z
-x,-y,1/2+z
x,-y,-z
-x,y,1/2-z
-x,-y,-z
x,y,1/2-z
-x,y,z
x,-y,1/2+z
1/2+x,1/2+y,z
1/2-x,1/2-y,1/2+z
1/2+x,1/2-y,-z
1/2-x,1/2+y,1/2-z
1/2-x,1/2-y,-z
1/2+x,1/2+y,1/2-z
1/2-x,1/2+y,z
1/2+x,1/2-y,1/2+z
loop_
_atom_site_type_symbol
_atom_site_label
_atom_site_fract_x
_atom_site_fract_y
_atom_site_fract_z
Si Si1 0.701490 0.689963 0.250000
Si Si2 0.289175 0.250370 0.065519
Si Si3 0.199333 0.346234 0.869757
Si Si4 0.799116 0.308581 0.250000
Si Si5 0.803103 0.846225 0.369578
Si Si6 0.713898 0.942727 0.815196
Si Si7 0.207642 0.444876 0.186514
O O1 0.500000 0.672019 0.250000
O O2 0.797407 0.673410 0.305997
O O3 0.694641 0.749387 0.250000
O O4 0.500000 0.250203 0.074829
O O5 0.221070 0.199066 0.094095
O O6 0.219409 0.301829 0.093435
O O7 0.250000 0.250000 0.000000
O O8 0.277388 0.401421 0.859729
O O9 0.000000 0.352729 0.889892
O O10 0.707103 0.325351 0.193571
O O11 0.000000 0.328281 0.250000
O O12 0.737939 0.902474 0.359781
O O13 0.000000 0.851166 0.389962
O O14 0.762585 0.931603 0.750000
O O15 0.500000 0.940909 0.816486
O O16 0.771775 0.999357 0.827098
O O17 0.272882 0.431537 0.250000
O O18 0.000000 0.449160 0.191457
#
# Coordination Sequence:
#
# PCOD9469396 Si02
#       7
#     8  16  16   8  16  16  16
#     4  11  21  29  44  77 110 135 162 200 255 310
#     4  10  23  38  54  75  98 129 173 217 260 306
#     4  10  18  33  55  75 100 137 173 207 250 303
#     4  11  21  31  46  73 106 139 166 198 251 308
#     4  11  21  33  51  76 103 134 170 208 250 302
#     4   8  14  26  49  76 103 136 169 202 239 292
#     4   9  17  29  47  76 108 138 169 198 242 297
#
# _framework density 19.635515999999999
#
# number of rings (size 3 to 8) (size 9 to 14) (size 15 to 20)
#    0.000    2.167    3.333    2.000    0.000    2.667 
#    0.000    0.833    0.000    1.000    0.000    7.000 
#    0.000    0.000    0.000    0.000    0.000    0.000 
#
# Total GULP energy -267359.867757 kJ/mol
# GULP energy per Si atom -5569.997245 kJ/mol
# Density = 1.959082 g / cm^3
# Si number density = 19.635516 Si / 1000 Ang^3
#
#
#
# Elastic Constant Matrix: (Units=GPa)
#
#
# Indices 1 2 3 4 5 6 
#
# 1 41.8956 8.7177 -12.2489 0.0000 0.0000 0.0000
# 2 8.7177 198.2172 66.4500 0.0000 0.0000 0.0000
# 3 -12.2489 66.4500 89.0016 0.0000 0.0000 0.0000
# 4 0.0000 0.0000 0.0000 12.0297 0.0000 0.0000
# 5 0.0000 0.0000 0.0000 0.0000 9.8148 0.0000
# 6 0.0000 0.0000 0.0000 0.0000 0.0000 15.3540
#
#
#
# Elastic Compliance Matrix: (Units=1/GPa)
#
#
# Indices 1 2 3 4 5 6 
#
# 1 0.026272 -0.003158 0.005974 0.000000 0.000000 0.000000
# 2 -0.003158 0.007109 -0.005742 0.000000 0.000000 0.000000
# 3 0.005974 -0.005742 0.016345 0.000000 0.000000 0.000000
# 4 0.000000 0.000000 0.000000 0.083128 0.000000 0.000000
# 5 0.000000 0.000000 0.000000 0.000000 0.101887 0.000000
# 6 0.000000 0.000000 0.000000 0.000000 0.000000 0.065130
#
#
# Mechanical properties :
#
#
# Convention : Reuss Voigt Hill
#
# Bulk Modulus (GPa) = 22.79299 50.55022 36.67161
# Shear Modulus (GPa) = 15.60803 25.18609 20.39706
#
# Velocity S-wave (km/s) = 2.82243 3.58534 3.22651
# Velocity P-wave (km/s) = 4.71749 6.55284 5.70940
#
# Compressibility (1/GPa) = 0.04387314
#
# Stress axis : x y z
#
# Youngs Moduli (GPa) = 38.06262 140.66928 61.18043
#
# Poissons Ratio (x) = 0.44424 -0.36547
# Poissons Ratio (y) = 0.12020 0.35131
# Poissons Ratio (z) = -0.22737 0.80775
#
# Static dielectric constant tensor:
#      x y z
#    x 1.783660 0.000000 0.000000 
#    y 0.000000 1.787140 0.000000 
#    z 0.000000 0.000000 1.631490 
# 
# From -- ./inp_files/60326.got.cif
#   From: 2010.05.17/outbox.cif.g08.bks.cpg/sg63_31_cif.got.tgz:60326.got - 2010.06.03 15:47:04.
