data_PCOD9469266
_publ_section_title
;
Structure prediction by ZEFSAII (Michael W. Deem and Ramdas Pophale) SiO2 
 PCOD9469266
Probable space group: C M C M
;
_chemical_formula_sum "Si O2"
_cell_formula_units_Z 72
_cell_length_a 15.476613
_cell_length_b 29.229710
_cell_length_c 8.620460
_cell_angle_alpha 90.000000
_cell_angle_beta 90.000000
_cell_angle_gamma 90.000000
_cell_volume 3899.697056
_symmetry_space_group_name_H-M "C M C M"
_symmetry_group_IT_number 63
_symmetry_cell_setting 'orthorhombic'
loop_
_space_group_symop_operation_xyz
x,y,z
-x,-y,1/2+z
x,-y,-z
-x,y,1/2-z
-x,-y,-z
x,y,1/2-z
-x,y,z
x,-y,1/2+z
1/2+x,1/2+y,z
1/2-x,1/2-y,1/2+z
1/2+x,1/2-y,-z
1/2-x,1/2+y,1/2-z
1/2-x,1/2-y,-z
1/2+x,1/2+y,1/2-z
1/2-x,1/2+y,z
1/2+x,1/2-y,1/2+z
loop_
_atom_site_type_symbol
_atom_site_label
_atom_site_fract_x
_atom_site_fract_y
_atom_site_fract_z
Si Si1 0.101068 0.293403 0.432392
Si Si2 0.759999 0.637468 0.066096
Si Si3 0.400453 0.307236 0.065225
Si Si4 0.500000 0.448134 0.935773
Si Si5 0.818108 0.051275 0.565380
O O1 0.119030 0.285409 0.250000
O O2 0.162579 0.332674 0.496439
O O3 0.114597 0.246034 0.524112
O O4 0.000000 0.305564 0.448306
O O5 0.767856 0.633878 0.250000
O O6 0.671864 0.663984 0.021940
O O7 0.752663 0.587186 0.991780
O O8 0.392143 0.314406 0.250000
O O9 0.500000 0.317959 0.019932
O O10 0.500000 0.447332 0.750000
O O11 0.500000 0.500000 0.000000
O O12 0.589866 0.429795 0.001435
O O13 0.822473 0.049102 0.750000
O O14 0.805800 0.000000 0.500000
#
# Coordination Sequence:
#
# PCOD9469266 Si02
#       5
#    16  16  16   8  16
#     4  10  21  39  61  84 112 147 189 236 287 340
#     4  12  24  37  57  84 115 151 192 235 282 338
#     4  10  21  37  57  83 117 153 190 232 281 336
#     4  10  18  32  52  76 106 144 184 222 270 326
#     4  11  22  38  57  80 112 148 189 233 281 333
#
# _framework density 18.462972000000001
#
# number of rings (size 3 to 8) (size 9 to 14) (size 15 to 20)
#    0.000    1.333    0.000    8.333    1.556    2.667 
#    0.000    0.000    0.000    0.667    0.000    0.000 
#    0.000    0.000    0.000    0.000    0.000    0.000 
#
# Total GULP energy -201277.490099 kJ/mol
# GULP energy per Si atom -5591.041392 kJ/mol
# Density = 1.842095 g / cm^3
# Si number density = 18.462972 Si / 1000 Ang^3
#
#
#
# Elastic Constant Matrix: (Units=GPa)
#
#
# Indices 1 2 3 4 5 6 
#
# 1 40.2041 38.5184 17.8817 0.0000 0.0000 0.0000
# 2 38.5184 77.7662 7.2787 0.0000 0.0000 0.0000
# 3 17.8817 7.2787 105.6030 0.0000 0.0000 0.0000
# 4 0.0000 0.0000 0.0000 30.8526 0.0000 0.0000
# 5 0.0000 0.0000 0.0000 0.0000 24.4756 0.0000
# 6 0.0000 0.0000 0.0000 0.0000 0.0000 33.4446
#
#
#
# Elastic Compliance Matrix: (Units=1/GPa)
#
#
# Indices 1 2 3 4 5 6 
#
# 1 0.052130 -0.025156 -0.007093 0.000000 0.000000 0.000000
# 2 -0.025156 0.025082 0.002531 0.000000 0.000000 0.000000
# 3 -0.007093 0.002531 0.010496 0.000000 0.000000 0.000000
# 4 0.000000 0.000000 0.000000 0.032412 0.000000 0.000000
# 5 0.000000 0.000000 0.000000 0.000000 0.040857 0.000000
# 6 0.000000 0.000000 0.000000 0.000000 0.000000 0.029900
#
#
# Mechanical properties :
#
#
# Convention : Reuss Voigt Hill
#
# Bulk Modulus (GPa) = 35.37230 38.99233 37.18232
# Shear Modulus (GPa) = 19.25011 28.41419 23.83215
#
# Velocity S-wave (km/s) = 3.23249 3.92724 3.59668
# Velocity P-wave (km/s) = 5.75605 6.45983 6.11806
#
# Compressibility (1/GPa) = 0.02827071
#
# Stress axis : x y z
#
# Youngs Moduli (GPa) = 19.18292 39.86852 95.27376
#
# Poissons Ratio (x) = 1.00295 0.67580
# Poissons Ratio (y) = 0.48258 -0.24113
# Poissons Ratio (z) = 0.13607 -0.10090
#
# Static dielectric constant tensor:
#      x y z
#    x 1.644550 0.000000 0.000000 
#    y 0.000000 1.622830 0.000000 
#    z 0.000000 0.000000 1.613060 
# 
# From -- ./inp_files/4586.got.cif
#   From: 2010.05.17/outbox.cif.g08.bks.cpg/sg63_3_cif.got.tgz:4586.got - 2010.06.03 15:47:04.
