data_PCOD9469282
_publ_section_title
;
Structure prediction by ZEFSAII (Michael W. Deem and Ramdas Pophale) SiO2 
 PCOD9469282
Probable space group: C M C M
;
_chemical_formula_sum "Si O2"
_cell_formula_units_Z 80
_cell_length_a 25.468759
_cell_length_b 21.083388
_cell_length_c 8.656690
_cell_angle_alpha 90.000000
_cell_angle_beta 90.000000
_cell_angle_gamma 90.000000
_cell_volume 4648.363160
_symmetry_space_group_name_H-M "C M C M"
_symmetry_group_IT_number 63
_symmetry_cell_setting 'orthorhombic'
loop_
_space_group_symop_operation_xyz
x,y,z
-x,-y,1/2+z
x,-y,-z
-x,y,1/2-z
-x,-y,-z
x,y,1/2-z
-x,y,z
x,-y,1/2+z
1/2+x,1/2+y,z
1/2-x,1/2-y,1/2+z
1/2+x,1/2-y,-z
1/2-x,1/2+y,1/2-z
1/2-x,1/2-y,-z
1/2+x,1/2+y,1/2-z
1/2-x,1/2+y,z
1/2+x,1/2-y,1/2+z
loop_
_atom_site_type_symbol
_atom_site_label
_atom_site_fract_x
_atom_site_fract_y
_atom_site_fract_z
Si Si1 0.113729 0.610818 0.563352
Si Si2 0.714814 0.692642 0.064506
Si Si3 0.500000 0.100699 0.928491
Si Si4 0.389224 0.253689 0.433935
Si Si5 0.777124 0.434397 0.565189
Si Si6 0.000000 0.755303 0.571151
O O1 0.112668 0.610746 0.750000
O O2 0.118661 0.683476 0.506112
O O3 0.164529 0.575074 0.502424
O O4 0.057223 0.583998 0.504943
O O5 0.713127 0.696885 0.250000
O O6 0.742233 0.626444 0.021357
O O7 0.750000 0.750000 0.000000
O O8 0.656943 0.702038 0.996653
O O9 0.500000 0.079473 0.750000
O O10 0.500000 0.177922 0.930253
O O11 0.386434 0.248445 0.250000
O O12 0.446765 0.275607 0.487583
O O13 0.755205 0.500000 0.500000
O O14 0.780403 0.436725 0.750000
O O15 0.000000 0.774521 0.750000
#
# Coordination Sequence:
#
# PCOD9469282 Si02
#       6
#    16  16   8  16  16   8
#     4  10  18  32  53  74 104 141 181 225 272 320
#     4  11  22  36  56  81 109 142 183 227 273 328
#     4   7  14  27  46  72  97 132 175 218 264 309
#     4  11  20  31  51  81 112 142 179 222 271 324
#     4  11  24  39  55  77 106 141 184 227 277 331
#     4   9  17  31  49  74 109 144 177 218 271 319
#
# _framework density 17.210360000000001
#
# number of rings (size 3 to 8) (size 9 to 14) (size 15 to 20)
#    0.000    1.800    2.000    5.100    0.000    2.400 
#    0.000    2.000    0.000    0.000    0.000    0.700 
#    0.000    0.000    0.000    0.000    0.000    0.000 
#
# Total GULP energy -223293.655438 kJ/mol
# GULP energy per Si atom -5582.341386 kJ/mol
# Density = 1.717119 g / cm^3
# Si number density = 17.210360 Si / 1000 Ang^3
#
#
#
# Elastic Constant Matrix: (Units=GPa)
#
#
# Indices 1 2 3 4 5 6 
#
# 1 127.7960 56.0673 36.6896 0.0000 0.0000 0.0000
# 2 56.0673 95.0999 36.6756 0.0000 0.0000 0.0000
# 3 36.6896 36.6756 68.6202 0.0000 0.0000 0.0000
# 4 0.0000 0.0000 0.0000 20.4811 0.0000 0.0000
# 5 0.0000 0.0000 0.0000 0.0000 29.8285 0.0000
# 6 0.0000 0.0000 0.0000 0.0000 0.0000 12.3681
#
#
#
# Elastic Compliance Matrix: (Units=1/GPa)
#
#
# Indices 1 2 3 4 5 6 
#
# 1 0.011041 -0.005332 -0.003054 0.000000 0.000000 0.000000
# 2 -0.005332 0.015820 -0.005605 0.000000 0.000000 0.000000
# 3 -0.003054 -0.005605 0.019201 0.000000 0.000000 0.000000
# 4 0.000000 0.000000 0.000000 0.048826 0.000000 0.000000
# 5 0.000000 0.000000 0.000000 0.000000 0.033525 0.000000
# 6 0.000000 0.000000 0.000000 0.000000 0.000000 0.080853
#
#
# Mechanical properties :
#
#
# Convention : Reuss Voigt Hill
#
# Bulk Modulus (GPa) = 55.30307 61.15344 58.22825
# Shear Modulus (GPa) = 20.55304 23.34111 21.94708
#
# Velocity S-wave (km/s) = 3.45951 3.68669 3.57490
# Velocity P-wave (km/s) = 6.93981 7.33023 7.13769
#
# Compressibility (1/GPa) = 0.01808218
#
# Stress axis : x y z
#
# Youngs Moduli (GPa) = 90.57360 63.21114 52.07999
#
# Poissons Ratio (x) = 0.33701 0.15903
# Poissons Ratio (y) = 0.48290 0.29189
# Poissons Ratio (z) = 0.27658 0.35428
#
# Static dielectric constant tensor:
#      x y z
#    x 1.611200 0.000000 0.000000 
#    y 0.000000 1.585530 0.000000 
#    z 0.000000 0.000000 1.581180 
# 
# From -- ./inp_files/10085.got.cif
#   From: 2010.05.17/outbox.cif.g08.bks.cpg/sg63_6_cif.got.tgz:10085.got - 2010.06.03 15:47:04.
