data_PCOD9469883
_publ_section_title
;
Structure prediction by ZEFSAII (Michael W. Deem and Ramdas Pophale) SiO2 
 PCOD9469883
Probable space group: C M C M
;
_chemical_formula_sum "Si O2"
_cell_formula_units_Z 112
_cell_length_a 26.582765
_cell_length_b 11.750709
_cell_length_c 19.170183
_cell_angle_alpha 90.000000
_cell_angle_beta 90.000000
_cell_angle_gamma 90.000000
_cell_volume 5988.119823
_symmetry_space_group_name_H-M "C M C M"
_symmetry_group_IT_number 63
_symmetry_cell_setting 'orthorhombic'
loop_
_space_group_symop_operation_xyz
x,y,z
-x,-y,1/2+z
x,-y,-z
-x,y,1/2-z
-x,-y,-z
x,y,1/2-z
-x,y,z
x,-y,1/2+z
1/2+x,1/2+y,z
1/2-x,1/2-y,1/2+z
1/2+x,1/2-y,-z
1/2-x,1/2+y,1/2-z
1/2-x,1/2-y,-z
1/2+x,1/2+y,1/2-z
1/2-x,1/2+y,z
1/2+x,1/2-y,1/2+z
loop_
_atom_site_type_symbol
_atom_site_label
_atom_site_fract_x
_atom_site_fract_y
_atom_site_fract_z
Si Si1 0.162619 0.950251 0.329017
Si Si2 0.556477 0.158627 0.334525
Si Si3 0.693345 0.622897 0.971045
Si Si4 0.753669 0.147602 0.327545
Si Si5 0.445308 0.422340 0.334044
Si Si6 0.347704 0.992811 0.834024
Si Si7 0.301491 0.178401 0.566417
O O1 0.161553 0.902346 0.250000
O O2 0.177734 0.866937 0.390677
O O3 0.105979 0.990181 0.347514
O O4 0.204293 0.048223 0.329990
O O5 0.556917 0.160548 0.250000
O O6 0.500000 0.122975 0.356353
O O7 0.563222 0.290720 0.356152
O O8 0.601628 0.074699 0.353732
O O9 0.754536 0.621205 0.974088
O O10 0.676018 0.500000 0.000000
O O11 0.673611 0.730842 0.014101
O O12 0.752468 0.196504 0.250000
O O13 0.772512 0.241825 0.379153
O O14 0.700249 0.090268 0.341586
O O15 0.449233 0.421338 0.250000
O O16 0.500000 0.460859 0.361103
O O17 0.349578 0.024504 0.750000
O O18 0.335988 0.094727 0.888189
#
# Coordination Sequence:
#
# PCOD9469883 Si02
#       7
#    16  16  16  16  16  16  16
#     4  10  19  33  54  78 105 131 164 218 267 303
#     4   8  15  28  47  74 107 139 173 217 261 301
#     4  11  22  37  51  72 106 141 178 209 257 311
#     4  10  20  32  50  80 111 135 170 219 263 304
#     4   8  15  29  52  81 106 132 172 218 264 304
#     4  10  19  30  49  78 109 139 175 216 260 304
#     4  11  21  34  51  70 106 147 177 208 248 321
#
# _framework density 18.703700999999999
#
# number of rings (size 3 to 8) (size 9 to 14) (size 15 to 20)
#    0.000    2.286    2.857    1.286    2.000    0.571 
#    0.000    0.000    0.000    2.143    0.000    6.000 
#    0.000    0.000    0.000    0.000    0.000    0.000 
#
# Total GULP energy -311968.751029 kJ/mol
# GULP energy per Si atom -5570.870554 kJ/mol
# Density = 1.866113 g / cm^3
# Si number density = 18.703701 Si / 1000 Ang^3
#
#
#
# Elastic Constant Matrix: (Units=GPa)
#
#
# Indices 1 2 3 4 5 6 
#
# 1 127.1157 21.9224 3.0353 0.0000 0.0000 0.0000
# 2 21.9224 36.2652 22.8162 0.0000 0.0000 0.0000
# 3 3.0353 22.8162 47.3361 0.0000 0.0000 0.0000
# 4 0.0000 0.0000 0.0000 5.0744 0.0000 0.0000
# 5 0.0000 0.0000 0.0000 0.0000 4.7013 0.0000
# 6 0.0000 0.0000 0.0000 0.0000 0.0000 10.3336
#
#
#
# Elastic Compliance Matrix: (Units=1/GPa)
#
#
# Indices 1 2 3 4 5 6 
#
# 1 0.009062 -0.007337 0.002956 0.000000 0.000000 0.000000
# 2 -0.007337 0.045517 -0.021469 0.000000 0.000000 0.000000
# 3 0.002956 -0.021469 0.031284 0.000000 0.000000 0.000000
# 4 0.000000 0.000000 0.000000 0.197069 0.000000 0.000000
# 5 0.000000 0.000000 0.000000 0.000000 0.212705 0.000000
# 6 0.000000 0.000000 0.000000 0.000000 0.000000 0.096772
#
#
# Mechanical properties :
#
#
# Convention : Reuss Voigt Hill
#
# Bulk Modulus (GPa) = 29.27265 34.02941 31.65103
# Shear Modulus (GPa) = 7.62780 14.88474 11.25627
#
# Velocity S-wave (km/s) = 2.02165 2.82409 2.45586
# Velocity P-wave (km/s) = 4.59719 5.37284 5.00008
#
# Compressibility (1/GPa) = 0.03416158
#
# Stress axis : x y z
#
# Youngs Moduli (GPa) = 110.35506 21.96968 31.96505
#
# Poissons Ratio (x) = 0.16120 -0.09447
# Poissons Ratio (y) = 0.80971 0.68626
# Poissons Ratio (z) = -0.32616 0.47167
#
# Static dielectric constant tensor:
#      x y z
#    x 1.697880 0.000000 0.000000 
#    y 0.000000 1.681840 0.000000 
#    z 0.000000 0.000000 1.701280 
# 
# From -- ./inp_files/58329.got.cif
#   From: 2010.05.17/outbox.cif.g08.bks.cpg/sg63_30_cif.got.tgz:58329.got - 2010.06.03 15:47:04.
