data_PCOD9469239
_publ_section_title
;
Structure prediction by ZEFSAII (Michael W. Deem and Ramdas Pophale) SiO2 
 PCOD9469239
Probable space group: C M C M
;
_chemical_formula_sum "Si O2"
_cell_formula_units_Z 60
_cell_length_a 10.329188
_cell_length_b 15.756430
_cell_length_c 14.241855
_cell_angle_alpha 90.000000
_cell_angle_beta 90.000000
_cell_angle_gamma 90.000000
_cell_volume 2317.877961
_symmetry_space_group_name_H-M "C M C M"
_symmetry_group_IT_number 63
_symmetry_cell_setting 'orthorhombic'
loop_
_space_group_symop_operation_xyz
x,y,z
-x,-y,1/2+z
x,-y,-z
-x,y,1/2-z
-x,-y,-z
x,y,1/2-z
-x,y,z
x,-y,1/2+z
1/2+x,1/2+y,z
1/2-x,1/2-y,1/2+z
1/2+x,1/2-y,-z
1/2-x,1/2+y,1/2-z
1/2-x,1/2-y,-z
1/2+x,1/2+y,1/2-z
1/2-x,1/2+y,z
1/2+x,1/2-y,1/2+z
loop_
_atom_site_type_symbol
_atom_site_label
_atom_site_fract_x
_atom_site_fract_y
_atom_site_fract_z
Si Si1 0.356734 0.269509 0.250000
Si Si2 0.782403 0.049027 0.750000
Si Si3 0.222499 0.329438 0.930113
Si Si4 0.500000 0.028710 0.750000
Si Si5 0.500000 0.447314 0.403685
Si Si6 0.500000 0.324380 0.557072
Si Si7 0.500000 0.877977 0.449607
O O1 0.500000 0.309089 0.250000
O O2 0.255726 0.348036 0.250000
O O3 0.342183 0.210173 0.339514
O O4 0.649760 0.995216 0.750000
O O5 0.873072 0.038239 0.659023
O O6 0.365847 0.359278 0.902819
O O7 0.250000 0.250000 0.000000
O O8 0.127519 0.391728 0.986311
O O9 0.500000 0.076063 0.850795
O O10 0.500000 0.500000 0.500000
O O11 0.500000 0.352371 0.448038
O O12 0.500000 0.223372 0.569984
#
# Coordination Sequence:
#
# PCOD9469239 Si02
#       7
#     8   8  16   4   8   8   8
#     4  12  20  36  59  86 128 172 198 235 296 388
#     4  11  22  39  65  91 116 154 204 260 308 363
#     4  10  20  30  52  82 120 159 194 230 294 361
#     4  12  22  36  64 100 126 150 200 246 312 392
#     4  11  23  42  65  87 115 162 221 264 306 351
#     4  10  19  33  51  82 120 152 186 245 291 337
#     4  10  18  32  51  88 123 155 184 226 296 379
#
# _framework density 25.885745
#
# number of rings (size 3 to 8) (size 9 to 14) (size 15 to 20)
#    0.000    1.333    2.667    8.000    0.000    0.533 
#    0.000    4.667    0.000    0.000    3.467    0.000 
#    0.000    0.000    0.000    0.000    0.000    0.000 
#
# Total GULP energy -167819.972888 kJ/mol
# GULP energy per Si atom -5593.999096 kJ/mol
# Density = 2.582683 g / cm^3
# Si number density = 25.885745 Si / 1000 Ang^3
#
#
#
# Elastic Constant Matrix: (Units=GPa)
#
#
# Indices 1 2 3 4 5 6 
#
# 1 200.4779 -0.6898 20.0063 0.0000 0.0000 0.0000
# 2 -0.6898 66.8610 25.0100 0.0000 0.0000 0.0000
# 3 20.0063 25.0100 149.8974 0.0000 0.0000 0.0000
# 4 0.0000 0.0000 0.0000 17.5910 0.0000 0.0000
# 5 0.0000 0.0000 0.0000 0.0000 22.8909 0.0000
# 6 0.0000 0.0000 0.0000 0.0000 0.0000 -4.7345
#
#
#
# Elastic Compliance Matrix: (Units=1/GPa)
#
#
# Indices 1 2 3 4 5 6 
#
# 1 0.005062 0.000325 -0.000730 0.000000 0.000000 0.000000
# 2 0.000325 0.015973 -0.002708 0.000000 0.000000 0.000000
# 3 -0.000730 -0.002708 0.007221 0.000000 0.000000 0.000000
# 4 0.000000 0.000000 0.000000 0.056847 0.000000 0.000000
# 5 0.000000 0.000000 0.000000 0.000000 0.043686 0.000000
# 6 0.000000 0.000000 0.000000 0.000000 0.000000 -0.211214
#
#
# Mechanical properties :
#
#
# Convention : Reuss Voigt Hill
#
# Bulk Modulus (GPa) = 45.39410 56.20992 50.80201
# Shear Modulus (GPa) = -72.61487 32.01012 -20.30238
#
# Velocity S-wave (km/s) = -5.30217 3.52034 -2.80359
# Velocity P-wave (km/s) = 4.46201 6.18752 3.03116
#
# Compressibility (1/GPa) = 0.02202930
#
# Stress axis : x y z
#
# Youngs Moduli (GPa) = 197.54890 62.60611 138.49378
#
# Poissons Ratio (x) = -0.02036 0.10108
# Poissons Ratio (y) = -0.06425 0.37510
# Poissons Ratio (z) = 0.14419 0.16957
#
# Static dielectric constant tensor:
#      x y z
#    x 2.162580 0.000000 0.000000 
#    y 0.000000 2.134890 0.000000 
#    z 0.000000 0.000000 1.964150 
# 
# From -- ./inp_files/17450.got.cif
#   From: 2010.05.17/outbox.cif.g08.bks.cpg/sg63_9_cif.got.tgz:17450.got - 2010.06.03 15:47:04.
