data_PCOD9469689
_publ_section_title
;
Structure prediction by ZEFSAII (Michael W. Deem and Ramdas Pophale) SiO2 
 PCOD9469689
Probable space group: C M C M
;
_chemical_formula_sum "Si O2"
_cell_formula_units_Z 96
_cell_length_a 9.297620
_cell_length_b 31.015657
_cell_length_c 20.085021
_cell_angle_alpha 90.000000
_cell_angle_beta 90.000000
_cell_angle_gamma 90.000000
_cell_volume 5791.953515
_symmetry_space_group_name_H-M "C M C M"
_symmetry_group_IT_number 63
_symmetry_cell_setting 'orthorhombic'
loop_
_space_group_symop_operation_xyz
x,y,z
-x,-y,1/2+z
x,-y,-z
-x,y,1/2-z
-x,-y,-z
x,y,1/2-z
-x,y,z
x,-y,1/2+z
1/2+x,1/2+y,z
1/2-x,1/2-y,1/2+z
1/2+x,1/2-y,-z
1/2-x,1/2+y,1/2-z
1/2-x,1/2-y,-z
1/2+x,1/2+y,1/2-z
1/2-x,1/2+y,z
1/2+x,1/2-y,1/2+z
loop_
_atom_site_type_symbol
_atom_site_label
_atom_site_fract_x
_atom_site_fract_y
_atom_site_fract_z
Si Si1 0.331231 0.886050 0.949163
Si Si2 0.834067 0.784782 0.089923
Si Si3 0.666053 0.300107 0.929394
Si Si4 0.168445 0.629375 0.608280
Si Si5 0.330583 0.450339 0.328078
Si Si6 0.171401 0.025051 0.069008
O O1 0.500000 0.884755 0.932842
O O2 0.248486 0.844964 0.919102
O O3 0.258784 0.930797 0.928487
O O4 0.318334 0.881823 0.029573
O O5 0.749685 0.740361 0.101766
O O6 0.752567 0.826000 0.119593
O O7 0.000000 0.782489 0.111135
O O8 0.833863 0.791996 0.009558
O O9 0.500000 0.302056 0.908234
O O10 0.238804 0.590398 0.648491
O O11 0.000000 0.634323 0.623277
O O12 0.312026 0.458296 0.250000
O O13 0.500000 0.441159 0.340995
O O14 0.293235 0.492209 0.371608
O O15 0.000000 0.034307 0.070336
O O16 0.201782 0.000000 0.000000
#
# Coordination Sequence:
#
# PCOD9469689 Si02
#       6
#    16  16  16  16  16  16
#     4  10  19  29  45  70  99 129 164 204 248 296
#     4   9  16  26  42  64  94 129 162 196 238 287
#     4   9  16  26  41  64  96 129 161 198 241 288
#     4  10  19  30  46  69  97 129 164 201 244 295
#     4  10  21  36  52  71  97 129 166 208 253 301
#     4  10  19  32  51  72  95 127 167 208 252 302
#
# _framework density 16.574719000000002
#
# number of rings (size 3 to 8) (size 9 to 14) (size 15 to 20)
#    0.000    2.333    1.667    2.000    0.000    6.667 
#    0.000    0.000    0.000    0.000    0.000    1.167 
#    0.000    6.667    0.000    0.000    0.000    0.000 
#
# Total GULP energy -267738.489927 kJ/mol
# GULP energy per Si atom -5577.885207 kJ/mol
# Density = 1.653699 g / cm^3
# Si number density = 16.574719 Si / 1000 Ang^3
#
#
#
# Elastic Constant Matrix: (Units=GPa)
#
#
# Indices 1 2 3 4 5 6 
#
# 1 143.3298 120.1622 42.7297 0.0000 0.0000 0.0000
# 2 120.1622 186.6228 40.5751 0.0000 0.0000 0.0000
# 3 42.7297 40.5751 31.9399 0.0000 0.0000 0.0000
# 4 0.0000 0.0000 0.0000 10.7377 0.0000 0.0000
# 5 0.0000 0.0000 0.0000 0.0000 12.1736 0.0000
# 6 0.0000 0.0000 0.0000 0.0000 0.0000 39.0880
#
#
#
# Elastic Compliance Matrix: (Units=1/GPa)
#
#
# Indices 1 2 3 4 5 6 
#
# 1 0.018507 -0.009026 -0.013292 0.000000 0.000000 0.000000
# 2 -0.009026 0.011805 -0.002922 0.000000 0.000000 0.000000
# 3 -0.013292 -0.002922 0.052803 0.000000 0.000000 0.000000
# 4 0.000000 0.000000 0.000000 0.093130 0.000000 0.000000
# 5 0.000000 0.000000 0.000000 0.000000 0.082145 0.000000
# 6 0.000000 0.000000 0.000000 0.000000 0.000000 0.025583
#
#
# Mechanical properties :
#
#
# Convention : Reuss Voigt Hill
#
# Bulk Modulus (GPa) = 30.64199 85.42517 58.03358
# Shear Modulus (GPa) = 14.47883 22.96157 18.72020
#
# Velocity S-wave (km/s) = 2.95879 3.72605 3.36436
# Velocity P-wave (km/s) = 5.49545 8.37631 7.08387
#
# Compressibility (1/GPa) = 0.03263495
#
# Stress axis : x y z
#
# Youngs Moduli (GPa) = 54.03425 84.70732 18.93831
#
# Poissons Ratio (x) = 0.76458 0.25173
# Poissons Ratio (y) = 0.48772 0.05533
# Poissons Ratio (z) = 0.71824 0.24749
#
# Static dielectric constant tensor:
#      x y z
#    x 1.556240 0.000000 0.000000 
#    y 0.000000 1.534350 0.000000 
#    z 0.000000 0.000000 1.533800 
# 
# From -- ./inp_files/60205.got.cif
#   From: 2010.05.17/outbox.cif.g08.bks.cpg/sg63_31_cif.got.tgz:60205.got - 2010.06.03 15:47:04.
