data_PCOD9469304
_publ_section_title
;
Structure prediction by ZEFSAII (Michael W. Deem and Ramdas Pophale) SiO2 
 PCOD9469304
Probable space group: C M C M
;
_chemical_formula_sum "Si O2"
_cell_formula_units_Z 96
_cell_length_a 22.031090
_cell_length_b 9.240429
_cell_length_c 24.144005
_cell_angle_alpha 90.000000
_cell_angle_beta 90.000000
_cell_angle_gamma 90.000000
_cell_volume 4915.157416
_symmetry_space_group_name_H-M "C M C M"
_symmetry_group_IT_number 63
_symmetry_cell_setting 'orthorhombic'
loop_
_space_group_symop_operation_xyz
x,y,z
-x,-y,1/2+z
x,-y,-z
-x,y,1/2-z
-x,-y,-z
x,y,1/2-z
-x,y,z
x,-y,1/2+z
1/2+x,1/2+y,z
1/2-x,1/2-y,1/2+z
1/2+x,1/2-y,-z
1/2-x,1/2+y,1/2-z
1/2-x,1/2-y,-z
1/2+x,1/2+y,1/2-z
1/2-x,1/2+y,z
1/2+x,1/2-y,1/2+z
loop_
_atom_site_type_symbol
_atom_site_label
_atom_site_fract_x
_atom_site_fract_y
_atom_site_fract_z
Si Si1 0.570212 0.915075 0.441775
Si Si2 0.137666 0.629927 0.363995
Si Si3 0.282428 0.108648 0.811629
Si Si4 0.863132 0.068149 0.813965
Si Si5 0.267157 0.122816 0.040239
Si Si6 0.154467 0.170917 0.395702
O O1 0.500000 0.872669 0.437171
O O2 0.612634 0.773940 0.433429
O O3 0.577115 0.000000 0.500000
O O4 0.588446 0.025103 0.392192
O O5 0.178596 0.536668 0.321398
O O6 0.114818 0.776773 0.336493
O O7 0.183843 0.664257 0.414223
O O8 0.293942 0.167454 0.750000
O O9 0.210921 0.077606 0.816028
O O10 0.305686 0.219699 0.857799
O O11 0.880295 0.044959 0.750000
O O12 0.880385 0.937347 0.854758
O O13 0.204031 0.080273 0.069699
O O14 0.250000 0.250000 0.000000
O O15 0.291171 0.000000 0.000000
#
# Coordination Sequence:
#
# PCOD9469304 Si02
#       6
#    16  16  16  16  16  16
#     4  10  23  44  64  80 105 153 208 245 281 338
#     4  11  20  35  55  85 118 154 189 234 283 347
#     4  10  18  32  53  81 120 158 190 222 274 351
#     4  11  20  33  55  88 124 152 185 230 289 353
#     4  12  21  31  49  80 119 147 179 227 293 345
#     4  11  21  35  56  85 118 150 190 237 292 344
#
# _framework density 19.531420000000001
#
# number of rings (size 3 to 8) (size 9 to 14) (size 15 to 20)
#    0.000    1.167    3.333    5.500    0.000    2.667 
#    0.000    0.833    0.000   21.500    0.000    0.000 
#    0.000    0.000    0.000    0.000    0.000    0.000 
#
# Total GULP energy -268148.893063 kJ/mol
# GULP energy per Si atom -5586.435272 kJ/mol
# Density = 1.948697 g / cm^3
# Si number density = 19.531420 Si / 1000 Ang^3
#
#
#
# Elastic Constant Matrix: (Units=GPa)
#
#
# Indices 1 2 3 4 5 6 
#
# 1 51.0775 -9.6952 11.2181 0.0000 0.0000 0.0000
# 2 -9.6952 55.9236 1.2538 0.0000 0.0000 0.0000
# 3 11.2181 1.2538 77.3474 0.0000 0.0000 0.0000
# 4 0.0000 0.0000 0.0000 29.1914 0.0000 0.0000
# 5 0.0000 0.0000 0.0000 0.0000 15.7979 0.0000
# 6 0.0000 0.0000 0.0000 0.0000 0.0000 12.8759
#
#
#
# Elastic Compliance Matrix: (Units=1/GPa)
#
#
# Indices 1 2 3 4 5 6 
#
# 1 0.020962 0.003704 -0.003100 0.000000 0.000000 0.000000
# 2 0.003704 0.018542 -0.000838 0.000000 0.000000 0.000000
# 3 -0.003100 -0.000838 0.013392 0.000000 0.000000 0.000000
# 4 0.000000 0.000000 0.000000 0.034257 0.000000 0.000000
# 5 0.000000 0.000000 0.000000 0.000000 0.063300 0.000000
# 6 0.000000 0.000000 0.000000 0.000000 0.000000 0.077664
#
#
# Mechanical properties :
#
#
# Convention : Reuss Voigt Hill
#
# Bulk Modulus (GPa) = 19.07398 21.10022 20.08710
# Shear Modulus (GPa) = 20.32012 23.67782 21.99897
#
# Velocity S-wave (km/s) = 3.22899 3.48558 3.35974
# Velocity P-wave (km/s) = 4.86712 5.19862 5.03560
#
# Compressibility (1/GPa) = 0.05242745
#
# Stress axis : x y z
#
# Youngs Moduli (GPa) = 47.70538 53.93049 74.67194
#
# Poissons Ratio (x) = -0.19974 0.23150
# Poissons Ratio (y) = -0.17668 0.06255
# Poissons Ratio (z) = 0.14790 0.04518
#
# Static dielectric constant tensor:
#      x y z
#    x 1.679790 0.000000 0.000000 
#    y 0.000000 1.698270 0.000000 
#    z 0.000000 0.000000 1.711930 
# 
# From -- ./inp_files/64934.got.cif
#   From: 2010.05.17/outbox.cif.g08.bks.cpg/sg63_33_cif.got.tgz:64934.got - 2010.06.03 15:47:04.
