data_PCOD9469677
_publ_section_title
;
Structure prediction by ZEFSAII (Michael W. Deem and Ramdas Pophale) SiO2 
 PCOD9469677
Probable space group: C M C M
;
_chemical_formula_sum "Si O2"
_cell_formula_units_Z 80
_cell_length_a 7.288659
_cell_length_b 25.925154
_cell_length_c 18.640687
_cell_angle_alpha 90.000000
_cell_angle_beta 90.000000
_cell_angle_gamma 90.000000
_cell_volume 3522.336890
_symmetry_space_group_name_H-M "C M C M"
_symmetry_group_IT_number 63
_symmetry_cell_setting 'orthorhombic'
loop_
_space_group_symop_operation_xyz
x,y,z
-x,-y,1/2+z
x,-y,-z
-x,y,1/2-z
-x,-y,-z
x,y,1/2-z
-x,y,z
x,-y,1/2+z
1/2+x,1/2+y,z
1/2-x,1/2-y,1/2+z
1/2+x,1/2-y,-z
1/2-x,1/2+y,1/2-z
1/2-x,1/2-y,-z
1/2+x,1/2+y,1/2-z
1/2-x,1/2+y,z
1/2+x,1/2-y,1/2+z
loop_
_atom_site_type_symbol
_atom_site_label
_atom_site_fract_x
_atom_site_fract_y
_atom_site_fract_z
Si Si1 0.721674 0.830562 0.667395
Si Si2 0.223089 0.785731 0.167202
Si Si3 0.290428 0.423380 0.562208
Si Si4 0.276468 0.490853 0.330080
Si Si5 0.776328 0.888475 0.092047
O O1 0.777171 0.840315 0.750000
O O2 0.500000 0.832079 0.665674
O O3 0.779593 0.772372 0.647522
O O4 0.790155 0.873837 0.613806
O O5 0.276518 0.795087 0.250000
O O6 0.285569 0.832085 0.116792
O O7 0.000000 0.785677 0.166334
O O8 0.500000 0.439100 0.546393
O O9 0.210066 0.470066 0.608632
O O10 0.210810 0.406961 0.485883
O O11 0.215550 0.504851 0.250000
O O12 0.500000 0.493767 0.329721
O O13 0.227600 0.432628 0.350977
O O14 0.000000 0.886249 0.089687
#
# Coordination Sequence:
#
# PCOD9469677 Si02
#       5
#    16  16  16  16  16
#     4   9  18  32  48  65  87 118 155 189 218 256
#     4   8  14  26  44  64  86 116 156 193 218 250
#     4  10  19  29  44  70  99 119 140 179 229 274
#     4   9  16  26  42  64  90 120 152 184 219 262
#     4   9  16  26  42  65  92 119 147 184 228 265
#
# _framework density 22.712194
#
# number of rings (size 3 to 8) (size 9 to 14) (size 15 to 20)
#    0.000    3.000    0.000    3.000    0.000    6.800 
#    0.000    0.000    0.000    2.400    0.000    0.000 
#    0.000    4.800    0.000    0.000    0.000    0.000 
#
# Total GULP energy -223468.878977 kJ/mol
# GULP energy per Si atom -5586.721974 kJ/mol
# Density = 2.266050 g / cm^3
# Si number density = 22.712194 Si / 1000 Ang^3
#
#
#
# Elastic Constant Matrix: (Units=GPa)
#
#
# Indices 1 2 3 4 5 6 
#
# 1 95.8507 -7.7755 -5.1457 0.0000 0.0000 0.0000
# 2 -7.7755 84.0859 14.6405 0.0000 0.0000 0.0000
# 3 -5.1457 14.6405 51.4527 0.0000 0.0000 0.0000
# 4 0.0000 0.0000 0.0000 136.0432 0.0000 0.0000
# 5 0.0000 0.0000 0.0000 0.0000 -4.4175 0.0000
# 6 0.0000 0.0000 0.0000 0.0000 0.0000 4.3538
#
#
#
# Elastic Compliance Matrix: (Units=1/GPa)
#
#
# Indices 1 2 3 4 5 6 
#
# 1 0.010544 0.000833 0.000818 0.000000 0.000000 0.000000
# 2 0.000833 0.012578 -0.003496 0.000000 0.000000 0.000000
# 3 0.000818 -0.003496 0.020512 0.000000 0.000000 0.000000
# 4 0.000000 0.000000 0.000000 0.007351 0.000000 0.000000
# 5 0.000000 0.000000 0.000000 0.000000 -0.226372 0.000000
# 6 0.000000 0.000000 0.000000 0.000000 0.000000 0.229684
#
#
# Mechanical properties :
#
#
# Convention : Reuss Voigt Hill
#
# Bulk Modulus (GPa) = 25.03542 26.09197 25.56370
# Shear Modulus (GPa) = 70.12328 42.50723 56.31525
#
# Velocity S-wave (km/s) = 5.56253 4.33085 4.98488
# Velocity P-wave (km/s) = 7.23205 6.04329 6.66423
#
# Compressibility (1/GPa) = 0.03994340
#
# Stress axis : x y z
#
# Youngs Moduli (GPa) = 94.83766 79.50224 48.75249
#
# Poissons Ratio (x) = -0.06620 -0.03986
# Poissons Ratio (y) = -0.07897 0.17043
# Poissons Ratio (z) = -0.07754 0.27792
#
# Static dielectric constant tensor:
#      x y z
#    x 1.909210 0.000000 0.000000 
#    y 0.000000 1.796690 0.000000 
#    z 0.000000 0.000000 1.793950 
# 
# From -- ./inp_files/29710.got.cif
#   From: 2010.05.17/outbox.cif.g08.bks.cpg/sg63_15_cif.got.tgz:29710.got - 2010.06.03 15:47:04.
