data_PCOD9469610
_publ_section_title
;
Structure prediction by ZEFSAII (Michael W. Deem and Ramdas Pophale) SiO2 
 PCOD9469610
Probable space group: C M C M
;
_chemical_formula_sum "Si O2"
_cell_formula_units_Z 80
_cell_length_a 25.497022
_cell_length_b 14.013366
_cell_length_c 14.110835
_cell_angle_alpha 90.000000
_cell_angle_beta 90.000000
_cell_angle_gamma 90.000000
_cell_volume 5041.788663
_symmetry_space_group_name_H-M "C M C M"
_symmetry_group_IT_number 63
_symmetry_cell_setting 'orthorhombic'
loop_
_space_group_symop_operation_xyz
x,y,z
-x,-y,1/2+z
x,-y,-z
-x,y,1/2-z
-x,-y,-z
x,y,1/2-z
-x,y,z
x,-y,1/2+z
1/2+x,1/2+y,z
1/2-x,1/2-y,1/2+z
1/2+x,1/2-y,-z
1/2-x,1/2+y,1/2-z
1/2-x,1/2-y,-z
1/2+x,1/2+y,1/2-z
1/2-x,1/2+y,z
1/2+x,1/2-y,1/2+z
loop_
_atom_site_type_symbol
_atom_site_label
_atom_site_fract_x
_atom_site_fract_y
_atom_site_fract_z
Si Si1 0.577777 0.016281 0.357507
Si Si2 0.751103 0.341213 0.862812
Si Si3 0.056886 0.665067 0.979766
Si Si4 0.197459 0.462166 0.357925
Si Si5 0.325749 0.222680 0.981687
O O1 0.562029 0.031601 0.250000
O O2 0.558420 0.097752 0.427413
O O3 0.560660 0.912518 0.394967
O O4 0.640933 0.013985 0.363251
O O5 0.749294 0.322711 0.750000
O O6 0.761082 0.454337 0.875594
O O7 0.700036 0.305806 0.919156
O O8 0.798867 0.284723 0.915021
O O9 0.111200 0.723182 0.981115
O O10 0.000000 0.714140 0.974884
O O11 0.203666 0.426183 0.250000
O O12 0.193582 0.375003 0.429771
#
# Coordination Sequence:
#
# PCOD9469610 Si02
#       5
#    16  16  16  16  16
#     4   9  16  27  41  59  86 119 152 181 209 250
#     4  10  19  30  46  64  85 118 154 187 225 267
#     4  10  19  28  40  61  88 120 153 179 213 263
#     4   9  16  28  46  65  89 118 147 181 222 265
#     4  10  19  31  45  64  92 120 147 186 227 261
#
# _framework density 15.867383999999999
#
# number of rings (size 3 to 8) (size 9 to 14) (size 15 to 20)
#    0.000    2.400    2.000    2.400    0.000    2.400 
#    0.000    0.000    0.000    0.000    0.000    0.000 
#    0.000   12.800    0.000   15.200    0.000    2.600 
#
# Total GULP energy -222890.112563 kJ/mol
# GULP energy per Si atom -5572.252814 kJ/mol
# Density = 1.583127 g / cm^3
# Si number density = 15.867384 Si / 1000 Ang^3
#
#
#
# Elastic Constant Matrix: (Units=GPa)
#
#
# Indices 1 2 3 4 5 6 
#
# 1 112.5132 20.3859 8.8871 0.0000 0.0000 0.0000
# 2 20.3859 19.8902 6.8864 0.0000 0.0000 0.0000
# 3 8.8871 6.8864 78.2328 0.0000 0.0000 0.0000
# 4 0.0000 0.0000 0.0000 15.4613 0.0000 0.0000
# 5 0.0000 0.0000 0.0000 0.0000 7.0812 0.0000
# 6 0.0000 0.0000 0.0000 0.0000 0.0000 7.8145
#
#
#
# Elastic Compliance Matrix: (Units=1/GPa)
#
#
# Indices 1 2 3 4 5 6 
#
# 1 0.010920 -0.011101 -0.000263 0.000000 0.000000 0.000000
# 2 -0.011101 0.063142 -0.004297 0.000000 0.000000 0.000000
# 3 -0.000263 -0.004297 0.013191 0.000000 0.000000 0.000000
# 4 0.000000 0.000000 0.000000 0.064678 0.000000 0.000000
# 5 0.000000 0.000000 0.000000 0.000000 0.141218 0.000000
# 6 0.000000 0.000000 0.000000 0.000000 0.000000 0.127968
#
#
# Mechanical properties :
#
#
# Convention : Reuss Voigt Hill
#
# Bulk Modulus (GPa) = 17.87968 31.43946 24.65957
# Shear Modulus (GPa) = 10.61388 17.70318 14.15853
#
# Velocity S-wave (km/s) = 2.58914 3.34383 2.99039
# Velocity P-wave (km/s) = 4.49787 5.89620 5.24385
#
# Compressibility (1/GPa) = 0.05592941
#
# Stress axis : x y z
#
# Youngs Moduli (GPa) = 91.57499 15.83743 75.81205
#
# Poissons Ratio (x) = 0.17581 0.01996
# Poissons Ratio (y) = 1.01658 0.32576
# Poissons Ratio (z) = 0.02411 0.06805
#
# Static dielectric constant tensor:
#      x y z
#    x 1.591090 0.000000 0.000000 
#    y 0.000000 1.516400 0.000000 
#    z 0.000000 0.000000 1.570770 
# 
# From -- ./inp_files/36669.got.cif
#   From: 2010.05.17/outbox.cif.g08.bks.cpg/sg63_19_cif.got.tgz:36669.got - 2010.06.03 15:47:04.
