data_PCOD9469578
_publ_section_title
;
Structure prediction by ZEFSAII (Michael W. Deem and Ramdas Pophale) SiO2 
 PCOD9469578
Probable space group: C M C M
;
_chemical_formula_sum "Si O2"
_cell_formula_units_Z 76
_cell_length_a 11.190073
_cell_length_b 13.264570
_cell_length_c 28.016603
_cell_angle_alpha 90.000000
_cell_angle_beta 90.000000
_cell_angle_gamma 90.000000
_cell_volume 4158.546593
_symmetry_space_group_name_H-M "C M C M"
_symmetry_group_IT_number 63
_symmetry_cell_setting 'orthorhombic'
loop_
_space_group_symop_operation_xyz
x,y,z
-x,-y,1/2+z
x,-y,-z
-x,y,1/2-z
-x,-y,-z
x,y,1/2-z
-x,y,z
x,-y,1/2+z
1/2+x,1/2+y,z
1/2-x,1/2-y,1/2+z
1/2+x,1/2-y,-z
1/2-x,1/2+y,1/2-z
1/2-x,1/2-y,-z
1/2+x,1/2+y,1/2-z
1/2-x,1/2+y,z
1/2+x,1/2-y,1/2+z
loop_
_atom_site_type_symbol
_atom_site_label
_atom_site_fract_x
_atom_site_fract_y
_atom_site_fract_z
Si Si1 0.139990 0.671603 0.004855
Si Si2 0.000000 0.185115 0.693891
Si Si3 0.860214 0.690523 0.750000
Si Si4 0.000000 0.623060 0.250000
Si Si5 0.775418 0.067050 0.828792
Si Si6 0.768033 0.915744 0.750000
Si Si7 0.636574 0.995480 0.421280
O O1 0.145297 0.593693 0.960418
O O2 0.000000 0.710058 0.006302
O O3 0.250000 0.750000 0.000000
O O4 0.158278 0.600807 0.051391
O O5 0.114755 0.143482 0.667455
O O6 0.000000 0.147685 0.750000
O O7 0.000000 0.304123 0.703485
O O8 0.819199 0.628463 0.703520
O O9 0.792401 0.797548 0.750000
O O10 0.000000 0.708289 0.750000
O O11 0.124729 0.567596 0.250000
O O12 0.816094 0.972215 0.796560
O O13 0.723207 0.028318 0.877910
O O14 0.500000 0.997142 0.403520
#
# Coordination Sequence:
#
# PCOD9469578 Si02
#       7
#    16   8   8   4  16   8  16
#     4   9  19  41  64  84 114 146 181 232 286 341
#     4  10  18  42  52  68 123 154 176 232 289 310
#     4  11  22  35  53  79 111 146 187 235 271 323
#     4  10  18  38  52  72 104 148 190 226 268 320
#     4  11  22  37  55  81 110 151 189 228 272 333
#     4  11  22  33  56  75 108 148 188 225 270 323
#     4   9  20  39  60  82 113 148 184 227 281 336
#
# _framework density 18.275614999999998
#
# number of rings (size 3 to 8) (size 9 to 14) (size 15 to 20)
#    0.316    1.684    4.211    1.895    5.895    1.684 
#    3.789    1.053    0.000    0.000    0.000    0.000 
#    0.000    0.000    0.000    0.000    0.000    0.000 
#
# Total GULP energy -211831.425504 kJ/mol
# GULP energy per Si atom -5574.511197 kJ/mol
# Density = 1.823402 g / cm^3
# Si number density = 18.275615 Si / 1000 Ang^3
#
#
#
# Elastic Constant Matrix: (Units=GPa)
#
#
# Indices 1 2 3 4 5 6 
#
# 1 87.9965 18.0111 -0.8782 0.0000 0.0000 0.0000
# 2 18.0111 74.1759 -5.0980 0.0000 0.0000 0.0000
# 3 -0.8782 -5.0980 54.3639 0.0000 0.0000 0.0000
# 4 0.0000 0.0000 0.0000 -4.8958 0.0000 0.0000
# 5 0.0000 0.0000 0.0000 0.0000 25.2517 0.0000
# 6 0.0000 0.0000 0.0000 0.0000 0.0000 30.3673
#
#
#
# Elastic Compliance Matrix: (Units=1/GPa)
#
#
# Indices 1 2 3 4 5 6 
#
# 1 0.011959 -0.002909 -0.000080 0.000000 0.000000 0.000000
# 2 -0.002909 0.014277 0.001292 0.000000 0.000000 0.000000
# 3 -0.000080 0.001292 0.018514 0.000000 0.000000 0.000000
# 4 0.000000 0.000000 0.000000 -0.204259 0.000000 0.000000
# 5 0.000000 0.000000 0.000000 0.000000 0.039601 0.000000
# 6 0.000000 0.000000 0.000000 0.000000 0.000000 0.032930
#
#
# Mechanical properties :
#
#
# Convention : Reuss Voigt Hill
#
# Bulk Modulus (GPa) = 24.18048 26.73401 25.45725
# Shear Modulus (GPa) = -71.63518 23.77807 -23.92855
#
# Velocity S-wave (km/s) = -6.26755 3.61096 -3.62237
# Velocity P-wave (km/s) = 6.25432 5.66087 1.88031
#
# Compressibility (1/GPa) = 0.04135567
#
# Stress axis : x y z
#
# Youngs Moduli (GPa) = 83.62069 70.04438 54.01196
#
# Poissons Ratio (x) = 0.20378 0.00430
# Poissons Ratio (y) = 0.24327 -0.06977
# Poissons Ratio (z) = 0.00666 -0.09048
#
# Static dielectric constant tensor:
#      x y z
#    x 1.634520 0.000000 0.000000 
#    y 0.000000 1.625680 0.000000 
#    z 0.000000 0.000000 1.583890 
# 
# From -- ./inp_files/68142.got.cif
#   From: 2010.05.17/outbox.cif.g08.bks.cpg/sg63_35_cif.got.tgz:68142.got - 2010.06.03 15:47:04.
