data_PCOD9469526
_publ_section_title
;
Structure prediction by ZEFSAII (Michael W. Deem and Ramdas Pophale) SiO2 
 PCOD9469526
Probable space group: C M C M
;
_chemical_formula_sum "Si O2"
_cell_formula_units_Z 116
_cell_length_a 18.163723
_cell_length_b 13.389770
_cell_length_c 21.647308
_cell_angle_alpha 90.000000
_cell_angle_beta 90.000000
_cell_angle_gamma 90.000000
_cell_volume 5264.800071
_symmetry_space_group_name_H-M "C M C M"
_symmetry_group_IT_number 63
_symmetry_cell_setting 'orthorhombic'
loop_
_space_group_symop_operation_xyz
x,y,z
-x,-y,1/2+z
x,-y,-z
-x,y,1/2-z
-x,-y,-z
x,y,1/2-z
-x,y,z
x,-y,1/2+z
1/2+x,1/2+y,z
1/2-x,1/2-y,1/2+z
1/2+x,1/2-y,-z
1/2-x,1/2+y,1/2-z
1/2-x,1/2-y,-z
1/2+x,1/2+y,1/2-z
1/2-x,1/2+y,z
1/2+x,1/2-y,1/2+z
loop_
_atom_site_type_symbol
_atom_site_label
_atom_site_fract_x
_atom_site_fract_y
_atom_site_fract_z
Si Si1 0.915569 0.429171 0.120366
Si Si2 0.085721 0.163184 0.556022
Si Si3 0.587194 0.287591 0.818913
Si Si4 0.279332 0.960271 0.677568
Si Si5 0.000000 0.029576 0.750000
Si Si6 0.620381 0.504673 0.360967
Si Si7 0.787737 0.277822 0.899071
Si Si8 0.161969 0.683124 0.524781
O O1 0.906341 0.324811 0.157855
O O2 0.854276 0.503129 0.145707
O O3 0.895249 0.395453 0.051121
O O4 0.000000 0.462804 0.126208
O O5 0.097629 0.048986 0.575516
O O6 0.134926 0.220660 0.607629
O O7 0.121457 0.213520 0.495322
O O8 0.000000 0.186350 0.557394
O O9 0.618940 0.299919 0.750000
O O10 0.500000 0.306724 0.813759
O O11 0.614558 0.375218 0.862740
O O12 0.285391 0.974258 0.750000
O O13 0.270333 0.844304 0.659040
O O14 0.205837 0.015673 0.654209
O O15 0.934938 0.026440 0.805247
O O16 0.724156 0.204800 0.924073
O O17 0.800033 0.347631 0.960291
#
# Coordination Sequence:
#
# PCOD9469526 Si02
#       8
#    16  16  16  16   4  16  16  16
#     4  11  24  41  66  92 129 174 225 278 325 377
#     4  10  20  38  64  95 129 162 208 267 326 399
#     4  10  18  35  59  88 122 165 209 265 326 383
#     4  12  26  43  63  96 130 174 221 266 321 395
#     4  12  20  40  60 100 132 170 210 270 326 420
#     4  12  21  38  64  94 131 164 212 265 332 400
#     4   9  22  43  66  92 132 168 211 269 330 390
#     4   9  20  44  65  94 123 165 218 268 324 388
#
# _framework density 22.033124999999998
#
# number of rings (size 3 to 8) (size 9 to 14) (size 15 to 20)
#    0.828    0.690    2.759    2.483    0.000    1.931 
#    1.241    4.828    0.000    4.966    0.000    0.000 
#    0.000    0.000    0.000    0.000    0.000    0.000 
#
# Total GULP energy -322976.134168 kJ/mol
# GULP energy per Si atom -5568.554037 kJ/mol
# Density = 2.198298 g / cm^3
# Si number density = 22.033125 Si / 1000 Ang^3
#
#
#
# Elastic Constant Matrix: (Units=GPa)
#
#
# Indices 1 2 3 4 5 6 
#
# 1 163.3976 14.1798 21.7904 0.0000 0.0000 0.0000
# 2 14.1798 30.4634 1.1619 0.0000 0.0000 0.0000
# 3 21.7904 1.1619 44.5350 0.0000 0.0000 0.0000
# 4 0.0000 0.0000 0.0000 8.2781 0.0000 0.0000
# 5 0.0000 0.0000 0.0000 0.0000 33.7550 0.0000
# 6 0.0000 0.0000 0.0000 0.0000 0.0000 24.4854
#
#
#
# Elastic Compliance Matrix: (Units=1/GPa)
#
#
# Indices 1 2 3 4 5 6 
#
# 1 0.006819 -0.003050 -0.003257 0.000000 0.000000 0.000000
# 2 -0.003050 0.034223 0.000599 0.000000 0.000000 0.000000
# 3 -0.003257 0.000599 0.024032 0.000000 0.000000 0.000000
# 4 0.000000 0.000000 0.000000 0.120800 0.000000 0.000000
# 5 0.000000 0.000000 0.000000 0.000000 0.029625 0.000000
# 6 0.000000 0.000000 0.000000 0.000000 0.000000 0.040841
#
#
# Mechanical properties :
#
#
# Convention : Reuss Voigt Hill
#
# Bulk Modulus (GPa) = 18.63602 34.74002 26.68802
# Shear Modulus (GPa) = 17.50446 26.72132 22.11289
#
# Velocity S-wave (km/s) = 2.82168 3.48628 3.17143
# Velocity P-wave (km/s) = 4.36948 5.65746 5.05466
#
# Compressibility (1/GPa) = 0.05365954
#
# Stress axis : x y z
#
# Youngs Moduli (GPa) = 146.64822 29.22008 41.61089
#
# Poissons Ratio (x) = 0.08912 0.13552
# Poissons Ratio (y) = 0.44725 -0.02494
# Poissons Ratio (z) = 0.47762 -0.01751
#
# Static dielectric constant tensor:
#      x y z
#    x 1.825130 0.000000 0.000000 
#    y 0.000000 1.845040 0.000000 
#    z 0.000000 0.000000 2.087590 
# 
# From -- ./inp_files/70017.got.cif
#   From: 2010.05.17/outbox.cif.g08.bks.cpg/sg63_36_cif.got.tgz:70017.got - 2010.06.03 15:47:04.
