data_PCOD9469237
_publ_section_title
;
Structure prediction by ZEFSAII (Michael W. Deem and Ramdas Pophale) SiO2 
 PCOD9469237
Probable space group: C M C M
;
_chemical_formula_sum "Si O2"
_cell_formula_units_Z 116
_cell_length_a 7.591422
_cell_length_b 29.401338
_cell_length_c 24.144381
_cell_angle_alpha 90.000000
_cell_angle_beta 90.000000
_cell_angle_gamma 90.000000
_cell_volume 5388.976684
_symmetry_space_group_name_H-M "C M C M"
_symmetry_group_IT_number 63
_symmetry_cell_setting 'orthorhombic'
loop_
_space_group_symop_operation_xyz
x,y,z
-x,-y,1/2+z
x,-y,-z
-x,y,1/2-z
-x,-y,-z
x,y,1/2-z
-x,y,z
x,-y,1/2+z
1/2+x,1/2+y,z
1/2-x,1/2-y,1/2+z
1/2+x,1/2-y,-z
1/2-x,1/2+y,1/2-z
1/2-x,1/2-y,-z
1/2+x,1/2+y,1/2-z
1/2-x,1/2+y,z
1/2+x,1/2-y,1/2+z
loop_
_atom_site_type_symbol
_atom_site_label
_atom_site_fract_x
_atom_site_fract_y
_atom_site_fract_z
Si Si1 0.783445 0.855920 0.589353
Si Si2 0.201483 0.953979 0.932323
Si Si3 0.288822 0.698385 0.981990
Si Si4 0.799677 0.554775 0.942743
Si Si5 0.209369 0.791537 0.688469
Si Si6 0.000000 0.560425 0.750000
Si Si7 0.712326 0.692105 0.856393
Si Si8 0.203130 0.094204 0.829468
O O1 0.728099 0.908248 0.595611
O O2 0.724325 0.834763 0.530687
O O3 0.722878 0.823780 0.639374
O O4 0.000000 0.856054 0.588406
O O5 0.000000 0.961503 0.914844
O O6 0.297839 0.001640 0.925196
O O7 0.205704 0.943389 0.998109
O O8 0.500000 0.693003 0.979829
O O9 0.220611 0.690729 0.919833
O O10 0.250000 0.750000 0.000000
O O11 0.710391 0.583256 0.894690
O O12 0.000000 0.569801 0.950251
O O13 0.281941 0.799891 0.750000
O O14 0.234933 0.739140 0.671670
O O15 0.000000 0.799682 0.690668
O O16 0.843733 0.563815 0.797788
O O17 0.500000 0.691253 0.858453
O O18 0.763557 0.646720 0.823594
O O19 0.000000 0.089156 0.811843
#
# Coordination Sequence:
#
# PCOD9469237 Si02
#       8
#    16  16  16  16  16   4  16  16
#     4   9  18  34  54  81 115 152 196 249 304 368
#     4  10  19  34  62  90 121 162 200 246 318 384
#     4  10  18  32  51  78 112 150 191 241 301 364
#     4  11  21  38  60  94 127 155 198 252 313 387
#     4  10  21  35  56  78 107 151 203 252 297 349
#     4  12  26  44  64  96 120 164 218 264 314 368
#     4  10  22  36  55  83 114 154 198 245 302 369
#     4  11  24  43  65  90 127 166 208 260 316 373
#
# _framework density 21.525423
#
# number of rings (size 3 to 8) (size 9 to 14) (size 15 to 20)
#    0.000    1.793    2.069    3.517    1.931    2.483 
#    0.000    2.759    1.517    0.000    0.000    0.000 
#    0.000    0.000    0.000    0.000    0.000    0.000 
#
# Total GULP energy -323600.765559 kJ/mol
# GULP energy per Si atom -5579.323544 kJ/mol
# Density = 2.147643 g / cm^3
# Si number density = 21.525423 Si / 1000 Ang^3
#
#
#
# Elastic Constant Matrix: (Units=GPa)
#
#
# Indices 1 2 3 4 5 6 
#
# 1 79.7512 -7.5833 3.5596 0.0000 0.0000 0.0000
# 2 -7.5833 80.8995 3.7817 0.0000 0.0000 0.0000
# 3 3.5596 3.7817 64.3140 0.0000 0.0000 0.0000
# 4 0.0000 0.0000 0.0000 -18.9295 0.0000 0.0000
# 5 0.0000 0.0000 0.0000 0.0000 17.5892 0.0000
# 6 0.0000 0.0000 0.0000 0.0000 0.0000 21.8681
#
#
#
# Elastic Compliance Matrix: (Units=1/GPa)
#
#
# Indices 1 2 3 4 5 6 
#
# 1 0.012690 0.001226 -0.000774 0.000000 0.000000 0.000000
# 2 0.001226 0.012513 -0.000804 0.000000 0.000000 0.000000
# 3 -0.000774 -0.000804 0.015639 0.000000 0.000000 0.000000
# 4 0.000000 0.000000 0.000000 -0.052828 0.000000 0.000000
# 5 0.000000 0.000000 0.000000 0.000000 0.056853 0.000000
# 6 0.000000 0.000000 0.000000 0.000000 0.000000 0.045729
#
#
# Mechanical properties :
#
#
# Convention : Reuss Voigt Hill
#
# Bulk Modulus (GPa) = 24.91423 24.94233 24.92828
# Shear Modulus (GPa) = 47.76431 19.11933 33.44182
#
# Velocity S-wave (km/s) = 4.71571 2.98354 3.94584
# Velocity P-wave (km/s) = 6.42261 4.84574 5.68908
#
# Compressibility (1/GPa) = 0.04013771
#
# Stress axis : x y z
#
# Youngs Moduli (GPa) = 78.80152 79.91387 63.94337
#
# Poissons Ratio (x) = -0.09795 0.04952
# Poissons Ratio (y) = -0.09659 0.05139
# Poissons Ratio (z) = 0.06103 0.06422
#
# Static dielectric constant tensor:
#      x y z
#    x 2.825970 0.000000 0.000000 
#    y 0.000000 1.783520 0.000000 
#    z 0.000000 0.000000 1.706610 
# 
# From -- ./inp_files/60612.got.cif
#   From: 2010.05.17/outbox.cif.g08.bks.cpg/sg63_31_cif.got.tgz:60612.got - 2010.06.03 15:47:04.
