data_PCOD9469343
_publ_section_title
;
Structure prediction by ZEFSAII (Michael W. Deem and Ramdas Pophale) SiO2 
 PCOD9469343
Probable space group: C M C M
;
_chemical_formula_sum "Si O2"
_cell_formula_units_Z 88
_cell_length_a 23.825437
_cell_length_b 5.964616
_cell_length_c 29.257120
_cell_angle_alpha 90.000000
_cell_angle_beta 90.000000
_cell_angle_gamma 90.000000
_cell_volume 4157.717115
_symmetry_space_group_name_H-M "C M C M"
_symmetry_group_IT_number 63
_symmetry_cell_setting 'orthorhombic'
loop_
_space_group_symop_operation_xyz
x,y,z
-x,-y,1/2+z
x,-y,-z
-x,y,1/2-z
-x,-y,-z
x,y,1/2-z
-x,y,z
x,-y,1/2+z
1/2+x,1/2+y,z
1/2-x,1/2-y,1/2+z
1/2+x,1/2-y,-z
1/2-x,1/2+y,1/2-z
1/2-x,1/2-y,-z
1/2+x,1/2+y,1/2-z
1/2-x,1/2+y,z
1/2+x,1/2-y,1/2+z
loop_
_atom_site_type_symbol
_atom_site_label
_atom_site_fract_x
_atom_site_fract_y
_atom_site_fract_z
Si Si1 0.721434 0.708116 0.250000
Si Si2 0.880139 0.536695 0.411063
Si Si3 0.439694 0.420100 0.128431
Si Si4 0.436646 0.312047 0.533675
Si Si5 0.170084 0.157393 0.150839
Si Si6 0.739510 0.147644 0.069098
O O1 0.751151 0.459513 0.250000
O O2 0.689778 0.701119 0.201726
O O3 0.932256 0.673270 0.391946
O O4 0.898875 0.398973 0.455238
O O5 0.858437 0.373976 0.371564
O O6 0.826446 0.686017 0.422550
O O7 0.500000 0.446284 0.152522
O O8 0.440886 0.575044 0.083494
O O9 0.380810 0.477393 0.152541
O O10 0.412499 0.500000 0.500000
O O11 0.500000 0.258878 0.517614
O O12 0.222401 0.115427 0.115616
O O13 0.741445 0.890524 0.048552
#
# Coordination Sequence:
#
# PCOD9469343 Si02
#       6
#     8  16  16  16  16  16
#     4  12  26  40  67 100 133 160 208 266 320 366
#     4  10  19  33  58  84 121 157 205 252 314 374
#     4  10  20  36  61  88 118 162 210 253 308 379
#     4   9  19  35  55  86 122 156 205 266 318 369
#     4  10  22  38  58  89 123 158 203 259 312 367
#     4  10  18  32  56  83 113 149 194 243 297 351
#
# _framework density 21.165461000000001
#
# number of rings (size 3 to 8) (size 9 to 14) (size 15 to 20)
#    0.000    2.000    1.818    2.727    2.545    1.455 
#    0.000    3.182    0.000    9.818    0.000    0.000 
#    0.000    0.000    0.000    0.000    0.000    0.000 
#
# Total GULP energy -245006.989151 kJ/mol
# GULP energy per Si atom -5568.340663 kJ/mol
# Density = 2.111729 g / cm^3
# Si number density = 21.165461 Si / 1000 Ang^3
#
#
#
# Elastic Constant Matrix: (Units=GPa)
#
#
# Indices 1 2 3 4 5 6 
#
# 1 104.9034 25.3120 33.1549 0.0000 0.0000 0.0000
# 2 25.3120 93.3056 44.3006 0.0000 0.0000 0.0000
# 3 33.1549 44.3006 85.9294 0.0000 0.0000 0.0000
# 4 0.0000 0.0000 0.0000 20.7068 0.0000 0.0000
# 5 0.0000 0.0000 0.0000 0.0000 13.2362 0.0000
# 6 0.0000 0.0000 0.0000 0.0000 0.0000 -8.9604
#
#
#
# Elastic Compliance Matrix: (Units=1/GPa)
#
#
# Indices 1 2 3 4 5 6 
#
# 1 0.010971 -0.001280 -0.003573 0.000000 0.000000 0.000000
# 2 -0.001280 0.014340 -0.006899 0.000000 0.000000 0.000000
# 3 -0.003573 -0.006899 0.016573 0.000000 0.000000 0.000000
# 4 0.000000 0.000000 0.000000 0.048293 0.000000 0.000000
# 5 0.000000 0.000000 0.000000 0.000000 0.075550 0.000000
# 6 0.000000 0.000000 0.000000 0.000000 0.000000 -0.111602
#
#
# Mechanical properties :
#
#
# Convention : Reuss Voigt Hill
#
# Bulk Modulus (GPa) = 54.40785 54.40814 54.40799
# Shear Modulus (GPa) = 59.69680 17.08792 38.39236
#
# Velocity S-wave (km/s) = 5.31658 2.84447 4.26363
# Velocity P-wave (km/s) = 7.96554 6.04565 7.07106
#
# Compressibility (1/GPa) = 0.01837970
#
# Stress axis : x y z
#
# Youngs Moduli (GPa) = 91.15227 69.73318 60.33870
#
# Poissons Ratio (x) = 0.08923 0.21560
# Poissons Ratio (y) = 0.11664 0.41630
# Poissons Ratio (z) = 0.32571 0.48112
#
# Static dielectric constant tensor:
#      x y z
#    x 1.801750 0.000000 0.000000 
#    y 0.000000 1.885340 0.000000 
#    z 0.000000 0.000000 1.744570 
# 
# From -- ./inp_files/74236.got.cif
#   From: 2010.05.17/outbox.cif.g08.bks.cpg/sg63_38_cif.got.tgz:74236.got - 2010.06.03 15:47:04.
