data_PCOD9469806
_publ_section_title
;
Structure prediction by ZEFSAII (Michael W. Deem and Ramdas Pophale) SiO2 
 PCOD9469806
Probable space group: C M C M
;
_chemical_formula_sum "Si O2"
_cell_formula_units_Z 88
_cell_length_a 21.435707
_cell_length_b 24.167462
_cell_length_c 8.915581
_cell_angle_alpha 90.000000
_cell_angle_beta 90.000000
_cell_angle_gamma 90.000000
_cell_volume 4618.686730
_symmetry_space_group_name_H-M "C M C M"
_symmetry_group_IT_number 63
_symmetry_cell_setting 'orthorhombic'
loop_
_space_group_symop_operation_xyz
x,y,z
-x,-y,1/2+z
x,-y,-z
-x,y,1/2-z
-x,-y,-z
x,y,1/2-z
-x,y,z
x,-y,1/2+z
1/2+x,1/2+y,z
1/2-x,1/2-y,1/2+z
1/2+x,1/2-y,-z
1/2-x,1/2+y,1/2-z
1/2-x,1/2-y,-z
1/2+x,1/2+y,1/2-z
1/2-x,1/2+y,z
1/2+x,1/2-y,1/2+z
loop_
_atom_site_type_symbol
_atom_site_label
_atom_site_fract_x
_atom_site_fract_y
_atom_site_fract_z
Si Si1 0.570021 0.819122 0.569206
Si Si2 0.500000 0.438148 0.068792
Si Si3 0.866402 0.938914 0.068912
Si Si4 0.392594 0.943512 0.572405
Si Si5 0.307580 0.219952 0.579974
Si Si6 0.730213 0.908184 0.078419
O O1 0.575405 0.817876 0.750000
O O2 0.500000 0.801618 0.527169
O O3 0.578632 0.884131 0.523888
O O4 0.625440 0.781946 0.502047
O O5 0.500000 0.442466 0.250000
O O6 0.433193 0.412436 0.024792
O O7 0.500000 0.500000 0.000000
O O8 0.865861 0.941809 0.250000
O O9 0.801315 0.911745 0.024012
O O10 0.865477 0.000000 0.000000
O O11 0.399644 0.947459 0.750000
O O12 0.319937 0.938166 0.525515
O O13 0.417797 0.000000 0.500000
O O14 0.314039 0.240622 0.750000
O O15 0.250000 0.250000 0.500000
O O16 0.288486 0.155618 0.583957
O O17 0.725793 0.930304 0.250000
#
# Coordination Sequence:
#
# PCOD9469806 Si02
#       6
#    16   8  16  16  16  16
#     4   9  19  36  56  78 105 137 175 217 261 312
#     4   8  14  24  38  56  80 112 148 182 220 266
#     4   9  16  26  41  62  88 119 153 191 231 279
#     4  10  19  30  46  71 104 139 173 207 248 298
#     4  10  20  35  56  78 101 130 167 213 262 315
#     4   9  18  31  47  68  94 124 163 208 250 295
#
# _framework density 19.053034
#
# number of rings (size 3 to 8) (size 9 to 14) (size 15 to 20)
#    0.000    2.727    0.000    1.636    0.000    4.364 
#    0.000    0.000    2.000    0.000    0.000    0.000 
#    0.000    0.000    0.000    0.000    0.000    0.000 
#
# Total GULP energy -245007.982653 kJ/mol
# GULP energy per Si atom -5568.363242 kJ/mol
# Density = 1.900967 g / cm^3
# Si number density = 19.053034 Si / 1000 Ang^3
#
#
#
# Elastic Constant Matrix: (Units=GPa)
#
#
# Indices 1 2 3 4 5 6 
#
# 1 168.1588 13.4091 32.5985 0.0000 0.0000 0.0000
# 2 13.4091 23.5102 19.2567 0.0000 0.0000 0.0000
# 3 32.5985 19.2567 41.5759 0.0000 0.0000 0.0000
# 4 0.0000 0.0000 0.0000 22.2020 0.0000 0.0000
# 5 0.0000 0.0000 0.0000 0.0000 20.7576 0.0000
# 6 0.0000 0.0000 0.0000 0.0000 0.0000 18.1640
#
#
#
# Elastic Compliance Matrix: (Units=1/GPa)
#
#
# Indices 1 2 3 4 5 6 
#
# 1 0.007022 0.000813 -0.005883 0.000000 0.000000 0.000000
# 2 0.000813 0.068629 -0.032424 0.000000 0.000000 0.000000
# 3 -0.005883 -0.032424 0.043683 0.000000 0.000000 0.000000
# 4 0.000000 0.000000 0.000000 0.045041 0.000000 0.000000
# 5 0.000000 0.000000 0.000000 0.000000 0.048175 0.000000
# 6 0.000000 0.000000 0.000000 0.000000 0.000000 0.055054
#
#
# Mechanical properties :
#
#
# Convention : Reuss Voigt Hill
#
# Bulk Modulus (GPa) = 22.54980 40.41926 31.48453
# Shear Modulus (GPa) = 13.99096 23.42343 18.70720
#
# Velocity S-wave (km/s) = 2.71277 3.51006 3.13685
# Velocity P-wave (km/s) = 4.65544 6.13901 5.44796
#
# Compressibility (1/GPa) = 0.04434630
#
# Stress axis : x y z
#
# Youngs Moduli (GPa) = 142.40353 14.57113 22.89232
#
# Poissons Ratio (x) = -0.01185 0.13467
# Poissons Ratio (y) = -0.11579 0.74227
# Poissons Ratio (z) = 0.83770 0.47246
#
# Static dielectric constant tensor:
#      x y z
#    x 1.723950 0.000000 0.000000 
#    y 0.000000 1.651610 0.000000 
#    z 0.000000 0.000000 1.666750 
# 
# From -- ./inp_files/8158.got.cif
#   From: 2010.05.17/outbox.cif.g08.bks.cpg/sg63_5_cif.got.tgz:8158.got - 2010.06.03 15:47:04.
