data_PCOD9469042
_publ_section_title
;
Structure prediction by ZEFSAII (Michael W. Deem and Ramdas Pophale) SiO2 
 PCOD9469042
Probable space group: C M C M
;
_chemical_formula_sum "Si O2"
_cell_formula_units_Z 96
_cell_length_a 28.810511
_cell_length_b 29.228522
_cell_length_c 9.130511
_cell_angle_alpha 90.000000
_cell_angle_beta 90.000000
_cell_angle_gamma 90.000000
_cell_volume 7688.699724
_symmetry_space_group_name_H-M "C M C M"
_symmetry_group_IT_number 63
_symmetry_cell_setting 'orthorhombic'
loop_
_space_group_symop_operation_xyz
x,y,z
-x,-y,1/2+z
x,-y,-z
-x,y,1/2-z
-x,-y,-z
x,y,1/2-z
-x,y,z
x,-y,1/2+z
1/2+x,1/2+y,z
1/2-x,1/2-y,1/2+z
1/2+x,1/2-y,-z
1/2-x,1/2+y,1/2-z
1/2-x,1/2-y,-z
1/2+x,1/2+y,1/2-z
1/2-x,1/2+y,z
1/2+x,1/2-y,1/2+z
loop_
_atom_site_type_symbol
_atom_site_label
_atom_site_fract_x
_atom_site_fract_y
_atom_site_fract_z
Si Si1 0.000000 0.307154 0.573781
Si Si2 0.000000 0.406545 0.427170
Si Si3 0.090926 0.548735 0.426710
Si Si4 0.658862 0.868283 0.576347
Si Si5 0.101448 0.276717 0.924262
Si Si6 0.739839 0.821531 0.418984
Si Si7 0.319410 0.726657 0.419035
O O1 0.047090 0.279749 0.541348
O O2 0.000000 0.317860 0.750000
O O3 0.000000 0.354297 0.484100
O O4 0.954978 0.430934 0.496489
O O5 0.000000 0.409081 0.250000
O O6 0.100585 0.500000 0.500000
O O7 0.084195 0.545365 0.250000
O O8 0.132509 0.584611 0.453990
O O9 0.667705 0.865292 0.750000
O O10 0.623707 0.826473 0.539692
O O11 0.706632 0.858889 0.492848
O O12 0.106793 0.270352 0.750000
O O13 0.131963 0.238904 0.005649
O O14 0.748149 0.831986 0.250000
O O15 0.710173 0.774122 0.426502
O O16 0.787791 0.810729 0.500537
O O17 0.325511 0.714877 0.250000
#
# Coordination Sequence:
#
# PCOD9469042 Si02
#       7
#     8   8  16  16  16  16  16
#     4  10  18  31  45  58  76 102 129 160 197 237
#     4  12  23  33  46  60  73  94 126 164 202 243
#     4  11  22  36  48  59  75  96 124 160 202 244
#     4   9  17  29  44  57  73  95 118 149 191 235
#     4   9  16  27  42  56  73  97 124 152 189 228
#     4   9  16  25  39  57  76  94 117 145 178 222
#     4   9  16  25  37  55  77  97 118 145 180 219
#
# _framework density 12.485856999999999
#
# number of rings (size 3 to 8) (size 9 to 14) (size 15 to 20)
#    0.000    2.333    1.667    2.500    0.000    6.000 
#    0.000    0.000    0.000    0.000    0.000    0.000 
#    0.000    0.000    0.000    0.000    0.000    0.000 
#
# Total GULP energy -267503.396301 kJ/mol
# GULP energy per Si atom -5572.987423 kJ/mol
# Density = 1.245744 g / cm^3
# Si number density = 12.485857 Si / 1000 Ang^3
#
#
#
# Elastic Constant Matrix: (Units=GPa)
#
#
# Indices 1 2 3 4 5 6 
#
# 1 107.0366 54.1511 67.0835 0.0000 0.0000 0.0000
# 2 54.1511 44.9098 44.0767 0.0000 0.0000 0.0000
# 3 67.0835 44.0767 76.5008 0.0000 0.0000 0.0000
# 4 0.0000 0.0000 0.0000 17.4258 0.0000 0.0000
# 5 0.0000 0.0000 0.0000 0.0000 20.4494 0.0000
# 6 0.0000 0.0000 0.0000 0.0000 0.0000 7.5357
#
#
#
# Elastic Compliance Matrix: (Units=1/GPa)
#
#
# Indices 1 2 3 4 5 6 
#
# 1 0.027856 -0.022126 -0.011679 0.000000 0.000000 0.000000
# 2 -0.022126 0.068818 -0.020248 0.000000 0.000000 0.000000
# 3 -0.011679 -0.020248 0.034979 0.000000 0.000000 0.000000
# 4 0.000000 0.000000 0.000000 0.057386 0.000000 0.000000
# 5 0.000000 0.000000 0.000000 0.000000 0.048901 0.000000
# 6 0.000000 0.000000 0.000000 0.000000 0.000000 0.132702
#
#
# Mechanical properties :
#
#
# Convention : Reuss Voigt Hill
#
# Bulk Modulus (GPa) = 42.46718 62.11886 52.29302
# Shear Modulus (GPa) = 10.27544 13.29122 11.78333
#
# Velocity S-wave (km/s) = 2.87185 3.26621 3.07536
# Velocity P-wave (km/s) = 6.71437 8.00522 7.38804
#
# Compressibility (1/GPa) = 0.02354760
#
# Stress axis : x y z
#
# Youngs Moduli (GPa) = 35.89932 14.53106 28.58856
#
# Poissons Ratio (x) = 0.32151 0.33388
# Poissons Ratio (y) = 0.79430 0.57887
# Poissons Ratio (z) = 0.41926 0.29423
#
# Static dielectric constant tensor:
#      x y z
#    x 1.401820 0.000000 0.000000 
#    y 0.000000 1.378770 0.000000 
#    z 0.000000 0.000000 1.418900 
# 
# From -- ./inp_files/14961.got.cif
#   From: 2010.05.17/outbox.cif.g08.bks.cpg/sg63_8_cif.got.tgz:14961.got - 2010.06.03 15:47:04.
