data_PCOD9469616
_publ_section_title
;
Structure prediction by ZEFSAII (Michael W. Deem and Ramdas Pophale) SiO2 
 PCOD9469616
Probable space group: C M C M
;
_chemical_formula_sum "Si O2"
_cell_formula_units_Z 96
_cell_length_a 29.366710
_cell_length_b 26.951868
_cell_length_c 8.826226
_cell_angle_alpha 90.000000
_cell_angle_beta 90.000000
_cell_angle_gamma 90.000000
_cell_volume 6985.849242
_symmetry_space_group_name_H-M "C M C M"
_symmetry_group_IT_number 63
_symmetry_cell_setting 'orthorhombic'
loop_
_space_group_symop_operation_xyz
x,y,z
-x,-y,1/2+z
x,-y,-z
-x,y,1/2-z
-x,-y,-z
x,y,1/2-z
-x,y,z
x,-y,1/2+z
1/2+x,1/2+y,z
1/2-x,1/2-y,1/2+z
1/2+x,1/2-y,-z
1/2-x,1/2+y,1/2-z
1/2-x,1/2-y,-z
1/2+x,1/2+y,1/2-z
1/2-x,1/2+y,z
1/2+x,1/2-y,1/2+z
loop_
_atom_site_type_symbol
_atom_site_label
_atom_site_fract_x
_atom_site_fract_y
_atom_site_fract_z
Si Si1 0.137902 0.755675 0.430497
Si Si2 0.447763 0.405012 0.430407
Si Si3 0.551828 0.296111 0.928433
Si Si4 0.196370 0.855675 0.068899
Si Si5 0.225467 0.298591 0.932034
Si Si6 0.641963 0.447466 0.569595
O O1 0.129979 0.754781 0.250000
O O2 0.090514 0.758633 0.517145
O O3 0.164873 0.807242 0.464174
O O4 0.172397 0.710853 0.468879
O O5 0.440641 0.408872 0.250000
O O6 0.500000 0.419521 0.465192
O O7 0.442521 0.347646 0.480621
O O8 0.409638 0.436033 0.516284
O O9 0.557186 0.306799 0.750000
O O10 0.500000 0.278712 0.953885
O O11 0.198448 0.860707 0.250000
O O12 0.246297 0.843765 0.002286
O O13 0.172882 0.903135 0.995153
O O14 0.229931 0.298473 0.750000
O O15 0.250000 0.250000 0.000000
O O16 0.656038 0.500000 0.500000
O O17 0.644194 0.448531 0.750000
#
# Coordination Sequence:
#
# PCOD9469616 Si02
#       6
#    16  16  16  16  16  16
#     4   9  17  28  44  63  85 110 137 169 206 251
#     4  10  20  34  49  62  79 104 136 176 220 262
#     4  10  19  28  41  62  85 111 143 175 210 252
#     4  10  19  32  47  64  85 106 134 171 212 258
#     4   9  17  28  43  64  86 108 135 167 207 251
#     4  12  24  36  50  64  81 106 137 176 219 263
#
# _framework density 13.742065999999999
#
# number of rings (size 3 to 8) (size 9 to 14) (size 15 to 20)
#    0.000    2.000    1.667    4.500    0.000    5.667 
#    0.000    0.000    0.000    0.000    0.000    0.000 
#    0.000    0.000    0.000    0.000    0.000    0.833 
#
# Total GULP energy -267695.436218 kJ/mol
# GULP energy per Si atom -5576.988255 kJ/mol
# Density = 1.371079 g / cm^3
# Si number density = 13.742066 Si / 1000 Ang^3
#
#
#
# Elastic Constant Matrix: (Units=GPa)
#
#
# Indices 1 2 3 4 5 6 
#
# 1 74.6952 44.0299 45.6218 0.0000 0.0000 0.0000
# 2 44.0299 51.8972 35.3181 0.0000 0.0000 0.0000
# 3 45.6218 35.3181 70.0556 0.0000 0.0000 0.0000
# 4 0.0000 0.0000 0.0000 18.5486 0.0000 0.0000
# 5 0.0000 0.0000 0.0000 0.0000 25.3182 0.0000
# 6 0.0000 0.0000 0.0000 0.0000 0.0000 15.8184
#
#
#
# Elastic Compliance Matrix: (Units=1/GPa)
#
#
# Indices 1 2 3 4 5 6 
#
# 1 0.031238 -0.019269 -0.010628 0.000000 0.000000 0.000000
# 2 -0.019269 0.041219 -0.008232 0.000000 0.000000 0.000000
# 3 -0.010628 -0.008232 0.025346 0.000000 0.000000 0.000000
# 4 0.000000 0.000000 0.000000 0.053912 0.000000 0.000000
# 5 0.000000 0.000000 0.000000 0.000000 0.039497 0.000000
# 6 0.000000 0.000000 0.000000 0.000000 0.000000 0.063218
#
#
# Mechanical properties :
#
#
# Convention : Reuss Voigt Hill
#
# Bulk Modulus (GPa) = 46.41672 49.62085 48.01879
# Shear Modulus (GPa) = 14.79861 16.71558 15.75709
#
# Velocity S-wave (km/s) = 3.28515 3.49145 3.38987
# Velocity P-wave (km/s) = 6.94551 7.24160 7.09510
#
# Compressibility (1/GPa) = 0.02154396
#
# Stress axis : x y z
#
# Youngs Moduli (GPa) = 32.01265 24.26061 39.45449
#
# Poissons Ratio (x) = 0.46749 0.41933
# Poissons Ratio (y) = 0.61686 0.32478
# Poissons Ratio (z) = 0.34024 0.19971
#
# Static dielectric constant tensor:
#      x y z
#    x 1.479000 0.000000 0.000000 
#    y 0.000000 1.561470 0.000000 
#    z 0.000000 0.000000 1.455170 
# 
# From -- ./inp_files/12723.got.cif
#   From: 2010.05.17/outbox.cif.g08.bks.cpg/sg63_7_cif.got.tgz:12723.got - 2010.06.03 15:47:04.
