data_PCOD9469515
_publ_section_title
;
Structure prediction by ZEFSAII (Michael W. Deem and Ramdas Pophale) SiO2 
 PCOD9469515
Probable space group: C M C M
;
_chemical_formula_sum "Si O2"
_cell_formula_units_Z 96
_cell_length_a 17.132716
_cell_length_b 21.181664
_cell_length_c 15.587953
_cell_angle_alpha 90.000000
_cell_angle_beta 90.000000
_cell_angle_gamma 90.000000
_cell_volume 5656.859317
_symmetry_space_group_name_H-M "C M C M"
_symmetry_group_IT_number 63
_symmetry_cell_setting 'orthorhombic'
loop_
_space_group_symop_operation_xyz
x,y,z
-x,-y,1/2+z
x,-y,-z
-x,y,1/2-z
-x,-y,-z
x,y,1/2-z
-x,y,z
x,-y,1/2+z
1/2+x,1/2+y,z
1/2-x,1/2-y,1/2+z
1/2+x,1/2-y,-z
1/2-x,1/2+y,1/2-z
1/2-x,1/2-y,-z
1/2+x,1/2+y,1/2-z
1/2-x,1/2+y,z
1/2+x,1/2-y,1/2+z
loop_
_atom_site_type_symbol
_atom_site_label
_atom_site_fract_x
_atom_site_fract_y
_atom_site_fract_z
Si Si1 0.842761 0.145758 0.581118
Si Si2 0.087950 0.981207 0.148322
Si Si3 0.679647 0.154905 0.152283
Si Si4 0.794105 0.273343 0.345959
Si Si5 0.409483 0.773325 0.506830
Si Si6 0.729150 0.444985 0.559395
O O1 0.892007 0.091652 0.627905
O O2 0.775332 0.176256 0.639670
O O3 0.893393 0.203552 0.545299
O O4 0.799844 0.110605 0.502866
O O5 0.091631 0.991302 0.250000
O O6 0.000000 0.995836 0.118409
O O7 0.153262 0.023597 0.102842
O O8 0.649915 0.156922 0.250000
O O9 0.751002 0.205484 0.147563
O O10 0.619298 0.178536 0.080547
O O11 0.713419 0.086735 0.127251
O O12 0.827025 0.279583 0.250000
O O13 0.855671 0.280121 0.422551
O O14 0.500000 0.781583 0.487059
O O15 0.765174 0.500000 0.500000
#
# Coordination Sequence:
#
# PCOD9469515 Si02
#       6
#    16  16  16  16  16  16
#     4  10  18  35  54  76 107 140 177 213 263 320
#     4  10  21  33  47  77 114 144 178 216 256 310
#     4  10  19  36  56  78 109 141 181 221 258 316
#     4  10  19  34  57  79 103 141 182 220 268 320
#     4  11  21  34  55  82 109 138 174 222 280 321
#     4  10  19  32  55  75 104 144 184 212 254 308
#
# _framework density 16.970547
#
# number of rings (size 3 to 8) (size 9 to 14) (size 15 to 20)
#    0.000    1.833    3.333    2.500    0.000    5.000 
#    0.000    0.000    0.000    0.500    0.000    0.000 
#    0.000    0.000    0.000    0.000    0.000    0.000 
#
# Total GULP energy -267760.241949 kJ/mol
# GULP energy per Si atom -5578.338374 kJ/mol
# Density = 1.693192 g / cm^3
# Si number density = 16.970547 Si / 1000 Ang^3
#
#
#
# Elastic Constant Matrix: (Units=GPa)
#
#
# Indices 1 2 3 4 5 6 
#
# 1 52.8916 14.1131 24.0047 0.0000 0.0000 0.0000
# 2 14.1131 73.9843 18.4713 0.0000 0.0000 0.0000
# 3 24.0047 18.4713 97.5399 0.0000 0.0000 0.0000
# 4 0.0000 0.0000 0.0000 15.7431 0.0000 0.0000
# 5 0.0000 0.0000 0.0000 0.0000 13.5184 0.0000
# 6 0.0000 0.0000 0.0000 0.0000 0.0000 14.2927
#
#
#
# Elastic Compliance Matrix: (Units=1/GPa)
#
#
# Indices 1 2 3 4 5 6 
#
# 1 0.021889 -0.002971 -0.004824 0.000000 0.000000 0.000000
# 2 -0.002971 0.014590 -0.002032 0.000000 0.000000 0.000000
# 3 -0.004824 -0.002032 0.011824 0.000000 0.000000 0.000000
# 4 0.000000 0.000000 0.000000 0.063520 0.000000 0.000000
# 5 0.000000 0.000000 0.000000 0.000000 0.073973 0.000000
# 6 0.000000 0.000000 0.000000 0.000000 0.000000 0.069966
#
#
# Mechanical properties :
#
#
# Convention : Reuss Voigt Hill
#
# Bulk Modulus (GPa) = 34.90490 37.51043 36.20766
# Shear Modulus (GPa) = 17.54593 19.89928 18.72261
#
# Velocity S-wave (km/s) = 3.21893 3.42801 3.32511
# Velocity P-wave (km/s) = 5.86753 6.14976 6.01030
#
# Compressibility (1/GPa) = 0.02864927
#
# Stress axis : x y z
#
# Youngs Moduli (GPa) = 45.68543 68.53817 84.57199
#
# Poissons Ratio (x) = 0.20363 0.40800
# Poissons Ratio (y) = 0.13573 0.17184
# Poissons Ratio (z) = 0.22040 0.13926
#
# Static dielectric constant tensor:
#      x y z
#    x 1.549900 0.000000 0.000000 
#    y 0.000000 1.571390 0.000000 
#    z 0.000000 0.000000 1.594900 
# 
# From -- ./inp_files/31857.got.cif
#   From: 2010.05.17/outbox.cif.g08.bks.cpg/sg63_16_cif.got.tgz:31857.got - 2010.06.03 15:47:04.
