data_PCOD9469097
_publ_section_title
;
Structure prediction by ZEFSAII (Michael W. Deem and Ramdas Pophale) SiO2 
 PCOD9469097
Probable space group: C M C M
;
_chemical_formula_sum "Si O2"
_cell_formula_units_Z 128
_cell_length_a 17.864145
_cell_length_b 22.834370
_cell_length_c 17.970990
_cell_angle_alpha 90.000000
_cell_angle_beta 90.000000
_cell_angle_gamma 90.000000
_cell_volume 7330.663282
_symmetry_space_group_name_H-M "C M C M"
_symmetry_group_IT_number 63
_symmetry_cell_setting 'orthorhombic'
loop_
_space_group_symop_operation_xyz
x,y,z
-x,-y,1/2+z
x,-y,-z
-x,y,1/2-z
-x,-y,-z
x,y,1/2-z
-x,y,z
x,-y,1/2+z
1/2+x,1/2+y,z
1/2-x,1/2-y,1/2+z
1/2+x,1/2-y,-z
1/2-x,1/2+y,1/2-z
1/2-x,1/2-y,-z
1/2+x,1/2+y,1/2-z
1/2-x,1/2+y,z
1/2+x,1/2-y,1/2+z
loop_
_atom_site_type_symbol
_atom_site_label
_atom_site_fract_x
_atom_site_fract_y
_atom_site_fract_z
Si Si1 0.789304 0.366905 0.166497
Si Si2 0.586828 0.455917 0.430014
Si Si3 0.584172 0.758024 0.525885
Si Si4 0.086012 0.615688 0.944730
Si Si5 0.309377 0.654723 0.970112
Si Si6 0.913206 0.332820 0.836403
Si Si7 0.192010 0.413547 0.568605
Si Si8 0.217347 0.004084 0.666190
O O1 0.788242 0.342340 0.250000
O O2 0.871942 0.376266 0.133139
O O3 0.740480 0.333778 0.103850
O O4 0.753317 0.431529 0.168755
O O5 0.590455 0.500000 0.500000
O O6 0.500000 0.444930 0.412195
O O7 0.630638 0.396177 0.450462
O O8 0.633547 0.486534 0.364102
O O9 0.500000 0.734539 0.515045
O O10 0.588335 0.820031 0.483511
O O11 0.646679 0.711939 0.504227
O O12 0.594426 0.775493 0.612341
O O13 0.000000 0.597214 0.939146
O O14 0.135586 0.575035 0.999476
O O15 0.253725 0.629368 0.032245
O O16 0.900272 0.321795 0.750000
O O17 0.857310 0.380849 0.869322
O O18 0.000000 0.352422 0.846308
O O19 0.235609 0.466498 0.606935
O O20 0.219467 0.979295 0.750000
#
# Coordination Sequence:
#
# PCOD9469097 Si02
#       8
#    16  16  16  16  16  16  16  16
#     4   9  20  34  50  73 102 132 166 207 251 301
#     4  10  19  33  53  76  99 130 169 202 239 292
#     4   9  18  33  50  72  99 129 164 204 247 292
#     4   9  19  34  53  73  98 133 171 207 251 300
#     4  10  19  31  52  76 101 127 164 207 250 291
#     4   9  18  32  49  70  98 131 164 200 247 299
#     4  10  18  31  51  74 100 129 165 205 250 296
#     4  10  20  35  52  74 104 135 164 204 256 300
#
# _framework density 17.460902999999998
#
# number of rings (size 3 to 8) (size 9 to 14) (size 15 to 20)
#    0.000    2.500    1.250    1.875    0.000    5.500 
#    0.000    1.875    0.000    4.500    0.000    0.000 
#    0.000    0.000    0.000    0.000    0.000    0.000 
#
# Total GULP energy -356727.020461 kJ/mol
# GULP energy per Si atom -5573.859695 kJ/mol
# Density = 1.742116 g / cm^3
# Si number density = 17.460903 Si / 1000 Ang^3
#
#
#
# Elastic Constant Matrix: (Units=GPa)
#
#
# Indices 1 2 3 4 5 6 
#
# 1 115.0966 14.8314 27.3498 0.0000 0.0000 0.0000
# 2 14.8314 16.7326 4.0992 0.0000 0.0000 0.0000
# 3 27.3498 4.0992 72.9390 0.0000 0.0000 0.0000
# 4 0.0000 0.0000 0.0000 12.3524 0.0000 0.0000
# 5 0.0000 0.0000 0.0000 0.0000 21.3462 0.0000
# 6 0.0000 0.0000 0.0000 0.0000 0.0000 11.8559
#
#
#
# Elastic Compliance Matrix: (Units=1/GPa)
#
#
# Indices 1 2 3 4 5 6 
#
# 1 0.010623 -0.008558 -0.003502 0.000000 0.000000 0.000000
# 2 -0.008558 0.067493 -0.000584 0.000000 0.000000 0.000000
# 3 -0.003502 -0.000584 0.015056 0.000000 0.000000 0.000000
# 4 0.000000 0.000000 0.000000 0.080956 0.000000 0.000000
# 5 0.000000 0.000000 0.000000 0.000000 0.046847 0.000000
# 6 0.000000 0.000000 0.000000 0.000000 0.000000 0.084346
#
#
# Mechanical properties :
#
#
# Convention : Reuss Voigt Hill
#
# Bulk Modulus (GPa) = 14.73129 33.03655 23.88392
# Shear Modulus (GPa) = 14.15472 19.67674 16.91573
#
# Velocity S-wave (km/s) = 2.85028 3.36058 3.11590
# Velocity P-wave (km/s) = 4.39172 5.83261 5.16268
#
# Compressibility (1/GPa) = 0.06788274
#
# Stress axis : x y z
#
# Youngs Moduli (GPa) = 94.13124 14.81642 66.41769
#
# Poissons Ratio (x) = 0.12680 0.23263
# Poissons Ratio (y) = 0.80561 0.03879
# Poissons Ratio (z) = 0.32969 0.00865
#
# Static dielectric constant tensor:
#      x y z
#    x 1.606930 0.000000 0.000000 
#    y 0.000000 1.585950 0.000000 
#    z 0.000000 0.000000 1.607310 
# 
# From -- ./inp_files/46297.got.cif
#   From: 2010.05.17/outbox.cif.g08.bks.cpg/sg63_24_cif.got.tgz:46297.got - 2010.06.03 15:47:04.
