data_PCOD9469106
_publ_section_title
;
Structure prediction by ZEFSAII (Michael W. Deem and Ramdas Pophale) SiO2 
 PCOD9469106
Probable space group: C M C M
;
_chemical_formula_sum "Si O2"
_cell_formula_units_Z 112
_cell_length_a 22.037541
_cell_length_b 12.476022
_cell_length_c 24.497807
_cell_angle_alpha 90.000000
_cell_angle_beta 90.000000
_cell_angle_gamma 90.000000
_cell_volume 6735.447790
_symmetry_space_group_name_H-M "C M C M"
_symmetry_group_IT_number 63
_symmetry_cell_setting 'orthorhombic'
loop_
_space_group_symop_operation_xyz
x,y,z
-x,-y,1/2+z
x,-y,-z
-x,y,1/2-z
-x,-y,-z
x,y,1/2-z
-x,y,z
x,-y,1/2+z
1/2+x,1/2+y,z
1/2-x,1/2-y,1/2+z
1/2+x,1/2-y,-z
1/2-x,1/2+y,1/2-z
1/2-x,1/2-y,-z
1/2+x,1/2+y,1/2-z
1/2-x,1/2+y,z
1/2+x,1/2-y,1/2+z
loop_
_atom_site_type_symbol
_atom_site_label
_atom_site_fract_x
_atom_site_fract_y
_atom_site_fract_z
Si Si1 0.325196 0.432390 0.860773
Si Si2 0.931030 0.690223 0.925163
Si Si3 0.766390 0.140986 0.687662
Si Si4 0.870426 0.716503 0.688923
Si Si5 0.816801 0.619565 0.986238
Si Si6 0.267614 0.228730 0.085654
Si Si7 0.570389 0.444686 0.941822
O O1 0.289941 0.524445 0.828978
O O2 0.352147 0.340858 0.821098
O O3 0.279190 0.366836 0.899950
O O4 0.379988 0.478820 0.897238
O O5 0.913816 0.686995 0.861084
O O6 0.882013 0.622531 0.958061
O O7 0.923993 0.814987 0.943594
O O8 0.000000 0.657612 0.934079
O O9 0.782975 0.166585 0.750000
O O10 0.693177 0.152256 0.683811
O O11 0.790897 0.224154 0.642575
O O12 0.894589 0.701610 0.750000
O O13 0.770566 0.678429 0.945001
O O14 0.797089 0.500000 0.000000
O O15 0.815743 0.686241 0.042393
O O16 0.500000 0.467883 0.926873
O O17 0.582368 0.500000 0.000000
#
# Coordination Sequence:
#
# PCOD9469106 Si02
#       7
#    16  16  16  16  16  16  16
#     4  10  18  31  51  76 102 135 169 209 256 305
#     4  10  20  36  51  74 103 133 177 220 256 304
#     4  10  19  31  51  77 107 136 169 208 255 308
#     4   9  18  34  50  74 105 133 169 213 261 306
#     4  11  21  35  52  75 106 136 176 211 262 313
#     4  10  21  34  50  78 105 139 166 212 258 316
#     4   9  18  31  49  73 104 137 171 210 255 309
#
# _framework density 16.628442
#
# number of rings (size 3 to 8) (size 9 to 14) (size 15 to 20)
#    0.000    2.143    4.286    1.286    2.000    1.714 
#    0.000    0.000    0.000    1.286    0.000    0.000 
#    0.000    0.000    0.000    0.000    0.000    0.000 
#
# Total GULP energy -312199.032145 kJ/mol
# GULP energy per Si atom -5574.982717 kJ/mol
# Density = 1.659059 g / cm^3
# Si number density = 16.628442 Si / 1000 Ang^3
#
#
#
# Elastic Constant Matrix: (Units=GPa)
#
#
# Indices 1 2 3 4 5 6 
#
# 1 40.3825 22.5816 31.8827 0.0000 0.0000 0.0000
# 2 22.5816 48.1396 40.1058 0.0000 0.0000 0.0000
# 3 31.8827 40.1058 120.5181 0.0000 0.0000 0.0000
# 4 0.0000 0.0000 0.0000 23.2733 0.0000 0.0000
# 5 0.0000 0.0000 0.0000 0.0000 14.2838 0.0000
# 6 0.0000 0.0000 0.0000 0.0000 0.0000 6.3583
#
#
#
# Elastic Compliance Matrix: (Units=1/GPa)
#
#
# Indices 1 2 3 4 5 6 
#
# 1 0.035934 -0.012364 -0.005392 0.000000 0.000000 0.000000
# 2 -0.012364 0.032996 -0.007709 0.000000 0.000000 0.000000
# 3 -0.005392 -0.007709 0.012289 0.000000 0.000000 0.000000
# 4 0.000000 0.000000 0.000000 0.042968 0.000000 0.000000
# 5 0.000000 0.000000 0.000000 0.000000 0.070009 0.000000
# 6 0.000000 0.000000 0.000000 0.000000 0.000000 0.157274
#
#
# Mechanical properties :
#
#
# Convention : Reuss Voigt Hill
#
# Bulk Modulus (GPa) = 33.01584 44.24226 38.62905
# Shear Modulus (GPa) = 12.12131 16.41442 14.26787
#
# Velocity S-wave (km/s) = 2.70284 3.14527 2.93241
# Velocity P-wave (km/s) = 5.44413 6.31304 5.89462
#
# Compressibility (1/GPa) = 0.03028850
#
# Stress axis : x y z
#
# Youngs Moduli (GPa) = 27.82886 30.30714 81.37136
#
# Poissons Ratio (x) = 0.37472 0.43873
# Poissons Ratio (y) = 0.34408 0.62732
# Poissons Ratio (z) = 0.15004 0.23365
#
# Static dielectric constant tensor:
#      x y z
#    x 1.550490 0.000000 0.000000 
#    y 0.000000 1.556040 0.000000 
#    z 0.000000 0.000000 1.578730 
# 
# From -- ./inp_files/65115.got.cif
#   From: 2010.05.17/outbox.cif.g08.bks.cpg/sg63_33_cif.got.tgz:65115.got - 2010.06.03 15:47:04.
