data_PCOD9469149
_publ_section_title
;
Structure prediction by ZEFSAII (Michael W. Deem and Ramdas Pophale) SiO2 
 PCOD9469149
Probable space group: C M C M
;
_chemical_formula_sum "Si O2"
_cell_formula_units_Z 64
_cell_length_a 22.827880
_cell_length_b 8.134325
_cell_length_c 14.506207
_cell_angle_alpha 90.000000
_cell_angle_beta 90.000000
_cell_angle_gamma 90.000000
_cell_volume 2693.648801
_symmetry_space_group_name_H-M "C M C M"
_symmetry_group_IT_number 63
_symmetry_cell_setting 'orthorhombic'
loop_
_space_group_symop_operation_xyz
x,y,z
-x,-y,1/2+z
x,-y,-z
-x,y,1/2-z
-x,-y,-z
x,y,1/2-z
-x,y,z
x,-y,1/2+z
1/2+x,1/2+y,z
1/2-x,1/2-y,1/2+z
1/2+x,1/2-y,-z
1/2-x,1/2+y,1/2-z
1/2-x,1/2-y,-z
1/2+x,1/2+y,1/2-z
1/2-x,1/2+y,z
1/2+x,1/2-y,1/2+z
loop_
_atom_site_type_symbol
_atom_site_label
_atom_site_fract_x
_atom_site_fract_y
_atom_site_fract_z
Si Si1 0.394807 0.432296 0.145541
Si Si2 0.162690 0.407544 0.355357
Si Si3 0.773816 0.070525 0.102497
Si Si4 0.431772 0.241154 0.968447
O O1 0.416234 0.404572 0.250000
O O2 0.325144 0.465303 0.150022
O O3 0.421309 0.598285 0.098216
O O4 0.409394 0.294004 0.069820
O O5 0.145180 0.380768 0.250000
O O6 0.208040 0.556599 0.360950
O O7 0.106618 0.398546 0.419704
O O8 0.202941 0.254966 0.388993
O O9 0.773416 0.000000 0.000000
O O10 0.500000 0.204221 0.971975
#
# Coordination Sequence:
#
# PCOD9469149 Si02
#       4
#    16  16  16  16
#     4  10  18  31  52  80 112 145 183 238 296 341
#     4  11  22  37  58  88 117 152 192 236 288 347
#     4  11  20  36  58  84 119 149 185 237 294 344
#     4  10  20  33  51  79 112 150 192 236 283 336
#
# _framework density 23.759595000000001
#
# number of rings (size 3 to 8) (size 9 to 14) (size 15 to 20)
#    0.000    1.500    5.000    6.750    0.000    3.500 
#    0.000    0.000    0.000    0.750    0.000    0.000 
#    0.000    0.000    0.000    0.000    0.000    0.000 
#
# Total GULP energy -179071.962274 kJ/mol
# GULP energy per Si atom -5595.998821 kJ/mol
# Density = 2.370552 g / cm^3
# Si number density = 23.759595 Si / 1000 Ang^3
#
#
#
# Elastic Constant Matrix: (Units=GPa)
#
#
# Indices 1 2 3 4 5 6 
#
# 1 172.8331 22.7963 41.0825 0.0000 0.0000 0.0000
# 2 22.7963 54.6173 19.3445 0.0000 0.0000 0.0000
# 3 41.0825 19.3445 222.3512 0.0000 0.0000 0.0000
# 4 0.0000 0.0000 0.0000 4.3613 0.0000 0.0000
# 5 0.0000 0.0000 0.0000 0.0000 -12.7914 0.0000
# 6 0.0000 0.0000 0.0000 0.0000 0.0000 15.9216
#
#
#
# Elastic Compliance Matrix: (Units=1/GPa)
#
#
# Indices 1 2 3 4 5 6 
#
# 1 0.006319 -0.002294 -0.000968 0.000000 0.000000 0.000000
# 2 -0.002294 0.019725 -0.001292 0.000000 0.000000 0.000000
# 3 -0.000968 -0.001292 0.004789 0.000000 0.000000 0.000000
# 4 0.000000 0.000000 0.000000 0.229288 0.000000 0.000000
# 5 0.000000 0.000000 0.000000 0.000000 -0.078178 0.000000
# 6 0.000000 0.000000 0.000000 0.000000 0.000000 0.062808
#
#
# Mechanical properties :
#
#
# Convention : Reuss Voigt Hill
#
# Bulk Modulus (GPa) = 46.03427 68.47204 57.25316
# Shear Modulus (GPa) = 19.14977 25.93684 22.54330
#
# Velocity S-wave (km/s) = 2.84206 3.30758 3.08362
# Velocity P-wave (km/s) = 5.49425 6.59303 6.06856
#
# Compressibility (1/GPa) = 0.02172294
#
# Stress axis : x y z
#
# Youngs Moduli (GPa) = 158.26231 50.69826 208.82831
#
# Poissons Ratio (x) = 0.11633 0.20211
# Poissons Ratio (y) = 0.36313 0.26983
# Poissons Ratio (z) = 0.15317 0.06551
#
# Static dielectric constant tensor:
#      x y z
#    x 1.885530 0.000000 0.000000 
#    y 0.000000 1.994030 0.000000 
#    z 0.000000 0.000000 1.888370 
# 
# From -- ./inp_files/34907.got.cif
#   From: 2010.05.17/outbox.cif.g08.bks.cpg/sg63_18_cif.got.tgz:34907.got - 2010.06.03 15:47:04.
