data_PCOD9469866
_publ_section_title
;
Structure prediction by ZEFSAII (Michael W. Deem and Ramdas Pophale) SiO2 
 PCOD9469866
Probable space group: C M C M
;
_chemical_formula_sum "Si O2"
_cell_formula_units_Z 96
_cell_length_a 24.461455
_cell_length_b 26.177761
_cell_length_c 7.512094
_cell_angle_alpha 90.000000
_cell_angle_beta 90.000000
_cell_angle_gamma 90.000000
_cell_volume 4810.340266
_symmetry_space_group_name_H-M "C M C M"
_symmetry_group_IT_number 63
_symmetry_cell_setting 'orthorhombic'
loop_
_space_group_symop_operation_xyz
x,y,z
-x,-y,1/2+z
x,-y,-z
-x,y,1/2-z
-x,-y,-z
x,y,1/2-z
-x,y,z
x,-y,1/2+z
1/2+x,1/2+y,z
1/2-x,1/2-y,1/2+z
1/2+x,1/2-y,-z
1/2-x,1/2+y,1/2-z
1/2-x,1/2-y,-z
1/2+x,1/2+y,1/2-z
1/2-x,1/2+y,z
1/2+x,1/2-y,1/2+z
loop_
_atom_site_type_symbol
_atom_site_label
_atom_site_fract_x
_atom_site_fract_y
_atom_site_fract_z
Si Si1 0.247515 0.689561 0.036174
Si Si2 0.561797 0.558945 0.463602
Si Si3 0.871352 0.655531 0.032081
Si Si4 0.437486 0.256034 0.465364
Si Si5 0.138522 0.147559 0.040516
Si Si6 0.437645 0.057826 0.463167
O O1 0.247560 0.684307 0.250000
O O2 0.190384 0.666218 0.971272
O O3 0.302206 0.662393 0.965447
O O4 0.250000 0.750000 0.000000
O O5 0.575298 0.500000 0.500000
O O6 0.559600 0.565217 0.250000
O O7 0.500000 0.568774 0.531467
O O8 0.605976 0.598989 0.534581
O O9 0.870578 0.655263 0.250000
O O10 0.909351 0.703138 0.978259
O O11 0.897965 0.602431 0.971642
O O12 0.438021 0.256194 0.250000
O O13 0.500000 0.260227 0.526961
O O14 0.400732 0.303464 0.523779
O O15 0.146891 0.137398 0.250000
O O16 0.440420 0.063340 0.250000
O O17 0.500000 0.063448 0.531696
O O18 0.419348 0.000000 0.500000
#
# Coordination Sequence:
#
# PCOD9469866 Si02
#       6
#    16  16  16  16  16  16
#     4  10  19  33  52  72  97 133 169 201 243 295
#     4   9  18  33  51  70  95 127 162 200 243 292
#     4   9  17  31  50  71  97 129 165 202 241 289
#     4  10  19  30  48  74 100 127 163 204 244 293
#     4  10  20  33  50  73 101 131 162 201 252 300
#     4   9  17  31  51  72  96 128 164 203 248 294
#
# _framework density 19.957007999999998
#
# number of rings (size 3 to 8) (size 9 to 14) (size 15 to 20)
#    0.000    2.500    1.667    1.000    0.000    3.667 
#    0.000    4.167    0.000    2.000    0.000    0.000 
#    0.000    0.000    0.000    0.000    0.000    0.000 
#
# Total GULP energy -267963.971767 kJ/mol
# GULP energy per Si atom -5582.582745 kJ/mol
# Density = 1.991158 g / cm^3
# Si number density = 19.957008 Si / 1000 Ang^3
#
#
#
# Elastic Constant Matrix: (Units=GPa)
#
#
# Indices 1 2 3 4 5 6 
#
# 1 148.5260 80.9270 -0.3677 0.0000 0.0000 0.0000
# 2 80.9270 135.7844 -8.0174 0.0000 0.0000 0.0000
# 3 -0.3677 -8.0174 52.3378 0.0000 0.0000 0.0000
# 4 0.0000 0.0000 0.0000 18.0772 0.0000 0.0000
# 5 0.0000 0.0000 0.0000 0.0000 31.6726 0.0000
# 6 0.0000 0.0000 0.0000 0.0000 0.0000 20.6606
#
#
#
# Elastic Compliance Matrix: (Units=1/GPa)
#
#
# Indices 1 2 3 4 5 6 
#
# 1 0.010008 -0.006015 -0.000851 0.000000 0.000000 0.000000
# 2 -0.006015 0.011047 0.001650 0.000000 0.000000 0.000000
# 3 -0.000851 0.001650 0.019353 0.000000 0.000000 0.000000
# 4 0.000000 0.000000 0.000000 0.055318 0.000000 0.000000
# 5 0.000000 0.000000 0.000000 0.000000 0.031573 0.000000
# 6 0.000000 0.000000 0.000000 0.000000 0.000000 0.048401
#
#
# Mechanical properties :
#
#
# Convention : Reuss Voigt Hill
#
# Bulk Modulus (GPa) = 33.35981 53.52576 43.44279
# Shear Modulus (GPa) = 25.49386 31.68917 28.59151
#
# Velocity S-wave (km/s) = 3.57801 3.98913 3.78915
# Velocity P-wave (km/s) = 5.81564 6.93515 6.39992
#
# Compressibility (1/GPa) = 0.02997619
#
# Stress axis : x y z
#
# Youngs Moduli (GPa) = 99.91873 90.52239 51.67042
#
# Poissons Ratio (x) = 0.54450 0.04398
# Poissons Ratio (y) = 0.60102 -0.08526
# Poissons Ratio (z) = 0.08504 -0.14936
#
# Static dielectric constant tensor:
#      x y z
#    x 1.704490 0.000000 0.000000 
#    y 0.000000 1.662960 0.000000 
#    z 0.000000 0.000000 1.778480 
# 
# From -- ./inp_files/10456.got.cif
#   From: 2010.05.17/outbox.cif.g08.bks.cpg/sg63_6_cif.got.tgz:10456.got - 2010.06.03 15:47:04.
