data_PCOD9469441
_publ_section_title
;
Structure prediction by ZEFSAII (Michael W. Deem and Ramdas Pophale) SiO2 
 PCOD9469441
Probable space group: C M C M
;
_chemical_formula_sum "Si O2"
_cell_formula_units_Z 56
_cell_length_a 7.758639
_cell_length_b 13.881853
_cell_length_c 28.779786
_cell_angle_alpha 90.000000
_cell_angle_beta 90.000000
_cell_angle_gamma 90.000000
_cell_volume 3099.706305
_symmetry_space_group_name_H-M "C M C M"
_symmetry_group_IT_number 63
_symmetry_cell_setting 'orthorhombic'
loop_
_space_group_symop_operation_xyz
x,y,z
-x,-y,1/2+z
x,-y,-z
-x,y,1/2-z
-x,-y,-z
x,y,1/2-z
-x,y,z
x,-y,1/2+z
1/2+x,1/2+y,z
1/2-x,1/2-y,1/2+z
1/2+x,1/2-y,-z
1/2-x,1/2+y,1/2-z
1/2-x,1/2-y,-z
1/2+x,1/2+y,1/2-z
1/2-x,1/2+y,z
1/2+x,1/2-y,1/2+z
loop_
_atom_site_type_symbol
_atom_site_label
_atom_site_fract_x
_atom_site_fract_y
_atom_site_fract_z
Si Si1 0.000000 0.707068 0.399789
Si Si2 0.200527 0.957666 0.197078
Si Si3 0.308693 0.158649 0.892074
Si Si4 0.500000 0.997183 0.055131
Si Si5 0.000000 0.615554 0.302390
O O1 0.168747 0.768611 0.411396
O O2 0.000000 0.603290 0.423619
O O3 0.000000 0.689957 0.344180
O O4 0.221681 0.920995 0.250000
O O5 0.250911 0.880939 0.158024
O O6 0.332486 0.046810 0.192363
O O7 0.000000 0.985323 0.191097
O O8 0.500000 0.203173 0.888200
O O9 0.339940 0.065014 0.924531
O O10 0.500000 0.000000 0.000000
O O11 0.000000 0.655873 0.250000
#
# Coordination Sequence:
#
# PCOD9469441 Si02
#       5
#     8  16  16   8   8
#     4  12  22  40  68  91 125 165 201 255 311 375
#     4  10  18  33  61  90 126 167 204 248 299 364
#     4  10  22  40  61  96 121 160 207 249 309 374
#     4  10  24  48  65  90 127 157 205 272 317 360
#     4  10  20  36  58  89 129 170 205 243 303 365
#
# _framework density 18.066227999999999
#
# number of rings (size 3 to 8) (size 9 to 14) (size 15 to 20)
#    0.857    0.857    5.714    0.000    0.000    3.429 
#    2.571    0.714    0.000    0.000    0.000    0.000 
#    0.000    0.000    0.000    0.000    0.000    0.000 
#
# Total GULP energy -156072.878443 kJ/mol
# GULP energy per Si atom -5574.031373 kJ/mol
# Density = 1.802511 g / cm^3
# Si number density = 18.066228 Si / 1000 Ang^3
#
#
#
# Elastic Constant Matrix: (Units=GPa)
#
#
# Indices 1 2 3 4 5 6 
#
# 1 149.2621 60.7667 35.5076 0.0000 0.0000 0.0000
# 2 60.7667 110.7665 50.8191 0.0000 0.0000 0.0000
# 3 35.5076 50.8191 98.0801 0.0000 0.0000 0.0000
# 4 0.0000 0.0000 0.0000 -0.2651 0.0000 0.0000
# 5 0.0000 0.0000 0.0000 0.0000 -18.8252 0.0000
# 6 0.0000 0.0000 0.0000 0.0000 0.0000 46.0951
#
#
#
# Elastic Compliance Matrix: (Units=1/GPa)
#
#
# Indices 1 2 3 4 5 6 
#
# 1 0.008685 -0.004358 -0.000886 0.000000 0.000000 0.000000
# 2 -0.004358 0.014030 -0.005692 0.000000 0.000000 0.000000
# 3 -0.000886 -0.005692 0.013466 0.000000 0.000000 0.000000
# 4 0.000000 0.000000 0.000000 -3.772406 0.000000 0.000000
# 5 0.000000 0.000000 0.000000 0.000000 -0.053120 0.000000
# 6 0.000000 0.000000 0.000000 0.000000 0.000000 0.021694
#
#
# Mechanical properties :
#
#
# Convention : Reuss Voigt Hill
#
# Bulk Modulus (GPa) = 69.88714 72.47728 71.18221
# Shear Modulus (GPa) = -1.33654 19.46866 9.06606
#
# Velocity S-wave (km/s) = -0.86105 3.28628 2.24257
# Velocity P-wave (km/s) = 6.14649 7.38947 6.79645
#
# Compressibility (1/GPa) = 0.01430878
#
# Stress axis : x y z
#
# Youngs Moduli (GPa) = 115.14707 71.27519 74.26266
#
# Poissons Ratio (x) = 0.31061 0.06580
# Poissons Ratio (y) = 0.50179 0.42270
# Poissons Ratio (z) = 0.10203 0.40569
#
# Static dielectric constant tensor:
#      x y z
#    x 1.450440 0.000000 0.000000 
#    y 0.000000 1.610320 0.000000 
#    z 0.000000 0.000000 1.609770 
# 
# From -- ./inp_files/66226.got.cif
#   From: 2010.05.17/outbox.cif.g08.bks.cpg/sg63_34_cif.got.tgz:66226.got - 2010.06.03 15:47:04.
