data_PCOD9469601
_publ_section_title
;
Structure prediction by ZEFSAII (Michael W. Deem and Ramdas Pophale) SiO2 
 PCOD9469601
Probable space group: C M C M
;
_chemical_formula_sum "Si O2"
_cell_formula_units_Z 80
_cell_length_a 23.050780
_cell_length_b 29.910761
_cell_length_c 9.109011
_cell_angle_alpha 90.000000
_cell_angle_beta 90.000000
_cell_angle_gamma 90.000000
_cell_volume 6280.356762
_symmetry_space_group_name_H-M "C M C M"
_symmetry_group_IT_number 63
_symmetry_cell_setting 'orthorhombic'
loop_
_space_group_symop_operation_xyz
x,y,z
-x,-y,1/2+z
x,-y,-z
-x,y,1/2-z
-x,-y,-z
x,y,1/2-z
-x,y,z
x,-y,1/2+z
1/2+x,1/2+y,z
1/2-x,1/2-y,1/2+z
1/2+x,1/2-y,-z
1/2-x,1/2+y,1/2-z
1/2-x,1/2-y,-z
1/2+x,1/2+y,1/2-z
1/2-x,1/2+y,z
1/2+x,1/2-y,1/2+z
loop_
_atom_site_type_symbol
_atom_site_label
_atom_site_fract_x
_atom_site_fract_y
_atom_site_fract_z
Si Si1 0.759630 0.319297 0.418367
Si Si2 0.569123 0.952517 0.575894
Si Si3 0.931773 0.718290 0.423803
Si Si4 0.873676 0.367424 0.427110
Si Si5 0.837157 0.228352 0.082023
O O1 0.742001 0.327119 0.250000
O O2 0.806419 0.356489 0.464231
O O3 0.797457 0.273384 0.419841
O O4 0.703774 0.310202 0.517105
O O5 0.581163 0.954032 0.750000
O O6 0.500000 0.944013 0.558096
O O7 0.603755 0.912945 0.497418
O O8 0.581701 0.000000 0.500000
O O9 0.921156 0.712545 0.250000
O O10 0.911266 0.673502 0.507521
O O11 0.892572 0.758571 0.485390
O O12 0.000000 0.725473 0.446919
O O13 0.878680 0.367611 0.250000
O O14 0.853432 0.219762 0.250000
#
# Coordination Sequence:
#
# PCOD9469601 Si02
#       5
#    16  16  16  16  16
#     4   8  15  26  38  53  72  93 117 147 184 223
#     4  10  20  32  44  57  74  97 124 155 192 231
#     4  10  19  28  38  53  74 100 127 155 188 224
#     4  10  19  29  42  58  74  94 122 157 193 226
#     4   9  16  25  38  54  71  93 120 151 185 218
#
# _framework density 12.738129000000001
#
# number of rings (size 3 to 8) (size 9 to 14) (size 15 to 20)
#    0.000    2.600    0.000    4.200    0.000   10.800 
#    0.000    0.000    0.000    0.000    0.000    0.000 
#    0.000    0.000    0.000    0.000    0.000    1.000 
#
# Total GULP energy -222842.457516 kJ/mol
# GULP energy per Si atom -5571.061438 kJ/mol
# Density = 1.270914 g / cm^3
# Si number density = 12.738129 Si / 1000 Ang^3
#
#
#
# Elastic Constant Matrix: (Units=GPa)
#
#
# Indices 1 2 3 4 5 6 
#
# 1 73.0927 51.8521 58.7184 0.0000 0.0000 0.0000
# 2 51.8521 63.4470 48.3058 0.0000 0.0000 0.0000
# 3 58.7184 48.3058 87.4361 0.0000 0.0000 0.0000
# 4 0.0000 0.0000 0.0000 17.7838 0.0000 0.0000
# 5 0.0000 0.0000 0.0000 0.0000 21.2375 0.0000
# 6 0.0000 0.0000 0.0000 0.0000 0.0000 24.7424
#
#
#
# Elastic Compliance Matrix: (Units=1/GPa)
#
#
# Indices 1 2 3 4 5 6 
#
# 1 0.042719 -0.022559 -0.016225 0.000000 0.000000 0.000000
# 2 -0.022559 0.039117 -0.006461 0.000000 0.000000 0.000000
# 3 -0.016225 -0.006461 0.025903 0.000000 0.000000 0.000000
# 4 0.000000 0.000000 0.000000 0.056231 0.000000 0.000000
# 5 0.000000 0.000000 0.000000 0.000000 0.047087 0.000000
# 6 0.000000 0.000000 0.000000 0.000000 0.000000 0.040417
#
#
# Mechanical properties :
#
#
# Convention : Reuss Voigt Hill
#
# Bulk Modulus (GPa) = 57.97825 60.19203 59.08514
# Shear Modulus (GPa) = 14.37972 17.09269 15.73621
#
# Velocity S-wave (km/s) = 3.36351 3.66710 3.51859
# Velocity P-wave (km/s) = 7.79093 8.07999 7.93678
#
# Compressibility (1/GPa) = 0.01724785
#
# Stress axis : x y z
#
# Youngs Moduli (GPa) = 23.40887 25.56455 38.60611
#
# Poissons Ratio (x) = 0.57671 0.62639
# Poissons Ratio (y) = 0.52808 0.24944
# Poissons Ratio (z) = 0.37981 0.16518
#
# Static dielectric constant tensor:
#      x y z
#    x 1.412380 0.000000 0.000000 
#    y 0.000000 1.392910 0.000000 
#    z 0.000000 0.000000 1.427620 
# 
# From -- ./inp_files/6646.got.cif
#   From: 2010.05.17/outbox.cif.g08.bks.cpg/sg63_4_cif.got.tgz:6646.got - 2010.06.03 15:47:04.
