data_PCOD9469192
_publ_section_title
;
Structure prediction by ZEFSAII (Michael W. Deem and Ramdas Pophale) SiO2 
 PCOD9469192
Probable space group: C M C M
;
_chemical_formula_sum "Si O2"
_cell_formula_units_Z 120
_cell_length_a 19.408245
_cell_length_b 21.285612
_cell_length_c 16.506317
_cell_angle_alpha 90.000000
_cell_angle_beta 90.000000
_cell_angle_gamma 90.000000
_cell_volume 6819.029805
_symmetry_space_group_name_H-M "C M C M"
_symmetry_group_IT_number 63
_symmetry_cell_setting 'orthorhombic'
loop_
_space_group_symop_operation_xyz
x,y,z
-x,-y,1/2+z
x,-y,-z
-x,y,1/2-z
-x,-y,-z
x,y,1/2-z
-x,y,z
x,-y,1/2+z
1/2+x,1/2+y,z
1/2-x,1/2-y,1/2+z
1/2+x,1/2-y,-z
1/2-x,1/2+y,1/2-z
1/2-x,1/2-y,-z
1/2+x,1/2+y,1/2-z
1/2-x,1/2+y,z
1/2+x,1/2-y,1/2+z
loop_
_atom_site_type_symbol
_atom_site_label
_atom_site_fract_x
_atom_site_fract_y
_atom_site_fract_z
Si Si1 0.889011 0.327841 0.342355
Si Si2 0.806713 0.130950 0.007238
Si Si3 0.223264 0.180248 0.661587
Si Si4 0.921407 0.777505 0.966301
Si Si5 0.323473 0.801658 0.584038
Si Si6 0.924850 0.400378 0.654770
Si Si7 0.637636 0.965521 0.151988
Si Si8 0.761575 0.500000 0.500000
O O1 0.911077 0.322931 0.250000
O O2 0.805767 0.322328 0.346752
O O3 0.920284 0.270987 0.391972
O O4 0.899993 0.399978 0.368926
O O5 0.875785 0.159722 0.046107
O O6 0.743324 0.175686 0.034991
O O7 0.810148 0.140689 0.910471
O O8 0.784539 0.059995 0.024742
O O9 0.204172 0.156466 0.750000
O O10 0.201541 0.252709 0.651402
O O11 0.000000 0.790825 0.989736
O O12 0.877827 0.738067 0.031978
O O13 0.363265 0.862563 0.614506
O O14 0.924456 0.384710 0.750000
O O15 0.911504 0.474350 0.648061
O O16 0.000000 0.383486 0.620825
O O17 0.659882 0.960857 0.250000
O O18 0.693642 0.978538 0.079832
#
# Coordination Sequence:
#
# PCOD9469192 Si02
#       8
#    16  16  16  16  16  16  16   8
#     4  10  19  34  55  80 109 146 182 222 271 329
#     4  11  21  36  57  82 109 137 188 234 275 334
#     4  10  18  31  55  81 108 137 177 234 280 317
#     4  11  22  37  54  79 111 144 178 231 284 334
#     4  11  18  35  54  81 105 142 185 224 267 334
#     4  10  21  35  50  75 115 150 179 221 267 323
#     4  10  21  35  54  83 114 147 192 232 271 332
#     4  12  20  36  60  80 108 150 186 236 290 326
#
# _framework density 17.597812000000001
#
# number of rings (size 3 to 8) (size 9 to 14) (size 15 to 20)
#    0.000    1.467    5.333    1.600    0.000    0.800 
#    0.000    2.667    0.000    3.600    0.000    0.000 
#    0.000    1.067    0.000    0.000    0.000    0.000 
#
# Total GULP energy -334386.247834 kJ/mol
# GULP energy per Si atom -5573.104131 kJ/mol
# Density = 1.755776 g / cm^3
# Si number density = 17.597812 Si / 1000 Ang^3
#
#
#
# Elastic Constant Matrix: (Units=GPa)
#
#
# Indices 1 2 3 4 5 6 
#
# 1 77.2367 20.9347 10.0514 0.0000 0.0000 0.0000
# 2 20.9347 56.4064 10.6242 0.0000 0.0000 0.0000
# 3 10.0514 10.6242 52.4620 0.0000 0.0000 0.0000
# 4 0.0000 0.0000 0.0000 23.0563 0.0000 0.0000
# 5 0.0000 0.0000 0.0000 0.0000 7.2708 0.0000
# 6 0.0000 0.0000 0.0000 0.0000 0.0000 7.1183
#
#
#
# Elastic Compliance Matrix: (Units=1/GPa)
#
#
# Indices 1 2 3 4 5 6 
#
# 1 0.014550 -0.005068 -0.001761 0.000000 0.000000 0.000000
# 2 -0.005068 0.020197 -0.003119 0.000000 0.000000 0.000000
# 3 -0.001761 -0.003119 0.020031 0.000000 0.000000 0.000000
# 4 0.000000 0.000000 0.000000 0.043372 0.000000 0.000000
# 5 0.000000 0.000000 0.000000 0.000000 0.137537 0.000000
# 6 0.000000 0.000000 0.000000 0.000000 0.000000 0.140484
#
#
# Mechanical properties :
#
#
# Convention : Reuss Voigt Hill
#
# Bulk Modulus (GPa) = 28.66961 29.92509 29.29735
# Shear Modulus (GPa) = 12.26407 17.12205 14.69306
#
# Velocity S-wave (km/s) = 2.64277 3.12262 2.89266
# Velocity P-wave (km/s) = 5.06352 5.48114 5.27647
#
# Compressibility (1/GPa) = 0.03488014
#
# Stress axis : x y z
#
# Youngs Moduli (GPa) = 68.72755 49.51220 49.92381
#
# Poissons Ratio (x) = 0.25095 0.08793
# Poissons Ratio (y) = 0.34834 0.15572
# Poissons Ratio (z) = 0.12105 0.15443
#
# Static dielectric constant tensor:
#      x y z
#    x 1.617120 0.000000 0.000000 
#    y 0.000000 1.617590 0.000000 
#    z 0.000000 0.000000 1.647170 
# 
# From -- ./inp_files/46178.got.cif
#   From: 2010.05.17/outbox.cif.g08.bks.cpg/sg63_24_cif.got.tgz:46178.got - 2010.06.03 15:47:04.
