data_PCOD9469703
_publ_section_title
;
Structure prediction by ZEFSAII (Michael W. Deem and Ramdas Pophale) SiO2 
 PCOD9469703
Probable space group: C M C M
;
_chemical_formula_sum "Si O2"
_cell_formula_units_Z 64
_cell_length_a 18.060595
_cell_length_b 20.806103
_cell_length_c 10.188255
_cell_angle_alpha 90.000000
_cell_angle_beta 90.000000
_cell_angle_gamma 90.000000
_cell_volume 3828.446692
_symmetry_space_group_name_H-M "C M C M"
_symmetry_group_IT_number 63
_symmetry_cell_setting 'orthorhombic'
loop_
_space_group_symop_operation_xyz
x,y,z
-x,-y,1/2+z
x,-y,-z
-x,y,1/2-z
-x,-y,-z
x,y,1/2-z
-x,y,z
x,-y,1/2+z
1/2+x,1/2+y,z
1/2-x,1/2-y,1/2+z
1/2+x,1/2-y,-z
1/2-x,1/2+y,1/2-z
1/2-x,1/2-y,-z
1/2+x,1/2+y,1/2-z
1/2-x,1/2+y,z
1/2+x,1/2-y,1/2+z
loop_
_atom_site_type_symbol
_atom_site_label
_atom_site_fract_x
_atom_site_fract_y
_atom_site_fract_z
Si Si1 0.686549 0.785709 0.250000
Si Si2 0.254318 0.423768 0.250000
Si Si3 0.580412 0.902872 0.906260
Si Si4 0.703881 0.000000 0.000000
Si Si5 0.915501 0.257307 0.006210
Si Si6 0.353078 0.693484 0.750000
O O1 0.691815 0.865145 0.250000
O O2 0.643641 0.758265 0.376089
O O3 0.773687 0.768850 0.250000
O O4 0.247124 0.468263 0.121715
O O5 0.328324 0.380823 0.250000
O O6 0.579233 0.904600 0.750000
O O7 0.500000 0.926773 0.955423
O O8 0.586648 0.829775 0.951508
O O9 0.649095 0.944189 0.951873
O O10 0.000000 0.244249 0.050826
O O11 0.894778 0.212542 0.882987
#
# Coordination Sequence:
#
# PCOD9469703 Si02
#       6
#     8   8  16   8  16   8
#     4  10  21  35  50  85 114 147 181 229 279 326
#     4  10  24  33  58  72 111 148 192 231 276 316
#     4  10  19  29  47  74 105 146 182 216 266 322
#     4  12  19  38  46  76 107 152 186 232 260 326
#     4  11  20  35  57  83 116 148 185 230 280 338
#     4  10  21  38  54  83 109 157 191 232 283 334
#
# _framework density 16.716961999999999
#
# number of rings (size 3 to 8) (size 9 to 14) (size 15 to 20)
#    0.750    0.750    5.000    1.875    0.000    0.000 
#    0.000    1.250    0.000    0.000    0.000    3.500 
#    0.000    0.000    0.000    0.000    0.000    0.000 
#
# Total GULP energy -178212.476012 kJ/mol
# GULP energy per Si atom -5569.139875 kJ/mol
# Density = 1.667891 g / cm^3
# Si number density = 16.716962 Si / 1000 Ang^3
#
#
#
# Elastic Constant Matrix: (Units=GPa)
#
#
# Indices 1 2 3 4 5 6 
#
# 1 70.7770 76.9382 24.1524 0.0000 0.0000 0.0000
# 2 76.9382 238.0122 71.3882 0.0000 0.0000 0.0000
# 3 24.1524 71.3882 92.3893 0.0000 0.0000 0.0000
# 4 0.0000 0.0000 0.0000 16.8162 0.0000 0.0000
# 5 0.0000 0.0000 0.0000 0.0000 26.5819 0.0000
# 6 0.0000 0.0000 0.0000 0.0000 0.0000 38.0279
#
#
#
# Elastic Compliance Matrix: (Units=1/GPa)
#
#
# Indices 1 2 3 4 5 6 
#
# 1 0.021791 -0.006945 -0.000330 0.000000 0.000000 0.000000
# 2 -0.006945 0.007682 -0.004120 0.000000 0.000000 0.000000
# 3 -0.000330 -0.004120 0.014094 0.000000 0.000000 0.000000
# 4 0.000000 0.000000 0.000000 0.059466 0.000000 0.000000
# 5 0.000000 0.000000 0.000000 0.000000 0.037620 0.000000
# 6 0.000000 0.000000 0.000000 0.000000 0.000000 0.026296
#
#
# Mechanical properties :
#
#
# Convention : Reuss Voigt Hill
#
# Bulk Modulus (GPa) = 48.13278 82.90398 65.51838
# Shear Modulus (GPa) = 25.42370 31.53185 28.47777
#
# Velocity S-wave (km/s) = 3.90402 4.34777 4.13186
# Velocity P-wave (km/s) = 7.01264 8.65474 7.87660
#
# Compressibility (1/GPa) = 0.02077586
#
# Stress axis : x y z
#
# Youngs Moduli (GPa) = 45.89015 130.16882 70.95228
#
# Poissons Ratio (x) = 0.90402 0.02344
# Poissons Ratio (y) = 0.31871 0.29236
# Poissons Ratio (z) = 0.01516 0.53636
#
# Static dielectric constant tensor:
#      x y z
#    x 1.576030 0.000000 0.000000 
#    y 0.000000 1.546180 0.000000 
#    z 0.000000 0.000000 1.567570 
# 
# From -- ./inp_files/7978.got.cif
#   From: 2010.05.17/outbox.cif.g08.bks.cpg/sg63_4_cif.got.tgz:7978.got - 2010.06.03 15:47:04.
