data_PCOD9469062
_publ_section_title
;
Structure prediction by ZEFSAII (Michael W. Deem and Ramdas Pophale) SiO2 
 PCOD9469062
Probable space group: C M C M
;
_chemical_formula_sum "Si O2"
_cell_formula_units_Z 80
_cell_length_a 7.349023
_cell_length_b 28.464361
_cell_length_c 16.738408
_cell_angle_alpha 90.000000
_cell_angle_beta 90.000000
_cell_angle_gamma 90.000000
_cell_volume 3501.427956
_symmetry_space_group_name_H-M "C M C M"
_symmetry_group_IT_number 63
_symmetry_cell_setting 'orthorhombic'
loop_
_space_group_symop_operation_xyz
x,y,z
-x,-y,1/2+z
x,-y,-z
-x,y,1/2-z
-x,-y,-z
x,y,1/2-z
-x,y,z
x,-y,1/2+z
1/2+x,1/2+y,z
1/2-x,1/2-y,1/2+z
1/2+x,1/2-y,-z
1/2-x,1/2+y,1/2-z
1/2-x,1/2-y,-z
1/2+x,1/2+y,1/2-z
1/2-x,1/2+y,z
1/2+x,1/2-y,1/2+z
loop_
_atom_site_type_symbol
_atom_site_label
_atom_site_fract_x
_atom_site_fract_y
_atom_site_fract_z
Si Si1 0.777556 0.366509 0.427659
Si Si2 0.218284 0.276659 0.162275
Si Si3 0.777929 0.525466 0.917180
Si Si4 0.214719 0.319166 0.909889
Si Si5 0.277474 0.131197 0.250000
Si Si6 0.221536 0.522346 0.250000
O O1 0.720426 0.328628 0.361584
O O2 0.720537 0.420101 0.417753
O O3 0.714505 0.343967 0.511078
O O4 0.000000 0.367239 0.426957
O O5 0.287175 0.262859 0.250000
O O6 0.263423 0.236612 0.098445
O O7 0.000000 0.277918 0.165258
O O8 0.720385 0.501445 0.833673
O O9 0.000000 0.524193 0.917545
O O10 0.721292 0.500000 0.000000
O O11 0.287551 0.342594 0.829268
O O12 0.000000 0.328463 0.911017
O O13 0.500000 0.132828 0.250000
O O14 0.225625 0.076837 0.250000
O O15 0.000000 0.520367 0.250000
#
# Coordination Sequence:
#
# PCOD9469062 Si02
#       6
#    16  16  16  16   8   8
#     4   9  18  29  44  64  92 127 156 188 235 281
#     4  10  20  32  46  67  97 126 156 194 234 279
#     4   9  16  26  40  62  91 124 159 191 230 286
#     4  10  18  31  49  68  93 125 159 194 231 276
#     4   9  16  26  42  65  91 121 155 191 232 271
#     4   9  16  24  39  61  91 125 153 189 238 285
#
# _framework density 22.847821
#
# number of rings (size 3 to 8) (size 9 to 14) (size 15 to 20)
#    0.000    2.600    1.000    1.800    1.400    4.800 
#    0.000    0.000    0.000    0.000    0.000    0.000 
#    0.000   17.600    0.000    0.000    0.000    0.000 
#
# Total GULP energy -223479.938173 kJ/mol
# GULP energy per Si atom -5586.998454 kJ/mol
# Density = 2.279582 g / cm^3
# Si number density = 22.847821 Si / 1000 Ang^3
#
#
#
# Elastic Constant Matrix: (Units=GPa)
#
#
# Indices 1 2 3 4 5 6 
#
# 1 83.3670 -11.0954 0.3394 0.0000 0.0000 0.0000
# 2 -11.0954 169.0269 59.3001 0.0000 0.0000 0.0000
# 3 0.3394 59.3001 127.1870 0.0000 0.0000 0.0000
# 4 0.0000 0.0000 0.0000 6.2473 0.0000 0.0000
# 5 0.0000 0.0000 0.0000 0.0000 -8.9422 0.0000
# 6 0.0000 0.0000 0.0000 0.0000 0.0000 6.8732
#
#
#
# Elastic Compliance Matrix: (Units=1/GPa)
#
#
# Indices 1 2 3 4 5 6 
#
# 1 0.012126 0.000965 -0.000482 0.000000 0.000000 0.000000
# 2 0.000965 0.007150 -0.003336 0.000000 0.000000 0.000000
# 3 -0.000482 -0.003336 0.009419 0.000000 0.000000 0.000000
# 4 0.000000 0.000000 0.000000 0.160069 0.000000 0.000000
# 5 0.000000 0.000000 0.000000 0.000000 -0.111830 0.000000
# 6 0.000000 0.000000 0.000000 0.000000 0.000000 0.145493
#
#
# Mechanical properties :
#
#
# Convention : Reuss Voigt Hill
#
# Bulk Modulus (GPa) = 43.50096 52.96324 48.23210
# Shear Modulus (GPa) = 21.20474 22.90479 22.05476
#
# Velocity S-wave (km/s) = 3.04975 3.16965 3.11028
# Velocity P-wave (km/s) = 5.61089 6.05201 5.83562
#
# Compressibility (1/GPa) = 0.02298800
#
# Stress axis : x y z
#
# Youngs Moduli (GPa) = 82.47034 139.85949 106.16591
#
# Poissons Ratio (x) = -0.13499 0.05121
# Poissons Ratio (y) = -0.07960 0.35419
# Poissons Ratio (z) = 0.03978 0.46660
#
# Static dielectric constant tensor:
#      x y z
#    x 1.938050 0.000000 0.000000 
#    y 0.000000 1.785420 0.000000 
#    z 0.000000 0.000000 1.841330 
# 
# From -- ./inp_files/40577.got.cif
#   From: 2010.05.17/outbox.cif.g08.bks.cpg/sg63_21_cif.got.tgz:40577.got - 2010.06.03 15:47:04.
