data_PCOD9469771
_publ_section_title
;
Structure prediction by ZEFSAII (Michael W. Deem and Ramdas Pophale) SiO2 
 PCOD9469771
Probable space group: C M C M
;
_chemical_formula_sum "Si O2"
_cell_formula_units_Z 112
_cell_length_a 14.010966
_cell_length_b 29.304029
_cell_length_c 14.427675
_cell_angle_alpha 90.000000
_cell_angle_beta 90.000000
_cell_angle_gamma 90.000000
_cell_volume 5923.682397
_symmetry_space_group_name_H-M "C M C M"
_symmetry_group_IT_number 63
_symmetry_cell_setting 'orthorhombic'
loop_
_space_group_symop_operation_xyz
x,y,z
-x,-y,1/2+z
x,-y,-z
-x,y,1/2-z
-x,-y,-z
x,y,1/2-z
-x,y,z
x,-y,1/2+z
1/2+x,1/2+y,z
1/2-x,1/2-y,1/2+z
1/2+x,1/2-y,-z
1/2-x,1/2+y,1/2-z
1/2-x,1/2-y,-z
1/2+x,1/2+y,1/2-z
1/2-x,1/2+y,z
1/2+x,1/2-y,1/2+z
loop_
_atom_site_type_symbol
_atom_site_label
_atom_site_fract_x
_atom_site_fract_y
_atom_site_fract_z
Si Si1 0.792487 0.415906 0.145075
Si Si2 0.888025 0.750855 0.641924
Si Si3 0.392389 0.530039 0.863820
Si Si4 0.758908 0.161396 0.360902
Si Si5 0.613198 0.161379 0.519496
Si Si6 0.701862 0.562350 0.140911
Si Si7 0.607231 0.990499 0.609342
O O1 0.783257 0.397621 0.250000
O O2 0.689831 0.434144 0.109926
O O3 0.839978 0.379817 0.077315
O O4 0.856663 0.461592 0.150031
O O5 0.871823 0.738259 0.750000
O O6 0.824070 0.794709 0.620370
O O7 0.868497 0.707937 0.576380
O O8 0.000000 0.762567 0.632713
O O9 0.389610 0.529400 0.750000
O O10 0.500000 0.540784 0.891996
O O11 0.360441 0.479582 0.897287
O O12 0.742257 0.158944 0.250000
O O13 0.662804 0.164613 0.419997
O O14 0.809289 0.114016 0.391610
O O15 0.500000 0.154145 0.513171
O O16 0.679898 0.563328 0.250000
O O17 0.812311 0.546965 0.129906
O O18 0.500000 0.978471 0.638675
O O19 0.606322 0.000000 0.500000
#
# Coordination Sequence:
#
# PCOD9469771 Si02
#       7
#    16  16  16  16  16  16  16
#     4  10  20  33  52  79 109 143 183 224 268 319
#     4   9  19  37  61  86 108 133 170 218 273 328
#     4   8  15  30  51  74 103 140 180 222 268 316
#     4  10  21  37  56  79 109 143 179 220 267 321
#     4  11  22  36  56  81 110 143 179 222 268 317
#     4   9  18  30  46  70  97 130 172 213 255 306
#     4  10  19  30  45  67  99 138 176 216 260 304
#
# _framework density 18.907157999999999
#
# number of rings (size 3 to 8) (size 9 to 14) (size 15 to 20)
#    0.000    2.429    0.000    3.429    0.000    5.143 
#    0.000    5.000    0.000   15.429    0.000    2.000 
#    0.000    0.000    0.000    0.000    0.000    0.000 
#
# Total GULP energy -312578.892405 kJ/mol
# GULP energy per Si atom -5581.765936 kJ/mol
# Density = 1.886412 g / cm^3
# Si number density = 18.907158 Si / 1000 Ang^3
#
#
#
# Elastic Constant Matrix: (Units=GPa)
#
#
# Indices 1 2 3 4 5 6 
#
# 1 87.2841 54.8930 26.7383 0.0000 0.0000 0.0000
# 2 54.8930 108.3171 36.7321 0.0000 0.0000 0.0000
# 3 26.7383 36.7321 69.9678 0.0000 0.0000 0.0000
# 4 0.0000 0.0000 0.0000 36.4907 0.0000 0.0000
# 5 0.0000 0.0000 0.0000 0.0000 21.9756 0.0000
# 6 0.0000 0.0000 0.0000 0.0000 0.0000 11.0571
#
#
#
# Elastic Compliance Matrix: (Units=1/GPa)
#
#
# Indices 1 2 3 4 5 6 
#
# 1 0.017147 -0.007869 -0.002422 0.000000 0.000000 0.000000
# 2 -0.007869 0.014843 -0.004785 0.000000 0.000000 0.000000
# 3 -0.002422 -0.004785 0.017730 0.000000 0.000000 0.000000
# 4 0.000000 0.000000 0.000000 0.027404 0.000000 0.000000
# 5 0.000000 0.000000 0.000000 0.000000 0.045505 0.000000
# 6 0.000000 0.000000 0.000000 0.000000 0.000000 0.090440
#
#
# Mechanical properties :
#
#
# Convention : Reuss Voigt Hill
#
# Bulk Modulus (GPa) = 51.10270 55.81065 53.45668
# Shear Modulus (GPa) = 20.02056 23.71837 21.86947
#
# Velocity S-wave (km/s) = 3.25759 3.54569 3.40468
# Velocity P-wave (km/s) = 6.42153 6.80771 6.61744
#
# Compressibility (1/GPa) = 0.01956844
#
# Stress axis : x y z
#
# Youngs Moduli (GPa) = 58.31801 67.37395 56.40173
#
# Poissons Ratio (x) = 0.53014 0.13660
# Poissons Ratio (y) = 0.45888 0.26989
# Poissons Ratio (z) = 0.14124 0.32239
#
# Static dielectric constant tensor:
#      x y z
#    x 1.642980 0.000000 0.000000 
#    y 0.000000 1.636030 0.000000 
#    z 0.000000 0.000000 1.754570 
# 
# From -- ./inp_files/32346.got.cif
#   From: 2010.05.17/outbox.cif.g08.bks.cpg/sg63_17_cif.got.tgz:32346.got - 2010.06.03 15:47:04.
