data_PCOD9469323
_publ_section_title
;
Structure prediction by ZEFSAII (Michael W. Deem and Ramdas Pophale) SiO2 
 PCOD9469323
Probable space group: C M C M
;
_chemical_formula_sum "Si O2"
_cell_formula_units_Z 88
_cell_length_a 22.189322
_cell_length_b 23.514684
_cell_length_c 8.687918
_cell_angle_alpha 90.000000
_cell_angle_beta 90.000000
_cell_angle_gamma 90.000000
_cell_volume 4533.137502
_symmetry_space_group_name_H-M "C M C M"
_symmetry_group_IT_number 63
_symmetry_cell_setting 'orthorhombic'
loop_
_space_group_symop_operation_xyz
x,y,z
-x,-y,1/2+z
x,-y,-z
-x,y,1/2-z
-x,-y,-z
x,y,1/2-z
-x,y,z
x,-y,1/2+z
1/2+x,1/2+y,z
1/2-x,1/2-y,1/2+z
1/2+x,1/2-y,-z
1/2-x,1/2+y,1/2-z
1/2-x,1/2-y,-z
1/2+x,1/2+y,1/2-z
1/2-x,1/2+y,z
1/2+x,1/2-y,1/2+z
loop_
_atom_site_type_symbol
_atom_site_label
_atom_site_fract_x
_atom_site_fract_y
_atom_site_fract_z
Si Si1 0.281945 0.344271 0.931107
Si Si2 0.628049 0.435824 0.434068
Si Si3 0.071440 0.324552 0.077722
Si Si4 0.500000 0.564466 0.064903
Si Si5 0.426905 0.942134 0.575304
Si Si6 0.672920 0.229384 0.072536
O O1 0.284758 0.357098 0.750000
O O2 0.213152 0.326054 0.971475
O O3 0.317095 0.394230 0.018758
O O4 0.313042 0.283917 0.969875
O O5 0.636776 0.500000 0.500000
O O6 0.622759 0.439047 0.250000
O O7 0.564216 0.412418 0.503040
O O8 0.092844 0.311033 0.250000
O O9 0.000000 0.317739 0.072899
O O10 0.085652 0.389315 0.033884
O O11 0.104247 0.286437 0.953213
O O12 0.500000 0.564966 0.250000
O O13 0.500000 0.500000 0.000000
O O14 0.404969 0.933512 0.750000
O O15 0.500000 0.946169 0.583947
O O16 0.404062 0.000000 0.500000
O O17 0.687032 0.242623 0.250000
#
# Coordination Sequence:
#
# PCOD9469323 Si02
#       6
#    16  16  16   8  16  16
#     4  10  21  39  61  84 111 146 188 232 281 337
#     4  11  21  36  59  88 121 155 193 235 286 342
#     4  10  20  34  53  78 109 143 180 226 280 333
#     4  10  18  32  54  82 118 156 190 228 279 338
#     4   9  16  27  45  69  98 133 172 213 261 318
#     4  10  21  38  60  83 109 145 189 234 282 338
#
# _framework density 19.412602
#
# number of rings (size 3 to 8) (size 9 to 14) (size 15 to 20)
#    0.000    2.000    0.000    5.727    0.000    5.455 
#    1.636    0.909    0.000    4.364    0.000    0.000 
#    0.000    0.000    0.000    0.000    0.000    0.000 
#
# Total GULP energy -245291.556960 kJ/mol
# GULP energy per Si atom -5574.808113 kJ/mol
# Density = 1.936842 g / cm^3
# Si number density = 19.412602 Si / 1000 Ang^3
#
#
#
# Elastic Constant Matrix: (Units=GPa)
#
#
# Indices 1 2 3 4 5 6 
#
# 1 46.8961 38.2880 30.7042 0.0000 0.0000 0.0000
# 2 38.2880 43.2230 24.0740 0.0000 0.0000 0.0000
# 3 30.7042 24.0740 111.6435 0.0000 0.0000 0.0000
# 4 0.0000 0.0000 0.0000 30.1706 0.0000 0.0000
# 5 0.0000 0.0000 0.0000 0.0000 24.3950 0.0000
# 6 0.0000 0.0000 0.0000 0.0000 0.0000 12.5226
#
#
#
# Elastic Compliance Matrix: (Units=1/GPa)
#
#
# Indices 1 2 3 4 5 6 
#
# 1 0.082752 -0.068904 -0.007901 0.000000 0.000000 0.000000
# 2 -0.068904 0.083666 0.000909 0.000000 0.000000 0.000000
# 3 -0.007901 0.000909 0.010934 0.000000 0.000000 0.000000
# 4 0.000000 0.000000 0.000000 0.033145 0.000000 0.000000
# 5 0.000000 0.000000 0.000000 0.000000 0.040992 0.000000
# 6 0.000000 0.000000 0.000000 0.000000 0.000000 0.079856
#
#
# Mechanical properties :
#
#
# Convention : Reuss Voigt Hill
#
# Bulk Modulus (GPa) = 39.12156 43.09947 41.11052
# Shear Modulus (GPa) = 10.16969 20.66407 15.41688
#
# Velocity S-wave (km/s) = 2.29130 3.26616 2.82116
# Velocity P-wave (km/s) = 5.21503 6.03935 5.64226
#
# Compressibility (1/GPa) = 0.02556135
#
# Stress axis : x y z
#
# Youngs Moduli (GPa) = 12.08423 11.95224 91.45803
#
# Poissons Ratio (x) = 0.82355 0.72258
# Poissons Ratio (y) = 0.83265 -0.08311
# Poissons Ratio (z) = 0.09547 -0.01086
#
# Static dielectric constant tensor:
#      x y z
#    x 1.740220 0.000000 0.000000 
#    y 0.000000 1.666430 0.000000 
#    z 0.000000 0.000000 1.670680 
# 
# From -- ./inp_files/8176.got.cif
#   From: 2010.05.17/outbox.cif.g08.bks.cpg/sg63_5_cif.got.tgz:8176.got - 2010.06.03 15:47:04.
