data_PCOD9469362
_publ_section_title
;
Structure prediction by ZEFSAII (Michael W. Deem and Ramdas Pophale) SiO2 
 PCOD9469362
Probable space group: C M C M
;
_chemical_formula_sum "Si O2"
_cell_formula_units_Z 80
_cell_length_a 15.561181
_cell_length_b 14.063834
_cell_length_c 18.286582
_cell_angle_alpha 90.000000
_cell_angle_beta 90.000000
_cell_angle_gamma 90.000000
_cell_volume 4002.016028
_symmetry_space_group_name_H-M "C M C M"
_symmetry_group_IT_number 63
_symmetry_cell_setting 'orthorhombic'
loop_
_space_group_symop_operation_xyz
x,y,z
-x,-y,1/2+z
x,-y,-z
-x,y,1/2-z
-x,-y,-z
x,y,1/2-z
-x,y,z
x,-y,1/2+z
1/2+x,1/2+y,z
1/2-x,1/2-y,1/2+z
1/2+x,1/2-y,-z
1/2-x,1/2+y,1/2-z
1/2-x,1/2-y,-z
1/2+x,1/2+y,1/2-z
1/2-x,1/2+y,z
1/2+x,1/2-y,1/2+z
loop_
_atom_site_type_symbol
_atom_site_label
_atom_site_fract_x
_atom_site_fract_y
_atom_site_fract_z
Si Si1 0.250442 0.460108 0.669103
Si Si2 0.229159 0.835119 0.117264
Si Si3 0.101923 0.342407 0.611507
Si Si4 0.591149 0.801486 0.056401
Si Si5 0.358046 0.597980 0.471245
O O1 0.268505 0.421877 0.750000
O O2 0.271187 0.572225 0.667466
O O3 0.152976 0.430559 0.647347
O O4 0.308884 0.418742 0.604379
O O5 0.160568 0.750889 0.132399
O O6 0.328230 0.806213 0.109876
O O7 0.207137 0.872595 0.035657
O O8 0.106132 0.350084 0.522918
O O9 0.000000 0.333914 0.630360
O O10 0.500000 0.836314 0.086262
O O11 0.585263 0.690170 0.037131
O O12 0.398456 0.500000 0.500000
#
# Coordination Sequence:
#
# PCOD9469362 Si02
#       5
#    16  16  16  16  16
#     4  11  22  35  56  83 114 155 194 233 292 350
#     4  10  19  37  59  84 117 150 191 242 291 344
#     4  10  20  37  62  88 114 147 193 246 296 345
#     4  10  18  32  59  89 111 144 189 237 295 348
#     4   9  17  34  57  79 111 146 187 240 284 337
#
# _framework density 19.989923999999998
#
# number of rings (size 3 to 8) (size 9 to 14) (size 15 to 20)
#    0.000    2.000    4.000    1.200    0.000    2.400 
#    0.000    5.000    0.000    3.000    0.000    0.000 
#    0.000    0.000    0.000    0.000    0.000    0.000 
#
# Total GULP energy -222689.213445 kJ/mol
# GULP energy per Si atom -5567.230336 kJ/mol
# Density = 1.994443 g / cm^3
# Si number density = 19.989924 Si / 1000 Ang^3
#
#
#
# Elastic Constant Matrix: (Units=GPa)
#
#
# Indices 1 2 3 4 5 6 
#
# 1 114.6336 5.7713 28.7914 0.0000 0.0000 0.0000
# 2 5.7713 8.4537 -0.9944 0.0000 0.0000 0.0000
# 3 28.7914 -0.9944 77.3765 0.0000 0.0000 0.0000
# 4 0.0000 0.0000 0.0000 11.7656 0.0000 0.0000
# 5 0.0000 0.0000 0.0000 0.0000 -0.5069 0.0000
# 6 0.0000 0.0000 0.0000 0.0000 0.0000 -85.8843
#
#
#
# Elastic Compliance Matrix: (Units=1/GPa)
#
#
# Indices 1 2 3 4 5 6 
#
# 1 0.010055 -0.007316 -0.003835 0.000000 0.000000 0.000000
# 2 -0.007316 0.123793 0.004313 0.000000 0.000000 0.000000
# 3 -0.003835 0.004313 0.014406 0.000000 0.000000 0.000000
# 4 0.000000 0.000000 0.000000 0.084993 0.000000 0.000000
# 5 0.000000 0.000000 0.000000 0.000000 -1.972851 0.000000
# 6 0.000000 0.000000 0.000000 0.000000 0.000000 -0.011644
#
#
# Mechanical properties :
#
#
# Convention : Reuss Voigt Hill
#
# Bulk Modulus (GPa) = 7.43059 29.73336 18.58198
# Shear Modulus (GPa) = -2.95384 -3.79874 -3.37629
#
# Velocity S-wave (km/s) = -1.21691 -1.38002 -1.30102
# Velocity P-wave (km/s) = 1.32316 3.51670 2.65687
#
# Compressibility (1/GPa) = 0.13457874
#
# Stress axis : x y z
#
# Youngs Moduli (GPa) = 99.45228 8.07798 69.41352
#
# Poissons Ratio (x) = 0.05910 0.26623
# Poissons Ratio (y) = 0.72756 -0.29939
# Poissons Ratio (z) = 0.38145 -0.03484
#
# Static dielectric constant tensor:
#      x y z
#    x 1.763920 0.000000 0.000000 
#    y 0.000000 1.774530 0.000000 
#    z 0.000000 0.000000 1.701390 
# 
# From -- ./inp_files/53995.got.cif
#   From: 2010.05.17/outbox.cif.g08.bks.cpg/sg63_27_cif.got.tgz:53995.got - 2010.06.03 15:47:04.
