data_PCOD9469281
_publ_section_title
;
Structure prediction by ZEFSAII (Michael W. Deem and Ramdas Pophale) SiO2 
 PCOD9469281
Probable space group: C M C M
;
_chemical_formula_sum "Si O2"
_cell_formula_units_Z 68
_cell_length_a 16.498022
_cell_length_b 8.645945
_cell_length_c 23.951096
_cell_angle_alpha 90.000000
_cell_angle_beta 90.000000
_cell_angle_gamma 90.000000
_cell_volume 3416.408065
_symmetry_space_group_name_H-M "C M C M"
_symmetry_group_IT_number 63
_symmetry_cell_setting 'orthorhombic'
loop_
_space_group_symop_operation_xyz
x,y,z
-x,-y,1/2+z
x,-y,-z
-x,y,1/2-z
-x,-y,-z
x,y,1/2-z
-x,y,z
x,-y,1/2+z
1/2+x,1/2+y,z
1/2-x,1/2-y,1/2+z
1/2+x,1/2-y,-z
1/2-x,1/2+y,1/2-z
1/2-x,1/2-y,-z
1/2+x,1/2+y,1/2-z
1/2-x,1/2+y,z
1/2+x,1/2-y,1/2+z
loop_
_atom_site_type_symbol
_atom_site_label
_atom_site_fract_x
_atom_site_fract_y
_atom_site_fract_z
Si Si1 0.679388 0.595870 0.364905
Si Si2 0.500000 0.336081 0.750000
Si Si3 0.342325 0.454917 0.250000
Si Si4 0.658687 0.965700 0.132774
Si Si5 0.401574 0.104675 0.250000
Si Si6 0.000000 0.449105 0.436595
Si Si7 0.000000 0.861045 0.876103
O O1 0.698895 0.513341 0.305903
O O2 0.761430 0.543577 0.394970
O O3 0.586017 0.549057 0.379164
O O4 0.674394 0.781142 0.363112
O O5 0.576442 0.445568 0.750000
O O6 0.500000 0.272199 0.814178
O O7 0.363865 0.276413 0.250000
O O8 0.630093 0.022626 0.194022
O O9 0.581643 0.002219 0.093989
O O10 0.500000 0.109465 0.250000
O O11 0.000000 0.500000 0.500000
O O12 0.000000 0.264328 0.424954
#
# Coordination Sequence:
#
# PCOD9469281 Si02
#       7
#    16   4   8  16   8   8   8
#     4  10  20  36  57  85 118 159 192 235 288 348
#     4   8  14  28  52  82 114 144 188 228 282 342
#     4  10  18  32  52  87 126 160 184 230 284 348
#     4  11  22  39  59  89 123 157 198 243 293 354
#     4  12  22  34  55  91 124 158 199 233 289 349
#     4  10  22  41  61  82 112 156 202 250 301 350
#     4   8  18  34  57  83 114 151 189 230 298 349
#
# _framework density 19.903943999999999
#
# number of rings (size 3 to 8) (size 9 to 14) (size 15 to 20)
#    0.000    1.882    1.765    2.824    0.000    2.824 
#    2.118    4.706    0.000    0.000    0.000   50.235 
#    0.000    0.000    0.000    0.000    0.000    0.000 
#
# Total GULP energy -189296.127788 kJ/mol
# GULP energy per Si atom -5567.533170 kJ/mol
# Density = 1.985864 g / cm^3
# Si number density = 19.903944 Si / 1000 Ang^3
#
#
#
# Elastic Constant Matrix: (Units=GPa)
#
#
# Indices 1 2 3 4 5 6 
#
# 1 206.2610 41.7435 44.1044 0.0000 0.0000 0.0000
# 2 41.7435 77.4662 9.9144 0.0000 0.0000 0.0000
# 3 44.1044 9.9144 48.7359 0.0000 0.0000 0.0000
# 4 0.0000 0.0000 0.0000 -4.9770 0.0000 0.0000
# 5 0.0000 0.0000 0.0000 0.0000 -1.1503 0.0000
# 6 0.0000 0.0000 0.0000 0.0000 0.0000 44.3040
#
#
#
# Elastic Compliance Matrix: (Units=1/GPa)
#
#
# Indices 1 2 3 4 5 6 
#
# 1 0.006574 -0.002855 -0.005368 0.000000 0.000000 0.000000
# 2 -0.002855 0.014494 -0.000365 0.000000 0.000000 0.000000
# 3 -0.005368 -0.000365 0.025451 0.000000 0.000000 0.000000
# 4 0.000000 0.000000 0.000000 -0.200925 0.000000 0.000000
# 5 0.000000 0.000000 0.000000 0.000000 -0.869349 0.000000
# 6 0.000000 0.000000 0.000000 0.000000 0.000000 0.022571
#
#
# Mechanical properties :
#
#
# Convention : Reuss Voigt Hill
#
# Bulk Modulus (GPa) = 34.08006 58.22086 46.15046
# Shear Modulus (GPa) = -5.13228 23.41540 9.14156
#
# Velocity S-wave (km/s) = -1.60752 3.43362 2.14542
# Velocity P-wave (km/s) = 3.70323 6.71074 5.41978
#
# Compressibility (1/GPa) = 0.02934267
#
# Stress axis : x y z
#
# Youngs Moduli (GPa) = 152.11379 68.99320 39.29100
#
# Poissons Ratio (x) = 0.19700 0.21093
# Poissons Ratio (y) = 0.43435 0.01432
# Poissons Ratio (z) = 0.81661 0.02515
#
# Static dielectric constant tensor:
#      x y z
#    x 1.745200 0.000000 0.000000 
#    y 0.000000 1.696500 0.000000 
#    z 0.000000 0.000000 1.844630 
# 
# From -- ./inp_files/55163.got.cif
#   From: 2010.05.17/outbox.cif.g08.bks.cpg/sg63_28_cif.got.tgz:55163.got - 2010.06.03 15:47:04.
