data_PCOD9469108
_publ_section_title
;
Structure prediction by ZEFSAII (Michael W. Deem and Ramdas Pophale) SiO2 
 PCOD9469108
Probable space group: C M C M
;
_chemical_formula_sum "Si O2"
_cell_formula_units_Z 128
_cell_length_a 23.086434
_cell_length_b 13.809993
_cell_length_c 23.324838
_cell_angle_alpha 90.000000
_cell_angle_beta 90.000000
_cell_angle_gamma 90.000000
_cell_volume 7436.506300
_symmetry_space_group_name_H-M "C M C M"
_symmetry_group_IT_number 63
_symmetry_cell_setting 'orthorhombic'
loop_
_space_group_symop_operation_xyz
x,y,z
-x,-y,1/2+z
x,-y,-z
-x,y,1/2-z
-x,-y,-z
x,y,1/2-z
-x,y,z
x,-y,1/2+z
1/2+x,1/2+y,z
1/2-x,1/2-y,1/2+z
1/2+x,1/2-y,-z
1/2-x,1/2+y,1/2-z
1/2-x,1/2-y,-z
1/2+x,1/2+y,1/2-z
1/2-x,1/2+y,z
1/2+x,1/2-y,1/2+z
loop_
_atom_site_type_symbol
_atom_site_label
_atom_site_fract_x
_atom_site_fract_y
_atom_site_fract_z
Si Si1 0.666631 0.259237 0.315668
Si Si2 0.563166 0.889803 0.976476
Si Si3 0.257822 0.638735 0.388672
Si Si4 0.768838 0.945295 0.316153
Si Si5 0.324918 0.181394 0.871367
Si Si6 0.434556 0.123221 0.339242
Si Si7 0.931375 0.407203 0.184536
Si Si8 0.690534 0.115664 0.503647
O O1 0.685612 0.245855 0.250000
O O2 0.705887 0.193497 0.356221
O O3 0.677739 0.372082 0.328547
O O4 0.603296 0.214787 0.322301
O O5 0.500000 0.847714 0.994200
O O6 0.564634 0.889708 0.907732
O O7 0.625076 0.844380 0.993147
O O8 0.563189 0.000000 0.000000
O O9 0.264253 0.533174 0.360742
O O10 0.313414 0.704426 0.373989
O O11 0.237709 0.641122 0.455171
O O12 0.771656 0.979255 0.250000
O O13 0.713185 0.874961 0.324037
O O14 0.390588 0.150117 0.859308
O O15 0.297870 0.144492 0.931316
O O16 0.500000 0.134278 0.318745
O O17 0.412070 0.019889 0.316637
O O18 0.925261 0.371324 0.250000
O O19 0.000000 0.405270 0.169475
O O20 0.686145 0.000000 0.500000
#
# Coordination Sequence:
#
# PCOD9469108 Si02
#       8
#    16  16  16  16  16  16  16  16
#     4  10  20  33  51  76 103 131 170 215 258 312
#     4   9  17  28  45  71 103 137 170 202 247 310
#     4  11  21  36  52  74 103 140 180 215 258 314
#     4  10  21  36  53  73 101 136 173 218 262 303
#     4  11  22  34  54  78 105 138 176 216 262 314
#     4  10  18  31  51  76 106 137 166 208 263 313
#     4  10  20  33  51  79 112 140 169 211 264 322
#     4  11  19  33  52  73 108 143 172 219 266 309
#
# _framework density 17.212384
#
# number of rings (size 3 to 8) (size 9 to 14) (size 15 to 20)
#    0.000    1.750    2.500    3.750    0.000    3.750 
#    0.000    0.000    0.000    0.750    0.000    0.000 
#    0.000    2.500    0.000    0.000    0.000    0.000 
#
# Total GULP energy -356576.424912 kJ/mol
# GULP energy per Si atom -5571.506639 kJ/mol
# Density = 1.717321 g / cm^3
# Si number density = 17.212384 Si / 1000 Ang^3
#
#
#
# Elastic Constant Matrix: (Units=GPa)
#
#
# Indices 1 2 3 4 5 6 
#
# 1 59.1202 28.5948 11.8069 0.0000 0.0000 0.0000
# 2 28.5948 65.1541 25.1726 0.0000 0.0000 0.0000
# 3 11.8069 25.1726 77.9468 0.0000 0.0000 0.0000
# 4 0.0000 0.0000 0.0000 14.2747 0.0000 0.0000
# 5 0.0000 0.0000 0.0000 0.0000 21.9723 0.0000
# 6 0.0000 0.0000 0.0000 0.0000 0.0000 0.7472
#
#
#
# Elastic Compliance Matrix: (Units=1/GPa)
#
#
# Indices 1 2 3 4 5 6 
#
# 1 0.021477 -0.009333 -0.000239 0.000000 0.000000 0.000000
# 2 -0.009333 0.021592 -0.005559 0.000000 0.000000 0.000000
# 3 -0.000239 -0.005559 0.014661 0.000000 0.000000 0.000000
# 4 0.000000 0.000000 0.000000 0.070054 0.000000 0.000000
# 5 0.000000 0.000000 0.000000 0.000000 0.045512 0.000000
# 6 0.000000 0.000000 0.000000 0.000000 0.000000 1.338405
#
#
# Mechanical properties :
#
#
# Convention : Reuss Voigt Hill
#
# Bulk Modulus (GPa) = 36.40810 37.04108 36.72459
# Shear Modulus (GPa) = 3.22348 16.50862 9.86605
#
# Velocity S-wave (km/s) = 1.36998 3.10031 2.39675
# Velocity P-wave (km/s) = 4.86833 5.86367 5.38903
#
# Compressibility (1/GPa) = 0.02746641
#
# Stress axis : x y z
#
# Youngs Moduli (GPa) = 46.56205 46.31271 68.20889
#
# Poissons Ratio (x) = 0.43225 0.01630
# Poissons Ratio (y) = 0.43458 0.37920
# Poissons Ratio (z) = 0.01113 0.25747
#
# Static dielectric constant tensor:
#      x y z
#    x 1.633380 0.000000 0.000000 
#    y 0.000000 1.597660 0.000000 
#    z 0.000000 0.000000 1.640870 
# 
# From -- ./inp_files/65581.got.cif
#   From: 2010.05.17/outbox.cif.g08.bks.cpg/sg63_33_cif.got.tgz:65581.got - 2010.06.03 15:47:04.
