data_PCOD9469095
_publ_section_title
;
Structure prediction by ZEFSAII (Michael W. Deem and Ramdas Pophale) SiO2 
 PCOD9469095
Probable space group: C M C M
;
_chemical_formula_sum "Si O2"
_cell_formula_units_Z 72
_cell_length_a 16.717358
_cell_length_b 28.887864
_cell_length_c 8.629845
_cell_angle_alpha 90.000000
_cell_angle_beta 90.000000
_cell_angle_gamma 90.000000
_cell_volume 4167.600382
_symmetry_space_group_name_H-M "C M C M"
_symmetry_group_IT_number 63
_symmetry_cell_setting 'orthorhombic'
loop_
_space_group_symop_operation_xyz
x,y,z
-x,-y,1/2+z
x,-y,-z
-x,y,1/2-z
-x,-y,-z
x,y,1/2-z
-x,y,z
x,-y,1/2+z
1/2+x,1/2+y,z
1/2-x,1/2-y,1/2+z
1/2+x,1/2-y,-z
1/2-x,1/2+y,1/2-z
1/2-x,1/2-y,-z
1/2+x,1/2+y,1/2-z
1/2-x,1/2+y,z
1/2+x,1/2-y,1/2+z
loop_
_atom_site_type_symbol
_atom_site_label
_atom_site_fract_x
_atom_site_fract_y
_atom_site_fract_z
Si Si1 0.676488 0.947729 0.936624
Si Si2 0.910006 0.807505 0.564864
Si Si3 0.500000 0.947968 0.563740
Si Si4 0.256626 0.360895 0.434543
Si Si5 0.672014 0.776655 0.564843
O O1 0.681438 0.948435 0.750000
O O2 0.587125 0.929431 0.983158
O O3 0.740523 0.912445 0.005816
O O4 0.684939 0.000000 0.000000
O O5 0.898790 0.806320 0.750000
O O6 0.840750 0.839681 0.493498
O O7 0.898400 0.755398 0.499901
O O8 0.000000 0.823603 0.530189
O O9 0.500000 0.948756 0.750000
O O10 0.500000 0.000000 0.500000
O O11 0.254857 0.358441 0.250000
O O12 0.186192 0.328186 0.503363
O O13 0.671452 0.776458 0.750000
O O14 0.750000 0.750000 0.500000
#
# Coordination Sequence:
#
# PCOD9469095 Si02
#       5
#    16  16   8  16  16
#     4  10  19  34  54  78 106 138 176 217 262 311
#     4  10  20  35  55  78 105 137 174 217 264 314
#     4   8  16  30  50  72  98 130 164 206 252 300
#     4  11  21  34  53  77 106 141 178 216 260 309
#     4  10  18  31  51  73 100 133 168 210 256 305
#
# _framework density 17.276129999999998
#
# number of rings (size 3 to 8) (size 9 to 14) (size 15 to 20)
#    0.000    2.000    0.000    8.000    0.000    2.667 
#    2.000    0.000    0.000    0.667    0.000    0.000 
#    0.000    0.000    0.000    0.000    0.000    0.000 
#
# Total GULP energy -200632.131086 kJ/mol
# GULP energy per Si atom -5573.114752 kJ/mol
# Density = 1.723681 g / cm^3
# Si number density = 17.276130 Si / 1000 Ang^3
#
#
#
# Elastic Constant Matrix: (Units=GPa)
#
#
# Indices 1 2 3 4 5 6 
#
# 1 96.1633 51.2064 47.3159 0.0000 0.0000 0.0000
# 2 51.2064 102.3422 42.6844 0.0000 0.0000 0.0000
# 3 47.3159 42.6844 116.6703 0.0000 0.0000 0.0000
# 4 0.0000 0.0000 0.0000 27.2499 0.0000 0.0000
# 5 0.0000 0.0000 0.0000 0.0000 20.2105 0.0000
# 6 0.0000 0.0000 0.0000 0.0000 0.0000 24.8464
#
#
#
# Elastic Compliance Matrix: (Units=1/GPa)
#
#
# Indices 1 2 3 4 5 6 
#
# 1 0.015692 -0.006133 -0.004120 0.000000 0.000000 0.000000
# 2 -0.006133 0.013928 -0.002608 0.000000 0.000000 0.000000
# 3 -0.004120 -0.002608 0.011196 0.000000 0.000000 0.000000
# 4 0.000000 0.000000 0.000000 0.036697 0.000000 0.000000
# 5 0.000000 0.000000 0.000000 0.000000 0.049479 0.000000
# 6 0.000000 0.000000 0.000000 0.000000 0.000000 0.040247
#
#
# Mechanical properties :
#
#
# Convention : Reuss Voigt Hill
#
# Bulk Modulus (GPa) = 66.25504 66.39878 66.32691
# Shear Modulus (GPa) = 25.25333 26.05929 25.65631
#
# Velocity S-wave (km/s) = 3.82743 3.88802 3.85785
# Velocity P-wave (km/s) = 7.61355 7.65982 7.63672
#
# Compressibility (1/GPa) = 0.01509319
#
# Stress axis : x y z
#
# Youngs Moduli (GPa) = 63.72652 71.79993 89.31495
#
# Poissons Ratio (x) = 0.44035 0.36799
# Poissons Ratio (y) = 0.39084 0.23295
# Poissons Ratio (z) = 0.26256 0.18727
#
# Static dielectric constant tensor:
#      x y z
#    x 1.604930 0.000000 0.000000 
#    y 0.000000 1.583700 0.000000 
#    z 0.000000 0.000000 1.571910 
# 
# From -- ./inp_files/6129.got.cif
#   From: 2010.05.17/outbox.cif.g08.bks.cpg/sg63_4_cif.got.tgz:6129.got - 2010.06.03 15:47:04.
