data_PCOD9469026
_publ_section_title
;
Structure prediction by ZEFSAII (Michael W. Deem and Ramdas Pophale) SiO2 
 PCOD9469026
Probable space group: C M C M
;
_chemical_formula_sum "Si O2"
_cell_formula_units_Z 112
_cell_length_a 13.870879
_cell_length_b 12.102158
_cell_length_c 30.022829
_cell_angle_alpha 90.000000
_cell_angle_beta 90.000000
_cell_angle_gamma 90.000000
_cell_volume 5039.859326
_symmetry_space_group_name_H-M "C M C M"
_symmetry_group_IT_number 63
_symmetry_cell_setting 'orthorhombic'
loop_
_space_group_symop_operation_xyz
x,y,z
-x,-y,1/2+z
x,-y,-z
-x,y,1/2-z
-x,-y,-z
x,y,1/2-z
-x,y,z
x,-y,1/2+z
1/2+x,1/2+y,z
1/2-x,1/2-y,1/2+z
1/2+x,1/2-y,-z
1/2-x,1/2+y,1/2-z
1/2-x,1/2-y,-z
1/2+x,1/2+y,1/2-z
1/2-x,1/2+y,z
1/2+x,1/2-y,1/2+z
loop_
_atom_site_type_symbol
_atom_site_label
_atom_site_fract_x
_atom_site_fract_y
_atom_site_fract_z
Si Si1 0.798948 0.698696 0.200619
Si Si2 0.707591 0.448011 0.200928
Si Si3 0.618070 0.286836 0.939463
Si Si4 0.115328 0.662035 0.394325
Si Si5 0.882082 0.462019 0.450512
Si Si6 0.384403 0.515946 0.388678
Si Si7 0.117466 0.151467 0.536901
O O1 0.846697 0.702527 0.250000
O O2 0.756353 0.571840 0.200244
O O3 0.745439 0.822021 0.199007
O O4 0.857230 0.697575 0.154877
O O5 0.659023 0.447968 0.250000
O O6 0.647203 0.456975 0.155976
O O7 0.500000 0.286678 0.939691
O O8 0.649445 0.161242 0.940263
O O9 0.648466 0.357985 0.896761
O O10 0.649708 0.339693 0.986306
O O11 0.148073 0.541652 0.410432
O O12 0.146487 0.743130 0.433934
O O13 0.000000 0.662670 0.395888
O O14 0.852338 0.500000 0.500000
O O15 0.000000 0.462549 0.451685
O O16 0.500000 0.515638 0.388173
O O17 0.354239 0.451846 0.433243
O O18 0.000000 0.149897 0.534745
#
# Coordination Sequence:
#
# PCOD9469026 Si02
#       7
#    16  16  16  16  16  16  16
#     4  10  22  40  60  80 104 140 182 221 271 332
#     4  10  22  40  60  79 103 140 182 224 272 328
#     4   9  16  26  44  75 114 148 176 208 255 319
#     4  10  18  30  54  84 110 135 171 223 270 306
#     4   9  15  25  43  71 109 146 175 207 251 309
#     4  10  19  31  52  83 111 137 175 223 272 314
#     4   9  15  26  46  77 111 138 167 209 260 309
#
# _framework density 22.222842
#
# number of rings (size 3 to 8) (size 9 to 14) (size 15 to 20)
#    0.000    2.429    2.857    0.429    0.000    3.429 
#    0.000    1.429    0.000    2.571    0.000    8.000 
#    0.000    0.000    0.000    0.000    0.000    0.000 
#
# Total GULP energy -311913.573424 kJ/mol
# GULP energy per Si atom -5569.885240 kJ/mol
# Density = 2.217226 g / cm^3
# Si number density = 22.222842 Si / 1000 Ang^3
#
#
#
# Elastic Constant Matrix: (Units=GPa)
#
#
# Indices 1 2 3 4 5 6 
#
# 1 48.5329 24.5160 19.2034 0.0000 0.0000 0.0000
# 2 24.5160 181.8027 69.8141 0.0000 0.0000 0.0000
# 3 19.2034 69.8141 144.4010 0.0000 0.0000 0.0000
# 4 0.0000 0.0000 0.0000 35.5014 0.0000 0.0000
# 5 0.0000 0.0000 0.0000 0.0000 18.0834 0.0000
# 6 0.0000 0.0000 0.0000 0.0000 0.0000 22.5812
#
#
#
# Elastic Compliance Matrix: (Units=1/GPa)
#
#
# Indices 1 2 3 4 5 6 
#
# 1 0.022516 -0.002317 -0.001874 0.000000 0.000000 0.000000
# 2 -0.002317 0.006993 -0.003073 0.000000 0.000000 0.000000
# 3 -0.001874 -0.003073 0.008660 0.000000 0.000000 0.000000
# 4 0.000000 0.000000 0.000000 0.028168 0.000000 0.000000
# 5 0.000000 0.000000 0.000000 0.000000 0.055299 0.000000
# 6 0.000000 0.000000 0.000000 0.000000 0.000000 0.044285
#
#
# Mechanical properties :
#
#
# Convention : Reuss Voigt Hill
#
# Bulk Modulus (GPa) = 42.29788 66.86707 54.58247
# Shear Modulus (GPa) = 26.54925 32.64673 29.59799
#
# Velocity S-wave (km/s) = 3.46017 3.83699 3.65344
# Velocity P-wave (km/s) = 5.91933 7.05583 6.51242
#
# Compressibility (1/GPa) = 0.02364185
#
# Stress axis : x y z
#
# Youngs Moduli (GPa) = 44.41204 143.00354 115.47290
#
# Poissons Ratio (x) = 0.33127 0.21644
# Poissons Ratio (y) = 0.10288 0.35482
# Poissons Ratio (z) = 0.08325 0.43942
#
# Static dielectric constant tensor:
#      x y z
#    x 1.881850 0.000000 0.000000 
#    y 0.000000 1.922170 0.000000 
#    z 0.000000 0.000000 1.742060 
# 
# From -- ./inp_files/64633.got.cif
#   From: 2010.05.17/outbox.cif.g08.bks.cpg/sg63_33_cif.got.tgz:64633.got - 2010.06.03 15:47:04.
