data_PCOD9469998
_publ_section_title
;
Structure prediction by ZEFSAII (Michael W. Deem and Ramdas Pophale) SiO2 
 PCOD9469998
Probable space group: C M C M
;
_chemical_formula_sum "Si O2"
_cell_formula_units_Z 80
_cell_length_a 18.603584
_cell_length_b 28.160018
_cell_length_c 8.414668
_cell_angle_alpha 90.000000
_cell_angle_beta 90.000000
_cell_angle_gamma 90.000000
_cell_volume 4408.253218
_symmetry_space_group_name_H-M "C M C M"
_symmetry_group_IT_number 63
_symmetry_cell_setting 'orthorhombic'
loop_
_space_group_symop_operation_xyz
x,y,z
-x,-y,1/2+z
x,-y,-z
-x,y,1/2-z
-x,-y,-z
x,y,1/2-z
-x,y,z
x,-y,1/2+z
1/2+x,1/2+y,z
1/2-x,1/2-y,1/2+z
1/2+x,1/2-y,-z
1/2-x,1/2+y,1/2-z
1/2-x,1/2-y,-z
1/2+x,1/2+y,1/2-z
1/2-x,1/2+y,z
1/2+x,1/2-y,1/2+z
loop_
_atom_site_type_symbol
_atom_site_label
_atom_site_fract_x
_atom_site_fract_y
_atom_site_fract_z
Si Si1 0.627947 0.184783 0.940606
Si Si2 0.785042 0.848669 0.443264
Si Si3 0.079015 0.583913 0.439552
Si Si4 0.730577 0.949503 0.061122
Si Si5 0.580501 0.287383 0.057623
O O1 0.622198 0.180880 0.750000
O O2 0.712365 0.179886 0.984930
O O3 0.588900 0.139401 0.016452
O O4 0.596802 0.234455 0.997721
O O5 0.787734 0.849842 0.250000
O O6 0.772589 0.902742 0.499092
O O7 0.856647 0.822539 0.499597
O O8 0.082605 0.578586 0.250000
O O9 0.147183 0.557689 0.514075
O O10 0.000000 0.567988 0.495111
O O11 0.734835 0.949225 0.250000
O O12 0.756966 0.000000 0.000000
O O13 0.582740 0.286663 0.250000
O O14 0.500000 0.301587 0.008908
#
# Coordination Sequence:
#
# PCOD9469998 Si02
#       5
#    16  16  16  16  16
#     4  10  19  31  48  70 100 135 166 197 233 279
#     4   8  17  33  50  70  95 125 162 199 237 283
#     4  10  20  33  49  71 100 132 165 199 234 277
#     4  10  20  35  54  73  94 122 159 202 245 290
#     4  10  19  31  49  72  98 128 162 200 240 284
#
# _framework density 18.147777000000001
#
# number of rings (size 3 to 8) (size 9 to 14) (size 15 to 20)
#    0.000    2.400    0.000    4.200    0.000    4.800 
#    0.000    5.000    0.000    0.600    0.000    0.000 
#    0.000    0.000    0.000    0.000    0.000    0.800 
#
# Total GULP energy -223225.864881 kJ/mol
# GULP energy per Si atom -5580.646622 kJ/mol
# Density = 1.810647 g / cm^3
# Si number density = 18.147777 Si / 1000 Ang^3
#
#
#
# Elastic Constant Matrix: (Units=GPa)
#
#
# Indices 1 2 3 4 5 6 
#
# 1 64.6777 15.2774 4.3531 0.0000 0.0000 0.0000
# 2 15.2774 62.6994 0.6709 0.0000 0.0000 0.0000
# 3 4.3531 0.6709 19.5746 0.0000 0.0000 0.0000
# 4 0.0000 0.0000 0.0000 25.5480 0.0000 0.0000
# 5 0.0000 0.0000 0.0000 0.0000 14.0375 0.0000
# 6 0.0000 0.0000 0.0000 0.0000 0.0000 0.5431
#
#
#
# Elastic Compliance Matrix: (Units=1/GPa)
#
#
# Indices 1 2 3 4 5 6 
#
# 1 0.016651 -0.004019 -0.003565 0.000000 0.000000 0.000000
# 2 -0.004019 0.016925 0.000314 0.000000 0.000000 0.000000
# 3 -0.003565 0.000314 0.051869 0.000000 0.000000 0.000000
# 4 0.000000 0.000000 0.000000 0.039142 0.000000 0.000000
# 5 0.000000 0.000000 0.000000 0.000000 0.071238 0.000000
# 6 0.000000 0.000000 0.000000 0.000000 0.000000 1.841369
#
#
# Mechanical properties :
#
#
# Convention : Reuss Voigt Hill
#
# Bulk Modulus (GPa) = 14.10366 20.83938 17.47152
# Shear Modulus (GPa) = 2.40921 16.46907 9.43914
#
# Velocity S-wave (km/s) = 1.15344 3.01574 2.28310
# Velocity P-wave (km/s) = 3.09230 4.86151 4.07411
#
# Compressibility (1/GPa) = 0.07090357
#
# Stress axis : x y z
#
# Youngs Moduli (GPa) = 60.05816 59.08414 19.27948
#
# Poissons Ratio (x) = 0.23746 0.06873
# Poissons Ratio (y) = 0.24137 -0.00605
# Poissons Ratio (z) = 0.21411 -0.01853
#
# Static dielectric constant tensor:
#      x y z
#    x 1.635820 0.000000 0.000000 
#    y 0.000000 1.616690 0.000000 
#    z 0.000000 0.000000 1.619310 
# 
# From -- ./inp_files/6353.got.cif
#   From: 2010.05.17/outbox.cif.g08.bks.cpg/sg63_4_cif.got.tgz:6353.got - 2010.06.03 15:47:04.
