data_PCOD9469199
_publ_section_title
;
Structure prediction by ZEFSAII (Michael W. Deem and Ramdas Pophale) SiO2 
 PCOD9469199
Probable space group: C M C M
;
_chemical_formula_sum "Si O2"
_cell_formula_units_Z 112
_cell_length_a 24.923826
_cell_length_b 14.278260
_cell_length_c 17.894145
_cell_angle_alpha 90.000000
_cell_angle_beta 90.000000
_cell_angle_gamma 90.000000
_cell_volume 6367.969122
_symmetry_space_group_name_H-M "C M C M"
_symmetry_group_IT_number 63
_symmetry_cell_setting 'orthorhombic'
loop_
_space_group_symop_operation_xyz
x,y,z
-x,-y,1/2+z
x,-y,-z
-x,y,1/2-z
-x,-y,-z
x,y,1/2-z
-x,y,z
x,-y,1/2+z
1/2+x,1/2+y,z
1/2-x,1/2-y,1/2+z
1/2+x,1/2-y,-z
1/2-x,1/2+y,1/2-z
1/2-x,1/2-y,-z
1/2+x,1/2+y,1/2-z
1/2-x,1/2+y,z
1/2+x,1/2-y,1/2+z
loop_
_atom_site_type_symbol
_atom_site_label
_atom_site_fract_x
_atom_site_fract_y
_atom_site_fract_z
Si Si1 0.117347 0.989328 0.088849
Si Si2 0.000000 0.971904 0.411527
Si Si3 0.604494 0.137873 0.163839
Si Si4 0.717286 0.596552 0.160031
Si Si5 0.788482 0.314484 0.162499
Si Si6 0.663533 0.324204 0.334029
Si Si7 0.000000 0.235922 0.659573
Si Si8 0.322050 0.002685 0.911596
O O1 0.057069 0.011667 0.115841
O O2 0.128917 0.881391 0.107994
O O3 0.164188 0.044914 0.130474
O O4 0.121252 0.000000 0.000000
O O5 0.000000 0.861122 0.387633
O O6 0.000000 0.000000 0.500000
O O7 0.598579 0.106972 0.250000
O O8 0.652080 0.214643 0.160922
O O9 0.551763 0.198377 0.144344
O O10 0.624635 0.052319 0.114273
O O11 0.721593 0.590096 0.250000
O O12 0.710450 0.706011 0.139272
O O13 0.770246 0.549070 0.125036
O O14 0.803235 0.319863 0.250000
O O15 0.726020 0.343413 0.156328
O O16 0.821584 0.390215 0.116521
O O17 0.647350 0.353382 0.250000
O O18 0.000000 0.214207 0.750000
O O19 0.316237 0.000000 0.000000
#
# Coordination Sequence:
#
# PCOD9469199 Si02
#       8
#    16   8  16  16  16  16   8  16
#     4  11  22  35  53  81 119 151 184 225 284 348
#     4  10  22  38  54  86 122 152 182 229 304 346
#     4  10  20  37  59  85 113 142 188 248 291 329
#     4  11  22  37  56  80 112 154 193 232 280 333
#     4  10  21  36  55  80 114 154 191 228 278 335
#     4  10  18  31  56  83 107 145 190 233 278 329
#     4  10  20  36  65  92 108 145 205 252 287 331
#     4  12  24  36  55  86 119 151 189 228 290 351
#
# _framework density 17.588025999999999
#
# number of rings (size 3 to 8) (size 9 to 14) (size 15 to 20)
#    0.000    1.429    4.286    2.143    0.000    2.286 
#    0.000    0.357    0.000    0.857    0.000    1.000 
#    0.000    0.000    0.000    0.000    0.000    0.000 
#
# Total GULP energy -312302.355917 kJ/mol
# GULP energy per Si atom -5576.827784 kJ/mol
# Density = 1.754799 g / cm^3
# Si number density = 17.588026 Si / 1000 Ang^3
#
#
#
# Elastic Constant Matrix: (Units=GPa)
#
#
# Indices 1 2 3 4 5 6 
#
# 1 77.8607 33.4183 31.1401 0.0000 0.0000 0.0000
# 2 33.4183 87.2009 42.9138 0.0000 0.0000 0.0000
# 3 31.1401 42.9138 66.2697 0.0000 0.0000 0.0000
# 4 0.0000 0.0000 0.0000 -24.8208 0.0000 0.0000
# 5 0.0000 0.0000 0.0000 0.0000 20.3719 0.0000
# 6 0.0000 0.0000 0.0000 0.0000 0.0000 23.9997
#
#
#
# Elastic Compliance Matrix: (Units=1/GPa)
#
#
# Indices 1 2 3 4 5 6 
#
# 1 0.016592 -0.003701 -0.005400 0.000000 0.000000 0.000000
# 2 -0.003701 0.017657 -0.009695 0.000000 0.000000 0.000000
# 3 -0.005400 -0.009695 0.023905 0.000000 0.000000 0.000000
# 4 0.000000 0.000000 0.000000 -0.040289 0.000000 0.000000
# 5 0.000000 0.000000 0.000000 0.000000 0.049087 0.000000
# 6 0.000000 0.000000 0.000000 0.000000 0.000000 0.041667
#
#
# Mechanical properties :
#
#
# Convention : Reuss Voigt Hill
#
# Bulk Modulus (GPa) = 48.63221 49.58620 49.10920
# Shear Modulus (GPa) = 32.66569 12.16744 22.41657
#
# Velocity S-wave (km/s) = 4.31428 2.63307 3.57394
# Velocity P-wave (km/s) = 7.24763 6.12360 6.70919
#
# Compressibility (1/GPa) = 0.02056250
#
# Stress axis : x y z
#
# Youngs Moduli (GPa) = 60.27160 56.63355 41.83167
#
# Poissons Ratio (x) = 0.20961 0.22588
# Poissons Ratio (y) = 0.22307 0.40556
# Poissons Ratio (z) = 0.32544 0.54907
#
# Static dielectric constant tensor:
#      x y z
#    x 1.618260 0.000000 0.000000 
#    y 0.000000 1.619800 0.000000 
#    z 0.000000 0.000000 1.563700 
# 
# From -- ./inp_files/37999.got.cif
#   From: 2010.05.17/outbox.cif.g08.bks.cpg/sg63_19_cif.got.tgz:37999.got - 2010.06.03 15:47:04.
