data_PCOD9469265
_publ_section_title
;
Structure prediction by ZEFSAII (Michael W. Deem and Ramdas Pophale) SiO2 
 PCOD9469265
Probable space group: C M C M
;
_chemical_formula_sum "Si O2"
_cell_formula_units_Z 64
_cell_length_a 14.117199
_cell_length_b 29.052400
_cell_length_c 8.437635
_cell_angle_alpha 90.000000
_cell_angle_beta 90.000000
_cell_angle_gamma 90.000000
_cell_volume 3460.599066
_symmetry_space_group_name_H-M "C M C M"
_symmetry_group_IT_number 63
_symmetry_cell_setting 'orthorhombic'
loop_
_space_group_symop_operation_xyz
x,y,z
-x,-y,1/2+z
x,-y,-z
-x,y,1/2-z
-x,-y,-z
x,y,1/2-z
-x,y,z
x,-y,1/2+z
1/2+x,1/2+y,z
1/2-x,1/2-y,1/2+z
1/2+x,1/2-y,-z
1/2-x,1/2+y,1/2-z
1/2-x,1/2-y,-z
1/2+x,1/2+y,1/2-z
1/2-x,1/2+y,z
1/2+x,1/2-y,1/2+z
loop_
_atom_site_type_symbol
_atom_site_label
_atom_site_fract_x
_atom_site_fract_y
_atom_site_fract_z
Si Si1 0.500000 0.189363 0.429468
Si Si2 0.812615 0.291441 0.438969
Si Si3 0.500000 0.908850 0.432196
Si Si4 0.893388 0.947482 0.059378
Si Si5 0.205709 0.604319 0.060733
O O1 0.500000 0.171342 0.250000
O O2 0.409237 0.217883 0.468502
O O3 0.500000 0.146467 0.549087
O O4 0.822156 0.290373 0.250000
O O5 0.750000 0.250000 0.500000
O O6 0.787267 0.343850 0.489903
O O7 0.500000 0.076484 0.750000
O O8 0.395166 0.919182 0.505957
O O9 0.887748 0.946285 0.250000
O O10 0.000000 0.929838 0.014500
O O11 0.801126 0.921845 0.991300
O O12 0.889275 0.000000 0.000000
O O13 0.201745 0.607558 0.250000
#
# Coordination Sequence:
#
# PCOD9469265 Si02
#       5
#     8  16   8  16  16
#     4  10  18  32  52  75 103 140 181 221 272 332
#     4  11  21  36  55  79 110 146 188 233 283 336
#     4  10  18  32  55  81 110 146 184 225 276 332
#     4  10  21  39  62  87 116 152 193 236 288 345
#     4  11  21  36  58  85 115 149 191 235 286 343
#
# _framework density 18.493908000000001
#
# number of rings (size 3 to 8) (size 9 to 14) (size 15 to 20)
#    0.000    1.500    0.000   10.500    0.000    1.500 
#    2.250    0.625    0.000    0.000    0.000    0.000 
#    0.000    0.000    0.000    0.000    0.000    0.000 
#
# Total GULP energy -178228.527318 kJ/mol
# GULP energy per Si atom -5569.641479 kJ/mol
# Density = 1.845182 g / cm^3
# Si number density = 18.493908 Si / 1000 Ang^3
#
#
#
# Elastic Constant Matrix: (Units=GPa)
#
#
# Indices 1 2 3 4 5 6 
#
# 1 180.5108 61.0918 27.4374 0.0000 0.0000 0.0000
# 2 61.0918 47.8302 19.1136 0.0000 0.0000 0.0000
# 3 27.4374 19.1136 104.9522 0.0000 0.0000 0.0000
# 4 0.0000 0.0000 0.0000 27.3599 0.0000 0.0000
# 5 0.0000 0.0000 0.0000 0.0000 32.1674 0.0000
# 6 0.0000 0.0000 0.0000 0.0000 0.0000 41.8552
#
#
#
# Elastic Compliance Matrix: (Units=1/GPa)
#
#
# Indices 1 2 3 4 5 6 
#
# 1 0.009767 -0.012354 -0.000304 0.000000 0.000000 0.000000
# 2 -0.012354 0.038174 -0.003723 0.000000 0.000000 0.000000
# 3 -0.000304 -0.003723 0.010285 0.000000 0.000000 0.000000
# 4 0.000000 0.000000 0.000000 0.036550 0.000000 0.000000
# 5 0.000000 0.000000 0.000000 0.000000 0.031087 0.000000
# 6 0.000000 0.000000 0.000000 0.000000 0.000000 0.023892
#
#
# Mechanical properties :
#
#
# Convention : Reuss Voigt Hill
#
# Bulk Modulus (GPa) = 39.26693 60.95319 50.11006
# Shear Modulus (GPa) = 26.17753 35.31986 30.74869
#
# Velocity S-wave (km/s) = 3.76635 4.37488 4.08197
# Velocity P-wave (km/s) = 6.33974 7.65176 7.02644
#
# Compressibility (1/GPa) = 0.02546673
#
# Stress axis : x y z
#
# Youngs Moduli (GPa) = 102.38636 26.19600 97.22494
#
# Poissons Ratio (x) = 0.32362 0.02951
# Poissons Ratio (y) = 1.26485 0.36192
# Poissons Ratio (z) = 0.03108 0.09751
#
# Static dielectric constant tensor:
#      x y z
#    x 1.696310 0.000000 0.000000 
#    y 0.000000 1.598980 0.000000 
#    z 0.000000 0.000000 1.620510 
# 
# From -- ./inp_files/3179.got.cif
#   From: 2010.05.17/outbox.cif.g08.bks.cpg/sg63_2_cif.got.tgz:3179.got - 2010.06.03 15:47:04.
