data_PCOD9469587
_publ_section_title
;
Structure prediction by ZEFSAII (Michael W. Deem and Ramdas Pophale) SiO2 
 PCOD9469587
Probable space group: C M C M
;
_chemical_formula_sum "Si O2"
_cell_formula_units_Z 84
_cell_length_a 12.136303
_cell_length_b 14.924736
_cell_length_c 22.008697
_cell_angle_alpha 90.000000
_cell_angle_beta 90.000000
_cell_angle_gamma 90.000000
_cell_volume 3986.459900
_symmetry_space_group_name_H-M "C M C M"
_symmetry_group_IT_number 63
_symmetry_cell_setting 'orthorhombic'
loop_
_space_group_symop_operation_xyz
x,y,z
-x,-y,1/2+z
x,-y,-z
-x,y,1/2-z
-x,-y,-z
x,y,1/2-z
-x,y,z
x,-y,1/2+z
1/2+x,1/2+y,z
1/2-x,1/2-y,1/2+z
1/2+x,1/2-y,-z
1/2-x,1/2+y,1/2-z
1/2-x,1/2-y,-z
1/2+x,1/2+y,1/2-z
1/2-x,1/2+y,z
1/2+x,1/2-y,1/2+z
loop_
_atom_site_type_symbol
_atom_site_label
_atom_site_fract_x
_atom_site_fract_y
_atom_site_fract_z
Si Si1 0.500000 0.364897 0.385274
Si Si2 0.000000 0.102791 0.750000
Si Si3 0.624838 0.035623 0.750000
Si Si4 0.338311 0.436818 0.750000
Si Si5 0.770107 0.798564 0.064083
Si Si6 0.369518 0.045145 0.884829
Si Si7 0.796629 0.876816 0.877828
Si Si8 0.000000 0.051581 0.437343
O O1 0.500000 0.342822 0.313273
O O2 0.607750 0.333298 0.421117
O O3 0.500000 0.472926 0.387070
O O4 0.896154 0.034044 0.750000
O O5 0.500000 0.003102 0.750000
O O6 0.707765 0.953463 0.750000
O O7 0.641728 0.081955 0.684915
O O8 0.357811 0.388060 0.813180
O O9 0.686681 0.881710 0.072117
O O10 0.749098 0.721694 0.113960
O O11 0.750000 0.750000 0.000000
O O12 0.500000 0.031232 0.896871
O O13 0.297134 0.953694 0.886162
O O14 0.889883 0.892789 0.928334
O O15 0.000000 0.000000 0.500000
#
# Coordination Sequence:
#
# PCOD9469587 Si02
#       8
#     8   4   8   8  16  16  16   8
#     4  12  24  46  70  98 135 183 233 291 350 412
#     4  12  20  42  76 102 132 172 234 298 354 420
#     4   8  16  35  63  89 125 161 205 254 322 399
#     4  10  18  38  65 100 128 156 220 282 333 405
#     4  12  28  44  64  99 138 181 233 285 339 414
#     4  10  22  42  66  96 129 175 213 270 340 398
#     4  11  24  41  68  97 131 175 222 281 342 402
#     4  12  22  42  68  91 128 180 229 273 340 410
#
# _framework density 21.071327
#
# number of rings (size 3 to 8) (size 9 to 14) (size 15 to 20)
#    0.000    1.143    3.810    2.286    4.000    1.524 
#    0.000    0.952    0.000    0.000    0.000    0.000 
#    0.000    0.000    0.000    0.000    0.000    0.000 
#
# Total GULP energy -234451.599717 kJ/mol
# GULP energy per Si atom -5582.180946 kJ/mol
# Density = 2.102337 g / cm^3
# Si number density = 21.071327 Si / 1000 Ang^3
#
#
#
# Elastic Constant Matrix: (Units=GPa)
#
#
# Indices 1 2 3 4 5 6 
#
# 1 125.6805 35.9238 18.7923 0.0000 0.0000 0.0000
# 2 35.9238 75.2634 -8.5087 0.0000 0.0000 0.0000
# 3 18.7923 -8.5087 73.8040 0.0000 0.0000 0.0000
# 4 0.0000 0.0000 0.0000 28.4131 0.0000 0.0000
# 5 0.0000 0.0000 0.0000 0.0000 4.9429 0.0000
# 6 0.0000 0.0000 0.0000 0.0000 0.0000 40.1161
#
#
#
# Elastic Compliance Matrix: (Units=1/GPa)
#
#
# Indices 1 2 3 4 5 6 
#
# 1 0.009865 -0.005059 -0.003095 0.000000 0.000000 0.000000
# 2 -0.005059 0.016056 0.003139 0.000000 0.000000 0.000000
# 3 -0.003095 0.003139 0.014699 0.000000 0.000000 0.000000
# 4 0.000000 0.000000 0.000000 0.035195 0.000000 0.000000
# 5 0.000000 0.000000 0.000000 0.000000 0.202309 0.000000
# 6 0.000000 0.000000 0.000000 0.000000 0.000000 0.024928
#
#
# Mechanical properties :
#
#
# Convention : Reuss Voigt Hill
#
# Bulk Modulus (GPa) = 32.68892 40.79586 36.74239
# Shear Modulus (GPa) = 15.46650 29.93046 22.69848
#
# Velocity S-wave (km/s) = 2.71220 3.77296 3.28567
# Velocity P-wave (km/s) = 5.03539 6.19541 5.64528
#
# Compressibility (1/GPa) = 0.03059141
#
# Stress axis : x y z
#
# Youngs Moduli (GPa) = 101.36371 62.28141 68.02986
#
# Poissons Ratio (x) = 0.31507 0.21057
# Poissons Ratio (y) = 0.51278 -0.21356
# Poissons Ratio (z) = 0.31374 -0.19551
#
# Static dielectric constant tensor:
#      x y z
#    x 1.687360 0.000000 0.000000 
#    y 0.000000 1.709050 0.000000 
#    z 0.000000 0.000000 1.870910 
# 
# From -- ./inp_files/61332.got.cif
#   From: 2010.05.17/outbox.cif.g08.bks.cpg/sg63_31_cif.got.tgz:61332.got - 2010.06.03 15:47:04.
