data_PCOD9469736
_publ_section_title
;
Structure prediction by ZEFSAII (Michael W. Deem and Ramdas Pophale) SiO2 
 PCOD9469736
Probable space group: C M C M
;
_chemical_formula_sum "Si O2"
_cell_formula_units_Z 128
_cell_length_a 16.085294
_cell_length_b 17.806089
_cell_length_c 22.247042
_cell_angle_alpha 90.000000
_cell_angle_beta 90.000000
_cell_angle_gamma 90.000000
_cell_volume 6371.912709
_symmetry_space_group_name_H-M "C M C M"
_symmetry_group_IT_number 63
_symmetry_cell_setting 'orthorhombic'
loop_
_space_group_symop_operation_xyz
x,y,z
-x,-y,1/2+z
x,-y,-z
-x,y,1/2-z
-x,-y,-z
x,y,1/2-z
-x,y,z
x,-y,1/2+z
1/2+x,1/2+y,z
1/2-x,1/2-y,1/2+z
1/2+x,1/2-y,-z
1/2-x,1/2+y,1/2-z
1/2-x,1/2-y,-z
1/2+x,1/2+y,1/2-z
1/2-x,1/2+y,z
1/2+x,1/2-y,1/2+z
loop_
_atom_site_type_symbol
_atom_site_label
_atom_site_fract_x
_atom_site_fract_y
_atom_site_fract_z
Si Si1 0.407797 0.413977 0.819925
Si Si2 0.841267 0.245753 0.317385
Si Si3 0.641274 0.431663 0.379035
Si Si4 0.261082 0.972310 0.562316
Si Si5 0.590815 0.602114 0.013373
Si Si6 0.171545 0.315097 0.571573
Si Si7 0.853559 0.738569 0.944866
Si Si8 0.644900 0.276425 0.183260
O O1 0.399227 0.431384 0.750000
O O2 0.500000 0.383898 0.831533
O O3 0.348249 0.343648 0.831943
O O4 0.396614 0.492185 0.853046
O O5 0.878075 0.256938 0.250000
O O6 0.878099 0.284938 0.377148
O O7 0.744653 0.266040 0.312946
O O8 0.736026 0.457852 0.395477
O O9 0.602190 0.405006 0.441989
O O10 0.631185 0.363138 0.333754
O O11 0.170640 0.938824 0.541587
O O12 0.308316 0.900963 0.588682
O O13 0.300504 0.000000 0.500000
O O14 0.500000 0.572667 0.030740
O O15 0.597809 0.687243 0.034598
O O16 0.138547 0.314848 0.502733
O O17 0.256910 0.265853 0.563387
O O18 0.121207 0.274298 0.625077
O O19 0.611019 0.258351 0.250000
#
# Coordination Sequence:
#
# PCOD9469736 Si02
#       8
#    16  16  16  16  16  16  16  16
#     4  10  20  33  47  65  97 139 174 202 244 303
#     4   9  19  32  47  67  90 127 167 203 246 293
#     4  11  19  30  43  69  98 134 166 206 248 292
#     4   9  20  29  44  69  95 129 160 202 246 301
#     4  10  19  30  43  68 100 128 164 203 240 288
#     4   9  16  31  47  65  88 120 165 202 241 289
#     4   9  16  27  48  64  83 119 152 202 237 277
#     4  10  19  31  48  67  95 133 173 213 251 290
#
# _framework density 20.088159999999998
#
# number of rings (size 3 to 8) (size 9 to 14) (size 15 to 20)
#    0.000    2.375    1.250    3.000    5.250    4.250 
#    0.000    0.625    0.000    0.000    0.000    0.000 
#    0.000    1.500    0.000    0.000    0.000    2.625 
#
# Total GULP energy -356470.639532 kJ/mol
# GULP energy per Si atom -5569.853743 kJ/mol
# Density = 2.004244 g / cm^3
# Si number density = 20.088160 Si / 1000 Ang^3
#
#
#
# Elastic Constant Matrix: (Units=GPa)
#
#
# Indices 1 2 3 4 5 6 
#
# 1 14.0424 6.4934 7.0629 0.0000 0.0000 0.0000
# 2 6.4934 35.0781 22.5527 0.0000 0.0000 0.0000
# 3 7.0629 22.5527 163.7239 0.0000 0.0000 0.0000
# 4 0.0000 0.0000 0.0000 28.9860 0.0000 0.0000
# 5 0.0000 0.0000 0.0000 0.0000 42.4867 0.0000
# 6 0.0000 0.0000 0.0000 0.0000 0.0000 -13.5885
#
#
#
# Elastic Compliance Matrix: (Units=1/GPa)
#
#
# Indices 1 2 3 4 5 6 
#
# 1 0.078220 -0.013506 -0.001514 0.000000 0.000000 0.000000
# 2 -0.013506 0.033610 -0.004047 0.000000 0.000000 0.000000
# 3 -0.001514 -0.004047 0.006731 0.000000 0.000000 0.000000
# 4 0.000000 0.000000 0.000000 0.034499 0.000000 0.000000
# 5 0.000000 0.000000 0.000000 0.000000 0.023537 0.000000
# 6 0.000000 0.000000 0.000000 0.000000 0.000000 -0.073592
#
#
# Mechanical properties :
#
#
# Convention : Reuss Voigt Hill
#
# Bulk Modulus (GPa) = 12.43379 31.67360 22.05370
# Shear Modulus (GPa) = 29.77123 23.35921 26.56522
#
# Velocity S-wave (km/s) = 3.85389 3.41374 3.64047
# Velocity P-wave (km/s) = 5.09964 5.59818 5.35472
#
# Compressibility (1/GPa) = 0.08042600
#
# Stress axis : x y z
#
# Youngs Moduli (GPa) = 12.78452 29.75309 148.57450
#
# Poissons Ratio (x) = 0.40185 0.22492
# Poissons Ratio (y) = 0.17267 0.60129
# Poissons Ratio (z) = 0.01935 0.12041
#
# Static dielectric constant tensor:
#      x y z
#    x 1.742900 0.000000 0.000000 
#    y 0.000000 1.719420 0.000000 
#    z 0.000000 0.000000 1.839470 
# 
# From -- ./inp_files/64056.got.cif
#   From: 2010.05.17/outbox.cif.g08.bks.cpg/sg63_33_cif.got.tgz:64056.got - 2010.06.03 15:47:04.
