data_PCOD9469501
_publ_section_title
;
Structure prediction by ZEFSAII (Michael W. Deem and Ramdas Pophale) SiO2 
 PCOD9469501
Probable space group: C M C M
;
_chemical_formula_sum "Si O2"
_cell_formula_units_Z 96
_cell_length_a 13.897087
_cell_length_b 20.692969
_cell_length_c 15.435161
_cell_angle_alpha 90.000000
_cell_angle_beta 90.000000
_cell_angle_gamma 90.000000
_cell_volume 4438.719972
_symmetry_space_group_name_H-M "C M C M"
_symmetry_group_IT_number 63
_symmetry_cell_setting 'orthorhombic'
loop_
_space_group_symop_operation_xyz
x,y,z
-x,-y,1/2+z
x,-y,-z
-x,y,1/2-z
-x,-y,-z
x,y,1/2-z
-x,y,z
x,-y,1/2+z
1/2+x,1/2+y,z
1/2-x,1/2-y,1/2+z
1/2+x,1/2-y,-z
1/2-x,1/2+y,1/2-z
1/2-x,1/2-y,-z
1/2+x,1/2+y,1/2-z
1/2-x,1/2+y,z
1/2+x,1/2-y,1/2+z
loop_
_atom_site_type_symbol
_atom_site_label
_atom_site_fract_x
_atom_site_fract_y
_atom_site_fract_z
Si Si1 0.887114 0.422823 0.007484
Si Si2 0.892647 0.196043 0.404999
Si Si3 0.607653 0.506468 0.604085
Si Si4 0.106689 0.159412 0.608069
Si Si5 0.816814 0.669731 0.650853
Si Si6 0.760886 0.401440 0.844196
O O1 0.835548 0.395867 0.922216
O O2 0.000000 0.407136 0.010887
O O3 0.876843 0.500000 0.000000
O O4 0.835934 0.392965 0.091717
O O5 0.886447 0.173377 0.505039
O O6 0.873115 0.271663 0.394094
O O7 0.812744 0.157726 0.352577
O O8 0.000000 0.180942 0.374351
O O9 0.614981 0.500000 0.500000
O O10 0.500000 0.483107 0.628884
O O11 0.611631 0.582342 0.624416
O O12 0.692753 0.464344 0.643423
O O13 0.203449 0.186983 0.648695
O O14 0.000000 0.181709 0.636243
O O15 0.847535 0.660784 0.750000
O O16 0.807256 0.403610 0.750000
#
# Coordination Sequence:
#
# PCOD9469501 Si02
#       6
#    16  16  16  16  16  16
#     4  11  26  47  68  93 127 169 225 285 337 393
#     4  11  23  42  67  96 133 174 217 268 326 392
#     4  10  18  34  60  92 130 169 209 258 321 387
#     4  10  21  38  66  97 130 172 214 263 322 385
#     4  12  25  44  70  98 133 175 221 272 331 399
#     4  12  24  39  64  98 136 175 219 273 331 392
#
# _framework density 21.627858
#
# number of rings (size 3 to 8) (size 9 to 14) (size 15 to 20)
#    0.000    1.000    3.333    3.500    0.000    6.667 
#    0.000    3.333    0.000    2.000    0.000    0.000 
#    0.000    0.000    0.000    0.000    0.000    0.000 
#
# Total GULP energy -268536.716320 kJ/mol
# GULP energy per Si atom -5594.514923 kJ/mol
# Density = 2.157863 g / cm^3
# Si number density = 21.627858 Si / 1000 Ang^3
#
#
#
# Elastic Constant Matrix: (Units=GPa)
#
#
# Indices 1 2 3 4 5 6 
#
# 1 103.8752 16.6845 17.6396 0.0000 0.0000 0.0000
# 2 16.6845 70.4181 25.1103 0.0000 0.0000 0.0000
# 3 17.6396 25.1103 72.4728 0.0000 0.0000 0.0000
# 4 0.0000 0.0000 0.0000 1.4995 0.0000 0.0000
# 5 0.0000 0.0000 0.0000 0.0000 19.1031 0.0000
# 6 0.0000 0.0000 0.0000 0.0000 0.0000 -4.4593
#
#
#
# Elastic Compliance Matrix: (Units=1/GPa)
#
#
# Indices 1 2 3 4 5 6 
#
# 1 0.010228 -0.001752 -0.001882 0.000000 0.000000 0.000000
# 2 -0.001752 0.016503 -0.005291 0.000000 0.000000 0.000000
# 3 -0.001882 -0.005291 0.016090 0.000000 0.000000 0.000000
# 4 0.000000 0.000000 0.000000 0.666872 0.000000 0.000000
# 5 0.000000 0.000000 0.000000 0.000000 0.052348 0.000000
# 6 0.000000 0.000000 0.000000 0.000000 0.000000 -0.224251
#
#
# Mechanical properties :
#
#
# Convention : Reuss Voigt Hill
#
# Bulk Modulus (GPa) = 40.04994 40.62609 40.33802
# Shear Modulus (GPa) = 8.86581 15.71745 12.29163
#
# Velocity S-wave (km/s) = 2.02686 2.69870 2.38654
# Velocity P-wave (km/s) = 4.90260 5.34187 5.12694
#
# Compressibility (1/GPa) = 0.02496882
#
# Stress axis : x y z
#
# Youngs Moduli (GPa) = 97.77059 60.59536 62.15116
#
# Poissons Ratio (x) = 0.10617 0.11699
# Poissons Ratio (y) = 0.17131 0.32887
# Poissons Ratio (z) = 0.18404 0.32064
#
# Static dielectric constant tensor:
#      x y z
#    x 1.787520 0.000000 0.000000 
#    y 0.000000 1.791350 0.000000 
#    z 0.000000 0.000000 1.779200 
# 
# From -- ./inp_files/31892.got.cif
#   From: 2010.05.17/outbox.cif.g08.bks.cpg/sg63_16_cif.got.tgz:31892.got - 2010.06.03 15:47:04.
