data_PCOD9469321
_publ_section_title
;
Structure prediction by ZEFSAII (Michael W. Deem and Ramdas Pophale) SiO2 
 PCOD9469321
Probable space group: C M C M
;
_chemical_formula_sum "Si O2"
_cell_formula_units_Z 56
_cell_length_a 18.334171
_cell_length_b 18.606305
_cell_length_c 8.523388
_cell_angle_alpha 90.000000
_cell_angle_beta 90.000000
_cell_angle_gamma 90.000000
_cell_volume 2907.593385
_symmetry_space_group_name_H-M "C M C M"
_symmetry_group_IT_number 63
_symmetry_cell_setting 'orthorhombic'
loop_
_space_group_symop_operation_xyz
x,y,z
-x,-y,1/2+z
x,-y,-z
-x,y,1/2-z
-x,-y,-z
x,y,1/2-z
-x,y,z
x,-y,1/2+z
1/2+x,1/2+y,z
1/2-x,1/2-y,1/2+z
1/2+x,1/2-y,-z
1/2-x,1/2+y,1/2-z
1/2-x,1/2-y,-z
1/2+x,1/2+y,1/2-z
1/2-x,1/2+y,z
1/2+x,1/2-y,1/2+z
loop_
_atom_site_type_symbol
_atom_site_label
_atom_site_fract_x
_atom_site_fract_y
_atom_site_fract_z
Si Si1 0.150667 0.918960 0.937490
Si Si2 0.915838 0.419913 0.439858
Si Si3 0.500000 0.582556 0.937694
Si Si4 0.281039 0.174912 0.936963
O O1 0.153126 0.917519 0.750000
O O2 0.219743 0.881293 0.012063
O O3 0.074551 0.884553 0.996327
O O4 0.150887 0.000000 0.000000
O O5 0.895539 0.500000 0.500000
O O6 0.913899 0.422068 0.250000
O O7 0.858456 0.358737 0.492553
O O8 0.000000 0.406129 0.488218
O O9 0.500000 0.581779 0.750000
O O10 0.500000 0.500000 0.000000
O O11 0.285796 0.180933 0.750000
O O12 0.250000 0.250000 0.000000
#
# Coordination Sequence:
#
# PCOD9469321 Si02
#       4
#    16  16   8  16
#     4  11  21  36  58  84 114 151 193 239 289 344
#     4   9  19  37  62  89 115 148 192 245 299 353
#     4  10  18  32  54  82 112 142 183 230 277 332
#     4  11  23  39  57  82 118 156 196 242 297 359
#
# _framework density 19.259913999999998
#
# number of rings (size 3 to 8) (size 9 to 14) (size 15 to 20)
#    0.000    1.714    0.000    7.286    0.000    4.571 
#    2.571    0.000    0.000    0.000    0.000    0.000 
#    0.000    0.000    0.000    0.000    0.000    0.000 
#
# Total GULP energy -156234.257679 kJ/mol
# GULP energy per Si atom -5579.794917 kJ/mol
# Density = 1.921608 g / cm^3
# Si number density = 19.259914 Si / 1000 Ang^3
#
#
#
# Elastic Constant Matrix: (Units=GPa)
#
#
# Indices 1 2 3 4 5 6 
#
# 1 149.2658 76.2637 15.2472 0.0000 0.0000 0.0000
# 2 76.2637 95.2154 20.4027 0.0000 0.0000 0.0000
# 3 15.2472 20.4027 47.4337 0.0000 0.0000 0.0000
# 4 0.0000 0.0000 0.0000 31.3292 0.0000 0.0000
# 5 0.0000 0.0000 0.0000 0.0000 27.7357 0.0000
# 6 0.0000 0.0000 0.0000 0.0000 0.0000 19.6128
#
#
#
# Elastic Compliance Matrix: (Units=1/GPa)
#
#
# Indices 1 2 3 4 5 6 
#
# 1 0.011344 -0.009148 0.000288 0.000000 0.000000 0.000000
# 2 -0.009148 0.018946 -0.005209 0.000000 0.000000 0.000000
# 3 0.000288 -0.005209 0.023230 0.000000 0.000000 0.000000
# 4 0.000000 0.000000 0.000000 0.031919 0.000000 0.000000
# 5 0.000000 0.000000 0.000000 0.000000 0.036055 0.000000
# 6 0.000000 0.000000 0.000000 0.000000 0.000000 0.050987
#
#
# Mechanical properties :
#
#
# Convention : Reuss Voigt Hill
#
# Bulk Modulus (GPa) = 39.39623 57.30468 48.35045
# Shear Modulus (GPa) = 23.91466 27.73564 25.82515
#
# Velocity S-wave (km/s) = 3.52757 3.79894 3.66577
# Velocity P-wave (km/s) = 6.09025 7.00432 6.56322
#
# Compressibility (1/GPa) = 0.02538314
#
# Stress axis : x y z
#
# Youngs Moduli (GPa) = 88.15396 52.78291 43.04823
#
# Poissons Ratio (x) = 0.48284 -0.01241
# Poissons Ratio (y) = 0.80641 0.22422
# Poissons Ratio (z) = -0.02542 0.27493
#
# Static dielectric constant tensor:
#      x y z
#    x 1.682130 0.000000 0.000000 
#    y 0.000000 2.041180 0.000000 
#    z 0.000000 0.000000 1.649470 
# 
# From -- ./inp_files/5546.got.cif
#   From: 2010.05.17/outbox.cif.g08.bks.cpg/sg63_3_cif.got.tgz:5546.got - 2010.06.03 15:47:04.
