data_PCOD9469609
_publ_section_title
;
Structure prediction by ZEFSAII (Michael W. Deem and Ramdas Pophale) SiO2 
 PCOD9469609
Probable space group: C M C M
;
_chemical_formula_sum "Si O2"
_cell_formula_units_Z 96
_cell_length_a 7.469830
_cell_length_b 28.270730
_cell_length_c 24.907701
_cell_angle_alpha 90.000000
_cell_angle_beta 90.000000
_cell_angle_gamma 90.000000
_cell_volume 5259.947200
_symmetry_space_group_name_H-M "C M C M"
_symmetry_group_IT_number 63
_symmetry_cell_setting 'orthorhombic'
loop_
_space_group_symop_operation_xyz
x,y,z
-x,-y,1/2+z
x,-y,-z
-x,y,1/2-z
-x,-y,-z
x,y,1/2-z
-x,y,z
x,-y,1/2+z
1/2+x,1/2+y,z
1/2-x,1/2-y,1/2+z
1/2+x,1/2-y,-z
1/2-x,1/2+y,1/2-z
1/2-x,1/2-y,-z
1/2+x,1/2+y,1/2-z
1/2-x,1/2+y,z
1/2+x,1/2-y,1/2+z
loop_
_atom_site_type_symbol
_atom_site_label
_atom_site_fract_x
_atom_site_fract_y
_atom_site_fract_z
Si Si1 0.794399 0.735776 0.910837
Si Si2 0.218736 0.321693 0.310853
Si Si3 0.718491 0.016551 0.915547
Si Si4 0.781685 0.569444 0.689483
Si Si5 0.790385 0.182163 0.485158
Si Si6 0.784288 0.573553 0.479211
O O1 0.715003 0.713300 0.857109
O O2 0.792719 0.696086 0.957613
O O3 0.000000 0.747579 0.897569
O O4 0.716538 0.782436 0.939465
O O5 0.271368 0.309268 0.250000
O O6 0.271999 0.376149 0.321229
O O7 0.000000 0.321597 0.312397
O O8 0.500000 0.016500 0.915013
O O9 0.779256 0.035249 0.858019
O O10 0.775182 0.964341 0.934479
O O11 0.772856 0.052507 0.963083
O O12 0.725174 0.556834 0.750000
O O13 0.000000 0.568934 0.689286
O O14 0.771741 0.127349 0.471916
O O15 0.000000 0.193466 0.491043
O O16 0.000000 0.573087 0.479333
#
# Coordination Sequence:
#
# PCOD9469609 Si02
#       6
#    16  16  16  16  16  16
#     4   9  17  29  44  61  83 110 137 167 203 243
#     4   8  13  22  40  65  85 101 128 168 208 240
#     4   8  14  24  39  59  79 103 135 164 197 242
#     4   8  12  18  32  57  84 101 118 157 207 243
#     4  10  19  28  40  61  86 110 137 168 203 242
#     4   9  16  27  43  59  78 106 137 168 199 236
#
# _framework density 18.251134
#
# number of rings (size 3 to 8) (size 9 to 14) (size 15 to 20)
#    0.000    3.333    0.000    3.500    0.000    3.333 
#    0.000    1.667    0.000    1.500    0.000    0.000 
#    0.000    1.333    0.000    0.000    0.000    0.000 
#
# Total GULP energy -267505.438953 kJ/mol
# GULP energy per Si atom -5573.029978 kJ/mol
# Density = 1.820959 g / cm^3
# Si number density = 18.251134 Si / 1000 Ang^3
#
#
#
# Elastic Constant Matrix: (Units=GPa)
#
#
# Indices 1 2 3 4 5 6 
#
# 1 51.4708 -0.8476 0.0183 0.0000 0.0000 0.0000
# 2 -0.8476 138.7114 92.5951 0.0000 0.0000 0.0000
# 3 0.0183 92.5951 151.7506 0.0000 0.0000 0.0000
# 4 0.0000 0.0000 0.0000 27.9784 0.0000 0.0000
# 5 0.0000 0.0000 0.0000 0.0000 -1.7982 0.0000
# 6 0.0000 0.0000 0.0000 0.0000 0.0000 10.3565
#
#
#
# Elastic Compliance Matrix: (Units=1/GPa)
#
#
# Indices 1 2 3 4 5 6 
#
# 1 0.019432 0.000203 -0.000126 0.000000 0.000000 0.000000
# 2 0.000203 0.012166 -0.007423 0.000000 0.000000 0.000000
# 3 -0.000126 -0.007423 0.011119 0.000000 0.000000 0.000000
# 4 0.000000 0.000000 0.000000 0.035742 0.000000 0.000000
# 5 0.000000 0.000000 0.000000 0.000000 -0.556114 0.000000
# 6 0.000000 0.000000 0.000000 0.000000 0.000000 0.096557
#
#
# Mechanical properties :
#
#
# Convention : Reuss Voigt Hill
#
# Bulk Modulus (GPa) = 35.68380 58.38490 47.03435
# Shear Modulus (GPa) = -14.00312 23.98515 4.99102
#
# Velocity S-wave (km/s) = -2.77293 3.62909 1.65547
# Velocity P-wave (km/s) = 3.05644 7.04411 5.42961
#
# Compressibility (1/GPa) = 0.02802392
#
# Stress axis : x y z
#
# Youngs Moduli (GPa) = 51.46182 82.19744 89.93324
#
# Poissons Ratio (x) = -0.01668 0.01135
# Poissons Ratio (y) = -0.01045 0.66761
# Poissons Ratio (z) = 0.00649 0.61018
#
# Static dielectric constant tensor:
#      x y z
#    x 1.710150 0.000000 0.000000 
#    y 0.000000 1.609740 0.000000 
#    z 0.000000 0.000000 1.625030 
# 
# From -- ./inp_files/60201.got.cif
#   From: 2010.05.17/outbox.cif.g08.bks.cpg/sg63_31_cif.got.tgz:60201.got - 2010.06.03 15:47:04.
