data_PCOD9469571
_publ_section_title
;
Structure prediction by ZEFSAII (Michael W. Deem and Ramdas Pophale) SiO2 
 PCOD9469571
Probable space group: C M C M
;
_chemical_formula_sum "Si O2"
_cell_formula_units_Z 64
_cell_length_a 10.610083
_cell_length_b 16.814538
_cell_length_c 15.216830
_cell_angle_alpha 90.000000
_cell_angle_beta 90.000000
_cell_angle_gamma 90.000000
_cell_volume 2714.737919
_symmetry_space_group_name_H-M "C M C M"
_symmetry_group_IT_number 63
_symmetry_cell_setting 'orthorhombic'
loop_
_space_group_symop_operation_xyz
x,y,z
-x,-y,1/2+z
x,-y,-z
-x,y,1/2-z
-x,-y,-z
x,y,1/2-z
-x,y,z
x,-y,1/2+z
1/2+x,1/2+y,z
1/2-x,1/2-y,1/2+z
1/2+x,1/2-y,-z
1/2-x,1/2+y,1/2-z
1/2-x,1/2-y,-z
1/2+x,1/2+y,1/2-z
1/2-x,1/2+y,z
1/2+x,1/2-y,1/2+z
loop_
_atom_site_type_symbol
_atom_site_label
_atom_site_fract_x
_atom_site_fract_y
_atom_site_fract_z
Si Si1 0.225721 0.988194 0.105641
Si Si2 0.000000 0.232114 0.473899
Si Si3 0.714863 0.326832 0.653364
Si Si4 0.000000 0.873072 0.151451
Si Si5 0.000000 0.514523 0.604618
Si Si6 0.500000 0.833138 0.883763
O O1 0.210244 0.077410 0.142568
O O2 0.363428 0.952648 0.128009
O O3 0.120275 0.929971 0.140680
O O4 0.215036 0.000000 0.000000
O O5 0.876029 0.210840 0.419184
O O6 0.000000 0.321705 0.510264
O O7 0.000000 0.183213 0.565691
O O8 0.669342 0.304782 0.750000
O O9 0.861904 0.303310 0.644943
O O10 0.000000 0.837714 0.250000
O O11 0.000000 0.500000 0.500000
O O12 0.000000 0.424997 0.642923
#
# Coordination Sequence:
#
# PCOD9469571 Si02
#       6
#    16   8  16   8   8   8
#     4  10  18  37  60  92 122 158 206 257 311 362
#     4  12  24  42  60  91 131 166 203 250 311 375
#     4  11  22  39  66  93 122 162 213 259 301 366
#     4  12  24  37  57  88 130 169 201 249 311 370
#     4   8  18  35  66  90 112 150 206 258 308 364
#     4  10  23  41  64  90 119 165 204 253 313 364
#
# _framework density 23.575019999999999
#
# number of rings (size 3 to 8) (size 9 to 14) (size 15 to 20)
#    0.000    1.500    2.500    3.375    0.000    1.000 
#    0.000    1.875    0.000    0.000    0.000    0.000 
#    0.000    0.000    0.000    0.000    0.000    0.000 
#
# Total GULP energy -178909.474190 kJ/mol
# GULP energy per Si atom -5590.921068 kJ/mol
# Density = 2.352136 g / cm^3
# Si number density = 23.575020 Si / 1000 Ang^3
#
#
#
# Elastic Constant Matrix: (Units=GPa)
#
#
# Indices 1 2 3 4 5 6 
#
# 1 196.7945 38.5800 60.2947 0.0000 0.0000 0.0000
# 2 38.5800 51.9036 30.8813 0.0000 0.0000 0.0000
# 3 60.2947 30.8813 166.2658 0.0000 0.0000 0.0000
# 4 0.0000 0.0000 0.0000 19.7148 0.0000 0.0000
# 5 0.0000 0.0000 0.0000 0.0000 -346.3629 0.0000
# 6 0.0000 0.0000 0.0000 0.0000 0.0000 23.0962
#
#
#
# Elastic Compliance Matrix: (Units=1/GPa)
#
#
# Indices 1 2 3 4 5 6 
#
# 1 0.006302 -0.003737 -0.001591 0.000000 0.000000 0.000000
# 2 -0.003737 0.023877 -0.003079 0.000000 0.000000 0.000000
# 3 -0.001591 -0.003079 0.007163 0.000000 0.000000 0.000000
# 4 0.000000 0.000000 0.000000 0.050723 0.000000 0.000000
# 5 0.000000 0.000000 0.000000 0.000000 -0.002887 0.000000
# 6 0.000000 0.000000 0.000000 0.000000 0.000000 0.043297
#
#
# Mechanical properties :
#
#
# Convention : Reuss Voigt Hill
#
# Bulk Modulus (GPa) = 48.71867 74.94176 61.83022
# Shear Modulus (GPa) = 32.86606 -41.69651 -4.41523
#
# Velocity S-wave (km/s) = 3.73782 -4.21012 -1.37000
# Velocity P-wave (km/s) = 6.27205 2.86777 4.87662
#
# Compressibility (1/GPa) = 0.02052601
#
# Stress axis : x y z
#
# Youngs Moduli (GPa) = 158.69000 41.88198 139.59856
#
# Poissons Ratio (x) = 0.15653 0.22211
# Poissons Ratio (y) = 0.59308 0.42988
# Poissons Ratio (z) = 0.25249 0.12897
#
# Static dielectric constant tensor:
#      x y z
#    x 1.887960 0.000000 0.000000 
#    y 0.000000 1.964490 0.000000 
#    z 0.000000 0.000000 1.870990 
# 
# From -- ./inp_files/29197.got.cif
#   From: 2010.05.17/outbox.cif.g08.bks.cpg/sg63_15_cif.got.tgz:29197.got - 2010.06.03 15:47:04.
