data_PCOD9469912
_publ_section_title
;
Structure prediction by ZEFSAII (Michael W. Deem and Ramdas Pophale) SiO2 
 PCOD9469912
Probable space group: C M C M
;
_chemical_formula_sum "Si O2"
_cell_formula_units_Z 88
_cell_length_a 18.550016
_cell_length_b 14.961497
_cell_length_c 18.076174
_cell_angle_alpha 90.000000
_cell_angle_beta 90.000000
_cell_angle_gamma 90.000000
_cell_volume 5016.789185
_symmetry_space_group_name_H-M "C M C M"
_symmetry_group_IT_number 63
_symmetry_cell_setting 'orthorhombic'
loop_
_space_group_symop_operation_xyz
x,y,z
-x,-y,1/2+z
x,-y,-z
-x,y,1/2-z
-x,-y,-z
x,y,1/2-z
-x,y,z
x,-y,1/2+z
1/2+x,1/2+y,z
1/2-x,1/2-y,1/2+z
1/2+x,1/2-y,-z
1/2-x,1/2+y,1/2-z
1/2-x,1/2-y,-z
1/2+x,1/2+y,1/2-z
1/2-x,1/2+y,z
1/2+x,1/2-y,1/2+z
loop_
_atom_site_type_symbol
_atom_site_label
_atom_site_fract_x
_atom_site_fract_y
_atom_site_fract_z
Si Si1 0.296627 0.431388 0.896112
Si Si2 0.079889 0.131809 0.506270
Si Si3 0.364677 0.401178 0.332313
Si Si4 0.825557 0.500000 0.000000
Si Si5 0.694075 0.211074 0.335264
Si Si6 0.083586 0.663991 0.461594
O O1 0.356334 0.410690 0.958581
O O2 0.329955 0.501138 0.838664
O O3 0.265126 0.339038 0.864264
O O4 0.228482 0.481594 0.932528
O O5 0.087580 0.109456 0.593677
O O6 0.086673 0.239032 0.500309
O O7 0.000000 0.104944 0.480667
O O8 0.397627 0.389793 0.250000
O O9 0.307781 0.318979 0.340666
O O10 0.875603 0.413053 0.006476
O O11 0.683318 0.187247 0.250000
O O12 0.627681 0.177222 0.385413
O O13 0.000000 0.641662 0.449152
#
# Coordination Sequence:
#
# PCOD9469912 Si02
#       6
#    16  16  16   8  16  16
#     4  11  20  33  54  80 106 141 179 221 262 315
#     4  10  21  36  53  77 110 145 178 219 268 315
#     4  10  20  34  52  76 106 139 176 219 267 313
#     4  10  19  30  53  80 104 134 174 224 267 304
#     4   9  20  34  52  77 107 138 174 220 266 316
#     4   9  19  33  53  78 107 138 174 217 266 318
#
# _framework density 17.541098999999999
#
# number of rings (size 3 to 8) (size 9 to 14) (size 15 to 20)
#    0.000    2.182    1.818    0.818    2.545    4.364 
#    0.000    3.636    0.000    1.636    0.000    0.000 
#    0.000    0.000    0.000    0.000    0.000    0.000 
#
# Total GULP energy -245076.421470 kJ/mol
# GULP energy per Si atom -5569.918670 kJ/mol
# Density = 1.750117 g / cm^3
# Si number density = 17.541099 Si / 1000 Ang^3
#
#
#
# Elastic Constant Matrix: (Units=GPa)
#
#
# Indices 1 2 3 4 5 6 
#
# 1 109.9551 52.6653 39.1232 0.0000 0.0000 0.0000
# 2 52.6653 85.5307 36.5151 0.0000 0.0000 0.0000
# 3 39.1232 36.5151 72.7433 0.0000 0.0000 0.0000
# 4 0.0000 0.0000 0.0000 21.3783 0.0000 0.0000
# 5 0.0000 0.0000 0.0000 0.0000 6.4392 0.0000
# 6 0.0000 0.0000 0.0000 0.0000 0.0000 7.5155
#
#
#
# Elastic Compliance Matrix: (Units=1/GPa)
#
#
# Indices 1 2 3 4 5 6 
#
# 1 0.013758 -0.006762 -0.004005 0.000000 0.000000 0.000000
# 2 -0.006762 0.018204 -0.005501 0.000000 0.000000 0.000000
# 3 -0.004005 -0.005501 0.018663 0.000000 0.000000 0.000000
# 4 0.000000 0.000000 0.000000 0.046776 0.000000 0.000000
# 5 0.000000 0.000000 0.000000 0.000000 0.155298 0.000000
# 6 0.000000 0.000000 0.000000 0.000000 0.000000 0.133059
#
#
# Mechanical properties :
#
#
# Convention : Reuss Voigt Hill
#
# Bulk Modulus (GPa) = 55.28464 58.31516 56.79990
# Shear Modulus (GPa) = 11.78343 16.39496 14.08919
#
# Velocity S-wave (km/s) = 2.59465 3.06054 2.83717
# Velocity P-wave (km/s) = 6.36882 6.76803 6.57146
#
# Compressibility (1/GPa) = 0.01808821
#
# Stress axis : x y z
#
# Youngs Moduli (GPa) = 72.68247 54.93358 53.58300
#
# Poissons Ratio (x) = 0.37145 0.21462
# Poissons Ratio (y) = 0.49146 0.29477
# Poissons Ratio (z) = 0.29113 0.30220
#
# Static dielectric constant tensor:
#      x y z
#    x 1.588190 0.000000 0.000000 
#    y 0.000000 1.638760 0.000000 
#    z 0.000000 0.000000 1.587820 
# 
# From -- ./inp_files/45527.got.cif
#   From: 2010.05.17/outbox.cif.g08.bks.cpg/sg63_23_cif.got.tgz:45527.got - 2010.06.03 15:47:04.
