data_PCOD9469137
_publ_section_title
;
Structure prediction by ZEFSAII (Michael W. Deem and Ramdas Pophale) SiO2 
 PCOD9469137
Probable space group: C M C M
;
_chemical_formula_sum "Si O2"
_cell_formula_units_Z 80
_cell_length_a 21.305651
_cell_length_b 23.599691
_cell_length_c 7.527873
_cell_angle_alpha 90.000000
_cell_angle_beta 90.000000
_cell_angle_gamma 90.000000
_cell_volume 3785.065585
_symmetry_space_group_name_H-M "C M C M"
_symmetry_group_IT_number 63
_symmetry_cell_setting 'orthorhombic'
loop_
_space_group_symop_operation_xyz
x,y,z
-x,-y,1/2+z
x,-y,-z
-x,y,1/2-z
-x,-y,-z
x,y,1/2-z
-x,y,z
x,-y,1/2+z
1/2+x,1/2+y,z
1/2-x,1/2-y,1/2+z
1/2+x,1/2-y,-z
1/2-x,1/2+y,1/2-z
1/2-x,1/2-y,-z
1/2+x,1/2+y,1/2-z
1/2-x,1/2+y,z
1/2+x,1/2-y,1/2+z
loop_
_atom_site_type_symbol
_atom_site_label
_atom_site_fract_x
_atom_site_fract_y
_atom_site_fract_z
Si Si1 0.000000 0.065880 0.461958
Si Si2 0.125066 0.625055 0.038070
Si Si3 0.747411 0.432736 0.536576
Si Si4 0.500000 0.065970 0.037158
Si Si5 0.072917 0.253136 0.463511
Si Si6 0.377304 0.368155 0.967709
O O1 0.936899 0.095199 0.528000
O O2 0.000000 0.074234 0.250000
O O3 0.000000 0.000000 0.500000
O O4 0.126316 0.615853 0.250000
O O5 0.188917 0.597000 0.968531
O O6 0.063144 0.594182 0.965389
O O7 0.112892 0.691378 0.008964
O O8 0.745115 0.500000 0.500000
O O9 0.747186 0.427420 0.750000
O O10 0.686465 0.398300 0.471625
O O11 0.500000 0.074841 0.250000
O O12 0.500000 0.000000 0.000000
O O13 0.068912 0.250048 0.250000
O O14 0.107968 0.196099 0.524050
O O15 0.000000 0.256757 0.528100
O O16 0.375885 0.368164 0.750000
#
# Coordination Sequence:
#
# PCOD9469137 Si02
#       6
#     8  16  16   8  16  16
#     4  10  18  31  52  76 104 137 175 218 261 308
#     4  10  21  36  53  76 108 142 172 217 275 315
#     4  10  21  37  56  78 109 144 177 217 266 317
#     4  10  20  33  50  72 100 133 173 216 259 310
#     4  10  19  34  57  81 104 137 182 223 259 312
#     4   9  18  34  55  78 106 140 176 217 264 311
#
# _framework density 21.135697
#
# number of rings (size 3 to 8) (size 9 to 14) (size 15 to 20)
#    0.000    2.200    2.000    1.200    0.000    2.400 
#    0.000    2.000    0.000    0.000    0.000    0.000 
#    0.000    0.000    0.000    0.000    0.000    0.000 
#
# Total GULP energy -223403.275667 kJ/mol
# GULP energy per Si atom -5585.081892 kJ/mol
# Density = 2.108759 g / cm^3
# Si number density = 21.135697 Si / 1000 Ang^3
#
#
#
# Elastic Constant Matrix: (Units=GPa)
#
#
# Indices 1 2 3 4 5 6 
#
# 1 234.0251 131.7809 12.5039 0.0000 0.0000 0.0000
# 2 131.7809 205.9715 -14.0915 0.0000 0.0000 0.0000
# 3 12.5039 -14.0915 52.5777 0.0000 0.0000 0.0000
# 4 0.0000 0.0000 0.0000 10.0148 0.0000 0.0000
# 5 0.0000 0.0000 0.0000 0.0000 -12.7310 0.0000
# 6 0.0000 0.0000 0.0000 0.0000 0.0000 39.2712
#
#
#
# Elastic Compliance Matrix: (Units=1/GPa)
#
#
# Indices 1 2 3 4 5 6 
#
# 1 0.007105 -0.004749 -0.002962 0.000000 0.000000 0.000000
# 2 -0.004749 0.008119 0.003305 0.000000 0.000000 0.000000
# 3 -0.002962 0.003305 0.020610 0.000000 0.000000 0.000000
# 4 0.000000 0.000000 0.000000 0.099853 0.000000 0.000000
# 5 0.000000 0.000000 0.000000 0.000000 -0.078549 0.000000
# 6 0.000000 0.000000 0.000000 0.000000 0.000000 0.025464
#
#
# Mechanical properties :
#
#
# Convention : Reuss Voigt Hill
#
# Bulk Modulus (GPa) = 37.00531 83.66234 60.33382
# Shear Modulus (GPa) = 49.79004 31.46973 40.62988
#
# Velocity S-wave (km/s) = 4.85885 3.86286 4.38920
# Velocity P-wave (km/s) = 7.00174 7.71783 7.36849
#
# Compressibility (1/GPa) = 0.02702315
#
# Stress axis : x y z
#
# Youngs Moduli (GPa) = 140.73905 123.16173 48.52036
#
# Poissons Ratio (x) = 0.58486 0.14374
# Poissons Ratio (y) = 0.66833 -0.16038
# Poissons Ratio (z) = 0.41694 -0.40710
#
# Static dielectric constant tensor:
#      x y z
#    x 1.750930 0.000000 0.000000 
#    y 0.000000 1.951020 0.000000 
#    z 0.000000 0.000000 1.792050 
# 
# From -- ./inp_files/8114.got.cif
#   From: 2010.05.17/outbox.cif.g08.bks.cpg/sg63_5_cif.got.tgz:8114.got - 2010.06.03 15:47:04.
