data_PCOD9469402
_publ_section_title
;
Structure prediction by ZEFSAII (Michael W. Deem and Ramdas Pophale) SiO2 
 PCOD9469402
Probable space group: C M C M
;
_chemical_formula_sum "Si O2"
_cell_formula_units_Z 112
_cell_length_a 18.220224
_cell_length_b 17.613943
_cell_length_c 20.334153
_cell_angle_alpha 90.000000
_cell_angle_beta 90.000000
_cell_angle_gamma 90.000000
_cell_volume 6525.839458
_symmetry_space_group_name_H-M "C M C M"
_symmetry_group_IT_number 63
_symmetry_cell_setting 'orthorhombic'
loop_
_space_group_symop_operation_xyz
x,y,z
-x,-y,1/2+z
x,-y,-z
-x,y,1/2-z
-x,-y,-z
x,y,1/2-z
-x,y,z
x,-y,1/2+z
1/2+x,1/2+y,z
1/2-x,1/2-y,1/2+z
1/2+x,1/2-y,-z
1/2-x,1/2+y,1/2-z
1/2-x,1/2-y,-z
1/2+x,1/2+y,1/2-z
1/2-x,1/2+y,z
1/2+x,1/2-y,1/2+z
loop_
_atom_site_type_symbol
_atom_site_label
_atom_site_fract_x
_atom_site_fract_y
_atom_site_fract_z
Si Si1 0.766809 0.346735 0.821395
Si Si2 0.417807 0.602071 0.828900
Si Si3 0.233025 0.025551 0.825686
Si Si4 0.083115 0.723303 0.359109
Si Si5 0.703999 0.686182 0.461204
Si Si6 0.082983 0.706253 0.985141
Si Si7 0.699724 0.076112 0.960837
O O1 0.739863 0.319246 0.750000
O O2 0.751810 0.436518 0.825072
O O3 0.852696 0.325310 0.826462
O O4 0.728683 0.312864 0.885689
O O5 0.421738 0.607412 0.750000
O O6 0.500000 0.582072 0.853078
O O7 0.352039 0.544064 0.842635
O O8 0.399247 0.687008 0.853200
O O9 0.245884 0.053471 0.750000
O O10 0.278426 0.061465 0.885477
O O11 0.082789 0.702712 0.435772
O O12 0.000000 0.712691 0.333090
O O13 0.750000 0.750000 0.500000
O O14 0.620775 0.713641 0.466951
O O15 0.731116 0.610171 0.497574
O O16 0.000000 0.700246 0.961082
O O17 0.134893 0.637837 0.962140
O O18 0.677628 0.000000 0.000000
#
# Coordination Sequence:
#
# PCOD9469402 Si02
#       7
#    16  16  16  16  16  16  16
#     4  11  21  35  54  83 113 144 182 223 275 330
#     4   9  18  32  52  79 108 139 176 225 282 328
#     4  10  21  35  54  81 111 143 183 226 271 327
#     4  10  18  33  55  83 111 137 174 229 284 325
#     4  10  19  36  56  78 107 144 183 223 264 318
#     4  10  21  35  55  79 110 146 181 222 270 323
#     4  11  19  35  59  80 107 142 185 227 271 320
#
# _framework density 17.162542999999999
#
# number of rings (size 3 to 8) (size 9 to 14) (size 15 to 20)
#    0.000    1.857    4.286    1.286    2.000    1.143 
#    0.000    1.429    0.000    4.286    0.000    0.000 
#    0.000    0.000    0.000    0.000    0.000    0.000 
#
# Total GULP energy -311969.455315 kJ/mol
# GULP energy per Si atom -5570.883131 kJ/mol
# Density = 1.712348 g / cm^3
# Si number density = 17.162543 Si / 1000 Ang^3
#
#
#
# Elastic Constant Matrix: (Units=GPa)
#
#
# Indices 1 2 3 4 5 6 
#
# 1 113.9180 51.5907 37.6765 0.0000 0.0000 0.0000
# 2 51.5907 59.1446 17.8208 0.0000 0.0000 0.0000
# 3 37.6765 17.8208 116.4717 0.0000 0.0000 0.0000
# 4 0.0000 0.0000 0.0000 28.1996 0.0000 0.0000
# 5 0.0000 0.0000 0.0000 0.0000 18.1970 0.0000
# 6 0.0000 0.0000 0.0000 0.0000 0.0000 26.4262
#
#
#
# Elastic Compliance Matrix: (Units=1/GPa)
#
#
# Indices 1 2 3 4 5 6 
#
# 1 0.015502 -0.012592 -0.003088 0.000000 0.000000 0.000000
# 2 -0.012592 0.027953 -0.000204 0.000000 0.000000 0.000000
# 3 -0.003088 -0.000204 0.009616 0.000000 0.000000 0.000000
# 4 0.000000 0.000000 0.000000 0.035462 0.000000 0.000000
# 5 0.000000 0.000000 0.000000 0.000000 0.054954 0.000000
# 6 0.000000 0.000000 0.000000 0.000000 0.000000 0.037841
#
#
# Mechanical properties :
#
#
# Convention : Reuss Voigt Hill
#
# Bulk Modulus (GPa) = 46.94035 55.96782 51.45408
# Shear Modulus (GPa) = 22.70710 26.72764 24.71737
#
# Velocity S-wave (km/s) = 3.64134 3.95058 3.79910
# Velocity P-wave (km/s) = 6.71483 7.31373 7.02067
#
# Compressibility (1/GPa) = 0.02130363
#
# Stress axis : x y z
#
# Youngs Moduli (GPa) = 64.50771 35.77484 103.99480
#
# Poissons Ratio (x) = 0.45047 0.32114
# Poissons Ratio (y) = 0.81226 0.02119
# Poissons Ratio (z) = 0.19920 0.00729
#
# Static dielectric constant tensor:
#      x y z
#    x 1.613600 0.000000 0.000000 
#    y 0.000000 1.614470 0.000000 
#    z 0.000000 0.000000 1.630690 
# 
# From -- ./inp_files/55837.got.cif
#   From: 2010.05.17/outbox.cif.g08.bks.cpg/sg63_28_cif.got.tgz:55837.got - 2010.06.03 15:47:04.
