data_PCOD9469535
_publ_section_title
;
Structure prediction by ZEFSAII (Michael W. Deem and Ramdas Pophale) SiO2 
 PCOD9469535
Probable space group: C M C M
;
_chemical_formula_sum "Si O2"
_cell_formula_units_Z 116
_cell_length_a 18.332705
_cell_length_b 19.891928
_cell_length_c 16.795712
_cell_angle_alpha 90.000000
_cell_angle_beta 90.000000
_cell_angle_gamma 90.000000
_cell_volume 6124.940128
_symmetry_space_group_name_H-M "C M C M"
_symmetry_group_IT_number 63
_symmetry_cell_setting 'orthorhombic'
loop_
_space_group_symop_operation_xyz
x,y,z
-x,-y,1/2+z
x,-y,-z
-x,y,1/2-z
-x,-y,-z
x,y,1/2-z
-x,y,z
x,-y,1/2+z
1/2+x,1/2+y,z
1/2-x,1/2-y,1/2+z
1/2+x,1/2-y,-z
1/2-x,1/2+y,1/2-z
1/2-x,1/2-y,-z
1/2+x,1/2+y,1/2-z
1/2-x,1/2+y,z
1/2+x,1/2-y,1/2+z
loop_
_atom_site_type_symbol
_atom_site_label
_atom_site_fract_x
_atom_site_fract_y
_atom_site_fract_z
Si Si1 0.222405 0.876952 0.899954
Si Si2 0.133263 0.292809 0.878075
Si Si3 0.279301 0.661867 0.584712
Si Si4 0.113770 0.692582 0.937475
Si Si5 0.500000 0.196202 0.250000
Si Si6 0.421959 0.939265 0.156788
Si Si7 0.077700 0.817773 0.838541
Si Si8 0.739107 0.018775 0.844405
O O1 0.294691 0.839829 0.865212
O O2 0.149801 0.860158 0.851668
O O3 0.232579 0.956601 0.894986
O O4 0.210010 0.852513 0.990748
O O5 0.163438 0.215605 0.880988
O O6 0.065966 0.302542 0.818907
O O7 0.109219 0.309760 0.968069
O O8 0.198975 0.694866 0.587967
O O9 0.272516 0.590527 0.629532
O O10 0.081825 0.626400 0.897208
O O11 0.078799 0.758695 0.902117
O O12 0.418429 0.919357 0.250000
O O13 0.500000 0.974704 0.144573
O O14 0.348254 0.979366 0.141196
O O15 0.080933 0.787477 0.750000
O O16 0.000000 0.855025 0.845063
O O17 0.751225 0.008397 0.750000
#
# Coordination Sequence:
#
# PCOD9469535 Si02
#       8
#    16  16  16  16   4  16  16  16
#     4  11  21  42  66  90 125 168 208 263 320 381
#     4  11  24  43  62  91 126 168 216 257 315 385
#     4  10  20  40  67  90 117 169 222 255 304 386
#     4  10  18  35  63  91 122 165 202 257 319 371
#     4  12  32  40  60 100 132 172 220 270 316 390
#     4   9  18  33  54  89 129 164 209 257 315 380
#     4  11  22  33  58  96 122 148 193 255 322 374
#     4  10  22  36  61  91 121 167 214 263 315 378
#
# _framework density 18.938960000000002
#
# number of rings (size 3 to 8) (size 9 to 14) (size 15 to 20)
#    0.000    1.655    2.759    2.483    4.828    1.655 
#    1.241    0.000    1.517    3.310    0.000    0.000 
#    0.000    0.000    0.000    0.000    0.000    0.000 
#
# Total GULP energy -323095.539519 kJ/mol
# GULP energy per Si atom -5570.612750 kJ/mol
# Density = 1.889585 g / cm^3
# Si number density = 18.938960 Si / 1000 Ang^3
#
#
#
# Elastic Constant Matrix: (Units=GPa)
#
#
# Indices 1 2 3 4 5 6 
#
# 1 116.5745 24.3177 52.6386 0.0000 0.0000 0.0000
# 2 24.3177 65.0147 13.6764 0.0000 0.0000 0.0000
# 3 52.6386 13.6764 46.2057 0.0000 0.0000 0.0000
# 4 0.0000 0.0000 0.0000 8.8700 0.0000 0.0000
# 5 0.0000 0.0000 0.0000 0.0000 30.6887 0.0000
# 6 0.0000 0.0000 0.0000 0.0000 0.0000 -4.4820
#
#
#
# Elastic Compliance Matrix: (Units=1/GPa)
#
#
# Indices 1 2 3 4 5 6 
#
# 1 0.018065 -0.002589 -0.019814 0.000000 0.000000 0.000000
# 2 -0.002589 0.016773 -0.002015 0.000000 0.000000 0.000000
# 3 -0.019814 -0.002015 0.044811 0.000000 0.000000 0.000000
# 4 0.000000 0.000000 0.000000 0.112740 0.000000 0.000000
# 5 0.000000 0.000000 0.000000 0.000000 0.032585 0.000000
# 6 0.000000 0.000000 0.000000 0.000000 0.000000 -0.223116
#
#
# Mechanical properties :
#
#
# Convention : Reuss Voigt Hill
#
# Bulk Modulus (GPa) = 32.45339 45.45113 38.95226
# Shear Modulus (GPa) = 82.01240 16.15949 49.08594
#
# Velocity S-wave (km/s) = 6.58768 2.92420 5.09649
# Velocity P-wave (km/s) = 8.66235 5.95417 7.43265
#
# Compressibility (1/GPa) = 0.03081342
#
# Stress axis : x y z
#
# Youngs Moduli (GPa) = 55.35536 59.61803 22.31584
#
# Poissons Ratio (x) = 0.15435 0.44216
# Poissons Ratio (y) = 0.14331 0.04498
# Poissons Ratio (z) = 1.09680 0.12015
#
# Static dielectric constant tensor:
#      x y z
#    x 1.709870 0.000000 0.000000 
#    y 0.000000 1.636460 0.000000 
#    z 0.000000 0.000000 1.685170 
# 
# From -- ./inp_files/45920.got.cif
#   From: 2010.05.17/outbox.cif.g08.bks.cpg/sg63_23_cif.got.tgz:45920.got - 2010.06.03 15:47:04.
