data_PCOD9469221
_publ_section_title
;
Structure prediction by ZEFSAII (Michael W. Deem and Ramdas Pophale) SiO2 
 PCOD9469221
Probable space group: C M C M
;
_chemical_formula_sum "Si O2"
_cell_formula_units_Z 96
_cell_length_a 24.089293
_cell_length_b 9.305890
_cell_length_c 23.703581
_cell_angle_alpha 90.000000
_cell_angle_beta 90.000000
_cell_angle_gamma 90.000000
_cell_volume 5313.686528
_symmetry_space_group_name_H-M "C M C M"
_symmetry_group_IT_number 63
_symmetry_cell_setting 'orthorhombic'
loop_
_space_group_symop_operation_xyz
x,y,z
-x,-y,1/2+z
x,-y,-z
-x,y,1/2-z
-x,-y,-z
x,y,1/2-z
-x,y,z
x,-y,1/2+z
1/2+x,1/2+y,z
1/2-x,1/2-y,1/2+z
1/2+x,1/2-y,-z
1/2-x,1/2+y,1/2-z
1/2-x,1/2-y,-z
1/2+x,1/2+y,1/2-z
1/2-x,1/2+y,z
1/2+x,1/2-y,1/2+z
loop_
_atom_site_type_symbol
_atom_site_label
_atom_site_fract_x
_atom_site_fract_y
_atom_site_fract_z
Si Si1 0.435700 0.302077 0.968091
Si Si2 0.882965 0.093162 0.925683
Si Si3 0.775769 0.204138 0.358216
Si Si4 0.823340 0.905053 0.185220
Si Si5 0.802977 0.319687 0.544809
Si Si6 0.348589 0.098350 0.573710
O O1 0.500000 0.318997 0.954517
O O2 0.398774 0.429916 0.940483
O O3 0.407924 0.158254 0.944854
O O4 0.426366 0.319400 0.035375
O O5 0.824518 0.157036 0.948772
O O6 0.873930 0.111178 0.859180
O O7 0.797709 0.063866 0.326557
O O8 0.724849 0.288277 0.328850
O O9 0.751642 0.153162 0.418954
O O10 0.823630 0.319548 0.372755
O O11 0.839761 0.891971 0.250000
O O12 0.846064 0.427410 0.576186
O O13 0.808177 0.361316 0.479594
#
# Coordination Sequence:
#
# PCOD9469221 Si02
#       6
#    16  16  16  16  16  16
#     4  10  19  34  57  80 103 134 171 219 275 317
#     4   9  18  33  51  74 105 134 171 213 258 311
#     4  11  19  34  49  73 109 142 175 209 257 306
#     4  11  22  34  51  75 105 143 180 211 250 308
#     4   9  19  30  48  75 110 139 171 198 257 324
#     4  10  18  32  48  77 106 140 171 210 258 315
#
# _framework density 18.066552999999999
#
# number of rings (size 3 to 8) (size 9 to 14) (size 15 to 20)
#    0.000    2.000    3.333    2.000    0.000    0.000 
#    0.000    7.500    0.000    2.000    0.000    0.000 
#    0.000    0.000    0.000    0.000    0.000    0.000 
#
# Total GULP energy -267223.950841 kJ/mol
# GULP energy per Si atom -5567.165643 kJ/mol
# Density = 1.802543 g / cm^3
# Si number density = 18.066553 Si / 1000 Ang^3
#
#
#
# Elastic Constant Matrix: (Units=GPa)
#
#
# Indices 1 2 3 4 5 6 
#
# 1 55.7827 26.9178 31.2748 0.0000 0.0000 0.0000
# 2 26.9178 79.8373 9.8729 0.0000 0.0000 0.0000
# 3 31.2748 9.8729 88.3601 0.0000 0.0000 0.0000
# 4 0.0000 0.0000 0.0000 19.5718 0.0000 0.0000
# 5 0.0000 0.0000 0.0000 0.0000 13.6368 0.0000
# 6 0.0000 0.0000 0.0000 0.0000 0.0000 7.6459
#
#
#
# Elastic Compliance Matrix: (Units=1/GPa)
#
#
# Indices 1 2 3 4 5 6 
#
# 1 0.026494 -0.007882 -0.008497 0.000000 0.000000 0.000000
# 2 -0.007882 0.015046 0.001109 0.000000 0.000000 0.000000
# 3 -0.008497 0.001109 0.014201 0.000000 0.000000 0.000000
# 4 0.000000 0.000000 0.000000 0.051094 0.000000 0.000000
# 5 0.000000 0.000000 0.000000 0.000000 0.073331 0.000000
# 6 0.000000 0.000000 0.000000 0.000000 0.000000 0.130789
#
#
# Mechanical properties :
#
#
# Convention : Reuss Voigt Hill
#
# Bulk Modulus (GPa) = 39.68175 40.01237 39.84706
# Shear Modulus (GPa) = 14.29000 18.56520 16.42760
#
# Velocity S-wave (km/s) = 2.81546 3.20910 3.01870
# Velocity P-wave (km/s) = 5.70798 5.99386 5.85266
#
# Compressibility (1/GPa) = 0.02520050
#
# Stress axis : x y z
#
# Youngs Moduli (GPa) = 37.74467 66.46365 70.41837
#
# Poissons Ratio (x) = 0.52386 0.59833
# Poissons Ratio (y) = 0.29750 -0.07807
# Poissons Ratio (z) = 0.32071 -0.07368
#
# Static dielectric constant tensor:
#      x y z
#    x 1.612650 0.000000 0.000000 
#    y 0.000000 1.685210 0.000000 
#    z 0.000000 0.000000 1.639740 
# 
# From -- ./inp_files/65337.got.cif
#   From: 2010.05.17/outbox.cif.g08.bks.cpg/sg63_33_cif.got.tgz:65337.got - 2010.06.03 15:47:04.
