data_PCOD9469652
_publ_section_title
;
Structure prediction by ZEFSAII (Michael W. Deem and Ramdas Pophale) SiO2 
 PCOD9469652
Probable space group: C M C M
;
_chemical_formula_sum "Si O2"
_cell_formula_units_Z 96
_cell_length_a 23.378003
_cell_length_b 27.278061
_cell_length_c 8.982581
_cell_angle_alpha 90.000000
_cell_angle_beta 90.000000
_cell_angle_gamma 90.000000
_cell_volume 5728.251116
_symmetry_space_group_name_H-M "C M C M"
_symmetry_group_IT_number 63
_symmetry_cell_setting 'orthorhombic'
loop_
_space_group_symop_operation_xyz
x,y,z
-x,-y,1/2+z
x,-y,-z
-x,y,1/2-z
-x,-y,-z
x,y,1/2-z
-x,y,z
x,-y,1/2+z
1/2+x,1/2+y,z
1/2-x,1/2-y,1/2+z
1/2+x,1/2-y,-z
1/2-x,1/2+y,1/2-z
1/2-x,1/2-y,-z
1/2+x,1/2+y,1/2-z
1/2-x,1/2+y,z
1/2+x,1/2-y,1/2+z
loop_
_atom_site_type_symbol
_atom_site_label
_atom_site_fract_x
_atom_site_fract_y
_atom_site_fract_z
Si Si1 0.431389 0.551666 0.922371
Si Si2 0.745410 0.452842 0.917241
Si Si3 0.853803 0.872656 0.916888
Si Si4 0.830282 0.382687 0.072524
Si Si5 0.753797 0.196368 0.430605
Si Si6 0.933398 0.552202 0.570992
O O1 0.415177 0.547767 0.750000
O O2 0.500000 0.555961 0.934858
O O3 0.415543 0.500000 0.000000
O O4 0.402434 0.600204 0.990027
O O5 0.766919 0.462773 0.750000
O O6 0.695003 0.414015 0.905358
O O7 0.722852 0.500000 0.000000
O O8 0.793067 0.429396 0.022243
O O9 0.874806 0.861073 0.750000
O O10 0.815475 0.827446 0.975247
O O11 0.827622 0.374611 0.250000
O O12 0.893946 0.401075 0.030311
O O13 0.798420 0.337585 0.990697
O O14 0.752093 0.196519 0.250000
O O15 0.750000 0.250000 0.500000
O O16 0.915169 0.500000 0.500000
O O17 0.929404 0.547130 0.750000
O O18 0.000000 0.559846 0.530723
#
# Coordination Sequence:
#
# PCOD9469652 Si02
#       6
#    16  16  16  16  16  16
#     4  10  20  32  48  72 102 136 170 202 237 280
#     4  10  19  29  42  65  97 128 160 198 241 290
#     4   9  19  33  49  70  95 125 160 198 240 289
#     4  10  19  31  49  71  96 128 164 201 244 292
#     4  10  21  37  56  77  99 123 157 202 253 303
#     4   9  18  31  47  70 101 136 171 204 237 279
#
# _framework density 16.759042000000001
#
# number of rings (size 3 to 8) (size 9 to 14) (size 15 to 20)
#    0.000    2.333    0.000    4.000    0.000    9.000 
#    0.000    0.000    0.000    1.000    0.000    2.333 
#    0.000    0.000    0.000    0.000    0.000    0.000 
#
# Total GULP energy -267294.870672 kJ/mol
# GULP energy per Si atom -5568.643139 kJ/mol
# Density = 1.672090 g / cm^3
# Si number density = 16.759042 Si / 1000 Ang^3
#
#
#
# Elastic Constant Matrix: (Units=GPa)
#
#
# Indices 1 2 3 4 5 6 
#
# 1 54.8148 32.7420 33.9277 0.0000 0.0000 0.0000
# 2 32.7420 92.1591 45.7515 0.0000 0.0000 0.0000
# 3 33.9277 45.7515 63.3080 0.0000 0.0000 0.0000
# 4 0.0000 0.0000 0.0000 24.6457 0.0000 0.0000
# 5 0.0000 0.0000 0.0000 0.0000-2476.6721 0.0000
# 6 0.0000 0.0000 0.0000 0.0000 0.0000 24.3393
#
#
#
# Elastic Compliance Matrix: (Units=1/GPa)
#
#
# Indices 1 2 3 4 5 6 
#
# 1 0.028178 -0.003921 -0.012268 0.000000 0.000000 0.000000
# 2 -0.003921 0.017467 -0.010522 0.000000 0.000000 0.000000
# 3 -0.012268 -0.010522 0.029974 0.000000 0.000000 0.000000
# 4 0.000000 0.000000 0.000000 0.040575 0.000000 0.000000
# 5 0.000000 0.000000 0.000000 0.000000 -0.000404 0.000000
# 6 0.000000 0.000000 0.000000 0.000000 0.000000 0.041086
#
#
# Mechanical properties :
#
#
# Convention : Reuss Voigt Hill
#
# Bulk Modulus (GPa) = 45.04752 48.34716 46.69734
# Shear Modulus (GPa) = 22.96762 -479.01336 -228.02287
#
# Velocity S-wave (km/s) = 3.70599 -16.92467 -11.67711
# Velocity P-wave (km/s) = 6.72684 18.78869 12.40493
#
# Compressibility (1/GPa) = 0.02219878
#
# Stress axis : x y z
#
# Youngs Moduli (GPa) = 35.48820 57.24957 33.36203
#
# Poissons Ratio (x) = 0.22448 0.40927
# Poissons Ratio (y) = 0.13915 0.35104
# Poissons Ratio (z) = 0.43535 0.60238
#
# Static dielectric constant tensor:
#      x y z
#    x 1.596430 0.000000 0.000000 
#    y 0.000000 1.590140 0.000000 
#    z 0.000000 0.000000 1.612890 
# 
# From -- ./inp_files/8552.got.cif
#   From: 2010.05.17/outbox.cif.g08.bks.cpg/sg63_5_cif.got.tgz:8552.got - 2010.06.03 15:47:04.
