data_PCOD9469206
_publ_section_title
;
Structure prediction by ZEFSAII (Michael W. Deem and Ramdas Pophale) SiO2 
 PCOD9469206
Probable space group: C M C M
;
_chemical_formula_sum "Si O2"
_cell_formula_units_Z 80
_cell_length_a 19.860464
_cell_length_b 9.438547
_cell_length_c 22.170160
_cell_angle_alpha 90.000000
_cell_angle_beta 90.000000
_cell_angle_gamma 90.000000
_cell_volume 4155.883463
_symmetry_space_group_name_H-M "C M C M"
_symmetry_group_IT_number 63
_symmetry_cell_setting 'orthorhombic'
loop_
_space_group_symop_operation_xyz
x,y,z
-x,-y,1/2+z
x,-y,-z
-x,y,1/2-z
-x,-y,-z
x,y,1/2-z
-x,y,z
x,-y,1/2+z
1/2+x,1/2+y,z
1/2-x,1/2-y,1/2+z
1/2+x,1/2-y,-z
1/2-x,1/2+y,1/2-z
1/2-x,1/2-y,-z
1/2+x,1/2+y,1/2-z
1/2-x,1/2+y,z
1/2+x,1/2-y,1/2+z
loop_
_atom_site_type_symbol
_atom_site_label
_atom_site_fract_x
_atom_site_fract_y
_atom_site_fract_z
Si Si1 0.579370 0.500026 0.820837
Si Si2 0.924259 0.301047 0.127265
Si Si3 0.688195 0.997923 0.425937
Si Si4 0.069825 0.168135 0.504128
Si Si5 0.180577 0.811703 0.098240
O O1 0.582753 0.531126 0.750000
O O2 0.500000 0.515781 0.840281
O O3 0.596512 0.333063 0.831384
O O4 0.630492 0.603480 0.856494
O O5 0.872392 0.426007 0.112426
O O6 0.000000 0.348340 0.145313
O O7 0.929183 0.227576 0.062184
O O8 0.754487 0.904046 0.416057
O O9 0.676079 0.000000 0.500000
O O10 0.701426 0.148885 0.393253
O O11 0.135418 0.207802 0.539017
O O12 0.000000 0.217816 0.534141
O O13 0.069139 0.000000 0.500000
#
# Coordination Sequence:
#
# PCOD9469206 Si02
#       5
#    16  16  16  16  16
#     4  10  22  43  69  91 117 160 208 252 299 357
#     4  10  21  38  60  92 125 157 200 249 304 363
#     4  12  25  38  58  92 129 167 199 247 310 374
#     4  10  18  31  57  87 118 154 195 244 301 363
#     4  12  23  38  58  88 125 162 205 248 303 357
#
# _framework density 19.249818000000001
#
# number of rings (size 3 to 8) (size 9 to 14) (size 15 to 20)
#    0.000    1.200    4.000    3.000    0.000    2.000 
#    0.000    5.000    0.000    2.400    0.000    0.000 
#    0.000    0.000    0.000    0.000    0.000    0.000 
#
# Total GULP energy -222799.775525 kJ/mol
# GULP energy per Si atom -5569.994388 kJ/mol
# Density = 1.920600 g / cm^3
# Si number density = 19.249818 Si / 1000 Ang^3
#
#
#
# Elastic Constant Matrix: (Units=GPa)
#
#
# Indices 1 2 3 4 5 6 
#
# 1 90.6555 56.9722 16.9494 0.0000 0.0000 0.0000
# 2 56.9722 120.2326 22.5689 0.0000 0.0000 0.0000
# 3 16.9494 22.5689 52.6570 0.0000 0.0000 0.0000
# 4 0.0000 0.0000 0.0000 10.6576 0.0000 0.0000
# 5 0.0000 0.0000 0.0000 0.0000 29.1699 0.0000
# 6 0.0000 0.0000 0.0000 0.0000 0.0000 961.9626
#
#
#
# Elastic Compliance Matrix: (Units=1/GPa)
#
#
# Indices 1 2 3 4 5 6 
#
# 1 0.015911 -0.007153 -0.002055 0.000000 0.000000 0.000000
# 2 -0.007153 0.012261 -0.002953 0.000000 0.000000 0.000000
# 3 -0.002055 -0.002953 0.020918 0.000000 0.000000 0.000000
# 4 0.000000 0.000000 0.000000 0.093830 0.000000 0.000000
# 5 0.000000 0.000000 0.000000 0.000000 0.034282 0.000000
# 6 0.000000 0.000000 0.000000 0.000000 0.000000 0.001040
#
#
# Mechanical properties :
#
#
# Convention : Reuss Voigt Hill
#
# Bulk Modulus (GPa) = 40.37656 50.72513 45.55085
# Shear Modulus (GPa) = 23.71699 211.49499 117.60599
#
# Velocity S-wave (km/s) = 3.51388 10.49319 7.82478
# Velocity P-wave (km/s) = 6.12240 13.16122 10.26405
#
# Compressibility (1/GPa) = 0.02476684
#
# Stress axis : x y z
#
# Youngs Moduli (GPa) = 62.85123 81.55885 47.80600
#
# Poissons Ratio (x) = 0.58342 0.09826
# Poissons Ratio (y) = 0.44960 0.14115
# Poissons Ratio (z) = 0.12918 0.24081
#
# Static dielectric constant tensor:
#      x y z
#    x 1.738610 0.000000 0.000000 
#    y 0.000000 1.745270 0.000000 
#    z 0.000000 0.000000 1.666550 
# 
# From -- ./inp_files/69735.got.cif
#   From: 2010.05.17/outbox.cif.g08.bks.cpg/sg63_35_cif.got.tgz:69735.got - 2010.06.03 15:47:04.
