data_PCOD9469871
_publ_section_title
;
Structure prediction by ZEFSAII (Michael W. Deem and Ramdas Pophale) SiO2 
 PCOD9469871
Probable space group: C M C M
;
_chemical_formula_sum "Si O2"
_cell_formula_units_Z 128
_cell_length_a 20.016609
_cell_length_b 19.829168
_cell_length_c 18.896076
_cell_angle_alpha 90.000000
_cell_angle_beta 90.000000
_cell_angle_gamma 90.000000
_cell_volume 7500.092595
_symmetry_space_group_name_H-M "C M C M"
_symmetry_group_IT_number 63
_symmetry_cell_setting 'orthorhombic'
loop_
_space_group_symop_operation_xyz
x,y,z
-x,-y,1/2+z
x,-y,-z
-x,y,1/2-z
-x,-y,-z
x,y,1/2-z
-x,y,z
x,-y,1/2+z
1/2+x,1/2+y,z
1/2-x,1/2-y,1/2+z
1/2+x,1/2-y,-z
1/2-x,1/2+y,1/2-z
1/2-x,1/2-y,-z
1/2+x,1/2+y,1/2-z
1/2-x,1/2+y,z
1/2+x,1/2-y,1/2+z
loop_
_atom_site_type_symbol
_atom_site_label
_atom_site_fract_x
_atom_site_fract_y
_atom_site_fract_z
Si Si1 0.077745 0.695339 0.936701
Si Si2 0.249734 0.467223 0.332415
Si Si3 0.327178 0.927062 0.471375
Si Si4 0.686197 0.744288 0.166816
Si Si5 0.816045 0.166583 0.830285
Si Si6 0.427167 0.575210 0.470868
Si Si7 0.927728 0.797625 0.067502
Si Si8 0.783514 0.895635 0.907146
O O1 0.115861 0.628857 0.964321
O O2 0.120672 0.728902 0.873637
O O3 0.000000 0.683274 0.918166
O O4 0.079231 0.748009 0.001414
O O5 0.229010 0.461573 0.250000
O O6 0.199017 0.441778 0.392311
O O7 0.310685 0.413999 0.341815
O O8 0.265115 0.544113 0.353238
O O9 0.266554 0.902953 0.524571
O O10 0.350050 0.000000 0.500000
O O11 0.674003 0.730965 0.250000
O O12 0.742394 0.802270 0.161444
O O13 0.715986 0.677846 0.128503
O O14 0.837414 0.177731 0.750000
O O15 0.865738 0.205014 0.881164
O O16 0.422965 0.500000 0.500000
O O17 0.500000 0.583584 0.433996
O O18 0.427743 0.627610 0.535202
O O19 0.360193 0.591121 0.428770
O O20 0.000000 0.784787 0.101734
#
# Coordination Sequence:
#
# PCOD9469871 Si02
#       8
#    16  16  16  16  16  16  16  16
#     4  11  23  38  57  81 110 146 186 234 288 339
#     4  10  20  34  53  81 115 145 183 235 281 331
#     4  10  21  36  60  87 108 147 188 235 288 339
#     4  11  23  36  55  82 111 147 186 229 281 339
#     4  10  20  34  54  78 107 144 183 223 274 330
#     4  10  19  30  48  76 108 142 182 222 262 317
#     4  10  20  34  52  78 107 141 183 226 275 326
#     4  11  20  34  57  82 112 145 190 230 281 332
#
# _framework density 17.066455999999999
#
# number of rings (size 3 to 8) (size 9 to 14) (size 15 to 20)
#    0.000    1.625    2.500    3.750    0.000    1.750 
#    0.000    0.000    0.000    1.875    0.000    0.000 
#    0.000    0.000    0.000    0.000    0.000    0.000 
#
# Total GULP energy -356682.573835 kJ/mol
# GULP energy per Si atom -5573.165216 kJ/mol
# Density = 1.702761 g / cm^3
# Si number density = 17.066456 Si / 1000 Ang^3
#
#
#
# Elastic Constant Matrix: (Units=GPa)
#
#
# Indices 1 2 3 4 5 6 
#
# 1 90.4976 37.0628 53.7002 0.0000 0.0000 0.0000
# 2 37.0628 93.7853 31.9843 0.0000 0.0000 0.0000
# 3 53.7002 31.9843 87.0226 0.0000 0.0000 0.0000
# 4 0.0000 0.0000 0.0000 21.6100 0.0000 0.0000
# 5 0.0000 0.0000 0.0000 0.0000 24.9106 0.0000
# 6 0.0000 0.0000 0.0000 0.0000 0.0000 37.8355
#
#
#
# Elastic Compliance Matrix: (Units=1/GPa)
#
#
# Indices 1 2 3 4 5 6 
#
# 1 0.018622 -0.003933 -0.010046 0.000000 0.000000 0.000000
# 2 -0.003933 0.013021 -0.002359 0.000000 0.000000 0.000000
# 3 -0.010046 -0.002359 0.018557 0.000000 0.000000 0.000000
# 4 0.000000 0.000000 0.000000 0.046275 0.000000 0.000000
# 5 0.000000 0.000000 0.000000 0.000000 0.040144 0.000000
# 6 0.000000 0.000000 0.000000 0.000000 0.000000 0.026430
#
#
# Mechanical properties :
#
#
# Convention : Reuss Voigt Hill
#
# Bulk Modulus (GPa) = 57.06048 57.42223 57.24135
# Shear Modulus (GPa) = 24.80579 26.77510 25.79045
#
# Velocity S-wave (km/s) = 3.81659 3.96520 3.89160
# Velocity P-wave (km/s) = 7.27521 7.39480 7.33525
#
# Compressibility (1/GPa) = 0.01752527
#
# Stress axis : x y z
#
# Youngs Moduli (GPa) = 53.70064 76.79642 53.88745
#
# Poissons Ratio (x) = 0.30205 0.54133
# Poissons Ratio (y) = 0.21121 0.12711
# Poissons Ratio (z) = 0.53945 0.18115
#
# Static dielectric constant tensor:
#      x y z
#    x 1.593110 0.000000 0.000000 
#    y 0.000000 1.600610 0.000000 
#    z 0.000000 0.000000 1.575110 
# 
# From -- ./inp_files/47548.got.cif
#   From: 2010.05.17/outbox.cif.g08.bks.cpg/sg63_24_cif.got.tgz:47548.got - 2010.06.03 15:47:04.
