data_PCOD9469367
_publ_section_title
;
Structure prediction by ZEFSAII (Michael W. Deem and Ramdas Pophale) SiO2 
 PCOD9469367
Probable space group: C M C M
;
_chemical_formula_sum "Si O2"
_cell_formula_units_Z 88
_cell_length_a 28.959052
_cell_length_b 10.615915
_cell_length_c 15.953608
_cell_angle_alpha 90.000000
_cell_angle_beta 90.000000
_cell_angle_gamma 90.000000
_cell_volume 4904.567206
_symmetry_space_group_name_H-M "C M C M"
_symmetry_group_IT_number 63
_symmetry_cell_setting 'orthorhombic'
loop_
_space_group_symop_operation_xyz
x,y,z
-x,-y,1/2+z
x,-y,-z
-x,y,1/2-z
-x,-y,-z
x,y,1/2-z
-x,y,z
x,-y,1/2+z
1/2+x,1/2+y,z
1/2-x,1/2-y,1/2+z
1/2+x,1/2-y,-z
1/2-x,1/2+y,1/2-z
1/2-x,1/2-y,-z
1/2+x,1/2+y,1/2-z
1/2-x,1/2+y,z
1/2+x,1/2-y,1/2+z
loop_
_atom_site_type_symbol
_atom_site_label
_atom_site_fract_x
_atom_site_fract_y
_atom_site_fract_z
Si Si1 0.872742 0.723651 0.599734
Si Si2 0.739173 0.122827 0.250000
Si Si3 0.154711 0.180260 0.750000
Si Si4 0.553763 0.011521 0.650362
Si Si5 0.842558 0.883434 0.750000
Si Si6 0.200194 0.507720 0.909374
Si Si7 0.883152 0.696119 0.413575
O O1 0.913722 0.627758 0.624830
O O2 0.868225 0.832803 0.667521
O O3 0.825442 0.640624 0.603189
O O4 0.881293 0.762089 0.503603
O O5 0.701223 0.234446 0.250000
O O6 0.790857 0.172202 0.250000
O O7 0.730444 0.036772 0.168204
O O8 0.126701 0.218363 0.833421
O O9 0.163345 0.032674 0.750000
O O10 0.560830 0.989040 0.750000
O O11 0.500000 0.036158 0.635263
O O12 0.571570 0.888604 0.601058
O O13 0.158229 0.407068 0.915062
O O14 0.224462 0.500000 0.000000
#
# Coordination Sequence:
#
# PCOD9469367 Si02
#       7
#    16   8   8  16   8  16  16
#     4  10  20  35  56  83 117 145 178 230 287 335
#     4  10  21  36  55  76 104 143 189 245 281 323
#     4  10  22  40  54  77 108 153 199 228 273 338
#     4  10  18  32  63  98 118 139 177 229 282 336
#     4  12  25  36  53  79 106 154 192 229 284 335
#     4   8  16  33  56  79 103 138 177 230 290 328
#     4   9  18  36  58  80 114 149 177 224 281 335
#
# _framework density 17.942460000000001
#
# number of rings (size 3 to 8) (size 9 to 14) (size 15 to 20)
#    0.000    2.364    1.818    2.182    5.091    2.182 
#    3.273    2.727    0.000    2.182    0.000    2.545 
#    0.000    0.000    0.000    0.000    0.000    0.000 
#
# Total GULP energy -245432.440838 kJ/mol
# GULP energy per Si atom -5578.010019 kJ/mol
# Density = 1.790162 g / cm^3
# Si number density = 17.942460 Si / 1000 Ang^3
#
#
#
# Elastic Constant Matrix: (Units=GPa)
#
#
# Indices 1 2 3 4 5 6 
#
# 1 64.9178 14.3122 40.2527 0.0000 0.0000 0.0000
# 2 14.3122 70.8328 50.1305 0.0000 0.0000 0.0000
# 3 40.2527 50.1305 167.5967 0.0000 0.0000 0.0000
# 4 0.0000 0.0000 0.0000 1.2536 0.0000 0.0000
# 5 0.0000 0.0000 0.0000 0.0000 4.7694 0.0000
# 6 0.0000 0.0000 0.0000 0.0000 0.0000 15.1980
#
#
#
# Elastic Compliance Matrix: (Units=1/GPa)
#
#
# Indices 1 2 3 4 5 6 
#
# 1 0.018130 -0.000738 -0.004134 0.000000 0.000000 0.000000
# 2 -0.000738 0.017939 -0.005189 0.000000 0.000000 0.000000
# 3 -0.004134 -0.005189 0.008512 0.000000 0.000000 0.000000
# 4 0.000000 0.000000 0.000000 0.797677 0.000000 0.000000
# 5 0.000000 0.000000 0.000000 0.000000 0.209672 0.000000
# 6 0.000000 0.000000 0.000000 0.000000 0.000000 0.065798
#
#
# Mechanical properties :
#
#
# Convention : Reuss Voigt Hill
#
# Bulk Modulus (GPa) = 40.88257 56.97090 48.92673
# Shear Modulus (GPa) = 4.36300 17.48764 10.92532
#
# Velocity S-wave (km/s) = 1.56107 3.12533 2.47028
# Velocity P-wave (km/s) = 5.10726 6.69660 5.95519
#
# Compressibility (1/GPa) = 0.02446030
#
# Stress axis : x y z
#
# Youngs Moduli (GPa) = 55.15757 55.74461 117.48794
#
# Poissons Ratio (x) = 0.04112 0.48566
# Poissons Ratio (y) = 0.04069 0.60960
# Poissons Ratio (z) = 0.22801 0.28924
#
# Static dielectric constant tensor:
#      x y z
#    x 1.591320 0.000000 0.000000 
#    y 0.000000 1.591750 0.000000 
#    z 0.000000 0.000000 1.656310 
# 
# From -- ./inp_files/37816.got.cif
#   From: 2010.05.17/outbox.cif.g08.bks.cpg/sg63_19_cif.got.tgz:37816.got - 2010.06.03 15:47:04.
