data_PCOD9469916
_publ_section_title
;
Structure prediction by ZEFSAII (Michael W. Deem and Ramdas Pophale) SiO2 
 PCOD9469916
Probable space group: C M C M
;
_chemical_formula_sum "Si O2"
_cell_formula_units_Z 72
_cell_length_a 24.157176
_cell_length_b 23.815271
_cell_length_c 8.615948
_cell_angle_alpha 90.000000
_cell_angle_beta 90.000000
_cell_angle_gamma 90.000000
_cell_volume 4956.838399
_symmetry_space_group_name_H-M "C M C M"
_symmetry_group_IT_number 63
_symmetry_cell_setting 'orthorhombic'
loop_
_space_group_symop_operation_xyz
x,y,z
-x,-y,1/2+z
x,-y,-z
-x,y,1/2-z
-x,-y,-z
x,y,1/2-z
-x,y,z
x,-y,1/2+z
1/2+x,1/2+y,z
1/2-x,1/2-y,1/2+z
1/2+x,1/2-y,-z
1/2-x,1/2+y,1/2-z
1/2-x,1/2-y,-z
1/2+x,1/2+y,1/2-z
1/2-x,1/2+y,z
1/2+x,1/2-y,1/2+z
loop_
_atom_site_type_symbol
_atom_site_label
_atom_site_fract_x
_atom_site_fract_y
_atom_site_fract_z
Si Si1 0.720891 0.438041 0.065843
Si Si2 0.721892 0.163333 0.433949
Si Si3 0.000000 0.937033 0.562888
Si Si4 0.669921 0.273883 0.063807
Si Si5 0.387552 0.374667 0.936598
O O1 0.714883 0.439616 0.250000
O O2 0.729508 0.500000 0.000000
O O3 0.770374 0.395480 0.019980
O O4 0.664451 0.411860 0.994528
O O5 0.721303 0.153341 0.250000
O O6 0.673169 0.207567 0.473196
O O7 0.777608 0.197415 0.479182
O O8 0.055511 0.904266 0.515267
O O9 0.000000 0.939469 0.750000
O O10 0.000000 0.000000 0.500000
O O11 0.676770 0.279554 0.250000
O O12 0.619626 0.312400 0.007464
O O13 0.385244 0.371336 0.750000
#
# Coordination Sequence:
#
# PCOD9469916 Si02
#       5
#    16  16   8  16  16
#     4  11  20  29  41  58  80 106 136 165 199 239
#     4   9  16  26  40  58  79 101 127 159 194 235
#     4  10  22  34  44  58  76 104 139 176 211 242
#     4   9  16  26  41  60  78  98 127 161 199 239
#     4  10  19  31  44  58  77 102 136 173 208 241
#
# _framework density 14.525387
#
# number of rings (size 3 to 8) (size 9 to 14) (size 15 to 20)
#    0.000    2.222    0.000    7.333    0.000    6.222 
#    0.000    0.000    0.000    0.000    0.000    0.000 
#    0.000    0.000    0.000    1.000    0.000   12.889 
#
# Total GULP energy -200521.260688 kJ/mol
# GULP energy per Si atom -5570.035019 kJ/mol
# Density = 1.449233 g / cm^3
# Si number density = 14.525387 Si / 1000 Ang^3
#
#
#
# Elastic Constant Matrix: (Units=GPa)
#
#
# Indices 1 2 3 4 5 6 
#
# 1 47.6146 50.8842 11.8308 0.0000 0.0000 0.0000
# 2 50.8842 124.1415 26.9721 0.0000 0.0000 0.0000
# 3 11.8308 26.9721 46.5459 0.0000 0.0000 0.0000
# 4 0.0000 0.0000 0.0000 26.8215 0.0000 0.0000
# 5 0.0000 0.0000 0.0000 0.0000 13.0196 0.0000
# 6 0.0000 0.0000 0.0000 0.0000 0.0000 22.7110
#
#
#
# Elastic Compliance Matrix: (Units=1/GPa)
#
#
# Indices 1 2 3 4 5 6 
#
# 1 0.037393 -0.015172 -0.000713 0.000000 0.000000 0.000000
# 2 -0.015172 0.015372 -0.005051 0.000000 0.000000 0.000000
# 3 -0.000713 -0.005051 0.024592 0.000000 0.000000 0.000000
# 4 0.000000 0.000000 0.000000 0.037283 0.000000 0.000000
# 5 0.000000 0.000000 0.000000 0.000000 0.076807 0.000000
# 6 0.000000 0.000000 0.000000 0.000000 0.000000 0.044032
#
#
# Mechanical properties :
#
#
# Convention : Reuss Voigt Hill
#
# Bulk Modulus (GPa) = 28.18060 44.18623 36.18341
# Shear Modulus (GPa) = 17.29032 21.08475 19.18753
#
# Velocity S-wave (km/s) = 3.45389 3.81409 3.63845
# Velocity P-wave (km/s) = 5.94549 7.06275 6.52807
#
# Compressibility (1/GPa) = 0.03548541
#
# Stress axis : x y z
#
# Youngs Moduli (GPa) = 26.74300 65.05481 40.66321
#
# Poissons Ratio (x) = 0.98702 0.02897
# Poissons Ratio (y) = 0.40575 0.20539
# Poissons Ratio (z) = 0.01905 0.32860
#
# Static dielectric constant tensor:
#      x y z
#    x 1.475090 0.000000 0.000000 
#    y 0.000000 1.517830 0.000000 
#    z 0.000000 0.000000 1.485140 
# 
# From -- ./inp_files/8003.got.cif
#   From: 2010.05.17/outbox.cif.g08.bks.cpg/sg63_5_cif.got.tgz:8003.got - 2010.06.03 15:47:04.
