data_PCOD9469286
_publ_section_title
;
Structure prediction by ZEFSAII (Michael W. Deem and Ramdas Pophale) SiO2 
 PCOD9469286
Probable space group: C M C M
;
_chemical_formula_sum "Si O2"
_cell_formula_units_Z 128
_cell_length_a 25.541420
_cell_length_b 12.282308
_cell_length_c 23.494537
_cell_angle_alpha 90.000000
_cell_angle_beta 90.000000
_cell_angle_gamma 90.000000
_cell_volume 7370.414515
_symmetry_space_group_name_H-M "C M C M"
_symmetry_group_IT_number 63
_symmetry_cell_setting 'orthorhombic'
loop_
_space_group_symop_operation_xyz
x,y,z
-x,-y,1/2+z
x,-y,-z
-x,y,1/2-z
-x,-y,-z
x,y,1/2-z
-x,y,z
x,-y,1/2+z
1/2+x,1/2+y,z
1/2-x,1/2-y,1/2+z
1/2+x,1/2-y,-z
1/2-x,1/2+y,1/2-z
1/2-x,1/2-y,-z
1/2+x,1/2+y,1/2-z
1/2-x,1/2+y,z
1/2+x,1/2-y,1/2+z
loop_
_atom_site_type_symbol
_atom_site_label
_atom_site_fract_x
_atom_site_fract_y
_atom_site_fract_z
Si Si1 0.665615 0.126308 0.002133
Si Si2 0.799927 0.632690 0.127835
Si Si3 0.786214 0.594786 0.818830
Si Si4 0.941497 0.127985 0.620974
Si Si5 0.312962 0.717977 0.101772
Si Si6 0.831719 0.154380 0.684216
Si Si7 0.403034 0.571496 0.447546
Si Si8 0.057182 0.277573 0.512554
O O1 0.675711 0.161303 0.066786
O O2 0.603518 0.142518 0.994791
O O3 0.691519 0.204765 0.954780
O O4 0.681893 0.000000 0.000000
O O5 0.808671 0.512449 0.151277
O O6 0.738799 0.651097 0.116064
O O7 0.820994 0.718283 0.173441
O O8 0.789085 0.592122 0.750000
O O9 0.816567 0.697706 0.845711
O O10 0.724109 0.603293 0.835888
O O11 0.887484 0.127919 0.656217
O O12 0.937931 0.228292 0.576260
O O13 0.000000 0.134284 0.647897
O O14 0.937356 0.014664 0.586623
O O15 0.359097 0.632705 0.089483
O O16 0.835659 0.127013 0.750000
O O17 0.379076 0.500000 0.500000
O O18 0.436222 0.669050 0.474564
O O19 0.000000 0.325938 0.505434
#
# Coordination Sequence:
#
# PCOD9469286 Si02
#       8
#    16  16  16  16  16  16  16  16
#     4  11  20  33  51  77 107 135 168 216 262 314
#     4  11  20  35  52  74 106 139 173 209 262 314
#     4  10  21  37  56  76 103 141 182 218 258 310
#     4  10  18  32  53  76 104 134 170 216 259 306
#     4  10  21  34  52  79 109 139 171 215 264 313
#     4  10  21  35  52  75 102 135 176 218 255 307
#     4   9  18  32  52  78 107 139 171 206 260 326
#     4   9  18  32  50  74 104 137 171 208 258 314
#
# _framework density 17.36673
#
# number of rings (size 3 to 8) (size 9 to 14) (size 15 to 20)
#    0.000    2.000    2.500    1.875    0.000    3.000 
#    0.000    0.625    0.000    0.000    0.000    0.000 
#    0.000    9.500    0.000    0.000    0.000    0.000 
#
# Total GULP energy -356307.094797 kJ/mol
# GULP energy per Si atom -5567.298356 kJ/mol
# Density = 1.732720 g / cm^3
# Si number density = 17.366730 Si / 1000 Ang^3
#
#
#
# Elastic Constant Matrix: (Units=GPa)
#
#
# Indices 1 2 3 4 5 6 
#
# 1 43.0941 11.3807 20.1124 0.0000 0.0000 0.0000
# 2 11.3807 43.2946 -0.4547 0.0000 0.0000 0.0000
# 3 20.1124 -0.4547 45.5676 0.0000 0.0000 0.0000
# 4 0.0000 0.0000 0.0000 14.8743 0.0000 0.0000
# 5 0.0000 0.0000 0.0000 0.0000 16.9714 0.0000
# 6 0.0000 0.0000 0.0000 0.0000 0.0000 10.2851
#
#
#
# Elastic Compliance Matrix: (Units=1/GPa)
#
#
# Indices 1 2 3 4 5 6 
#
# 1 0.032135 -0.008597 -0.014269 0.000000 0.000000 0.000000
# 2 -0.008597 0.025400 0.004048 0.000000 0.000000 0.000000
# 3 -0.014269 0.004048 0.028284 0.000000 0.000000 0.000000
# 4 0.000000 0.000000 0.000000 0.067230 0.000000 0.000000
# 5 0.000000 0.000000 0.000000 0.000000 0.058923 0.000000
# 6 0.000000 0.000000 0.000000 0.000000 0.000000 0.097228
#
#
# Mechanical properties :
#
#
# Convention : Reuss Voigt Hill
#
# Bulk Modulus (GPa) = 20.75462 21.55922 21.15692
# Shear Modulus (GPa) = 13.77802 15.15404 14.46603
#
# Velocity S-wave (km/s) = 2.81972 2.95717 2.88926
# Velocity P-wave (km/s) = 4.75161 4.90926 4.83108
#
# Compressibility (1/GPa) = 0.04818205
#
# Stress axis : x y z
#
# Youngs Moduli (GPa) = 31.11869 39.37013 35.35575
#
# Poissons Ratio (x) = 0.33847 0.50450
# Poissons Ratio (y) = 0.26753 -0.14312
# Poissons Ratio (z) = 0.44404 -0.15937
#
# Static dielectric constant tensor:
#      x y z
#    x 1.607910 0.000000 0.000000 
#    y 0.000000 1.584100 0.000000 
#    z 0.000000 0.000000 1.606680 
# 
# From -- ./inp_files/65574.got.cif
#   From: 2010.05.17/outbox.cif.g08.bks.cpg/sg63_33_cif.got.tgz:65574.got - 2010.06.03 15:47:04.
