data_PCOD9469245
_publ_section_title
;
Structure prediction by ZEFSAII (Michael W. Deem and Ramdas Pophale) SiO2 
 PCOD9469245
Probable space group: C M C M
;
_chemical_formula_sum "Si O2"
_cell_formula_units_Z 72
_cell_length_a 15.955957
_cell_length_b 29.357896
_cell_length_c 8.552387
_cell_angle_alpha 90.000000
_cell_angle_beta 90.000000
_cell_angle_gamma 90.000000
_cell_volume 4006.223089
_symmetry_space_group_name_H-M "C M C M"
_symmetry_group_IT_number 63
_symmetry_cell_setting 'orthorhombic'
loop_
_space_group_symop_operation_xyz
x,y,z
-x,-y,1/2+z
x,-y,-z
-x,y,1/2-z
-x,-y,-z
x,y,1/2-z
-x,y,z
x,-y,1/2+z
1/2+x,1/2+y,z
1/2-x,1/2-y,1/2+z
1/2+x,1/2-y,-z
1/2-x,1/2+y,1/2-z
1/2-x,1/2-y,-z
1/2+x,1/2+y,1/2-z
1/2-x,1/2+y,z
1/2+x,1/2-y,1/2+z
loop_
_atom_site_type_symbol
_atom_site_label
_atom_site_fract_x
_atom_site_fract_y
_atom_site_fract_z
Si Si1 0.000000 0.051692 0.063644
Si Si2 0.746837 0.136981 0.439366
Si Si3 0.905678 0.196496 0.061547
Si Si4 0.676578 0.448845 0.064540
Si Si5 0.904798 0.701772 0.438360
O O1 0.000000 0.052838 0.250000
O O2 0.087956 0.070183 0.002357
O O3 0.000000 0.000000 0.000000
O O4 0.748254 0.133883 0.250000
O O5 0.829131 0.165186 0.492080
O O6 0.753762 0.086644 0.509075
O O7 0.664914 0.165390 0.486527
O O8 0.906571 0.194406 0.250000
O O9 0.000000 0.183701 0.006863
O O10 0.889810 0.248467 0.010455
O O11 0.670754 0.451333 0.250000
O O12 0.688699 0.500000 0.000000
O O13 0.900048 0.706252 0.250000
O O14 0.000000 0.688093 0.479159
#
# Coordination Sequence:
#
# PCOD9469245 Si02
#       5
#     8  16  16  16  16
#     4  10  18  32  52  72 100 136 170 204 246 298
#     4  10  20  33  51  75 103 138 176 215 262 312
#     4   9  18  31  48  73 104 137 171 209 257 309
#     4  11  22  36  53  76 104 136 174 214 259 306
#     4   9  18  33  52  74 102 136 174 218 265 310
#
# _framework density 17.97204
#
# number of rings (size 3 to 8) (size 9 to 14) (size 15 to 20)
#    0.000    2.222    0.000    5.000    1.556    1.778 
#    0.000    0.000    0.000    0.667    0.000    0.000 
#    0.000    0.000    0.000    0.000    0.000    0.000 
#
# Total GULP energy -200911.932905 kJ/mol
# GULP energy per Si atom -5580.887025 kJ/mol
# Density = 1.793113 g / cm^3
# Si number density = 17.972040 Si / 1000 Ang^3
#
#
#
# Elastic Constant Matrix: (Units=GPa)
#
#
# Indices 1 2 3 4 5 6 
#
# 1 97.1263 77.2670 27.7177 0.0000 0.0000 0.0000
# 2 77.2670 101.5817 22.2965 0.0000 0.0000 0.0000
# 3 27.7177 22.2965 53.2035 0.0000 0.0000 0.0000
# 4 0.0000 0.0000 0.0000 25.6210 0.0000 0.0000
# 5 0.0000 0.0000 0.0000 0.0000 13.7982 0.0000
# 6 0.0000 0.0000 0.0000 0.0000 0.0000 29.9464
#
#
#
# Elastic Compliance Matrix: (Units=1/GPa)
#
#
# Indices 1 2 3 4 5 6 
#
# 1 0.027810 -0.019794 -0.006193 0.000000 0.000000 0.000000
# 2 -0.019794 0.024930 -0.000136 0.000000 0.000000 0.000000
# 3 -0.006193 -0.000136 0.022079 0.000000 0.000000 0.000000
# 4 0.000000 0.000000 0.000000 0.039031 0.000000 0.000000
# 5 0.000000 0.000000 0.000000 0.000000 0.072473 0.000000
# 6 0.000000 0.000000 0.000000 0.000000 0.000000 0.033393
#
#
# Mechanical properties :
#
#
# Convention : Reuss Voigt Hill
#
# Bulk Modulus (GPa) = 44.29893 56.27491 50.28692
# Shear Modulus (GPa) = 17.88999 22.18179 20.03589
#
# Velocity S-wave (km/s) = 3.15847 3.51699 3.34254
# Velocity P-wave (km/s) = 6.16470 6.91901 6.55272
#
# Compressibility (1/GPa) = 0.02257391
#
# Stress axis : x y z
#
# Youngs Moduli (GPa) = 35.95830 40.11206 45.29199
#
# Poissons Ratio (x) = 0.79398 0.28049
# Poissons Ratio (y) = 0.71176 0.00614
# Poissons Ratio (z) = 0.22269 0.00544
#
# Static dielectric constant tensor:
#      x y z
#    x 1.641060 0.000000 0.000000 
#    y 0.000000 1.599410 0.000000 
#    z 0.000000 0.000000 1.601650 
# 
# From -- ./inp_files/4918.got.cif
#   From: 2010.05.17/outbox.cif.g08.bks.cpg/sg63_3_cif.got.tgz:4918.got - 2010.06.03 15:47:04.
