data_PCOD9469244
_publ_section_title
;
Structure prediction by ZEFSAII (Michael W. Deem and Ramdas Pophale) SiO2 
 PCOD9469244
Probable space group: C M C M
;
_chemical_formula_sum "Si O2"
_cell_formula_units_Z 96
_cell_length_a 17.735889
_cell_length_b 16.698494
_cell_length_c 19.048119
_cell_angle_alpha 90.000000
_cell_angle_beta 90.000000
_cell_angle_gamma 90.000000
_cell_volume 5641.341135
_symmetry_space_group_name_H-M "C M C M"
_symmetry_group_IT_number 63
_symmetry_cell_setting 'orthorhombic'
loop_
_space_group_symop_operation_xyz
x,y,z
-x,-y,1/2+z
x,-y,-z
-x,y,1/2-z
-x,-y,-z
x,y,1/2-z
-x,y,z
x,-y,1/2+z
1/2+x,1/2+y,z
1/2-x,1/2-y,1/2+z
1/2+x,1/2-y,-z
1/2-x,1/2+y,1/2-z
1/2-x,1/2-y,-z
1/2+x,1/2+y,1/2-z
1/2-x,1/2+y,z
1/2+x,1/2-y,1/2+z
loop_
_atom_site_type_symbol
_atom_site_label
_atom_site_fract_x
_atom_site_fract_y
_atom_site_fract_z
Si Si1 0.287173 0.218006 0.668037
Si Si2 0.212251 0.310708 0.945123
Si Si3 0.589437 0.062284 0.064612
Si Si4 0.085756 0.149944 0.330604
Si Si5 0.674138 0.541830 0.073360
Si Si6 0.301054 0.966010 0.165428
O O1 0.269019 0.216586 0.750000
O O2 0.219315 0.259426 0.626114
O O3 0.358019 0.276546 0.656646
O O4 0.310135 0.128045 0.648044
O O5 0.131421 0.353661 0.953570
O O6 0.268626 0.385948 0.943810
O O7 0.250000 0.250000 0.000000
O O8 0.500000 0.071819 0.077395
O O9 0.634385 0.020847 0.129537
O O10 0.599219 0.000000 0.000000
O O11 0.098764 0.122842 0.250000
O O12 0.105050 0.080375 0.385047
O O13 0.000000 0.176290 0.336869
O O14 0.722457 0.489181 0.128044
O O15 0.655573 0.500000 0.000000
O O16 0.299434 0.976695 0.250000
#
# Coordination Sequence:
#
# PCOD9469244 Si02
#       6
#    16  16  16  16  16  16
#     4   9  18  31  50  74  97 127 169 213 251 294
#     4  10  18  32  52  71  96 132 169 203 245 296
#     4  10  21  35  51  75 107 137 164 203 258 311
#     4   9  18  32  48  69  99 131 162 203 257 307
#     4  10  19  31  50  74  99 128 167 211 251 295
#     4  10  19  33  54  77 100 130 169 207 246 296
#
# _framework density 17.017229
#
# number of rings (size 3 to 8) (size 9 to 14) (size 15 to 20)
#    0.000    2.333    0.000    4.500    0.000    5.333 
#    0.000    6.667    0.000    3.000    0.000    2.333 
#    0.000    0.000    0.000    0.000    0.000    0.000 
#
# Total GULP energy -267309.147897 kJ/mol
# GULP energy per Si atom -5568.940581 kJ/mol
# Density = 1.697850 g / cm^3
# Si number density = 17.017229 Si / 1000 Ang^3
#
#
#
# Elastic Constant Matrix: (Units=GPa)
#
#
# Indices 1 2 3 4 5 6 
#
# 1 71.0776 33.7002 27.7222 0.0000 0.0000 0.0000
# 2 33.7002 90.6938 52.8083 0.0000 0.0000 0.0000
# 3 27.7222 52.8083 71.0196 0.0000 0.0000 0.0000
# 4 0.0000 0.0000 0.0000 32.1239 0.0000 0.0000
# 5 0.0000 0.0000 0.0000 0.0000 20.4459 0.0000
# 6 0.0000 0.0000 0.0000 0.0000 0.0000 12.0735
#
#
#
# Elastic Compliance Matrix: (Units=1/GPa)
#
#
# Indices 1 2 3 4 5 6 
#
# 1 0.017567 -0.004470 -0.003533 0.000000 0.000000 0.000000
# 2 -0.004470 0.020583 -0.013560 0.000000 0.000000 0.000000
# 3 -0.003533 -0.013560 0.025542 0.000000 0.000000 0.000000
# 4 0.000000 0.000000 0.000000 0.031129 0.000000 0.000000
# 5 0.000000 0.000000 0.000000 0.000000 0.048910 0.000000
# 6 0.000000 0.000000 0.000000 0.000000 0.000000 0.082826
#
#
# Mechanical properties :
#
#
# Convention : Reuss Voigt Hill
#
# Bulk Modulus (GPa) = 48.62520 51.25029 49.93775
# Shear Modulus (GPa) = 18.08071 20.83269 19.45670
#
# Velocity S-wave (km/s) = 3.26313 3.50267 3.38502
# Velocity P-wave (km/s) = 6.54473 6.82205 6.68483
#
# Compressibility (1/GPa) = 0.02056547
#
# Stress axis : x y z
#
# Youngs Moduli (GPa) = 56.92617 48.58473 39.15055
#
# Poissons Ratio (x) = 0.21718 0.13832
# Poissons Ratio (y) = 0.25447 0.53087
# Poissons Ratio (z) = 0.20113 0.65880
#
# Static dielectric constant tensor:
#      x y z
#    x 1.578830 0.000000 0.000000 
#    y 0.000000 1.594100 0.000000 
#    z 0.000000 0.000000 1.628360 
# 
# From -- ./inp_files/45772.got.cif
#   From: 2010.05.17/outbox.cif.g08.bks.cpg/sg63_23_cif.got.tgz:45772.got - 2010.06.03 15:47:04.
