data_PCOD9469553
_publ_section_title
;
Structure prediction by ZEFSAII (Michael W. Deem and Ramdas Pophale) SiO2 
 PCOD9469553
Probable space group: C M C M
;
_chemical_formula_sum "Si O2"
_cell_formula_units_Z 96
_cell_length_a 10.661864
_cell_length_b 19.087784
_cell_length_c 21.917369
_cell_angle_alpha 90.000000
_cell_angle_beta 90.000000
_cell_angle_gamma 90.000000
_cell_volume 4460.433509
_symmetry_space_group_name_H-M "C M C M"
_symmetry_group_IT_number 63
_symmetry_cell_setting 'orthorhombic'
loop_
_space_group_symop_operation_xyz
x,y,z
-x,-y,1/2+z
x,-y,-z
-x,y,1/2-z
-x,-y,-z
x,y,1/2-z
-x,y,z
x,-y,1/2+z
1/2+x,1/2+y,z
1/2-x,1/2-y,1/2+z
1/2+x,1/2-y,-z
1/2-x,1/2+y,1/2-z
1/2-x,1/2-y,-z
1/2+x,1/2+y,1/2-z
1/2-x,1/2+y,z
1/2+x,1/2-y,1/2+z
loop_
_atom_site_type_symbol
_atom_site_label
_atom_site_fract_x
_atom_site_fract_y
_atom_site_fract_z
Si Si1 0.233897 0.085206 0.489631
Si Si2 0.861928 0.092826 0.363397
Si Si3 0.500000 0.015059 0.680460
Si Si4 0.143866 0.175165 0.601985
Si Si5 0.350902 0.806913 0.679676
Si Si6 0.217611 0.053409 0.680874
Si Si7 0.000000 0.561436 0.448799
O O1 0.142928 0.108029 0.435367
O O2 0.214639 0.131947 0.549407
O O3 0.371788 0.100203 0.462607
O O4 0.222635 0.000000 0.500000
O O5 0.746265 0.129791 0.329390
O O6 0.000000 0.109574 0.338588
O O7 0.834281 0.010219 0.358744
O O8 0.500000 0.982991 0.750000
O O9 0.369186 0.056939 0.675791
O O10 0.500000 0.967725 0.619851
O O11 0.185852 0.249716 0.628467
O O12 0.154876 0.124288 0.660001
O O13 0.000000 0.182009 0.582409
O O14 0.338256 0.781837 0.750000
O O15 0.500000 0.822953 0.671653
O O16 0.186874 0.035874 0.750000
O O17 0.000000 0.500000 0.500000
#
# Coordination Sequence:
#
# PCOD9469553 Si02
#       7
#    16  16   8  16  16  16   8
#     4  11  22  39  66 100 136 171 219 277 340 401
#     4  12  25  41  66 100 135 172 218 275 344 396
#     4  10  20  36  58  96 134 170 218 270 336 404
#     4  11  23  43  67  95 132 178 225 276 338 406
#     4  10  25  48  71  93 130 183 230 273 332 409
#     4  11  22  37  65  99 130 168 223 283 337 399
#     4  10  18  36  60  92 136 174 212 267 336 401
#
# _framework density 21.522570999999999
#
# number of rings (size 3 to 8) (size 9 to 14) (size 15 to 20)
#    0.000    1.167    3.333    3.000    2.333    4.333 
#    3.000    0.000    0.000    0.000    0.000    0.000 
#    0.000    0.000    0.000    0.000    0.000    0.000 
#
# Total GULP energy -268016.817733 kJ/mol
# GULP energy per Si atom -5583.683703 kJ/mol
# Density = 2.147359 g / cm^3
# Si number density = 21.522571 Si / 1000 Ang^3
#
#
#
# Elastic Constant Matrix: (Units=GPa)
#
#
# Indices 1 2 3 4 5 6 
#
# 1 94.0702 2.7477 11.6664 0.0000 0.0000 0.0000
# 2 2.7477 54.7543 -1.7187 0.0000 0.0000 0.0000
# 3 11.6664 -1.7187 86.4338 0.0000 0.0000 0.0000
# 4 0.0000 0.0000 0.0000 31.0636 0.0000 0.0000
# 5 0.0000 0.0000 0.0000 0.0000 23.1067 0.0000
# 6 0.0000 0.0000 0.0000 0.0000 0.0000 11.7019
#
#
#
# Elastic Compliance Matrix: (Units=1/GPa)
#
#
# Indices 1 2 3 4 5 6 
#
# 1 0.010830 -0.000590 -0.001474 0.000000 0.000000 0.000000
# 2 -0.000590 0.018307 0.000444 0.000000 0.000000 0.000000
# 3 -0.001474 0.000444 0.011777 0.000000 0.000000 0.000000
# 4 0.000000 0.000000 0.000000 0.032192 0.000000 0.000000
# 5 0.000000 0.000000 0.000000 0.000000 0.043278 0.000000
# 6 0.000000 0.000000 0.000000 0.000000 0.000000 0.085456
#
#
# Mechanical properties :
#
#
# Convention : Reuss Voigt Hill
#
# Bulk Modulus (GPa) = 26.54268 28.96101 27.75185
# Shear Modulus (GPa) = 22.97395 28.01197 25.49296
#
# Velocity S-wave (km/s) = 3.27071 3.61157 3.44535
# Velocity P-wave (km/s) = 5.15971 5.55667 5.36186
#
# Compressibility (1/GPa) = 0.03767517
#
# Stress axis : x y z
#
# Youngs Moduli (GPa) = 92.33331 54.62416 84.90936
#
# Poissons Ratio (x) = 0.03221 0.12512
# Poissons Ratio (y) = 0.05445 -0.03767
# Poissons Ratio (z) = 0.13606 -0.02423
#
# Static dielectric constant tensor:
#      x y z
#    x 1.794150 0.000000 0.000000 
#    y 0.000000 1.758700 0.000000 
#    z 0.000000 0.000000 1.822230 
# 
# From -- ./inp_files/52935.got.cif
#   From: 2010.05.17/outbox.cif.g08.bks.cpg/sg63_27_cif.got.tgz:52935.got - 2010.06.03 15:47:04.
