data_PCOD9469046
_publ_section_title
;
Structure prediction by ZEFSAII (Michael W. Deem and Ramdas Pophale) SiO2 
 PCOD9469046
Probable space group: C M C M
;
_chemical_formula_sum "Si O2"
_cell_formula_units_Z 96
_cell_length_a 13.261961
_cell_length_b 24.757199
_cell_length_c 18.390344
_cell_angle_alpha 90.000000
_cell_angle_beta 90.000000
_cell_angle_gamma 90.000000
_cell_volume 6038.083395
_symmetry_space_group_name_H-M "C M C M"
_symmetry_group_IT_number 63
_symmetry_cell_setting 'orthorhombic'
loop_
_space_group_symop_operation_xyz
x,y,z
-x,-y,1/2+z
x,-y,-z
-x,y,1/2-z
-x,-y,-z
x,y,1/2-z
-x,y,z
x,-y,1/2+z
1/2+x,1/2+y,z
1/2-x,1/2-y,1/2+z
1/2+x,1/2-y,-z
1/2-x,1/2+y,1/2-z
1/2-x,1/2-y,-z
1/2+x,1/2+y,1/2-z
1/2-x,1/2+y,z
1/2+x,1/2-y,1/2+z
loop_
_atom_site_type_symbol
_atom_site_label
_atom_site_fract_x
_atom_site_fract_y
_atom_site_fract_z
Si Si1 0.739370 0.377445 0.163885
Si Si2 0.118399 0.652339 0.337166
Si Si3 0.880756 0.011523 0.664346
Si Si4 0.208715 0.549572 0.087249
Si Si5 0.883556 0.773716 0.161434
Si Si6 0.383011 0.060214 0.930433
O O1 0.758030 0.372905 0.250000
O O2 0.662750 0.427947 0.153555
O O3 0.687919 0.322286 0.137413
O O4 0.840378 0.394143 0.122284
O O5 0.127149 0.649902 0.250000
O O6 0.180129 0.604028 0.371876
O O7 0.147732 0.713161 0.360540
O O8 0.000000 0.645544 0.355396
O O9 0.862416 0.998000 0.750000
O O10 0.000000 0.009927 0.651484
O O11 0.817587 0.971959 0.612239
O O12 0.135377 0.498680 0.105681
O O13 0.186931 0.559769 0.002266
O O14 0.883837 0.774535 0.250000
O O15 0.000000 0.782560 0.139194
O O16 0.500000 0.066340 0.949672
#
# Coordination Sequence:
#
# PCOD9469046 Si02
#       6
#    16  16  16  16  16  16
#     4   9  17  30  47  66  88 116 152 191 231 275
#     4   9  16  26  45  71  92 114 147 185 224 268
#     4   9  17  29  47  70  93 118 148 183 223 267
#     4  10  18  31  46  64  92 124 152 182 225 274
#     4   8  14  26  45  68  91 113 141 183 232 274
#     4  10  20  32  46  65  91 124 156 190 234 273
#
# _framework density 15.899084
#
# number of rings (size 3 to 8) (size 9 to 14) (size 15 to 20)
#    0.000    2.833    0.000    4.000    0.000    3.000 
#    0.000    8.333    0.000    1.000    0.000    2.333 
#    0.000    0.000    0.000    0.000    0.000    0.000 
#
# Total GULP energy -267253.788587 kJ/mol
# GULP energy per Si atom -5567.787262 kJ/mol
# Density = 1.586290 g / cm^3
# Si number density = 15.899084 Si / 1000 Ang^3
#
#
#
# Elastic Constant Matrix: (Units=GPa)
#
#
# Indices 1 2 3 4 5 6 
#
# 1 72.2705 31.1249 34.0835 0.0000 0.0000 0.0000
# 2 31.1249 103.0145 25.1869 0.0000 0.0000 0.0000
# 3 34.0835 25.1869 25.0217 0.0000 0.0000 0.0000
# 4 0.0000 0.0000 0.0000 10.9960 0.0000 0.0000
# 5 0.0000 0.0000 0.0000 0.0000 17.4744 0.0000
# 6 0.0000 0.0000 0.0000 0.0000 0.0000 20.6328
#
#
#
# Elastic Compliance Matrix: (Units=1/GPa)
#
#
# Indices 1 2 3 4 5 6 
#
# 1 0.038891 0.001594 -0.054581 0.000000 0.000000 0.000000
# 2 0.001594 0.012942 -0.015199 0.000000 0.000000 0.000000
# 3 -0.054581 -0.015199 0.129612 0.000000 0.000000 0.000000
# 4 0.000000 0.000000 0.000000 0.090942 0.000000 0.000000
# 5 0.000000 0.000000 0.000000 0.000000 0.057227 0.000000
# 6 0.000000 0.000000 0.000000 0.000000 0.000000 0.048467
#
#
# Mechanical properties :
#
#
# Convention : Reuss Voigt Hill
#
# Bulk Modulus (GPa) = 22.18548 42.34413 32.26481
# Shear Modulus (GPa) = 9.44330 17.14806 13.29568
#
# Velocity S-wave (km/s) = 2.43976 3.28770 2.89494
# Velocity P-wave (km/s) = 4.68196 6.41115 5.61354
#
# Compressibility (1/GPa) = 0.04507453
#
# Stress axis : x y z
#
# Youngs Moduli (GPa) = 25.71282 77.26913 7.71531
#
# Poissons Ratio (x) = -0.12319 0.42111
# Poissons Ratio (y) = -0.04099 0.11726
# Poissons Ratio (z) = 1.40342 1.17441
#
# Static dielectric constant tensor:
#      x y z
#    x 1.519750 0.000000 0.000000 
#    y 0.000000 1.537750 0.000000 
#    z 0.000000 0.000000 1.548760 
# 
# From -- ./inp_files/52842.got.cif
#   From: 2010.05.17/outbox.cif.g08.bks.cpg/sg63_27_cif.got.tgz:52842.got - 2010.06.03 15:47:04.
