data_PCOD9469432
_publ_section_title
;
Structure prediction by ZEFSAII (Michael W. Deem and Ramdas Pophale) SiO2 
 PCOD9469432
Probable space group: C M C M
;
_chemical_formula_sum "Si O2"
_cell_formula_units_Z 116
_cell_length_a 19.105750
_cell_length_b 24.076565
_cell_length_c 15.107916
_cell_angle_alpha 90.000000
_cell_angle_beta 90.000000
_cell_angle_gamma 90.000000
_cell_volume 6949.653926
_symmetry_space_group_name_H-M "C M C M"
_symmetry_group_IT_number 63
_symmetry_cell_setting 'orthorhombic'
loop_
_space_group_symop_operation_xyz
x,y,z
-x,-y,1/2+z
x,-y,-z
-x,y,1/2-z
-x,-y,-z
x,y,1/2-z
-x,y,z
x,-y,1/2+z
1/2+x,1/2+y,z
1/2-x,1/2-y,1/2+z
1/2+x,1/2-y,-z
1/2-x,1/2+y,1/2-z
1/2-x,1/2-y,-z
1/2+x,1/2+y,1/2-z
1/2-x,1/2+y,z
1/2+x,1/2-y,1/2+z
loop_
_atom_site_type_symbol
_atom_site_label
_atom_site_fract_x
_atom_site_fract_y
_atom_site_fract_z
Si Si1 0.391944 0.937795 0.352903
Si Si2 0.768002 0.902123 0.852955
Si Si3 0.231998 0.097877 0.647045
Si Si4 0.574217 0.149298 0.500000
Si Si5 0.268231 0.185709 0.500000
Si Si6 0.124035 0.000000 0.102136
Si Si7 0.000000 0.000000 0.250000
Si Si8 0.108056 0.562205 0.352903
O O1 0.410228 0.930009 0.250000
O O2 0.307693 0.932015 0.360294
O O3 0.422733 0.891113 0.415371
O O4 0.412249 0.000000 0.379678
O O5 0.778558 0.887401 0.750000
O O6 0.827024 0.945783 0.881981
O O7 0.692307 0.932015 0.860294
O O8 0.761504 0.848498 0.915762
O O9 0.221442 0.112599 0.750000
O O10 0.238496 0.151502 0.584238
O O11 0.172976 0.054217 0.618019
O O12 0.500000 0.180440 0.500000
O O13 0.647156 0.181717 0.500000
O O14 0.577267 0.108887 0.415371
O O15 0.250000 0.250000 0.500000
O O16 0.061589 0.000000 0.172301
O O17 0.100676 0.000000 0.000000
O O18 0.089772 0.569991 0.250000
#
# Coordination Sequence:
#
# PCOD9469432 Si02
#       8
#    16  16  16  16  16  16   4  16
#     4   9  17  28  48  80 109 140 180 204 250 324
#     4  10  18  33  59  84 111 147 185 242 286 338
#     4  10  18  33  59  84 111 147 185 242 286 338
#     4  10  21  34  50  72 109 142 170 224 285 318
#     4  10  22  38  60  83 103 144 211 248 281 344
#     4  12  21  35  59  88 121 156 189 233 308 366
#     4  12  26  36  52  90 136 156 188 228 312 408
#     4   9  17  28  48  80 109 140 180 204 250 324
#
# _framework density 16.691478
#
# number of rings (size 3 to 8) (size 9 to 14) (size 15 to 20)
#    0.000    1.931    4.138    0.621    0.000    2.207 
#    0.000    1.379    3.034    0.000    0.000    0.000 
#    0.000    0.000    0.000    0.000    0.000    0.000 
#
# Total GULP energy -323025.291943 kJ/mol
# GULP energy per Si atom -5569.401585 kJ/mol
# Density = 1.665349 g / cm^3
# Si number density = 16.691478 Si / 1000 Ang^3
#
#
#
# Elastic Constant Matrix: (Units=GPa)
#
#
# Indices 1 2 3 4 5 6 
#
# 1 127.3107 47.8763 50.8026 0.0000 0.0000 0.0000
# 2 47.8763 118.6451 50.7764 0.0000 0.0000 0.0000
# 3 50.8026 50.7764 128.0942 0.0000 0.0000 0.0000
# 4 0.0000 0.0000 0.0000 8.1590 0.0000 0.0000
# 5 0.0000 0.0000 0.0000 0.0000 -22.9603 0.0000
# 6 0.0000 0.0000 0.0000 0.0000 0.0000 0.1642
#
#
#
# Elastic Compliance Matrix: (Units=1/GPa)
#
#
# Indices 1 2 3 4 5 6 
#
# 1 0.010065 -0.002834 -0.002869 0.000000 0.000000 0.000000
# 2 -0.002834 0.010948 -0.003216 0.000000 0.000000 0.000000
# 3 -0.002869 -0.003216 0.010219 0.000000 0.000000 0.000000
# 4 0.000000 0.000000 0.000000 0.122564 0.000000 0.000000
# 5 0.000000 0.000000 0.000000 0.000000 -0.043553 0.000000
# 6 0.000000 0.000000 0.000000 0.000000 0.000000 6.091289
#
#
# Mechanical properties :
#
#
# Convention : Reuss Voigt Hill
#
# Bulk Modulus (GPa) = 74.64943 74.77342 74.71142
# Shear Modulus (GPa) = 0.80336 12.04556 6.42446
#
# Velocity S-wave (km/s) = 0.69451 2.68929 1.96400
# Velocity P-wave (km/s) = 6.74265 7.38496 7.07110
#
# Compressibility (1/GPa) = 0.01339595
#
# Stress axis : x y z
#
# Youngs Moduli (GPa) = 99.35238 91.33760 97.85466
#
# Poissons Ratio (x) = 0.25884 0.28070
# Poissons Ratio (y) = 0.28156 0.31470
# Poissons Ratio (z) = 0.28500 0.29374
#
# Static dielectric constant tensor:
#      x y z
#    x 1.586660 0.000000 0.000000 
#    y 0.000000 1.515140 0.000000 
#    z 0.000000 0.000000 1.581460 
# 
# From -- ./inp_files/34389.got.cif
#   From: 2010.05.17/outbox.cif.g08.bks.cpg/sg63_18_cif.got.tgz:34389.got - 2010.06.03 15:47:04.
