data_PCOD9469358
_publ_section_title
;
Structure prediction by ZEFSAII (Michael W. Deem and Ramdas Pophale) SiO2 
 PCOD9469358
Probable space group: C M C M
;
_chemical_formula_sum "Si O2"
_cell_formula_units_Z 64
_cell_length_a 12.980570
_cell_length_b 13.418229
_cell_length_c 14.970377
_cell_angle_alpha 90.000000
_cell_angle_beta 90.000000
_cell_angle_gamma 90.000000
_cell_volume 2607.484289
_symmetry_space_group_name_H-M "C M C M"
_symmetry_group_IT_number 63
_symmetry_cell_setting 'orthorhombic'
loop_
_space_group_symop_operation_xyz
x,y,z
-x,-y,1/2+z
x,-y,-z
-x,y,1/2-z
-x,-y,-z
x,y,1/2-z
-x,y,z
x,-y,1/2+z
1/2+x,1/2+y,z
1/2-x,1/2-y,1/2+z
1/2+x,1/2-y,-z
1/2-x,1/2+y,1/2-z
1/2-x,1/2-y,-z
1/2+x,1/2+y,1/2-z
1/2-x,1/2+y,z
1/2+x,1/2-y,1/2+z
loop_
_atom_site_type_symbol
_atom_site_label
_atom_site_fract_x
_atom_site_fract_y
_atom_site_fract_z
Si Si1 0.500000 0.699826 0.353059
Si Si2 0.780251 0.852141 0.896447
Si Si3 0.271219 0.888012 0.096499
Si Si4 0.382623 0.152341 0.250000
Si Si5 0.117303 0.896018 0.250000
Si Si6 0.500000 0.084180 0.921180
O O1 0.500000 0.740078 0.250000
O O2 0.602467 0.634989 0.365654
O O3 0.500000 0.791501 0.426413
O O4 0.774039 0.731766 0.894778
O O5 0.686108 0.879878 0.833250
O O6 0.758099 0.897324 0.992841
O O7 0.184073 0.925396 0.163568
O O8 0.385969 0.925491 0.119546
O O9 0.500000 0.115636 0.250000
O O10 0.387660 0.273991 0.250000
O O11 0.000000 0.931698 0.250000
O O12 0.500000 0.000000 0.000000
#
# Coordination Sequence:
#
# PCOD9469358 Si02
#       6
#     8  16  16   8   8   8
#     4  10  18  32  58  83 112 149 192 231 284 352
#     4   9  17  29  47  81 108 146 181 227 292 332
#     4   9  19  31  52  76 114 142 186 235 280 334
#     4   9  16  25  43  67 115 147 179 217 277 352
#     4   9  18  31  49  81 105 141 185 227 285 324
#     4  10  22  36  56  78 110 150 203 233 280 331
#
# _framework density 24.544730999999999
#
# number of rings (size 3 to 8) (size 9 to 14) (size 15 to 20)
#    0.000    2.750    1.250    0.000    8.750    0.000 
#    0.000    0.000    2.750    0.750    3.250    0.000 
#    0.000    0.000    0.000    0.000    0.000    0.000 
#
# Total GULP energy -178622.266321 kJ/mol
# GULP energy per Si atom -5581.945823 kJ/mol
# Density = 2.448887 g / cm^3
# Si number density = 24.544731 Si / 1000 Ang^3
#
#
#
# Elastic Constant Matrix: (Units=GPa)
#
#
# Indices 1 2 3 4 5 6 
#
# 1 320.6739 54.9910 133.9613 0.0000 0.0000 0.0000
# 2 54.9910 137.3868 8.1034 0.0000 0.0000 0.0000
# 3 133.9613 8.1034 169.2782 0.0000 0.0000 0.0000
# 4 0.0000 0.0000 0.0000 -15.9309 0.0000 0.0000
# 5 0.0000 0.0000 0.0000 0.0000 20.4867 0.0000
# 6 0.0000 0.0000 0.0000 0.0000 0.0000 14.7546
#
#
#
# Elastic Compliance Matrix: (Units=1/GPa)
#
#
# Indices 1 2 3 4 5 6 
#
# 1 0.005065 -0.001796 -0.003922 0.000000 0.000000 0.000000
# 2 -0.001796 0.007936 0.001041 0.000000 0.000000 0.000000
# 3 -0.003922 0.001041 0.008962 0.000000 0.000000 0.000000
# 4 0.000000 0.000000 0.000000 -0.062771 0.000000 0.000000
# 5 0.000000 0.000000 0.000000 0.000000 0.048812 0.000000
# 6 0.000000 0.000000 0.000000 0.000000 0.000000 0.067775
#
#
# Mechanical properties :
#
#
# Convention : Reuss Voigt Hill
#
# Bulk Modulus (GPa) = 79.30899 113.49448 96.40174
# Shear Modulus (GPa) = 55.96869 32.54763 44.25816
#
# Velocity S-wave (km/s) = 4.78040 3.64545 4.25097
# Velocity P-wave (km/s) = 7.92791 8.00371 7.96590
#
# Compressibility (1/GPa) = 0.01260891
#
# Stress axis : x y z
#
# Youngs Moduli (GPa) = 197.43593 126.00552 111.58815
#
# Poissons Ratio (x) = 0.22630 0.43768
# Poissons Ratio (y) = 0.35459 -0.11620
# Poissons Ratio (z) = 0.77439 -0.13122
#
# Static dielectric constant tensor:
#      x y z
#    x 1.875220 0.000000 0.000000 
#    y 0.000000 1.977450 0.000000 
#    z 0.000000 0.000000 1.939450 
# 
# From -- ./inp_files/41606.got.cif
#   From: 2010.05.17/outbox.cif.g08.bks.cpg/sg63_21_cif.got.tgz:41606.got - 2010.06.03 15:47:04.
