data_PCOD9469898
_publ_section_title
;
Structure prediction by ZEFSAII (Michael W. Deem and Ramdas Pophale) SiO2 
 PCOD9469898
Probable space group: C M C M
;
_chemical_formula_sum "Si O2"
_cell_formula_units_Z 112
_cell_length_a 11.275381
_cell_length_b 26.866898
_cell_length_c 20.231966
_cell_angle_alpha 90.000000
_cell_angle_beta 90.000000
_cell_angle_gamma 90.000000
_cell_volume 6128.960732
_symmetry_space_group_name_H-M "C M C M"
_symmetry_group_IT_number 63
_symmetry_cell_setting 'orthorhombic'
loop_
_space_group_symop_operation_xyz
x,y,z
-x,-y,1/2+z
x,-y,-z
-x,y,1/2-z
-x,-y,-z
x,y,1/2-z
-x,y,z
x,-y,1/2+z
1/2+x,1/2+y,z
1/2-x,1/2-y,1/2+z
1/2+x,1/2-y,-z
1/2-x,1/2+y,1/2-z
1/2-x,1/2-y,-z
1/2+x,1/2+y,1/2-z
1/2-x,1/2+y,z
1/2+x,1/2-y,1/2+z
loop_
_atom_site_type_symbol
_atom_site_label
_atom_site_fract_x
_atom_site_fract_y
_atom_site_fract_z
Si Si1 0.637892 0.946663 0.578192
Si Si2 0.753508 0.255897 0.614412
Si Si3 0.629980 0.696295 0.995061
Si Si4 0.860656 0.646591 0.175555
Si Si5 0.137696 0.661012 0.823536
Si Si6 0.868355 0.987569 0.077495
Si Si7 0.726540 0.896374 0.447213
O O1 0.500000 0.964237 0.585785
O O2 0.654303 0.898196 0.624093
O O3 0.657469 0.929193 0.501889
O O4 0.747346 0.983130 0.597750
O O5 0.654526 0.273412 0.561749
O O6 0.854934 0.234059 0.566100
O O7 0.792089 0.304141 0.654178
O O8 0.710973 0.210537 0.659288
O O9 0.500000 0.673838 0.996265
O O10 0.725573 0.652810 0.984309
O O11 0.827514 0.631213 0.250000
O O12 0.000000 0.658933 0.175247
O O13 0.169061 0.642219 0.750000
O O14 0.157114 0.622233 0.882969
O O15 0.000000 0.674709 0.823262
O O16 0.835298 0.929522 0.079572
O O17 0.000000 0.998537 0.106778
O O18 0.878235 0.000000 0.000000
#
# Coordination Sequence:
#
# PCOD9469898 Si02
#       7
#    16  16  16  16  16  16  16
#     4  10  20  35  56  83 109 139 183 230 274 328
#     4  10  19  33  50  75 104 144 181 225 269 320
#     4  10  19  30  50  79 107 137 178 224 274 322
#     4  10  20  35  54  76 106 143 183 228 274 322
#     4  10  21  35  51  76 111 146 182 225 273 323
#     4   9  19  35  57  84 112 140 175 225 281 332
#     4  10  19  34  56  80 106 141 179 227 270 324
#
# _framework density 18.273896000000001
#
# number of rings (size 3 to 8) (size 9 to 14) (size 15 to 20)
#    0.000    2.143    1.429    2.143    0.000    3.714 
#    0.000    0.714    0.000   13.286    0.000    0.000 
#    0.000    0.000    0.000    0.000    0.000    0.000 
#
# Total GULP energy -311903.584303 kJ/mol
# GULP energy per Si atom -5569.706863 kJ/mol
# Density = 1.823230 g / cm^3
# Si number density = 18.273896 Si / 1000 Ang^3
#
#
#
# Elastic Constant Matrix: (Units=GPa)
#
#
# Indices 1 2 3 4 5 6 
#
# 1 84.4118 20.5259 20.4392 0.0000 0.0000 0.0000
# 2 20.5259 48.4544 12.9241 0.0000 0.0000 0.0000
# 3 20.4392 12.9241 84.1009 0.0000 0.0000 0.0000
# 4 0.0000 0.0000 0.0000 3.4546 0.0000 0.0000
# 5 0.0000 0.0000 0.0000 0.0000 -17.0995 0.0000
# 6 0.0000 0.0000 0.0000 0.0000 0.0000 32.9440
#
#
#
# Elastic Compliance Matrix: (Units=1/GPa)
#
#
# Indices 1 2 3 4 5 6 
#
# 1 0.013710 -0.005129 -0.002544 0.000000 0.000000 0.000000
# 2 -0.005129 0.023439 -0.002355 0.000000 0.000000 0.000000
# 3 -0.002544 -0.002355 0.012871 0.000000 0.000000 0.000000
# 4 0.000000 0.000000 0.000000 0.289466 0.000000 0.000000
# 5 0.000000 0.000000 0.000000 0.000000 -0.058481 0.000000
# 6 0.000000 0.000000 0.000000 0.000000 0.000000 0.030355
#
#
# Mechanical properties :
#
#
# Convention : Reuss Voigt Hill
#
# Bulk Modulus (GPa) = 33.37462 36.08284 34.72873
# Shear Modulus (GPa) = 14.64546 14.73169 14.68857
#
# Velocity S-wave (km/s) = 2.83405 2.84238 2.83821
# Velocity P-wave (km/s) = 5.38631 5.52816 5.45769
#
# Compressibility (1/GPa) = 0.02996289
#
# Stress axis : x y z
#
# Youngs Moduli (GPa) = 72.94034 42.66392 77.69617
#
# Poissons Ratio (x) = 0.21883 0.19764
# Poissons Ratio (y) = 0.37412 0.18301
# Poissons Ratio (z) = 0.18554 0.10049
#
# Static dielectric constant tensor:
#      x y z
#    x 1.657860 0.000000 0.000000 
#    y 0.000000 1.630360 0.000000 
#    z 0.000000 0.000000 1.619920 
# 
# From -- ./inp_files/53326.got.cif
#   From: 2010.05.17/outbox.cif.g08.bks.cpg/sg63_27_cif.got.tgz:53326.got - 2010.06.03 15:47:04.
