data_PCOD9469762
_publ_section_title
;
Structure prediction by ZEFSAII (Michael W. Deem and Ramdas Pophale) SiO2 
 PCOD9469762
Probable space group: C M C M
;
_chemical_formula_sum "Si O2"
_cell_formula_units_Z 64
_cell_length_a 14.227445
_cell_length_b 17.696768
_cell_length_c 13.861382
_cell_angle_alpha 90.000000
_cell_angle_beta 90.000000
_cell_angle_gamma 90.000000
_cell_volume 3490.015896
_symmetry_space_group_name_H-M "C M C M"
_symmetry_group_IT_number 63
_symmetry_cell_setting 'orthorhombic'
loop_
_space_group_symop_operation_xyz
x,y,z
-x,-y,1/2+z
x,-y,-z
-x,y,1/2-z
-x,-y,-z
x,y,1/2-z
-x,y,z
x,-y,1/2+z
1/2+x,1/2+y,z
1/2-x,1/2-y,1/2+z
1/2+x,1/2-y,-z
1/2-x,1/2+y,1/2-z
1/2-x,1/2-y,-z
1/2+x,1/2+y,1/2-z
1/2-x,1/2+y,z
1/2+x,1/2-y,1/2+z
loop_
_atom_site_type_symbol
_atom_site_label
_atom_site_fract_x
_atom_site_fract_y
_atom_site_fract_z
Si Si1 0.386300 0.736296 0.639318
Si Si2 0.695490 0.019660 0.864190
Si Si3 0.605015 0.564916 0.866736
Si Si4 0.112462 0.380572 0.977807
O O1 0.351186 0.745560 0.750000
O O2 0.500000 0.743082 0.644701
O O3 0.369858 0.650880 0.604313
O O4 0.353531 0.801663 0.567421
O O5 0.685196 0.027756 0.750000
O O6 0.806426 0.012594 0.888917
O O7 0.640531 0.947091 0.903445
O O8 0.656466 0.092064 0.921656
O O9 0.599743 0.567786 0.750000
O O10 0.500000 0.545096 0.901021
O O11 0.000000 0.378332 0.987829
#
# Coordination Sequence:
#
# PCOD9469762 Si02
#       4
#    16  16  16  16
#     4   8  14  27  47  67  88 116 148 182 217 253
#     4  10  19  30  45  66  91 118 147 181 224 267
#     4   8  15  29  48  68  88 112 146 186 223 258
#     4  10  20  31  44  66  93 120 151 182 216 262
#
# _framework density 18.338025999999999
#
# number of rings (size 3 to 8) (size 9 to 14) (size 15 to 20)
#    0.000    3.000    0.000    3.750    0.000    4.000 
#    0.000    2.500    0.000    0.000    0.000    3.500 
#    0.000   14.000    0.000    0.000    0.000    0.000 
#
# Total GULP energy -178220.543511 kJ/mol
# GULP energy per Si atom -5569.391985 kJ/mol
# Density = 1.829629 g / cm^3
# Si number density = 18.338026 Si / 1000 Ang^3
#
#
#
# Elastic Constant Matrix: (Units=GPa)
#
#
# Indices 1 2 3 4 5 6 
#
# 1 73.0970 -3.2327 10.0596 0.0000 0.0000 0.0000
# 2 -3.2327 5.7333 6.9441 0.0000 0.0000 0.0000
# 3 10.0596 6.9441 96.0991 0.0000 0.0000 0.0000
# 4 0.0000 0.0000 0.0000 22.5059 0.0000 0.0000
# 5 0.0000 0.0000 0.0000 0.0000 6.2346 0.0000
# 6 0.0000 0.0000 0.0000 0.0000 0.0000 14.6154
#
#
#
# Elastic Compliance Matrix: (Units=1/GPa)
#
#
# Indices 1 2 3 4 5 6 
#
# 1 0.014483 0.010962 -0.002308 0.000000 0.000000 0.000000
# 2 0.010962 0.199445 -0.015559 0.000000 0.000000 0.000000
# 3 -0.002308 -0.015559 0.011772 0.000000 0.000000 0.000000
# 4 0.000000 0.000000 0.000000 0.044433 0.000000 0.000000
# 5 0.000000 0.000000 0.000000 0.000000 0.160394 0.000000
# 6 0.000000 0.000000 0.000000 0.000000 0.000000 0.068421
#
#
# Mechanical properties :
#
#
# Convention : Reuss Voigt Hill
#
# Bulk Modulus (GPa) = 4.71948 22.49683 13.60816
# Shear Modulus (GPa) = 8.57062 19.41508 13.99285
#
# Velocity S-wave (km/s) = 2.16422 3.25735 2.76533
# Velocity P-wave (km/s) = 2.97057 5.14214 4.19916
#
# Compressibility (1/GPa) = 0.21188778
#
# Stress axis : x y z
#
# Youngs Moduli (GPa) = 69.04705 5.01392 84.94839
#
# Poissons Ratio (x) = -0.05496 0.19607
# Poissons Ratio (y) = -0.75687 1.32174
# Poissons Ratio (z) = 0.15937 0.07801
#
# Static dielectric constant tensor:
#      x y z
#    x 1.649480 0.000000 0.000000 
#    y 0.000000 1.646480 0.000000 
#    z 0.000000 0.000000 1.638350 
# 
# From -- ./inp_files/29105.got.cif
#   From: 2010.05.17/outbox.cif.g08.bks.cpg/sg63_15_cif.got.tgz:29105.got - 2010.06.03 15:47:04.
