data_PCOD9469469
_publ_section_title
;
Structure prediction by ZEFSAII (Michael W. Deem and Ramdas Pophale) SiO2 
 PCOD9469469
Probable space group: C M C M
;
_chemical_formula_sum "Si O2"
_cell_formula_units_Z 96
_cell_length_a 18.252481
_cell_length_b 17.663950
_cell_length_c 18.377081
_cell_angle_alpha 90.000000
_cell_angle_beta 90.000000
_cell_angle_gamma 90.000000
_cell_volume 5924.971441
_symmetry_space_group_name_H-M "C M C M"
_symmetry_group_IT_number 63
_symmetry_cell_setting 'orthorhombic'
loop_
_space_group_symop_operation_xyz
x,y,z
-x,-y,1/2+z
x,-y,-z
-x,y,1/2-z
-x,-y,-z
x,y,1/2-z
-x,y,z
x,-y,1/2+z
1/2+x,1/2+y,z
1/2-x,1/2-y,1/2+z
1/2+x,1/2-y,-z
1/2-x,1/2+y,1/2-z
1/2-x,1/2-y,-z
1/2+x,1/2+y,1/2-z
1/2-x,1/2+y,z
1/2+x,1/2-y,1/2+z
loop_
_atom_site_type_symbol
_atom_site_label
_atom_site_fract_x
_atom_site_fract_y
_atom_site_fract_z
Si Si1 0.807684 0.051862 0.336218
Si Si2 0.807010 0.820540 0.434286
Si Si3 0.307118 0.957229 0.427239
Si Si4 0.914409 0.086065 0.663701
Si Si5 0.087184 0.646623 0.664071
Si Si6 0.176913 0.783039 0.598098
O O1 0.794725 0.053610 0.250000
O O2 0.823636 0.135123 0.365606
O O3 0.738739 0.015036 0.377340
O O4 0.875501 0.994724 0.350072
O O5 0.750052 0.889923 0.447912
O O6 0.869952 0.852504 0.382592
O O7 0.836518 0.792219 0.511700
O O8 0.757382 0.755671 0.397571
O O9 0.371533 0.918105 0.381743
O O10 0.331405 0.000000 0.500000
O O11 0.906768 0.101544 0.750000
O O12 0.000000 0.084298 0.645478
O O13 0.103780 0.638722 0.750000
O O14 0.120344 0.725814 0.635424
O O15 0.000000 0.644046 0.654415
#
# Coordination Sequence:
#
# PCOD9469469 Si02
#       6
#    16  16  16  16  16  16
#     4  10  19  31  53  80 102 131 171 216 258 298
#     4   9  19  33  53  76 105 134 172 212 256 304
#     4  10  18  34  57  76 101 130 172 216 256 297
#     4   9  19  34  51  74 106 142 176 210 253 307
#     4  10  22  37  52  74 106 140 169 201 251 313
#     4  10  19  33  53  78 103 133 168 216 257 302
#
# _framework density 16.202608999999999
#
# number of rings (size 3 to 8) (size 9 to 14) (size 15 to 20)
#    0.000    2.333    1.667    1.000    0.000    6.333 
#    0.000    2.500    0.000    0.000    0.000    2.333 
#    0.000    0.000    0.000    0.000    0.000    0.000 
#
# Total GULP energy -267715.557365 kJ/mol
# GULP energy per Si atom -5577.407445 kJ/mol
# Density = 1.616573 g / cm^3
# Si number density = 16.202609 Si / 1000 Ang^3
#
#
#
# Elastic Constant Matrix: (Units=GPa)
#
#
# Indices 1 2 3 4 5 6 
#
# 1 112.1225 72.3348 87.7081 0.0000 0.0000 0.0000
# 2 72.3348 96.7912 60.1129 0.0000 0.0000 0.0000
# 3 87.7081 60.1129 103.4613 0.0000 0.0000 0.0000
# 4 0.0000 0.0000 0.0000 33.4238 0.0000 0.0000
# 5 0.0000 0.0000 0.0000 0.0000 20.2774 0.0000
# 6 0.0000 0.0000 0.0000 0.0000 0.0000 11.0684
#
#
#
# Elastic Compliance Matrix: (Units=1/GPa)
#
#
# Indices 1 2 3 4 5 6 
#
# 1 0.032912 -0.011371 -0.021294 0.000000 0.000000 0.000000
# 2 -0.011371 0.020093 -0.002035 0.000000 0.000000 0.000000
# 3 -0.021294 -0.002035 0.028899 0.000000 0.000000 0.000000
# 4 0.000000 0.000000 0.000000 0.029919 0.000000 0.000000
# 5 0.000000 0.000000 0.000000 0.000000 0.049316 0.000000
# 6 0.000000 0.000000 0.000000 0.000000 0.000000 0.090348
#
#
# Mechanical properties :
#
#
# Convention : Reuss Voigt Hill
#
# Bulk Modulus (GPa) = 79.96875 83.63184 81.80030
# Shear Modulus (GPa) = 15.38200 19.10186 17.24193
#
# Velocity S-wave (km/s) = 3.08450 3.43729 3.26566
# Velocity P-wave (km/s) = 7.88341 8.21472 8.05077
#
# Compressibility (1/GPa) = 0.01250488
#
# Stress axis : x y z
#
# Youngs Moduli (GPa) = 30.38387 49.76774 34.60303
#
# Poissons Ratio (x) = 0.56593 0.73683
# Poissons Ratio (y) = 0.34551 0.07040
# Poissons Ratio (z) = 0.64699 0.10126
#
# Static dielectric constant tensor:
#      x y z
#    x 1.514940 0.000000 0.000000 
#    y 0.000000 1.535000 0.000000 
#    z 0.000000 0.000000 1.538110 
# 
# From -- ./inp_files/45740.got.cif
#   From: 2010.05.17/outbox.cif.g08.bks.cpg/sg63_23_cif.got.tgz:45740.got - 2010.06.03 15:47:04.
