data_PCOD9469852
_publ_section_title
;
Structure prediction by ZEFSAII (Michael W. Deem and Ramdas Pophale) SiO2 
 PCOD9469852
Probable space group: C M C M
;
_chemical_formula_sum "Si O2"
_cell_formula_units_Z 96
_cell_length_a 9.062443
_cell_length_b 20.157605
_cell_length_c 30.541369
_cell_angle_alpha 90.000000
_cell_angle_beta 90.000000
_cell_angle_gamma 90.000000
_cell_volume 5579.210134
_symmetry_space_group_name_H-M "C M C M"
_symmetry_group_IT_number 63
_symmetry_cell_setting 'orthorhombic'
loop_
_space_group_symop_operation_xyz
x,y,z
-x,-y,1/2+z
x,-y,-z
-x,y,1/2-z
-x,-y,-z
x,y,1/2-z
-x,y,z
x,-y,1/2+z
1/2+x,1/2+y,z
1/2-x,1/2-y,1/2+z
1/2+x,1/2-y,-z
1/2-x,1/2+y,1/2-z
1/2-x,1/2-y,-z
1/2+x,1/2+y,1/2-z
1/2-x,1/2+y,z
1/2+x,1/2-y,1/2+z
loop_
_atom_site_type_symbol
_atom_site_label
_atom_site_fract_x
_atom_site_fract_y
_atom_site_fract_z
Si Si1 0.827932 0.928870 0.523009
Si Si2 0.674031 0.895559 0.611728
Si Si3 0.675752 0.190297 0.526874
Si Si4 0.326903 0.264562 0.112941
Si Si5 0.171967 0.102331 0.298683
Si Si6 0.171452 0.263383 0.298714
O O1 0.762732 0.928102 0.571954
O O2 0.735118 0.876620 0.494819
O O3 0.000000 0.908469 0.524427
O O4 0.818425 0.000000 0.500000
O O5 0.500000 0.908301 0.607779
O O6 0.695320 0.815333 0.608366
O O7 0.733737 0.917771 0.659216
O O8 0.500000 0.194344 0.523818
O O9 0.750000 0.250000 0.500000
O O10 0.731117 0.199141 0.576364
O O11 0.500000 0.277658 0.106546
O O12 0.273419 0.284506 0.161300
O O13 0.221347 0.080256 0.250000
O O14 0.176267 0.182871 0.298060
O O15 0.000000 0.083665 0.304238
O O16 0.215465 0.286077 0.250000
O O17 0.000000 0.281565 0.306184
#
# Coordination Sequence:
#
# PCOD9469852 Si02
#       6
#    16  16  16  16  16  16
#     4  11  24  40  57  77 104 140 179 221 268 319
#     4  10  19  30  48  73 103 138 172 214 262 309
#     4  12  23  36  56  79 105 138 176 219 263 310
#     4  10  19  30  47  74 104 136 174 216 261 309
#     4   8  14  25  42  65  96 133 170 210 256 306
#     4   8  14  25  41  64  97 135 171 209 257 309
#
# _framework density 17.206737
#
# number of rings (size 3 to 8) (size 9 to 14) (size 15 to 20)
#    0.000    2.167    1.667    4.000    0.000    3.333 
#    0.000    3.333    0.000    0.000    0.000    1.167 
#    0.000    1.333    0.000    0.000    0.000    0.000 
#
# Total GULP energy -267716.273929 kJ/mol
# GULP energy per Si atom -5577.422374 kJ/mol
# Density = 1.716757 g / cm^3
# Si number density = 17.206737 Si / 1000 Ang^3
#
#
#
# Elastic Constant Matrix: (Units=GPa)
#
#
# Indices 1 2 3 4 5 6 
#
# 1 131.0241 33.3107 85.5740 0.0000 0.0000 0.0000
# 2 33.3107 25.5387 25.3027 0.0000 0.0000 0.0000
# 3 85.5740 25.3027 149.0511 0.0000 0.0000 0.0000
# 4 0.0000 0.0000 0.0000 11.3479 0.0000 0.0000
# 5 0.0000 0.0000 0.0000 0.0000 34.5559 0.0000
# 6 0.0000 0.0000 0.0000 0.0000 0.0000 16.4442
#
#
#
# Elastic Compliance Matrix: (Units=1/GPa)
#
#
# Indices 1 2 3 4 5 6 
#
# 1 0.015317 -0.013544 -0.006495 0.000000 0.000000 0.000000
# 2 -0.013544 0.059049 -0.002248 0.000000 0.000000 0.000000
# 3 -0.006495 -0.002248 0.010820 0.000000 0.000000 0.000000
# 4 0.000000 0.000000 0.000000 0.088122 0.000000 0.000000
# 5 0.000000 0.000000 0.000000 0.000000 0.028939 0.000000
# 6 0.000000 0.000000 0.000000 0.000000 0.000000 0.060812
#
#
# Mechanical properties :
#
#
# Convention : Reuss Voigt Hill
#
# Bulk Modulus (GPa) = 24.62313 65.99876 45.31094
# Shear Modulus (GPa) = 15.56808 23.23139 19.39974
#
# Velocity S-wave (km/s) = 3.01120 3.67840 3.36139
# Velocity P-wave (km/s) = 5.14111 7.51535 6.43861
#
# Compressibility (1/GPa) = 0.04061222
#
# Stress axis : x y z
#
# Youngs Moduli (GPa) = 65.28496 16.93500 92.42422
#
# Poissons Ratio (x) = 0.22937 0.60029
# Poissons Ratio (y) = 0.88422 0.20779
# Poissons Ratio (z) = 0.42402 0.03807
#
# Static dielectric constant tensor:
#      x y z
#    x 1.573650 0.000000 0.000000 
#    y 0.000000 1.558010 0.000000 
#    z 0.000000 0.000000 1.641610 
# 
# From -- ./inp_files/66871.got.cif
#   From: 2010.05.17/outbox.cif.g08.bks.cpg/sg63_34_cif.got.tgz:66871.got - 2010.06.03 15:47:04.
