data_PCOD9469139
_publ_section_title
;
Structure prediction by ZEFSAII (Michael W. Deem and Ramdas Pophale) SiO2 
 PCOD9469139
Probable space group: C M C M
;
_chemical_formula_sum "Si O2"
_cell_formula_units_Z 72
_cell_length_a 7.764938
_cell_length_b 22.326967
_cell_length_c 26.154891
_cell_angle_alpha 90.000000
_cell_angle_beta 90.000000
_cell_angle_gamma 90.000000
_cell_volume 4534.408444
_symmetry_space_group_name_H-M "C M C M"
_symmetry_group_IT_number 63
_symmetry_cell_setting 'orthorhombic'
loop_
_space_group_symop_operation_xyz
x,y,z
-x,-y,1/2+z
x,-y,-z
-x,y,1/2-z
-x,-y,-z
x,y,1/2-z
-x,y,z
x,-y,1/2+z
1/2+x,1/2+y,z
1/2-x,1/2-y,1/2+z
1/2+x,1/2-y,-z
1/2-x,1/2+y,1/2-z
1/2-x,1/2-y,-z
1/2+x,1/2+y,1/2-z
1/2-x,1/2+y,z
1/2+x,1/2-y,1/2+z
loop_
_atom_site_type_symbol
_atom_site_label
_atom_site_fract_x
_atom_site_fract_y
_atom_site_fract_z
Si Si1 0.500000 0.004213 0.439338
Si Si2 0.301754 0.557557 0.624948
Si Si3 0.000000 0.732706 0.190769
Si Si4 0.000000 0.616673 0.370327
Si Si5 0.300005 0.170310 0.808440
Si Si6 0.695094 0.558142 0.190975
O O1 0.500000 0.074375 0.421032
O O2 0.500000 0.000000 0.500000
O O3 0.666377 0.969954 0.415427
O O4 0.500000 0.560868 0.606173
O O5 0.244701 0.620211 0.649594
O O6 0.298749 0.509710 0.671161
O O7 0.000000 0.687070 0.142937
O O8 0.831983 0.774837 0.187115
O O9 0.000000 0.706879 0.250000
O O10 0.170201 0.594681 0.341438
O O11 0.277948 0.146327 0.750000
O O12 0.500000 0.188001 0.813742
O O13 0.740353 0.561097 0.250000
O O14 0.500000 0.580098 0.183970
#
# Coordination Sequence:
#
# PCOD9469139 Si02
#       6
#     8  16   8   8  16  16
#     4  10  22  38  56  78 100 127 173 236 283 312
#     4  10  18  31  52  77 102 132 166 213 265 311
#     4  10  20  32  48  74 111 144 170 196 231 304
#     4  10  20  34  50  70 100 141 175 202 257 314
#     4  10  19  30  48  78 110 142 172 201 242 298
#     4   9  17  27  44  72 103 131 161 200 245 303
#
# _framework density 15.878588000000001
#
# number of rings (size 3 to 8) (size 9 to 14) (size 15 to 20)
#    0.000    2.222    2.222    1.667    0.000    2.222 
#    0.000    2.222    0.000    1.333    0.000    0.000 
#    0.000    0.000    0.000    0.000    0.000    0.000 
#
# Total GULP energy -200410.675011 kJ/mol
# GULP energy per Si atom -5566.963195 kJ/mol
# Density = 1.584245 g / cm^3
# Si number density = 15.878588 Si / 1000 Ang^3
#
#
#
# Elastic Constant Matrix: (Units=GPa)
#
#
# Indices 1 2 3 4 5 6 
#
# 1 87.1306 34.3485 33.5032 0.0000 0.0000 0.0000
# 2 34.3485 66.5247 29.4060 0.0000 0.0000 0.0000
# 3 33.5032 29.4060 68.3755 0.0000 0.0000 0.0000
# 4 0.0000 0.0000 0.0000 13.1449 0.0000 0.0000
# 5 0.0000 0.0000 0.0000 0.0000 13.0248 0.0000
# 6 0.0000 0.0000 0.0000 0.0000 0.0000 12.5412
#
#
#
# Elastic Compliance Matrix: (Units=1/GPa)
#
#
# Indices 1 2 3 4 5 6 
#
# 1 0.015789 -0.005843 -0.005223 0.000000 0.000000 0.000000
# 2 -0.005843 0.020723 -0.006049 0.000000 0.000000 0.000000
# 3 -0.005223 -0.006049 0.019786 0.000000 0.000000 0.000000
# 4 0.000000 0.000000 0.000000 0.076075 0.000000 0.000000
# 5 0.000000 0.000000 0.000000 0.000000 0.076776 0.000000
# 6 0.000000 0.000000 0.000000 0.000000 0.000000 0.079737
#
#
# Mechanical properties :
#
#
# Convention : Reuss Voigt Hill
#
# Bulk Modulus (GPa) = 45.31787 46.28289 45.80038
# Shear Modulus (GPa) = 15.12979 16.06040 15.59509
#
# Velocity S-wave (km/s) = 3.09016 3.18378 3.13732
# Velocity P-wave (km/s) = 6.42918 6.53655 6.48309
#
# Compressibility (1/GPa) = 0.02206635
#
# Stress axis : x y z
#
# Youngs Moduli (GPa) = 63.33478 48.25555 50.54075
#
# Poissons Ratio (x) = 0.28198 0.26399
# Poissons Ratio (y) = 0.37009 0.30572
# Poissons Ratio (z) = 0.33082 0.29190
#
# Static dielectric constant tensor:
#      x y z
#    x 1.555840 0.000000 0.000000 
#    y 0.000000 1.557120 0.000000 
#    z 0.000000 0.000000 1.507010 
# 
# From -- ./inp_files/50764.got.cif
#   From: 2010.05.17/outbox.cif.g08.bks.cpg/sg63_26_cif.got.tgz:50764.got - 2010.06.03 15:47:04.
