data_PCOD9469428
_publ_section_title
;
Structure prediction by ZEFSAII (Michael W. Deem and Ramdas Pophale) SiO2 
 PCOD9469428
Probable space group: C M C M
;
_chemical_formula_sum "Si O2"
_cell_formula_units_Z 96
_cell_length_a 8.052779
_cell_length_b 25.893371
_cell_length_c 24.386656
_cell_angle_alpha 90.000000
_cell_angle_beta 90.000000
_cell_angle_gamma 90.000000
_cell_volume 5084.949294
_symmetry_space_group_name_H-M "C M C M"
_symmetry_group_IT_number 63
_symmetry_cell_setting 'orthorhombic'
loop_
_space_group_symop_operation_xyz
x,y,z
-x,-y,1/2+z
x,-y,-z
-x,y,1/2-z
-x,-y,-z
x,y,1/2-z
-x,y,z
x,-y,1/2+z
1/2+x,1/2+y,z
1/2-x,1/2-y,1/2+z
1/2+x,1/2-y,-z
1/2-x,1/2+y,1/2-z
1/2-x,1/2-y,-z
1/2+x,1/2+y,1/2-z
1/2-x,1/2+y,z
1/2+x,1/2-y,1/2+z
loop_
_atom_site_type_symbol
_atom_site_label
_atom_site_fract_x
_atom_site_fract_y
_atom_site_fract_z
Si Si1 0.802016 0.273393 0.250000
Si Si2 0.302053 0.108540 0.750000
Si Si3 0.296974 0.476996 0.940836
Si Si4 0.302186 0.767060 0.632503
Si Si5 0.199624 0.140662 0.440613
Si Si6 0.296789 0.330179 0.438479
Si Si7 0.800193 0.070534 0.867645
O O1 0.735017 0.332421 0.250000
O O2 0.748670 0.245124 0.194499
O O3 0.000000 0.276205 0.250000
O O4 0.500000 0.111447 0.750000
O O5 0.247574 0.080152 0.694820
O O6 0.500000 0.476134 0.939998
O O7 0.239582 0.418139 0.934473
O O8 0.240724 0.517117 0.894409
O O9 0.249566 0.500000 0.000000
O O10 0.500000 0.765594 0.629943
O O11 0.244636 0.821490 0.608578
O O12 0.238050 0.721045 0.592788
O O13 0.258951 0.164303 0.498707
O O14 0.000000 0.138149 0.444094
O O15 0.500000 0.329556 0.438461
O O16 0.243779 0.380701 0.404305
O O17 0.000000 0.070275 0.870997
#
# Coordination Sequence:
#
# PCOD9469428 Si02
#       7
#     8   8  16  16  16  16  16
#     4  11  23  39  58  79 104 141 186 232 277 326
#     4  11  23  37  54  81 114 143 176 226 283 330
#     4   9  16  30  57  86 109 139 185 232 268 311
#     4  11  22  36  54  81 113 147 184 223 275 337
#     4  10  19  34  55  83 116 149 183 226 272 320
#     4   9  17  30  54  83 112 142 177 223 273 321
#     4  10  18  33  58  85 109 141 184 226 269 320
#
# _framework density 18.879244
#
# number of rings (size 3 to 8) (size 9 to 14) (size 15 to 20)
#    0.000    2.000    3.333    1.500    0.000    0.667 
#    0.000    3.333    0.000    3.000    0.000    0.000 
#    0.000    0.000    0.000    0.000    0.000    0.000 
#
# Total GULP energy -268015.997641 kJ/mol
# GULP energy per Si atom -5583.666618 kJ/mol
# Density = 1.883627 g / cm^3
# Si number density = 18.879244 Si / 1000 Ang^3
#
#
#
# Elastic Constant Matrix: (Units=GPa)
#
#
# Indices 1 2 3 4 5 6 
#
# 1 11.5089 13.6376 2.3863 0.0000 0.0000 0.0000
# 2 13.6376 182.3912 105.7711 0.0000 0.0000 0.0000
# 3 2.3863 105.7711 162.2425 0.0000 0.0000 0.0000
# 4 0.0000 0.0000 0.0000 36.1243 0.0000 0.0000
# 5 0.0000 0.0000 0.0000 0.0000 7.0517 0.0000
# 6 0.0000 0.0000 0.0000 0.0000 0.0000 14.7317
#
#
#
# Elastic Compliance Matrix: (Units=1/GPa)
#
#
# Indices 1 2 3 4 5 6 
#
# 1 0.098165 -0.010455 0.005372 0.000000 0.000000 0.000000
# 2 -0.010455 0.009929 -0.006319 0.000000 0.000000 0.000000
# 3 0.005372 -0.006319 0.010204 0.000000 0.000000 0.000000
# 4 0.000000 0.000000 0.000000 0.027682 0.000000 0.000000
# 5 0.000000 0.000000 0.000000 0.000000 0.141809 0.000000
# 6 0.000000 0.000000 0.000000 0.000000 0.000000 0.067881
#
#
# Mechanical properties :
#
#
# Convention : Reuss Voigt Hill
#
# Bulk Modulus (GPa) = 10.47193 66.63694 38.55444
# Shear Modulus (GPa) = 12.18601 27.20472 19.69537
#
# Velocity S-wave (km/s) = 2.54337 3.80015 3.23341
# Velocity P-wave (km/s) = 3.76614 7.39107 5.86565
#
# Compressibility (1/GPa) = 0.09549340
#
# Stress axis : x y z
#
# Youngs Moduli (GPa) = 10.18697 100.71354 97.99712
#
# Poissons Ratio (x) = 1.05299 -0.52647
# Poissons Ratio (y) = 0.10651 0.61928
# Poissons Ratio (z) = -0.05473 0.63644
#
# Static dielectric constant tensor:
#      x y z
#    x 1.674720 0.000000 0.000000 
#    y 0.000000 1.657790 0.000000 
#    z 0.000000 0.000000 1.622850 
# 
# From -- ./inp_files/59996.got.cif
#   From: 2010.05.17/outbox.cif.g08.bks.cpg/sg63_30_cif.got.tgz:59996.got - 2010.06.03 15:47:04.
