data_PCOD9469061
_publ_section_title
;
Structure prediction by ZEFSAII (Michael W. Deem and Ramdas Pophale) SiO2 
 PCOD9469061
Probable space group: C M C M
;
_chemical_formula_sum "Si O2"
_cell_formula_units_Z 72
_cell_length_a 16.696792
_cell_length_b 28.976527
_cell_length_c 8.547533
_cell_angle_alpha 90.000000
_cell_angle_beta 90.000000
_cell_angle_gamma 90.000000
_cell_volume 4135.425056
_symmetry_space_group_name_H-M "C M C M"
_symmetry_group_IT_number 63
_symmetry_cell_setting 'orthorhombic'
loop_
_space_group_symop_operation_xyz
x,y,z
-x,-y,1/2+z
x,-y,-z
-x,y,1/2-z
-x,-y,-z
x,y,1/2-z
-x,y,z
x,-y,1/2+z
1/2+x,1/2+y,z
1/2-x,1/2-y,1/2+z
1/2+x,1/2-y,-z
1/2-x,1/2+y,1/2-z
1/2-x,1/2-y,-z
1/2+x,1/2+y,1/2-z
1/2-x,1/2+y,z
1/2+x,1/2-y,1/2+z
loop_
_atom_site_type_symbol
_atom_site_label
_atom_site_fract_x
_atom_site_fract_y
_atom_site_fract_z
Si Si1 0.746980 0.859211 0.064909
Si Si2 0.000000 0.447751 0.938395
Si Si3 0.830023 0.224662 0.063539
Si Si4 0.677504 0.052139 0.438124
Si Si5 0.589544 0.191479 0.063091
O O1 0.755857 0.857316 0.250000
O O2 0.816079 0.828046 0.986692
O O3 0.740323 0.911416 0.004909
O O4 0.661979 0.835711 0.017473
O O5 0.912303 0.430440 0.987095
O O6 0.000000 0.446456 0.750000
O O7 0.000000 0.500000 0.000000
O O8 0.833889 0.228490 0.250000
O O9 0.750000 0.250000 0.000000
O O10 0.899648 0.254936 0.985691
O O11 0.680478 0.051863 0.250000
O O12 0.687445 0.000000 0.500000
O O13 0.599251 0.186713 0.250000
O O14 0.500000 0.175465 0.021661
#
# Coordination Sequence:
#
# PCOD9469061 Si02
#       5
#    16   8  16  16  16
#     4  11  21  32  47  67  92 124 159 193 231 276
#     4   8  16  28  42  56  78 110 144 184 226 264
#     4  10  18  31  49  67  90 119 151 189 232 277
#     4  10  19  32  46  64  88 119 156 194 235 272
#     4  10  20  33  49  69  94 122 153 191 232 276
#
# _framework density 17.410544000000002
#
# number of rings (size 3 to 8) (size 9 to 14) (size 15 to 20)
#    0.000    2.000    0.000    8.000    1.556    2.667 
#    0.000    0.000    0.000    0.000    0.000    0.000 
#    0.000    0.889    0.000    3.333    0.000    5.111 
#
# Total GULP energy -200720.853978 kJ/mol
# GULP energy per Si atom -5575.579277 kJ/mol
# Density = 1.737092 g / cm^3
# Si number density = 17.410544 Si / 1000 Ang^3
#
#
#
# Elastic Constant Matrix: (Units=GPa)
#
#
# Indices 1 2 3 4 5 6 
#
# 1 13.7858 5.4058 0.3596 0.0000 0.0000 0.0000
# 2 5.4058 84.8252 2.9580 0.0000 0.0000 0.0000
# 3 0.3596 2.9580 62.0989 0.0000 0.0000 0.0000
# 4 0.0000 0.0000 0.0000 27.6108 0.0000 0.0000
# 5 0.0000 0.0000 0.0000 0.0000 15.0446 0.0000
# 6 0.0000 0.0000 0.0000 0.0000 0.0000 29.5327
#
#
#
# Elastic Compliance Matrix: (Units=1/GPa)
#
#
# Indices 1 2 3 4 5 6 
#
# 1 0.074400 -0.004734 -0.000205 0.000000 0.000000 0.000000
# 2 -0.004734 0.012110 -0.000549 0.000000 0.000000 0.000000
# 3 -0.000205 -0.000549 0.016131 0.000000 0.000000 0.000000
# 4 0.000000 0.000000 0.000000 0.036218 0.000000 0.000000
# 5 0.000000 0.000000 0.000000 0.000000 0.066469 0.000000
# 6 0.000000 0.000000 0.000000 0.000000 0.000000 0.033861
#
#
# Mechanical properties :
#
#
# Convention : Reuss Voigt Hill
#
# Bulk Modulus (GPa) = 10.90953 19.79516 15.35235
# Shear Modulus (GPa) = 17.81129 24.57004 21.19067
#
# Velocity S-wave (km/s) = 3.20193 3.76069 3.49250
# Velocity P-wave (km/s) = 4.46649 5.50013 5.01003
#
# Compressibility (1/GPa) = 0.09166296
#
# Stress axis : x y z
#
# Youngs Moduli (GPa) = 13.44079 82.57763 61.99356
#
# Poissons Ratio (x) = 0.39094 0.01273
# Poissons Ratio (y) = 0.06363 0.03406
# Poissons Ratio (z) = 0.00276 0.04537
#
# Static dielectric constant tensor:
#      x y z
#    x 1.569250 0.000000 0.000000 
#    y 0.000000 1.689190 0.000000 
#    z 0.000000 0.000000 1.576280 
# 
# From -- ./inp_files/8389.got.cif
#   From: 2010.05.17/outbox.cif.g08.bks.cpg/sg63_5_cif.got.tgz:8389.got - 2010.06.03 15:47:04.
