data_PCOD9469334
_publ_section_title
;
Structure prediction by ZEFSAII (Michael W. Deem and Ramdas Pophale) SiO2 
 PCOD9469334
Probable space group: C M C M
;
_chemical_formula_sum "Si O2"
_cell_formula_units_Z 96
_cell_length_a 23.560808
_cell_length_b 10.244030
_cell_length_c 22.483366
_cell_angle_alpha 90.000000
_cell_angle_beta 90.000000
_cell_angle_gamma 90.000000
_cell_volume 5426.531797
_symmetry_space_group_name_H-M "C M C M"
_symmetry_group_IT_number 63
_symmetry_cell_setting 'orthorhombic'
loop_
_space_group_symop_operation_xyz
x,y,z
-x,-y,1/2+z
x,-y,-z
-x,y,1/2-z
-x,-y,-z
x,y,1/2-z
-x,y,z
x,-y,1/2+z
1/2+x,1/2+y,z
1/2-x,1/2-y,1/2+z
1/2+x,1/2-y,-z
1/2-x,1/2+y,1/2-z
1/2-x,1/2-y,-z
1/2+x,1/2+y,1/2-z
1/2-x,1/2+y,z
1/2+x,1/2-y,1/2+z
loop_
_atom_site_type_symbol
_atom_site_label
_atom_site_fract_x
_atom_site_fract_y
_atom_site_fract_z
Si Si1 0.668320 0.394088 0.567055
Si Si2 0.719674 0.187805 0.110562
Si Si3 0.876327 0.775894 0.816627
Si Si4 0.219018 0.420286 0.319193
Si Si5 0.500000 0.373779 0.819514
Si Si6 0.121940 0.818445 0.452894
Si Si7 0.000000 0.928978 0.065852
O O1 0.733187 0.349448 0.560855
O O2 0.651445 0.367572 0.634598
O O3 0.628436 0.307489 0.524136
O O4 0.655823 0.545236 0.556767
O O5 0.742065 0.317397 0.144498
O O6 0.658318 0.212872 0.082210
O O7 0.720254 0.064058 0.154056
O O8 0.862602 0.821699 0.750000
O O9 0.844926 0.638002 0.823776
O O10 0.943507 0.786805 0.824188
O O11 0.235436 0.420175 0.250000
O O12 0.500000 0.428072 0.750000
O O13 0.500000 0.475506 0.875699
O O14 0.057706 0.844601 0.433536
O O15 0.000000 0.000000 0.000000
#
# Coordination Sequence:
#
# PCOD9469334 Si02
#       7
#    16  16  16  16   8  16   8
#     4  10  19  35  55  84 112 145 188 238 290 339
#     4  11  21  38  55  86 118 149 195 238 296 352
#     4   9  18  33  53  79 107 141 190 240 287 339
#     4  10  21  36  57  83 115 152 192 242 297 348
#     4  10  18  32  55  82 111 148 200 245 283 342
#     4  11  21  35  57  85 117 153 192 236 291 339
#     4  12  20  36  59  84 122 154 200 242 286 347
#
# _framework density 17.690857999999999
#
# number of rings (size 3 to 8) (size 9 to 14) (size 15 to 20)
#    0.000    1.667    5.000    1.000    0.000    0.667 
#    0.000    2.500    0.000    0.000    0.000    7.000 
#    0.000    0.000    0.000    0.000    0.000    0.000 
#
# Total GULP energy -267335.794902 kJ/mol
# GULP energy per Si atom -5569.495727 kJ/mol
# Density = 1.765059 g / cm^3
# Si number density = 17.690858 Si / 1000 Ang^3
#
#
#
# Elastic Constant Matrix: (Units=GPa)
#
#
# Indices 1 2 3 4 5 6 
#
# 1 128.8573 25.5984 39.1079 0.0000 0.0000 0.0000
# 2 25.5984 51.2389 24.4730 0.0000 0.0000 0.0000
# 3 39.1079 24.4730 75.7401 0.0000 0.0000 0.0000
# 4 0.0000 0.0000 0.0000 19.8091 0.0000 0.0000
# 5 0.0000 0.0000 0.0000 0.0000 25.1088 0.0000
# 6 0.0000 0.0000 0.0000 0.0000 0.0000 26.1173
#
#
#
# Elastic Compliance Matrix: (Units=1/GPa)
#
#
# Indices 1 2 3 4 5 6 
#
# 1 0.009543 -0.002855 -0.004005 0.000000 0.000000 0.000000
# 2 -0.002855 0.023932 -0.006259 0.000000 0.000000 0.000000
# 3 -0.004005 -0.006259 0.017293 0.000000 0.000000 0.000000
# 4 0.000000 0.000000 0.000000 0.050482 0.000000 0.000000
# 5 0.000000 0.000000 0.000000 0.000000 0.039827 0.000000
# 6 0.000000 0.000000 0.000000 0.000000 0.000000 0.038289
#
#
# Mechanical properties :
#
#
# Convention : Reuss Voigt Hill
#
# Bulk Modulus (GPa) = 40.76448 48.24391 44.50419
# Shear Modulus (GPa) = 23.38850 25.31752 24.35301
#
# Velocity S-wave (km/s) = 3.63997 3.78710 3.71426
# Velocity P-wave (km/s) = 6.38424 6.81561 6.60345
#
# Compressibility (1/GPa) = 0.02453116
#
# Stress axis : x y z
#
# Youngs Moduli (GPa) = 104.78683 41.78510 57.82544
#
# Poissons Ratio (x) = 0.11928 0.23160
# Poissons Ratio (y) = 0.29914 0.36192
# Poissons Ratio (z) = 0.41969 0.26153
#
# Static dielectric constant tensor:
#      x y z
#    x 1.632620 0.000000 0.000000 
#    y 0.000000 1.585630 0.000000 
#    z 0.000000 0.000000 1.682640 
# 
# From -- ./inp_files/57535.got.cif
#   From: 2010.05.17/outbox.cif.g08.bks.cpg/sg63_29_cif.got.tgz:57535.got - 2010.06.03 15:47:04.
