data_PCOD9469075
_publ_section_title
;
Structure prediction by ZEFSAII (Michael W. Deem and Ramdas Pophale) SiO2 
 PCOD9469075
Probable space group: C M C M
;
_chemical_formula_sum "Si O2"
_cell_formula_units_Z 96
_cell_length_a 8.306123
_cell_length_b 30.849910
_cell_length_c 21.597495
_cell_angle_alpha 90.000000
_cell_angle_beta 90.000000
_cell_angle_gamma 90.000000
_cell_volume 5534.210086
_symmetry_space_group_name_H-M "C M C M"
_symmetry_group_IT_number 63
_symmetry_cell_setting 'orthorhombic'
loop_
_space_group_symop_operation_xyz
x,y,z
-x,-y,1/2+z
x,-y,-z
-x,y,1/2-z
-x,-y,-z
x,y,1/2-z
-x,y,z
x,-y,1/2+z
1/2+x,1/2+y,z
1/2-x,1/2-y,1/2+z
1/2+x,1/2-y,-z
1/2-x,1/2+y,1/2-z
1/2-x,1/2-y,-z
1/2+x,1/2+y,1/2-z
1/2-x,1/2+y,z
1/2+x,1/2-y,1/2+z
loop_
_atom_site_type_symbol
_atom_site_label
_atom_site_fract_x
_atom_site_fract_y
_atom_site_fract_z
Si Si1 0.687636 0.382405 0.011167
Si Si2 0.695762 0.998347 0.183647
Si Si3 0.308342 0.788016 0.044656
Si Si4 0.306144 0.033898 0.052845
Si Si5 0.804762 0.306315 0.182429
Si Si6 0.306633 0.096941 0.644522
O O1 0.500000 0.377929 0.998846
O O2 0.762750 0.334589 0.015761
O O3 0.719135 0.402480 0.078934
O O4 0.762052 0.417158 0.964518
O O5 0.753316 0.015522 0.250000
O O6 0.500000 0.001732 0.183265
O O7 0.754418 0.020559 0.120782
O O8 0.732535 0.947185 0.179192
O O9 0.246597 0.786828 0.116506
O O10 0.000000 0.714211 0.951487
O O11 0.250000 0.750000 0.000000
O O12 0.500000 0.030213 0.053281
O O13 0.247877 0.000000 0.000000
O O14 0.746913 0.290185 0.250000
O O15 0.769691 0.357816 0.177789
O O16 0.000000 0.302053 0.182568
O O17 0.500000 0.096885 0.632817
#
# Coordination Sequence:
#
# PCOD9469075 Si02
#       6
#    16  16  16  16  16  16
#     4  11  21  32  49  73 101 133 171 208 248 295
#     4   9  16  26  45  71  97 128 169 213 253 296
#     4  10  20  35  56  79 104 131 164 207 254 302
#     4  10  18  31  50  72  98 131 171 210 248 292
#     4   8  14  25  46  75 102 128 159 196 240 295
#     4   9  15  27  46  70  99 130 164 200 244 297
#
# _framework density 17.346648999999999
#
# number of rings (size 3 to 8) (size 9 to 14) (size 15 to 20)
#    0.000    2.500    1.667    3.500    0.000    2.333 
#    0.000    0.000    0.000   19.500    0.000    0.000 
#    0.000    0.000    0.000    0.000    0.000    0.000 
#
# Total GULP energy -267397.977464 kJ/mol
# GULP energy per Si atom -5570.791197 kJ/mol
# Density = 1.730717 g / cm^3
# Si number density = 17.346649 Si / 1000 Ang^3
#
#
#
# Elastic Constant Matrix: (Units=GPa)
#
#
# Indices 1 2 3 4 5 6 
#
# 1 13.0813 8.0217 19.1720 0.0000 0.0000 0.0000
# 2 8.0217 79.8519 76.5203 0.0000 0.0000 0.0000
# 3 19.1720 76.5203 168.4996 0.0000 0.0000 0.0000
# 4 0.0000 0.0000 0.0000 19.4181 0.0000 0.0000
# 5 0.0000 0.0000 0.0000 0.0000 4.4443 0.0000
# 6 0.0000 0.0000 0.0000 0.0000 0.0000 18.5040
#
#
#
# Elastic Compliance Matrix: (Units=1/GPa)
#
#
# Indices 1 2 3 4 5 6 
#
# 1 0.091832 0.001394 -0.011082 0.000000 0.000000 0.000000
# 2 0.001394 0.022193 -0.010237 0.000000 0.000000 0.000000
# 3 -0.011082 -0.010237 0.011845 0.000000 0.000000 0.000000
# 4 0.000000 0.000000 0.000000 0.051498 0.000000 0.000000
# 5 0.000000 0.000000 0.000000 0.000000 0.225008 0.000000
# 6 0.000000 0.000000 0.000000 0.000000 0.000000 0.054042
#
#
# Mechanical properties :
#
#
# Convention : Reuss Voigt Hill
#
# Bulk Modulus (GPa) = 11.62518 52.09562 31.86040
# Shear Modulus (GPa) = 9.52487 18.98786 14.25637
#
# Velocity S-wave (km/s) = 2.34581 3.31208 2.86991
# Velocity P-wave (km/s) = 3.74878 6.68759 5.42112
#
# Compressibility (1/GPa) = 0.08602016
#
# Stress axis : x y z
#
# Youngs Moduli (GPa) = 10.88947 45.05897 84.42661
#
# Poissons Ratio (x) = -0.06283 0.93560
# Poissons Ratio (y) = -0.01518 0.86429
# Poissons Ratio (z) = 0.12068 0.46128
#
# Static dielectric constant tensor:
#      x y z
#    x 1.594400 0.000000 0.000000 
#    y 0.000000 1.609130 0.000000 
#    z 0.000000 0.000000 1.638000 
# 
# From -- ./inp_files/51335.got.cif
#   From: 2010.05.17/outbox.cif.g08.bks.cpg/sg63_26_cif.got.tgz:51335.got - 2010.06.03 15:47:04.
