data_PCOD9469395
_publ_section_title
;
Structure prediction by ZEFSAII (Michael W. Deem and Ramdas Pophale) SiO2 
 PCOD9469395
Probable space group: C M C M
;
_chemical_formula_sum "Si O2"
_cell_formula_units_Z 84
_cell_length_a 12.608232
_cell_length_b 23.754948
_cell_length_c 13.938055
_cell_angle_alpha 90.000000
_cell_angle_beta 90.000000
_cell_angle_gamma 90.000000
_cell_volume 4174.557521
_symmetry_space_group_name_H-M "C M C M"
_symmetry_group_IT_number 63
_symmetry_cell_setting 'orthorhombic'
loop_
_space_group_symop_operation_xyz
x,y,z
-x,-y,1/2+z
x,-y,-z
-x,y,1/2-z
-x,-y,-z
x,y,1/2-z
-x,y,z
x,-y,1/2+z
1/2+x,1/2+y,z
1/2-x,1/2-y,1/2+z
1/2+x,1/2-y,-z
1/2-x,1/2+y,1/2-z
1/2-x,1/2-y,-z
1/2+x,1/2+y,1/2-z
1/2-x,1/2+y,z
1/2+x,1/2-y,1/2+z
loop_
_atom_site_type_symbol
_atom_site_label
_atom_site_fract_x
_atom_site_fract_y
_atom_site_fract_z
Si Si1 0.878874 0.195438 0.509399
Si Si2 0.627844 0.605838 0.353152
Si Si3 0.500000 0.440088 0.250000
Si Si4 0.319170 0.792260 0.137006
Si Si5 0.670597 0.483237 0.102213
Si Si6 0.617461 0.078786 0.864652
O O1 0.841900 0.142633 0.444598
O O2 0.801800 0.204701 0.598739
O O3 0.872372 0.247286 0.434226
O O4 0.000000 0.186837 0.539318
O O5 0.649699 0.634380 0.250000
O O6 0.500000 0.597237 0.357297
O O7 0.680599 0.544997 0.351735
O O8 0.593026 0.445916 0.166539
O O9 0.327137 0.778261 0.250000
O O10 0.367868 0.854205 0.123208
O O11 0.783426 0.453416 0.090423
O O12 0.623166 0.500000 0.000000
O O13 0.623419 0.068086 0.750000
O O14 0.500000 0.062244 0.898673
#
# Coordination Sequence:
#
# PCOD9469395 Si02
#       6
#    16  16   4  16  16  16
#     4  10  21  36  59  87 112 148 195 241 294 357
#     4  10  18  33  54  82 114 145 185 239 297 357
#     4  12  22  40  54  86 120 164 186 250 304 372
#     4  10  21  39  57  85 118 152 192 243 294 346
#     4  12  22  37  58  86 120 157 196 244 303 358
#     4  10  21  39  60  83 118 159 201 241 285 348
#
# _framework density 20.121893
#
# number of rings (size 3 to 8) (size 9 to 14) (size 15 to 20)
#    0.000    1.524    2.857    2.571    0.000    2.667 
#    1.714    0.000    0.000    1.143    0.000    0.000 
#    0.000    0.000    0.000    0.000    0.000    0.000 
#
# Total GULP energy -233968.780543 kJ/mol
# GULP energy per Si atom -5570.685251 kJ/mol
# Density = 2.007609 g / cm^3
# Si number density = 20.121893 Si / 1000 Ang^3
#
#
#
# Elastic Constant Matrix: (Units=GPa)
#
#
# Indices 1 2 3 4 5 6 
#
# 1 108.2804 7.2740 16.3907 0.0000 0.0000 0.0000
# 2 7.2740 55.0533 -9.0395 0.0000 0.0000 0.0000
# 3 16.3907 -9.0395 74.8414 0.0000 0.0000 0.0000
# 4 0.0000 0.0000 0.0000 22.1797 0.0000 0.0000
# 5 0.0000 0.0000 0.0000 0.0000 -20.5073 0.0000
# 6 0.0000 0.0000 0.0000 0.0000 0.0000 1.0710
#
#
#
# Elastic Compliance Matrix: (Units=1/GPa)
#
#
# Indices 1 2 3 4 5 6 
#
# 1 0.009699 -0.001663 -0.002325 0.000000 0.000000 0.000000
# 2 -0.001663 0.018817 0.002637 0.000000 0.000000 0.000000
# 3 -0.002325 0.002637 0.014189 0.000000 0.000000 0.000000
# 4 0.000000 0.000000 0.000000 0.045086 0.000000 0.000000
# 5 0.000000 0.000000 0.000000 0.000000 -0.048763 0.000000
# 6 0.000000 0.000000 0.000000 0.000000 0.000000 0.933726
#
#
# Mechanical properties :
#
#
# Convention : Reuss Voigt Hill
#
# Bulk Modulus (GPa) = 24.99829 29.71392 27.35611
# Shear Modulus (GPa) = 5.05668 15.45201 10.25434
#
# Velocity S-wave (km/s) = 1.58697 2.77414 2.25991
# Velocity P-wave (km/s) = 3.97597 5.00601 4.52043
#
# Compressibility (1/GPa) = 0.04000273
#
# Stress axis : x y z
#
# Youngs Moduli (GPa) = 103.10386 53.14355 70.47572
#
# Poissons Ratio (x) = 0.08839 0.16386
# Poissons Ratio (y) = 0.17149 -0.18585
# Poissons Ratio (z) = 0.23972 -0.14014
#
# Static dielectric constant tensor:
#      x y z
#    x 1.692310 0.000000 0.000000 
#    y 0.000000 1.747790 0.000000 
#    z 0.000000 0.000000 1.831000 
# 
# From -- ./inp_files/29862.got.cif
#   From: 2010.05.17/outbox.cif.g08.bks.cpg/sg63_15_cif.got.tgz:29862.got - 2010.06.03 15:47:04.
