data_PCOD9469442
_publ_section_title
;
Structure prediction by ZEFSAII (Michael W. Deem and Ramdas Pophale) SiO2 
 PCOD9469442
Probable space group: C M C M
;
_chemical_formula_sum "Si O2"
_cell_formula_units_Z 84
_cell_length_a 11.847541
_cell_length_b 17.959453
_cell_length_c 21.119591
_cell_angle_alpha 90.000000
_cell_angle_beta 90.000000
_cell_angle_gamma 90.000000
_cell_volume 4493.728488
_symmetry_space_group_name_H-M "C M C M"
_symmetry_group_IT_number 63
_symmetry_cell_setting 'orthorhombic'
loop_
_space_group_symop_operation_xyz
x,y,z
-x,-y,1/2+z
x,-y,-z
-x,y,1/2-z
-x,-y,-z
x,y,1/2-z
-x,y,z
x,-y,1/2+z
1/2+x,1/2+y,z
1/2-x,1/2-y,1/2+z
1/2+x,1/2-y,-z
1/2-x,1/2+y,1/2-z
1/2-x,1/2-y,-z
1/2+x,1/2+y,1/2-z
1/2-x,1/2+y,z
1/2+x,1/2-y,1/2+z
loop_
_atom_site_type_symbol
_atom_site_label
_atom_site_fract_x
_atom_site_fract_y
_atom_site_fract_z
Si Si1 0.255271 0.915934 0.869756
Si Si2 0.137754 0.175173 0.750000
Si Si3 0.500000 0.098390 0.640563
Si Si4 0.128448 0.909591 0.503869
Si Si5 0.216290 0.182457 0.250000
Si Si6 0.000000 0.571133 0.176132
Si Si7 0.500000 0.783773 0.250000
Si Si8 0.242151 0.906753 0.373914
O O1 0.206530 0.889778 0.936699
O O2 0.208777 0.869331 0.811336
O O3 0.389100 0.906064 0.861651
O O4 0.228191 0.004132 0.862577
O O5 0.175669 0.261996 0.750000
O O6 0.195756 0.136450 0.687973
O O7 0.000000 0.167153 0.750000
O O8 0.500000 0.164104 0.689850
O O9 0.375690 0.102868 0.609574
O O10 0.500000 0.018729 0.675494
O O11 0.172882 0.883356 0.435976
O O12 0.000000 0.885801 0.515159
O O13 0.129928 0.000000 0.500000
O O14 0.110639 0.235707 0.250000
O O15 0.000000 0.594545 0.250000
#
# Coordination Sequence:
#
# PCOD9469442 Si02
#       8
#    16   8   8  16   8   8   4  16
#     4  10  22  37  60  90 118 153 194 242 301 348
#     4  12  25  38  61  86 117 160 203 242 287 355
#     4  10  18  35  62  84 114 151 198 247 288 339
#     4   9  19  37  59  85 122 154 187 244 302 351
#     4  12  25  38  57  87 121 153 193 244 296 353
#     4  10  18  33  63  86 117 153 193 250 292 334
#     4  12  22  38  56  80 122 154 190 240 308 334
#     4  10  20  40  64  89 114 153 204 244 292 348
#
# _framework density 18.692717999999999
#
# number of rings (size 3 to 8) (size 9 to 14) (size 15 to 20)
#    0.000    1.714    3.333    1.143    5.333    1.524 
#    1.714    4.762    0.000    0.000    0.000    0.000 
#    0.000    0.000    0.000    0.000    0.000    0.000 
#
# Total GULP energy -234148.255527 kJ/mol
# GULP energy per Si atom -5574.958465 kJ/mol
# Density = 1.865017 g / cm^3
# Si number density = 18.692718 Si / 1000 Ang^3
#
#
#
# Elastic Constant Matrix: (Units=GPa)
#
#
# Indices 1 2 3 4 5 6 
#
# 1 140.5428 20.3326 70.8180 0.0000 0.0000 0.0000
# 2 20.3326 48.0324 32.9651 0.0000 0.0000 0.0000
# 3 70.8180 32.9651 163.4425 0.0000 0.0000 0.0000
# 4 0.0000 0.0000 0.0000 -5.1466 0.0000 0.0000
# 5 0.0000 0.0000 0.0000 0.0000 25.5626 0.0000
# 6 0.0000 0.0000 0.0000 0.0000 0.0000 18.7732
#
#
#
# Elastic Compliance Matrix: (Units=1/GPa)
#
#
# Indices 1 2 3 4 5 6 
#
# 1 0.009177 -0.001341 -0.003706 0.000000 0.000000 0.000000
# 2 -0.001341 0.024360 -0.004332 0.000000 0.000000 0.000000
# 3 -0.003706 -0.004332 0.008598 0.000000 0.000000 0.000000
# 4 0.000000 0.000000 0.000000 -0.194303 0.000000 0.000000
# 5 0.000000 0.000000 0.000000 0.000000 0.039120 0.000000
# 6 0.000000 0.000000 0.000000 0.000000 0.000000 0.053267
#
#
# Mechanical properties :
#
#
# Convention : Reuss Voigt Hill
#
# Bulk Modulus (GPa) = 42.77807 66.69435 54.73621
# Shear Modulus (GPa) = -150.46168 23.03131 -63.71519
#
# Velocity S-wave (km/s) = -8.98147 3.51394 -5.84462
# Velocity P-wave (km/s) = 9.19898 7.22637 4.02497
#
# Compressibility (1/GPa) = 0.02337646
#
# Stress axis : x y z
#
# Youngs Moduli (GPa) = 108.97376 41.05052 116.31043
#
# Poissons Ratio (x) = 0.05506 0.43099
# Poissons Ratio (y) = 0.14617 0.50386
# Poissons Ratio (z) = 0.40381 0.17783
#
# Static dielectric constant tensor:
#      x y z
#    x 1.685730 0.000000 0.000000 
#    y 0.000000 1.630820 0.000000 
#    z 0.000000 0.000000 1.609160 
# 
# From -- ./inp_files/52517.got.cif
#   From: 2010.05.17/outbox.cif.g08.bks.cpg/sg63_27_cif.got.tgz:52517.got - 2010.06.03 15:47:04.
