data_PCOD9469761
_publ_section_title
;
Structure prediction by ZEFSAII (Michael W. Deem and Ramdas Pophale) SiO2 
 PCOD9469761
Probable space group: C M C M
;
_chemical_formula_sum "Si O2"
_cell_formula_units_Z 88
_cell_length_a 18.196126
_cell_length_b 13.804795
_cell_length_c 13.906443
_cell_angle_alpha 90.000000
_cell_angle_beta 90.000000
_cell_angle_gamma 90.000000
_cell_volume 3493.212112
_symmetry_space_group_name_H-M "C M C M"
_symmetry_group_IT_number 63
_symmetry_cell_setting 'orthorhombic'
loop_
_space_group_symop_operation_xyz
x,y,z
-x,-y,1/2+z
x,-y,-z
-x,y,1/2-z
-x,-y,-z
x,y,1/2-z
-x,y,z
x,-y,1/2+z
1/2+x,1/2+y,z
1/2-x,1/2-y,1/2+z
1/2+x,1/2-y,-z
1/2-x,1/2+y,1/2-z
1/2-x,1/2-y,-z
1/2+x,1/2+y,1/2-z
1/2-x,1/2+y,z
1/2+x,1/2-y,1/2+z
loop_
_atom_site_type_symbol
_atom_site_label
_atom_site_fract_x
_atom_site_fract_y
_atom_site_fract_z
Si Si1 0.257616 0.977048 0.136882
Si Si2 0.364853 0.500000 0.500000
Si Si3 0.236741 0.792564 0.605335
Si Si4 0.080742 0.507916 0.637343
Si Si5 0.578690 0.305428 0.932227
Si Si6 0.396064 0.225070 0.145324
O O1 0.252663 0.954965 0.250000
O O2 0.190137 0.942327 0.071856
O O3 0.246469 0.092695 0.123059
O O4 0.340353 0.952937 0.099942
O O5 0.411444 0.578537 0.442585
O O6 0.250000 0.750000 0.500000
O O7 0.151232 0.770445 0.624423
O O8 0.309381 0.755221 0.655018
O O9 0.080414 0.533122 0.750000
O O10 0.087940 0.390625 0.634537
O O11 0.000000 0.536787 0.597948
O O12 0.500000 0.279642 0.889272
O O13 0.579993 0.269076 0.043324
O O14 0.426106 0.255343 0.250000
#
# Coordination Sequence:
#
# PCOD9469761 Si02
#       6
#    16   8  16  16  16  16
#     4   9  17  30  47  64  88 125 162 195 235 286
#     4  10  21  34  45  60  90 132 176 206 227 266
#     4   8  15  28  46  67  90 117 148 185 236 295
#     4   8  13  23  42  68  93 112 137 186 247 295
#     4  10  19  30  45  65  92 125 158 197 238 270
#     4   9  16  27  46  71  94 114 142 186 242 299
#
# _framework density 25.191714000000001
#
# number of rings (size 3 to 8) (size 9 to 14) (size 15 to 20)
#    0.000    3.091    0.000    2.455    0.000    1.818 
#    0.000    0.455    0.000   18.000    0.000    1.273 
#    0.000    0.000    0.000    0.000    0.000    0.000 
#
# Total GULP energy -245250.406856 kJ/mol
# GULP energy per Si atom -5573.872883 kJ/mol
# Density = 2.513438 g / cm^3
# Si number density = 25.191714 Si / 1000 Ang^3
#
#
#
# Elastic Constant Matrix: (Units=GPa)
#
#
# Indices 1 2 3 4 5 6 
#
# 1 262.2237 -2.9727 20.5821 0.0000 0.0000 0.0000
# 2 -2.9727 90.1745 -13.8084 0.0000 0.0000 0.0000
# 3 20.5821 -13.8084 69.4190 0.0000 0.0000 0.0000
# 4 0.0000 0.0000 0.0000 14.2193 0.0000 0.0000
# 5 0.0000 0.0000 0.0000 0.0000 -0.8398 0.0000
# 6 0.0000 0.0000 0.0000 0.0000 0.0000 4.4297
#
#
#
# Elastic Compliance Matrix: (Units=1/GPa)
#
#
# Indices 1 2 3 4 5 6 
#
# 1 0.003905 -0.000050 -0.001168 0.000000 0.000000 0.000000
# 2 -0.000050 0.011439 0.002290 0.000000 0.000000 0.000000
# 3 -0.001168 0.002290 0.015207 0.000000 0.000000 0.000000
# 4 0.000000 0.000000 0.000000 0.070327 0.000000 0.000000
# 5 0.000000 0.000000 0.000000 0.000000 -1.190766 0.000000
# 6 0.000000 0.000000 0.000000 0.000000 0.000000 0.225749
#
#
# Mechanical properties :
#
#
# Convention : Reuss Voigt Hill
#
# Bulk Modulus (GPa) = 30.58558 47.71324 39.14941
# Shear Modulus (GPa) = -5.84532 31.42959 12.79214
#
# Velocity S-wave (km/s) = -1.52492 3.53599 2.25587
# Velocity P-wave (km/s) = 3.01114 5.97094 4.72859
#
# Compressibility (1/GPa) = 0.03269514
#
# Stress axis : x y z
#
# Youngs Moduli (GPa) = 256.10692 87.42288 65.75914
#
# Poissons Ratio (x) = 0.00438 0.07678
# Poissons Ratio (y) = 0.01283 -0.15060
# Poissons Ratio (z) = 0.29904 -0.20021
#
# Static dielectric constant tensor:
#      x y z
#    x 2.047460 0.000000 0.000000 
#    y 0.000000 1.997350 0.000000 
#    z 0.000000 0.000000 2.065460 
# 
# From -- ./inp_files/34121.got.cif
#   From: 2010.05.17/outbox.cif.g08.bks.cpg/sg63_18_cif.got.tgz:34121.got - 2010.06.03 15:47:04.
