data_PCOD9469597
_publ_section_title
;
Structure prediction by ZEFSAII (Michael W. Deem and Ramdas Pophale) SiO2 
 PCOD9469597
Probable space group: C M C M
;
_chemical_formula_sum "Si O2"
_cell_formula_units_Z 60
_cell_length_a 21.339179
_cell_length_b 24.800816
_cell_length_c 5.558577
_cell_angle_alpha 90.000000
_cell_angle_beta 90.000000
_cell_angle_gamma 90.000000
_cell_volume 2941.760436
_symmetry_space_group_name_H-M "C M C M"
_symmetry_group_IT_number 63
_symmetry_cell_setting 'orthorhombic'
loop_
_space_group_symop_operation_xyz
x,y,z
-x,-y,1/2+z
x,-y,-z
-x,y,1/2-z
-x,-y,-z
x,y,1/2-z
-x,y,z
x,-y,1/2+z
1/2+x,1/2+y,z
1/2-x,1/2-y,1/2+z
1/2+x,1/2-y,-z
1/2-x,1/2+y,1/2-z
1/2-x,1/2-y,-z
1/2+x,1/2+y,1/2-z
1/2-x,1/2+y,z
1/2+x,1/2-y,1/2+z
loop_
_atom_site_type_symbol
_atom_site_label
_atom_site_fract_x
_atom_site_fract_y
_atom_site_fract_z
Si Si1 0.905032 0.868309 0.750000
Si Si2 0.070549 0.313742 0.750000
Si Si3 0.750841 0.698366 0.750000
Si Si4 0.732282 0.674586 0.250000
Si Si5 0.902383 0.191058 0.750000
Si Si6 0.427278 0.980205 0.250000
Si Si7 0.500000 0.465640 0.750000
Si Si8 0.572226 0.852035 0.250000
O O1 0.829463 0.862260 0.750000
O O2 0.921457 0.838964 0.496858
O O3 0.939397 0.925782 0.750000
O O4 0.068941 0.249886 0.750000
O O5 0.099963 0.331481 0.499099
O O6 0.000000 0.337970 0.750000
O O7 0.765781 0.667941 0.504006
O O8 0.778962 0.759242 0.750000
O O9 0.673770 0.700023 0.750000
O O10 0.500000 0.000880 0.250000
O O11 0.428566 0.916101 0.250000
O O12 0.398324 0.000000 0.500000
O O13 0.500000 0.500000 0.500000
O O14 0.500000 0.831302 0.250000
#
# Coordination Sequence:
#
# PCOD9469597 Si02
#       8
#     8   8   8   8   8   8   4   8
#     4  10  21  34  53  71  96 128 172 211 258 318
#     4  10  19  27  39  56  88 124 154 188 230 286
#     4   8  14  25  44  68 100 120 147 185 239 288
#     4   8  14  27  45  70  94 124 147 187 239 301
#     4  10  19  31  48  74  96 131 166 205 247 318
#     4   9  15  23  37  52  67  92 133 180 218 257
#     4  12  26  42  56  74 104 142 182 242 288 308
#     4   9  17  28  36  52  79 112 144 185 234 272
#
# _framework density 20.395952000000001
#
# number of rings (size 3 to 8) (size 9 to 14) (size 15 to 20)
#    0.000    2.667    0.000    2.400    1.867    3.200 
#    0.000    0.000    0.000    0.000    0.000    0.000 
#    0.000    6.400    0.000    0.000    0.000    0.000 
#
# Total GULP energy -167127.661544 kJ/mol
# GULP energy per Si atom -5570.922051 kJ/mol
# Density = 2.034953 g / cm^3
# Si number density = 20.395952 Si / 1000 Ang^3
#
#
#
# Elastic Constant Matrix: (Units=GPa)
#
#
# Indices 1 2 3 4 5 6 
#
# 1 109.0394 25.6500 24.5360 0.0000 0.0000 0.0000
# 2 25.6500 89.9299 69.2682 0.0000 0.0000 0.0000
# 3 24.5360 69.2682 272.4781 0.0000 0.0000 0.0000
# 4 0.0000 0.0000 0.0000 41.8895 0.0000 0.0000
# 5 0.0000 0.0000 0.0000 0.0000 -16.1763 0.0000
# 6 0.0000 0.0000 0.0000 0.0000 0.0000 0.1936
#
#
#
# Elastic Compliance Matrix: (Units=1/GPa)
#
#
# Indices 1 2 3 4 5 6 
#
# 1 0.009841 -0.002641 -0.000215 0.000000 0.000000 0.000000
# 2 -0.002641 0.014536 -0.003458 0.000000 0.000000 0.000000
# 3 -0.000215 -0.003458 0.004568 0.000000 0.000000 0.000000
# 4 0.000000 0.000000 0.000000 0.023872 0.000000 0.000000
# 5 0.000000 0.000000 0.000000 0.000000 -0.061819 0.000000
# 6 0.000000 0.000000 0.000000 0.000000 0.000000 5.164937
#
#
# Mechanical properties :
#
#
# Convention : Reuss Voigt Hill
#
# Bulk Modulus (GPa) = 61.28169 78.92843 70.10506
# Shear Modulus (GPa) = 0.96637 28.64756 14.80697
#
# Velocity S-wave (km/s) = 0.68908 3.75183 2.69732
# Velocity P-wave (km/s) = 5.54476 7.58620 6.64435
#
# Compressibility (1/GPa) = 0.01631809
#
# Stress axis : x y z
#
# Youngs Moduli (GPa) = 101.61917 68.79324 218.89989
#
# Poissons Ratio (x) = 0.18171 0.04698
# Poissons Ratio (y) = 0.26842 0.75685
# Poissons Ratio (z) = 0.02181 0.23785
#
# Static dielectric constant tensor:
#      x y z
#    x 1.749210 0.000000 0.000000 
#    y 0.000000 1.649400 0.000000 
#    z 0.000000 0.000000 1.813590 
# 
# From -- ./inp_files/1271.got.cif
#   From: 2010.05.17/outbox.cif.g08.bks.cpg/sg63_1_cif.got.tgz:1271.got - 2010.06.03 15:47:04.
