data_PCOD9469093
_publ_section_title
;
Structure prediction by ZEFSAII (Michael W. Deem and Ramdas Pophale) SiO2 
 PCOD9469093
Probable space group: C M C M
;
_chemical_formula_sum "Si O2"
_cell_formula_units_Z 96
_cell_length_a 18.247111
_cell_length_b 10.134622
_cell_length_c 25.873855
_cell_angle_alpha 90.000000
_cell_angle_beta 90.000000
_cell_angle_gamma 90.000000
_cell_volume 4784.789198
_symmetry_space_group_name_H-M "C M C M"
_symmetry_group_IT_number 63
_symmetry_cell_setting 'orthorhombic'
loop_
_space_group_symop_operation_xyz
x,y,z
-x,-y,1/2+z
x,-y,-z
-x,y,1/2-z
-x,-y,-z
x,y,1/2-z
-x,y,z
x,-y,1/2+z
1/2+x,1/2+y,z
1/2-x,1/2-y,1/2+z
1/2+x,1/2-y,-z
1/2-x,1/2+y,1/2-z
1/2-x,1/2-y,-z
1/2+x,1/2+y,1/2-z
1/2-x,1/2+y,z
1/2+x,1/2-y,1/2+z
loop_
_atom_site_type_symbol
_atom_site_label
_atom_site_fract_x
_atom_site_fract_y
_atom_site_fract_z
Si Si1 0.416818 0.820282 0.976897
Si Si2 0.740298 0.120845 0.034433
Si Si3 0.166032 0.258269 0.307918
Si Si4 0.380343 0.300030 0.586308
Si Si5 0.696787 0.551171 0.808006
Si Si6 0.920547 0.089149 0.604274
O O1 0.500000 0.870701 0.969399
O O2 0.403716 0.787168 0.037369
O O3 0.346159 0.901251 0.956319
O O4 0.410334 0.685874 0.943931
O O5 0.794650 0.155126 0.080572
O O6 0.750000 0.250000 0.000000
O O7 0.768306 0.000000 0.000000
O O8 0.134036 0.273252 0.250000
O O9 0.112523 0.263342 0.357261
O O10 0.227085 0.371449 0.314732
O O11 0.199632 0.108826 0.309024
O O12 0.420665 0.439268 0.584697
O O13 0.670032 0.585611 0.750000
O O14 0.642178 0.597960 0.852851
O O15 0.000000 0.119763 0.627683
#
# Coordination Sequence:
#
# PCOD9469093 Si02
#       6
#    16  16  16  16  16  16
#     4  10  20  32  47  71 103 136 166 202 253 307
#     4  10  20  33  51  75 100 130 169 208 245 295
#     4   9  18  31  49  73  99 126 161 207 252 295
#     4  10  18  31  51  72  99 132 169 207 250 299
#     4   9  18  33  51  74 102 131 165 207 256 301
#     4  10  19  31  49  74 104 135 168 208 251 301
#
# _framework density 20.063579000000001
#
# number of rings (size 3 to 8) (size 9 to 14) (size 15 to 20)
#    0.000    2.333    0.000    4.000    0.000    6.000 
#    0.000    0.000    0.000    1.500    0.000    4.667 
#    0.000   25.333    0.000    0.000    0.000    0.000 
#
# Total GULP energy -267458.151962 kJ/mol
# GULP energy per Si atom -5572.044833 kJ/mol
# Density = 2.001791 g / cm^3
# Si number density = 20.063579 Si / 1000 Ang^3
#
#
#
# Elastic Constant Matrix: (Units=GPa)
#
#
# Indices 1 2 3 4 5 6 
#
# 1 73.7416 -12.1228 5.0545 0.0000 0.0000 0.0000
# 2 -12.1228 36.4038 0.3067 0.0000 0.0000 0.0000
# 3 5.0545 0.3067 78.3681 0.0000 0.0000 0.0000
# 4 0.0000 0.0000 0.0000 21.1205 0.0000 0.0000
# 5 0.0000 0.0000 0.0000 0.0000 16.2115 0.0000
# 6 0.0000 0.0000 0.0000 0.0000 0.0000 13.8432
#
#
#
# Elastic Compliance Matrix: (Units=1/GPa)
#
#
# Indices 1 2 3 4 5 6 
#
# 1 0.014416 0.004809 -0.000949 0.000000 0.000000 0.000000
# 2 0.004809 0.029075 -0.000424 0.000000 0.000000 0.000000
# 3 -0.000949 -0.000424 0.012823 0.000000 0.000000 0.000000
# 4 0.000000 0.000000 0.000000 0.047347 0.000000 0.000000
# 5 0.000000 0.000000 0.000000 0.000000 0.061685 0.000000
# 6 0.000000 0.000000 0.000000 0.000000 0.000000 0.072238
#
#
# Mechanical properties :
#
#
# Convention : Reuss Voigt Hill
#
# Bulk Modulus (GPa) = 15.82611 19.44335 17.63473
# Shear Modulus (GPa) = 19.85911 23.25338 21.55624
#
# Velocity S-wave (km/s) = 3.14954 3.40808 3.28136
# Velocity P-wave (km/s) = 4.59687 5.01982 4.81299
#
# Compressibility (1/GPa) = 0.06318672
#
# Stress axis : x y z
#
# Youngs Moduli (GPa) = 69.36521 34.39423 77.98406
#
# Poissons Ratio (x) = -0.16540 0.07398
# Poissons Ratio (y) = -0.33356 0.03306
# Poissons Ratio (z) = 0.06580 0.01458
#
# Static dielectric constant tensor:
#      x y z
#    x 1.800410 0.000000 0.000000 
#    y 0.000000 1.699880 0.000000 
#    z 0.000000 0.000000 1.720520 
# 
# From -- ./inp_files/69862.got.cif
#   From: 2010.05.17/outbox.cif.g08.bks.cpg/sg63_35_cif.got.tgz:69862.got - 2010.06.03 15:47:04.
