data_PCOD9469755
_publ_section_title
;
Structure prediction by ZEFSAII (Michael W. Deem and Ramdas Pophale) SiO2 
 PCOD9469755
Probable space group: C M C M
;
_chemical_formula_sum "Si O2"
_cell_formula_units_Z 112
_cell_length_a 33.218826
_cell_length_b 13.686400
_cell_length_c 16.058141
_cell_angle_alpha 90.000000
_cell_angle_beta 90.000000
_cell_angle_gamma 90.000000
_cell_volume 7300.771824
_symmetry_space_group_name_H-M "C M C M"
_symmetry_group_IT_number 63
_symmetry_cell_setting 'orthorhombic'
loop_
_space_group_symop_operation_xyz
x,y,z
-x,-y,1/2+z
x,-y,-z
-x,y,1/2-z
-x,-y,-z
x,y,1/2-z
-x,y,z
x,-y,1/2+z
1/2+x,1/2+y,z
1/2-x,1/2-y,1/2+z
1/2+x,1/2-y,-z
1/2-x,1/2+y,1/2-z
1/2-x,1/2-y,-z
1/2+x,1/2+y,1/2-z
1/2-x,1/2+y,z
1/2+x,1/2-y,1/2+z
loop_
_atom_site_type_symbol
_atom_site_label
_atom_site_fract_x
_atom_site_fract_y
_atom_site_fract_z
Si Si1 0.767191 0.873820 0.920284
Si Si2 0.453935 0.118690 0.503289
Si Si3 0.395706 0.897697 0.346936
Si Si4 0.100697 0.632983 0.347337
Si Si5 0.187828 0.282759 0.654296
Si Si6 0.770734 0.912685 0.116328
Si Si7 0.190004 0.306820 0.345499
O O1 0.722311 0.837277 0.897927
O O2 0.796886 0.785499 0.899362
O O3 0.777884 0.972804 0.870892
O O4 0.769111 0.895511 0.017473
O O5 0.500000 0.152790 0.508601
O O6 0.428018 0.139995 0.586129
O O7 0.432169 0.154543 0.418656
O O8 0.454814 0.000000 0.500000
O O9 0.405040 0.873418 0.250000
O O10 0.352049 0.854903 0.369147
O O11 0.393117 0.015613 0.351269
O O12 0.090152 0.655771 0.250000
O O13 0.142692 0.686589 0.368481
O O14 0.193658 0.313683 0.750000
O O15 0.197624 0.167204 0.649201
O O16 0.726737 0.883191 0.149452
O O17 0.187123 0.273929 0.250000
#
# Coordination Sequence:
#
# PCOD9469755 Si02
#       7
#    16  16  16  16  16  16  16
#     4  10  20  30  42  62  88 119 152 187 223 257
#     4   9  18  30  46  67  89 119 149 175 220 270
#     4   9  18  30  45  67  92 118 150 185 219 261
#     4   9  18  30  45  67  92 118 150 185 219 261
#     4  10  19  30  45  63  85 118 154 186 221 259
#     4  10  20  30  42  62  88 119 152 187 223 257
#     4  10  19  30  45  63  85 118 154 186 221 259
#
# _framework density 15.340844000000001
#
# number of rings (size 3 to 8) (size 9 to 14) (size 15 to 20)
#    0.000    2.429    0.000    4.286    4.000    4.000 
#    0.000    2.857    0.000    0.000    0.000    0.000 
#    0.000    2.286    0.000    6.286    0.000    0.286 
#
# Total GULP energy -312075.615712 kJ/mol
# GULP energy per Si atom -5572.778852 kJ/mol
# Density = 1.530593 g / cm^3
# Si number density = 15.340844 Si / 1000 Ang^3
#
#
#
# Elastic Constant Matrix: (Units=GPa)
#
#
# Indices 1 2 3 4 5 6 
#
# 1 117.1312 23.5474 59.7736 0.0000 0.0000 0.0000
# 2 23.5474 43.0926 16.9299 0.0000 0.0000 0.0000
# 3 59.7736 16.9299 67.5467 0.0000 0.0000 0.0000
# 4 0.0000 0.0000 0.0000 14.1810 0.0000 0.0000
# 5 0.0000 0.0000 0.0000 0.0000 38.8620 0.0000
# 6 0.0000 0.0000 0.0000 0.0000 0.0000 17.8156
#
#
#
# Elastic Compliance Matrix: (Units=1/GPa)
#
#
# Indices 1 2 3 4 5 6 
#
# 1 0.016039 -0.003536 -0.013307 0.000000 0.000000 0.000000
# 2 -0.003536 0.026520 -0.003518 0.000000 0.000000 0.000000
# 3 -0.013307 -0.003518 0.027462 0.000000 0.000000 0.000000
# 4 0.000000 0.000000 0.000000 0.070517 0.000000 0.000000
# 5 0.000000 0.000000 0.000000 0.000000 0.025732 0.000000
# 6 0.000000 0.000000 0.000000 0.000000 0.000000 0.056131
#
#
# Mechanical properties :
#
#
# Convention : Reuss Voigt Hill
#
# Bulk Modulus (GPa) = 34.13060 47.58583 40.85821
# Shear Modulus (GPa) = 18.32242 22.67300 20.49771
#
# Velocity S-wave (km/s) = 3.45969 3.84858 3.65931
# Velocity P-wave (km/s) = 6.18513 7.12988 6.67424
#
# Compressibility (1/GPa) = 0.02929922
#
# Stress axis : x y z
#
# Youngs Moduli (GPa) = 62.34753 37.70706 36.41404
#
# Poissons Ratio (x) = 0.13335 0.48456
# Poissons Ratio (y) = 0.22049 0.12809
# Poissons Ratio (z) = 0.82966 0.13264
#
# Static dielectric constant tensor:
#      x y z
#    x 1.490850 0.000000 0.000000 
#    y 0.000000 1.513600 0.000000 
#    z 0.000000 0.000000 1.552630 
# 
# From -- ./inp_files/38718.got.cif
#   From: 2010.05.17/outbox.cif.g08.bks.cpg/sg63_20_cif.got.tgz:38718.got - 2010.06.03 15:47:04.
