data_PCOD9469718
_publ_section_title
;
Structure prediction by ZEFSAII (Michael W. Deem and Ramdas Pophale) SiO2 
 PCOD9469718
Probable space group: C M C M
;
_chemical_formula_sum "Si O2"
_cell_formula_units_Z 128
_cell_length_a 17.205793
_cell_length_b 26.816682
_cell_length_c 18.169718
_cell_angle_alpha 90.000000
_cell_angle_beta 90.000000
_cell_angle_gamma 90.000000
_cell_volume 8383.549302
_symmetry_space_group_name_H-M "C M C M"
_symmetry_group_IT_number 63
_symmetry_cell_setting 'orthorhombic'
loop_
_space_group_symop_operation_xyz
x,y,z
-x,-y,1/2+z
x,-y,-z
-x,y,1/2-z
-x,-y,-z
x,y,1/2-z
-x,y,z
x,-y,1/2+z
1/2+x,1/2+y,z
1/2-x,1/2-y,1/2+z
1/2+x,1/2-y,-z
1/2-x,1/2+y,1/2-z
1/2-x,1/2-y,-z
1/2+x,1/2+y,1/2-z
1/2-x,1/2+y,z
1/2+x,1/2-y,1/2+z
loop_
_atom_site_type_symbol
_atom_site_label
_atom_site_fract_x
_atom_site_fract_y
_atom_site_fract_z
Si Si1 0.589789 0.201966 0.336144
Si Si2 0.211934 0.531998 0.664645
Si Si3 0.212055 0.116977 0.566842
Si Si4 0.585074 0.442816 0.974819
Si Si5 0.089940 0.178466 0.663158
Si Si6 0.089333 0.529273 0.422922
Si Si7 0.195388 0.372500 0.924303
Si Si8 0.820337 0.934759 0.664370
O O1 0.603978 0.189806 0.250000
O O2 0.500000 0.188343 0.352593
O O3 0.596155 0.261664 0.344009
O O4 0.648825 0.172388 0.387318
O O5 0.204971 0.545262 0.750000
O O6 0.238090 0.579424 0.617282
O O7 0.134025 0.506004 0.634632
O O8 0.276306 0.488042 0.657598
O O9 0.151865 0.083853 0.520216
O O10 0.157459 0.152683 0.615746
O O11 0.267360 0.140222 0.503702
O O12 0.500000 0.421589 0.990057
O O13 0.606021 0.437989 0.889016
O O14 0.585515 0.500000 0.000000
O O15 0.099254 0.166087 0.750000
O O16 0.000000 0.164777 0.643030
O O17 0.091465 0.500000 0.500000
O O18 0.136820 0.580520 0.431707
O O19 0.000000 0.538620 0.402251
O O20 0.262726 0.393143 0.869776
O O21 0.836324 0.925664 0.750000
#
# Coordination Sequence:
#
# PCOD9469718 Si02
#       8
#    16  16  16  16  16  16  16  16
#     4   9  18  34  53  73  98 124 157 204 249 289
#     4  10  19  31  46  66  93 127 162 197 236 275
#     4  11  19  31  49  70  98 127 158 199 238 290
#     4  10  19  30  45  63  90 125 161 198 236 279
#     4   9  19  35  53  72  96 126 160 202 249 292
#     4  10  19  32  48  68  97 129 163 195 230 278
#     4  10  19  29  51  74  96 127 159 196 243 290
#     4   9  18  30  45  65  92 123 158 197 235 279
#
# _framework density 15.267996
#
# number of rings (size 3 to 8) (size 9 to 14) (size 15 to 20)
#    0.000    2.250    2.500    2.250    0.000    1.500 
#    0.000    0.000    0.000    0.000    0.000    0.000 
#    0.000    0.000    0.000   19.750    0.000    0.000 
#
# Total GULP energy -356646.794937 kJ/mol
# GULP energy per Si atom -5572.606171 kJ/mol
# Density = 1.523325 g / cm^3
# Si number density = 15.267996 Si / 1000 Ang^3
#
#
#
# Elastic Constant Matrix: (Units=GPa)
#
#
# Indices 1 2 3 4 5 6 
#
# 1 88.2443 30.1550 47.5861 0.0000 0.0000 0.0000
# 2 30.1550 43.8627 36.3203 0.0000 0.0000 0.0000
# 3 47.5861 36.3203 106.4657 0.0000 0.0000 0.0000
# 4 0.0000 0.0000 0.0000 24.1726 0.0000 0.0000
# 5 0.0000 0.0000 0.0000 0.0000 15.0676 0.0000
# 6 0.0000 0.0000 0.0000 0.0000 0.0000 20.4249
#
#
#
# Elastic Compliance Matrix: (Units=1/GPa)
#
#
# Indices 1 2 3 4 5 6 
#
# 1 0.016443 -0.007273 -0.004868 0.000000 0.000000 0.000000
# 2 -0.007273 0.034991 -0.008686 0.000000 0.000000 0.000000
# 3 -0.004868 -0.008686 0.014532 0.000000 0.000000 0.000000
# 4 0.000000 0.000000 0.000000 0.041369 0.000000 0.000000
# 5 0.000000 0.000000 0.000000 0.000000 0.066367 0.000000
# 6 0.000000 0.000000 0.000000 0.000000 0.000000 0.048960
#
#
# Mechanical properties :
#
#
# Convention : Reuss Voigt Hill
#
# Bulk Modulus (GPa) = 41.13405 51.85504 46.49454
# Shear Modulus (GPa) = 18.35398 20.23379 19.29389
#
# Velocity S-wave (km/s) = 3.47092 3.64434 3.55869
# Velocity P-wave (km/s) = 6.56223 7.19341 6.88506
#
# Compressibility (1/GPa) = 0.02431076
#
# Stress axis : x y z
#
# Youngs Moduli (GPa) = 60.81733 28.57862 68.81453
#
# Poissons Ratio (x) = 0.20786 0.33499
# Poissons Ratio (y) = 0.44233 0.59774
# Poissons Ratio (z) = 0.29606 0.24824
#
# Static dielectric constant tensor:
#      x y z
#    x 1.505750 0.000000 0.000000 
#    y 0.000000 1.482150 0.000000 
#    z 0.000000 0.000000 1.507620 
# 
# From -- ./inp_files/46321.got.cif
#   From: 2010.05.17/outbox.cif.g08.bks.cpg/sg63_24_cif.got.tgz:46321.got - 2010.06.03 15:47:04.
