data_PCOD9469619
_publ_section_title
;
Structure prediction by ZEFSAII (Michael W. Deem and Ramdas Pophale) SiO2 
 PCOD9469619
Probable space group: C M C M
;
_chemical_formula_sum "Si O2"
_cell_formula_units_Z 96
_cell_length_a 19.273077
_cell_length_b 33.726453
_cell_length_c 8.501552
_cell_angle_alpha 90.000000
_cell_angle_beta 90.000000
_cell_angle_gamma 90.000000
_cell_volume 5526.115287
_symmetry_space_group_name_H-M "C M C M"
_symmetry_group_IT_number 63
_symmetry_cell_setting 'orthorhombic'
loop_
_space_group_symop_operation_xyz
x,y,z
-x,-y,1/2+z
x,-y,-z
-x,y,1/2-z
-x,-y,-z
x,y,1/2-z
-x,y,z
x,-y,1/2+z
1/2+x,1/2+y,z
1/2-x,1/2-y,1/2+z
1/2+x,1/2-y,-z
1/2-x,1/2+y,1/2-z
1/2-x,1/2-y,-z
1/2+x,1/2+y,1/2-z
1/2-x,1/2+y,z
1/2+x,1/2-y,1/2+z
loop_
_atom_site_type_symbol
_atom_site_label
_atom_site_fract_x
_atom_site_fract_y
_atom_site_fract_z
Si Si1 0.578864 0.330968 0.441934
Si Si2 0.577040 0.086293 0.060488
Si Si3 0.790042 0.119895 0.560036
Si Si4 0.716451 0.956353 0.561824
Si Si5 0.080367 0.740444 0.439477
Si Si6 0.149204 0.336877 0.437591
O O1 0.578738 0.331285 0.250000
O O2 0.500000 0.339846 0.492401
O O3 0.637488 0.361517 0.494786
O O4 0.596207 0.285651 0.488151
O O5 0.576530 0.084646 0.250000
O O6 0.500000 0.075641 0.003228
O O7 0.640145 0.058457 0.004520
O O8 0.596881 0.130875 0.010896
O O9 0.791194 0.117738 0.750000
O O10 0.770427 0.076866 0.495123
O O11 0.726313 0.148965 0.515107
O O12 0.715565 0.956714 0.750000
O O13 0.731416 0.000000 0.500000
O O14 0.084337 0.738794 0.250000
O O15 0.129352 0.706929 0.508957
O O16 0.000000 0.732341 0.483532
O O17 0.144440 0.339557 0.250000
#
# Coordination Sequence:
#
# PCOD9469619 Si02
#       6
#    16  16  16  16  16  16
#     4   8  15  30  52  73  91 118 157 195 233 279
#     4   9  18  32  48  66  91 126 165 198 227 264
#     4   9  18  33  51  71  95 121 152 192 235 279
#     4  10  20  34  52  73  96 122 152 187 230 279
#     4   9  17  29  45  65  91 126 166 201 230 266
#     4  10  19  28  41  66  98 129 160 195 234 271
#
# _framework density 17.372060000000001
#
# number of rings (size 3 to 8) (size 9 to 14) (size 15 to 20)
#    0.000    2.833    0.000    2.500    0.000    5.000 
#    0.000    0.833    0.000    2.000    0.000    0.000 
#    0.000    0.000    0.000    0.000    0.000    0.000 
#
# Total GULP energy -267610.916223 kJ/mol
# GULP energy per Si atom -5575.227421 kJ/mol
# Density = 1.733252 g / cm^3
# Si number density = 17.372060 Si / 1000 Ang^3
#
#
#
# Elastic Constant Matrix: (Units=GPa)
#
#
# Indices 1 2 3 4 5 6 
#
# 1 96.0433 95.6044 16.5711 0.0000 0.0000 0.0000
# 2 95.6044 145.7355 19.4694 0.0000 0.0000 0.0000
# 3 16.5711 19.4694 5.8505 0.0000 0.0000 0.0000
# 4 0.0000 0.0000 0.0000 18.2923 0.0000 0.0000
# 5 0.0000 0.0000 0.0000 0.0000 14.5937 0.0000
# 6 0.0000 0.0000 0.0000 0.0000 0.0000 9.4055
#
#
#
# Elastic Compliance Matrix: (Units=1/GPa)
#
#
# Indices 1 2 3 4 5 6 
#
# 1 0.034621 -0.017305 -0.040473 0.000000 0.000000 0.000000
# 2 -0.017305 0.021004 -0.020882 0.000000 0.000000 0.000000
# 3 -0.040473 -0.020882 0.355052 0.000000 0.000000 0.000000
# 4 0.000000 0.000000 0.000000 0.054668 0.000000 0.000000
# 5 0.000000 0.000000 0.000000 0.000000 0.068523 0.000000
# 6 0.000000 0.000000 0.000000 0.000000 0.000000 0.106321
#
#
# Mechanical properties :
#
#
# Convention : Reuss Voigt Hill
#
# Bulk Modulus (GPa) = 3.94701 56.76881 30.35791
# Shear Modulus (GPa) = 5.66919 16.19058 10.92989
#
# Velocity S-wave (km/s) = 1.80845 3.05616 2.51104
# Velocity P-wave (km/s) = 2.57636 6.72329 5.09118
#
# Compressibility (1/GPa) = 0.25335663
#
# Stress axis : x y z
#
# Youngs Moduli (GPa) = 28.88449 47.61108 2.81649
#
# Poissons Ratio (x) = 0.82389 0.11399
# Poissons Ratio (y) = 0.49983 0.05881
# Poissons Ratio (z) = 1.16905 0.99421
#
# Static dielectric constant tensor:
#      x y z
#    x 1.600850 0.000000 0.000000 
#    y 0.000000 1.563910 0.000000 
#    z 0.000000 0.000000 1.592090 
# 
# From -- ./inp_files/8540.got.cif
#   From: 2010.05.17/outbox.cif.g08.bks.cpg/sg63_5_cif.got.tgz:8540.got - 2010.06.03 15:47:04.
