data_PCOD9469418
_publ_section_title
;
Structure prediction by ZEFSAII (Michael W. Deem and Ramdas Pophale) SiO2 
 PCOD9469418
Probable space group: C M C M
;
_chemical_formula_sum "Si O2"
_cell_formula_units_Z 80
_cell_length_a 8.005919
_cell_length_b 29.790527
_cell_length_c 16.176093
_cell_angle_alpha 90.000000
_cell_angle_beta 90.000000
_cell_angle_gamma 90.000000
_cell_volume 3858.007015
_symmetry_space_group_name_H-M "C M C M"
_symmetry_group_IT_number 63
_symmetry_cell_setting 'orthorhombic'
loop_
_space_group_symop_operation_xyz
x,y,z
-x,-y,1/2+z
x,-y,-z
-x,y,1/2-z
-x,-y,-z
x,y,1/2-z
-x,y,z
x,-y,1/2+z
1/2+x,1/2+y,z
1/2-x,1/2-y,1/2+z
1/2+x,1/2-y,-z
1/2-x,1/2+y,1/2-z
1/2-x,1/2-y,-z
1/2+x,1/2+y,1/2-z
1/2-x,1/2+y,z
1/2+x,1/2-y,1/2+z
loop_
_atom_site_type_symbol
_atom_site_label
_atom_site_fract_x
_atom_site_fract_y
_atom_site_fract_z
Si Si1 0.797991 0.198200 0.999845
Si Si2 0.198031 0.951027 0.586320
Si Si3 0.796263 0.856828 0.659148
Si Si4 0.301850 0.644395 0.840435
Si Si5 0.806453 0.451691 0.397327
O O1 0.733921 0.172464 0.918106
O O2 0.000000 0.194677 0.999743
O O3 0.750000 0.250000 0.000000
O O4 0.737769 0.173443 0.082959
O O5 0.248724 0.908505 0.640646
O O6 0.284544 0.948189 0.496786
O O7 0.000000 0.947706 0.570183
O O8 0.233980 0.999565 0.624919
O O9 0.737875 0.842835 0.750000
O O10 0.000000 0.855002 0.659592
O O11 0.231034 0.655781 0.750000
O O12 0.500000 0.653135 0.837911
O O13 0.278229 0.591626 0.857815
O O14 0.000000 0.450726 0.375792
#
# Coordination Sequence:
#
# PCOD9469418 Si02
#       5
#    16  16  16  16  16
#     4  10  21  39  60  84 111 143 183 232 286 339
#     4  10  18  33  57  82 113 155 199 230 270 334
#     4   9  18  34  58  85 111 142 185 231 272 326
#     4  10  21  39  61  83 110 150 197 235 274 336
#     4  11  21  33  53  84 120 152 188 234 287 333
#
# _framework density 20.736094000000001
#
# number of rings (size 3 to 8) (size 9 to 14) (size 15 to 20)
#    0.000    2.000    2.000    3.600    0.000    2.800 
#    0.000    2.000    0.000    4.200    0.000    0.000 
#    0.000    0.000    0.000    0.000    0.000    0.000 
#
# Total GULP energy -223396.013060 kJ/mol
# GULP energy per Si atom -5584.900327 kJ/mol
# Density = 2.068890 g / cm^3
# Si number density = 20.736094 Si / 1000 Ang^3
#
#
#
# Elastic Constant Matrix: (Units=GPa)
#
#
# Indices 1 2 3 4 5 6 
#
# 1 19.0438 -6.8635 4.3275 0.0000 0.0000 0.0000
# 2 -6.8635 146.1874 98.9673 0.0000 0.0000 0.0000
# 3 4.3275 98.9673 178.5789 0.0000 0.0000 0.0000
# 4 0.0000 0.0000 0.0000 -11.4972 0.0000 0.0000
# 5 0.0000 0.0000 0.0000 0.0000 -7.8263 0.0000
# 6 0.0000 0.0000 0.0000 0.0000 0.0000 23.8535
#
#
#
# Elastic Compliance Matrix: (Units=1/GPa)
#
#
# Indices 1 2 3 4 5 6 
#
# 1 0.055556 0.005633 -0.004468 0.000000 0.000000 0.000000
# 2 0.005633 0.011519 -0.006520 0.000000 0.000000 0.000000
# 3 -0.004468 -0.006520 0.009322 0.000000 0.000000 0.000000
# 4 0.000000 0.000000 0.000000 -0.086978 0.000000 0.000000
# 5 0.000000 0.000000 0.000000 0.000000 -0.127774 0.000000
# 6 0.000000 0.000000 0.000000 0.000000 0.000000 0.041922
#
#
# Mechanical properties :
#
#
# Convention : Reuss Voigt Hill
#
# Bulk Modulus (GPa) = 15.22386 59.63031 37.42708
# Shear Modulus (GPa) = -78.33832 17.39792 -30.47020
#
# Velocity S-wave (km/s) = -6.15311 2.89972 -3.83747
# Velocity P-wave (km/s) = 6.56684 6.32696 1.24358
#
# Compressibility (1/GPa) = 0.06568635
#
# Stress axis : x y z
#
# Youngs Moduli (GPa) = 17.99980 86.81099 107.27746
#
# Poissons Ratio (x) = -0.48903 0.47934
# Poissons Ratio (y) = -0.10140 0.69949
# Poissons Ratio (z) = 0.08043 0.56604
#
# Static dielectric constant tensor:
#      x y z
#    x 1.727710 0.000000 0.000000 
#    y 0.000000 1.707640 0.000000 
#    z 0.000000 0.000000 1.767670 
# 
# From -- ./inp_files/40524.got.cif
#   From: 2010.05.17/outbox.cif.g08.bks.cpg/sg63_21_cif.got.tgz:40524.got - 2010.06.03 15:47:04.
