data_PCOD9469602
_publ_section_title
;
Structure prediction by ZEFSAII (Michael W. Deem and Ramdas Pophale) SiO2 
 PCOD9469602
Probable space group: C M C M
;
_chemical_formula_sum "Si O2"
_cell_formula_units_Z 64
_cell_length_a 5.606826
_cell_length_b 22.089495
_cell_length_c 21.150199
_cell_angle_alpha 90.000000
_cell_angle_beta 90.000000
_cell_angle_gamma 90.000000
_cell_volume 2619.493493
_symmetry_space_group_name_H-M "C M C M"
_symmetry_group_IT_number 63
_symmetry_cell_setting 'orthorhombic'
loop_
_space_group_symop_operation_xyz
x,y,z
-x,-y,1/2+z
x,-y,-z
-x,y,1/2-z
-x,-y,-z
x,y,1/2-z
-x,y,z
x,-y,1/2+z
1/2+x,1/2+y,z
1/2-x,1/2-y,1/2+z
1/2+x,1/2-y,-z
1/2-x,1/2+y,1/2-z
1/2-x,1/2-y,-z
1/2+x,1/2+y,1/2-z
1/2-x,1/2+y,z
1/2+x,1/2-y,1/2+z
loop_
_atom_site_type_symbol
_atom_site_label
_atom_site_fract_x
_atom_site_fract_y
_atom_site_fract_z
Si Si1 0.000000 0.252747 0.642750
Si Si2 0.000000 0.483304 0.574261
Si Si3 0.000000 0.687190 0.007842
Si Si4 0.000000 0.117855 0.855491
Si Si5 0.500000 0.325536 0.963492
Si Si6 0.500000 0.919899 0.316544
Si Si7 0.500000 0.488079 0.574513
Si Si8 0.500000 0.696998 0.180777
O O1 0.000000 0.184749 0.616754
O O2 0.249361 0.266027 0.677924
O O3 0.000000 0.294711 0.581165
O O4 0.000000 0.500000 0.500000
O O5 0.000000 0.541522 0.619539
O O6 0.746012 0.454575 0.590119
O O7 0.254438 0.654166 0.001784
O O8 0.000000 0.750805 0.969691
O O9 0.748300 0.115616 0.818732
O O10 0.000000 0.054701 0.894054
O O11 0.500000 0.335988 0.887972
O O12 0.500000 0.955877 0.250000
O O13 0.500000 0.500000 0.500000
O O14 0.500000 0.664959 0.250000
#
# Coordination Sequence:
#
# PCOD9469602 Si02
#       8
#     8   8   8   8   8   8   8   8
#     4  10  19  28  38  53  74 101 129 156 181 214
#     4   8  14  25  39  52  66  88 119 153 186 216
#     4   8  14  25  39  52  66  88 120 154 187 212
#     4  10  19  28  38  53  74 101 130 156 183 217
#     4   8  14  25  39  52  66  88 120 154 184 211
#     4  10  19  28  38  53  74 101 128 152 181 217
#     4   8  14  25  39  52  66  88 121 155 186 216
#     4  10  19  28  38  53  74 101 130 152 175 213
#
# _framework density 24.432203000000001
#
# number of rings (size 3 to 8) (size 9 to 14) (size 15 to 20)
#    0.000    3.000    0.000    1.500    0.000    3.000 
#    0.000    0.000    0.000    0.000    0.000    0.000 
#    0.000    0.000    0.000   36.000    0.000  100.000 
#
# Total GULP energy -178204.551726 kJ/mol
# GULP energy per Si atom -5568.892241 kJ/mol
# Density = 2.437659 g / cm^3
# Si number density = 24.432203 Si / 1000 Ang^3
#
#
#
# Elastic Constant Matrix: (Units=GPa)
#
#
# Indices 1 2 3 4 5 6 
#
# 1 305.7888 30.8512 36.8883 0.0000 0.0000 0.0000
# 2 30.8512 54.3169 -13.0012 0.0000 0.0000 0.0000
# 3 36.8883 -13.0012 78.7819 0.0000 0.0000 0.0000
# 4 0.0000 0.0000 0.0000 1.3952 0.0000 0.0000
# 5 0.0000 0.0000 0.0000 0.0000 24.0656 0.0000
# 6 0.0000 0.0000 0.0000 0.0000 0.0000 3.1636
#
#
#
# Elastic Compliance Matrix: (Units=1/GPa)
#
#
# Indices 1 2 3 4 5 6 
#
# 1 0.003812 -0.002699 -0.002230 0.000000 0.000000 0.000000
# 2 -0.002699 0.021078 0.004742 0.000000 0.000000 0.000000
# 3 -0.002230 0.004742 0.014520 0.000000 0.000000 0.000000
# 4 0.000000 0.000000 0.000000 0.716739 0.000000 0.000000
# 5 0.000000 0.000000 0.000000 0.000000 0.041553 0.000000
# 6 0.000000 0.000000 0.000000 0.000000 0.000000 0.316101
#
#
# Mechanical properties :
#
#
# Convention : Reuss Voigt Hill
#
# Bulk Modulus (GPa) = 25.61692 60.92937 43.27314
# Shear Modulus (GPa) = 4.43582 31.33481 17.88531
#
# Velocity S-wave (km/s) = 1.34889 3.58512 2.70856
# Velocity P-wave (km/s) = 3.59634 6.49074 5.24706
#
# Compressibility (1/GPa) = 0.03903670
#
# Stress axis : x y z
#
# Youngs Moduli (GPa) = 262.36273 47.44211 68.87037
#
# Poissons Ratio (x) = 0.12803 0.15358
# Poissons Ratio (y) = 0.70803 -0.32659
# Poissons Ratio (z) = 0.58508 -0.22498
#
# Static dielectric constant tensor:
#      x y z
#    x 2.127450 0.000000 0.000000 
#    y 0.000000 2.046880 0.000000 
#    z 0.000000 0.000000 1.933330 
# 
# From -- ./inp_files/49825.got.cif
#   From: 2010.05.17/outbox.cif.g08.bks.cpg/sg63_25_cif.got.tgz:49825.got - 2010.06.03 15:47:04.
