data_PCOD9469941
_publ_section_title
;
Structure prediction by ZEFSAII (Michael W. Deem and Ramdas Pophale) SiO2 
 PCOD9469941
Probable space group: C M C M
;
_chemical_formula_sum "Si O2"
_cell_formula_units_Z 96
_cell_length_a 9.609864
_cell_length_b 14.054054
_cell_length_c 31.674302
_cell_angle_alpha 90.000000
_cell_angle_beta 90.000000
_cell_angle_gamma 90.000000
_cell_volume 4277.853550
_symmetry_space_group_name_H-M "C M C M"
_symmetry_group_IT_number 63
_symmetry_cell_setting 'orthorhombic'
loop_
_space_group_symop_operation_xyz
x,y,z
-x,-y,1/2+z
x,-y,-z
-x,y,1/2-z
-x,-y,-z
x,y,1/2-z
-x,y,z
x,-y,1/2+z
1/2+x,1/2+y,z
1/2-x,1/2-y,1/2+z
1/2+x,1/2-y,-z
1/2-x,1/2+y,1/2-z
1/2-x,1/2-y,-z
1/2+x,1/2+y,1/2-z
1/2-x,1/2+y,z
1/2+x,1/2-y,1/2+z
loop_
_atom_site_type_symbol
_atom_site_label
_atom_site_fract_x
_atom_site_fract_y
_atom_site_fract_z
Si Si1 0.659176 0.753848 0.877947
Si Si2 0.656849 0.521448 0.875559
Si Si3 0.843802 0.482520 0.453363
Si Si4 0.842896 0.473977 0.297945
Si Si5 0.842111 0.743201 0.542225
Si Si6 0.840687 0.757645 0.798015
O O1 0.500000 0.787264 0.881384
O O2 0.653873 0.637556 0.877181
O O3 0.733394 0.784311 0.834557
O O4 0.754088 0.780183 0.918009
O O5 0.500000 0.486529 0.877968
O O6 0.731037 0.495389 0.831992
O O7 0.747764 0.487930 0.914986
O O8 0.784084 0.500000 0.500000
O O9 0.857395 0.369220 0.449511
O O10 0.000000 0.524813 0.452013
O O11 0.812957 0.503194 0.250000
O O12 0.843576 0.358301 0.298236
O O13 0.000000 0.504163 0.309320
O O14 0.750000 0.750000 0.500000
O O15 0.000000 0.782383 0.537907
O O16 0.803691 0.785696 0.750000
O O17 0.000000 0.788345 0.806826
#
# Coordination Sequence:
#
# PCOD9469941 Si02
#       6
#    16  16  16  16  16  16
#     4   9  16  25  37  55  80 109 141 174 211 255
#     4   9  16  24  36  56  81 108 137 173 216 256
#     4   9  18  32  48  64  84 114 149 181 214 255
#     4   8  13  21  33  49  72 105 141 172 204 248
#     4  10  19  31  47  65  87 114 145 181 219 259
#     4   8  13  21  33  50  74 105 139 172 208 251
#
# _framework density 22.441161999999998
#
# number of rings (size 3 to 8) (size 9 to 14) (size 15 to 20)
#    0.000    3.167    0.000    2.500    0.000    5.667 
#    0.000    3.333    0.000    0.000    0.000    0.000 
#    0.000    1.333    0.000    7.667    0.000   10.000 
#
# Total GULP energy -268156.981082 kJ/mol
# GULP energy per Si atom -5586.603773 kJ/mol
# Density = 2.239008 g / cm^3
# Si number density = 22.441162 Si / 1000 Ang^3
#
#
#
# Elastic Constant Matrix: (Units=GPa)
#
#
# Indices 1 2 3 4 5 6 
#
# 1 201.6936 5.8487 145.4730 0.0000 0.0000 0.0000
# 2 5.8487 70.2468 -9.4124 0.0000 0.0000 0.0000
# 3 145.4730 -9.4124 181.8095 0.0000 0.0000 0.0000
# 4 0.0000 0.0000 0.0000 9.7633 0.0000 0.0000
# 5 0.0000 0.0000 0.0000 0.0000-1478.8134 0.0000
# 6 0.0000 0.0000 0.0000 0.0000 0.0000 0.2300
#
#
#
# Elastic Compliance Matrix: (Units=1/GPa)
#
#
# Indices 1 2 3 4 5 6 
#
# 1 0.012088 -0.002318 -0.009792 0.000000 0.000000 0.000000
# 2 -0.002318 0.014780 0.002620 0.000000 0.000000 0.000000
# 3 -0.009792 0.002620 0.013471 0.000000 0.000000 0.000000
# 4 0.000000 0.000000 0.000000 0.102424 0.000000 0.000000
# 5 0.000000 0.000000 0.000000 0.000000 -0.000676 0.000000
# 6 0.000000 0.000000 0.000000 0.000000 0.000000 4.348249
#
#
# Mechanical properties :
#
#
# Convention : Reuss Voigt Hill
#
# Bulk Modulus (GPa) = 46.82099 81.95206 64.38653
# Shear Modulus (GPa) = 1.10707 -272.97465 -135.93379
#
# Velocity S-wave (km/s) = 0.70313 -11.04102 -7.79134
# Velocity P-wave (km/s) = 4.64418 11.22235 7.22401
#
# Compressibility (1/GPa) = 0.02135794
#
# Stress axis : x y z
#
# Youngs Moduli (GPa) = 82.72868 67.66069 74.23475
#
# Poissons Ratio (x) = 0.15687 0.72690
# Poissons Ratio (y) = 0.19180 -0.19451
# Poissons Ratio (z) = 0.81007 -0.17729
#
# Static dielectric constant tensor:
#      x y z
#    x 1.794640 0.000000 0.000000 
#    y 0.000000 2.345690 0.000000 
#    z 0.000000 0.000000 1.781960 
# 
# From -- ./inp_files/60197.got.cif
#   From: 2010.05.17/outbox.cif.g08.bks.cpg/sg63_31_cif.got.tgz:60197.got - 2010.06.03 15:47:04.
