data_PCOD9469010
_publ_section_title
;
Structure prediction by ZEFSAII (Michael W. Deem and Ramdas Pophale) SiO2 
 PCOD9469010
Probable space group: C M C M
;
_chemical_formula_sum "Si O2"
_cell_formula_units_Z 96
_cell_length_a 15.351759
_cell_length_b 9.852259
_cell_length_c 26.652863
_cell_angle_alpha 90.000000
_cell_angle_beta 90.000000
_cell_angle_gamma 90.000000
_cell_volume 4031.232356
_symmetry_space_group_name_H-M "C M C M"
_symmetry_group_IT_number 63
_symmetry_cell_setting 'orthorhombic'
loop_
_space_group_symop_operation_xyz
x,y,z
-x,-y,1/2+z
x,-y,-z
-x,y,1/2-z
-x,-y,-z
x,y,1/2-z
-x,y,z
x,-y,1/2+z
1/2+x,1/2+y,z
1/2-x,1/2-y,1/2+z
1/2+x,1/2-y,-z
1/2-x,1/2+y,1/2-z
1/2-x,1/2-y,-z
1/2+x,1/2+y,1/2-z
1/2-x,1/2+y,z
1/2+x,1/2-y,1/2+z
loop_
_atom_site_type_symbol
_atom_site_label
_atom_site_fract_x
_atom_site_fract_y
_atom_site_fract_z
Si Si1 0.204013 0.799080 0.643133
Si Si2 0.094517 0.605495 0.575103
Si Si3 0.716333 0.209059 0.750000
Si Si4 0.898331 0.001909 0.581458
Si Si5 0.404972 0.146929 0.357541
Si Si6 0.852087 0.218563 0.504569
Si Si7 0.642311 0.924502 0.750000
O O1 0.167192 0.686815 0.605504
O O2 0.173537 0.763831 0.699084
O O3 0.165920 0.943892 0.624311
O O4 0.308477 0.790881 0.642911
O O5 0.098317 0.453490 0.594816
O O6 0.104178 0.645461 0.517027
O O7 0.000000 0.658480 0.591529
O O8 0.712208 0.046667 0.750000
O O9 0.811459 0.277431 0.750000
O O10 0.877710 0.148631 0.556877
O O11 0.000000 0.994388 0.595030
O O12 0.880569 0.894712 0.536297
O O13 0.500000 0.218747 0.358815
O O14 0.405258 0.067733 0.303546
O O15 0.750000 0.250000 0.500000
#
# Coordination Sequence:
#
# PCOD9469010 Si02
#       7
#    16  16   8  16  16  16   8
#     4  10  19  34  54  80 112 149 185 243 290 349
#     4  10  19  33  54  81 107 141 189 245 289 344
#     4  10  20  34  58  90 121 149 203 243 301 347
#     4  10  20  36  55  80 112 150 192 238 292 355
#     4  10  20  33  54  81 110 143 193 241 288 348
#     4  10  18  30  52  80 107 143 185 231 286 348
#     4  10  19  36  56  90 112 159 192 251 293 367
#
# _framework density 23.814056999999998
#
# number of rings (size 3 to 8) (size 9 to 14) (size 15 to 20)
#    0.000    2.000    1.667    4.750    0.000    0.000 
#    0.000    1.667    0.000   18.000    0.000   36.167 
#    0.000    0.000    0.000    0.000    0.000    0.000 
#
# Total GULP energy -267848.467430 kJ/mol
# GULP energy per Si atom -5580.176405 kJ/mol
# Density = 2.375986 g / cm^3
# Si number density = 23.814057 Si / 1000 Ang^3
#
#
#
# Elastic Constant Matrix: (Units=GPa)
#
#
# Indices 1 2 3 4 5 6 
#
# 1 168.0122 39.6675 25.3379 0.0000 0.0000 0.0000
# 2 39.6675 91.3688 27.6112 0.0000 0.0000 0.0000
# 3 25.3379 27.6112 122.1304 0.0000 0.0000 0.0000
# 4 0.0000 0.0000 0.0000 31.4065 0.0000 0.0000
# 5 0.0000 0.0000 0.0000 0.0000 -11.3351 0.0000
# 6 0.0000 0.0000 0.0000 0.0000 0.0000 27.7409
#
#
#
# Elastic Compliance Matrix: (Units=1/GPa)
#
#
# Indices 1 2 3 4 5 6 
#
# 1 0.006701 -0.002672 -0.000786 0.000000 0.000000 0.000000
# 2 -0.002672 0.012812 -0.002342 0.000000 0.000000 0.000000
# 3 -0.000786 -0.002342 0.008881 0.000000 0.000000 0.000000
# 4 0.000000 0.000000 0.000000 0.031841 0.000000 0.000000
# 5 0.000000 0.000000 0.000000 0.000000 -0.088221 0.000000
# 6 0.000000 0.000000 0.000000 0.000000 0.000000 0.036048
#
#
# Mechanical properties :
#
#
# Convention : Reuss Voigt Hill
#
# Bulk Modulus (GPa) = 59.54615 62.97161 61.25888
# Shear Modulus (GPa) = 197.94084 28.82211 113.38148
#
# Velocity S-wave (km/s) = 9.12687 3.48271 6.90757
# Velocity P-wave (km/s) = 11.66727 6.53244 9.45511
#
# Compressibility (1/GPa) = 0.01679370
#
# Stress axis : x y z
#
# Youngs Moduli (GPa) = 149.22432 78.04926 112.60439
#
# Poissons Ratio (x) = 0.20853 0.08854
# Poissons Ratio (y) = 0.39869 0.26376
# Poissons Ratio (z) = 0.11733 0.18282
#
# Static dielectric constant tensor:
#      x y z
#    x 1.967690 0.000000 0.000000 
#    y 0.000000 2.019250 0.000000 
#    z 0.000000 0.000000 1.973330 
# 
# From -- ./inp_files/73355.got.cif
#   From: 2010.05.17/outbox.cif.g08.bks.cpg/sg63_37_cif.got.tgz:73355.got - 2010.06.03 15:47:04.
