data_PCOD9469797
_publ_section_title
;
Structure prediction by ZEFSAII (Michael W. Deem and Ramdas Pophale) SiO2 
 PCOD9469797
Probable space group: C M C M
;
_chemical_formula_sum "Si O2"
_cell_formula_units_Z 128
_cell_length_a 13.124058
_cell_length_b 21.380943
_cell_length_c 20.371647
_cell_angle_alpha 90.000000
_cell_angle_beta 90.000000
_cell_angle_gamma 90.000000
_cell_volume 5716.380629
_symmetry_space_group_name_H-M "C M C M"
_symmetry_group_IT_number 63
_symmetry_cell_setting 'orthorhombic'
loop_
_space_group_symop_operation_xyz
x,y,z
-x,-y,1/2+z
x,-y,-z
-x,y,1/2-z
-x,-y,-z
x,y,1/2-z
-x,y,z
x,-y,1/2+z
1/2+x,1/2+y,z
1/2-x,1/2-y,1/2+z
1/2+x,1/2-y,-z
1/2-x,1/2+y,1/2-z
1/2-x,1/2-y,-z
1/2+x,1/2+y,1/2-z
1/2-x,1/2+y,z
1/2+x,1/2-y,1/2+z
loop_
_atom_site_type_symbol
_atom_site_label
_atom_site_fract_x
_atom_site_fract_y
_atom_site_fract_z
Si Si1 0.887943 0.934419 0.849075
Si Si2 0.328172 0.599799 0.491352
Si Si3 0.663100 0.101351 0.178093
Si Si4 0.111881 0.628146 0.464987
Si Si5 0.386929 0.046018 0.827183
Si Si6 0.164151 0.073345 0.862386
Si Si7 0.881569 0.790802 0.320556
Si Si8 0.619594 0.268185 0.464411
O O1 0.786530 0.899126 0.824845
O O2 0.000000 0.913856 0.827181
O O3 0.871207 0.007547 0.833164
O O4 0.881788 0.927534 0.927970
O O5 0.207537 0.586354 0.484710
O O6 0.367340 0.577213 0.561391
O O7 0.338571 0.675243 0.492344
O O8 0.629510 0.123150 0.250000
O O9 0.619486 0.134855 0.114290
O O10 0.628236 0.029059 0.170236
O O11 0.124283 0.698458 0.492369
O O12 0.000000 0.603846 0.481662
O O13 0.382999 0.062870 0.750000
O O14 0.500000 0.061901 0.852496
O O15 0.287575 0.075208 0.860209
O O16 0.122789 0.133845 0.825899
O O17 0.835312 0.772093 0.250000
O O18 0.834624 0.770450 0.390505
O O19 0.000000 0.771077 0.319795
O O20 0.500000 0.282868 0.456830
#
# Coordination Sequence:
#
# PCOD9469797 Si02
#       8
#    16  16  16  16  16  16  16  16
#     4  10  20  33  50  72  97 127 161 192 227 280
#     4  10  20  33  48  68  98 128 158 199 242 281
#     4   9  19  34  50  71  97 122 151 191 239 283
#     4  10  20  33  50  71  93 121 160 201 239 284
#     4   9  17  30  47  66  91 124 159 192 228 274
#     4  10  19  30  46  69  96 128 161 193 232 280
#     4   9  17  29  45  68  97 122 147 188 240 288
#     4   9  18  32  50  70  92 122 158 196 242 291
#
# _framework density 22.391791000000001
#
# number of rings (size 3 to 8) (size 9 to 14) (size 15 to 20)
#    0.000    2.500    0.000    2.250    0.000    4.500 
#    0.000    1.250    0.000    4.500    0.000    0.000 
#    0.000    0.000    0.000    0.000    0.000    0.000 
#
# Total GULP energy -357223.288546 kJ/mol
# GULP energy per Si atom -5581.613884 kJ/mol
# Density = 2.234083 g / cm^3
# Si number density = 22.391791 Si / 1000 Ang^3
#
#
#
# Elastic Constant Matrix: (Units=GPa)
#
#
# Indices 1 2 3 4 5 6 
#
# 1 123.4187 -4.3104 -3.0182 0.0000 0.0000 0.0000
# 2 -4.3104 24.6912 -2.9474 0.0000 0.0000 0.0000
# 3 -3.0182 -2.9474 62.2214 0.0000 0.0000 0.0000
# 4 0.0000 0.0000 0.0000 3.9974 0.0000 0.0000
# 5 0.0000 0.0000 0.0000 0.0000 10.9848 0.0000
# 6 0.0000 0.0000 0.0000 0.0000 0.0000 13.3162
#
#
#
# Elastic Compliance Matrix: (Units=1/GPa)
#
#
# Indices 1 2 3 4 5 6 
#
# 1 0.008166 0.001481 0.000466 0.000000 0.000000 0.000000
# 2 0.001481 0.040999 0.002014 0.000000 0.000000 0.000000
# 3 0.000466 0.002014 0.016190 0.000000 0.000000 0.000000
# 4 0.000000 0.000000 0.000000 0.250163 0.000000 0.000000
# 5 0.000000 0.000000 0.000000 0.000000 0.091035 0.000000
# 6 0.000000 0.000000 0.000000 0.000000 0.000000 0.075096
#
#
# Mechanical properties :
#
#
# Convention : Reuss Voigt Hill
#
# Bulk Modulus (GPa) = 13.64681 21.08659 17.36670
# Shear Modulus (GPa) = 10.03711 20.36684 15.20197
#
# Velocity S-wave (km/s) = 2.11949 3.01918 2.60841
# Velocity P-wave (km/s) = 3.47814 4.64666 4.10420
#
# Compressibility (1/GPa) = 0.07327719
#
# Stress axis : x y z
#
# Youngs Moduli (GPa) = 122.46449 24.39074 61.76785
#
# Poissons Ratio (x) = -0.03613 -0.02880
# Poissons Ratio (y) = -0.18139 -0.12440
# Poissons Ratio (z) = -0.05710 -0.04912
#
# Static dielectric constant tensor:
#      x y z
#    x 1.841830 0.000000 0.000000 
#    y 0.000000 1.822000 0.000000 
#    z 0.000000 0.000000 1.865920 
# 
# From -- ./inp_files/62010.got.cif
#   From: 2010.05.17/outbox.cif.g08.bks.cpg/sg63_32_cif.got.tgz:62010.got - 2010.06.03 15:47:04.
