data_PCOD9469466
_publ_section_title
;
Structure prediction by ZEFSAII (Michael W. Deem and Ramdas Pophale) SiO2 
 PCOD9469466
Probable space group: C M C M
;
_chemical_formula_sum "Si O2"
_cell_formula_units_Z 104
_cell_length_a 12.435038
_cell_length_b 18.859677
_cell_length_c 24.508043
_cell_angle_alpha 90.000000
_cell_angle_beta 90.000000
_cell_angle_gamma 90.000000
_cell_volume 5747.645855
_symmetry_space_group_name_H-M "C M C M"
_symmetry_group_IT_number 63
_symmetry_cell_setting 'orthorhombic'
loop_
_space_group_symop_operation_xyz
x,y,z
-x,-y,1/2+z
x,-y,-z
-x,y,1/2-z
-x,-y,-z
x,y,1/2-z
-x,y,z
x,-y,1/2+z
1/2+x,1/2+y,z
1/2-x,1/2-y,1/2+z
1/2+x,1/2-y,-z
1/2-x,1/2+y,1/2-z
1/2-x,1/2-y,-z
1/2+x,1/2+y,1/2-z
1/2-x,1/2+y,z
1/2+x,1/2-y,1/2+z
loop_
_atom_site_type_symbol
_atom_site_label
_atom_site_fract_x
_atom_site_fract_y
_atom_site_fract_z
Si Si1 0.206469 0.937675 0.069300
Si Si2 0.732513 0.664533 0.134487
Si Si3 0.881336 0.855520 0.250000
Si Si4 0.119675 0.085539 0.456007
Si Si5 0.130435 0.130946 0.250000
Si Si6 0.729239 0.988657 0.250000
Si Si7 0.376436 0.299012 0.130647
Si Si8 0.873395 0.522020 0.364435
O O1 0.162068 0.872831 0.104413
O O2 0.317503 0.968026 0.093062
O O3 0.130779 0.007678 0.071105
O O4 0.203098 0.914254 0.006131
O O5 0.644884 0.643428 0.089302
O O6 0.678160 0.665872 0.194529
O O7 0.795248 0.735440 0.118807
O O8 0.816832 0.598968 0.131743
O O9 0.791352 0.914956 0.250000
O O10 0.874530 0.809238 0.195829
O O11 0.000000 0.890382 0.250000
O O12 0.000000 0.093985 0.478629
O O13 0.000000 0.130606 0.250000
O O14 0.181633 0.051633 0.250000
O O15 0.657955 0.995831 0.196028
O O16 0.500000 0.284366 0.114097
O O17 0.000000 0.526775 0.371947
#
# Coordination Sequence:
#
# PCOD9469466 Si02
#       8
#    16  16   8  16   8   8  16  16
#     4  10  20  36  59  83 111 141 192 237 280 333
#     4  10  22  36  56  82 116 147 191 223 274 347
#     4  10  20  32  54  86 115 141 177 231 282 322
#     4  10  20  38  60  85 111 145 187 241 292 328
#     4  10  20  36  58  84 114 149 184 232 282 332
#     4  10  18  34  56  86 111 140 187 237 274 336
#     4  11  21  36  57  82 114 148 183 230 280 332
#     4  10  20  36  56  81 113 150 186 228 281 333
#
# _framework density 18.094363999999999
#
# number of rings (size 3 to 8) (size 9 to 14) (size 15 to 20)
#    0.000    1.846    1.538    3.692    0.000    0.615 
#    0.000   10.769    0.000    0.000    0.000    0.000 
#    0.000    0.000    0.000    0.000    0.000    0.000 
#
# Total GULP energy -290066.266471 kJ/mol
# GULP energy per Si atom -5578.197432 kJ/mol
# Density = 1.805318 g / cm^3
# Si number density = 18.094364 Si / 1000 Ang^3
#
#
#
# Elastic Constant Matrix: (Units=GPa)
#
#
# Indices 1 2 3 4 5 6 
#
# 1 111.1399 23.2882 32.9787 0.0000 0.0000 0.0000
# 2 23.2882 64.6754 33.8645 0.0000 0.0000 0.0000
# 3 32.9787 33.8645 88.8832 0.0000 0.0000 0.0000
# 4 0.0000 0.0000 0.0000 -6.7765 0.0000 0.0000
# 5 0.0000 0.0000 0.0000 0.0000 38.6670 0.0000
# 6 0.0000 0.0000 0.0000 0.0000 0.0000 17.3724
#
#
#
# Elastic Compliance Matrix: (Units=1/GPa)
#
#
# Indices 1 2 3 4 5 6 
#
# 1 0.010343 -0.002142 -0.003021 0.000000 0.000000 0.000000
# 2 -0.002142 0.019759 -0.006733 0.000000 0.000000 0.000000
# 3 -0.003021 -0.006733 0.014937 0.000000 0.000000 0.000000
# 4 0.000000 0.000000 0.000000 -0.147568 0.000000 0.000000
# 5 0.000000 0.000000 0.000000 0.000000 0.025862 0.000000
# 6 0.000000 0.000000 0.000000 0.000000 0.000000 0.057563
#
#
# Mechanical properties :
#
#
# Convention : Reuss Voigt Hill
#
# Bulk Modulus (GPa) = 47.06961 49.44014 48.25488
# Shear Modulus (GPa) = 424.75861 21.49036 223.12449
#
# Velocity S-wave (km/s) = 15.33806 3.45002 11.11662
# Velocity P-wave (km/s) = 18.43216 6.57670 13.83831
#
# Compressibility (1/GPa) = 0.02124513
#
# Stress axis : x y z
#
# Youngs Moduli (GPa) = 96.68266 50.61036 66.94722
#
# Poissons Ratio (x) = 0.10842 0.20228
# Poissons Ratio (y) = 0.20712 0.45077
# Poissons Ratio (z) = 0.29212 0.34077
#
# Static dielectric constant tensor:
#      x y z
#    x 1.605690 0.000000 0.000000 
#    y 0.000000 1.596520 0.000000 
#    z 0.000000 0.000000 1.642670 
# 
# From -- ./inp_files/68465.got.cif
#   From: 2010.05.17/outbox.cif.g08.bks.cpg/sg63_35_cif.got.tgz:68465.got - 2010.06.03 15:47:04.
