data_PCOD9469816
_publ_section_title
;
Structure prediction by ZEFSAII (Michael W. Deem and Ramdas Pophale) SiO2 
 PCOD9469816
Probable space group: C M C M
;
_chemical_formula_sum "Si O2"
_cell_formula_units_Z 64
_cell_length_a 35.939615
_cell_length_b 5.116529
_cell_length_c 14.342303
_cell_angle_alpha 90.000000
_cell_angle_beta 90.000000
_cell_angle_gamma 90.000000
_cell_volume 2637.349911
_symmetry_space_group_name_H-M "C M C M"
_symmetry_group_IT_number 63
_symmetry_cell_setting 'orthorhombic'
loop_
_space_group_symop_operation_xyz
x,y,z
-x,-y,1/2+z
x,-y,-z
-x,y,1/2-z
-x,-y,-z
x,y,1/2-z
-x,y,z
x,-y,1/2+z
1/2+x,1/2+y,z
1/2-x,1/2-y,1/2+z
1/2+x,1/2-y,-z
1/2-x,1/2+y,1/2-z
1/2-x,1/2-y,-z
1/2+x,1/2+y,1/2-z
1/2-x,1/2+y,z
1/2+x,1/2-y,1/2+z
loop_
_atom_site_type_symbol
_atom_site_label
_atom_site_fract_x
_atom_site_fract_y
_atom_site_fract_z
Si Si1 0.041118 0.752237 0.433525
Si Si2 0.767751 0.317814 0.360751
Si Si3 0.615290 0.963451 0.612983
Si Si4 0.846086 0.964504 0.889292
O O1 0.037726 0.500000 0.500000
O O2 0.075574 0.671937 0.368729
O O3 0.000000 0.800785 0.391640
O O4 0.050312 0.000000 0.500000
O O5 0.761940 0.352612 0.250000
O O6 0.737502 0.109772 0.399304
O O7 0.806771 0.172140 0.372165
O O8 0.646233 0.756259 0.645793
O O9 0.617371 0.000000 0.500000
O O10 0.623636 0.254702 0.646191
O O11 0.849887 0.000000 0.000000
#
# Coordination Sequence:
#
# PCOD9469816 Si02
#       4
#    16  16  16  16
#     4   9  15  23  37  58  88 125 155 178 213 262
#     4  10  21  36  51  67  89 116 147 186 229 273
#     4   9  16  27  41  63  93 120 148 183 222 261
#     4  10  19  30  47  68  91 118 147 184 227 269
#
# _framework density 24.266783
#
# number of rings (size 3 to 8) (size 9 to 14) (size 15 to 20)
#    0.000    2.500    0.000    5.250    0.000    1.000 
#    0.000    0.000    0.000    0.000    0.000    0.000 
#    0.000    6.000    0.000    0.000    0.000    2.500 
#
# Total GULP energy -178552.454164 kJ/mol
# GULP energy per Si atom -5579.764193 kJ/mol
# Density = 2.421155 g / cm^3
# Si number density = 24.266783 Si / 1000 Ang^3
#
#
#
# Elastic Constant Matrix: (Units=GPa)
#
#
# Indices 1 2 3 4 5 6 
#
# 1 102.2043 14.6243 -26.3628 0.0000 0.0000 0.0000
# 2 14.6243 147.1581 -1.6376 0.0000 0.0000 0.0000
# 3 -26.3628 -1.6376 77.2632 0.0000 0.0000 0.0000
# 4 0.0000 0.0000 0.0000 -10.0719 0.0000 0.0000
# 5 0.0000 0.0000 0.0000 0.0000 30.8655 0.0000
# 6 0.0000 0.0000 0.0000 0.0000 0.0000 41.8994
#
#
#
# Elastic Compliance Matrix: (Units=1/GPa)
#
#
# Indices 1 2 3 4 5 6 
#
# 1 0.010886 -0.001041 0.003692 0.000000 0.000000 0.000000
# 2 -0.001041 0.006897 -0.000209 0.000000 0.000000 0.000000
# 3 0.003692 -0.000209 0.014198 0.000000 0.000000 0.000000
# 4 0.000000 0.000000 0.000000 -0.099286 0.000000 0.000000
# 5 0.000000 0.000000 0.000000 0.000000 0.032399 0.000000
# 6 0.000000 0.000000 0.000000 0.000000 0.000000 0.023867
#
#
# Mechanical properties :
#
#
# Convention : Reuss Voigt Hill
#
# Bulk Modulus (GPa) = 27.12573 33.31929 30.22251
# Shear Modulus (GPa) = -1374.54924 35.20540 -669.67192
#
# Velocity S-wave (km/s) = -23.82566 3.81302 -16.63014
# Velocity P-wave (km/s) = 27.30715 5.75723 18.87504
#
# Compressibility (1/GPa) = 0.03686537
#
# Stress axis : x y z
#
# Youngs Moduli (GPa) = 91.86440 145.00088 70.43177
#
# Poissons Ratio (x) = 0.15090 -0.26005
# Poissons Ratio (y) = 0.09560 0.01472
# Poissons Ratio (z) = -0.33918 0.03029
#
# Static dielectric constant tensor:
#      x y z
#    x 2.041330 0.000000 0.000000 
#    y 0.000000 1.935870 0.000000 
#    z 0.000000 0.000000 1.941780 
# 
# From -- ./inp_files/65588.got.cif
#   From: 2010.05.17/outbox.cif.g08.bks.cpg/sg63_33_cif.got.tgz:65588.got - 2010.06.03 15:47:04.
