data_PCOD9469307
_publ_section_title
;
Structure prediction by ZEFSAII (Michael W. Deem and Ramdas Pophale) SiO2 
 PCOD9469307
Probable space group: C M C M
;
_chemical_formula_sum "Si O2"
_cell_formula_units_Z 80
_cell_length_a 16.441444
_cell_length_b 15.928376
_cell_length_c 15.671781
_cell_angle_alpha 90.000000
_cell_angle_beta 90.000000
_cell_angle_gamma 90.000000
_cell_volume 4104.212235
_symmetry_space_group_name_H-M "C M C M"
_symmetry_group_IT_number 63
_symmetry_cell_setting 'orthorhombic'
loop_
_space_group_symop_operation_xyz
x,y,z
-x,-y,1/2+z
x,-y,-z
-x,y,1/2-z
-x,-y,-z
x,y,1/2-z
-x,y,z
x,-y,1/2+z
1/2+x,1/2+y,z
1/2-x,1/2-y,1/2+z
1/2+x,1/2-y,-z
1/2-x,1/2+y,1/2-z
1/2-x,1/2-y,-z
1/2+x,1/2+y,1/2-z
1/2-x,1/2+y,z
1/2+x,1/2-y,1/2+z
loop_
_atom_site_type_symbol
_atom_site_label
_atom_site_fract_x
_atom_site_fract_y
_atom_site_fract_z
Si Si1 0.192398 0.667748 0.003627
Si Si2 0.402360 0.238728 0.342454
Si Si3 0.402496 0.229008 0.849519
Si Si4 0.345157 0.594231 0.423210
Si Si5 0.906778 0.921825 0.109323
O O1 0.129753 0.685515 0.079363
O O2 0.255413 0.598044 0.035345
O O3 0.250000 0.750000 0.000000
O O4 0.144499 0.666848 0.914484
O O5 0.376053 0.206274 0.250000
O O6 0.500000 0.241594 0.345544
O O7 0.373668 0.335406 0.352034
O O8 0.388671 0.210194 0.750000
O O9 0.500000 0.228542 0.865466
O O10 0.367887 0.322442 0.870853
O O11 0.359911 0.507909 0.373555
O O12 0.402764 0.592739 0.507010
O O13 0.000000 0.932516 0.136358
#
# Coordination Sequence:
#
# PCOD9469307 Si02
#       5
#    16  16  16  16  16
#     4  10  19  32  48  75 107 139 172 216 260 312
#     4  10  20  34  54  78 106 142 178 212 257 312
#     4  10  19  31  49  72 100 137 178 218 260 304
#     4  10  19  31  48  76 105 139 166 208 262 311
#     4  10  18  32  54  76 107 140 169 206 254 314
#
# _framework density 19.492169000000001
#
# number of rings (size 3 to 8) (size 9 to 14) (size 15 to 20)
#    0.000    2.000    4.000    3.000    0.000    4.000 
#    0.000    2.000    0.000    0.000    0.000   11.200 
#    0.000   12.800    0.000    0.000    0.000    0.000 
#
# Total GULP energy -223026.197391 kJ/mol
# GULP energy per Si atom -5575.654935 kJ/mol
# Density = 1.944780 g / cm^3
# Si number density = 19.492169 Si / 1000 Ang^3
#
#
#
# Elastic Constant Matrix: (Units=GPa)
#
#
# Indices 1 2 3 4 5 6 
#
# 1 87.4933 30.5637 50.8107 0.0000 0.0000 0.0000
# 2 30.5637 39.9442 10.6885 0.0000 0.0000 0.0000
# 3 50.8107 10.6885 114.9309 0.0000 0.0000 0.0000
# 4 0.0000 0.0000 0.0000 12.7386 0.0000 0.0000
# 5 0.0000 0.0000 0.0000 0.0000 12.7258 0.0000
# 6 0.0000 0.0000 0.0000 0.0000 0.0000 23.9923
#
#
#
# Elastic Compliance Matrix: (Units=1/GPa)
#
#
# Indices 1 2 3 4 5 6 
#
# 1 0.020881 -0.013852 -0.007943 0.000000 0.000000 0.000000
# 2 -0.013852 0.034863 0.002882 0.000000 0.000000 0.000000
# 3 -0.007943 0.002882 0.011945 0.000000 0.000000 0.000000
# 4 0.000000 0.000000 0.000000 0.078501 0.000000 0.000000
# 5 0.000000 0.000000 0.000000 0.000000 0.078581 0.000000
# 6 0.000000 0.000000 0.000000 0.000000 0.000000 0.041680
#
#
# Mechanical properties :
#
#
# Convention : Reuss Voigt Hill
#
# Bulk Modulus (GPa) = 33.48797 47.38826 40.43812
# Shear Modulus (GPa) = 15.91181 19.91171 17.91176
#
# Velocity S-wave (km/s) = 2.86023 3.19960 3.03466
# Velocity P-wave (km/s) = 5.30334 6.16556 5.75063
#
# Compressibility (1/GPa) = 0.02986147
#
# Stress axis : x y z
#
# Youngs Moduli (GPa) = 47.88968 28.68382 83.71971
#
# Poissons Ratio (x) = 0.39733 0.66502
# Poissons Ratio (y) = 0.66337 -0.24126
# Poissons Ratio (z) = 0.38040 -0.08266
#
# Static dielectric constant tensor:
#      x y z
#    x 1.720440 0.000000 0.000000 
#    y 0.000000 1.705480 0.000000 
#    z 0.000000 0.000000 1.717450 
# 
# From -- ./inp_files/33868.got.cif
#   From: 2010.05.17/outbox.cif.g08.bks.cpg/sg63_17_cif.got.tgz:33868.got - 2010.06.03 15:47:04.
