data_PCOD9469826
_publ_section_title
;
Structure prediction by ZEFSAII (Michael W. Deem and Ramdas Pophale) SiO2 
 PCOD9469826
Probable space group: C M C M
;
_chemical_formula_sum "Si O2"
_cell_formula_units_Z 80
_cell_length_a 7.564688
_cell_length_b 27.005282
_cell_length_c 17.766496
_cell_angle_alpha 90.000000
_cell_angle_beta 90.000000
_cell_angle_gamma 90.000000
_cell_volume 3629.455866
_symmetry_space_group_name_H-M "C M C M"
_symmetry_group_IT_number 63
_symmetry_cell_setting 'orthorhombic'
loop_
_space_group_symop_operation_xyz
x,y,z
-x,-y,1/2+z
x,-y,-z
-x,y,1/2-z
-x,-y,-z
x,y,1/2-z
-x,y,z
x,-y,1/2+z
1/2+x,1/2+y,z
1/2-x,1/2-y,1/2+z
1/2+x,1/2-y,-z
1/2-x,1/2+y,1/2-z
1/2-x,1/2-y,-z
1/2+x,1/2+y,1/2-z
1/2-x,1/2+y,z
1/2+x,1/2-y,1/2+z
loop_
_atom_site_type_symbol
_atom_site_label
_atom_site_fract_x
_atom_site_fract_y
_atom_site_fract_z
Si Si1 0.295990 0.097859 0.875278
Si Si2 0.794140 0.009388 0.330523
Si Si3 0.213757 0.915193 0.548956
Si Si4 0.794920 0.704592 0.892361
Si Si5 0.285623 0.307036 0.931425
O O1 0.500000 0.098642 0.851567
O O2 0.218133 0.152934 0.861447
O O3 0.212141 0.049559 0.839501
O O4 0.287833 0.088404 0.965084
O O5 0.713824 0.022988 0.250000
O O6 0.721179 0.038593 0.402310
O O7 0.000000 0.023951 0.328676
O O8 0.255269 0.863280 0.590809
O O9 0.000000 0.918119 0.538847
O O10 0.722320 0.760224 0.882124
O O11 0.000000 0.705256 0.868869
O O12 0.785575 0.698602 0.983366
O O13 0.500000 0.303279 0.936045
#
# Coordination Sequence:
#
# PCOD9469826 Si02
#       5
#    16  16  16  16  16
#     4  10  19  30  47  71  96 120 148 183 223 269
#     4  10  21  35  48  63  87 120 156 192 228 266
#     4   9  17  30  49  70  91 117 151 189 226 265
#     4   8  14  24  39  63  93 117 139 173 216 261
#     4   8  13  23  41  64  89 115 142 175 217 262
#
# _framework density 22.041871
#
# number of rings (size 3 to 8) (size 9 to 14) (size 15 to 20)
#    0.000    3.000    0.000    1.200    0.000    4.400 
#    0.000    0.000    0.000    1.200    0.000    5.600 
#    0.000    0.000    0.000    0.000    0.000    0.000 
#
# Total GULP energy -222753.715595 kJ/mol
# GULP energy per Si atom -5568.842890 kJ/mol
# Density = 2.199170 g / cm^3
# Si number density = 22.041871 Si / 1000 Ang^3
#
#
#
# Elastic Constant Matrix: (Units=GPa)
#
#
# Indices 1 2 3 4 5 6 
#
# 1 55.1083 -2.4635 -2.6615 0.0000 0.0000 0.0000
# 2 -2.4635 96.6657 10.7426 0.0000 0.0000 0.0000
# 3 -2.6615 10.7426 30.3985 0.0000 0.0000 0.0000
# 4 0.0000 0.0000 0.0000 -5.9460 0.0000 0.0000
# 5 0.0000 0.0000 0.0000 0.0000 28.6251 0.0000
# 6 0.0000 0.0000 0.0000 0.0000 0.0000 16.4760
#
#
#
# Elastic Compliance Matrix: (Units=1/GPa)
#
#
# Indices 1 2 3 4 5 6 
#
# 1 0.018231 0.000299 0.001491 0.000000 0.000000 0.000000
# 2 0.000299 0.010773 -0.003781 0.000000 0.000000 0.000000
# 3 0.001491 -0.003781 0.034363 0.000000 0.000000 0.000000
# 4 0.000000 0.000000 0.000000 -0.168179 0.000000 0.000000
# 5 0.000000 0.000000 0.000000 0.000000 0.034934 0.000000
# 6 0.000000 0.000000 0.000000 0.000000 0.000000 0.060694
#
#
# Mechanical properties :
#
#
# Convention : Reuss Voigt Hill
#
# Bulk Modulus (GPa) = 16.83937 21.48973 19.16455
# Shear Modulus (GPa) = 342.60596 19.60135 181.10365
#
# Velocity S-wave (km/s) = 12.48085 2.98531 9.07424
# Velocity P-wave (km/s) = 14.67487 4.65333 10.88589
#
# Compressibility (1/GPa) = 0.05938465
#
# Stress axis : x y z
#
# Youngs Moduli (GPa) = 54.85030 92.82712 29.10110
#
# Poissons Ratio (x) = -0.02775 -0.04338
# Poissons Ratio (y) = -0.01640 0.11003
# Poissons Ratio (z) = -0.08176 0.35096
#
# Static dielectric constant tensor:
#      x y z
#    x 1.807290 0.000000 0.000000 
#    y 0.000000 1.889520 0.000000 
#    z 0.000000 0.000000 1.790380 
# 
# From -- ./inp_files/40480.got.cif
#   From: 2010.05.17/outbox.cif.g08.bks.cpg/sg63_21_cif.got.tgz:40480.got - 2010.06.03 15:47:04.
