data_PCOD9469460
_publ_section_title
;
Structure prediction by ZEFSAII (Michael W. Deem and Ramdas Pophale) SiO2 
 PCOD9469460
Probable space group: C M C M
;
_chemical_formula_sum "Si O2"
_cell_formula_units_Z 96
_cell_length_a 18.528859
_cell_length_b 11.728942
_cell_length_c 24.645374
_cell_angle_alpha 90.000000
_cell_angle_beta 90.000000
_cell_angle_gamma 90.000000
_cell_volume 5356.029104
_symmetry_space_group_name_H-M "C M C M"
_symmetry_group_IT_number 63
_symmetry_cell_setting 'orthorhombic'
loop_
_space_group_symop_operation_xyz
x,y,z
-x,-y,1/2+z
x,-y,-z
-x,y,1/2-z
-x,-y,-z
x,y,1/2-z
-x,y,z
x,-y,1/2+z
1/2+x,1/2+y,z
1/2-x,1/2-y,1/2+z
1/2+x,1/2-y,-z
1/2-x,1/2+y,1/2-z
1/2-x,1/2-y,-z
1/2+x,1/2+y,1/2-z
1/2-x,1/2+y,z
1/2+x,1/2-y,1/2+z
loop_
_atom_site_type_symbol
_atom_site_label
_atom_site_fract_x
_atom_site_fract_y
_atom_site_fract_z
Si Si1 0.000000 0.579623 0.413350
Si Si2 0.150517 0.650880 0.135021
Si Si3 0.346328 0.734286 0.058930
Si Si4 0.798284 0.847803 0.054364
Si Si5 0.303730 0.546025 0.134173
Si Si6 0.500000 0.831305 0.467550
Si Si7 0.697034 0.772360 0.750000
Si Si8 0.292891 0.491111 0.250000
O O1 0.072535 0.600682 0.378977
O O2 0.000000 0.454542 0.439356
O O3 0.000000 0.659125 0.467070
O O4 0.172005 0.737484 0.086611
O O5 0.216334 0.559713 0.136642
O O6 0.153832 0.714346 0.193355
O O7 0.288708 0.836976 0.055598
O O8 0.333174 0.667195 0.114556
O O9 0.427557 0.770374 0.051148
O O10 0.323394 0.657094 0.007392
O O11 0.822534 0.955431 0.088383
O O12 0.331508 0.505154 0.192310
O O13 0.732809 0.643920 0.750000
O O14 0.745302 0.889711 0.750000
#
# Coordination Sequence:
#
# PCOD9469460 Si02
#       8
#     8  16  16  16  16   8   8   8
#     4  11  22  37  57  81 117 155 194 244 294 365
#     4  10  20  35  57  85 116 151 193 242 298 355
#     4  10  21  34  55  83 115 150 192 240 292 357
#     4  10  18  34  55  84 114 145 190 242 293 348
#     4  10  20  35  58  84 114 150 193 245 300 351
#     4  11  22  38  56  80 116 159 194 238 302 362
#     4  10  20  37  62  91 121 154 200 247 304 351
#     4  10  20  36  62  89 119 153 198 251 298 352
#
# _framework density 17.923727
#
# number of rings (size 3 to 8) (size 9 to 14) (size 15 to 20)
#    0.000    1.833    3.333    1.500    0.000    0.333 
#    0.000    2.500    0.000    1.500    0.000    0.000 
#    0.000    0.000    0.000    0.000    0.000    0.000 
#
# Total GULP energy -267246.976874 kJ/mol
# GULP energy per Si atom -5567.645352 kJ/mol
# Density = 1.788293 g / cm^3
# Si number density = 17.923727 Si / 1000 Ang^3
#
#
#
# Elastic Constant Matrix: (Units=GPa)
#
#
# Indices 1 2 3 4 5 6 
#
# 1 88.3706 11.9630 9.8728 0.0000 0.0000 0.0000
# 2 11.9630 56.9223 22.2700 0.0000 0.0000 0.0000
# 3 9.8728 22.2700 101.0010 0.0000 0.0000 0.0000
# 4 0.0000 0.0000 0.0000 28.5297 0.0000 0.0000
# 5 0.0000 0.0000 0.0000 0.0000 7.8168 0.0000
# 6 0.0000 0.0000 0.0000 0.0000 0.0000 6.7267
#
#
#
# Elastic Compliance Matrix: (Units=1/GPa)
#
#
# Indices 1 2 3 4 5 6 
#
# 1 0.011687 -0.002199 -0.000658 0.000000 0.000000 0.000000
# 2 -0.002199 0.019640 -0.004116 0.000000 0.000000 0.000000
# 3 -0.000658 -0.004116 0.010873 0.000000 0.000000 0.000000
# 4 0.000000 0.000000 0.000000 0.035051 0.000000 0.000000
# 5 0.000000 0.000000 0.000000 0.000000 0.127930 0.000000
# 6 0.000000 0.000000 0.000000 0.000000 0.000000 0.148661
#
#
# Mechanical properties :
#
#
# Convention : Reuss Voigt Hill
#
# Bulk Modulus (GPa) = 35.39107 37.16728 36.27918
# Shear Modulus (GPa) = 13.25542 22.09385 17.67464
#
# Velocity S-wave (km/s) = 2.72241 3.51473 3.14363
# Velocity P-wave (km/s) = 5.44704 6.10348 5.78458
#
# Compressibility (1/GPa) = 0.02825571
#
# Stress axis : x y z
#
# Youngs Moduli (GPa) = 85.56429 50.91628 91.97415
#
# Poissons Ratio (x) = 0.11196 0.06048
# Poissons Ratio (y) = 0.18815 0.37852
# Poissons Ratio (z) = 0.05626 0.20955
#
# Static dielectric constant tensor:
#      x y z
#    x 1.590060 0.000000 0.000000 
#    y 0.000000 1.643790 0.000000 
#    z 0.000000 0.000000 1.633460 
# 
# From -- ./inp_files/63783.got.cif
#   From: 2010.05.17/outbox.cif.g08.bks.cpg/sg63_32_cif.got.tgz:63783.got - 2010.06.03 15:47:04.
