data_PCOD9469216
_publ_section_title
;
Structure prediction by ZEFSAII (Michael W. Deem and Ramdas Pophale) SiO2 
 PCOD9469216
Probable space group: C M C M
;
_chemical_formula_sum "Si O2"
_cell_formula_units_Z 104
_cell_length_a 18.693645
_cell_length_b 13.117931
_cell_length_c 27.839110
_cell_angle_alpha 90.000000
_cell_angle_beta 90.000000
_cell_angle_gamma 90.000000
_cell_volume 6826.760708
_symmetry_space_group_name_H-M "C M C M"
_symmetry_group_IT_number 63
_symmetry_cell_setting 'orthorhombic'
loop_
_space_group_symop_operation_xyz
x,y,z
-x,-y,1/2+z
x,-y,-z
-x,y,1/2-z
-x,-y,-z
x,y,1/2-z
-x,y,z
x,-y,1/2+z
1/2+x,1/2+y,z
1/2-x,1/2-y,1/2+z
1/2+x,1/2-y,-z
1/2-x,1/2+y,1/2-z
1/2-x,1/2-y,-z
1/2+x,1/2+y,1/2-z
1/2-x,1/2+y,z
1/2+x,1/2-y,1/2+z
loop_
_atom_site_type_symbol
_atom_site_label
_atom_site_fract_x
_atom_site_fract_y
_atom_site_fract_z
Si Si1 0.761965 0.450098 0.116551
Si Si2 0.000000 0.377257 0.999934
Si Si3 0.657825 0.919448 0.694754
Si Si4 0.000000 0.407529 0.803778
Si Si5 0.000000 0.265478 0.602597
Si Si6 0.750384 0.638521 0.050576
Si Si7 0.344945 0.827617 0.459742
Si Si8 0.844725 0.769423 0.124964
O O1 0.793081 0.510725 0.161686
O O2 0.735036 0.534536 0.078409
O O3 0.823886 0.386520 0.088929
O O4 0.701103 0.370751 0.131467
O O5 0.000000 0.332878 0.945731
O O6 0.000000 0.500000 0.000000
O O7 0.073012 0.341112 0.025574
O O8 0.680678 0.914319 0.750000
O O9 0.576340 0.962454 0.693459
O O10 0.654795 0.806533 0.670808
O O11 0.000000 0.335936 0.850055
O O12 0.000000 0.357621 0.750000
O O13 0.924922 0.207405 0.607052
O O14 0.681519 0.710491 0.043426
O O15 0.804890 0.703648 0.083838
O O16 0.793291 0.625501 0.001060
#
# Coordination Sequence:
#
# PCOD9469216 Si02
#       8
#    16   8  16   8   8  16  16  16
#     4  10  19  31  50  71  93 129 167 195 241 292
#     4  12  22  28  47  75  98 129 162 205 248 286
#     4   9  18  31  49  72  98 123 152 198 247 292
#     4   8  16  30  48  67  92 124 147 186 250 292
#     4  10  18  32  47  68 100 121 161 211 242 284
#     4   9  17  33  47  63  95 129 163 197 235 282
#     4  10  20  30  46  69  96 128 162 200 235 288
#     4   9  18  31  49  69  94 127 160 201 244 285
#
# _framework density 15.234166
#
# number of rings (size 3 to 8) (size 9 to 14) (size 15 to 20)
#    0.000    2.462    1.538    1.385    4.308    0.615 
#    0.000    0.769    0.000    0.923    0.000    0.000 
#    0.000    0.000    0.000    0.000    0.000    0.000 
#
# Total GULP energy -289485.928219 kJ/mol
# GULP energy per Si atom -5567.037081 kJ/mol
# Density = 1.519949 g / cm^3
# Si number density = 15.234166 Si / 1000 Ang^3
#
#
#
# Elastic Constant Matrix: (Units=GPa)
#
#
# Indices 1 2 3 4 5 6 
#
# 1 121.9386 59.1447 48.4750 0.0000 0.0000 0.0000
# 2 59.1447 82.2371 37.8099 0.0000 0.0000 0.0000
# 3 48.4750 37.8099 92.3698 0.0000 0.0000 0.0000
# 4 0.0000 0.0000 0.0000 12.6469 0.0000 0.0000
# 5 0.0000 0.0000 0.0000 0.0000 19.0792 0.0000
# 6 0.0000 0.0000 0.0000 0.0000 0.0000 15.7592
#
#
#
# Elastic Compliance Matrix: (Units=1/GPa)
#
#
# Indices 1 2 3 4 5 6 
#
# 1 0.013631 -0.008025 -0.003869 0.000000 0.000000 0.000000
# 2 -0.008025 0.019703 -0.003854 0.000000 0.000000 0.000000
# 3 -0.003869 -0.003854 0.014434 0.000000 0.000000 0.000000
# 4 0.000000 0.000000 0.000000 0.079071 0.000000 0.000000
# 5 0.000000 0.000000 0.000000 0.000000 0.052413 0.000000
# 6 0.000000 0.000000 0.000000 0.000000 0.000000 0.063455
#
#
# Mechanical properties :
#
#
# Convention : Reuss Voigt Hill
#
# Bulk Modulus (GPa) = 61.44939 65.26717 63.35828
# Shear Modulus (GPa) = 17.88102 19.57146 18.72624
#
# Velocity S-wave (km/s) = 3.42971 3.58817 3.50984
# Velocity P-wave (km/s) = 7.49053 7.75256 7.62267
#
# Compressibility (1/GPa) = 0.01627356
#
# Stress axis : x y z
#
# Youngs Moduli (GPa) = 73.36165 50.75319 69.28182
#
# Poissons Ratio (x) = 0.40728 0.26803
# Poissons Ratio (y) = 0.58871 0.26700
# Poissons Ratio (z) = 0.28382 0.19559
#
# Static dielectric constant tensor:
#      x y z
#    x 1.511910 0.000000 0.000000 
#    y 0.000000 1.499580 0.000000 
#    z 0.000000 0.000000 1.517250 
# 
# From -- ./inp_files/73911.got.cif
#   From: 2010.05.17/outbox.cif.g08.bks.cpg/sg63_37_cif.got.tgz:73911.got - 2010.06.03 15:47:04.
