data_PCOD9469686
_publ_section_title
;
Structure prediction by ZEFSAII (Michael W. Deem and Ramdas Pophale) SiO2 
 PCOD9469686
Probable space group: C M C M
;
_chemical_formula_sum "Si O2"
_cell_formula_units_Z 96
_cell_length_a 8.653142
_cell_length_b 28.547336
_cell_length_c 24.467145
_cell_angle_alpha 90.000000
_cell_angle_beta 90.000000
_cell_angle_gamma 90.000000
_cell_volume 6043.975749
_symmetry_space_group_name_H-M "C M C M"
_symmetry_group_IT_number 63
_symmetry_cell_setting 'orthorhombic'
loop_
_space_group_symop_operation_xyz
x,y,z
-x,-y,1/2+z
x,-y,-z
-x,y,1/2-z
-x,-y,-z
x,y,1/2-z
-x,y,z
x,-y,1/2+z
1/2+x,1/2+y,z
1/2-x,1/2-y,1/2+z
1/2+x,1/2-y,-z
1/2-x,1/2+y,1/2-z
1/2-x,1/2-y,-z
1/2+x,1/2+y,1/2-z
1/2-x,1/2+y,z
1/2+x,1/2-y,1/2+z
loop_
_atom_site_type_symbol
_atom_site_label
_atom_site_fract_x
_atom_site_fract_y
_atom_site_fract_z
Si Si1 0.686219 0.428701 0.687870
Si Si2 0.813549 0.179107 0.312610
Si Si3 0.686408 0.017765 0.085950
Si Si4 0.184693 0.733568 0.414706
Si Si5 0.811834 0.427091 0.477258
Si Si6 0.686717 0.820679 0.475223
O O1 0.734924 0.439863 0.750000
O O2 0.500000 0.429571 0.686575
O O3 0.734168 0.374855 0.676116
O O4 0.750012 0.463511 0.642662
O O5 0.767880 0.190226 0.250000
O O6 0.746578 0.213162 0.358150
O O7 0.000000 0.180648 0.314859
O O8 0.500000 0.018118 0.087826
O O9 0.736134 0.965707 0.067415
O O10 0.733892 0.052558 0.036520
O O11 0.248550 0.784475 0.430932
O O12 0.232043 0.699376 0.465044
O O13 0.000000 0.734952 0.413486
O O14 0.759382 0.374076 0.468491
O O15 0.000000 0.426533 0.477044
O O16 0.500000 0.819888 0.472596
#
# Coordination Sequence:
#
# PCOD9469686 Si02
#       6
#    16  16  16  16  16  16
#     4   9  18  31  45  64  92 121 146 176 218 266
#     4   9  18  32  48  65  88 120 151 177 215 270
#     4   9  16  28  47  69  91 115 147 185 220 255
#     4  10  19  29  45  70  93 114 146 188 227 259
#     4   8  15  28  46  67  91 119 148 180 218 259
#     4   9  17  30  46  64  91 125 152 175 215 270
#
# _framework density 15.883585
#
# number of rings (size 3 to 8) (size 9 to 14) (size 15 to 20)
#    0.000    3.000    0.000    3.500    0.000    3.333 
#    0.000    5.000    0.000    1.000    0.000    2.333 
#    0.000    0.000    0.000    0.000    0.000    0.000 
#
# Total GULP energy -267460.384169 kJ/mol
# GULP energy per Si atom -5572.091337 kJ/mol
# Density = 1.584743 g / cm^3
# Si number density = 15.883585 Si / 1000 Ang^3
#
#
#
# Elastic Constant Matrix: (Units=GPa)
#
#
# Indices 1 2 3 4 5 6 
#
# 1 9.1372 27.0025 23.3591 0.0000 0.0000 0.0000
# 2 27.0025 159.8918 93.8345 0.0000 0.0000 0.0000
# 3 23.3591 93.8345 123.0226 0.0000 0.0000 0.0000
# 4 0.0000 0.0000 0.0000 25.2949 0.0000 0.0000
# 5 0.0000 0.0000 0.0000 0.0000 24.2557 0.0000
# 6 0.0000 0.0000 0.0000 0.0000 0.0000 15.7921
#
#
#
# Elastic Compliance Matrix: (Units=1/GPa)
#
#
# Indices 1 2 3 4 5 6 
#
# 1 0.266915 -0.027760 -0.029507 0.000000 0.000000 0.000000
# 2 -0.027760 0.014210 -0.005567 0.000000 0.000000 0.000000
# 3 -0.029507 -0.005567 0.017978 0.000000 0.000000 0.000000
# 4 0.000000 0.000000 0.000000 0.039534 0.000000 0.000000
# 5 0.000000 0.000000 0.000000 0.000000 0.041227 0.000000
# 6 0.000000 0.000000 0.000000 0.000000 0.000000 0.063323
#
#
# Mechanical properties :
#
#
# Convention : Reuss Voigt Hill
#
# Bulk Modulus (GPa) = 5.76590 64.49375 35.12983
# Shear Modulus (GPa) = 7.97874 22.92558 15.45216
#
# Velocity S-wave (km/s) = 2.24369 3.80327 3.12242
# Velocity P-wave (km/s) = 3.21717 7.74459 5.92996
#
# Compressibility (1/GPa) = 0.17343336
#
# Stress axis : x y z
#
# Youngs Moduli (GPa) = 3.74652 70.37514 55.62466
#
# Poissons Ratio (x) = 1.95362 1.64132
# Poissons Ratio (y) = 0.10400 0.30968
# Poissons Ratio (z) = 0.11055 0.39180
#
# Static dielectric constant tensor:
#      x y z
#    x 1.540150 0.000000 0.000000 
#    y 0.000000 1.527890 0.000000 
#    z 0.000000 0.000000 1.512100 
# 
# From -- ./inp_files/51321.got.cif
#   From: 2010.05.17/outbox.cif.g08.bks.cpg/sg63_26_cif.got.tgz:51321.got - 2010.06.03 15:47:04.
