data_PCOD9469255
_publ_section_title
;
Structure prediction by ZEFSAII (Michael W. Deem and Ramdas Pophale) SiO2 
 PCOD9469255
Probable space group: C M C M
;
_chemical_formula_sum "Si O2"
_cell_formula_units_Z 72
_cell_length_a 21.979964
_cell_length_b 19.892578
_cell_length_c 8.917277
_cell_angle_alpha 90.000000
_cell_angle_beta 90.000000
_cell_angle_gamma 90.000000
_cell_volume 3898.973683
_symmetry_space_group_name_H-M "C M C M"
_symmetry_group_IT_number 63
_symmetry_cell_setting 'orthorhombic'
loop_
_space_group_symop_operation_xyz
x,y,z
-x,-y,1/2+z
x,-y,-z
-x,y,1/2-z
-x,-y,-z
x,y,1/2-z
-x,y,z
x,-y,1/2+z
1/2+x,1/2+y,z
1/2-x,1/2-y,1/2+z
1/2+x,1/2-y,-z
1/2-x,1/2+y,1/2-z
1/2-x,1/2-y,-z
1/2+x,1/2+y,1/2-z
1/2-x,1/2+y,z
1/2+x,1/2-y,1/2+z
loop_
_atom_site_type_symbol
_atom_site_label
_atom_site_fract_x
_atom_site_fract_y
_atom_site_fract_z
Si Si1 0.339673 0.804366 0.076471
Si Si2 0.618941 0.571934 0.424239
Si Si3 0.000000 0.075435 0.571463
Si Si4 0.695186 0.328524 0.081042
Si Si5 0.570911 0.072860 0.569540
O O1 0.356237 0.786112 0.250000
O O2 0.268083 0.822893 0.079806
O O3 0.383169 0.866214 0.029273
O O4 0.338345 0.740221 0.967403
O O5 0.628355 0.500000 0.500000
O O6 0.606060 0.563807 0.250000
O O7 0.561399 0.606207 0.506295
O O8 0.676356 0.617104 0.458996
O O9 0.000000 0.072360 0.750000
O O10 0.000000 0.000000 0.500000
O O11 0.676835 0.348364 0.250000
O O12 0.573722 0.066716 0.750000
O O13 0.500000 0.087447 0.528631
O O14 0.586876 0.000000 0.500000
#
# Coordination Sequence:
#
# PCOD9469255 Si02
#       5
#    16  16   8  16  16
#     4   9  19  36  55  76 106 143 181 222 274 330
#     4  11  21  35  54  77 106 141 180 222 268 318
#     4  10  18  32  52  74 102 134 169 210 259 308
#     4  10  20  35  54  77 106 142 182 227 273 323
#     4   9  18  34  56  81 109 140 175 221 273 330
#
# _framework density 18.466398999999999
#
# number of rings (size 3 to 8) (size 9 to 14) (size 15 to 20)
#    0.000    2.222    0.000    5.000    0.000    2.667 
#    2.000    2.222    0.000    0.000    0.000    0.000 
#    0.000    0.000    0.000    0.000    0.000    0.000 
#
# Total GULP energy -200590.596927 kJ/mol
# GULP energy per Si atom -5571.961026 kJ/mol
# Density = 1.842437 g / cm^3
# Si number density = 18.466399 Si / 1000 Ang^3
#
#
#
# Elastic Constant Matrix: (Units=GPa)
#
#
# Indices 1 2 3 4 5 6 
#
# 1 50.5068 45.3831 24.4656 0.0000 0.0000 0.0000
# 2 45.3831 81.4232 24.8136 0.0000 0.0000 0.0000
# 3 24.4656 24.8136 103.5466 0.0000 0.0000 0.0000
# 4 0.0000 0.0000 0.0000 30.1164 0.0000 0.0000
# 5 0.0000 0.0000 0.0000 0.0000 24.2031 0.0000
# 6 0.0000 0.0000 0.0000 0.0000 0.0000 34.1612
#
#
#
# Elastic Compliance Matrix: (Units=1/GPa)
#
#
# Indices 1 2 3 4 5 6 
#
# 1 0.041609 -0.021787 -0.004610 0.000000 0.000000 0.000000
# 2 -0.021787 0.024657 -0.000761 0.000000 0.000000 0.000000
# 3 -0.004610 -0.000761 0.010929 0.000000 0.000000 0.000000
# 4 0.000000 0.000000 0.000000 0.033204 0.000000 0.000000
# 5 0.000000 0.000000 0.000000 0.000000 0.041317 0.000000
# 6 0.000000 0.000000 0.000000 0.000000 0.000000 0.029273
#
#
# Mechanical properties :
#
#
# Convention : Reuss Voigt Hill
#
# Bulk Modulus (GPa) = 43.70843 47.20013 45.45428
# Shear Modulus (GPa) = 20.58187 27.08377 23.83282
#
# Velocity S-wave (km/s) = 3.34212 3.83384 3.59640
# Velocity P-wave (km/s) = 6.21398 6.72408 6.47406
#
# Compressibility (1/GPa) = 0.02287888
#
# Stress axis : x y z
#
# Youngs Moduli (GPa) = 24.03312 40.55672 91.49841
#
# Poissons Ratio (x) = 0.88360 0.42184
# Poissons Ratio (y) = 0.52361 0.06963
# Poissons Ratio (z) = 0.11080 0.03086
#
# Static dielectric constant tensor:
#      x y z
#    x 1.702810 0.000000 0.000000 
#    y 0.000000 1.640990 0.000000 
#    z 0.000000 0.000000 1.644490 
# 
# From -- ./inp_files/7815.got.cif
#   From: 2010.05.17/outbox.cif.g08.bks.cpg/sg63_4_cif.got.tgz:7815.got - 2010.06.03 15:47:04.
