data_PCOD9469459
_publ_section_title
;
Structure prediction by ZEFSAII (Michael W. Deem and Ramdas Pophale) SiO2 
 PCOD9469459
Probable space group: C M C M
;
_chemical_formula_sum "Si O2"
_cell_formula_units_Z 128
_cell_length_a 18.411863
_cell_length_b 20.867045
_cell_length_c 19.840165
_cell_angle_alpha 90.000000
_cell_angle_beta 90.000000
_cell_angle_gamma 90.000000
_cell_volume 7622.614680
_symmetry_space_group_name_H-M "C M C M"
_symmetry_group_IT_number 63
_symmetry_cell_setting 'orthorhombic'
loop_
_space_group_symop_operation_xyz
x,y,z
-x,-y,1/2+z
x,-y,-z
-x,y,1/2-z
-x,-y,-z
x,y,1/2-z
-x,y,z
x,-y,1/2+z
1/2+x,1/2+y,z
1/2-x,1/2-y,1/2+z
1/2+x,1/2-y,-z
1/2-x,1/2+y,1/2-z
1/2-x,1/2-y,-z
1/2+x,1/2+y,1/2-z
1/2-x,1/2+y,z
1/2+x,1/2-y,1/2+z
loop_
_atom_site_type_symbol
_atom_site_label
_atom_site_fract_x
_atom_site_fract_y
_atom_site_fract_z
Si Si1 0.793688 0.520230 0.389562
Si Si2 0.334628 0.323448 0.450926
Si Si3 0.192470 0.603905 0.977426
Si Si4 0.915824 0.606578 0.172482
Si Si5 0.914989 0.691934 0.043237
Si Si6 0.864154 0.977835 0.673037
Si Si7 0.414438 0.566869 0.465950
Si Si8 0.416746 0.624189 0.828085
O O1 0.809618 0.450256 0.420131
O O2 0.782322 0.567039 0.454239
O O3 0.860347 0.550864 0.348787
O O4 0.720964 0.517901 0.345288
O O5 0.250550 0.341282 0.459206
O O6 0.363867 0.253163 0.466692
O O7 0.375389 0.374532 0.498466
O O8 0.361722 0.339170 0.375718
O O9 0.115616 0.635969 0.995043
O O10 0.903422 0.625696 0.250000
O O11 0.906358 0.664314 0.119226
O O12 0.000000 0.293751 0.967665
O O13 0.000000 0.585682 0.166024
O O14 0.874591 0.955801 0.750000
O O15 0.899363 0.936412 0.613587
O O16 0.899227 0.048579 0.667152
O O17 0.387866 0.500000 0.500000
O O18 0.500000 0.570966 0.478679
O O19 0.410443 0.642582 0.750000
O O20 0.500000 0.635309 0.850121
#
# Coordination Sequence:
#
# PCOD9469459 Si02
#       8
#    16  16  16  16  16  16  16  16
#     4  10  18  34  55  81 104 137 170 218 279 327
#     4  12  20  35  54  77 107 149 190 222 265 328
#     4  10  20  34  55  78 108 136 175 221 272 323
#     4   9  19  36  57  80 106 138 179 225 277 336
#     4  10  22  36  53  79 109 143 183 230 275 319
#     4  11  20  31  48  73 106 137 171 218 268 318
#     4  11  20  31  49  73 104 142 181 222 266 317
#     4  10  20  31  46  73 108 142 177 220 268 318
#
# _framework density 16.792138000000001
#
# number of rings (size 3 to 8) (size 9 to 14) (size 15 to 20)
#    0.000    1.625    3.750    2.250    0.000    1.750 
#    0.000    3.750    0.000    0.000    0.000    1.750 
#    0.000    2.000    0.000    0.000    0.000    0.000 
#
# Total GULP energy -357119.925040 kJ/mol
# GULP energy per Si atom -5579.998829 kJ/mol
# Density = 1.675392 g / cm^3
# Si number density = 16.792138 Si / 1000 Ang^3
#
#
#
# Elastic Constant Matrix: (Units=GPa)
#
#
# Indices 1 2 3 4 5 6 
#
# 1 61.9463 26.5674 15.0471 0.0000 0.0000 0.0000
# 2 26.5674 56.2972 12.1249 0.0000 0.0000 0.0000
# 3 15.0471 12.1249 62.9829 0.0000 0.0000 0.0000
# 4 0.0000 0.0000 0.0000 14.0061 0.0000 0.0000
# 5 0.0000 0.0000 0.0000 0.0000 24.1312 0.0000
# 6 0.0000 0.0000 0.0000 0.0000 0.0000 18.4042
#
#
#
# Elastic Compliance Matrix: (Units=1/GPa)
#
#
# Indices 1 2 3 4 5 6 
#
# 1 0.020847 -0.009145 -0.003220 0.000000 0.000000 0.000000
# 2 -0.009145 0.022542 -0.002155 0.000000 0.000000 0.000000
# 3 -0.003220 -0.002155 0.017061 0.000000 0.000000 0.000000
# 4 0.000000 0.000000 0.000000 0.071398 0.000000 0.000000
# 5 0.000000 0.000000 0.000000 0.000000 0.041440 0.000000
# 6 0.000000 0.000000 0.000000 0.000000 0.000000 0.054335
#
#
# Mechanical properties :
#
#
# Convention : Reuss Voigt Hill
#
# Bulk Modulus (GPa) = 31.83511 32.07832 31.95672
# Shear Modulus (GPa) = 18.71721 19.80743 19.26232
#
# Velocity S-wave (km/s) = 3.34225 3.43821 3.39057
# Velocity P-wave (km/s) = 5.82182 5.90816 5.86515
#
# Compressibility (1/GPa) = 0.03141186
#
# Stress axis : x y z
#
# Youngs Moduli (GPa) = 47.96834 44.36082 58.61151
#
# Poissons Ratio (x) = 0.40566 0.18874
# Poissons Ratio (y) = 0.43865 0.12631
# Poissons Ratio (z) = 0.15446 0.09560
#
# Static dielectric constant tensor:
#      x y z
#    x 1.570960 0.000000 0.000000 
#    y 0.000000 1.555880 0.000000 
#    z 0.000000 0.000000 1.568660 
# 
# From -- ./inp_files/56030.got.cif
#   From: 2010.05.17/outbox.cif.g08.bks.cpg/sg63_29_cif.got.tgz:56030.got - 2010.06.03 15:47:04.
