data_PCOD9469586
_publ_section_title
;
Structure prediction by ZEFSAII (Michael W. Deem and Ramdas Pophale) SiO2 
 PCOD9469586
Probable space group: C M C M
;
_chemical_formula_sum "Si O2"
_cell_formula_units_Z 60
_cell_length_a 10.560774
_cell_length_b 21.270668
_cell_length_c 11.639858
_cell_angle_alpha 90.000000
_cell_angle_beta 90.000000
_cell_angle_gamma 90.000000
_cell_volume 2614.716214
_symmetry_space_group_name_H-M "C M C M"
_symmetry_group_IT_number 63
_symmetry_cell_setting 'orthorhombic'
loop_
_space_group_symop_operation_xyz
x,y,z
-x,-y,1/2+z
x,-y,-z
-x,y,1/2-z
-x,-y,-z
x,y,1/2-z
-x,y,z
x,-y,1/2+z
1/2+x,1/2+y,z
1/2-x,1/2-y,1/2+z
1/2+x,1/2-y,-z
1/2-x,1/2+y,1/2-z
1/2-x,1/2-y,-z
1/2+x,1/2+y,1/2-z
1/2-x,1/2+y,z
1/2+x,1/2-y,1/2+z
loop_
_atom_site_type_symbol
_atom_site_label
_atom_site_fract_x
_atom_site_fract_y
_atom_site_fract_z
Si Si1 0.855991 0.166648 0.250000
Si Si2 0.213886 0.025191 0.250000
Si Si3 0.754366 0.356839 0.511589
Si Si4 0.000000 0.170555 0.619065
Si Si5 0.267541 0.500000 0.500000
Si Si6 0.500000 0.187814 0.455837
Si Si7 0.000000 0.416309 0.750000
O O1 0.777492 0.176556 0.133895
O O2 0.000000 0.190993 0.250000
O O3 0.859580 0.090778 0.250000
O O4 0.176048 0.993401 0.129282
O O5 0.368608 0.041857 0.250000
O O6 0.625280 0.353199 0.443340
O O7 0.792375 0.430638 0.515834
O O8 0.875549 0.320183 0.467368
O O9 0.000000 0.151794 0.750000
O O10 0.000000 0.245797 0.605817
O O11 0.500000 0.131752 0.359485
#
# Coordination Sequence:
#
# PCOD9469586 Si02
#       7
#     8   8  16   8   8   8   4
#     4  10  18  38  64  90 127 165 233 268 304 395
#     4  10  22  36  61  97 132 178 217 277 335 404
#     4  11  24  43  69 100 128 177 220 279 332 397
#     4  12  28  44  64  98 141 178 216 276 339 392
#     4  10  22  40  66  98 136 172 224 278 340 406
#     4  12  22  46  71  93 131 175 238 270 323 399
#     4  12  18  38  68  94 124 178 230 266 322 404
#
# _framework density 22.947043000000001
#
# number of rings (size 3 to 8) (size 9 to 14) (size 15 to 20)
#    0.000    1.067    7.333    0.800    1.867    2.667 
#    2.400    0.667    0.000    0.000    0.000    0.000 
#    0.000    0.000    0.000    0.000    0.000    0.000 
#
# Total GULP energy -167034.619584 kJ/mol
# GULP energy per Si atom -5567.820653 kJ/mol
# Density = 2.289481 g / cm^3
# Si number density = 22.947043 Si / 1000 Ang^3
#
#
#
# Elastic Constant Matrix: (Units=GPa)
#
#
# Indices 1 2 3 4 5 6 
#
# 1 151.0425 28.1816 15.9263 0.0000 0.0000 0.0000
# 2 28.1816 68.5234 14.0272 0.0000 0.0000 0.0000
# 3 15.9263 14.0272 116.2167 0.0000 0.0000 0.0000
# 4 0.0000 0.0000 0.0000 13.3998 0.0000 0.0000
# 5 0.0000 0.0000 0.0000 0.0000 -25.5206 0.0000
# 6 0.0000 0.0000 0.0000 0.0000 0.0000 26.1973
#
#
#
# Elastic Compliance Matrix: (Units=1/GPa)
#
#
# Indices 1 2 3 4 5 6 
#
# 1 0.007218 -0.002836 -0.000647 0.000000 0.000000 0.000000
# 2 -0.002836 0.016078 -0.001552 0.000000 0.000000 0.000000
# 3 -0.000647 -0.001552 0.008881 0.000000 0.000000 0.000000
# 4 0.000000 0.000000 0.000000 0.074628 0.000000 0.000000
# 5 0.000000 0.000000 0.000000 0.000000 -0.039184 0.000000
# 6 0.000000 0.000000 0.000000 0.000000 0.000000 0.038172
#
#
# Mechanical properties :
#
#
# Convention : Reuss Voigt Hill
#
# Bulk Modulus (GPa) = 45.23552 50.22808 47.73180
# Shear Modulus (GPa) = 40.57440 21.32514 30.94977
#
# Velocity S-wave (km/s) = 4.20953 3.05178 3.67651
# Velocity P-wave (km/s) = 6.58655 5.86123 6.23445
#
# Compressibility (1/GPa) = 0.02210652
#
# Stress axis : x y z
#
# Youngs Moduli (GPa) = 138.54199 62.19810 112.60541
#
# Poissons Ratio (x) = 0.17640 0.07284
# Poissons Ratio (y) = 0.39293 0.17475
# Poissons Ratio (z) = 0.08961 0.09652
#
# Static dielectric constant tensor:
#      x y z
#    x 1.970960 0.000000 0.000000 
#    y 0.000000 1.839490 0.000000 
#    z 0.000000 0.000000 1.966720 
# 
# From -- ./inp_files/17205.got.cif
#   From: 2010.05.17/outbox.cif.g08.bks.cpg/sg63_9_cif.got.tgz:17205.got - 2010.06.03 15:47:04.
