data_PCOD9469189
_publ_section_title
;
Structure prediction by ZEFSAII (Michael W. Deem and Ramdas Pophale) SiO2 
 PCOD9469189
Probable space group: C M C M
;
_chemical_formula_sum "Si O2"
_cell_formula_units_Z 128
_cell_length_a 18.745265
_cell_length_b 15.390872
_cell_length_c 24.645018
_cell_angle_alpha 90.000000
_cell_angle_beta 90.000000
_cell_angle_gamma 90.000000
_cell_volume 7110.234928
_symmetry_space_group_name_H-M "C M C M"
_symmetry_group_IT_number 63
_symmetry_cell_setting 'orthorhombic'
loop_
_space_group_symop_operation_xyz
x,y,z
-x,-y,1/2+z
x,-y,-z
-x,y,1/2-z
-x,-y,-z
x,y,1/2-z
-x,y,z
x,-y,1/2+z
1/2+x,1/2+y,z
1/2-x,1/2-y,1/2+z
1/2+x,1/2-y,-z
1/2-x,1/2+y,1/2-z
1/2-x,1/2-y,-z
1/2+x,1/2+y,1/2-z
1/2-x,1/2+y,z
1/2+x,1/2-y,1/2+z
loop_
_atom_site_type_symbol
_atom_site_label
_atom_site_fract_x
_atom_site_fract_y
_atom_site_fract_z
Si Si1 0.580901 0.188071 0.877089
Si Si2 0.339867 0.367343 0.877747
Si Si3 0.359308 0.905880 0.019415
Si Si4 0.920246 0.015878 0.564485
Si Si5 0.735780 0.016922 0.185942
Si Si6 0.079606 0.509052 0.684929
Si Si7 0.221390 0.703442 0.445997
Si Si8 0.278528 0.613932 0.905219
O O1 0.500000 0.218776 0.873222
O O2 0.631297 0.270633 0.867945
O O3 0.594797 0.145554 0.936210
O O4 0.590183 0.107830 0.835880
O O5 0.401540 0.429536 0.900847
O O6 0.294751 0.411050 0.829546
O O7 0.280958 0.362278 0.925389
O O8 0.282485 0.913864 0.050908
O O9 0.347314 0.847735 0.966013
O O10 0.384373 0.000000 0.000000
O O11 0.000000 0.046516 0.578399
O O12 0.918629 0.000000 0.500000
O O13 0.855722 0.080203 0.577480
O O14 0.736781 0.000299 0.250000
O O15 0.653424 0.039669 0.169560
O O16 0.756805 0.932958 0.150345
O O17 0.076716 0.507620 0.750000
O O18 0.000000 0.481082 0.665025
O O19 0.250000 0.750000 0.500000
O O20 0.216307 0.781915 0.403659
#
# Coordination Sequence:
#
# PCOD9469189 Si02
#       8
#    16  16  16  16  16  16  16  16
#     4  11  22  35  53  81 114 147 178 225 285 336
#     4  11  20  35  52  78 110 143 182 232 272 331
#     4  11  20  33  54  79 107 151 188 230 272 334
#     4  10  20  31  50  76 106 141 180 228 275 326
#     4  10  20  34  57  84 109 143 189 233 279 326
#     4   9  18  35  56  78 106 141 181 225 275 328
#     4  10  18  31  55  78 103 145 190 218 273 325
#     4  10  18  35  53  76 108 146 188 232 267 331
#
# _framework density 18.002219
#
# number of rings (size 3 to 8) (size 9 to 14) (size 15 to 20)
#    0.000    1.750    3.750    3.750    0.000    0.750 
#    0.000    0.625    0.000    9.750    0.000    0.000 
#    0.000    0.000    0.000    0.000    0.000    0.000 
#
# Total GULP energy -356499.726524 kJ/mol
# GULP energy per Si atom -5570.308227 kJ/mol
# Density = 1.796124 g / cm^3
# Si number density = 18.002219 Si / 1000 Ang^3
#
#
#
# Elastic Constant Matrix: (Units=GPa)
#
#
# Indices 1 2 3 4 5 6 
#
# 1 95.0285 13.3899 25.7013 0.0000 0.0000 0.0000
# 2 13.3899 59.3842 9.4612 0.0000 0.0000 0.0000
# 3 25.7013 9.4612 49.0645 0.0000 0.0000 0.0000
# 4 0.0000 0.0000 0.0000 17.9831 0.0000 0.0000
# 5 0.0000 0.0000 0.0000 0.0000 13.1967 0.0000
# 6 0.0000 0.0000 0.0000 0.0000 0.0000 9.9251
#
#
#
# Elastic Compliance Matrix: (Units=1/GPa)
#
#
# Indices 1 2 3 4 5 6 
#
# 1 0.012449 -0.001824 -0.006169 0.000000 0.000000 0.000000
# 2 -0.001824 0.017641 -0.002446 0.000000 0.000000 0.000000
# 3 -0.006169 -0.002446 0.024085 0.000000 0.000000 0.000000
# 4 0.000000 0.000000 0.000000 0.055608 0.000000 0.000000
# 5 0.000000 0.000000 0.000000 0.000000 0.075776 0.000000
# 6 0.000000 0.000000 0.000000 0.000000 0.000000 0.100754
#
#
# Mechanical properties :
#
#
# Convention : Reuss Voigt Hill
#
# Bulk Modulus (GPa) = 30.03456 33.39800 31.71628
# Shear Modulus (GPa) = 15.70896 18.54930 17.12913
#
# Velocity S-wave (km/s) = 2.95721 3.21345 3.08799
# Velocity P-wave (km/s) = 5.32730 5.68865 5.51094
#
# Compressibility (1/GPa) = 0.03329497
#
# Stress axis : x y z
#
# Youngs Moduli (GPa) = 80.32975 56.68769 41.52020
#
# Poissons Ratio (x) = 0.10340 0.25615
# Poissons Ratio (y) = 0.14652 0.10157
# Poissons Ratio (z) = 0.49557 0.13867
#
# Static dielectric constant tensor:
#      x y z
#    x 1.647110 0.000000 0.000000 
#    y 0.000000 1.637800 0.000000 
#    z 0.000000 0.000000 1.617440 
# 
# From -- ./inp_files/64061.got.cif
#   From: 2010.05.17/outbox.cif.g08.bks.cpg/sg63_33_cif.got.tgz:64061.got - 2010.06.03 15:47:04.
