data_PCOD9469747
_publ_section_title
;
Structure prediction by ZEFSAII (Michael W. Deem and Ramdas Pophale) SiO2 
 PCOD9469747
Probable space group: C M C M
;
_chemical_formula_sum "Si O2"
_cell_formula_units_Z 112
_cell_length_a 13.861360
_cell_length_b 29.278596
_cell_length_c 15.399706
_cell_angle_alpha 90.000000
_cell_angle_beta 90.000000
_cell_angle_gamma 90.000000
_cell_volume 6249.834538
_symmetry_space_group_name_H-M "C M C M"
_symmetry_group_IT_number 63
_symmetry_cell_setting 'orthorhombic'
loop_
_space_group_symop_operation_xyz
x,y,z
-x,-y,1/2+z
x,-y,-z
-x,y,1/2-z
-x,-y,-z
x,y,1/2-z
-x,y,z
x,-y,1/2+z
1/2+x,1/2+y,z
1/2-x,1/2-y,1/2+z
1/2+x,1/2-y,-z
1/2-x,1/2+y,1/2-z
1/2-x,1/2-y,-z
1/2+x,1/2+y,1/2-z
1/2-x,1/2+y,z
1/2+x,1/2-y,1/2+z
loop_
_atom_site_type_symbol
_atom_site_label
_atom_site_fract_x
_atom_site_fract_y
_atom_site_fract_z
Si Si1 0.612309 0.988753 0.351894
Si Si2 0.616869 0.790549 0.347404
Si Si3 0.386348 0.252746 0.152371
Si Si4 0.388274 0.890447 0.104951
Si Si5 0.884816 0.793737 0.528016
Si Si6 0.253372 0.836504 0.654305
Si Si7 0.888457 0.413844 0.904243
O O1 0.615111 0.999930 0.250000
O O2 0.500000 0.983675 0.379743
O O3 0.646476 0.033593 0.402417
O O4 0.656506 0.938465 0.364311
O O5 0.646041 0.776275 0.250000
O O6 0.500000 0.792566 0.348703
O O7 0.653073 0.841777 0.366204
O O8 0.640757 0.753192 0.420018
O O9 0.372816 0.271311 0.250000
O O10 0.500000 0.241577 0.142305
O O11 0.326292 0.206244 0.144965
O O12 0.361615 0.286064 0.073020
O O13 0.500000 0.890134 0.137183
O O14 0.389669 0.893937 0.001267
O O15 0.823968 0.831964 0.577639
O O16 0.000000 0.800889 0.536403
O O17 0.207418 0.833505 0.750000
O O18 0.317518 0.881667 0.648334
O O19 0.000000 0.413206 0.872174
#
# Coordination Sequence:
#
# PCOD9469747 Si02
#       7
#    16  16  16  16  16  16  16
#     4   9  16  26  41  62  89 120 154 191 231 279
#     4   9  16  26  41  61  86 117 152 188 228 275
#     4   9  18  32  49  68  89 116 154 197 238 282
#     4   9  16  26  41  61  86 117 152 189 229 275
#     4  10  20  34  50  68  93 125 161 202 243 280
#     4  11  21  31  46  67  93 128 165 199 235 276
#     4  10  19  30  44  64  93 129 165 197 232 278
#
# _framework density 17.920473999999999
#
# number of rings (size 3 to 8) (size 9 to 14) (size 15 to 20)
#    0.000    2.429    0.000    3.429    0.000    8.000 
#    0.000    0.000    0.000    0.857    0.000    0.000 
#    0.000    2.286    0.000    0.857    0.000   23.857 
#
# Total GULP energy -312311.481200 kJ/mol
# GULP energy per Si atom -5576.990736 kJ/mol
# Density = 1.787969 g / cm^3
# Si number density = 17.920474 Si / 1000 Ang^3
#
#
#
# Elastic Constant Matrix: (Units=GPa)
#
#
# Indices 1 2 3 4 5 6 
#
# 1 53.4103 18.1263 14.2630 0.0000 0.0000 0.0000
# 2 18.1263 74.1998 20.6083 0.0000 0.0000 0.0000
# 3 14.2630 20.6083 89.0116 0.0000 0.0000 0.0000
# 4 0.0000 0.0000 0.0000 39.6587 0.0000 0.0000
# 5 0.0000 0.0000 0.0000 0.0000 9.6632 0.0000
# 6 0.0000 0.0000 0.0000 0.0000 0.0000 15.5949
#
#
#
# Elastic Compliance Matrix: (Units=1/GPa)
#
#
# Indices 1 2 3 4 5 6 
#
# 1 0.020851 -0.004452 -0.002310 0.000000 0.000000 0.000000
# 2 -0.004452 0.015354 -0.002841 0.000000 0.000000 0.000000
# 3 -0.002310 -0.002841 0.012263 0.000000 0.000000 0.000000
# 4 0.000000 0.000000 0.000000 0.025215 0.000000 0.000000
# 5 0.000000 0.000000 0.000000 0.000000 0.103485 0.000000
# 6 0.000000 0.000000 0.000000 0.000000 0.000000 0.064124
#
#
# Mechanical properties :
#
#
# Convention : Reuss Voigt Hill
#
# Bulk Modulus (GPa) = 34.17660 35.84633 35.01147
# Shear Modulus (GPa) = 18.50126 23.89164 21.19645
#
# Velocity S-wave (km/s) = 3.21660 3.65527 3.44293
# Velocity P-wave (km/s) = 5.73655 6.15313 5.94849
#
# Compressibility (1/GPa) = 0.02925978
#
# Stress axis : x y z
#
# Youngs Moduli (GPa) = 47.95963 65.13011 81.54912
#
# Poissons Ratio (x) = 0.28996 0.18841
# Poissons Ratio (y) = 0.21352 0.23171
# Poissons Ratio (z) = 0.11080 0.18506
#
# Static dielectric constant tensor:
#      x y z
#    x 1.620790 0.000000 0.000000 
#    y 0.000000 1.627580 0.000000 
#    z 0.000000 0.000000 1.665780 
# 
# From -- ./inp_files/32592.got.cif
#   From: 2010.05.17/outbox.cif.g08.bks.cpg/sg63_17_cif.got.tgz:32592.got - 2010.06.03 15:47:04.
