data_PCOD9469902
_publ_section_title
;
Structure prediction by ZEFSAII (Michael W. Deem and Ramdas Pophale) SiO2 
 PCOD9469902
Probable space group: C M C M
;
_chemical_formula_sum "Si O2"
_cell_formula_units_Z 80
_cell_length_a 14.623383
_cell_length_b 11.774851
_cell_length_c 24.333988
_cell_angle_alpha 90.000000
_cell_angle_beta 90.000000
_cell_angle_gamma 90.000000
_cell_volume 4190.024520
_symmetry_space_group_name_H-M "C M C M"
_symmetry_group_IT_number 63
_symmetry_cell_setting 'orthorhombic'
loop_
_space_group_symop_operation_xyz
x,y,z
-x,-y,1/2+z
x,-y,-z
-x,y,1/2-z
-x,-y,-z
x,y,1/2-z
-x,y,z
x,-y,1/2+z
1/2+x,1/2+y,z
1/2-x,1/2-y,1/2+z
1/2+x,1/2-y,-z
1/2-x,1/2+y,1/2-z
1/2-x,1/2-y,-z
1/2+x,1/2+y,1/2-z
1/2-x,1/2+y,z
1/2+x,1/2-y,1/2+z
loop_
_atom_site_type_symbol
_atom_site_label
_atom_site_fract_x
_atom_site_fract_y
_atom_site_fract_z
Si Si1 0.899326 0.929973 0.942507
Si Si2 0.602197 0.775186 0.605398
Si Si3 0.896094 0.511606 0.315016
Si Si4 0.653358 0.806938 0.485795
Si Si5 0.751225 0.575137 0.892748
O O1 0.897428 0.796786 0.955848
O O2 0.000000 0.958893 0.920262
O O3 0.814230 0.967944 0.905374
O O4 0.888845 0.000000 0.000000
O O5 0.500000 0.725151 0.609578
O O6 0.611831 0.870383 0.651724
O O7 0.609302 0.830896 0.544627
O O8 0.680427 0.680152 0.609958
O O9 0.886388 0.527448 0.250000
O O10 0.815107 0.436091 0.339958
O O11 0.000000 0.468054 0.325398
O O12 0.750000 0.750000 0.500000
O O13 0.679316 0.905710 0.443820
#
# Coordination Sequence:
#
# PCOD9469902 Si02
#       5
#    16  16  16  16  16
#     4  11  20  32  53  84 124 153 172 213 274 336
#     4  10  20  35  57  83 113 145 181 224 271 333
#     4  10  24  43  58  76 105 145 192 242 288 321
#     4  10  19  30  50  86 118 145 178 215 266 331
#     4  11  21  35  59  84 113 147 189 224 272 338
#
# _framework density 19.092966000000001
#
# number of rings (size 3 to 8) (size 9 to 14) (size 15 to 20)
#    0.000    1.600    4.000    3.600    0.000    2.400 
#    0.000    2.000    0.000    1.800    0.000    0.000 
#    0.000    0.000    0.000    0.000    0.000    0.000 
#
# Total GULP energy -223177.805615 kJ/mol
# GULP energy per Si atom -5579.445140 kJ/mol
# Density = 1.904951 g / cm^3
# Si number density = 19.092966 Si / 1000 Ang^3
#
#
#
# Elastic Constant Matrix: (Units=GPa)
#
#
# Indices 1 2 3 4 5 6 
#
# 1 136.9034 40.8961 60.5295 0.0000 0.0000 0.0000
# 2 40.8961 55.3468 23.9391 0.0000 0.0000 0.0000
# 3 60.5295 23.9391 101.1513 0.0000 0.0000 0.0000
# 4 0.0000 0.0000 0.0000 19.3843 0.0000 0.0000
# 5 0.0000 0.0000 0.0000 0.0000 29.7750 0.0000
# 6 0.0000 0.0000 0.0000 0.0000 0.0000 25.4199
#
#
#
# Elastic Compliance Matrix: (Units=1/GPa)
#
#
# Indices 1 2 3 4 5 6 
#
# 1 0.011565 -0.006185 -0.005456 0.000000 0.000000 0.000000
# 2 -0.006185 0.023436 -0.001845 0.000000 0.000000 0.000000
# 3 -0.005456 -0.001845 0.013588 0.000000 0.000000 0.000000
# 4 0.000000 0.000000 0.000000 0.051588 0.000000 0.000000
# 5 0.000000 0.000000 0.000000 0.000000 0.033585 0.000000
# 6 0.000000 0.000000 0.000000 0.000000 0.000000 0.039339
#
#
# Mechanical properties :
#
#
# Convention : Reuss Voigt Hill
#
# Bulk Modulus (GPa) = 46.26411 60.45899 53.36155
# Shear Modulus (GPa) = 24.12193 26.11830 25.12012
#
# Velocity S-wave (km/s) = 3.55828 3.70260 3.63116
# Velocity P-wave (km/s) = 6.41603 7.07201 6.75199
#
# Compressibility (1/GPa) = 0.02161503
#
# Stress axis : x y z
#
# Youngs Moduli (GPa) = 86.47144 42.66901 73.59370
#
# Poissons Ratio (x) = 0.26391 0.40156
# Poissons Ratio (y) = 0.53483 0.13581
# Poissons Ratio (z) = 0.47183 0.07874
#
# Static dielectric constant tensor:
#      x y z
#    x 1.232880 0.000000 0.000000 
#    y 0.000000 1.736260 0.000000 
#    z 0.000000 0.000000 1.641740 
# 
# From -- ./inp_files/62567.got.cif
#   From: 2010.05.17/outbox.cif.g08.bks.cpg/sg63_32_cif.got.tgz:62567.got - 2010.06.03 15:47:04.
