data_PCOD9469102
_publ_section_title
;
Structure prediction by ZEFSAII (Michael W. Deem and Ramdas Pophale) SiO2 
 PCOD9469102
Probable space group: C M C M
;
_chemical_formula_sum "Si O2"
_cell_formula_units_Z 80
_cell_length_a 17.359060
_cell_length_b 28.820318
_cell_length_c 8.492908
_cell_angle_alpha 90.000000
_cell_angle_beta 90.000000
_cell_angle_gamma 90.000000
_cell_volume 4248.947767
_symmetry_space_group_name_H-M "C M C M"
_symmetry_group_IT_number 63
_symmetry_cell_setting 'orthorhombic'
loop_
_space_group_symop_operation_xyz
x,y,z
-x,-y,1/2+z
x,-y,-z
-x,y,1/2-z
-x,-y,-z
x,y,1/2-z
-x,y,z
x,-y,1/2+z
1/2+x,1/2+y,z
1/2-x,1/2-y,1/2+z
1/2+x,1/2-y,-z
1/2-x,1/2+y,1/2-z
1/2-x,1/2-y,-z
1/2+x,1/2+y,1/2-z
1/2-x,1/2+y,z
1/2+x,1/2-y,1/2+z
loop_
_atom_site_type_symbol
_atom_site_label
_atom_site_fract_x
_atom_site_fract_y
_atom_site_fract_z
Si Si1 0.587249 0.318285 0.061587
Si Si2 0.000000 0.657469 0.922589
Si Si3 0.851155 0.277542 0.068730
Si Si4 0.331213 0.951276 0.062239
Si Si5 0.000000 0.564675 0.428283
Si Si6 0.758506 0.141368 0.557149
O O1 0.582260 0.322260 0.250000
O O2 0.500000 0.322286 0.997386
O O3 0.652265 0.354961 0.008566
O O4 0.623019 0.268017 0.022695
O O5 0.074629 0.689143 0.928302
O O6 0.000000 0.633002 0.750000
O O7 0.000000 0.620336 0.059206
O O8 0.832758 0.264701 0.250000
O O9 0.784199 0.311137 0.004744
O O10 0.328159 0.951273 0.250000
O O11 0.286371 0.904963 0.005714
O O12 0.420235 0.949026 0.009557
O O13 0.298521 0.000000 0.000000
O O14 0.000000 0.547601 0.250000
O O15 0.754404 0.142069 0.750000
#
# Coordination Sequence:
#
# PCOD9469102 Si02
#       6
#    16   8  16  16   8  16
#     4  10  20  33  51  78 107 135 172 219 263 306
#     4  10  18  31  51  74 106 150 180 207 254 303
#     4  10  18  32  52  73 102 143 181 207 252 310
#     4  11  22  39  58  77 104 138 176 216 259 312
#     4  12  23  35  54  82 111 140 176 213 255 303
#     4   9  19  35  54  74 102 140 175 211 260 314
#
# _framework density 18.828189999999999
#
# number of rings (size 3 to 8) (size 9 to 14) (size 15 to 20)
#    0.000    1.800    3.000    2.400    0.000    0.800 
#    0.000    2.000    0.000    0.600    0.000    0.000 
#    0.000    0.000    0.000    0.000    0.000    0.200 
#
# Total GULP energy -223143.853772 kJ/mol
# GULP energy per Si atom -5578.596344 kJ/mol
# Density = 1.878534 g / cm^3
# Si number density = 18.828190 Si / 1000 Ang^3
#
#
#
# Elastic Constant Matrix: (Units=GPa)
#
#
# Indices 1 2 3 4 5 6 
#
# 1 153.1136 63.8054 15.2427 0.0000 0.0000 0.0000
# 2 63.8054 81.5498 9.5380 0.0000 0.0000 0.0000
# 3 15.2427 9.5380 23.2485 0.0000 0.0000 0.0000
# 4 0.0000 0.0000 0.0000 22.9147 0.0000 0.0000
# 5 0.0000 0.0000 0.0000 0.0000 22.1724 0.0000
# 6 0.0000 0.0000 0.0000 0.0000 0.0000 2.8333
#
#
#
# Elastic Compliance Matrix: (Units=1/GPa)
#
#
# Indices 1 2 3 4 5 6 
#
# 1 0.009955 -0.007379 -0.003499 0.000000 0.000000 0.000000
# 2 -0.007379 0.018351 -0.002691 0.000000 0.000000 0.000000
# 3 -0.003499 -0.002691 0.046412 0.000000 0.000000 0.000000
# 4 0.000000 0.000000 0.000000 0.043640 0.000000 0.000000
# 5 0.000000 0.000000 0.000000 0.000000 0.045101 0.000000
# 6 0.000000 0.000000 0.000000 0.000000 0.000000 0.352942
#
#
# Mechanical properties :
#
#
# Convention : Reuss Voigt Hill
#
# Bulk Modulus (GPa) = 21.01767 48.34267 34.68017
# Shear Modulus (GPa) = 8.93818 20.87246 14.90532
#
# Velocity S-wave (km/s) = 2.18118 3.33314 2.81668
# Velocity P-wave (km/s) = 4.18694 6.36746 5.38865
#
# Compressibility (1/GPa) = 0.04757901
#
# Stress axis : x y z
#
# Youngs Moduli (GPa) = 100.45682 54.49370 21.54634
#
# Poissons Ratio (x) = 0.40212 0.07539
# Poissons Ratio (y) = 0.74130 0.05797
# Poissons Ratio (z) = 0.35151 0.14662
#
# Static dielectric constant tensor:
#      x y z
#    x 1.684300 0.000000 0.000000 
#    y 0.000000 1.658210 0.000000 
#    z 0.000000 0.000000 1.685790 
# 
# From -- ./inp_files/6533.got.cif
#   From: 2010.05.17/outbox.cif.g08.bks.cpg/sg63_4_cif.got.tgz:6533.got - 2010.06.03 15:47:04.
