data_PCOD9469376
_publ_section_title
;
Structure prediction by ZEFSAII (Michael W. Deem and Ramdas Pophale) SiO2 
 PCOD9469376
Probable space group: C M C M
;
_chemical_formula_sum "Si O2"
_cell_formula_units_Z 116
_cell_length_a 17.725678
_cell_length_b 22.731381
_cell_length_c 14.595639
_cell_angle_alpha 90.000000
_cell_angle_beta 90.000000
_cell_angle_gamma 90.000000
_cell_volume 5881.008271
_symmetry_space_group_name_H-M "C M C M"
_symmetry_group_IT_number 63
_symmetry_cell_setting 'orthorhombic'
loop_
_space_group_symop_operation_xyz
x,y,z
-x,-y,1/2+z
x,-y,-z
-x,y,1/2-z
-x,-y,-z
x,y,1/2-z
-x,y,z
x,-y,1/2+z
1/2+x,1/2+y,z
1/2-x,1/2-y,1/2+z
1/2+x,1/2-y,-z
1/2-x,1/2+y,1/2-z
1/2-x,1/2-y,-z
1/2+x,1/2+y,1/2-z
1/2-x,1/2+y,z
1/2+x,1/2-y,1/2+z
loop_
_atom_site_type_symbol
_atom_site_label
_atom_site_fract_x
_atom_site_fract_y
_atom_site_fract_z
Si Si1 0.612882 0.372270 0.897917
Si Si2 0.083960 0.008805 0.639931
Si Si3 0.770112 0.683055 0.358616
Si Si4 0.791227 0.904613 0.149124
Si Si5 0.182472 0.304556 0.360448
Si Si6 0.584927 0.193805 0.468311
Si Si7 0.000000 0.825299 0.750000
Si Si8 0.419357 0.326220 0.400922
O O1 0.593272 0.439605 0.876138
O O2 0.700801 0.359527 0.883007
O O3 0.565659 0.331769 0.829085
O O4 0.589660 0.355599 0.999758
O O5 0.083279 0.018670 0.750000
O O6 0.157210 0.044408 0.603856
O O7 0.000000 0.025965 0.605141
O O8 0.784789 0.681937 0.250000
O O9 0.737548 0.748882 0.381406
O O10 0.844534 0.665553 0.414818
O O11 0.768741 0.926399 0.250000
O O12 0.720785 0.867281 0.112414
O O13 0.851951 0.852077 0.156349
O O14 0.168969 0.304179 0.250000
O O15 0.110220 0.298422 0.425963
O O16 0.500000 0.168879 0.461923
O O17 0.583302 0.257442 0.419701
O O18 0.500000 0.341368 0.359959
#
# Coordination Sequence:
#
# PCOD9469376 Si02
#       8
#    16  16  16  16  16  16   4  16
#     4  12  20  34  56  80 116 146 182 224 270 321
#     4  10  18  33  52  78 113 149 182 215 257 323
#     4  11  21  35  57  81 110 149 184 231 283 331
#     4  10  21  35  53  72 106 150 184 218 261 319
#     4  10  20  37  55  80 107 140 187 232 280 336
#     4  11  23  38  55  78 110 145 187 238 281 331
#     4  12  20  36  52  86 112 152 180 220 266 328
#     4  11  21  32  48  75 105 141 185 222 262 315
#
# _framework density 19.724509999999999
#
# number of rings (size 3 to 8) (size 9 to 14) (size 15 to 20)
#    0.000    1.241    5.517    1.655    0.000    1.931 
#    0.000    2.759    0.000    0.000    0.000    1.931 
#    0.000    3.310    0.000    0.000    0.000    0.000 
#
# Total GULP energy -323024.626742 kJ/mol
# GULP energy per Si atom -5569.390116 kJ/mol
# Density = 1.967962 g / cm^3
# Si number density = 19.724510 Si / 1000 Ang^3
#
#
#
# Elastic Constant Matrix: (Units=GPa)
#
#
# Indices 1 2 3 4 5 6 
#
# 1 132.1740 14.0950 27.4591 0.0000 0.0000 0.0000
# 2 14.0950 46.9812 -9.7144 0.0000 0.0000 0.0000
# 3 27.4591 -9.7144 84.1218 0.0000 0.0000 0.0000
# 4 0.0000 0.0000 0.0000 14.7539 0.0000 0.0000
# 5 0.0000 0.0000 0.0000 0.0000 17.7757 0.0000
# 6 0.0000 0.0000 0.0000 0.0000 0.0000 36.2105
#
#
#
# Elastic Compliance Matrix: (Units=1/GPa)
#
#
# Indices 1 2 3 4 5 6 
#
# 1 0.008568 -0.003226 -0.003169 0.000000 0.000000 0.000000
# 2 -0.003226 0.023020 0.003711 0.000000 0.000000 0.000000
# 3 -0.003169 0.003711 0.013351 0.000000 0.000000 0.000000
# 4 0.000000 0.000000 0.000000 0.067778 0.000000 0.000000
# 5 0.000000 0.000000 0.000000 0.000000 0.056257 0.000000
# 6 0.000000 0.000000 0.000000 0.000000 0.000000 0.027616
#
#
# Mechanical properties :
#
#
# Convention : Reuss Voigt Hill
#
# Bulk Modulus (GPa) = 25.27074 36.32849 30.79962
# Shear Modulus (GPa) = 23.23972 29.17718 26.20845
#
# Velocity S-wave (km/s) = 3.43624 3.85025 3.64912
# Velocity P-wave (km/s) = 5.34634 6.18255 5.77958
#
# Compressibility (1/GPa) = 0.03957145
#
# Stress axis : x y z
#
# Youngs Moduli (GPa) = 116.71013 43.43983 74.90258
#
# Poissons Ratio (x) = 0.14013 0.23740
# Poissons Ratio (y) = 0.37650 -0.27799
# Poissons Ratio (z) = 0.36990 -0.16122
#
# Static dielectric constant tensor:
#      x y z
#    x 1.844630 0.000000 0.000000 
#    y 0.000000 1.725050 0.000000 
#    z 0.000000 0.000000 1.736480 
# 
# From -- ./inp_files/34393.got.cif
#   From: 2010.05.17/outbox.cif.g08.bks.cpg/sg63_18_cif.got.tgz:34393.got - 2010.06.03 15:47:04.
