data_PCOD9469150
_publ_section_title
;
Structure prediction by ZEFSAII (Michael W. Deem and Ramdas Pophale) SiO2 
 PCOD9469150
Probable space group: C M C M
;
_chemical_formula_sum "Si O2"
_cell_formula_units_Z 104
_cell_length_a 14.739905
_cell_length_b 15.058681
_cell_length_c 20.273686
_cell_angle_alpha 90.000000
_cell_angle_beta 90.000000
_cell_angle_gamma 90.000000
_cell_volume 4500.018857
_symmetry_space_group_name_H-M "C M C M"
_symmetry_group_IT_number 63
_symmetry_cell_setting 'orthorhombic'
loop_
_space_group_symop_operation_xyz
x,y,z
-x,-y,1/2+z
x,-y,-z
-x,y,1/2-z
-x,-y,-z
x,y,1/2-z
-x,y,z
x,-y,1/2+z
1/2+x,1/2+y,z
1/2-x,1/2-y,1/2+z
1/2+x,1/2-y,-z
1/2-x,1/2+y,1/2-z
1/2-x,1/2-y,-z
1/2+x,1/2+y,1/2-z
1/2-x,1/2+y,z
1/2+x,1/2-y,1/2+z
loop_
_atom_site_type_symbol
_atom_site_label
_atom_site_fract_x
_atom_site_fract_y
_atom_site_fract_z
Si Si1 0.095970 0.356773 0.352611
Si Si2 0.143282 0.029329 0.106702
Si Si3 0.160020 0.961362 0.750000
Si Si4 0.751197 0.657108 0.750000
Si Si5 0.863685 0.336294 0.503214
Si Si6 0.361279 0.055787 0.374408
Si Si7 0.147429 0.139104 0.981676
Si Si8 0.665598 0.164502 0.250000
O O1 0.184010 0.326158 0.312998
O O2 0.099681 0.336287 0.429690
O O3 0.099695 0.463427 0.349848
O O4 0.000000 0.323982 0.325625
O O5 0.108189 0.041528 0.180588
O O6 0.252825 0.040059 0.115230
O O7 0.127012 0.932787 0.074611
O O8 0.112837 0.099973 0.051539
O O9 0.233474 0.881223 0.750000
O O10 0.214214 0.056468 0.750000
O O11 0.673748 0.730300 0.750000
O O12 0.895206 0.409706 0.555128
O O13 0.881895 0.238890 0.532426
O O14 0.756206 0.353556 0.492015
O O15 0.376551 0.127221 0.317143
#
# Coordination Sequence:
#
# PCOD9469150 Si02
#       8
#    16  16   8   8  16  16  16   8
#     4  12  24  39  55  79 121 166 194 221 277 362
#     4   9  16  29  47  73 108 142 168 228 291 354
#     4  10  18  31  52  80 115 136 180 230 293 349
#     4  12  23  37  57  80 117 156 190 236 289 347
#     4  10  20  30  51  78 104 149 195 238 279 332
#     4  10  19  35  51  79 112 148 193 237 288 340
#     4   9  17  29  48  74 112 138 182 233 301 335
#     4  10  22  34  56  82 118 150 184 248 298 344
#
# _framework density 23.111014000000001
#
# number of rings (size 3 to 8) (size 9 to 14) (size 15 to 20)
#    0.000    1.846    4.615    0.692   10.769    1.231 
#    0.000    0.000    0.000    0.000    0.000    2.154 
#    0.000    2.462    0.000    0.000    0.000    0.000 
#
# Total GULP energy -290579.946633 kJ/mol
# GULP energy per Si atom -5588.075897 kJ/mol
# Density = 2.305841 g / cm^3
# Si number density = 23.111014 Si / 1000 Ang^3
#
#
#
# Elastic Constant Matrix: (Units=GPa)
#
#
# Indices 1 2 3 4 5 6 
#
# 1 50.5669 -12.0808 -2.8229 0.0000 0.0000 0.0000
# 2 -12.0808 60.6464 2.9835 0.0000 0.0000 0.0000
# 3 -2.8229 2.9835 150.2057 0.0000 0.0000 0.0000
# 4 0.0000 0.0000 0.0000 22.2340 0.0000 0.0000
# 5 0.0000 0.0000 0.0000 0.0000 -60.8166 0.0000
# 6 0.0000 0.0000 0.0000 0.0000 0.0000 -13.8134
#
#
#
# Elastic Compliance Matrix: (Units=1/GPa)
#
#
# Indices 1 2 3 4 5 6 
#
# 1 0.020778 0.004124 0.000309 0.000000 0.000000 0.000000
# 2 0.004124 0.017324 -0.000267 0.000000 0.000000 0.000000
# 3 0.000309 -0.000267 0.006669 0.000000 0.000000 0.000000
# 4 0.000000 0.000000 0.000000 0.044976 0.000000 0.000000
# 5 0.000000 0.000000 0.000000 0.000000 -0.016443 0.000000
# 6 0.000000 0.000000 0.000000 0.000000 0.000000 -0.072393
#
#
# Mechanical properties :
#
#
# Convention : Reuss Voigt Hill
#
# Bulk Modulus (GPa) = 18.83159 26.39760 22.61460
# Shear Modulus (GPa) = 486.40788 7.74341 247.07564
#
# Velocity S-wave (km/s) = 14.52318 1.83243 10.35086
# Velocity P-wave (km/s) = 17.01165 3.99048 12.35557
#
# Compressibility (1/GPa) = 0.05310225
#
# Stress axis : x y z
#
# Youngs Moduli (GPa) = 48.12726 57.72464 149.95578
#
# Poissons Ratio (x) = -0.23805 -0.04627
# Poissons Ratio (y) = -0.19847 0.03998
# Poissons Ratio (z) = -0.01485 0.01539
#
# Static dielectric constant tensor:
#      x y z
#    x 1.916900 0.000000 0.000000 
#    y 0.000000 1.822230 0.000000 
#    z 0.000000 0.000000 1.862140 
# 
# From -- ./inp_files/55661.got.cif
#   From: 2010.05.17/outbox.cif.g08.bks.cpg/sg63_28_cif.got.tgz:55661.got - 2010.06.03 15:47:04.
