data_PCOD9469176
_publ_section_title
;
Structure prediction by ZEFSAII (Michael W. Deem and Ramdas Pophale) SiO2 
 PCOD9469176
Probable space group: C M C M
;
_chemical_formula_sum "Si O2"
_cell_formula_units_Z 64
_cell_length_a 19.875446
_cell_length_b 10.751839
_cell_length_c 14.988481
_cell_angle_alpha 90.000000
_cell_angle_beta 90.000000
_cell_angle_gamma 90.000000
_cell_volume 3203.002349
_symmetry_space_group_name_H-M "C M C M"
_symmetry_group_IT_number 63
_symmetry_cell_setting 'orthorhombic'
loop_
_space_group_symop_operation_xyz
x,y,z
-x,-y,1/2+z
x,-y,-z
-x,y,1/2-z
-x,-y,-z
x,y,1/2-z
-x,y,z
x,-y,1/2+z
1/2+x,1/2+y,z
1/2-x,1/2-y,1/2+z
1/2+x,1/2-y,-z
1/2-x,1/2+y,1/2-z
1/2-x,1/2-y,-z
1/2+x,1/2+y,1/2-z
1/2-x,1/2+y,z
1/2+x,1/2-y,1/2+z
loop_
_atom_site_type_symbol
_atom_site_label
_atom_site_fract_x
_atom_site_fract_y
_atom_site_fract_z
Si Si1 0.787718 0.265443 0.096203
Si Si2 0.421575 0.853230 0.013601
Si Si3 0.577130 0.667144 0.648775
Si Si4 0.297794 0.507046 0.608139
O O1 0.751956 0.384060 0.139361
O O2 0.782012 0.131056 0.141179
O O3 0.750000 0.250000 0.000000
O O4 0.865630 0.297547 0.078962
O O5 0.500000 0.837737 0.040311
O O6 0.411267 0.777543 0.921547
O O7 0.409033 0.000000 0.000000
O O8 0.586198 0.711821 0.750000
O O9 0.500000 0.625878 0.637952
O O10 0.628141 0.555351 0.631084
O O11 0.293534 0.500000 0.500000
#
# Coordination Sequence:
#
# PCOD9469176 Si02
#       4
#    16  16  16  16
#     4  10  18  31  54  80 111 138 184 235 272 317
#     4  10  19  32  55  84 111 148 195 234 281 343
#     4  10  21  36  54  81 116 148 183 234 290 339
#     4  10  19  33  56  81 109 148 185 229 275 329
#
# _framework density 19.981252999999999
#
# number of rings (size 3 to 8) (size 9 to 14) (size 15 to 20)
#    0.000    2.000    5.000    2.250    0.000    1.500 
#    0.000    1.250    0.000    1.500    0.000    3.500 
#    0.000    0.000    0.000    0.000    0.000    0.000 
#
# Total GULP energy -178529.513024 kJ/mol
# GULP energy per Si atom -5579.047282 kJ/mol
# Density = 1.993577 g / cm^3
# Si number density = 19.981253 Si / 1000 Ang^3
#
#
#
# Elastic Constant Matrix: (Units=GPa)
#
#
# Indices 1 2 3 4 5 6 
#
# 1 98.9011 86.7980 22.2905 0.0000 0.0000 0.0000
# 2 86.7980 197.1342 26.3111 0.0000 0.0000 0.0000
# 3 22.2905 26.3111 37.4511 0.0000 0.0000 0.0000
# 4 0.0000 0.0000 0.0000 -3.0994 0.0000 0.0000
# 5 0.0000 0.0000 0.0000 0.0000 6.9854 0.0000
# 6 0.0000 0.0000 0.0000 0.0000 0.0000 36.6700
#
#
#
# Elastic Compliance Matrix: (Units=1/GPa)
#
#
# Indices 1 2 3 4 5 6 
#
# 1 0.017450 -0.006948 -0.005504 0.000000 0.000000 0.000000
# 2 -0.006948 0.008364 -0.001741 0.000000 0.000000 0.000000
# 3 -0.005504 -0.001741 0.031201 0.000000 0.000000 0.000000
# 4 0.000000 0.000000 0.000000 -0.322641 0.000000 0.000000
# 5 0.000000 0.000000 0.000000 0.000000 0.143156 0.000000
# 6 0.000000 0.000000 0.000000 0.000000 0.000000 0.027270
#
#
# Mechanical properties :
#
#
# Convention : Reuss Voigt Hill
#
# Bulk Modulus (GPa) = 34.93118 67.14285 51.03702
# Shear Modulus (GPa) = -87.30627 21.31699 -32.99464
#
# Velocity S-wave (km/s) = -6.61732 3.26981 -4.06800
# Velocity P-wave (km/s) = 6.39260 6.92325 1.87964
#
# Compressibility (1/GPa) = 0.02862771
#
# Stress axis : x y z
#
# Youngs Moduli (GPa) = 57.30711 119.55377 32.05075
#
# Poissons Ratio (x) = 0.83072 0.17642
# Poissons Ratio (y) = 0.39820 0.05579
# Poissons Ratio (z) = 0.31544 0.20811
#
# Static dielectric constant tensor:
#      x y z
#    x 1.712610 0.000000 0.000000 
#    y 0.000000 1.714650 0.000000 
#    z 0.000000 0.000000 1.685020 
# 
# From -- ./inp_files/33357.got.cif
#   From: 2010.05.17/outbox.cif.g08.bks.cpg/sg63_17_cif.got.tgz:33357.got - 2010.06.03 15:47:04.
