data_PCOD9469293
_publ_section_title
;
Structure prediction by ZEFSAII (Michael W. Deem and Ramdas Pophale) SiO2 
 PCOD9469293
Probable space group: C M C M
;
_chemical_formula_sum "Si O2"
_cell_formula_units_Z 80
_cell_length_a 17.192809
_cell_length_b 29.654686
_cell_length_c 8.351346
_cell_angle_alpha 90.000000
_cell_angle_beta 90.000000
_cell_angle_gamma 90.000000
_cell_volume 4257.911647
_symmetry_space_group_name_H-M "C M C M"
_symmetry_group_IT_number 63
_symmetry_cell_setting 'orthorhombic'
loop_
_space_group_symop_operation_xyz
x,y,z
-x,-y,1/2+z
x,-y,-z
-x,y,1/2-z
-x,-y,-z
x,y,1/2-z
-x,y,z
x,-y,1/2+z
1/2+x,1/2+y,z
1/2-x,1/2-y,1/2+z
1/2+x,1/2-y,-z
1/2-x,1/2+y,1/2-z
1/2-x,1/2-y,-z
1/2+x,1/2+y,1/2-z
1/2-x,1/2+y,z
1/2+x,1/2-y,1/2+z
loop_
_atom_site_type_symbol
_atom_site_label
_atom_site_fract_x
_atom_site_fract_y
_atom_site_fract_z
Si Si1 0.262995 0.637450 0.056111
Si Si2 0.500000 0.166326 0.443596
Si Si3 0.089695 0.186014 0.057524
Si Si4 0.000000 0.434938 0.557495
Si Si5 0.673292 0.047596 0.559951
Si Si6 0.652742 0.219147 0.443132
O O1 0.258671 0.636408 0.250000
O O2 0.353109 0.645004 0.007400
O O3 0.218662 0.683633 0.004411
O O4 0.219155 0.592415 0.997980
O O5 0.500000 0.163714 0.250000
O O6 0.500000 0.116203 0.503585
O O7 0.575335 0.192826 0.490886
O O8 0.085096 0.184713 0.250000
O O9 0.000000 0.186185 0.995983
O O10 0.136432 0.231534 0.012223
O O11 0.083649 0.452154 0.500220
O O12 0.000000 0.437762 0.750000
O O13 0.672659 0.047841 0.750000
O O14 0.708282 0.000000 0.500000
O O15 0.658660 0.223529 0.250000
#
# Coordination Sequence:
#
# PCOD9469293 Si02
#       6
#    16   8  16   8  16  16
#     4  10  21  38  57  78 110 150 189 231 284 336
#     4   9  16  28  50  77 109 150 185 217 264 313
#     4  10  21  35  53  81 114 147 185 234 286 334
#     4  11  20  38  61  83 118 156 190 223 269 323
#     4  12  25  40  59  85 113 144 186 231 279 330
#     4  10  18  32  53  77 108 151 192 225 270 325
#
# _framework density 18.788553
#
# number of rings (size 3 to 8) (size 9 to 14) (size 15 to 20)
#    0.000    1.600    3.000    3.000    0.000    1.600 
#    0.000    0.000    0.000    0.600    0.000    0.000 
#    0.000    0.000    0.000    0.000    0.000    0.000 
#
# Total GULP energy -222911.073007 kJ/mol
# GULP energy per Si atom -5572.776825 kJ/mol
# Density = 1.874579 g / cm^3
# Si number density = 18.788553 Si / 1000 Ang^3
#
#
#
# Elastic Constant Matrix: (Units=GPa)
#
#
# Indices 1 2 3 4 5 6 
#
# 1 131.3211 96.5536 30.1128 0.0000 0.0000 0.0000
# 2 96.5536 125.6382 18.7617 0.0000 0.0000 0.0000
# 3 30.1128 18.7617 40.2142 0.0000 0.0000 0.0000
# 4 0.0000 0.0000 0.0000 16.0315 0.0000 0.0000
# 5 0.0000 0.0000 0.0000 0.0000 16.2088 0.0000
# 6 0.0000 0.0000 0.0000 0.0000 0.0000 25.2575
#
#
#
# Elastic Compliance Matrix: (Units=1/GPa)
#
#
# Indices 1 2 3 4 5 6 
#
# 1 0.019788 -0.013968 -0.008301 0.000000 0.000000 0.000000
# 2 -0.013968 0.018415 0.001868 0.000000 0.000000 0.000000
# 3 -0.008301 0.001868 0.030211 0.000000 0.000000 0.000000
# 4 0.000000 0.000000 0.000000 0.062377 0.000000 0.000000
# 5 0.000000 0.000000 0.000000 0.000000 0.061695 0.000000
# 6 0.000000 0.000000 0.000000 0.000000 0.000000 0.039592
#
#
# Mechanical properties :
#
#
# Convention : Reuss Voigt Hill
#
# Bulk Modulus (GPa) = 36.21557 65.33663 50.77610
# Shear Modulus (GPa) = 17.72523 21.61593 19.67058
#
# Velocity S-wave (km/s) = 3.07482 3.39556 3.23916
# Velocity P-wave (km/s) = 5.65007 7.08684 6.40884
#
# Compressibility (1/GPa) = 0.02761243
#
# Stress axis : x y z
#
# Youngs Moduli (GPa) = 50.53552 54.30469 33.10027
#
# Poissons Ratio (x) = 0.75851 0.27477
# Poissons Ratio (y) = 0.70586 -0.06183
# Poissons Ratio (z) = 0.41949 -0.10143
#
# Static dielectric constant tensor:
#      x y z
#    x 1.673840 0.000000 0.000000 
#    y 0.000000 1.658120 0.000000 
#    z 0.000000 0.000000 1.650730 
# 
# From -- ./inp_files/6476.got.cif
#   From: 2010.05.17/outbox.cif.g08.bks.cpg/sg63_4_cif.got.tgz:6476.got - 2010.06.03 15:47:04.
