data_PCOD9469849
_publ_section_title
;
Structure prediction by ZEFSAII (Michael W. Deem and Ramdas Pophale) SiO2 
 PCOD9469849
Probable space group: C M C M
;
_chemical_formula_sum "Si O2"
_cell_formula_units_Z 72
_cell_length_a 13.368222
_cell_length_b 32.001028
_cell_length_c 8.321522
_cell_angle_alpha 90.000000
_cell_angle_beta 90.000000
_cell_angle_gamma 90.000000
_cell_volume 3559.920870
_symmetry_space_group_name_H-M "C M C M"
_symmetry_group_IT_number 63
_symmetry_cell_setting 'orthorhombic'
loop_
_space_group_symop_operation_xyz
x,y,z
-x,-y,1/2+z
x,-y,-z
-x,y,1/2-z
-x,-y,-z
x,y,1/2-z
-x,y,z
x,-y,1/2+z
1/2+x,1/2+y,z
1/2-x,1/2-y,1/2+z
1/2+x,1/2-y,-z
1/2-x,1/2+y,1/2-z
1/2-x,1/2-y,-z
1/2+x,1/2+y,1/2-z
1/2-x,1/2+y,z
1/2+x,1/2-y,1/2+z
loop_
_atom_site_type_symbol
_atom_site_label
_atom_site_fract_x
_atom_site_fract_y
_atom_site_fract_z
Si Si1 0.378432 0.228544 0.564316
Si Si2 0.120265 0.183196 0.929514
Si Si3 0.614277 0.863964 0.555377
Si Si4 0.689454 0.599406 0.064095
Si Si5 0.000000 0.952364 0.945853
O O1 0.350230 0.232017 0.750000
O O2 0.500000 0.229631 0.556665
O O3 0.344942 0.270126 0.471495
O O4 0.354026 0.182829 0.496599
O O5 0.153635 0.171315 0.750000
O O6 0.000000 0.184275 0.929445
O O7 0.151042 0.147072 0.051069
O O8 0.614167 0.864661 0.750000
O O9 0.500000 0.871374 0.500671
O O10 0.697949 0.896767 0.496162
O O11 0.699336 0.587016 0.250000
O O12 0.600900 0.570929 0.994046
O O13 0.000000 0.949598 0.750000
O O14 0.000000 0.000000 0.000000
#
# Coordination Sequence:
#
# PCOD9469849 Si02
#       5
#    16  16  16  16   8
#     4   9  17  29  46  69 102 145 186 224 264 305
#     4  10  19  30  47  73 105 140 181 226 268 312
#     4   9  18  33  52  75 104 139 181 221 257 302
#     4  10  20  35  56  79 104 136 171 214 266 319
#     4  10  22  40  62  86 110 134 166 210 270 334
#
# _framework density 20.225169000000001
#
# number of rings (size 3 to 8) (size 9 to 14) (size 15 to 20)
#    0.000    2.444    1.111    1.333    0.000    6.222 
#    0.000    0.000    0.000    0.667    0.000    0.000 
#    0.000    0.000    0.000    0.000    0.000    0.000 
#
# Total GULP energy -200844.371444 kJ/mol
# GULP energy per Si atom -5579.010318 kJ/mol
# Density = 2.017914 g / cm^3
# Si number density = 20.225169 Si / 1000 Ang^3
#
#
#
# Elastic Constant Matrix: (Units=GPa)
#
#
# Indices 1 2 3 4 5 6 
#
# 1 134.6316 65.9180 2.7316 0.0000 0.0000 0.0000
# 2 65.9180 87.3250 -1.8790 0.0000 0.0000 0.0000
# 3 2.7316 -1.8790 19.6061 0.0000 0.0000 0.0000
# 4 0.0000 0.0000 0.0000 21.7946 0.0000 0.0000
# 5 0.0000 0.0000 0.0000 0.0000 13.0859 0.0000
# 6 0.0000 0.0000 0.0000 0.0000 0.0000 23.1357
#
#
#
# Elastic Compliance Matrix: (Units=1/GPa)
#
#
# Indices 1 2 3 4 5 6 
#
# 1 0.011906 -0.009042 -0.002525 0.000000 0.000000 0.000000
# 2 -0.009042 0.018342 0.003017 0.000000 0.000000 0.000000
# 3 -0.002525 0.003017 0.051646 0.000000 0.000000 0.000000
# 4 0.000000 0.000000 0.000000 0.045883 0.000000 0.000000
# 5 0.000000 0.000000 0.000000 0.000000 0.076418 0.000000
# 6 0.000000 0.000000 0.000000 0.000000 0.000000 0.043223
#
#
# Mechanical properties :
#
#
# Convention : Reuss Voigt Hill
#
# Bulk Modulus (GPa) = 15.43346 41.67821 28.55583
# Shear Modulus (GPa) = 17.47555 23.25604 20.36579
#
# Velocity S-wave (km/s) = 2.94266 3.39463 3.17669
# Velocity P-wave (km/s) = 4.38099 6.00138 5.25403
#
# Compressibility (1/GPa) = 0.06479430
#
# Stress axis : x y z
#
# Youngs Moduli (GPa) = 83.99255 54.52115 19.36272
#
# Poissons Ratio (x) = 0.49296 0.04890
# Poissons Ratio (y) = 0.75942 -0.05843
# Poissons Ratio (z) = 0.21210 -0.16452
#
# Static dielectric constant tensor:
#      x y z
#    x 1.851950 0.000000 0.000000 
#    y 0.000000 1.651540 0.000000 
#    z 0.000000 0.000000 1.696420 
# 
# From -- ./inp_files/4611.got.cif
#   From: 2010.05.17/outbox.cif.g08.bks.cpg/sg63_3_cif.got.tgz:4611.got - 2010.06.03 15:47:04.
