data_PCOD9469404
_publ_section_title
;
Structure prediction by ZEFSAII (Michael W. Deem and Ramdas Pophale) SiO2 
 PCOD9469404
Probable space group: C M C M
;
_chemical_formula_sum "Si O2"
_cell_formula_units_Z 100
_cell_length_a 7.444276
_cell_length_b 19.830953
_cell_length_c 29.786814
_cell_angle_alpha 90.000000
_cell_angle_beta 90.000000
_cell_angle_gamma 90.000000
_cell_volume 4397.340596
_symmetry_space_group_name_H-M "C M C M"
_symmetry_group_IT_number 63
_symmetry_cell_setting 'orthorhombic'
loop_
_space_group_symop_operation_xyz
x,y,z
-x,-y,1/2+z
x,-y,-z
-x,y,1/2-z
-x,-y,-z
x,y,1/2-z
-x,y,z
x,-y,1/2+z
1/2+x,1/2+y,z
1/2-x,1/2-y,1/2+z
1/2+x,1/2-y,-z
1/2-x,1/2+y,1/2-z
1/2-x,1/2-y,-z
1/2+x,1/2+y,1/2-z
1/2-x,1/2+y,z
1/2+x,1/2-y,1/2+z
loop_
_atom_site_type_symbol
_atom_site_label
_atom_site_fract_x
_atom_site_fract_y
_atom_site_fract_z
Si Si1 0.783028 0.263311 0.573008
Si Si2 0.703282 0.482501 0.120417
Si Si3 0.282340 0.618919 0.550713
Si Si4 0.781459 0.076848 0.301336
Si Si5 0.500000 0.226015 0.750000
Si Si6 0.710340 0.089423 0.046995
Si Si7 0.206196 0.732632 0.322358
O O1 0.718474 0.196043 0.548403
O O2 0.716690 0.335333 0.556160
O O3 0.745103 0.256500 0.625743
O O4 0.000000 0.264958 0.568190
O O5 0.500000 0.464147 0.133801
O O6 0.784400 0.417505 0.095960
O O7 0.783373 0.521356 0.163008
O O8 0.698209 0.536843 0.080007
O O9 0.500000 0.618488 0.552461
O O10 0.228461 0.579343 0.506069
O O11 0.732341 0.061456 0.250000
O O12 0.716887 0.151833 0.313436
O O13 0.000000 0.079931 0.303803
O O14 0.656863 0.232319 0.788997
O O15 0.500000 0.087042 0.058966
O O16 0.000000 0.754234 0.315498
#
# Coordination Sequence:
#
# PCOD9469404 Si02
#       7
#    16  16  16  16   4  16  16
#     4   9  20  37  58  82 115 154 196 239 296 359
#     4  10  21  35  58  83 115 153 189 241 298 350
#     4  10  21  39  56  80 116 156 197 239 293 361
#     4  10  18  33  55  85 114 143 192 245 294 350
#     4  12  22  36  56  94 124 150 200 252 302 354
#     4  11  21  35  56  84 113 149 197 247 293 348
#     4  11  20  35  59  88 119 156 193 248 305 352
#
# _framework density 22.741018
#
# number of rings (size 3 to 8) (size 9 to 14) (size 15 to 20)
#    0.000    1.760    3.200    1.680    0.000    2.560 
#    2.880    0.000    1.760    0.000    0.000    0.000 
#    0.000    0.000    0.000    0.000    0.000    0.000 
#
# Total GULP energy -278982.305991 kJ/mol
# GULP energy per Si atom -5579.646120 kJ/mol
# Density = 2.268926 g / cm^3
# Si number density = 22.741018 Si / 1000 Ang^3
#
#
#
# Elastic Constant Matrix: (Units=GPa)
#
#
# Indices 1 2 3 4 5 6 
#
# 1 96.4394 -10.7816 7.4637 0.0000 0.0000 0.0000
# 2 -10.7816 56.6247 -6.3401 0.0000 0.0000 0.0000
# 3 7.4637 -6.3401 85.5772 0.0000 0.0000 0.0000
# 4 0.0000 0.0000 0.0000 -22.0472 0.0000 0.0000
# 5 0.0000 0.0000 0.0000 0.0000 16.4786 0.0000
# 6 0.0000 0.0000 0.0000 0.0000 0.0000 9.9735
#
#
#
# Elastic Compliance Matrix: (Units=1/GPa)
#
#
# Indices 1 2 3 4 5 6 
#
# 1 0.010647 0.001939 -0.000785 0.000000 0.000000 0.000000
# 2 0.001939 0.018161 0.001176 0.000000 0.000000 0.000000
# 3 -0.000785 0.001176 0.011841 0.000000 0.000000 0.000000
# 4 0.000000 0.000000 0.000000 -0.045357 0.000000 0.000000
# 5 0.000000 0.000000 0.000000 0.000000 0.060685 0.000000
# 6 0.000000 0.000000 0.000000 0.000000 0.000000 0.100266
#
#
# Mechanical properties :
#
#
# Convention : Reuss Voigt Hill
#
# Bulk Modulus (GPa) = 22.07002 24.36949 23.21975
# Shear Modulus (GPa) = 29.99693 17.43427 23.71560
#
# Velocity S-wave (km/s) = 3.63584 2.77184 3.23283
# Velocity P-wave (km/s) = 5.22989 4.58077 4.91606
#
# Compressibility (1/GPa) = 0.04531033
#
# Stress axis : x y z
#
# Youngs Moduli (GPa) = 93.92529 55.06275 84.45260
#
# Poissons Ratio (x) = -0.10678 0.06629
# Poissons Ratio (y) = -0.18215 -0.09935
# Poissons Ratio (z) = 0.07372 -0.06477
#
# Static dielectric constant tensor:
#      x y z
#    x 1.863490 0.000000 0.000000 
#    y 0.000000 1.858930 0.000000 
#    z 0.000000 0.000000 1.809550 
# 
# From -- ./inp_files/71855.got.cif
#   From: 2010.05.17/outbox.cif.g08.bks.cpg/sg63_36_cif.got.tgz:71855.got - 2010.06.03 15:47:04.
