data_PCOD9469896
_publ_section_title
;
Structure prediction by ZEFSAII (Michael W. Deem and Ramdas Pophale) SiO2 
 PCOD9469896
Probable space group: C M C M
;
_chemical_formula_sum "Si O2"
_cell_formula_units_Z 72
_cell_length_a 12.564143
_cell_length_b 25.571447
_cell_length_c 8.586694
_cell_angle_alpha 90.000000
_cell_angle_beta 90.000000
_cell_angle_gamma 90.000000
_cell_volume 2758.761529
_symmetry_space_group_name_H-M "C M C M"
_symmetry_group_IT_number 63
_symmetry_cell_setting 'orthorhombic'
loop_
_space_group_symop_operation_xyz
x,y,z
-x,-y,1/2+z
x,-y,-z
-x,y,1/2-z
-x,-y,-z
x,y,1/2-z
-x,y,z
x,-y,1/2+z
1/2+x,1/2+y,z
1/2-x,1/2-y,1/2+z
1/2+x,1/2-y,-z
1/2-x,1/2+y,1/2-z
1/2-x,1/2-y,-z
1/2+x,1/2+y,1/2-z
1/2-x,1/2+y,z
1/2+x,1/2-y,1/2+z
loop_
_atom_site_type_symbol
_atom_site_label
_atom_site_fract_x
_atom_site_fract_y
_atom_site_fract_z
Si Si1 0.872852 0.929888 0.250000
Si Si2 0.875707 0.751798 0.574536
Si Si3 0.128399 0.194445 0.750000
Si Si4 0.668231 0.143277 0.071496
Si Si5 0.126728 0.078894 0.419878
Si Si6 0.500000 0.942331 0.935515
O O1 0.845190 0.867445 0.250000
O O2 0.842122 0.949703 0.420218
O O3 0.000000 0.935288 0.250000
O O4 0.836653 0.764688 0.750000
O O5 0.836453 0.777836 0.411756
O O6 0.865790 0.690029 0.539596
O O7 0.000000 0.765727 0.579036
O O8 0.000000 0.197176 0.750000
O O9 0.634727 0.156213 0.250000
O O10 0.792505 0.127766 0.080542
O O11 0.603358 0.091777 0.021708
O O12 0.140210 0.053248 0.250000
O O13 0.000000 0.092642 0.430099
O O14 0.500000 0.946688 0.750000
O O15 0.500000 0.000000 0.000000
#
# Coordination Sequence:
#
# PCOD9469896 Si02
#       6
#     8  16   8  16  16   8
#     4   9  18  34  54  77 105 147 189 243 295 321
#     4  10  19  30  50  78 104 144 192 226 281 343
#     4   9  18  32  50  72 110 144 186 243 286 336
#     4  10  19  35  59  79 110 151 181 227 279 336
#     4   9  19  35  56  80 106 142 194 237 274 326
#     4  10  22  38  60  92 126 152 178 224 286 342
#
# _framework density 26.098666999999999
#
# number of rings (size 3 to 8) (size 9 to 14) (size 15 to 20)
#    0.000    2.444    2.222    0.000    1.556    1.778 
#    0.000    5.556    0.000    0.667    0.000    0.000 
#    0.000    0.000    0.000    0.000    0.000    0.000 
#
# Total GULP energy -201205.179839 kJ/mol
# GULP energy per Si atom -5589.032773 kJ/mol
# Density = 2.603927 g / cm^3
# Si number density = 26.098667 Si / 1000 Ang^3
#
#
#
# Elastic Constant Matrix: (Units=GPa)
#
#
# Indices 1 2 3 4 5 6 
#
# 1 94.6724 25.9080 43.8924 0.0000 0.0000 0.0000
# 2 25.9080 136.8993 75.1007 0.0000 0.0000 0.0000
# 3 43.8924 75.1007 269.7272 0.0000 0.0000 0.0000
# 4 0.0000 0.0000 0.0000 52.6123 0.0000 0.0000
# 5 0.0000 0.0000 0.0000 0.0000 35.9995 0.0000
# 6 0.0000 0.0000 0.0000 0.0000 0.0000 -38.5120
#
#
#
# Elastic Compliance Matrix: (Units=1/GPa)
#
#
# Indices 1 2 3 4 5 6 
#
# 1 0.011639 -0.001373 -0.001512 0.000000 0.000000 0.000000
# 2 -0.001373 0.008784 -0.002222 0.000000 0.000000 0.000000
# 3 -0.001512 -0.002222 0.004572 0.000000 0.000000 0.000000
# 4 0.000000 0.000000 0.000000 0.019007 0.000000 0.000000
# 5 0.000000 0.000000 0.000000 0.000000 0.027778 0.000000
# 6 0.000000 0.000000 0.000000 0.000000 0.000000 -0.025966
#
#
# Mechanical properties :
#
#
# Convention : Reuss Voigt Hill
#
# Bulk Modulus (GPa) = 67.65598 87.90013 77.77805
# Shear Modulus (GPa) = 82.02668 33.77982 57.90325
#
# Velocity S-wave (km/s) = 5.61228 3.60156 4.71534
# Velocity P-wave (km/s) = 8.24478 7.14479 7.71441
#
# Compressibility (1/GPa) = 0.01478066
#
# Stress axis : x y z
#
# Youngs Moduli (GPa) = 85.91480 113.84865 218.71549
#
# Poissons Ratio (x) = 0.15637 0.33062
# Poissons Ratio (y) = 0.11800 0.48601
# Poissons Ratio (z) = 0.12987 0.25299
#
# Static dielectric constant tensor:
#      x y z
#    x 2.061510 0.000000 0.000000 
#    y 0.000000 2.029780 0.000000 
#    z 0.000000 0.000000 2.069540 
# 
# From -- ./inp_files/4698.got.cif
#   From: 2010.05.17/outbox.cif.g08.bks.cpg/sg63_3_cif.got.tgz:4698.got - 2010.06.03 15:47:04.
