data_PCOD9469717
_publ_section_title
;
Structure prediction by ZEFSAII (Michael W. Deem and Ramdas Pophale) SiO2 
 PCOD9469717
Probable space group: C M C M
;
_chemical_formula_sum "Si O2"
_cell_formula_units_Z 128
_cell_length_a 22.155134
_cell_length_b 13.271577
_cell_length_c 23.595629
_cell_angle_alpha 90.000000
_cell_angle_beta 90.000000
_cell_angle_gamma 90.000000
_cell_volume 6937.906956
_symmetry_space_group_name_H-M "C M C M"
_symmetry_group_IT_number 63
_symmetry_cell_setting 'orthorhombic'
loop_
_space_group_symop_operation_xyz
x,y,z
-x,-y,1/2+z
x,-y,-z
-x,y,1/2-z
-x,-y,-z
x,y,1/2-z
-x,y,z
x,-y,1/2+z
1/2+x,1/2+y,z
1/2-x,1/2-y,1/2+z
1/2+x,1/2-y,-z
1/2-x,1/2+y,1/2-z
1/2-x,1/2-y,-z
1/2+x,1/2+y,1/2-z
1/2-x,1/2+y,z
1/2+x,1/2-y,1/2+z
loop_
_atom_site_type_symbol
_atom_site_label
_atom_site_fract_x
_atom_site_fract_y
_atom_site_fract_z
Si Si1 0.348425 0.841275 0.814436
Si Si2 0.782041 0.733523 0.816311
Si Si3 0.671470 0.034304 0.624872
Si Si4 0.143662 0.845905 0.901505
Si Si5 0.070343 0.967000 0.065379
Si Si6 0.622876 0.839222 0.030540
Si Si7 0.242294 0.593957 0.465999
Si Si8 0.570879 0.765973 0.582408
O O1 0.367095 0.818214 0.750000
O O2 0.282853 0.787918 0.822915
O O3 0.391962 0.801136 0.863336
O O4 0.347400 0.962241 0.823818
O O5 0.790215 0.712397 0.750000
O O6 0.791622 0.631023 0.852452
O O7 0.833429 0.807764 0.840944
O O8 0.622050 0.075271 0.579474
O O9 0.710341 0.958346 0.587043
O O10 0.105739 0.761025 0.934284
O O11 0.203636 0.843943 0.940544
O O12 0.112146 0.953775 0.901588
O O13 0.088917 0.850336 0.069911
O O14 0.000000 0.975306 0.083235
O O15 0.073571 0.000000 0.000000
O O16 0.691357 0.853270 0.004545
O O17 0.584818 0.833761 0.973009
O O18 0.269631 0.500000 0.500000
O O19 0.500000 0.768312 0.593610
#
# Coordination Sequence:
#
# PCOD9469717 Si02
#       8
#    16  16  16  16  16  16  16  16
#     4  11  23  40  60  80 115 157 192 236 283 332
#     4  10  22  37  56  86 115 148 190 233 280 339
#     4  10  20  36  56  82 119 145 183 230 284 344
#     4  11  19  33  56  82 115 154 183 223 283 343
#     4  10  21  36  56  86 118 147 185 228 279 340
#     4  10  20  33  54  83 119 144 179 232 288 337
#     4  10  19  29  50  82 115 144 176 222 281 342
#     4  11  23  39  59  84 115 148 193 241 282 340
#
# _framework density 18.449368
#
# number of rings (size 3 to 8) (size 9 to 14) (size 15 to 20)
#    0.000    1.625    3.750    1.125    1.750    1.250 
#    0.000    1.875    0.000    1.875    0.000    0.000 
#    0.000    0.000    0.000    0.000    0.000    0.000 
#
# Total GULP energy -356525.303197 kJ/mol
# GULP energy per Si atom -5570.707862 kJ/mol
# Density = 1.840738 g / cm^3
# Si number density = 18.449368 Si / 1000 Ang^3
#
#
#
# Elastic Constant Matrix: (Units=GPa)
#
#
# Indices 1 2 3 4 5 6 
#
# 1 41.1560 26.6623 28.9744 0.0000 0.0000 0.0000
# 2 26.6623 93.9581 36.0812 0.0000 0.0000 0.0000
# 3 28.9744 36.0812 113.7039 0.0000 0.0000 0.0000
# 4 0.0000 0.0000 0.0000 29.0400 0.0000 0.0000
# 5 0.0000 0.0000 0.0000 0.0000 15.0737 0.0000
# 6 0.0000 0.0000 0.0000 0.0000 0.0000 24.2706
#
#
#
# Elastic Compliance Matrix: (Units=1/GPa)
#
#
# Indices 1 2 3 4 5 6 
#
# 1 0.033251 -0.007040 -0.006239 0.000000 0.000000 0.000000
# 2 -0.007040 0.013610 -0.002525 0.000000 0.000000 0.000000
# 3 -0.006239 -0.002525 0.011186 0.000000 0.000000 0.000000
# 4 0.000000 0.000000 0.000000 0.034435 0.000000 0.000000
# 5 0.000000 0.000000 0.000000 0.000000 0.066341 0.000000
# 6 0.000000 0.000000 0.000000 0.000000 0.000000 0.041202
#
#
# Mechanical properties :
#
#
# Convention : Reuss Voigt Hill
#
# Bulk Modulus (GPa) = 37.82245 48.02818 42.92532
# Shear Modulus (GPa) = 20.79468 24.15019 22.47244
#
# Velocity S-wave (km/s) = 3.36091 3.62193 3.49386
# Velocity P-wave (km/s) = 5.96708 6.60153 6.29231
#
# Compressibility (1/GPa) = 0.02643932
#
# Stress axis : x y z
#
# Youngs Moduli (GPa) = 30.07450 73.47381 89.39792
#
# Poissons Ratio (x) = 0.51722 0.55777
# Poissons Ratio (y) = 0.21171 0.22573
# Poissons Ratio (z) = 0.18764 0.18553
#
# Static dielectric constant tensor:
#      x y z
#    x 1.640630 0.000000 0.000000 
#    y 0.000000 1.678980 0.000000 
#    z 0.000000 0.000000 1.650990 
# 
# From -- ./inp_files/65193.got.cif
#   From: 2010.05.17/outbox.cif.g08.bks.cpg/sg63_33_cif.got.tgz:65193.got - 2010.06.03 15:47:04.
