data_PCOD9469835
_publ_section_title
;
Structure prediction by ZEFSAII (Michael W. Deem and Ramdas Pophale) SiO2 
 PCOD9469835
Probable space group: C M C M
;
_chemical_formula_sum "Si O2"
_cell_formula_units_Z 80
_cell_length_a 19.347125
_cell_length_b 27.632872
_cell_length_c 8.488403
_cell_angle_alpha 90.000000
_cell_angle_beta 90.000000
_cell_angle_gamma 90.000000
_cell_volume 4538.041395
_symmetry_space_group_name_H-M "C M C M"
_symmetry_group_IT_number 63
_symmetry_cell_setting 'orthorhombic'
loop_
_space_group_symop_operation_xyz
x,y,z
-x,-y,1/2+z
x,-y,-z
-x,y,1/2-z
-x,-y,-z
x,y,1/2-z
-x,y,z
x,-y,1/2+z
1/2+x,1/2+y,z
1/2-x,1/2-y,1/2+z
1/2+x,1/2-y,-z
1/2-x,1/2+y,1/2-z
1/2-x,1/2-y,-z
1/2+x,1/2+y,1/2-z
1/2-x,1/2+y,z
1/2+x,1/2-y,1/2+z
loop_
_atom_site_type_symbol
_atom_site_label
_atom_site_fract_x
_atom_site_fract_y
_atom_site_fract_z
Si Si1 0.647981 0.552249 0.438734
Si Si2 0.423473 0.945327 0.440269
Si Si3 0.782655 0.799374 0.938691
Si Si4 0.217356 0.602535 0.560674
Si Si5 0.422581 0.347586 0.941893
O O1 0.625220 0.500000 0.500000
O O2 0.649978 0.551410 0.250000
O O3 0.724375 0.565071 0.501959
O O4 0.600402 0.597882 0.487438
O O5 0.422515 0.946070 0.250000
O O6 0.500000 0.928327 0.490616
O O7 0.358545 0.913756 0.493132
O O8 0.414878 0.000000 0.500000
O O9 0.783157 0.798425 0.750000
O O10 0.861408 0.811335 0.992480
O O11 0.750000 0.750000 0.000000
O O12 0.738403 0.845276 0.995355
O O13 0.219027 0.603677 0.750000
O O14 0.423317 0.346764 0.750000
O O15 0.500000 0.336493 0.997033
#
# Coordination Sequence:
#
# PCOD9469835 Si02
#       5
#    16  16  16  16  16
#     4  10  19  30  47  72 102 134 167 202 239 285
#     4   9  18  31  47  69  97 130 166 202 242 287
#     4  10  20  35  56  77  98 125 159 201 246 293
#     4  10  19  32  51  72  97 128 164 206 247 291
#     4   8  16  32  52  73  97 127 163 201 241 284
#
# _framework density 17.628751000000001
#
# number of rings (size 3 to 8) (size 9 to 14) (size 15 to 20)
#    0.000    2.600    0.000    3.600    0.000    3.600 
#    0.000    1.000    0.000   27.000    0.000    0.000 
#    0.000    0.000    0.000    0.000    0.000    0.000 
#
# Total GULP energy -223027.945523 kJ/mol
# GULP energy per Si atom -5575.698638 kJ/mol
# Density = 1.758863 g / cm^3
# Si number density = 17.628751 Si / 1000 Ang^3
#
#
#
# Elastic Constant Matrix: (Units=GPa)
#
#
# Indices 1 2 3 4 5 6 
#
# 1 173.8478 70.6922 22.6694 0.0000 0.0000 0.0000
# 2 70.6922 101.2063 18.3357 0.0000 0.0000 0.0000
# 3 22.6694 18.3357 32.6904 0.0000 0.0000 0.0000
# 4 0.0000 0.0000 0.0000 31.7152 0.0000 0.0000
# 5 0.0000 0.0000 0.0000 0.0000 18.8766 0.0000
# 6 0.0000 0.0000 0.0000 0.0000 0.0000 9.9673
#
#
#
# Elastic Compliance Matrix: (Units=1/GPa)
#
#
# Indices 1 2 3 4 5 6 
#
# 1 0.008254 -0.005263 -0.002772 0.000000 0.000000 0.000000
# 2 -0.005263 0.014354 -0.004402 0.000000 0.000000 0.000000
# 3 -0.002772 -0.004402 0.034981 0.000000 0.000000 0.000000
# 4 0.000000 0.000000 0.000000 0.031531 0.000000 0.000000
# 5 0.000000 0.000000 0.000000 0.000000 0.052976 0.000000
# 6 0.000000 0.000000 0.000000 0.000000 0.000000 0.100328
#
#
# Mechanical properties :
#
#
# Convention : Reuss Voigt Hill
#
# Bulk Modulus (GPa) = 30.56556 59.01546 44.79051
# Shear Modulus (GPa) = 17.97259 25.18163 21.57711
#
# Velocity S-wave (km/s) = 3.19643 3.78357 3.50233
# Velocity P-wave (km/s) = 5.56768 7.25512 6.46667
#
# Compressibility (1/GPa) = 0.03271656
#
# Stress axis : x y z
#
# Youngs Moduli (GPa) = 121.15781 69.66477 28.58709
#
# Poissons Ratio (x) = 0.36665 0.07923
# Poissons Ratio (y) = 0.63766 0.12583
# Poissons Ratio (z) = 0.33580 0.30663
#
# Static dielectric constant tensor:
#      x y z
#    x 1.627030 0.000000 0.000000 
#    y 0.000000 1.569040 0.000000 
#    z 0.000000 0.000000 1.591960 
# 
# From -- ./inp_files/6360.got.cif
#   From: 2010.05.17/outbox.cif.g08.bks.cpg/sg63_4_cif.got.tgz:6360.got - 2010.06.03 15:47:04.
