data_PCOD9469732
_publ_section_title
;
Structure prediction by ZEFSAII (Michael W. Deem and Ramdas Pophale) SiO2 
 PCOD9469732
Probable space group: C M C M
;
_chemical_formula_sum "Si O2"
_cell_formula_units_Z 112
_cell_length_a 26.579888
_cell_length_b 29.974737
_cell_length_c 7.624637
_cell_angle_alpha 90.000000
_cell_angle_beta 90.000000
_cell_angle_gamma 90.000000
_cell_volume 6074.740075
_symmetry_space_group_name_H-M "C M C M"
_symmetry_group_IT_number 63
_symmetry_cell_setting 'orthorhombic'
loop_
_space_group_symop_operation_xyz
x,y,z
-x,-y,1/2+z
x,-y,-z
-x,y,1/2-z
-x,-y,-z
x,y,1/2-z
-x,y,z
x,-y,1/2+z
1/2+x,1/2+y,z
1/2-x,1/2-y,1/2+z
1/2+x,1/2-y,-z
1/2-x,1/2+y,1/2-z
1/2-x,1/2-y,-z
1/2+x,1/2+y,1/2-z
1/2-x,1/2+y,z
1/2+x,1/2-y,1/2+z
loop_
_atom_site_type_symbol
_atom_site_label
_atom_site_fract_x
_atom_site_fract_y
_atom_site_fract_z
Si Si1 0.442834 0.800549 0.035850
Si Si2 0.250393 0.697723 0.960438
Si Si3 0.692344 0.450672 0.039649
Si Si4 0.652053 0.143061 0.964969
Si Si5 0.056251 0.199034 0.460437
Si Si6 0.192190 0.549439 0.960121
Si Si7 0.153362 0.142536 0.960178
O O1 0.442342 0.800800 0.250000
O O2 0.500000 0.811464 0.982134
O O3 0.399583 0.834066 0.976268
O O4 0.431697 0.749573 0.979555
O O5 0.250448 0.693172 0.750000
O O6 0.200096 0.672494 0.021839
O O7 0.300786 0.673406 0.027400
O O8 0.250000 0.750000 0.000000
O O9 0.694931 0.447559 0.250000
O O10 0.750093 0.447893 0.972897
O O11 0.661469 0.407985 0.974716
O O12 0.672395 0.500000 0.000000
O O13 0.651516 0.143469 0.750000
O O14 0.661034 0.092146 0.022494
O O15 0.053854 0.201190 0.250000
O O16 0.099966 0.164752 0.503861
O O17 0.000000 0.187368 0.524229
O O18 0.194857 0.553162 0.750000
O O19 0.172458 0.500000 0.000000
O O20 0.158356 0.141193 0.750000
#
# Coordination Sequence:
#
# PCOD9469732 Si02
#       7
#    16  16  16  16  16  16  16
#     4   8  14  25  43  67  90 115 154 196 223 253
#     4  10  19  30  43  64  94 125 152 182 225 278
#     4   9  17  30  46  66  91 118 150 188 227 273
#     4   9  15  26  44  62  87 122 151 180 225 271
#     4   9  18  32  49  70  94 120 155 194 226 264
#     4   9  16  28  45  64  87 117 150 184 224 268
#     4  10  19  31  47  68  95 122 151 188 231 280
#
# _framework density 18.437003000000001
#
# number of rings (size 3 to 8) (size 9 to 14) (size 15 to 20)
#    0.000    2.857    1.429    1.714    0.000    2.571 
#    0.000    0.714    0.000    1.714    0.000    0.000 
#    0.000    0.000    0.000    0.000    0.000    0.000 
#
# Total GULP energy -312254.660478 kJ/mol
# GULP energy per Si atom -5575.976080 kJ/mol
# Density = 1.839504 g / cm^3
# Si number density = 18.437003 Si / 1000 Ang^3
#
#
#
# Elastic Constant Matrix: (Units=GPa)
#
#
# Indices 1 2 3 4 5 6 
#
# 1 137.9434 119.9370 5.1308 0.0000 0.0000 0.0000
# 2 119.9370 205.9122 5.2119 0.0000 0.0000 0.0000
# 3 5.1308 5.2119 34.0651 0.0000 0.0000 0.0000
# 4 0.0000 0.0000 0.0000 17.6341 0.0000 0.0000
# 5 0.0000 0.0000 0.0000 0.0000 7.9236 0.0000
# 6 0.0000 0.0000 0.0000 0.0000 0.0000 22.2292
#
#
#
# Elastic Compliance Matrix: (Units=1/GPa)
#
#
# Indices 1 2 3 4 5 6 
#
# 1 0.014716 -0.008548 -0.000909 0.000000 0.000000 0.000000
# 2 -0.008548 0.009841 -0.000218 0.000000 0.000000 0.000000
# 3 -0.000909 -0.000218 0.029526 0.000000 0.000000 0.000000
# 4 0.000000 0.000000 0.000000 0.056708 0.000000 0.000000
# 5 0.000000 0.000000 0.000000 0.000000 0.126205 0.000000
# 6 0.000000 0.000000 0.000000 0.000000 0.000000 0.044986
#
#
# Mechanical properties :
#
#
# Convention : Reuss Voigt Hill
#
# Bulk Modulus (GPa) = 28.79154 70.94223 49.86689
# Shear Modulus (GPa) = 15.97905 26.06677 21.02291
#
# Velocity S-wave (km/s) = 2.94714 3.76417 3.38043
# Velocity P-wave (km/s) = 5.21833 7.57982 6.50710
#
# Compressibility (1/GPa) = 0.03473242
#
# Stress axis : x y z
#
# Youngs Moduli (GPa) = 67.95466 101.61441 33.86870
#
# Poissons Ratio (x) = 0.86864 0.03077
# Poissons Ratio (y) = 0.58090 0.00739
# Poissons Ratio (z) = 0.06174 0.02216
#
# Static dielectric constant tensor:
#      x y z
#    x 1.624390 0.000000 0.000000 
#    y 0.000000 1.638720 0.000000 
#    z 0.000000 0.000000 1.704350 
# 
# From -- ./inp_files/24092.got.cif
#   From: 2010.05.17/outbox.cif.g08.bks.cpg/sg63_13_cif.got.tgz:24092.got - 2010.06.03 15:47:04.
