data_PCOD9469848
_publ_section_title
;
Structure prediction by ZEFSAII (Michael W. Deem and Ramdas Pophale) SiO2 
 PCOD9469848
Probable space group: C M C M
;
_chemical_formula_sum "Si O2"
_cell_formula_units_Z 112
_cell_length_a 14.162622
_cell_length_b 30.414487
_cell_length_c 13.793941
_cell_angle_alpha 90.000000
_cell_angle_beta 90.000000
_cell_angle_gamma 90.000000
_cell_volume 5941.724674
_symmetry_space_group_name_H-M "C M C M"
_symmetry_group_IT_number 63
_symmetry_cell_setting 'orthorhombic'
loop_
_space_group_symop_operation_xyz
x,y,z
-x,-y,1/2+z
x,-y,-z
-x,y,1/2-z
-x,-y,-z
x,y,1/2-z
-x,y,z
x,-y,1/2+z
1/2+x,1/2+y,z
1/2-x,1/2-y,1/2+z
1/2+x,1/2-y,-z
1/2-x,1/2+y,1/2-z
1/2-x,1/2-y,-z
1/2+x,1/2+y,1/2-z
1/2-x,1/2+y,z
1/2+x,1/2-y,1/2+z
loop_
_atom_site_type_symbol
_atom_site_label
_atom_site_fract_x
_atom_site_fract_y
_atom_site_fract_z
Si Si1 0.108857 0.213731 0.534663
Si Si2 0.108121 0.614173 0.133651
Si Si3 0.604826 0.619188 0.866615
Si Si4 0.611408 0.163692 0.637926
Si Si5 0.110575 0.483420 0.867817
Si Si6 0.701293 0.199295 0.448704
Si Si7 0.206653 0.427601 0.367433
O O1 0.115228 0.169267 0.597446
O O2 0.187025 0.207305 0.450785
O O3 0.144148 0.258133 0.587691
O O4 0.000000 0.219060 0.504346
O O5 0.105008 0.613378 0.250000
O O6 0.140578 0.565635 0.101496
O O7 0.171762 0.654493 0.101889
O O8 0.000000 0.621087 0.099110
O O9 0.608396 0.619388 0.750000
O O10 0.500000 0.603821 0.896412
O O11 0.691332 0.589366 0.902771
O O12 0.639910 0.171304 0.750000
O O13 0.500000 0.171553 0.629232
O O14 0.667782 0.192309 0.560443
O O15 0.634531 0.112602 0.614912
O O16 0.114702 0.483702 0.750000
O O17 0.169647 0.525332 0.901900
O O18 0.000000 0.488813 0.892296
O O19 0.213163 0.431033 0.250000
#
# Coordination Sequence:
#
# PCOD9469848 Si02
#       7
#    16  16  16  16  16  16  16
#     4  10  21  35  51  72  99 132 169 211 261 307
#     4   9  18  33  53  78 106 136 172 213 255 300
#     4   9  17  30  49  73 100 130 169 217 262 303
#     4  10  19  30  47  73 104 134 165 203 250 304
#     4   8  14  26  46  72 103 136 165 200 252 306
#     4  11  21  35  55  75 100 136 172 210 255 308
#     4   9  15  26  45  70  99 133 167 199 247 304
#
# _framework density 18.849746
#
# number of rings (size 3 to 8) (size 9 to 14) (size 15 to 20)
#    0.000    2.571    1.429    2.571    0.000    2.286 
#    0.000    4.286    0.000    4.714    0.000    4.000 
#    0.000    0.000    0.000    0.000    0.000    0.000 
#
# Total GULP energy -312354.515269 kJ/mol
# GULP energy per Si atom -5577.759201 kJ/mol
# Density = 1.880684 g / cm^3
# Si number density = 18.849746 Si / 1000 Ang^3
#
#
#
# Elastic Constant Matrix: (Units=GPa)
#
#
# Indices 1 2 3 4 5 6 
#
# 1 127.3692 66.1356 2.4336 0.0000 0.0000 0.0000
# 2 66.1356 146.3286 12.7915 0.0000 0.0000 0.0000
# 3 2.4336 12.7915 35.1081 0.0000 0.0000 0.0000
# 4 0.0000 0.0000 0.0000 28.7759 0.0000 0.0000
# 5 0.0000 0.0000 0.0000 0.0000 11.5032 0.0000
# 6 0.0000 0.0000 0.0000 0.0000 0.0000 30.1622
#
#
#
# Elastic Compliance Matrix: (Units=1/GPa)
#
#
# Indices 1 2 3 4 5 6 
#
# 1 0.010294 -0.004741 0.001014 0.000000 0.000000 0.000000
# 2 -0.004741 0.009242 -0.003039 0.000000 0.000000 0.000000
# 3 0.001014 -0.003039 0.029520 0.000000 0.000000 0.000000
# 4 0.000000 0.000000 0.000000 0.034751 0.000000 0.000000
# 5 0.000000 0.000000 0.000000 0.000000 0.086932 0.000000
# 6 0.000000 0.000000 0.000000 0.000000 0.000000 0.033154
#
#
# Mechanical properties :
#
#
# Convention : Reuss Voigt Hill
#
# Bulk Modulus (GPa) = 28.14969 52.39193 40.27081
# Shear Modulus (GPa) = 21.80865 29.25129 25.52997
#
# Velocity S-wave (km/s) = 3.40512 3.94358 3.68420
# Velocity P-wave (km/s) = 5.51597 6.97070 6.28556
#
# Compressibility (1/GPa) = 0.03552437
#
# Stress axis : x y z
#
# Youngs Moduli (GPa) = 97.14848 108.19796 33.87498
#
# Poissons Ratio (x) = 0.51296 -0.03434
# Poissons Ratio (y) = 0.46058 0.10294
# Poissons Ratio (z) = -0.09849 0.32879
#
# Static dielectric constant tensor:
#      x y z
#    x 1.665330 0.000000 0.000000 
#    y 0.000000 1.661080 0.000000 
#    z 0.000000 0.000000 1.699540 
# 
# From -- ./inp_files/32733.got.cif
#   From: 2010.05.17/outbox.cif.g08.bks.cpg/sg63_17_cif.got.tgz:32733.got - 2010.06.03 15:47:04.
