data_PCOD9469276
_publ_section_title
;
Structure prediction by ZEFSAII (Michael W. Deem and Ramdas Pophale) SiO2 
 PCOD9469276
Probable space group: C M C M
;
_chemical_formula_sum "Si O2"
_cell_formula_units_Z 104
_cell_length_a 21.560980
_cell_length_b 8.582343
_cell_length_c 25.614997
_cell_angle_alpha 90.000000
_cell_angle_beta 90.000000
_cell_angle_gamma 90.000000
_cell_volume 4739.894481
_symmetry_space_group_name_H-M "C M C M"
_symmetry_group_IT_number 63
_symmetry_cell_setting 'orthorhombic'
loop_
_space_group_symop_operation_xyz
x,y,z
-x,-y,1/2+z
x,-y,-z
-x,y,1/2-z
-x,-y,-z
x,y,1/2-z
-x,y,z
x,-y,1/2+z
1/2+x,1/2+y,z
1/2-x,1/2-y,1/2+z
1/2+x,1/2-y,-z
1/2-x,1/2+y,1/2-z
1/2-x,1/2-y,-z
1/2+x,1/2+y,1/2-z
1/2-x,1/2+y,z
1/2+x,1/2-y,1/2+z
loop_
_atom_site_type_symbol
_atom_site_label
_atom_site_fract_x
_atom_site_fract_y
_atom_site_fract_z
Si Si1 0.339333 0.920339 0.549843
Si Si2 0.223790 0.219066 0.863315
Si Si3 0.130581 0.635213 0.750000
Si Si4 0.774909 0.207134 0.750000
Si Si5 0.104246 0.009511 0.636415
Si Si6 0.930266 0.849722 0.030407
Si Si7 0.105798 0.998973 0.250000
Si Si8 0.130385 0.647846 0.864892
O O1 0.293800 0.832702 0.589710
O O2 0.385281 0.794281 0.525203
O O3 0.307378 0.000000 0.500000
O O4 0.379959 0.035270 0.586364
O O5 0.214898 0.292372 0.805208
O O6 0.175296 0.074881 0.866130
O O7 0.294909 0.170015 0.865811
O O8 0.205199 0.644526 0.750000
O O9 0.111569 0.578055 0.807914
O O10 0.108769 0.815105 0.750000
O O11 0.823858 0.066101 0.750000
O O12 0.069899 0.098767 0.590760
O O13 0.079409 0.049643 0.694225
O O14 0.103464 0.822679 0.629529
O O15 0.000000 0.817761 0.012181
O O16 0.905526 0.000000 0.000000
#
# Coordination Sequence:
#
# PCOD9469276 Si02
#       8
#    16  16   8   8  16  16   8  16
#     4  11  23  35  51  79 109 138 174 217 267 318
#     4   9  18  31  50  77 112 150 181 208 243 295
#     4   8  16  26  46  74 106 146 179 206 241 287
#     4   8  14  26  46  71 101 143 191 219 230 269
#     4   9  17  32  53  77 106 138 174 210 252 310
#     4  10  22  42  63  76  90 123 175 231 277 314
#     4   8  14  26  45  73 105 135 166 207 252 300
#     4  10  18  32  52  80 114 145 176 209 247 298
#
# _framework density 21.941416
#
# number of rings (size 3 to 8) (size 9 to 14) (size 15 to 20)
#    0.000    2.615    0.000    1.846    0.000    5.231 
#    0.000    5.769    0.000    0.000    0.000    1.077 
#    0.000    0.000    0.000    0.000    0.000    0.000 
#
# Total GULP energy -290096.686868 kJ/mol
# GULP energy per Si atom -5578.782440 kJ/mol
# Density = 2.189148 g / cm^3
# Si number density = 21.941416 Si / 1000 Ang^3
#
#
#
# Elastic Constant Matrix: (Units=GPa)
#
#
# Indices 1 2 3 4 5 6 
#
# 1 23.0609 4.4618 -7.8546 0.0000 0.0000 0.0000
# 2 4.4618 53.5276 32.6356 0.0000 0.0000 0.0000
# 3 -7.8546 32.6356 134.3200 0.0000 0.0000 0.0000
# 4 0.0000 0.0000 0.0000 33.0469 0.0000 0.0000
# 5 0.0000 0.0000 0.0000 0.0000 15.7190 0.0000
# 6 0.0000 0.0000 0.0000 0.0000 0.0000 -2.0423
#
#
#
# Elastic Compliance Matrix: (Units=1/GPa)
#
#
# Indices 1 2 3 4 5 6 
#
# 1 0.046058 -0.006434 0.004257 0.000000 0.000000 0.000000
# 2 -0.006434 0.022830 -0.005923 0.000000 0.000000 0.000000
# 3 0.004257 -0.005923 0.009133 0.000000 0.000000 0.000000
# 4 0.000000 0.000000 0.000000 0.030260 0.000000 0.000000
# 5 0.000000 0.000000 0.000000 0.000000 0.063617 0.000000
# 6 0.000000 0.000000 0.000000 0.000000 0.000000 -0.489634
#
#
# Mechanical properties :
#
#
# Convention : Reuss Voigt Hill
#
# Bulk Modulus (GPa) = 16.17626 29.93266 23.05446
# Shear Modulus (GPa) = -17.79817 21.45576 1.82880
#
# Velocity S-wave (km/s) = -2.85119 3.13048 0.91395
# Velocity P-wave (km/s) = 1.85757 5.17090 3.41230
#
# Compressibility (1/GPa) = 0.06181898
#
# Stress axis : x y z
#
# Youngs Moduli (GPa) = 21.71167 43.80274 109.49341
#
# Poissons Ratio (x) = 0.28185 -0.46608
# Poissons Ratio (y) = 0.13970 0.64855
# Poissons Ratio (z) = -0.09242 0.25945
#
# Static dielectric constant tensor:
#      x y z
#    x 1.776910 0.000000 0.000000 
#    y 0.000000 1.828410 0.000000 
#    z 0.000000 0.000000 1.876300 
# 
# From -- ./inp_files/65453.got.cif
#   From: 2010.05.17/outbox.cif.g08.bks.cpg/sg63_33_cif.got.tgz:65453.got - 2010.06.03 15:47:04.
